MAK-UNK-51bb34f9-3-chloroacetamide
     RDKit          3D

 26 27  0  0  0  0  0  0  0  0999 V2000
    8.2930   -3.3960   19.6700 C   0  0  0  0  0  0  0  0  0  0  0  0
    7.2460   -2.4280   20.2640 C   0  0  0  0  0  0  0  0  0  0  0  0
    6.4810   -2.9320   19.2350 O   0  0  0  0  0  0  0  0  0  0  0  0
    8.4370   -2.3460   21.1530 C   0  0  0  0  0  0  0  0  0  0  0  0
    8.8130   -2.9760   22.6430 C   0  0  0  0  0  0  0  0  0  0  0  0
    9.0750   -3.4110   23.6730 N   0  0  0  0  0  0  0  0  0  0  0  0
   10.0220   -2.8170   23.3860 C   0  0  0  0  0  0  0  0  0  0  0  0
   11.3690   -2.0720   23.2140 N   0  0  0  0  0  0  0  0  0  0  0  0
   12.1840   -2.6220   22.2390 C   0  0  0  0  0  0  0  0  0  0  0  0
   13.5930   -2.2420   22.3500 C   0  0  0  0  0  0  0  0  0  0  0  0
   10.2690   -2.1260   22.3360 C   0  0  0  0  0  0  0  0  0  0  0  0
    9.6960   -1.7940   21.2080 C   0  0  0  0  0  0  0  0  0  0  0  0
   10.6870   -1.0420   20.7560 N   0  0  0  0  0  0  0  0  0  0  0  0
   11.2000   -0.2050   21.9020 C   0  0  0  0  0  0  0  0  0  0  0  0
   12.5000   -0.0350   22.2600 O   0  0  0  0  0  0  0  0  0  0  0  0
   10.0930    0.3590   22.8810 C   0  0  0  0  0  0  0  0  0  0  0  0
    8.8310   -0.0670   22.6860 N   0  0  0  0  0  0  0  0  0  0  0  0
    8.3040    0.5110   21.5660 C   0  0  0  0  0  0  0  0  0  0  0  0
    8.9380    1.5920   20.9870 O   0  0  0  0  0  0  0  0  0  0  0  0
    7.1650   -0.1160   21.1930 N   0  0  0  0  0  0  0  0  0  0  0  0
    6.5560    0.3070   20.1130 C   0  0  0  0  0  0  0  0  0  0  0  0
    5.1890    1.0040   20.4340 C   0  0  0  0  0  0  0  0  0  0  0  0
    4.3960    1.4930   19.2510 C   0  0  0  0  0  0  0  0  0  0  0  0
    5.2040    1.1190   18.0890 C   0  0  0  0  0  0  0  0  0  0  0  0
    6.4030    0.5360   17.6460 N   0  0  0  0  0  0  0  0  0  0  0  0
    6.9950    0.1450   18.7650 C   0  0  0  0  0  0  0  0  0  0  0  0
  1  2  1  0
  2  3  2  0
  2  4  1  0
  4  5  2  0
  5  6  1  0
  6  7  2  0
  7  8  1  0
  8  9  1  0
  9 10  1  0
  7 11  1  0
  4 12  1  0
 11 12  2  0
 12 13  1  0
 13 14  1  0
 14 15  2  0
 14 16  1  0
 16 17  1  0
 17 18  1  0
 18 19  2  0
 18 20  1  0
 20 21  1  0
 21 22  2  0
 22 23  1  0
 23 24  2  0
 24 25  1  0
 21 26  1  0
 25 26  2  0
M  END
