MAK-UNK-72659d64-6-nitrile
     RDKit          3D

 13 13  0  0  0  0  0  0  0  0999 V2000
    6.2950   -3.8970   19.6140 C   0  0  0  0  0  0  0  0  0  0  0  0
    5.6840   -3.1350   18.7970 N   0  0  0  0  0  0  0  0  0  0  0  0
    5.6490   -4.4920   20.6590 N   0  0  0  0  0  0  0  0  0  0  0  0
    5.2110   -3.7060   21.8100 C   0  0  0  0  0  0  0  0  0  0  0  0
    6.0190   -5.5920   21.4040 C   0  0  0  0  0  0  0  0  0  0  0  0
    5.8110   -5.2940   22.8840 C   0  0  0  0  0  0  0  0  0  0  0  0
    6.6950   -4.2100   23.4730 C   0  0  0  0  0  0  0  0  0  0  0  0
    6.6430   -3.8120   24.7370 N   0  0  0  0  0  0  0  0  0  0  0  0
    5.7230   -4.4650   25.4910 C   0  0  0  0  0  0  0  0  0  0  0  0
    5.6340   -4.0330   26.9620 C   0  0  0  0  0  0  0  0  0  0  0  0
    5.5800   -3.7050   28.0770 N   0  0  0  0  0  0  0  0  0  0  0  0
    4.8780   -5.4550   25.0870 N   0  0  0  0  0  0  0  0  0  0  0  0
    4.9340   -5.8530   23.7900 C   0  0  0  0  0  0  0  0  0  0  0  0
  1  2  2  3
  1  3  1  0
  3  4  1  0
  3  5  1  0
  5  6  1  0
  6  7  2  0
  7  8  1  0
  8  9  2  0
  9 10  1  0
 10 11  3  0
  9 12  1  0
  6 13  1  0
 12 13  2  0
M  END
