MAK-UNK-8fdbca50-19-chloroacetamide
     RDKit          3D

 39 42  0  0  0  0  0  0  0  0999 V2000
    7.3680   -3.9320   20.3830 C   0  0  0  0  0  0  0  0  0  0  0  0
    6.2950   -2.9720   19.9390 C   0  0  0  0  0  0  0  0  0  0  0  0
    5.4030   -3.2560   19.1270 O   0  0  0  0  0  0  0  0  0  0  0  0
    6.3640   -1.7030   20.5050 N   0  0  0  0  0  0  0  0  0  0  0  0
    7.2280   -1.4310   21.5410 C   0  0  0  0  0  0  0  0  0  0  0  0
    6.9350   -0.1200   22.2890 C   0  0  0  0  0  0  0  0  0  0  0  0
    7.2660    1.0090   21.3280 C   0  0  0  0  0  0  0  0  0  0  0  0
    8.7880    1.2040   21.5400 C   0  0  0  0  0  0  0  0  0  0  0  0
    9.5170    0.2200   21.5190 O   0  0  0  0  0  0  0  0  0  0  0  0
    9.2380    2.5470   21.7780 N   0  0  0  0  0  0  0  0  0  0  0  0
    8.1720    3.2450   22.5770 C   0  0  0  0  0  0  0  0  0  0  0  0
    7.0060    3.6040   21.6800 C   0  0  0  0  0  0  0  0  0  0  0  0
    7.7120    2.4850   23.6650 C   0  0  0  0  0  0  0  0  0  0  0  0
   10.5100    2.7960   22.3650 C   0  0  2  0  0  0  0  0  0  0  0  0
   11.6210    1.7030   23.0350 S   0  0  0  0  0  0  0  0  0  0  0  0
   11.6600    2.1180   24.3420 O   0  0  0  0  0  0  0  0  0  0  0  0
   12.7740    1.4130   22.2260 O   0  0  0  0  0  0  0  0  0  0  0  0
   10.8500    0.2340   23.3590 C   0  0  0  0  0  0  0  0  0  0  0  0
   11.1280   -0.9880   22.6110 C   0  0  0  0  0  0  0  0  0  0  0  0
   10.3850   -2.1640   23.0460 C   0  0  0  0  0  0  0  0  0  0  0  0
    9.5070   -2.0190   24.1070 C   0  0  0  0  0  0  0  0  0  0  0  0
    9.2930   -0.8500   24.7710 N   0  0  0  0  0  0  0  0  0  0  0  0
    9.9630    0.2450   24.3890 C   0  0  0  0  0  0  0  0  0  0  0  0
    9.8160    3.5780   23.5230 C   0  0  0  0  0  0  0  0  0  0  0  0
   10.2490    4.8780   23.5240 C   0  0  0  0  0  0  0  0  0  0  0  0
    9.8420    5.9320   24.3610 C   0  0  0  0  0  0  0  0  0  0  0  0
   10.5500    7.0660   24.1920 N   0  0  0  0  0  0  0  0  0  0  0  0
   11.9530    6.9530   24.5720 C   0  0  0  0  0  0  0  0  0  0  0  0
   11.2290    5.1750   22.6300 C   0  0  0  0  0  0  0  0  0  0  0  0
   11.5030    4.0070   21.9150 C   0  0  0  0  0  0  0  0  0  0  0  0
   12.6610    4.0800   21.0870 C   0  0  0  0  0  0  0  0  0  0  0  0
   12.8340    4.3090   19.5670 C   0  0  0  0  0  0  0  0  0  0  0  0
   14.3850    4.2490   19.2740 C   0  0  0  0  0  0  0  0  0  0  0  0
   15.3780    4.0420   20.2020 C   0  0  0  0  0  0  0  0  0  0  0  0
   15.0570    3.8700   21.5080 C   0  0  0  0  0  0  0  0  0  0  0  0
   13.7530    3.9010   21.8760 C   0  0  0  0  0  0  0  0  0  0  0  0
   13.4540    3.7440   23.1430 F   0  0  0  0  0  0  0  0  0  0  0  0
    6.7650    0.7130   19.8940 C   0  0  0  0  0  0  0  0  0  0  0  0
    5.8210   -0.5040   19.8540 C   0  0  0  0  0  0  0  0  0  0  0  0
  1  2  1  0
  2  3  2  0
  2  4  1  0
  4  5  1  0
  5  6  1  0
  6  7  1  0
  7  8  1  0
  8  9  2  0
  8 10  1  0
 10 11  1  0
 11 12  1  0
 11 13  1  0
 14 10  1  6
 14 15  1  0
 15 16  2  0
 15 17  2  0
 15 18  1  0
 18 19  2  0
 19 20  1  0
 20 21  2  0
 21 22  1  0
 18 23  1  0
 22 23  2  0
 14 24  1  0
 24 25  2  0
 25 26  1  0
 26 27  1  0
 27 28  1  0
 25 29  1  0
 14 30  1  0
 29 30  2  0
 30 31  1  0
 31 32  2  0
 32 33  1  0
 33 34  2  0
 34 35  1  0
 31 36  1  0
 35 36  2  0
 36 37  1  0
  7 38  1  0
  4 39  1  0
 38 39  1  0
M  END
