MAK-UNK-10799360-30-chloroacetamide
     RDKit          3D

 27 30  0  0  0  0  0  0  0  0999 V2000
    6.8460   -3.1170   19.0850 C   0  0  0  0  0  0  0  0  0  0  0  0
    5.8130   -3.6780   20.0780 C   0  0  0  0  0  0  0  0  0  0  0  0
    5.3730   -4.8090   19.9440 O   0  0  0  0  0  0  0  0  0  0  0  0
    5.3520   -2.9380   21.1330 N   0  0  0  0  0  0  0  0  0  0  0  0
    5.2310   -3.5540   22.4340 C   0  0  0  0  0  0  0  0  0  0  0  0
    6.6070   -3.0890   22.9870 C   0  0  2  0  0  0  0  0  0  0  0  0
    5.6290   -1.8530   23.0480 C   0  0  0  0  0  0  0  0  0  0  0  0
    5.6700   -1.5780   21.5460 C   0  0  1  0  0  0  0  0  0  0  0  0
    7.1660   -1.3100   21.5400 C   0  0  0  0  0  0  0  0  0  0  0  0
    7.4480   -1.8700   22.8810 N   0  0  0  0  0  0  0  0  0  0  0  0
    8.8900   -2.0020   23.0730 C   0  0  0  0  0  0  0  0  0  0  0  0
    9.6680   -0.9530   22.2950 C   0  0  0  0  0  0  0  0  0  0  0  0
    9.5480    0.3970   22.6780 C   0  0  0  0  0  0  0  0  0  0  0  0
   10.4360    0.6200   23.6300 N   0  0  0  0  0  0  0  0  0  0  0  0
   11.1770    1.7060   23.4450 C   0  0  0  0  0  0  0  0  0  0  0  0
   12.4300    1.6230   22.9180 C   0  0  0  0  0  0  0  0  0  0  0  0
   13.0210    0.3660   22.8110 C   0  0  0  0  0  0  0  0  0  0  0  0
   12.4730   -0.6700   23.5360 C   0  0  0  0  0  0  0  0  0  0  0  0
   13.1990   -1.7970   23.8280 C   0  0  0  0  0  0  0  0  0  0  0  0
   12.5960   -2.8200   24.5500 C   0  0  0  0  0  0  0  0  0  0  0  0
   11.2810   -2.7370   24.9700 C   0  0  0  0  0  0  0  0  0  0  0  0
   10.6410   -4.0700   25.8160 S   0  0  0  0  0  0  0  0  0  0  0  0
   12.1200   -4.3950   26.4890 N   0  0  0  0  0  0  0  0  0  0  0  0
   10.3190   -5.1370   24.9050 O   0  0  0  0  0  0  0  0  0  0  0  0
    9.7220   -3.6960   26.8640 O   0  0  0  0  0  0  0  0  0  0  0  0
   10.5530   -1.6070   24.6960 C   0  0  0  0  0  0  0  0  0  0  0  0
   11.1630   -0.5740   23.9720 C   0  0  0  0  0  0  0  0  0  0  0  0
  1  2  1  0
  2  3  2  0
  2  4  1  0
  4  5  1  0
  6  5  1  6
  6  7  1  0
  4  8  1  0
  7  8  1  0
  8  9  1  6
  6 10  1  0
  9 10  1  0
 10 11  1  0
 11 12  1  0
 12 13  1  0
 13 14  1  0
 14 15  1  0
 15 16  1  0
 16 17  1  0
 17 18  1  0
 18 19  2  0
 19 20  1  0
 20 21  2  0
 21 22  1  0
 22 23  1  0
 22 24  2  0
 22 25  2  0
 21 26  1  0
 14 27  1  0
 18 27  1  0
 26 27  2  0
M  END
