MAK-UNK-212f693e-21
     RDKit          3D

 15 16  0  0  0  0  0  0  0  0999 V2000
    5.4820   -4.6720   19.8450 O   0  0  0  0  0  0  0  0  0  0  0  0
    6.1910   -4.2620   20.7610 C   0  0  0  0  0  0  0  0  0  0  0  0
    6.9690   -2.7000   20.6910 Cl  0  0  0  0  0  0  0  0  0  0  0  0
    6.4410   -5.0370   21.9580 N   0  0  0  0  0  0  0  0  0  0  0  0
    5.5490   -6.1620   22.2100 C   0  0  0  0  0  0  0  0  0  0  0  0
    4.5790   -5.8350   23.3630 C   0  0  0  0  0  0  0  0  0  0  0  0
    5.3760   -5.1790   24.4920 C   0  0  0  0  0  0  0  0  0  0  0  0
    4.4810   -4.9610   25.5900 O   0  0  0  0  0  0  0  0  0  0  0  0
    3.5880   -3.9050   25.5950 C   0  0  0  0  0  0  0  0  0  0  0  0
    3.7260   -2.5040   25.7170 C   0  0  0  0  0  0  0  0  0  0  0  0
    2.5800   -1.7530   25.6870 C   0  0  0  0  0  0  0  0  0  0  0  0
    1.1720   -2.6230   25.5110 S   0  0  0  0  0  0  0  0  0  0  0  0
    2.1530   -4.0060   25.4720 C   0  0  0  0  0  0  0  0  0  0  0  0
    6.1200   -4.0810   24.0660 C   0  0  0  0  0  0  0  0  0  0  0  0
    7.0950   -4.4120   23.1200 C   0  0  0  0  0  0  0  0  0  0  0  0
  1  2  2  0
  2  3  1  0
  2  4  1  0
  4  5  1  0
  5  6  1  0
  6  7  1  0
  7  8  1  0
  8  9  1  0
  9 10  1  0
 10 11  2  0
 11 12  1  0
  9 13  2  0
 12 13  1  0
  7 14  1  0
  4 15  1  0
 14 15  1  0
M  END
