MAK-UNK-10799360-2-vinylsulfonamide
     RDKit          3D

 29 32  0  0  0  0  0  0  0  0999 V2000
    6.4380   -4.4890   20.5940 C   0  0  0  0  0  0  0  0  0  0  0  0
    6.5450   -4.5620   22.1380 C   0  0  0  0  0  0  0  0  0  0  0  0
    5.2310   -3.9740   23.2330 S   0  0  0  0  0  0  0  0  0  0  0  0
    3.9930   -3.7560   22.5670 O   0  0  0  0  0  0  0  0  0  0  0  0
    5.2390   -4.8890   24.3580 O   0  0  0  0  0  0  0  0  0  0  0  0
    5.7240   -2.4800   23.8710 N   0  0  0  0  0  0  0  0  0  0  0  0
    5.1640   -1.2290   23.2530 C   0  0  0  0  0  0  0  0  0  0  0  0
    6.4280   -0.5270   22.6860 C   0  0  1  0  0  0  0  0  0  0  0  0
    7.3270   -0.6880   23.9050 C   0  0  0  0  0  0  0  0  0  0  0  0
    7.1990   -2.2130   23.9240 C   0  0  2  0  0  0  0  0  0  0  0  0
    7.7370   -2.5340   22.5410 C   0  0  2  0  0  0  0  0  0  0  0  0
    9.1630   -2.4730   22.6780 N   0  0  0  0  0  0  0  0  0  0  0  0
    9.7770   -2.1630   23.9480 C   0  0  0  0  0  0  0  0  0  0  0  0
   10.9080   -1.2610   23.6730 C   0  0  0  0  0  0  0  0  0  0  0  0
   11.9200   -1.7040   22.8210 C   0  0  0  0  0  0  0  0  0  0  0  0
   12.9800   -0.8770   22.5140 C   0  0  0  0  0  0  0  0  0  0  0  0
   13.0250    0.4010   23.0620 C   0  0  0  0  0  0  0  0  0  0  0  0
   12.0140    0.8360   23.9130 C   0  0  0  0  0  0  0  0  0  0  0  0
   10.9540    0.0110   24.2290 C   0  0  0  0  0  0  0  0  0  0  0  0
    7.0490   -1.4930   21.6320 C   0  0  1  0  0  0  0  0  0  0  0  0
    5.9850   -2.2400   20.9270 N   0  0  0  0  0  0  0  0  0  0  0  0
    5.8480   -2.5430   19.4980 C   0  0  0  0  0  0  0  0  0  0  0  0
    5.2520   -3.5640   19.1430 O   0  0  0  0  0  0  0  0  0  0  0  0
    6.3690   -1.5590   18.4540 C   0  0  0  0  0  0  0  0  0  0  0  0
    5.7930   -0.2710   18.3820 C   0  0  0  0  0  0  0  0  0  0  0  0
    6.1850    0.7030   17.4680 C   0  0  0  0  0  0  0  0  0  0  0  0
    7.2860    0.4220   16.4700 C   0  0  0  0  0  0  0  0  0  0  0  0
    7.9280   -0.9290   16.5020 C   0  0  0  0  0  0  0  0  0  0  0  0
    7.4240   -1.9280   17.5450 C   0  0  0  0  0  0  0  0  0  0  0  0
  1  2  1  0
  3  2  1  0
  3  4  2  0
  3  5  2  0
  3  6  1  0
  6  7  1  0
  8  7  1  1
  8  9  1  0
 10  6  1  6
  9 10  1  0
 10 11  1  0
 11 12  1  1
 12 13  1  0
 13 14  1  0
 14 15  2  0
 15 16  1  0
 16 17  2  0
 17 18  1  0
 14 19  1  0
 18 19  2  0
  8 20  1  0
 11 20  1  0
 20 21  1  1
 21 22  1  0
 22 23  2  0
 22 24  1  0
 24 25  2  0
 25 26  1  0
 26 27  2  0
 27 28  1  0
 24 29  1  0
 28 29  2  0
M  END
