MAK-UNK-516d8086-31-nitrile
     RDKit          3D

 22 24  0  0  0  0  0  0  0  0999 V2000
    6.9960   -3.5910   19.6690 C   0  0  0  0  0  0  0  0  0  0  0  0
    5.8350   -4.1290   19.8510 N   0  0  0  0  0  0  0  0  0  0  0  0
    7.0620   -1.8630   19.9240 C   0  0  0  0  0  0  0  0  0  0  0  0
    6.4620   -1.5360   18.5270 C   0  0  0  0  0  0  0  0  0  0  0  0
    6.4540   -2.7090   19.2920 C   0  0  0  0  0  0  0  0  0  0  0  0
    7.0320   -2.2660   20.7710 C   0  0  0  0  0  0  0  0  0  0  0  0
    7.1270   -3.3020   21.8580 N   0  0  0  0  0  0  0  0  0  0  0  0
    8.4390   -3.4820   22.5160 C   0  0  0  0  0  0  0  0  0  0  0  0
    8.5940   -4.7800   22.9820 C   0  0  0  0  0  0  0  0  0  0  0  0
    7.3400   -0.9210   20.9900 C   0  0  0  0  0  0  0  0  0  0  0  0
    7.7530   -0.1830   22.0640 C   0  0  0  0  0  0  0  0  0  0  0  0
    8.7010   -0.9870   22.9050 C   0  0  0  0  0  0  0  0  0  0  0  0
    8.0660   -1.7110   24.1410 C   0  0  0  0  0  0  0  0  0  0  0  0
    9.0620   -2.4840   24.8950 C   0  0  0  0  0  0  0  0  0  0  0  0
   10.3850   -2.5650   24.5740 C   0  0  0  0  0  0  0  0  0  0  0  0
   10.8930   -1.8680   23.4490 C   0  0  0  0  0  0  0  0  0  0  0  0
   10.0740   -1.1040   22.6270 C   0  0  0  0  0  0  0  0  0  0  0  0
   12.2590   -2.1030   23.3900 C   0  0  0  0  0  0  0  0  0  0  0  0
   13.0170   -1.7970   22.4930 O   0  0  0  0  0  0  0  0  0  0  0  0
   12.6170   -2.8130   24.7160 C   0  0  0  0  0  0  0  0  0  0  0  0
   11.3640   -3.2810   25.2350 C   0  0  0  0  0  0  0  0  0  0  0  0
    7.0210   -0.4370   19.8000 C   0  0  0  0  0  0  0  0  0  0  0  0
  1  2  2  3
  1  3  1  0
  3  4  2  0
  4  5  1  0
  5  6  2  0
  6  7  1  0
  7  8  1  0
  8  9  1  0
  6 10  1  0
 10 11  1  0
 11 12  1  0
 12 13  2  0
 13 14  1  0
 14 15  2  0
 15 16  1  0
 12 17  1  0
 16 17  2  0
 16 18  1  0
 18 19  2  0
 18 20  1  0
 15 21  1  0
 20 21  1  0
  3 22  1  0
 10 22  2  0
M  END
