MAK-UNK-72b7ba6b-1-chloroacetamide
     RDKit          3D

 33 36  0  0  0  0  0  0  0  0999 V2000
    7.1290   -2.9790   18.7580 C   0  0  0  0  0  0  0  0  0  0  0  0
    6.1690   -3.2800   19.8650 C   0  0  0  0  0  0  0  0  0  0  0  0
    5.3240   -4.1720   19.7570 O   0  0  0  0  0  0  0  0  0  0  0  0
    6.3170   -2.5070   21.0200 N   0  0  0  0  0  0  0  0  0  0  0  0
    6.0010   -3.1530   22.2910 C   0  0  0  0  0  0  0  0  0  0  0  0
    7.2730   -3.5730   23.0460 C   0  0  0  0  0  0  0  0  0  0  0  0
    8.2160   -2.4740   23.2450 N   0  0  0  0  0  0  0  0  0  0  0  0
    9.2940   -2.5400   24.1070 C   0  0  0  0  0  0  0  0  0  0  0  0
   10.4040   -1.5870   23.6940 C   0  0  0  0  0  0  0  0  0  0  0  0
   10.1650   -0.1820   24.2120 C   0  0  0  0  0  0  0  0  0  0  0  0
   11.1840    0.8720   23.8230 C   0  0  0  0  0  0  0  0  0  0  0  0
   12.3250    0.3820   22.9510 C   0  0  0  0  0  0  0  0  0  0  0  0
   13.1360    1.6050   22.6600 C   0  0  0  0  0  0  0  0  0  0  0  0
   12.6120    2.8010   23.1210 N   0  0  0  0  0  0  0  0  0  0  0  0
   11.5520    3.3970   22.4340 C   0  0  0  0  0  0  0  0  0  0  0  0
   11.8630    4.2280   21.4010 O   0  0  0  0  0  0  0  0  0  0  0  0
   10.0890    3.1220   22.8160 C   0  0  0  0  0  0  0  0  0  0  0  0
    9.1290    3.6680   22.0590 N   0  0  0  0  0  0  0  0  0  0  0  0
    8.0370    4.1110   22.7140 C   0  0  0  0  0  0  0  0  0  0  0  0
    8.3450    5.0600   23.8490 C   0  0  0  0  0  0  0  0  0  0  0  0
    7.3850    5.2240   24.9430 C   0  0  0  0  0  0  0  0  0  0  0  0
    7.8980    6.1070   25.8060 N   0  0  0  0  0  0  0  0  0  0  0  0
    9.1930    6.5510   25.3210 C   0  0  0  0  0  0  0  0  0  0  0  0
   10.1940    7.4940   25.8510 C   0  0  0  0  0  0  0  0  0  0  0  0
   11.5770    7.9450   25.2890 C   0  0  0  0  0  0  0  0  0  0  0  0
   11.8910    7.2230   23.9030 C   0  0  0  0  0  0  0  0  0  0  0  0
   12.9900    7.4010   23.1650 F   0  0  0  0  0  0  0  0  0  0  0  0
   10.7410    6.2880   23.5310 C   0  0  0  0  0  0  0  0  0  0  0  0
    9.4300    5.9160   24.1560 C   0  0  0  0  0  0  0  0  0  0  0  0
   12.5200   -0.9210   22.5300 C   0  0  0  0  0  0  0  0  0  0  0  0
   11.4970   -1.9550   22.9240 C   0  0  0  0  0  0  0  0  0  0  0  0
    8.5180   -1.7570   21.9810 C   0  0  0  0  0  0  0  0  0  0  0  0
    7.2830   -1.3990   21.1160 C   0  0  0  0  0  0  0  0  0  0  0  0
  1  2  1  0
  2  3  2  0
  2  4  1  0
  4  5  1  0
  5  6  1  0
  6  7  1  0
  7  8  1  0
  8  9  1  0
  9 10  2  0
 10 11  1  0
 11 12  2  0
 12 13  1  0
 13 14  1  0
 14 15  1  0
 15 16  2  0
 15 17  1  0
 17 18  1  0
 18 19  1  0
 19 20  1  0
 20 21  2  0
 21 22  1  0
 22 23  1  0
 23 24  1  0
 24 25  2  0
 25 26  1  0
 26 27  1  0
 26 28  2  0
 20 29  1  0
 23 29  2  0
 28 29  1  0
 12 30  1  0
  9 31  1  0
 30 31  2  0
  7 32  1  0
  4 33  1  0
 32 33  1  0
M  END
