MAK-UNK-8fdbca50-20-nitrile
     RDKit          3D

 38 41  0  0  0  0  0  0  0  0999 V2000
    7.3840   -2.8860   19.4270 C   0  0  0  0  0  0  0  0  0  0  0  0
    6.2840   -2.9570   18.7740 N   0  0  0  0  0  0  0  0  0  0  0  0
    7.5370   -1.8620   20.4120 N   0  0  0  0  0  0  0  0  0  0  0  0
    8.0990   -1.9940   21.7920 C   0  0  0  0  0  0  0  0  0  0  0  0
    7.1940   -1.0740   22.7250 C   0  0  0  0  0  0  0  0  0  0  0  0
    7.6630    0.4010   22.4350 C   0  0  0  0  0  0  0  0  0  0  0  0
    8.8060    0.7740   23.4530 C   0  0  0  0  0  0  0  0  0  0  0  0
    9.0330    1.9730   23.6550 O   0  0  0  0  0  0  0  0  0  0  0  0
    9.5150   -0.1590   24.0910 N   0  0  0  0  0  0  0  0  0  0  0  0
    8.6930   -1.1910   24.1940 C   0  0  0  0  0  0  0  0  0  0  0  0
    8.8870   -2.8730   23.9660 S   0  0  0  0  0  0  0  0  0  0  0  0
    9.8260   -3.9230   23.6410 O   0  0  0  0  0  0  0  0  0  0  0  0
   10.6100   -2.6660   23.5540 C   0  0  0  0  0  0  0  0  0  0  0  0
   11.0810   -1.9640   22.2080 C   0  0  0  0  0  0  0  0  0  0  0  0
   12.5800   -1.8200   21.9850 C   0  0  0  0  0  0  0  0  0  0  0  0
   13.1790   -2.4300   23.1850 C   0  0  0  0  0  0  0  0  0  0  0  0
   12.9890   -2.9400   24.1560 N   0  0  0  0  0  0  0  0  0  0  0  0
   11.6250   -3.1250   24.4510 C   0  0  0  0  0  0  0  0  0  0  0  0
    7.5890   -3.9790   24.0870 N   0  0  0  0  0  0  0  0  0  0  0  0
    7.4250   -5.0310   23.1430 C   0  0  0  0  0  0  0  0  0  0  0  0
    6.2250   -5.6910   23.5480 C   0  0  0  0  0  0  0  0  0  0  0  0
    5.7080   -6.7730   22.8530 C   0  0  0  0  0  0  0  0  0  0  0  0
    4.5460   -7.1530   23.4630 N   0  0  0  0  0  0  0  0  0  0  0  0
    3.5670   -6.2080   23.2620 C   0  0  0  0  0  0  0  0  0  0  0  0
    5.7080   -5.0630   24.7050 C   0  0  0  0  0  0  0  0  0  0  0  0
    6.5270   -3.9880   25.0750 C   0  0  0  0  0  0  0  0  0  0  0  0
    6.2440   -3.1890   26.1840 C   0  0  0  0  0  0  0  0  0  0  0  0
    6.5520   -1.8220   26.1650 C   0  0  0  0  0  0  0  0  0  0  0  0
    6.2760   -1.0280   27.2890 C   0  0  0  0  0  0  0  0  0  0  0  0
    5.6500   -1.6040   28.5370 C   0  0  0  0  0  0  0  0  0  0  0  0
    5.3320   -2.9000   28.6170 C   0  0  0  0  0  0  0  0  0  0  0  0
    5.6520   -3.7390   27.3510 C   0  0  0  0  0  0  0  0  0  0  0  0
    5.3480   -5.0470   27.3910 F   0  0  0  0  0  0  0  0  0  0  0  0
   10.9590   -0.3770   23.8680 C   0  0  0  0  0  0  0  0  0  0  0  0
   11.6860   -0.7330   25.1520 C   0  0  0  0  0  0  0  0  0  0  0  0
   11.6680    0.7790   23.1500 C   0  0  0  0  0  0  0  0  0  0  0  0
    8.2560    0.3840   21.0610 C   0  0  0  0  0  0  0  0  0  0  0  0
    7.3560   -0.4510   20.1160 C   0  0  0  0  0  0  0  0  0  0  0  0
  1  2  2  3
  1  3  1  0
  3  4  1  0
  4  5  1  0
  5  6  1  0
  6  7  1  0
  7  8  2  0
  7  9  1  0
  9 10  1  0
 10 11  2  0
 11 12  2  0
 11 13  1  0
 13 14  2  0
 14 15  1  0
 15 16  2  0
 16 17  1  0
 13 18  1  0
 17 18  2  0
 11 19  1  0
 19 20  1  0
 20 21  2  0
 21 22  1  0
 22 23  1  0
 23 24  1  0
 21 25  1  0
 19 26  1  0
 25 26  2  0
 26 27  1  0
 27 28  2  0
 28 29  1  0
 29 30  2  0
 30 31  1  0
 27 32  1  0
 31 32  2  0
 32 33  1  0
  9 34  1  0
 34 35  1  0
 34 36  1  0
  6 37  1  0
  3 38  1  0
 37 38  1  0
M  END
