MAK-UNK-10799360-9-vinylsulfonamide
     RDKit          3D

 30 33  0  0  0  0  0  0  0  0999 V2000
    6.5380   -4.7600   20.2580 C   0  0  0  0  0  0  0  0  0  0  0  0
    6.1730   -5.2410   21.6360 C   0  0  0  0  0  0  0  0  0  0  0  0
    5.8010   -3.7960   22.5410 S   0  0  0  0  0  0  0  0  0  0  0  0
    4.5350   -3.3270   22.0150 O   0  0  0  0  0  0  0  0  0  0  0  0
    5.9590   -4.1300   23.9380 O   0  0  0  0  0  0  0  0  0  0  0  0
    7.0990   -2.8160   22.0690 N   0  0  0  0  0  0  0  0  0  0  0  0
    6.8830   -1.3660   21.7280 C   0  0  0  0  0  0  0  0  0  0  0  0
    7.8370   -0.6960   22.7500 C   0  0  2  0  0  0  0  0  0  0  0  0
    9.0810   -1.5360   22.4580 C   0  0  0  0  0  0  0  0  0  0  0  0
    8.3970   -2.8320   22.8830 C   0  0  1  0  0  0  0  0  0  0  0  0
    8.1770   -2.4510   24.3620 C   0  0  0  0  0  0  0  0  0  0  0  0
    7.4470   -1.1290   24.2020 C   0  0  1  0  0  0  0  0  0  0  0  0
    7.6200   -0.0510   25.2470 C   0  0  0  0  0  0  0  0  0  0  0  0
    6.4530    0.0250   26.1550 N   0  0  0  0  0  0  0  0  0  0  0  0
    5.4650    1.0140   25.7050 C   0  0  0  0  0  0  0  0  0  0  0  0
    4.2410    0.4180   25.3700 C   0  0  0  0  0  0  0  0  0  0  0  0
    3.6530   -0.5170   26.2620 C   0  0  0  0  0  0  0  0  0  0  0  0
    2.1930   -0.3950   26.3870 C   0  0  0  0  0  0  0  0  0  0  0  0
    1.8690   -1.4370   27.3330 C   0  0  0  0  0  0  0  0  0  0  0  0
    0.5020   -1.5190   27.6230 C   0  0  0  0  0  0  0  0  0  0  0  0
   -0.2500   -0.8570   26.6970 F   0  0  0  0  0  0  0  0  0  0  0  0
    0.2310   -0.8790   28.7940 F   0  0  0  0  0  0  0  0  0  0  0  0
    2.7440   -2.4410   28.0530 C   0  0  0  0  0  0  0  0  0  0  0  0
    2.1860   -3.6350   29.1660 S   0  0  0  0  0  0  0  0  0  0  0  0
    2.5030   -2.9440   30.6630 N   0  0  0  0  0  0  0  0  0  0  0  0
    3.0600   -4.7810   29.0350 O   0  0  0  0  0  0  0  0  0  0  0  0
    0.7500   -3.7610   29.0250 O   0  0  0  0  0  0  0  0  0  0  0  0
    4.1750   -2.3500   27.7470 C   0  0  0  0  0  0  0  0  0  0  0  0
    4.6050   -1.4080   26.8730 C   0  0  0  0  0  0  0  0  0  0  0  0
    5.9620   -1.2860   26.5590 C   0  0  0  0  0  0  0  0  0  0  0  0
  1  2  1  0
  3  2  1  0
  3  4  2  0
  3  5  2  0
  3  6  1  0
  6  7  1  0
  8  7  1  6
  8  9  1  0
  6 10  1  0
  9 10  1  0
 10 11  1  1
  8 12  1  0
 11 12  1  0
 12 13  1  1
 13 14  1  0
 14 15  1  0
 15 16  1  0
 16 17  1  0
 17 18  2  0
 18 19  1  0
 19 20  1  0
 20 21  1  0
 20 22  1  0
 19 23  2  0
 23 24  1  0
 24 25  1  0
 24 26  2  0
 24 27  2  0
 23 28  1  0
 17 29  1  0
 28 29  2  0
 14 30  1  0
 29 30  1  0
M  END
