MAK-UNK-10799360-13-nitrile
     RDKit          3D

 24 27  0  0  0  0  0  0  0  0999 V2000
    7.0050   -3.7100   20.1820 C   0  0  0  0  0  0  0  0  0  0  0  0
    5.8620   -4.1990   19.8550 N   0  0  0  0  0  0  0  0  0  0  0  0
    7.1740   -2.4470   20.6560 N   0  0  0  0  0  0  0  0  0  0  0  0
    7.1020   -1.2020   19.8710 C   0  0  0  0  0  0  0  0  0  0  0  0
    6.8760   -0.1620   21.0350 C   0  0  2  0  0  0  0  0  0  0  0  0
    8.2740    0.2070   21.6200 C   0  0  0  0  0  0  0  0  0  0  0  0
    8.7930   -1.2160   21.7700 C   0  0  1  0  0  0  0  0  0  0  0  0
    9.8210   -0.9650   22.9000 C   0  0  0  0  0  0  0  0  0  0  0  0
    9.4260   -0.7740   24.1840 N   0  0  0  0  0  0  0  0  0  0  0  0
   10.3720   -0.5190   25.3210 C   0  0  0  0  0  0  0  0  0  0  0  0
    9.0810   -0.6840   24.8420 C   0  0  0  0  0  0  0  0  0  0  0  0
    7.7130   -0.6480   25.5180 C   0  0  0  0  0  0  0  0  0  0  0  0
    6.6750   -1.3050   24.8270 C   0  0  0  0  0  0  0  0  0  0  0  0
    6.3910   -2.9560   25.4550 S   0  0  0  0  0  0  0  0  0  0  0  0
    4.7590   -3.2050   25.1350 N   0  0  0  0  0  0  0  0  0  0  0  0
    6.4980   -2.9460   26.8980 O   0  0  0  0  0  0  0  0  0  0  0  0
    7.1380   -3.9210   24.6480 O   0  0  0  0  0  0  0  0  0  0  0  0
    9.5270   -0.9180   23.4120 C   0  0  0  0  0  0  0  0  0  0  0  0
   11.0310   -0.9170   22.8830 C   0  0  0  0  0  0  0  0  0  0  0  0
   12.3020   -0.6930   23.6630 C   0  0  0  0  0  0  0  0  0  0  0  0
   11.6780   -0.5390   24.7530 C   0  0  0  0  0  0  0  0  0  0  0  0
   11.3870   -0.8580   23.0130 S   0  0  0  0  0  0  0  0  0  0  0  0
    7.4790   -2.0190   22.0120 C   0  0  1  0  0  0  0  0  0  0  0  0
    6.4220   -1.0840   22.1590 C   0  0  0  0  0  0  0  0  0  0  0  0
  1  2  2  3
  1  3  1  0
  3  4  1  0
  5  4  1  6
  5  6  1  0
  6  7  1  0
  7  8  1  1
  8  9  2  0
  9 10  1  0
 10 11  2  0
 11 12  1  0
 12 13  1  0
 13 14  1  0
 14 15  1  0
 14 16  2  0
 14 17  2  0
 11 18  1  0
 18 19  2  0
 19 20  1  0
 10 21  1  0
 20 21  2  0
  8 22  1  0
 21 22  1  0
 23  3  1  6
  7 23  1  0
  5 24  1  0
 23 24  1  0
M  END
