MAK-UNK-148caf23-23-nitrile
     RDKit          3D

 34 37  0  0  0  0  0  0  0  0999 V2000
    8.4630   -3.4070   19.7870 C   0  0  0  0  0  0  0  0  0  0  0  0
    7.1680   -3.3120   19.4420 N   0  0  0  0  0  0  0  0  0  0  0  0
    9.1090   -2.5430   21.1650 C   0  0  0  0  0  0  0  0  0  0  0  0
    7.8490   -2.2050   22.0900 C   0  0  0  0  0  0  0  0  0  0  0  0
    8.5630   -1.3960   23.3040 C   0  0  0  0  0  0  0  0  0  0  0  0
   10.0250   -1.0820   23.4470 C   0  0  0  0  0  0  0  0  0  0  0  0
   10.1890   -0.2920   24.7430 N   0  0  0  0  0  0  0  0  0  0  0  0
    9.5800   -0.8670   25.9720 C   0  0  0  0  0  0  0  0  0  0  0  0
    8.0880   -0.5530   26.2500 C   0  0  0  0  0  0  0  0  0  0  0  0
    7.9660    0.8740   26.7020 C   0  0  0  0  0  0  0  0  0  0  0  0
    6.5640    1.3500   27.0160 C   0  0  0  0  0  0  0  0  0  0  0  0
    5.4900    0.4450   26.8700 C   0  0  0  0  0  0  0  0  0  0  0  0
    5.6930   -0.8840   26.4420 C   0  0  0  0  0  0  0  0  0  0  0  0
    4.6060   -1.6690   26.3350 F   0  0  0  0  0  0  0  0  0  0  0  0
    6.9660   -1.4060   26.1300 C   0  0  0  0  0  0  0  0  0  0  0  0
    7.0430   -2.7510   25.7100 C   0  0  0  0  0  0  0  0  0  0  0  0
    6.8540   -3.2990   24.4510 C   0  0  0  0  0  0  0  0  0  0  0  0
    7.0160   -4.6880   24.4450 C   0  0  0  0  0  0  0  0  0  0  0  0
    6.8740   -5.4890   23.2900 C   0  0  0  0  0  0  0  0  0  0  0  0
    6.9990   -4.8590   22.0980 N   0  0  0  0  0  0  0  0  0  0  0  0
    6.0520   -5.3310   21.2050 C   0  0  0  0  0  0  0  0  0  0  0  0
    7.3330   -5.0790   25.7770 C   0  0  0  0  0  0  0  0  0  0  0  0
    7.3470   -3.8600   26.5870 N   0  0  0  0  0  0  0  0  0  0  0  0
    7.6750   -3.9100   28.2440 S   0  0  0  0  0  0  0  0  0  0  0  0
    8.6600   -4.9500   28.4080 O   0  0  0  0  0  0  0  0  0  0  0  0
    7.9200   -2.5440   28.6560 O   0  0  0  0  0  0  0  0  0  0  0  0
    6.2060   -4.5150   28.9660 C   0  0  0  0  0  0  0  0  0  0  0  0
    5.0540   -3.6940   29.1450 C   0  0  0  0  0  0  0  0  0  0  0  0
    3.8110   -4.2250   29.7640 C   0  0  0  0  0  0  0  0  0  0  0  0
    3.9510   -5.6940   30.1550 C   0  0  0  0  0  0  0  0  0  0  0  0
    5.0800   -6.4260   29.9590 N   0  0  0  0  0  0  0  0  0  0  0  0
    6.1620   -5.8350   29.3810 C   0  0  0  0  0  0  0  0  0  0  0  0
   10.9690   -1.4200   22.6190 N   0  0  0  0  0  0  0  0  0  0  0  0
   10.5070   -2.1260   21.5310 C   0  0  0  0  0  0  0  0  0  0  0  0
  1  2  2  3
  1  3  1  0
  3  4  2  0
  4  5  1  0
  5  6  2  0
  6  7  1  0
  7  8  1  0
  8  9  1  0
  9 10  2  0
 10 11  1  0
 11 12  2  0
 12 13  1  0
 13 14  1  0
  9 15  1  0
 13 15  2  0
 15 16  1  0
 16 17  2  0
 17 18  1  0
 18 19  1  0
 19 20  1  0
 20 21  1  0
 18 22  2  0
 16 23  1  0
 22 23  1  0
 23 24  1  0
 24 25  2  0
 24 26  2  0
 24 27  1  0
 27 28  2  0
 28 29  1  0
 29 30  2  0
 30 31  1  0
 27 32  1  0
 31 32  2  0
  6 33  1  0
  3 34  1  0
 33 34  2  0
M  END
