MAK-UNK-516d8086-19-chloroacetamide
     RDKit          3D

 23 25  0  0  0  0  0  0  0  0999 V2000
    7.3600   -4.6970   20.7630 C   0  0  0  0  0  0  0  0  0  0  0  0
    6.9890   -3.3420   20.2200 C   0  0  0  0  0  0  0  0  0  0  0  0
    6.1360   -3.2560   19.2930 O   0  0  0  0  0  0  0  0  0  0  0  0
    7.7910   -2.1430   20.9490 C   0  0  0  0  0  0  0  0  0  0  0  0
    7.5160   -0.6940   20.6320 C   0  0  0  0  0  0  0  0  0  0  0  0
    8.1710    0.3330   21.2380 N   0  0  0  0  0  0  0  0  0  0  0  0
    9.1300    0.0170   22.1810 C   0  0  0  0  0  0  0  0  0  0  0  0
    9.8210    1.1020   22.8300 N   0  0  0  0  0  0  0  0  0  0  0  0
   11.2810    1.0070   22.9990 C   0  0  0  0  0  0  0  0  0  0  0  0
   11.8280    2.2890   22.8930 C   0  0  0  0  0  0  0  0  0  0  0  0
    9.4630   -1.3530   22.5530 C   0  0  0  0  0  0  0  0  0  0  0  0
   10.4070   -1.8410   23.4990 C   0  0  0  0  0  0  0  0  0  0  0  0
   10.6540   -0.9780   24.5990 C   0  0  0  0  0  0  0  0  0  0  0  0
   11.8950   -1.2130   24.0520 C   0  0  0  0  0  0  0  0  0  0  0  0
   11.1170   -1.8410   23.3880 C   0  0  0  0  0  0  0  0  0  0  0  0
   10.0160   -1.3340   24.2650 C   0  0  0  0  0  0  0  0  0  0  0  0
    9.9790   -0.4210   25.4610 C   0  0  0  0  0  0  0  0  0  0  0  0
    9.2270   -1.0140   24.8270 N   0  0  0  0  0  0  0  0  0  0  0  0
    8.8580   -0.1270   26.0720 C   0  0  0  0  0  0  0  0  0  0  0  0
    8.9440    0.7020   27.2790 O   0  0  0  0  0  0  0  0  0  0  0  0
    7.8980   -0.7530   25.3550 N   0  0  0  0  0  0  0  0  0  0  0  0
    8.4540   -1.5570   24.2920 C   0  0  0  0  0  0  0  0  0  0  0  0
    8.7660   -2.4110   21.9050 C   0  0  0  0  0  0  0  0  0  0  0  0
  1  2  1  0
  2  3  2  0
  2  4  1  0
  4  5  2  0
  5  6  1  0
  6  7  2  0
  7  8  1  0
  8  9  1  0
  9 10  1  0
  7 11  1  0
 11 12  1  0
 12 13  1  0
 13 14  2  0
 14 15  1  0
 15 16  2  0
 16 17  1  0
 13 18  1  0
 17 18  2  0
 17 19  1  0
 19 20  2  0
 19 21  1  0
 16 22  1  0
 21 22  1  0
  4 23  1  0
 11 23  2  0
M  END
