MAK-UNK-af83ef51-30-chloroacetamide
     RDKit          3D

 29 31  0  0  0  0  0  0  0  0999 V2000
    6.5900   -3.2810   19.3350 C   0  0  0  0  0  0  0  0  0  0  0  0
    5.7090   -4.0710   20.2880 C   0  0  0  0  0  0  0  0  0  0  0  0
    5.3990   -5.2160   20.0160 O   0  0  0  0  0  0  0  0  0  0  0  0
    5.2800   -3.4050   21.4220 N   0  0  0  0  0  0  0  0  0  0  0  0
    4.7260   -4.0360   22.5760 C   0  0  0  0  0  0  0  0  0  0  0  0
    5.4960   -3.9690   23.7300 C   0  0  0  0  0  0  0  0  0  0  0  0
    5.8910   -2.5830   24.0900 N   0  0  0  0  0  0  0  0  0  0  0  0
    6.9940   -2.6060   25.0810 C   0  0  0  0  0  0  0  0  0  0  0  0
    7.8000   -1.5260   25.1390 N   0  0  0  0  0  0  0  0  0  0  0  0
    8.7500   -1.3260   24.1780 C   0  0  1  0  0  0  0  0  0  0  0  0
    9.6740   -0.3320   24.5490 C   0  0  1  0  0  0  0  0  0  0  0  0
    9.1460    0.5010   25.3050 O   0  0  0  0  0  0  0  0  0  0  0  0
   10.8140   -0.8120   25.3070 O   0  0  0  0  0  0  0  0  0  0  0  0
   11.4800   -1.9450   24.7730 C   0  0  2  0  0  0  0  0  0  0  0  0
   12.1960   -1.5780   23.4760 C   0  0  0  0  0  0  0  0  0  0  0  0
   13.0290   -0.3890   23.4720 C   0  0  0  0  0  0  0  0  0  0  0  0
   13.6820   -0.1120   22.1800 C   0  0  0  0  0  0  0  0  0  0  0  0
   13.5850   -0.8460   21.0040 C   0  0  0  0  0  0  0  0  0  0  0  0
   14.2840   -0.3690   19.8090 N   0  0  0  0  0  0  0  0  0  0  0  0
   15.0040    0.9200   19.5630 C   0  0  0  0  0  0  0  0  0  0  0  0
   14.9180    1.8890   18.4320 C   0  0  0  0  0  0  0  0  0  0  0  0
   12.8000   -1.9740   21.0310 N   0  0  0  0  0  0  0  0  0  0  0  0
   12.1410   -2.2830   22.2550 C   0  0  0  0  0  0  0  0  0  0  0  0
   10.4830   -3.0650   24.6450 C   0  0  1  0  0  0  0  0  0  0  0  0
    9.8260   -3.3800   25.8900 O   0  0  0  0  0  0  0  0  0  0  0  0
    9.4770   -2.6070   23.6440 C   0  0  1  0  0  0  0  0  0  0  0  0
    8.5760   -3.7010   23.3890 O   0  0  0  0  0  0  0  0  0  0  0  0
    6.3540   -1.8000   22.9220 C   0  0  0  0  0  0  0  0  0  0  0  0
    5.5640   -1.9910   21.6660 C   0  0  0  0  0  0  0  0  0  0  0  0
  1  2  1  0
  2  3  2  0
  2  4  1  0
  4  5  1  0
  5  6  1  0
  6  7  1  0
  7  8  1  0
  8  9  1  0
 10  9  1  1
 10 11  1  0
 11 12  1  1
 11 13  1  0
 13 14  1  0
 14 15  1  6
 15 16  2  0
 16 17  1  0
 17 18  2  0
 18 19  1  0
 19 20  1  0
 20 21  1  0
 18 22  1  0
 15 23  1  0
 22 23  2  0
 14 24  1  0
 24 25  1  1
 10 26  1  0
 24 26  1  0
 26 27  1  1
  7 28  1  0
  4 29  1  0
 28 29  1  0
M  END
