MAK-UNK-ec98eaf6-35-chloroacetamide
     RDKit          3D

 25 28  0  0  0  0  0  0  0  0999 V2000
    7.3570   -3.2080   19.4660 C   0  0  0  0  0  0  0  0  0  0  0  0
    6.3230   -3.9830   20.3000 C   0  0  0  0  0  0  0  0  0  0  0  0
    5.2540   -4.3120   19.8010 O   0  0  0  0  0  0  0  0  0  0  0  0
    6.5420   -4.3450   21.6070 N   0  0  0  0  0  0  0  0  0  0  0  0
    5.4160   -4.5130   22.5350 C   0  0  0  0  0  0  0  0  0  0  0  0
    6.0630   -5.4680   23.5170 C   0  0  1  0  0  0  0  0  0  0  0  0
    7.2310   -5.6460   22.5630 C   0  0  0  0  0  0  0  0  0  0  0  0
    7.7060   -4.1500   22.4840 C   0  0  2  0  0  0  0  0  0  0  0  0
    8.2170   -4.8900   23.7350 C   0  0  0  0  0  0  0  0  0  0  0  0
    6.9270   -4.8250   24.6070 C   0  0  1  0  0  0  0  0  0  0  0  0
    6.4310   -3.4530   25.1390 C   0  0  0  0  0  0  0  0  0  0  0  0
    7.4290   -2.3250   24.9650 C   0  0  0  0  0  0  0  0  0  0  0  0
    7.2580   -1.0690   25.5860 C   0  0  0  0  0  0  0  0  0  0  0  0
    8.2070   -0.0460   25.4050 C   0  0  0  0  0  0  0  0  0  0  0  0
    9.3220   -0.2800   24.6060 C   0  0  0  0  0  0  0  0  0  0  0  0
   10.3120    0.6730   24.3790 C   0  0  0  0  0  0  0  0  0  0  0  0
   11.4350    0.4330   23.5930 C   0  0  0  0  0  0  0  0  0  0  0  0
   11.5750   -0.8160   22.9990 C   0  0  0  0  0  0  0  0  0  0  0  0
   12.9330   -1.2890   22.0110 S   0  0  0  0  0  0  0  0  0  0  0  0
   12.0910   -2.0860   20.8240 N   0  0  0  0  0  0  0  0  0  0  0  0
   13.5980   -0.1040   21.5410 O   0  0  0  0  0  0  0  0  0  0  0  0
   13.6530   -2.3260   22.6620 O   0  0  0  0  0  0  0  0  0  0  0  0
   10.5840   -1.7800   23.1970 C   0  0  0  0  0  0  0  0  0  0  0  0
    9.4880   -1.5210   23.9890 C   0  0  0  0  0  0  0  0  0  0  0  0
    8.5580   -2.5100   24.1720 C   0  0  0  0  0  0  0  0  0  0  0  0
  1  2  1  0
  2  3  2  0
  2  4  1  0
  4  5  1  0
  6  5  1  6
  6  7  1  0
  4  8  1  0
  7  8  1  0
  8  9  1  1
  6 10  1  0
  9 10  1  0
 10 11  1  6
 11 12  1  0
 12 13  2  0
 13 14  1  0
 14 15  2  0
 15 16  1  0
 16 17  2  0
 17 18  1  0
 18 19  1  0
 19 20  1  0
 19 21  2  0
 19 22  2  0
 18 23  2  0
 15 24  1  0
 23 24  1  0
 12 25  1  0
 24 25  2  0
M  END
