MAK-UNK-f983951f-13-vinylsulfonamide
     RDKit          3D

 14 14  0  0  0  0  0  0  0  0999 V2000
    6.3710   -3.6800   19.6700 C   0  0  0  0  0  0  0  0  0  0  0  0
    6.2950   -2.8270   20.9240 C   0  0  0  0  0  0  0  0  0  0  0  0
    6.0120   -3.9250   22.2790 S   0  0  0  0  0  0  0  0  0  0  0  0
    4.8490   -4.7300   22.0010 O   0  0  0  0  0  0  0  0  0  0  0  0
    7.2780   -4.5110   22.6670 O   0  0  0  0  0  0  0  0  0  0  0  0
    5.5780   -2.8750   23.5010 N   0  0  0  0  0  0  0  0  0  0  0  0
    4.1260   -2.8930   23.5590 O   0  0  0  0  0  0  0  0  0  0  0  0
    3.6420   -2.6260   24.9090 C   0  0  0  0  0  0  0  0  0  0  0  0
    2.5190   -3.4570   25.1540 C   0  0  0  0  0  0  0  0  0  0  0  0
    3.5630   -3.8400   24.3960 C   0  0  0  0  0  0  0  0  0  0  0  0
    3.7580   -2.5720   24.8760 C   0  0  0  0  0  0  0  0  0  0  0  0
    4.3840   -1.3500   25.0950 C   0  0  0  0  0  0  0  0  0  0  0  0
    3.2620   -0.9640   25.8970 C   0  0  0  0  0  0  0  0  0  0  0  0
    2.4370   -2.1670   25.7970 C   0  0  0  0  0  0  0  0  0  0  0  0
  1  2  1  0
  2  3  1  0
  3  4  2  0
  3  5  2  0
  3  6  1  0
  6  7  1  0
  7  8  1  0
  8  9  1  0
  9 10  2  0
 10 11  1  0
 11 12  2  0
 12 13  1  0
  9 14  1  0
 13 14  2  0
M  END
