MAK-UNK-8fdbca50-38-nitrile
     RDKit          3D

 38 41  0  0  0  0  0  0  0  0999 V2000
    7.0280   -3.5140   20.0610 C   0  0  0  0  0  0  0  0  0  0  0  0
    6.0980   -3.0910   19.2510 N   0  0  0  0  0  0  0  0  0  0  0  0
    7.7310   -2.6820   21.1040 N   0  0  0  0  0  0  0  0  0  0  0  0
    7.0920   -2.0150   22.2950 C   0  0  0  0  0  0  0  0  0  0  0  0
    7.8290   -0.9480   22.9290 C   0  0  0  0  0  0  0  0  0  0  0  0
    8.9360   -0.3550   22.3000 C   0  0  0  0  0  0  0  0  0  0  0  0
    9.7030    0.4680   23.2040 N   0  0  0  0  0  0  0  0  0  0  0  0
   11.1850    0.4370   23.0670 C   0  0  0  0  0  0  0  0  0  0  0  0
   11.6040   -0.7570   23.7450 C   0  0  0  0  0  0  0  0  0  0  0  0
   10.7150   -1.7760   24.0490 C   0  0  0  0  0  0  0  0  0  0  0  0
   11.2270   -2.7860   24.6940 C   0  0  0  0  0  0  0  0  0  0  0  0
   10.2950   -3.7660   25.0020 C   0  0  0  0  0  0  0  0  0  0  0  0
    8.9050   -3.6850   24.4190 C   0  0  0  0  0  0  0  0  0  0  0  0
    7.6750   -4.6450   24.6310 C   0  0  0  0  0  0  0  0  0  0  0  0
    8.3420   -5.6780   25.6090 C   0  0  0  0  0  0  0  0  0  0  0  0
    9.7640   -5.6530   26.1160 C   0  0  0  0  0  0  0  0  0  0  0  0
   10.6350   -4.6940   25.7750 C   0  0  0  0  0  0  0  0  0  0  0  0
   11.8720   -4.6150   26.1890 F   0  0  0  0  0  0  0  0  0  0  0  0
   12.6280   -2.4470   24.8690 N   0  0  0  0  0  0  0  0  0  0  0  0
   13.9120   -3.2910   25.7370 S   0  0  0  0  0  0  0  0  0  0  0  0
   13.0590   -4.0930   26.5470 O   0  0  0  0  0  0  0  0  0  0  0  0
   14.6650   -2.2790   26.3900 O   0  0  0  0  0  0  0  0  0  0  0  0
   15.1690   -4.5020   25.3870 C   0  0  0  0  0  0  0  0  0  0  0  0
   16.1890   -4.7040   24.4730 C   0  0  0  0  0  0  0  0  0  0  0  0
   17.0050   -5.8220   24.5830 C   0  0  0  0  0  0  0  0  0  0  0  0
   16.8230   -6.7630   25.5760 C   0  0  0  0  0  0  0  0  0  0  0  0
   15.8700   -6.6540   26.4860 N   0  0  0  0  0  0  0  0  0  0  0  0
   15.0990   -5.5470   26.3570 C   0  0  0  0  0  0  0  0  0  0  0  0
   12.8420   -1.1970   24.2550 C   0  0  0  0  0  0  0  0  0  0  0  0
    8.4580    0.5720   21.3520 C   0  0  0  0  0  0  0  0  0  0  0  0
    9.1230    1.6040   21.1810 O   0  0  0  0  0  0  0  0  0  0  0  0
    7.2930    0.4790   20.6700 N   0  0  0  0  0  0  0  0  0  0  0  0
    6.7160    1.6590   20.3510 C   0  0  0  0  0  0  0  0  0  0  0  0
    6.6720   -0.7150   20.0760 C   0  0  0  0  0  0  0  0  0  0  0  0
    7.0040   -0.8300   18.6000 C   0  0  0  0  0  0  0  0  0  0  0  0
    5.1650   -0.8140   20.3150 C   0  0  0  0  0  0  0  0  0  0  0  0
    9.8670   -1.4580   21.7560 C   0  0  0  0  0  0  0  0  0  0  0  0
    9.1650   -2.7860   21.3910 C   0  0  0  0  0  0  0  0  0  0  0  0
  1  2  2  3
  1  3  1  0
  3  4  1  0
  4  5  1  0
  5  6  1  0
  6  7  1  0
  7  8  1  0
  8  9  1  0
  9 10  1  0
 10 11  2  0
 11 12  1  0
 12 13  2  0
 13 14  1  0
 14 15  2  0
 15 16  1  0
 12 17  1  0
 16 17  2  0
 17 18  1  0
 11 19  1  0
 19 20  1  0
 20 21  2  0
 20 22  2  0
 20 23  1  0
 23 24  2  0
 24 25  1  0
 25 26  2  0
 26 27  1  0
 23 28  1  0
 27 28  2  0
  9 29  2  0
 19 29  1  0
  6 30  1  0
 30 31  2  0
 30 32  1  0
 32 33  1  0
 32 34  1  0
 34 35  1  0
 34 36  1  0
  6 37  1  0
  3 38  1  0
 37 38  1  0
M  END
