MAK-UNK-ec98eaf6-14-vinylsulfonamide
     RDKit          3D

 23 25  0  0  0  0  0  0  0  0999 V2000
    7.6630   -2.9670   18.3050 C   0  0  0  0  0  0  0  0  0  0  0  0
    7.1890   -2.3040   19.5250 C   0  0  0  0  0  0  0  0  0  0  0  0
    6.0390   -3.3010   20.4040 S   0  0  0  0  0  0  0  0  0  0  0  0
    4.7700   -3.2490   19.7930 O   0  0  0  0  0  0  0  0  0  0  0  0
    6.5640   -4.5860   20.8000 O   0  0  0  0  0  0  0  0  0  0  0  0
    6.1220   -2.4130   21.7980 N   0  0  0  0  0  0  0  0  0  0  0  0
    5.9740   -3.2050   23.0490 C   0  0  0  0  0  0  0  0  0  0  0  0
    7.4790   -3.5310   23.2520 C   0  0  1  0  0  0  0  0  0  0  0  0
    8.1990   -3.0990   21.9800 C   0  0  0  0  0  0  0  0  0  0  0  0
    7.4850   -1.7980   21.8750 C   0  0  2  0  0  0  0  0  0  0  0  0
    7.7250   -1.3170   23.2610 C   0  0  0  0  0  0  0  0  0  0  0  0
    8.0180   -2.4100   24.0700 N   0  0  0  0  0  0  0  0  0  0  0  0
    9.4500   -2.6600   24.1440 C   0  0  0  0  0  0  0  0  0  0  0  0
   10.2180   -1.4290   23.7990 C   0  0  0  0  0  0  0  0  0  0  0  0
   11.3620   -1.9130   22.9160 C   0  0  0  0  0  0  0  0  0  0  0  0
   12.3280   -0.9230   22.3610 C   0  0  0  0  0  0  0  0  0  0  0  0
   13.5140   -1.5330   21.3680 Cl  0  0  0  0  0  0  0  0  0  0  0  0
   12.1930    0.5210   22.6680 C   0  0  0  0  0  0  0  0  0  0  0  0
   11.0660    0.9500   23.5050 C   0  0  0  0  0  0  0  0  0  0  0  0
   10.8300    2.3910   23.7780 C   0  0  0  0  0  0  0  0  0  0  0  0
   11.9660    3.1990   23.4840 O   0  0  0  0  0  0  0  0  0  0  0  0
   11.8430    4.0070   22.3170 C   0  0  0  0  0  0  0  0  0  0  0  0
   10.0570    0.0570   24.1150 C   0  0  0  0  0  0  0  0  0  0  0  0
  1  2  1  0
  3  2  1  0
  3  4  2  0
  3  5  2  0
  3  6  1  0
  6  7  1  0
  8  7  1  6
  8  9  1  0
  6 10  1  0
  9 10  1  0
 10 11  1  1
  8 12  1  0
 11 12  1  0
 12 13  1  0
 13 14  1  0
 14 15  2  0
 15 16  1  0
 16 17  1  0
 16 18  2  0
 18 19  1  0
 19 20  1  0
 20 21  1  0
 21 22  1  0
 14 23  1  0
 19 23  2  0
M  END
