MAK-UNK-702fb7d3-11-nitrile
     RDKit          3D

 41 46  0  0  0  0  0  0  0  0999 V2000
    6.9560   -4.0970   20.6630 C   0  0  0  0  0  0  0  0  0  0  0  0
    6.4770   -3.2800   19.7530 N   0  0  0  0  0  0  0  0  0  0  0  0
    7.1430   -3.8300   22.1950 N   0  0  0  0  0  0  0  0  0  0  0  0
    6.8110   -2.6240   23.0330 C   0  0  0  0  0  0  0  0  0  0  0  0
    6.4280   -3.2810   24.4200 C   0  0  0  0  0  0  0  0  0  0  0  0
    5.0610   -2.6990   24.8000 C   0  0  0  0  0  0  0  0  0  0  0  0
    4.4410   -3.2150   26.1410 C   0  0  0  0  0  0  0  0  0  0  0  0
    5.2320   -4.2740   26.9770 C   0  0  0  0  0  0  0  0  0  0  0  0
    6.5860   -4.6860   26.3540 C   0  0  0  0  0  0  0  0  0  0  0  0
    7.2790   -5.7130   27.1930 N   0  0  0  0  0  0  0  0  0  0  0  0
    6.8860   -6.1750   28.5420 C   0  0  0  0  0  0  0  0  0  0  0  0
    5.4460   -6.5430   28.6650 C   0  0  0  0  0  0  0  0  0  0  0  0
    4.8790   -6.5360   30.0040 C   0  0  0  0  0  0  0  0  0  0  0  0
    3.6050   -6.8800   29.8570 C   0  0  0  0  0  0  0  0  0  0  0  0
    2.7060   -6.9710   30.9850 C   0  0  0  0  0  0  0  0  0  0  0  0
    1.4690   -6.4100   30.9240 C   0  0  0  0  0  0  0  0  0  0  0  0
    0.5570   -6.4950   32.0570 C   0  0  0  0  0  0  0  0  0  0  0  0
    0.9210   -7.1410   33.2110 C   0  0  0  0  0  0  0  0  0  0  0  0
    2.1710   -7.7220   33.3130 C   0  0  0  0  0  0  0  0  0  0  0  0
    3.0520   -7.6350   32.2130 C   0  0  0  0  0  0  0  0  0  0  0  0
    4.2560   -8.2090   32.3570 F   0  0  0  0  0  0  0  0  0  0  0  0
    3.2630   -7.1290   28.5240 N   0  0  0  0  0  0  0  0  0  0  0  0
    1.7800   -7.5830   27.8920 S   0  0  0  0  0  0  0  0  0  0  0  0
    0.8470   -6.5090   28.1550 O   0  0  0  0  0  0  0  0  0  0  0  0
    2.0580   -7.9860   26.5290 O   0  0  0  0  0  0  0  0  0  0  0  0
    1.1980   -8.9830   28.7930 C   0  0  0  0  0  0  0  0  0  0  0  0
    1.1070   -8.9670   30.1930 C   0  0  0  0  0  0  0  0  0  0  0  0
    0.6380  -10.1020   30.8550 C   0  0  0  0  0  0  0  0  0  0  0  0
    0.2530  -11.2980   29.9900 C   0  0  0  0  0  0  0  0  0  0  0  0
    0.3530  -11.2740   28.6480 N   0  0  0  0  0  0  0  0  0  0  0  0
    0.8210  -10.1240   28.0820 C   0  0  0  0  0  0  0  0  0  0  0  0
    4.5090   -6.9050   27.6950 C   0  0  0  0  0  0  0  0  0  0  0  0
    7.1220   -4.1930   25.1640 C   0  0  0  0  0  0  0  0  0  0  0  0
    8.3100   -4.5260   24.5960 C   0  0  2  0  0  0  0  0  0  0  0  0
    9.4810   -3.8150   24.8060 C   0  0  0  0  0  0  0  0  0  0  0  0
    9.5890   -2.5430   24.2750 C   0  0  0  0  0  0  0  0  0  0  0  0
   10.7620   -1.8170   24.4320 C   0  0  0  0  0  0  0  0  0  0  0  0
   11.8290   -2.3620   25.1220 C   0  0  0  0  0  0  0  0  0  0  0  0
   11.7230   -3.6300   25.6630 C   0  0  0  0  0  0  0  0  0  0  0  0
   10.5500   -4.3630   25.5140 C   0  0  0  0  0  0  0  0  0  0  0  0
    8.1810   -4.5160   23.0310 C   0  0  0  0  0  0  0  0  0  0  0  0
  1  2  2  3
  1  3  1  0
  3  4  1  0
  4  5  1  0
  5  6  1  0
  6  7  2  0
  7  8  1  0
  8  9  2  0
  9 10  1  0
 10 11  1  0
 11 12  1  0
 12 13  1  0
 13 14  2  0
 14 15  1  0
 15 16  2  0
 16 17  1  0
 17 18  2  0
 18 19  1  0
 15 20  1  0
 19 20  2  0
 20 21  1  0
 14 22  1  0
 22 23  1  0
 23 24  2  0
 23 25  2  0
 23 26  1  0
 26 27  2  0
 27 28  1  0
 28 29  2  0
 29 30  1  0
 26 31  1  0
 30 31  2  0
 12 32  2  0
 22 32  1  0
  5 33  2  0
  9 33  1  0
 33 34  1  0
 34 35  1  6
 35 36  2  0
 36 37  1  0
 37 38  2  0
 38 39  1  0
 35 40  1  0
 39 40  2  0
  3 41  1  0
 34 41  1  0
M  END
