MAK-UNK-10dfa458-7-nitrile
     RDKit          3D

 25 27  0  0  0  0  0  0  0  0999 V2000
    6.3990   -4.5500   20.3990 C   0  0  0  0  0  0  0  0  0  0  0  0
    5.2720   -4.3360   19.8640 N   0  0  0  0  0  0  0  0  0  0  0  0
    6.5030   -5.1650   21.6330 N   0  0  0  0  0  0  0  0  0  0  0  0
    5.6400   -6.2750   22.0820 C   0  0  0  0  0  0  0  0  0  0  0  0
    4.6210   -5.6050   23.0790 C   0  0  0  0  0  0  0  0  0  0  0  0
    5.4290   -5.1530   24.2430 N   0  0  0  0  0  0  0  0  0  0  0  0
    4.7000   -4.8970   25.5420 C   0  0  0  0  0  0  0  0  0  0  0  0
    3.6490   -3.7200   25.5720 C   0  0  0  0  0  0  0  0  0  0  0  0
    2.2980   -4.3690   25.2260 C   0  0  0  0  0  0  0  0  0  0  0  0
    1.1170   -3.3720   25.2230 C   0  0  0  0  0  0  0  0  0  0  0  0
    1.4160   -1.8940   25.5510 C   0  0  0  0  0  0  0  0  0  0  0  0
    2.8130   -1.4440   25.8600 C   0  0  0  0  0  0  0  0  0  0  0  0
    3.0000    0.0330   26.1660 C   0  0  0  0  0  0  0  0  0  0  0  0
    3.8700   -2.3530   25.8630 C   0  0  0  0  0  0  0  0  0  0  0  0
    5.1520   -1.8840   26.1670 C   0  0  0  0  0  0  0  0  0  0  0  0
    5.5500   -1.9430   27.3290 O   0  0  0  0  0  0  0  0  0  0  0  0
    5.9040   -1.3520   24.9980 N   0  0  0  0  0  0  0  0  0  0  0  0
    5.0840   -0.5830   24.0540 C   0  0  0  0  0  0  0  0  0  0  0  0
    5.3190    0.7740   24.2970 C   0  0  0  0  0  0  0  0  0  0  0  0
    6.6510    1.0920   24.0040 C   0  0  0  0  0  0  0  0  0  0  0  0
    6.8540    0.7450   22.6330 O   0  0  0  0  0  0  0  0  0  0  0  0
    7.5950    0.3240   24.7100 C   0  0  0  0  0  0  0  0  0  0  0  0
    7.2970   -0.9530   25.1910 C   0  0  0  0  0  0  0  0  0  0  0  0
    6.3330   -4.0610   23.8010 C   0  0  0  0  0  0  0  0  0  0  0  0
    7.1990   -4.4900   22.7670 C   0  0  0  0  0  0  0  0  0  0  0  0
  1  2  2  3
  1  3  1  0
  3  4  1  0
  4  5  1  0
  5  6  1  0
  6  7  1  0
  7  8  1  0
  8  9  2  0
  9 10  1  0
 10 11  2  0
 11 12  1  0
 12 13  1  0
  8 14  1  0
 12 14  2  0
 14 15  1  0
 15 16  2  0
 15 17  1  0
 17 18  1  0
 18 19  1  0
 19 20  1  0
 20 21  1  0
 20 22  1  0
 17 23  1  0
 22 23  1  0
  6 24  1  0
  3 25  1  0
 24 25  1  0
M  END
