MAK-UNK-9a6be56d-11
     RDKit          3D

 38 42  0  0  0  0  0  0  0  0999 V2000
    5.5580   -2.8430   21.8590 C   0  0  0  0  0  0  0  0  0  0  0  0
    6.1900   -3.8590   22.5550 N   0  0  0  0  0  0  0  0  0  0  0  0
    7.5340   -3.8360   22.8570 C   0  0  0  0  0  0  0  0  0  0  0  0
    7.8810   -2.6040   23.4090 C   0  0  0  0  0  0  0  0  0  0  0  0
    8.8490   -1.7200   22.8870 C   0  0  0  0  0  0  0  0  0  0  0  0
    9.0950   -0.5320   23.5590 C   0  0  1  0  0  0  0  0  0  0  0  0
   10.4480   -0.3550   23.9350 N   0  0  0  0  0  0  0  0  0  0  0  0
   11.3800   -1.4250   24.0070 C   0  0  0  0  0  0  0  0  0  0  0  0
   12.2640   -1.4460   22.9370 C   0  0  0  0  0  0  0  0  0  0  0  0
   13.1030   -0.1840   22.9640 C   0  0  0  0  0  0  0  0  0  0  0  0
   12.4050    1.0030   23.1330 C   0  0  0  0  0  0  0  0  0  0  0  0
   12.9810    2.3120   22.8420 C   0  0  0  0  0  0  0  0  0  0  0  0
   12.2970    3.5010   22.9940 C   0  0  0  0  0  0  0  0  0  0  0  0
   11.0090    3.4060   23.4580 C   0  0  0  0  0  0  0  0  0  0  0  0
   10.1870    4.9100   23.6390 S   0  0  0  0  0  0  0  0  0  0  0  0
   11.3620    6.0390   23.1730 N   0  0  0  0  0  0  0  0  0  0  0  0
    9.0940    4.9900   22.7010 O   0  0  0  0  0  0  0  0  0  0  0  0
    9.9180    5.2100   25.0180 O   0  0  0  0  0  0  0  0  0  0  0  0
   10.4160    2.1450   23.7610 C   0  0  0  0  0  0  0  0  0  0  0  0
   11.1090    0.9290   23.6010 C   0  0  0  0  0  0  0  0  0  0  0  0
    8.3320    0.6660   22.5650 S   0  0  0  0  0  0  0  0  0  0  0  0
    9.2920    1.5000   21.8760 O   0  0  0  0  0  0  0  0  0  0  0  0
    7.2660    0.0550   21.7930 O   0  0  0  0  0  0  0  0  0  0  0  0
    7.4440    1.8080   23.6160 C   0  0  0  0  0  0  0  0  0  0  0  0
    7.9380    2.3160   24.9770 C   0  0  0  0  0  0  0  0  0  0  0  0
    7.1970    3.2060   25.7330 C   0  0  0  0  0  0  0  0  0  0  0  0
    5.9590    3.6740   25.2730 C   0  0  0  0  0  0  0  0  0  0  0  0
    5.4320    3.2720   24.0590 N   0  0  0  0  0  0  0  0  0  0  0  0
    6.2110    2.3150   23.2280 C   0  0  0  0  0  0  0  0  0  0  0  0
    8.0620   -0.7910   24.7190 C   0  0  0  0  0  0  0  0  0  0  0  0
    7.7500   -0.0280   25.8400 C   0  0  0  0  0  0  0  0  0  0  0  0
    8.8320    0.4500   26.7610 C   0  0  0  0  0  0  0  0  0  0  0  0
    8.4130    1.1760   27.8650 C   0  0  0  0  0  0  0  0  0  0  0  0
    7.0750    1.4640   28.1160 C   0  0  0  0  0  0  0  0  0  0  0  0
    6.0390    1.0350   27.2700 C   0  0  0  0  0  0  0  0  0  0  0  0
    6.3970    0.2820   26.1280 C   0  0  0  0  0  0  0  0  0  0  0  0
    5.3960   -0.1280   25.3410 F   0  0  0  0  0  0  0  0  0  0  0  0
    7.4290   -1.9800   24.5290 C   0  0  0  0  0  0  0  0  0  0  0  0
  1  2  1  0
  2  3  1  0
  3  4  1  0
  4  5  2  0
  5  6  1  0
  6  7  1  0
  7  8  1  0
  8  9  1  0
  9 10  1  0
 10 11  1  0
 11 12  2  0
 12 13  1  0
 13 14  2  0
 14 15  1  0
 15 16  1  0
 15 17  2  0
 15 18  2  0
 14 19  1  0
  7 20  1  0
 11 20  1  0
 19 20  2  0
  6 21  1  6
 21 22  2  0
 21 23  2  0
 21 24  1  0
 24 25  2  0
 25 26  1  0
 26 27  2  0
 27 28  1  0
 24 29  1  0
 28 29  2  0
  6 30  1  0
 30 31  1  0
 31 32  2  0
 32 33  1  0
 33 34  2  0
 34 35  1  0
 31 36  1  0
 35 36  2  0
 36 37  1  0
  4 38  1  0
 30 38  2  0
M  END
