MAK-UNK-8fdbca50-11-acrylamide
     RDKit          3D

 40 43  0  0  0  0  0  0  0  0999 V2000
    8.8150   -3.6910   20.2080 C   0  0  0  0  0  0  0  0  0  0  0  0
    7.4970   -2.9900   19.6750 C   0  0  0  0  0  0  0  0  0  0  0  0
    6.1750   -3.3120   20.4420 C   0  0  0  0  0  0  0  0  0  0  0  0
    5.1330   -3.8170   19.9180 O   0  0  0  0  0  0  0  0  0  0  0  0
    6.1670   -2.9680   21.7560 N   0  0  0  0  0  0  0  0  0  0  0  0
    5.8830   -3.9500   22.8120 C   0  0  0  0  0  0  0  0  0  0  0  0
    5.7900   -3.1100   24.1270 C   0  0  0  0  0  0  0  0  0  0  0  0
    7.1800   -2.4680   24.1600 C   0  0  0  0  0  0  0  0  0  0  0  0
    7.1490   -2.1590   25.6490 C   0  0  0  0  0  0  0  0  0  0  0  0
    6.9550   -1.0320   26.1180 O   0  0  0  0  0  0  0  0  0  0  0  0
    7.3770   -3.4560   26.3660 N   0  0  0  0  0  0  0  0  0  0  0  0
    8.7310   -3.9330   26.6740 C   0  0  0  0  0  0  0  0  0  0  0  0
    6.3480   -4.0520   27.1920 C   0  0  2  0  0  0  0  0  0  0  0  0
    6.5900   -3.6590   28.6330 C   0  0  0  0  0  0  0  0  0  0  0  0
    6.3680   -5.4080   26.8930 C   0  0  0  0  0  0  0  0  0  0  0  0
    5.5140   -5.8110   25.8700 C   0  0  0  0  0  0  0  0  0  0  0  0
    4.1090   -5.6160   26.0920 C   0  0  0  0  0  0  0  0  0  0  0  0
    3.1780   -5.9860   25.1280 C   0  0  0  0  0  0  0  0  0  0  0  0
    3.5650   -6.5490   23.9270 C   0  0  0  0  0  0  0  0  0  0  0  0
    4.9350   -6.7320   23.7300 C   0  0  0  0  0  0  0  0  0  0  0  0
    5.9660   -6.4100   24.6140 C   0  0  0  0  0  0  0  0  0  0  0  0
    7.2830   -6.6970   24.1750 C   0  0  0  0  0  0  0  0  0  0  0  0
    7.9620   -5.6140   24.4700 C   0  0  0  0  0  0  0  0  0  0  0  0
    9.2510   -5.5200   24.1900 C   0  0  0  0  0  0  0  0  0  0  0  0
   10.0400   -4.2460   24.5430 C   0  0  0  0  0  0  0  0  0  0  0  0
   10.7030   -3.7580   23.3440 N   0  0  0  0  0  0  0  0  0  0  0  0
   10.0510   -2.5600   22.7760 C   0  0  0  0  0  0  0  0  0  0  0  0
    9.6270   -6.7240   23.5760 C   0  0  0  0  0  0  0  0  0  0  0  0
    8.2630   -7.2810   23.6870 N   0  0  0  0  0  0  0  0  0  0  0  0
    7.8180   -8.8580   23.0910 S   0  0  0  0  0  0  0  0  0  0  0  0
    7.9980  -10.1520   23.5970 O   0  0  0  0  0  0  0  0  0  0  0  0
    6.4460   -8.5780   23.1290 O   0  0  0  0  0  0  0  0  0  0  0  0
    8.6280   -9.7070   21.8680 C   0  0  0  0  0  0  0  0  0  0  0  0
    9.9370   -9.2950   20.6750 C   0  0  0  0  0  0  0  0  0  0  0  0
   10.2170  -10.4070   19.6690 C   0  0  0  0  0  0  0  0  0  0  0  0
    9.3630  -11.7020   19.7750 C   0  0  0  0  0  0  0  0  0  0  0  0
    8.3900  -11.9600   20.7380 N   0  0  0  0  0  0  0  0  0  0  0  0
    8.0240  -11.0600   21.7560 C   0  0  0  0  0  0  0  0  0  0  0  0
    7.1840   -1.2280   23.2680 C   0  0  0  0  0  0  0  0  0  0  0  0
    6.1970   -1.5250   22.0910 C   0  0  0  0  0  0  0  0  0  0  0  0
  1  2  1  0
  2  3  1  0
  3  4  2  0
  3  5  1  0
  5  6  1  0
  6  7  1  0
  7  8  1  0
  8  9  1  0
  9 10  2  0
  9 11  1  0
 11 12  1  0
 11 13  1  0
 13 14  1  1
 13 15  1  0
 15 16  1  0
 16 17  2  0
 17 18  1  0
 18 19  2  0
 19 20  1  0
 16 21  1  0
 20 21  2  0
 21 22  1  0
 22 23  2  0
 23 24  1  0
 24 25  1  0
 25 26  1  0
 26 27  1  0
 24 28  2  0
 22 29  1  0
 28 29  1  0
 29 30  1  0
 30 31  2  0
 30 32  2  0
 30 33  1  0
 33 34  2  0
 34 35  1  0
 35 36  2  0
 36 37  1  0
 33 38  1  0
 37 38  2  0
  8 39  1  0
  5 40  1  0
 39 40  1  0
M  END
