MAK-UNK-ec98eaf6-18-vinylsulfonamide
     RDKit          3D

 23 25  0  0  0  0  0  0  0  0999 V2000
    8.0290   -3.4720   19.3700 C   0  0  0  0  0  0  0  0  0  0  0  0
    7.0140   -2.4940   18.8170 C   0  0  0  0  0  0  0  0  0  0  0  0
    5.6620   -2.3750   19.9070 S   0  0  0  0  0  0  0  0  0  0  0  0
    4.9690   -3.6360   19.7760 O   0  0  0  0  0  0  0  0  0  0  0  0
    4.9860   -1.1180   19.6660 O   0  0  0  0  0  0  0  0  0  0  0  0
    6.3770   -2.2090   21.4280 N   0  0  0  0  0  0  0  0  0  0  0  0
    6.3540   -3.3240   22.4140 C   0  0  0  0  0  0  0  0  0  0  0  0
    7.8780   -3.3680   22.6800 C   0  0  1  0  0  0  0  0  0  0  0  0
    8.6150   -2.6050   21.5700 C   0  0  0  0  0  0  0  0  0  0  0  0
    7.6850   -1.4590   21.5590 C   0  0  2  0  0  0  0  0  0  0  0  0
    7.8870   -1.1210   23.0040 C   0  0  1  0  0  0  0  0  0  0  0  0
    6.6280   -0.2970   23.2740 C   0  0  0  0  0  0  0  0  0  0  0  0
    8.0830   -2.3080   23.7170 N   0  0  0  0  0  0  0  0  0  0  0  0
    9.3510   -2.5270   24.4120 C   0  0  0  0  0  0  0  0  0  0  0  0
    9.6860   -3.8300   24.2460 F   0  0  0  0  0  0  0  0  0  0  0  0
    9.1290   -2.4440   25.7230 F   0  0  0  0  0  0  0  0  0  0  0  0
   10.5200   -1.6500   23.8970 C   0  0  0  0  0  0  0  0  0  0  0  0
   10.7510   -0.3040   24.5590 C   0  0  0  0  0  0  0  0  0  0  0  0
   11.8580    0.6070   24.1070 C   0  0  0  0  0  0  0  0  0  0  0  0
   12.7530    0.2040   23.0090 C   0  0  0  0  0  0  0  0  0  0  0  0
   12.4880   -1.1270   22.3880 C   0  0  0  0  0  0  0  0  0  0  0  0
   13.4220   -1.7040   21.1140 Cl  0  0  0  0  0  0  0  0  0  0  0  0
   11.3610   -2.0070   22.8740 C   0  0  0  0  0  0  0  0  0  0  0  0
  1  2  1  0
  3  2  1  0
  3  4  2  0
  3  5  2  0
  3  6  1  0
  6  7  1  0
  8  7  1  6
  8  9  1  0
 10  6  1  1
  9 10  1  0
 10 11  1  0
 11 12  1  1
  8 13  1  0
 11 13  1  0
 13 14  1  0
 14 15  1  0
 14 16  1  0
 14 17  1  0
 17 18  2  0
 18 19  1  0
 19 20  2  0
 20 21  1  0
 21 22  1  0
 17 23  1  0
 21 23  2  0
M  END
