MAK-UNK-ec98eaf6-33-chloroacetamide
     RDKit          3D

 27 30  0  0  0  0  0  0  0  0999 V2000
    6.7010   -3.2500   19.3190 C   0  0  0  0  0  0  0  0  0  0  0  0
    5.7170   -3.9610   20.2450 C   0  0  0  0  0  0  0  0  0  0  0  0
    5.3590   -5.1040   20.0050 O   0  0  0  0  0  0  0  0  0  0  0  0
    5.2020   -3.3010   21.3320 N   0  0  0  0  0  0  0  0  0  0  0  0
    4.7790   -3.9520   22.5710 C   0  0  0  0  0  0  0  0  0  0  0  0
    6.0260   -3.7570   23.4480 C   0  0  2  0  0  0  0  0  0  0  0  0
    5.2450   -2.4140   23.3420 C   0  0  0  0  0  0  0  0  0  0  0  0
    5.5530   -2.0200   21.8850 C   0  0  1  0  0  0  0  0  0  0  0  0
    7.0370   -1.9050   22.1360 C   0  0  0  0  0  0  0  0  0  0  0  0
    7.1610   -2.6800   23.4720 C   0  0  1  0  0  0  0  0  0  0  0  0
    7.2470   -1.7630   24.6900 C   0  0  0  0  0  0  0  0  0  0  0  0
    8.4030   -0.8270   24.4560 C   0  0  0  0  0  0  0  0  0  0  0  0
    8.2730    0.5450   24.7190 C   0  0  0  0  0  0  0  0  0  0  0  0
    9.3460    1.4040   24.4910 C   0  0  0  0  0  0  0  0  0  0  0  0
    9.2060    2.7100   24.7330 F   0  0  0  0  0  0  0  0  0  0  0  0
   10.5500    0.9050   24.0110 C   0  0  0  0  0  0  0  0  0  0  0  0
   10.7270   -0.4400   23.7270 C   0  0  0  0  0  0  0  0  0  0  0  0
   11.9710   -0.9660   23.2090 C   0  0  0  0  0  0  0  0  0  0  0  0
   13.0070   -1.7670   22.7170 C   0  0  0  0  0  0  0  0  0  0  0  0
   13.1290   -1.6480   21.3040 C   0  0  0  0  0  0  0  0  0  0  0  0
   13.7960   -0.3620   21.0510 N   0  0  0  0  0  0  0  0  0  0  0  0
   14.3600    0.1310   19.8090 C   0  0  0  0  0  0  0  0  0  0  0  0
   15.0580    1.3590   19.7330 C   0  0  0  0  0  0  0  0  0  0  0  0
   14.2110   -0.3800   18.7990 O   0  0  0  0  0  0  0  0  0  0  0  0
   11.3860   -2.2640   23.1910 C   0  0  0  0  0  0  0  0  0  0  0  0
   10.1120   -2.4250   23.6020 N   0  0  0  0  0  0  0  0  0  0  0  0
    9.6540   -1.2550   23.9570 C   0  0  0  0  0  0  0  0  0  0  0  0
  1  2  1  0
  2  3  2  0
  2  4  1  0
  4  5  1  0
  6  5  1  6
  6  7  1  0
  4  8  1  0
  7  8  1  0
  8  9  1  1
  6 10  1  0
  9 10  1  0
 10 11  1  1
 11 12  1  0
 12 13  1  0
 13 14  2  0
 14 15  1  0
 14 16  1  0
 16 17  2  0
 17 18  1  0
 18 19  1  0
 19 20  1  0
 20 21  1  0
 21 22  1  0
 22 23  1  0
 22 24  2  0
 18 25  2  0
 25 26  1  0
 12 27  2  0
 17 27  1  0
 26 27  1  0
M  END
