MAK-UNK-9e4a73aa-26
     RDKit          3D

 26 29  0  0  0  0  0  0  0  0999 V2000
    6.6150   -0.2030   24.1760 O   0  0  0  0  0  0  0  0  0  0  0  0
    7.7140   -0.6050   23.7770 C   0  0  0  0  0  0  0  0  0  0  0  0
    8.7980    0.4380   23.3930 C   0  0  0  0  0  0  0  0  0  0  0  0
    8.4290    1.9410   23.3200 C   0  0  0  0  0  0  0  0  0  0  0  0
    9.5340    2.9620   22.9770 C   0  0  0  0  0  0  0  0  0  0  0  0
    9.3110    4.2790   22.9010 F   0  0  0  0  0  0  0  0  0  0  0  0
   10.9580    2.4200   22.7180 C   0  0  0  0  0  0  0  0  0  0  0  0
   12.3620    3.3000   22.3320 Cl  0  0  0  0  0  0  0  0  0  0  0  0
   11.0950    0.8800   22.8320 C   0  0  0  0  0  0  0  0  0  0  0  0
   10.0560    0.0110   23.1530 C   0  0  0  0  0  0  0  0  0  0  0  0
   10.2520   -1.2860   23.2550 N   0  0  0  0  0  0  0  0  0  0  0  0
   11.4820   -1.7860   23.2270 C   0  0  0  0  0  0  0  0  0  0  0  0
   11.9820   -1.9450   24.4760 C   0  0  0  0  0  0  0  0  0  0  0  0
   13.3330   -2.5370   24.6800 C   0  0  0  0  0  0  0  0  0  0  0  0
   13.9580   -2.8830   23.2960 C   0  0  0  0  0  0  0  0  0  0  0  0
   13.1960   -2.5780   22.0450 C   0  0  0  0  0  0  0  0  0  0  0  0
   12.0160   -2.0590   22.0270 C   0  0  0  0  0  0  0  0  0  0  0  0
    9.2420   -2.3230   23.3780 C   0  0  0  0  0  0  0  0  0  0  0  0
    9.5600   -3.6360   23.1880 O   0  0  0  0  0  0  0  0  0  0  0  0
    8.0330   -1.9410   23.6690 N   0  0  0  0  0  0  0  0  0  0  0  0
    7.0070   -2.5580   22.8660 C   0  0  0  0  0  0  0  0  0  0  0  0
    7.9570   -1.5800   22.1950 C   0  0  0  0  0  0  0  0  0  0  0  0
    7.8250   -1.2200   20.8220 C   0  0  0  0  0  0  0  0  0  0  0  0
    7.1690   -1.3710   19.7310 C   0  0  0  0  0  0  0  0  0  0  0  0
    6.2400   -2.2870   20.1630 N   0  0  0  0  0  0  0  0  0  0  0  0
    6.1480   -2.8510   21.5660 C   0  0  0  0  0  0  0  0  0  0  0  0
  1  2  2  0
  2  3  1  0
  3  4  2  0
  4  5  1  0
  5  6  1  0
  5  7  2  0
  7  8  1  0
  7  9  1  0
  3 10  1  0
  9 10  2  0
 10 11  1  0
 11 12  1  0
 12 13  2  0
 13 14  1  0
 14 15  2  0
 15 16  1  0
 12 17  1  0
 16 17  2  0
 11 18  1  0
 18 19  2  0
  2 20  1  0
 18 20  1  0
 20 21  1  0
 21 22  2  0
 22 23  1  0
 23 24  2  0
 24 25  1  0
 21 26  1  0
 25 26  2  0
M  END
