MAK-UNK-9e4a73aa-33
     RDKit          3D

 27 30  0  0  0  0  0  0  0  0999 V2000
   13.2960   -3.9480   26.1380 C   0  0  0  0  0  0  0  0  0  0  0  0
   12.6560   -3.1240   25.0440 C   0  0  0  0  0  0  0  0  0  0  0  0
   13.6020   -2.0720   24.5400 C   0  0  0  0  0  0  0  0  0  0  0  0
   13.2340   -1.1030   23.4420 C   0  0  0  0  0  0  0  0  0  0  0  0
   11.8860   -1.2060   22.8460 C   0  0  0  0  0  0  0  0  0  0  0  0
   11.0410   -2.3210   23.4630 C   0  0  0  0  0  0  0  0  0  0  0  0
    9.7350   -2.4760   22.9500 N   0  0  0  0  0  0  0  0  0  0  0  0
    9.2830   -1.1540   22.5380 C   0  0  0  0  0  0  0  0  0  0  0  0
   10.0310   -0.3650   21.7100 O   0  0  0  0  0  0  0  0  0  0  0  0
    8.0950   -0.6920   22.9900 N   0  0  0  0  0  0  0  0  0  0  0  0
    7.1500   -0.7100   21.8550 C   0  0  0  0  0  0  0  0  0  0  0  0
    7.2800   -2.0410   22.3490 C   0  0  0  0  0  0  0  0  0  0  0  0
    6.8770   -3.5800   22.2730 C   0  0  0  0  0  0  0  0  0  0  0  0
    5.8870   -3.3950   21.0620 C   0  0  0  0  0  0  0  0  0  0  0  0
    5.6270   -2.1480   20.4100 N   0  0  0  0  0  0  0  0  0  0  0  0
    6.2450   -0.9470   20.8270 C   0  0  0  0  0  0  0  0  0  0  0  0
    7.6960   -1.2270   24.1590 C   0  0  0  0  0  0  0  0  0  0  0  0
    7.2220   -0.5530   25.3440 O   0  0  0  0  0  0  0  0  0  0  0  0
    7.7380   -2.6470   24.2520 C   0  0  0  0  0  0  0  0  0  0  0  0
    6.7330   -3.3030   24.9480 C   0  0  0  0  0  0  0  0  0  0  0  0
    6.8650   -4.8380   24.9430 C   0  0  0  0  0  0  0  0  0  0  0  0
    5.9600   -5.6020   25.5680 F   0  0  0  0  0  0  0  0  0  0  0  0
    8.0560   -5.4750   24.1960 C   0  0  0  0  0  0  0  0  0  0  0  0
    8.3380   -7.1970   24.0710 Cl  0  0  0  0  0  0  0  0  0  0  0  0
    8.9670   -4.6580   23.5730 C   0  0  0  0  0  0  0  0  0  0  0  0
    8.7800   -3.2970   23.6200 C   0  0  0  0  0  0  0  0  0  0  0  0
   11.3910   -3.2180   24.4880 C   0  0  0  0  0  0  0  0  0  0  0  0
  1  2  1  0
  2  3  2  0
  3  4  1  0
  4  5  2  0
  5  6  1  0
  6  7  1  0
  7  8  1  0
  8  9  2  0
  8 10  1  0
 10 11  1  0
 11 12  2  0
 12 13  1  0
 13 14  2  0
 14 15  1  0
 11 16  1  0
 15 16  2  0
 10 17  1  0
 17 18  2  0
 17 19  1  0
 19 20  1  0
 20 21  2  0
 21 22  1  0
 21 23  1  0
 23 24  1  0
 23 25  2  0
  7 26  1  0
 19 26  2  0
 25 26  1  0
  2 27  1  0
  6 27  2  0
M  END
