MAK-UNK-849bee6c-20-acrylamide
     RDKit          3D

 30 32  0  0  0  0  0  0  0  0999 V2000
    7.8580   -3.1970   19.1750 C   0  0  0  0  0  0  0  0  0  0  0  0
    6.6350   -2.3720   18.8640 C   0  0  0  0  0  0  0  0  0  0  0  0
    5.5630   -2.7730   19.8130 C   0  0  0  0  0  0  0  0  0  0  0  0
    4.7570   -3.6250   19.4590 O   0  0  0  0  0  0  0  0  0  0  0  0
    5.6060   -2.2090   21.0700 N   0  0  0  0  0  0  0  0  0  0  0  0
    5.3120   -2.9470   22.1750 C   0  0  0  0  0  0  0  0  0  0  0  0
    6.5460   -3.4250   22.9700 C   0  0  0  0  0  0  0  0  0  0  0  0
    7.4810   -2.3160   23.1570 N   0  0  0  0  0  0  0  0  0  0  0  0
    8.7240   -2.7070   23.8380 C   0  0  0  0  0  0  0  0  0  0  0  0
    9.6470   -1.5170   23.8600 C   0  0  0  0  0  0  0  0  0  0  0  0
    9.1240   -0.2740   24.2270 C   0  0  0  0  0  0  0  0  0  0  0  0
    9.9160    0.8540   24.2470 C   0  0  0  0  0  0  0  0  0  0  0  0
    9.3560    2.0580   24.5990 C   0  0  0  0  0  0  0  0  0  0  0  0
   11.2460    0.7450   23.9030 C   0  0  0  0  0  0  0  0  0  0  0  0
   11.7600   -0.4740   23.5410 C   0  0  0  0  0  0  0  0  0  0  0  0
   13.0590   -0.4960   23.2050 N   0  0  0  0  0  0  0  0  0  0  0  0
   13.6180   -0.0100   21.9900 C   0  0  0  0  0  0  0  0  0  0  0  0
   14.0670    1.2840   21.9660 C   0  0  0  0  0  0  0  0  0  0  0  0
   14.6850    1.8160   20.8630 C   0  0  0  0  0  0  0  0  0  0  0  0
   14.8860    1.0910   19.7000 C   0  0  0  0  0  0  0  0  0  0  0  0
   15.5530    1.8770   18.6760 N   0  0  0  0  0  0  0  0  0  0  0  0
   15.1250    3.2030   18.5760 C   0  0  0  0  0  0  0  0  0  0  0  0
   15.4960    4.1340   19.5550 C   0  0  0  0  0  0  0  0  0  0  0  0
   14.4350   -0.2340   19.6320 N   0  0  0  0  0  0  0  0  0  0  0  0
   13.7900   -0.7360   20.8100 C   0  0  0  0  0  0  0  0  0  0  0  0
   13.2940   -2.1490   20.8290 C   0  0  0  0  0  0  0  0  0  0  0  0
   13.0430   -3.2330   20.8400 N   0  0  0  0  0  0  0  0  0  0  0  0
   10.9790   -1.6060   23.5170 C   0  0  0  0  0  0  0  0  0  0  0  0
    7.7050   -1.5430   21.9250 C   0  0  0  0  0  0  0  0  0  0  0  0
    6.5180   -1.0930   21.3550 C   0  0  0  0  0  0  0  0  0  0  0  0
  1  2  1  0
  2  3  1  0
  3  4  2  0
  3  5  1  0
  5  6  1  0
  6  7  1  0
  7  8  1  0
  8  9  1  0
  9 10  1  0
 10 11  2  0
 11 12  1  0
 12 13  1  0
 12 14  2  0
 14 15  1  0
 15 16  1  0
 16 17  1  0
 17 18  2  0
 18 19  1  0
 19 20  2  0
 20 21  1  0
 21 22  1  0
 22 23  1  0
 20 24  1  0
 17 25  1  0
 24 25  2  0
 25 26  1  0
 26 27  3  0
 10 28  1  0
 15 28  2  0
  8 29  1  0
  5 30  1  0
 29 30  1  0
M  END
