MAK-UNK-ec98eaf6-2-chloroacetamide
     RDKit          3D

 23 26  0  0  0  0  0  0  0  0999 V2000
    7.2490   -3.0620   18.9070 C   0  0  0  0  0  0  0  0  0  0  0  0
    6.1620   -3.3660   19.9440 C   0  0  0  0  0  0  0  0  0  0  0  0
    5.3710   -4.2950   19.7930 O   0  0  0  0  0  0  0  0  0  0  0  0
    6.1030   -2.5700   21.0450 N   0  0  0  0  0  0  0  0  0  0  0  0
    5.5340   -2.9930   22.3310 C   0  0  0  0  0  0  0  0  0  0  0  0
    6.8650   -3.0800   23.1110 C   0  0  1  0  0  0  0  0  0  0  0  0
    7.5770   -2.9770   21.7930 C   0  0  0  0  0  0  0  0  0  0  0  0
    7.0600   -1.5430   21.4270 C   0  0  2  0  0  0  0  0  0  0  0  0
    8.3060   -1.5140   22.3110 C   0  0  0  0  0  0  0  0  0  0  0  0
    7.5980   -1.8990   23.5570 N   0  0  0  0  0  0  0  0  0  0  0  0
    8.4660   -2.0170   24.6920 C   0  0  0  0  0  0  0  0  0  0  0  0
    9.7580   -1.3090   24.4600 C   0  0  0  0  0  0  0  0  0  0  0  0
    9.7920    0.0300   24.3060 N   0  0  0  0  0  0  0  0  0  0  0  0
   11.0500    0.3610   24.1120 C   0  0  0  0  0  0  0  0  0  0  0  0
   11.9190   -0.6380   24.1220 C   0  0  0  0  0  0  0  0  0  0  0  0
   13.1750   -0.5080   23.9500 C   0  0  0  0  0  0  0  0  0  0  0  0
   13.3100   -1.1990   22.9080 C   0  0  0  0  0  0  0  0  0  0  0  0
   13.4510   -0.5860   21.7390 C   0  0  0  0  0  0  0  0  0  0  0  0
   13.5590   -1.3000   20.6110 C   0  0  0  0  0  0  0  0  0  0  0  0
   13.5130   -2.6690   20.7720 C   0  0  0  0  0  0  0  0  0  0  0  0
   13.3950   -3.1900   21.9320 C   0  0  0  0  0  0  0  0  0  0  0  0
   13.2840   -2.5210   23.0500 C   0  0  0  0  0  0  0  0  0  0  0  0
   11.2200   -2.1560   24.3730 S   0  0  0  0  0  0  0  0  0  0  0  0
  1  2  1  0
  2  3  2  0
  2  4  1  0
  4  5  1  0
  6  5  1  6
  6  7  1  0
  4  8  1  0
  7  8  1  0
  8  9  1  1
  6 10  1  0
  9 10  1  0
 10 11  1  0
 11 12  1  0
 12 13  2  0
 13 14  1  0
 14 15  2  0
 15 16  1  0
 16 17  1  0
 17 18  2  0
 18 19  1  0
 19 20  2  0
 20 21  1  0
 17 22  1  0
 21 22  2  0
 12 23  1  0
 15 23  1  0
M  END
