MAK-UNK-702fb7d3-7-vinylsulfonamide
     RDKit          3D

 44 49  0  0  0  0  0  0  0  0999 V2000
    7.0270   -3.6490   19.7050 C   0  0  0  0  0  0  0  0  0  0  0  0
    7.4340   -2.8050   20.9010 C   0  0  0  0  0  0  0  0  0  0  0  0
    6.2550   -3.0040   22.2070 S   0  0  0  0  0  0  0  0  0  0  0  0
    5.1000   -3.9410   21.6880 O   0  0  0  0  0  0  0  0  0  0  0  0
    5.8470   -1.6380   22.4720 O   0  0  0  0  0  0  0  0  0  0  0  0
    7.3480   -3.4340   23.5930 N   0  0  0  0  0  0  0  0  0  0  0  0
    8.9070   -3.3240   23.5470 C   0  0  0  0  0  0  0  0  0  0  0  0
    9.7010   -3.7990   24.7010 C   0  0  0  0  0  0  0  0  0  0  0  0
   11.1340   -3.3490   24.6040 C   0  0  0  0  0  0  0  0  0  0  0  0
   10.7120   -2.6980   23.3220 C   0  0  0  0  0  0  0  0  0  0  0  0
    9.9080   -3.4310   24.1790 C   0  0  0  0  0  0  0  0  0  0  0  0
    8.5990   -3.9390   24.4340 C   0  0  0  0  0  0  0  0  0  0  0  0
    8.7860   -4.6070   25.6360 C   0  0  0  0  0  0  0  0  0  0  0  0
    7.3310   -4.9200   25.5290 C   0  0  1  0  0  0  0  0  0  0  0  0
    6.5360   -5.4930   26.7000 C   0  0  0  0  0  0  0  0  0  0  0  0
    7.1230   -5.6210   27.9400 C   0  0  0  0  0  0  0  0  0  0  0  0
    6.3560   -6.2010   29.1150 C   0  0  0  0  0  0  0  0  0  0  0  0
    4.9660   -6.6560   29.0150 C   0  0  0  0  0  0  0  0  0  0  0  0
    4.3380   -6.4950   27.6060 C   0  0  0  0  0  0  0  0  0  0  0  0
    5.2200   -5.8960   26.5090 C   0  0  0  0  0  0  0  0  0  0  0  0
    6.8400   -3.5580   24.9700 C   0  0  2  0  0  0  0  0  0  0  0  0
    5.5590   -3.1250   25.0700 N   0  0  0  0  0  0  0  0  0  0  0  0
    5.4020   -1.6530   24.9630 C   0  0  0  0  0  0  0  0  0  0  0  0
    5.4980   -0.9450   26.1480 C   0  0  0  0  0  0  0  0  0  0  0  0
    5.0780   -1.4300   27.3060 C   0  0  0  0  0  0  0  0  0  0  0  0
    5.1650   -0.6420   28.6680 C   0  0  0  0  0  0  0  0  0  0  0  0
    5.3540    0.3160   29.8650 C   0  0  0  0  0  0  0  0  0  0  0  0
    4.5300    1.3660   30.0450 C   0  0  0  0  0  0  0  0  0  0  0  0
    4.6990    2.2660   31.1790 C   0  0  0  0  0  0  0  0  0  0  0  0
    5.6890    2.0470   32.0630 C   0  0  0  0  0  0  0  0  0  0  0  0
    6.5440    0.9610   31.8890 C   0  0  0  0  0  0  0  0  0  0  0  0
    6.3730    0.1080   30.8020 C   0  0  0  0  0  0  0  0  0  0  0  0
    7.2040   -0.9230   30.6730 F   0  0  0  0  0  0  0  0  0  0  0  0
    5.7760    0.4210   27.8340 N   0  0  0  0  0  0  0  0  0  0  0  0
    6.3620    1.9830   28.3060 S   0  0  0  0  0  0  0  0  0  0  0  0
    7.2270    2.4210   27.2290 O   0  0  0  0  0  0  0  0  0  0  0  0
    6.8480    1.9360   29.6670 O   0  0  0  0  0  0  0  0  0  0  0  0
    4.9480    3.0280   28.2410 C   0  0  0  0  0  0  0  0  0  0  0  0
    3.7410    2.5990   27.6790 C   0  0  0  0  0  0  0  0  0  0  0  0
    2.6600    3.4710   27.6550 C   0  0  0  0  0  0  0  0  0  0  0  0
    2.8170    4.7450   28.1910 C   0  0  0  0  0  0  0  0  0  0  0  0
    3.9720    5.1890   28.7390 N   0  0  0  0  0  0  0  0  0  0  0  0
    5.0280    4.3130   28.7530 C   0  0  0  0  0  0  0  0  0  0  0  0
    5.9520    0.2470   26.4710 C   0  0  0  0  0  0  0  0  0  0  0  0
  1  2  1  0
  3  2  1  0
  3  4  2  0
  3  5  2  0
  3  6  1  0
  6  7  1  0
  7  8  1  0
  8  9  1  0
  9 10  2  0
 10 11  1  0
 11 12  2  0
  8 13  2  0
 12 13  1  0
 13 14  1  0
 14 15  1  1
 15 16  2  0
 16 17  1  0
 17 18  2  0
 18 19  1  0
 15 20  1  0
 19 20  2  0
  6 21  1  0
 14 21  1  0
 21 22  1  6
 22 23  1  0
 23 24  1  0
 24 25  1  0
 25 26  2  0
 26 27  1  0
 27 28  2  0
 28 29  1  0
 29 30  2  0
 30 31  1  0
 27 32  1  0
 31 32  2  0
 32 33  1  0
 26 34  1  0
 34 35  1  0
 35 36  2  0
 35 37  2  0
 35 38  1  0
 38 39  2  0
 39 40  1  0
 40 41  2  0
 41 42  1  0
 38 43  1  0
 42 43  2  0
 24 44  2  0
 34 44  1  0
M  END
