MAK-UNK-60abb798-5
     RDKit          3D

 22 24  0  0  0  0  0  0  0  0999 V2000
    6.7880   -2.5320   19.9450 C   0  0  0  0  0  0  0  0  0  0  0  0
    5.9540   -3.7120   20.3770 C   0  0  0  0  0  0  0  0  0  0  0  0
    6.2250   -4.1450   21.6450 N   0  0  0  0  0  0  0  0  0  0  0  0
    5.7540   -5.4580   22.0540 C   0  0  0  0  0  0  0  0  0  0  0  0
    6.8450   -6.3170   22.6610 C   0  0  0  0  0  0  0  0  0  0  0  0
    7.5050   -5.5740   23.7600 C   0  0  0  0  0  0  0  0  0  0  0  0
    7.6920   -4.2210   23.6640 C   0  0  1  0  0  0  0  0  0  0  0  0
    8.7710   -3.6600   24.3350 C   0  0  2  0  0  0  0  0  0  0  0  0
    9.3820   -2.5240   23.7720 C   0  0  0  0  0  0  0  0  0  0  0  0
   10.8020   -2.2860   24.1140 C   0  0  0  0  0  0  0  0  0  0  0  0
   11.3700   -3.3590   25.0090 C   0  0  0  0  0  0  0  0  0  0  0  0
   12.6470   -3.2250   25.3430 C   0  0  0  0  0  0  0  0  0  0  0  0
   13.4380   -2.1780   24.9220 C   0  0  0  0  0  0  0  0  0  0  0  0
   12.8980   -1.1790   24.0930 C   0  0  0  0  0  0  0  0  0  0  0  0
   13.6350   -0.1430   23.6490 O   0  0  0  0  0  0  0  0  0  0  0  0
   11.5870   -1.2210   23.6860 C   0  0  0  0  0  0  0  0  0  0  0  0
   11.1480   -0.2080   22.8740 O   0  0  0  0  0  0  0  0  0  0  0  0
   10.5370   -4.4150   25.4140 C   0  0  1  0  0  0  0  0  0  0  0  0
    9.7800   -4.2560   26.5580 C   0  0  0  0  0  0  0  0  0  0  0  0
    8.6640   -4.9980   26.7460 N   0  0  0  0  0  0  0  0  0  0  0  0
    9.6220   -4.5580   24.4210 O   0  0  0  0  0  0  0  0  0  0  0  0
    7.5440   -3.7640   22.1810 C   0  0  0  0  0  0  0  0  0  0  0  0
  1  2  1  0
  2  3  1  0
  3  4  1  0
  4  5  1  0
  5  6  1  0
  7  6  1  6
  7  8  1  0
  8  9  1  6
  9 10  1  0
 10 11  2  0
 11 12  1  0
 12 13  2  0
 13 14  1  0
 14 15  1  0
 10 16  1  0
 14 16  2  0
 16 17  1  0
 11 18  1  0
 18 19  1  1
 19 20  1  0
  8 21  1  0
 18 21  1  0
  3 22  1  0
  7 22  1  0
M  END
