MAK-UNK-bdda130a-4
     RDKit          3D

 23 26  0  0  0  0  0  0  0  0999 V2000
    6.0440   -5.8880   25.8440 C   0  0  0  0  0  0  0  0  0  0  0  0
    4.6350   -5.0140   26.2140 S   0  0  0  0  0  0  0  0  0  0  0  0
    3.7580   -5.1750   27.6740 C   0  0  0  0  0  0  0  0  0  0  0  0
    3.4580   -3.8640   25.8490 C   0  0  0  0  0  0  0  0  0  0  0  0
    2.0230   -4.0930   25.5170 C   0  0  0  0  0  0  0  0  0  0  0  0
    0.9960   -3.0180   25.2690 C   0  0  0  0  0  0  0  0  0  0  0  0
    2.2180   -1.7680   25.5280 S   0  0  0  0  0  0  0  0  0  0  0  0
    3.6750   -2.5610   25.8680 C   0  0  0  0  0  0  0  0  0  0  0  0
    4.8960   -4.3540   24.6710 N   0  0  0  0  0  0  0  0  0  0  0  0
    4.2470   -4.9570   23.4430 C   0  0  0  0  0  0  0  0  0  0  0  0
    5.1760   -5.7270   22.6920 C   0  0  0  0  0  0  0  0  0  0  0  0
    6.3220   -4.9210   22.2260 N   0  0  0  0  0  0  0  0  0  0  0  0
    6.1030   -4.2520   20.8930 C   0  0  0  0  0  0  0  0  0  0  0  0
    5.4460   -4.7770   19.9780 O   0  0  0  0  0  0  0  0  0  0  0  0
    6.6550   -3.0690   20.7440 N   0  0  0  0  0  0  0  0  0  0  0  0
    7.6960   -2.6660   21.5510 C   0  0  0  0  0  0  0  0  0  0  0  0
    8.7380   -1.5860   21.2680 C   0  0  0  0  0  0  0  0  0  0  0  0
    9.7530   -1.2200   22.0810 N   0  0  0  0  0  0  0  0  0  0  0  0
    9.8580   -1.8640   23.2460 C   0  0  0  0  0  0  0  0  0  0  0  0
    8.9910   -2.8600   23.6540 C   0  0  0  0  0  0  0  0  0  0  0  0
    7.9160   -3.3030   22.8970 C   0  0  0  0  0  0  0  0  0  0  0  0
    7.0570   -4.3030   23.3810 C   0  0  1  0  0  0  0  0  0  0  0  0
    6.1960   -3.6800   24.3220 C   0  0  0  0  0  0  0  0  0  0  0  0
  1  2  2  0
  2  3  2  0
  2  4  1  0
  4  5  1  0
  5  6  2  0
  6  7  1  0
  4  8  2  0
  7  8  1  0
  2  9  1  0
  9 10  1  0
 10 11  1  0
 11 12  1  0
 12 13  1  0
 13 14  2  0
 13 15  1  0
 15 16  1  0
 16 17  2  0
 17 18  1  0
 18 19  2  0
 19 20  1  0
 16 21  1  0
 20 21  2  0
 12 22  1  0
 21 22  1  0
  9 23  1  0
 22 23  1  1
M  END
