MAK-UNK-8fdbca50-28-chloroacetamide
     RDKit          3D

 39 42  0  0  0  0  0  0  0  0999 V2000
    6.9910   -3.2130   19.2980 C   0  0  0  0  0  0  0  0  0  0  0  0
    5.9720   -3.8100   20.2650 C   0  0  0  0  0  0  0  0  0  0  0  0
    5.2400   -4.7210   19.9170 O   0  0  0  0  0  0  0  0  0  0  0  0
    5.8490   -3.3500   21.5420 N   0  0  0  0  0  0  0  0  0  0  0  0
    5.8910   -4.1890   22.7410 C   0  0  0  0  0  0  0  0  0  0  0  0
    7.1140   -3.5880   23.4950 C   0  0  0  0  0  0  0  0  0  0  0  0
    6.5250   -2.2550   24.0430 C   0  0  0  0  0  0  0  0  0  0  0  0
    7.7050   -1.3500   23.7300 C   0  0  0  0  0  0  0  0  0  0  0  0
    7.6500   -0.4910   22.8450 O   0  0  0  0  0  0  0  0  0  0  0  0
    8.8850   -1.5700   24.5540 N   0  0  0  0  0  0  0  0  0  0  0  0
   10.1600   -1.1330   23.8980 C   0  0  0  0  0  0  0  0  0  0  0  0
   10.4030   -1.8520   22.5920 C   0  0  0  0  0  0  0  0  0  0  0  0
   11.6190   -1.5140   21.7610 C   0  0  0  0  0  0  0  0  0  0  0  0
   12.6510   -0.4330   22.1840 C   0  0  0  0  0  0  0  0  0  0  0  0
   13.6910   -0.2340   21.0340 C   0  0  0  0  0  0  0  0  0  0  0  0
   14.5290    0.8420   20.2730 C   0  0  0  0  0  0  0  0  0  0  0  0
   15.2390    0.4490   19.1720 C   0  0  0  0  0  0  0  0  0  0  0  0
   16.0230    1.2470   18.3540 C   0  0  0  0  0  0  0  0  0  0  0  0
   15.8480    1.0700   16.9950 N   0  0  0  0  0  0  0  0  0  0  0  0
   16.9210    0.3590   16.2890 C   0  0  0  0  0  0  0  0  0  0  0  0
   14.9430   -0.8380   19.1810 C   0  0  0  0  0  0  0  0  0  0  0  0
   14.0010   -1.2450   20.2990 N   0  0  0  0  0  0  0  0  0  0  0  0
   13.2470   -2.7180   20.8230 S   0  0  0  0  0  0  0  0  0  0  0  0
   13.4070   -2.7010   22.2580 O   0  0  0  0  0  0  0  0  0  0  0  0
   11.9700   -2.9980   20.2940 O   0  0  0  0  0  0  0  0  0  0  0  0
   14.1970   -3.9760   20.2280 C   0  0  0  0  0  0  0  0  0  0  0  0
   15.1670   -4.0750   19.4560 C   0  0  0  0  0  0  0  0  0  0  0  0
   15.6640   -5.2290   19.3300 C   0  0  0  0  0  0  0  0  0  0  0  0
   15.0780   -6.0630   19.9810 C   0  0  0  0  0  0  0  0  0  0  0  0
   14.3010   -6.3230   20.6410 N   0  0  0  0  0  0  0  0  0  0  0  0
   13.8100   -4.9450   20.7230 C   0  0  0  0  0  0  0  0  0  0  0  0
   12.3460    0.1440   23.4300 C   0  0  0  0  0  0  0  0  0  0  0  0
   13.0680    1.0390   23.9170 F   0  0  0  0  0  0  0  0  0  0  0  0
   11.0960   -0.1980   24.2950 C   0  0  0  0  0  0  0  0  0  0  0  0
    8.5550   -1.2020   25.9400 C   0  0  0  0  0  0  0  0  0  0  0  0
    8.0390   -2.3530   26.8320 C   0  0  0  0  0  0  0  0  0  0  0  0
    9.5720   -0.3340   26.6620 C   0  0  0  0  0  0  0  0  0  0  0  0
    5.2800   -1.7640   23.3100 C   0  0  0  0  0  0  0  0  0  0  0  0
    5.5760   -1.9490   21.8100 C   0  0  0  0  0  0  0  0  0  0  0  0
  1  2  1  0
  2  3  2  0
  2  4  1  0
  4  5  1  0
  5  6  1  0
  6  7  1  0
  7  8  1  0
  8  9  2  0
  8 10  1  0
 10 11  1  0
 11 12  2  0
 12 13  1  0
 13 14  2  0
 14 15  1  0
 15 16  2  0
 16 17  1  0
 17 18  1  0
 18 19  1  0
 19 20  1  0
 17 21  2  0
 15 22  1  0
 21 22  1  0
 22 23  1  0
 23 24  2  0
 23 25  2  0
 23 26  1  0
 26 27  2  0
 27 28  1  0
 28 29  2  0
 29 30  1  0
 26 31  1  0
 30 31  2  0
 14 32  1  0
 32 33  1  0
 11 34  1  0
 32 34  2  0
 10 35  1  0
 35 36  1  0
 35 37  1  0
  7 38  1  0
  4 39  1  0
 38 39  1  0
M  END
