MAK-UNK-194150d3-1
     RDKit          3D

 23 24  0  0  0  0  0  0  0  0999 V2000
    2.5990    3.3730   18.5520 C   0  0  0  0  0  0  0  0  0  0  0  0
    3.4180    2.6620   19.5850 C   0  0  0  0  0  0  0  0  0  0  0  0
    2.8780    1.6170   20.4910 C   0  0  0  0  0  0  0  0  0  0  0  0
    3.7650    1.0140   21.4900 C   0  0  0  0  0  0  0  0  0  0  0  0
    5.0760    1.4100   21.5940 C   0  0  0  0  0  0  0  0  0  0  0  0
    5.8750    0.7710   22.6500 N   0  0  0  0  0  0  0  0  0  0  0  0
    6.3760   -0.8270   22.4100 S   0  0  0  0  0  0  0  0  0  0  0  0
    5.3560   -1.5560   21.6710 O   0  0  0  0  0  0  0  0  0  0  0  0
    6.8940   -1.3670   23.6460 O   0  0  0  0  0  0  0  0  0  0  0  0
    7.6340   -0.5220   21.3470 N   0  0  0  0  0  0  0  0  0  0  0  0
    8.8780    0.0830   21.8640 C   0  0  0  0  0  0  0  0  0  0  0  0
    9.2150   -0.3960   23.1090 C   0  0  0  0  0  0  0  0  0  0  0  0
   10.5400   -0.7280   23.3290 C   0  0  0  0  0  0  0  0  0  0  0  0
   11.3440   -1.4420   22.2610 C   0  0  0  0  0  0  0  0  0  0  0  0
   12.6660   -1.7630   22.5520 C   0  0  0  0  0  0  0  0  0  0  0  0
   13.2050   -1.4280   23.7900 C   0  0  0  0  0  0  0  0  0  0  0  0
   12.4770   -0.7660   24.7700 C   0  0  0  0  0  0  0  0  0  0  0  0
   11.1480   -0.4170   24.5420 C   0  0  0  0  0  0  0  0  0  0  0  0
    5.5730    2.3890   20.7190 C   0  0  0  0  0  0  0  0  0  0  0  0
    6.8930    2.7450   20.8810 N   0  0  0  0  0  0  0  0  0  0  0  0
    7.7590    1.9780   20.4330 O   0  0  0  0  0  0  0  0  0  0  0  0
    7.1280    3.6680   21.6750 O   0  0  0  0  0  0  0  0  0  0  0  0
    4.7580    2.9800   19.7410 C   0  0  0  0  0  0  0  0  0  0  0  0
  1  2  1  0
  2  3  2  0
  3  4  1  0
  4  5  2  0
  5  6  1  0
  7  6  1  0
  7  8  2  0
  7  9  2  0
  7 10  1  0
 10 11  1  0
 11 12  1  0
 12 13  1  0
 13 14  2  0
 14 15  1  0
 15 16  2  0
 16 17  1  0
 13 18  1  0
 17 18  2  0
  5 19  1  0
 19 20  1  0
 20 21  2  0
 20 22  1  0
  2 23  1  0
 19 23  2  0
M  CHG  2  20   1  22  -1
M  END
