MAK-UNK-f983951f-18-acrylamide
     RDKit          3D

 17 18  0  0  0  0  0  0  0  0999 V2000
    7.4770   -4.1870   20.7790 C   0  0  0  0  0  0  0  0  0  0  0  0
    6.0180   -3.9040   20.8600 C   0  0  0  0  0  0  0  0  0  0  0  0
    5.3810   -5.2160   21.1610 C   0  0  0  0  0  0  0  0  0  0  0  0
    5.1180   -5.0340   20.0260 O   0  0  0  0  0  0  0  0  0  0  0  0
    5.8620   -5.0230   22.3880 N   0  0  0  0  0  0  0  0  0  0  0  0
    4.8140   -4.8870   23.3470 C   0  0  0  0  0  0  0  0  0  0  0  0
    3.5610   -4.3790   22.8720 O   0  0  0  0  0  0  0  0  0  0  0  0
    5.1700   -5.2990   24.5850 N   0  0  0  0  0  0  0  0  0  0  0  0
    4.8280   -4.6950   25.8920 C   0  0  2  0  0  0  0  0  0  0  0  0
    5.1600   -5.6120   26.8840 C   0  0  0  0  0  0  0  0  0  0  0  0
    3.4880   -3.9930   26.2480 C   0  0  2  0  0  0  0  0  0  0  0  0
    2.4170   -3.8320   25.3780 C   0  0  0  0  0  0  0  0  0  0  0  0
    2.1890   -2.5090   24.9870 C   0  0  2  0  0  0  0  0  0  0  0  0
    2.9290   -1.3320   25.0460 C   0  0  0  0  0  0  0  0  0  0  0  0
    4.0940   -1.4870   25.7730 C   0  0  0  0  0  0  0  0  0  0  0  0
    3.5810   -2.5180   26.7350 C   0  0  1  0  0  0  0  0  0  0  0  0
    2.1260   -2.2180   26.5020 C   0  0  0  0  0  0  0  0  0  0  0  0
  1  2  1  0
  2  3  1  0
  3  4  2  0
  3  5  1  0
  5  6  1  0
  6  7  2  0
  6  8  1  0
  8  9  1  0
  9 10  1  1
  9 11  1  0
 11 12  1  6
 13 12  1  1
 13 14  1  0
 14 15  1  0
 11 16  1  0
 16 15  1  6
 13 17  1  0
 16 17  1  0
M  END
