MAK-UNK-148caf23-20-chloroacetamide
     RDKit          3D

 35 38  0  0  0  0  0  0  0  0999 V2000
   10.2110   -3.8000   19.5760 C   0  0  0  0  0  0  0  0  0  0  0  0
    8.8770   -2.9620   20.0240 C   0  0  0  0  0  0  0  0  0  0  0  0
    7.9400   -3.7130   19.1690 O   0  0  0  0  0  0  0  0  0  0  0  0
    9.9620   -2.2270   20.9170 C   0  0  0  0  0  0  0  0  0  0  0  0
    8.7320   -2.2020   21.9010 C   0  0  0  0  0  0  0  0  0  0  0  0
    8.7140   -1.5110   23.3370 C   0  0  0  0  0  0  0  0  0  0  0  0
    9.9740   -0.9170   23.7430 C   0  0  0  0  0  0  0  0  0  0  0  0
    9.9290   -0.3360   25.0130 N   0  0  0  0  0  0  0  0  0  0  0  0
    8.6720   -0.8250   25.6530 C   0  0  0  0  0  0  0  0  0  0  0  0
    7.9890    0.1990   26.5670 C   0  0  0  0  0  0  0  0  0  0  0  0
    6.6840    0.8360   26.1570 C   0  0  0  0  0  0  0  0  0  0  0  0
    6.0760    1.7950   27.0650 C   0  0  0  0  0  0  0  0  0  0  0  0
    6.7810    2.0750   28.2680 C   0  0  0  0  0  0  0  0  0  0  0  0
    8.0130    1.4970   28.6120 C   0  0  0  0  0  0  0  0  0  0  0  0
    8.7790    1.6410   29.7260 C   0  0  0  0  0  0  0  0  0  0  0  0
    9.5400    0.6010   30.0700 C   0  0  0  0  0  0  0  0  0  0  0  0
   10.3570    0.6830   31.1540 C   0  0  0  0  0  0  0  0  0  0  0  0
   11.0840   -0.4560   31.4100 C   0  0  0  0  0  0  0  0  0  0  0  0
   10.1660   -1.4060   30.7050 N   0  0  0  0  0  0  0  0  0  0  0  0
   10.4850   -2.8490   30.5460 C   0  0  0  0  0  0  0  0  0  0  0  0
   10.1100    2.0010   31.6470 C   0  0  0  0  0  0  0  0  0  0  0  0
    9.0840    2.6120   30.7420 N   0  0  0  0  0  0  0  0  0  0  0  0
    8.5040    4.1470   30.9450 S   0  0  0  0  0  0  0  0  0  0  0  0
    7.3320    3.9920   31.8320 O   0  0  0  0  0  0  0  0  0  0  0  0
    8.3290    4.7350   29.6660 O   0  0  0  0  0  0  0  0  0  0  0  0
    9.8940    4.8330   31.8370 C   0  0  0  0  0  0  0  0  0  0  0  0
    9.7510    6.1670   32.3880 C   0  0  0  0  0  0  0  0  0  0  0  0
   10.8610    6.8020   33.1820 C   0  0  0  0  0  0  0  0  0  0  0  0
   12.1000    5.9140   33.2720 C   0  0  0  0  0  0  0  0  0  0  0  0
   12.1630    4.6680   32.7050 N   0  0  0  0  0  0  0  0  0  0  0  0
   11.0840    4.1570   32.0010 C   0  0  0  0  0  0  0  0  0  0  0  0
    8.5780    0.5530   27.7310 C   0  0  0  0  0  0  0  0  0  0  0  0
    9.7940   -0.0040   28.0560 F   0  0  0  0  0  0  0  0  0  0  0  0
   11.0860   -0.9710   23.0070 N   0  0  0  0  0  0  0  0  0  0  0  0
   10.9680   -1.5460   21.7440 C   0  0  0  0  0  0  0  0  0  0  0  0
  1  2  1  0
  2  3  2  0
  2  4  1  0
  4  5  2  0
  5  6  1  0
  6  7  2  0
  7  8  1  0
  8  9  1  0
  9 10  1  0
 10 11  2  0
 11 12  1  0
 12 13  2  0
 13 14  1  0
 14 15  1  0
 15 16  2  0
 16 17  1  0
 17 18  1  0
 18 19  1  0
 19 20  1  0
 17 21  2  0
 15 22  1  0
 21 22  1  0
 22 23  1  0
 23 24  2  0
 23 25  2  0
 23 26  1  0
 26 27  2  0
 27 28  1  0
 28 29  2  0
 29 30  1  0
 26 31  1  0
 30 31  2  0
 10 32  1  0
 14 32  2  0
 32 33  1  0
  7 34  1  0
  4 35  1  0
 34 35  2  0
M  END
