MAK-UNK-5d2caa6f-19-vinylsulfonamide
     RDKit          3D

 26 29  0  0  0  0  0  0  0  0999 V2000
    7.8780   -4.2400   20.6510 C   0  0  0  0  0  0  0  0  0  0  0  0
    7.5280   -2.8400   21.0130 C   0  0  0  0  0  0  0  0  0  0  0  0
    5.9000   -2.4230   20.4670 S   0  0  0  0  0  0  0  0  0  0  0  0
    4.9390   -3.2210   21.2340 O   0  0  0  0  0  0  0  0  0  0  0  0
    5.8790   -2.3780   19.0250 O   0  0  0  0  0  0  0  0  0  0  0  0
    5.9690   -0.8450   21.0760 N   0  0  0  0  0  0  0  0  0  0  0  0
    5.2550   -0.7110   22.3520 C   0  0  0  0  0  0  0  0  0  0  0  0
    6.2510   -0.6810   23.3020 C   0  0  1  0  0  0  0  0  0  0  0  0
    7.4050   -1.1610   22.7130 C   0  0  0  0  0  0  0  0  0  0  0  0
    7.3350   -0.3380   21.4520 C   0  0  2  0  0  0  0  0  0  0  0  0
    7.1490    1.0630   22.0200 C   0  0  0  0  0  0  0  0  0  0  0  0
    6.7180    0.8000   23.4720 C   0  0  2  0  0  0  0  0  0  0  0  0
    7.7950    0.9110   24.5610 C   0  0  0  0  0  0  0  0  0  0  0  0
    8.5170    1.9080   24.5410 O   0  0  0  0  0  0  0  0  0  0  0  0
    7.8960   -0.0560   25.4630 N   0  0  0  0  0  0  0  0  0  0  0  0
    8.2470   -1.3260   24.7620 C   0  0  0  0  0  0  0  0  0  0  0  0
    7.4560   -2.6360   24.8650 C   0  0  0  0  0  0  0  0  0  0  0  0
    7.9290   -3.7740   24.1200 C   0  0  0  0  0  0  0  0  0  0  0  0
    9.1770   -3.5520   23.2910 C   0  0  0  0  0  0  0  0  0  0  0  0
    9.8490   -2.3450   23.2290 C   0  0  0  0  0  0  0  0  0  0  0  0
   11.0740   -2.1720   22.3640 C   0  0  0  0  0  0  0  0  0  0  0  0
   12.4150   -1.7390   21.7830 C   0  0  0  0  0  0  0  0  0  0  0  0
   13.4340   -0.7560   22.3220 C   0  0  0  0  0  0  0  0  0  0  0  0
   12.5160   -0.6290   23.3830 N   0  0  0  0  0  0  0  0  0  0  0  0
   11.3700   -1.3230   23.3930 N   0  0  0  0  0  0  0  0  0  0  0  0
    9.4120   -1.2190   23.9560 C   0  0  0  0  0  0  0  0  0  0  0  0
  1  2  1  0
  3  2  1  0
  3  4  2  0
  3  5  2  0
  3  6  1  0
  6  7  1  0
  8  7  1  6
  8  9  1  0
  6 10  1  0
  9 10  1  0
 10 11  1  1
  8 12  1  0
 11 12  1  0
 12 13  1  1
 13 14  2  0
 13 15  1  0
 15 16  1  0
 16 17  2  0
 17 18  1  0
 18 19  2  0
 19 20  1  0
 20 21  1  0
 21 22  1  0
 22 23  2  0
 23 24  1  0
 21 25  2  0
 24 25  1  0
 16 26  1  0
 20 26  2  0
M  END
