MAK-UNK-ec98eaf6-26-acrylamide
     RDKit          3D

 28 32  0  0  0  0  0  0  0  0999 V2000
    7.2520   -2.7310   18.3700 C   0  0  0  0  0  0  0  0  0  0  0  0
    6.4460   -2.0580   19.4270 C   0  0  0  0  0  0  0  0  0  0  0  0
    5.7860   -3.0370   20.3480 C   0  0  0  0  0  0  0  0  0  0  0  0
    5.1810   -4.0580   19.9490 O   0  0  0  0  0  0  0  0  0  0  0  0
    5.9070   -2.7010   21.6750 N   0  0  0  0  0  0  0  0  0  0  0  0
    6.5630   -1.4860   22.2290 C   0  0  1  0  0  0  0  0  0  0  0  0
    6.4440   -1.7800   23.7510 C   0  0  0  0  0  0  0  0  0  0  0  0
    6.9420   -3.1980   23.7860 C   0  0  2  0  0  0  0  0  0  0  0  0
    7.1620   -3.8180   25.1540 C   0  0  0  0  0  0  0  0  0  0  0  0
    6.2240   -3.1690   26.1800 C   0  0  0  0  0  0  0  0  0  0  0  0
    6.3480   -3.7060   27.6480 C   0  0  0  0  0  0  0  0  0  0  0  0
    7.4070   -4.8460   27.9450 C   0  0  0  0  0  0  0  0  0  0  0  0
    8.2470   -5.3620   26.7900 C   0  0  0  0  0  0  0  0  0  0  0  0
    8.0840   -4.8180   25.4310 C   0  0  0  0  0  0  0  0  0  0  0  0
    8.2620   -2.7680   23.1250 C   0  0  0  0  0  0  0  0  0  0  0  0
    9.6240   -3.2720   23.3460 C   0  0  0  0  0  0  0  0  0  0  0  0
   10.8000   -2.6930   22.6080 C   0  0  0  0  0  0  0  0  0  0  0  0
   10.5440   -1.5810   21.6580 C   0  0  0  0  0  0  0  0  0  0  0  0
    9.1260   -1.0600   21.4330 C   0  0  0  0  0  0  0  0  0  0  0  0
    8.0310   -1.7270   22.2120 C   0  0  0  0  0  0  0  0  0  0  0  0
    5.7560   -3.6400   22.8170 C   0  0  2  0  0  0  0  0  0  0  0  0
    5.6610   -5.0930   22.4840 C   0  0  0  0  0  0  0  0  0  0  0  0
    4.5650   -5.7710   23.2580 C   0  0  0  0  0  0  0  0  0  0  0  0
    3.3950   -5.0860   23.6200 C   0  0  0  0  0  0  0  0  0  0  0  0
    2.4230   -5.7590   24.3380 C   0  0  0  0  0  0  0  0  0  0  0  0
    2.6400   -7.0880   24.6770 C   0  0  0  0  0  0  0  0  0  0  0  0
    3.7510   -7.7770   24.3460 N   0  0  0  0  0  0  0  0  0  0  0  0
    4.6780   -7.0880   23.6430 C   0  0  0  0  0  0  0  0  0  0  0  0
  1  2  1  0
  2  3  1  0
  3  4  2  0
  3  5  1  0
  6  5  1  6
  6  7  1  0
  7  8  1  0
  8  9  1  1
  9 10  2  0
 10 11  1  0
 11 12  2  0
 12 13  1  0
  9 14  1  0
 13 14  2  0
  8 15  1  0
 15 16  1  0
 16 17  2  0
 17 18  1  0
 18 19  2  0
  6 20  1  0
 15 20  2  0
 19 20  1  0
  5 21  1  0
  8 21  1  0
 21 22  1  6
 22 23  1  0
 23 24  2  0
 24 25  1  0
 25 26  2  0
 26 27  1  0
 23 28  1  0
 27 28  2  0
M  END
