MAK-UNK-148caf23-4-chloroacetamide
     RDKit          3D

 35 38  0  0  0  0  0  0  0  0999 V2000
    7.9550   -3.0440   18.8040 C   0  0  0  0  0  0  0  0  0  0  0  0
    7.4240   -3.2000   20.1250 C   0  0  0  0  0  0  0  0  0  0  0  0
    6.3710   -3.9940   19.9330 O   0  0  0  0  0  0  0  0  0  0  0  0
    8.0890   -2.5390   21.4330 C   0  0  0  0  0  0  0  0  0  0  0  0
    8.7510   -1.0920   21.4610 C   0  0  0  0  0  0  0  0  0  0  0  0
    9.3130   -0.4450   22.5500 N   0  0  0  0  0  0  0  0  0  0  0  0
    9.2830   -1.1840   23.8050 C   0  0  0  0  0  0  0  0  0  0  0  0
    9.7840   -0.6290   25.1080 N   0  0  0  0  0  0  0  0  0  0  0  0
    8.9080   -0.8510   26.2780 C   0  0  0  0  0  0  0  0  0  0  0  0
    9.1020    0.1720   27.3800 C   0  0  0  0  0  0  0  0  0  0  0  0
    8.7250   -2.5100   23.8340 C   0  0  0  0  0  0  0  0  0  0  0  0
    8.7420   -3.1630   25.0490 N   0  0  0  0  0  0  0  0  0  0  0  0
    8.4100   -4.5170   25.2830 C   0  0  0  0  0  0  0  0  0  0  0  0
    7.1030   -4.6630   25.9350 C   0  0  0  0  0  0  0  0  0  0  0  0
    6.9270   -5.4960   26.8980 C   0  0  0  0  0  0  0  0  0  0  0  0
    5.5870   -5.4140   27.3050 C   0  0  0  0  0  0  0  0  0  0  0  0
    5.0900   -6.1640   28.3000 C   0  0  0  0  0  0  0  0  0  0  0  0
    5.8390   -6.3860   29.5420 C   0  0  0  0  0  0  0  0  0  0  0  0
    5.3640   -7.1540   30.5930 C   0  0  0  0  0  0  0  0  0  0  0  0
    4.1230   -7.7490   30.4830 C   0  0  0  0  0  0  0  0  0  0  0  0
    3.3460   -7.5910   29.3340 C   0  0  0  0  0  0  0  0  0  0  0  0
    3.8260   -6.7930   28.2270 C   0  0  0  0  0  0  0  0  0  0  0  0
    3.0560   -6.6600   27.1330 F   0  0  0  0  0  0  0  0  0  0  0  0
    4.9570   -4.4900   26.5420 N   0  0  0  0  0  0  0  0  0  0  0  0
    3.3730   -3.9520   26.5500 S   0  0  0  0  0  0  0  0  0  0  0  0
    3.0590   -3.6590   27.9310 O   0  0  0  0  0  0  0  0  0  0  0  0
    2.5560   -4.8680   25.7670 O   0  0  0  0  0  0  0  0  0  0  0  0
    3.3940   -2.4320   25.6670 C   0  0  0  0  0  0  0  0  0  0  0  0
    4.0740   -2.3230   24.4440 C   0  0  0  0  0  0  0  0  0  0  0  0
    4.0410   -0.9710   23.7380 C   0  0  0  0  0  0  0  0  0  0  0  0
    3.2590    0.1260   24.4570 C   0  0  0  0  0  0  0  0  0  0  0  0
    2.6380   -0.0890   25.6390 N   0  0  0  0  0  0  0  0  0  0  0  0
    2.7170   -1.3300   26.2030 C   0  0  0  0  0  0  0  0  0  0  0  0
    5.9100   -3.9830   25.6450 C   0  0  0  0  0  0  0  0  0  0  0  0
    8.1580   -3.1490   22.6860 C   0  0  0  0  0  0  0  0  0  0  0  0
  1  2  1  0
  2  3  2  0
  2  4  1  0
  4  5  2  0
  5  6  1  0
  6  7  2  0
  7  8  1  0
  8  9  1  0
  9 10  1  0
  7 11  1  0
 11 12  1  0
 12 13  1  0
 13 14  1  0
 14 15  1  0
 15 16  2  0
 16 17  1  0
 17 18  2  0
 18 19  1  0
 19 20  2  0
 20 21  1  0
 17 22  1  0
 21 22  2  0
 22 23  1  0
 16 24  1  0
 24 25  1  0
 25 26  2  0
 25 27  2  0
 25 28  1  0
 28 29  2  0
 29 30  1  0
 30 31  2  0
 31 32  1  0
 28 33  1  0
 32 33  2  0
 14 34  2  0
 24 34  1  0
  4 35  1  0
 11 35  2  0
M  END
