MAK-UNK-ec98eaf6-38-chloroacetamide
     RDKit          3D

 19 21  0  0  0  0  0  0  0  0999 V2000
    7.1270   -2.9920   18.8610 C   0  0  0  0  0  0  0  0  0  0  0  0
    6.2030   -3.4030   19.9750 C   0  0  0  0  0  0  0  0  0  0  0  0
    5.3180   -4.2370   19.7740 O   0  0  0  0  0  0  0  0  0  0  0  0
    6.3940   -2.8370   21.2050 N   0  0  0  0  0  0  0  0  0  0  0  0
    6.0610   -3.5330   22.4470 C   0  0  0  0  0  0  0  0  0  0  0  0
    6.9180   -2.8010   23.4750 C   0  0  2  0  0  0  0  0  0  0  0  0
    6.4760   -1.4160   23.0260 C   0  0  0  0  0  0  0  0  0  0  0  0
    6.9730   -1.5400   21.5730 C   0  0  1  0  0  0  0  0  0  0  0  0
    8.4480   -1.6810   21.9560 C   0  0  0  0  0  0  0  0  0  0  0  0
    8.4100   -2.7380   23.1020 C   0  0  1  0  0  0  0  0  0  0  0  0
    9.3430   -2.4110   24.2680 C   0  0  0  0  0  0  0  0  0  0  0  0
   10.3510   -1.4380   23.7610 C   0  0  0  0  0  0  0  0  0  0  0  0
   10.3130   -0.0730   24.0680 C   0  0  0  0  0  0  0  0  0  0  0  0
   11.2770    0.7780   23.5210 C   0  0  0  0  0  0  0  0  0  0  0  0
   11.2660    2.1290   23.7490 C   0  0  0  0  0  0  0  0  0  0  0  0
   12.2690    0.2840   22.7020 C   0  0  0  0  0  0  0  0  0  0  0  0
   12.2780   -1.0570   22.4090 C   0  0  0  0  0  0  0  0  0  0  0  0
   13.4220   -1.7020   21.3720 Cl  0  0  0  0  0  0  0  0  0  0  0  0
   11.3440   -1.8930   22.9320 C   0  0  0  0  0  0  0  0  0  0  0  0
  1  2  1  0
  2  3  2  0
  2  4  1  0
  4  5  1  0
  6  5  1  6
  6  7  1  0
  4  8  1  0
  7  8  1  0
  8  9  1  1
  6 10  1  0
  9 10  1  0
 10 11  1  1
 11 12  1  0
 12 13  2  0
 13 14  1  0
 14 15  1  0
 14 16  2  0
 16 17  1  0
 17 18  1  0
 12 19  1  0
 17 19  2  0
M  END
