MAK-UNK-ec98eaf6-49-chloroacetamide
     RDKit          3D

 26 29  0  0  0  0  0  0  0  0999 V2000
    8.4740   -3.5700   19.7100 C   0  0  0  0  0  0  0  0  0  0  0  0
    6.9610   -3.7710   20.0230 C   0  0  0  0  0  0  0  0  0  0  0  0
    6.2520   -4.7850   20.0010 O   0  0  0  0  0  0  0  0  0  0  0  0
    6.3590   -2.5760   20.3500 N   0  0  0  0  0  0  0  0  0  0  0  0
    7.1560   -1.3620   20.2570 C   0  0  0  0  0  0  0  0  0  0  0  0
    7.8540   -1.5410   21.5980 C   0  0  2  0  0  0  0  0  0  0  0  0
    7.0400   -2.7710   21.9170 C   0  0  0  0  0  0  0  0  0  0  0  0
    5.6070   -2.2380   21.5590 C   0  0  1  0  0  0  0  0  0  0  0  0
    6.0670   -1.7220   22.9420 C   0  0  0  0  0  0  0  0  0  0  0  0
    7.2380   -0.8070   22.6970 N   0  0  0  0  0  0  0  0  0  0  0  0
    8.1040   -0.6330   23.8760 C   0  0  1  0  0  0  0  0  0  0  0  0
    8.0410   -1.9150   24.7180 C   0  0  0  0  0  0  0  0  0  0  0  0
    8.9240   -3.0110   24.1490 C   0  0  0  0  0  0  0  0  0  0  0  0
    8.4340   -4.2530   23.7040 C   0  0  0  0  0  0  0  0  0  0  0  0
    7.0750   -4.5580   23.5630 C   0  0  0  0  0  0  0  0  0  0  0  0
    6.6810   -5.8130   23.0900 C   0  0  0  0  0  0  0  0  0  0  0  0
    7.6420   -6.7650   22.7630 C   0  0  0  0  0  0  0  0  0  0  0  0
    8.9900   -6.4690   22.9160 C   0  0  0  0  0  0  0  0  0  0  0  0
    9.3680   -5.2220   23.3820 C   0  0  0  0  0  0  0  0  0  0  0  0
    9.5620   -0.2010   23.6050 C   0  0  0  0  0  0  0  0  0  0  0  0
   10.0020    1.1030   23.9360 C   0  0  0  0  0  0  0  0  0  0  0  0
   11.3240    1.5470   23.7050 C   0  0  0  0  0  0  0  0  0  0  0  0
   12.2380    0.6580   23.1260 C   0  0  0  0  0  0  0  0  0  0  0  0
   11.8880   -0.6590   22.7670 C   0  0  0  0  0  0  0  0  0  0  0  0
   13.0330   -1.7180   22.0590 Cl  0  0  0  0  0  0  0  0  0  0  0  0
   10.4960   -1.0960   23.0190 C   0  0  0  0  0  0  0  0  0  0  0  0
  1  2  1  0
  2  3  2  0
  2  4  1  0
  4  5  1  0
  6  5  1  6
  6  7  1  0
  4  8  1  0
  7  8  1  0
  8  9  1  6
  6 10  1  0
  9 10  1  0
 10 11  1  0
 11 12  1  6
 12 13  1  0
 13 14  1  0
 14 15  2  0
 15 16  1  0
 16 17  2  0
 17 18  1  0
 14 19  1  0
 18 19  2  0
 11 20  1  0
 20 21  2  0
 21 22  1  0
 22 23  2  0
 23 24  1  0
 24 25  1  0
 20 26  1  0
 24 26  2  0
M  END
