MAK-UNK-ec98eaf6-25-acrylamide
     RDKit          3D

 30 33  0  0  0  0  0  0  0  0999 V2000
    7.2480   -2.7990   18.3890 C   0  0  0  0  0  0  0  0  0  0  0  0
    5.9690   -2.4810   19.1540 C   0  0  0  0  0  0  0  0  0  0  0  0
    5.6330   -3.3960   20.2820 C   0  0  0  0  0  0  0  0  0  0  0  0
    5.2340   -4.5440   20.0800 O   0  0  0  0  0  0  0  0  0  0  0  0
    5.8340   -2.8190   21.5010 N   0  0  0  0  0  0  0  0  0  0  0  0
    6.2230   -1.3830   21.5490 C   0  0  0  0  0  0  0  0  0  0  0  0
    6.6510   -1.1790   23.0340 C   0  0  1  0  0  0  0  0  0  0  0  0
    5.2740   -1.7570   23.3190 C   0  0  0  0  0  0  0  0  0  0  0  0
    5.3650   -3.1590   22.8570 C   0  0  2  0  0  0  0  0  0  0  0  0
    6.5410   -3.4480   23.7550 C   0  0  0  0  0  0  0  0  0  0  0  0
    6.6700   -2.0340   24.2600 N   0  0  0  0  0  0  0  0  0  0  0  0
    7.8590   -1.8450   25.0720 C   0  0  0  0  0  0  0  0  0  0  0  0
    8.9000   -0.8620   24.4640 C   0  0  0  0  0  0  0  0  0  0  0  0
    8.5500    0.6150   24.5260 C   0  0  0  0  0  0  0  0  0  0  0  0
    9.4400    1.6970   23.9820 C   0  0  0  0  0  0  0  0  0  0  0  0
    9.0660    3.1590   24.0490 C   0  0  0  0  0  0  0  0  0  0  0  0
    8.7640    4.2780   24.0870 N   0  0  0  0  0  0  0  0  0  0  0  0
   10.6420    1.3020   23.3960 C   0  0  0  0  0  0  0  0  0  0  0  0
   11.0550   -0.1750   23.3030 C   0  0  0  0  0  0  0  0  0  0  0  0
   10.1160   -1.2360   23.8760 C   0  0  0  0  0  0  0  0  0  0  0  0
   10.5720   -2.6820   23.7730 C   0  0  0  0  0  0  0  0  0  0  0  0
   11.4840   -3.1310   24.8150 N   0  0  0  0  0  0  0  0  0  0  0  0
   12.8170   -2.8110   24.8460 C   0  0  0  0  0  0  0  0  0  0  0  0
   13.7520   -3.3630   25.7870 O   0  0  0  0  0  0  0  0  0  0  0  0
   13.1540   -1.9410   23.8580 N   0  0  0  0  0  0  0  0  0  0  0  0
   12.7480   -0.5310   23.9360 C   0  0  0  0  0  0  0  0  0  0  0  0
   13.1560    0.2170   22.6920 C   0  0  0  0  0  0  0  0  0  0  0  0
   13.6350   -0.6230   21.6540 O   0  0  0  0  0  0  0  0  0  0  0  0
   12.8660   -1.8010   21.4870 C   0  0  0  0  0  0  0  0  0  0  0  0
   12.9490   -2.6100   22.5820 C   0  0  0  0  0  0  0  0  0  0  0  0
  1  2  1  0
  2  3  1  0
  3  4  2  0
  3  5  1  0
  5  6  1  0
  7  6  1  6
  7  8  1  0
  5  9  1  0
  8  9  1  0
  9 10  1  1
  7 11  1  0
 10 11  1  0
 11 12  1  0
 12 13  1  0
 13 14  2  0
 14 15  1  0
 15 16  1  0
 16 17  3  0
 15 18  2  0
 18 19  1  0
 13 20  1  0
 19 20  2  0
 20 21  1  0
 21 22  1  0
 22 23  1  0
 23 24  2  0
 23 25  1  0
 25 26  1  0
 26 27  1  0
 27 28  1  0
 28 29  1  0
 25 30  1  0
 29 30  1  0
M  END
