MAK-UNK-0d6072ac-26
     RDKit          3D

 19 21  0  0  0  0  0  0  0  0999 V2000
    6.7350   -6.0290   22.9970 N   0  0  0  0  0  0  0  0  0  0  0  0
    6.4330   -4.8530   23.6100 C   0  0  2  0  0  0  0  0  0  0  0  0
    5.1310   -4.2350   23.1390 C   0  0  0  0  0  0  0  0  0  0  0  0
    4.1860   -3.9620   23.8700 O   0  0  0  0  0  0  0  0  0  0  0  0
    5.0270   -3.9860   21.8080 O   0  0  0  0  0  0  0  0  0  0  0  0
    7.6380   -3.9300   23.4310 C   0  0  0  0  0  0  0  0  0  0  0  0
    8.9810   -4.0460   24.1880 C   0  0  0  0  0  0  0  0  0  0  0  0
   10.1660   -3.1150   23.9750 C   0  0  0  0  0  0  0  0  0  0  0  0
   10.1750   -2.0510   23.0740 C   0  0  0  0  0  0  0  0  0  0  0  0
    8.8390   -1.8960   22.2990 C   0  0  0  0  0  0  0  0  0  0  0  0
    7.7050   -2.7290   22.4540 C   0  0  0  0  0  0  0  0  0  0  0  0
    9.1430   -0.8670   21.5760 N   0  0  0  0  0  0  0  0  0  0  0  0
   10.1540   -1.2630   22.3940 C   0  0  0  0  0  0  0  0  0  0  0  0
    9.8010   -2.4790   23.2620 C   0  0  0  0  0  0  0  0  0  0  0  0
   10.9290   -2.9900   24.2380 C   0  0  0  0  0  0  0  0  0  0  0  0
   12.1670   -2.3090   24.2480 C   0  0  0  0  0  0  0  0  0  0  0  0
   13.4280   -2.8170   25.2870 Cl  0  0  0  0  0  0  0  0  0  0  0  0
   12.3490   -1.2340   23.4150 C   0  0  0  0  0  0  0  0  0  0  0  0
   11.2560   -0.9490   22.6510 C   0  0  0  0  0  0  0  0  0  0  0  0
  2  1  1  6
  2  3  1  0
  3  4  2  0
  3  5  1  0
  2  6  1  0
  6  7  2  0
  7  8  1  0
  8  9  2  0
  9 10  1  0
  6 11  1  0
 10 11  2  0
 10 12  1  0
 12 13  1  0
 13 14  1  0
 14 15  2  0
 15 16  1  0
 16 17  1  0
 16 18  2  0
  9 19  1  0
 13 19  2  0
 18 19  1  0
M  END
