MAK-UNK-72659d64-2-vinylsulfonamide
     RDKit          3D

 15 15  0  0  0  0  0  0  0  0999 V2000
    6.9400   -3.0670   18.9700 C   0  0  0  0  0  0  0  0  0  0  0  0
    5.7570   -3.5600   19.8020 C   0  0  0  0  0  0  0  0  0  0  0  0
    5.7620   -2.9340   21.4630 S   0  0  0  0  0  0  0  0  0  0  0  0
    4.5350   -3.3950   22.0600 O   0  0  0  0  0  0  0  0  0  0  0  0
    6.0790   -1.5230   21.3840 O   0  0  0  0  0  0  0  0  0  0  0  0
    7.0740   -3.7390   22.2130 N   0  0  0  0  0  0  0  0  0  0  0  0
    6.9110   -4.2250   23.4390 C   0  0  0  0  0  0  0  0  0  0  0  0
    6.1090   -5.5630   23.4450 C   0  0  0  0  0  0  0  0  0  0  0  0
    6.5020   -6.3530   22.2750 C   0  0  0  0  0  0  0  0  0  0  0  0
    7.1320   -5.0370   22.5900 N   0  0  0  0  0  0  0  0  0  0  0  0
    6.5910   -4.3510   23.9090 C   0  0  0  0  0  0  0  0  0  0  0  0
    7.2340   -2.9830   24.2890 C   0  0  0  0  0  0  0  0  0  0  0  0
    7.7080   -1.9610   24.5790 N   0  0  0  0  0  0  0  0  0  0  0  0
    5.6240   -4.8070   24.7790 N   0  0  0  0  0  0  0  0  0  0  0  0
    5.1780   -5.9750   24.3500 C   0  0  0  0  0  0  0  0  0  0  0  0
  1  2  1  0
  2  3  1  0
  3  4  2  0
  3  5  2  0
  3  6  1  0
  6  7  1  0
  7  8  1  0
  8  9  2  0
  9 10  1  0
 10 11  2  0
 11 12  1  0
 12 13  3  0
 11 14  1  0
  8 15  1  0
 14 15  2  0
M  END
