MAK-UNK-148caf23-12-nitrile
     RDKit          3D

 34 37  0  0  0  0  0  0  0  0999 V2000
    8.2350   -3.1850   19.8160 C   0  0  0  0  0  0  0  0  0  0  0  0
    7.9330   -2.7000   18.5640 N   0  0  0  0  0  0  0  0  0  0  0  0
    8.9630   -2.3620   21.1850 C   0  0  0  0  0  0  0  0  0  0  0  0
    7.9200   -1.6820   22.2510 C   0  0  0  0  0  0  0  0  0  0  0  0
    8.3100   -0.8530   23.6400 C   0  0  0  0  0  0  0  0  0  0  0  0
    9.5230   -1.2540   23.0320 C   0  0  0  0  0  0  0  0  0  0  0  0
    9.8380   -0.4980   24.3510 N   0  0  0  0  0  0  0  0  0  0  0  0
    9.4170   -1.1290   25.6590 C   0  0  0  0  0  0  0  0  0  0  0  0
    7.9950   -0.7920   26.2980 C   0  0  0  0  0  0  0  0  0  0  0  0
    8.0490   -0.0800   27.6650 C   0  0  0  0  0  0  0  0  0  0  0  0
    9.2800    0.3080   28.4610 C   0  0  0  0  0  0  0  0  0  0  0  0
    9.0930    1.4020   29.2200 N   0  0  0  0  0  0  0  0  0  0  0  0
   10.0660    1.6240   30.1320 C   0  0  0  0  0  0  0  0  0  0  0  0
    6.7070    0.1250   28.0370 C   0  0  0  0  0  0  0  0  0  0  0  0
    5.9470   -0.4190   27.0220 C   0  0  0  0  0  0  0  0  0  0  0  0
    4.5550   -0.4240   27.0180 C   0  0  0  0  0  0  0  0  0  0  0  0
    3.8470    0.2340   26.0110 C   0  0  0  0  0  0  0  0  0  0  0  0
    2.4590    0.2390   26.0070 C   0  0  0  0  0  0  0  0  0  0  0  0
    1.7570   -0.4340   27.0370 C   0  0  0  0  0  0  0  0  0  0  0  0
    2.4450   -1.0950   28.0460 C   0  0  0  0  0  0  0  0  0  0  0  0
    3.8390   -1.0890   28.0390 C   0  0  0  0  0  0  0  0  0  0  0  0
    4.4900   -1.7280   29.0240 F   0  0  0  0  0  0  0  0  0  0  0  0
    6.6760   -0.9980   25.9480 N   0  0  0  0  0  0  0  0  0  0  0  0
    6.0400   -1.7830   24.5500 S   0  0  0  0  0  0  0  0  0  0  0  0
    5.4570   -0.7600   23.7060 O   0  0  0  0  0  0  0  0  0  0  0  0
    7.1000   -2.6500   24.0870 O   0  0  0  0  0  0  0  0  0  0  0  0
    4.7500   -2.8320   25.0990 C   0  0  0  0  0  0  0  0  0  0  0  0
    4.5270   -3.0670   26.4870 C   0  0  0  0  0  0  0  0  0  0  0  0
    3.4410   -3.9550   26.9680 C   0  0  0  0  0  0  0  0  0  0  0  0
    2.6420   -4.5540   25.8140 C   0  0  0  0  0  0  0  0  0  0  0  0
    2.8920   -4.3070   24.4990 N   0  0  0  0  0  0  0  0  0  0  0  0
    3.9210   -3.4620   24.1730 C   0  0  0  0  0  0  0  0  0  0  0  0
   10.7470   -1.4720   22.7310 N   0  0  0  0  0  0  0  0  0  0  0  0
   10.4100   -2.1580   21.5860 C   0  0  0  0  0  0  0  0  0  0  0  0
  1  2  2  3
  1  3  1  0
  3  4  2  0
  4  5  1  0
  5  6  2  0
  6  7  1  0
  7  8  1  0
  8  9  1  0
  9 10  2  0
 10 11  1  0
 11 12  1  0
 12 13  1  0
 10 14  1  0
 14 15  2  0
 15 16  1  0
 16 17  2  0
 17 18  1  0
 18 19  2  0
 19 20  1  0
 16 21  1  0
 20 21  2  0
 21 22  1  0
  9 23  1  0
 15 23  1  0
 23 24  1  0
 24 25  2  0
 24 26  2  0
 24 27  1  0
 27 28  2  0
 28 29  1  0
 29 30  2  0
 30 31  1  0
 27 32  1  0
 31 32  2  0
  6 33  1  0
  3 34  1  0
 33 34  2  0
M  END
