MAK-UNK-849bee6c-26-vinylsulfonamide
     RDKit          3D

 33 35  0  0  0  0  0  0  0  0999 V2000
    7.1820   -5.0240   20.9610 C   0  0  0  0  0  0  0  0  0  0  0  0
    5.7140   -4.9360   20.8160 C   0  0  0  0  0  0  0  0  0  0  0  0
    5.1930   -3.2760   21.1030 S   0  0  0  0  0  0  0  0  0  0  0  0
    4.2800   -3.3240   22.2240 O   0  0  0  0  0  0  0  0  0  0  0  0
    4.7850   -2.8370   19.7930 O   0  0  0  0  0  0  0  0  0  0  0  0
    6.4680   -2.2600   21.5280 N   0  0  0  0  0  0  0  0  0  0  0  0
    6.4400   -1.1920   20.7980 C   0  0  0  0  0  0  0  0  0  0  0  0
    7.7790   -0.4660   20.9350 C   0  0  0  0  0  0  0  0  0  0  0  0
    8.3350   -0.5290   22.2950 N   0  0  0  0  0  0  0  0  0  0  0  0
    9.2420   -1.7020   22.3820 C   0  0  0  0  0  0  0  0  0  0  0  0
   10.6990   -1.3740   22.1390 C   0  0  0  0  0  0  0  0  0  0  0  0
   11.0910   -0.1350   22.8400 C   0  0  0  0  0  0  0  0  0  0  0  0
   12.3530    0.2790   22.6770 C   0  0  0  0  0  0  0  0  0  0  0  0
   12.7390    1.4150   23.2670 C   0  0  0  0  0  0  0  0  0  0  0  0
   13.2520   -0.4090   21.9000 C   0  0  0  0  0  0  0  0  0  0  0  0
   12.9860   -1.5870   21.1720 C   0  0  0  0  0  0  0  0  0  0  0  0
   14.0680   -2.0970   20.3130 N   0  0  0  0  0  0  0  0  0  0  0  0
   14.6330   -3.5420   19.8220 C   0  0  0  0  0  0  0  0  0  0  0  0
   13.8710   -4.0500   20.1010 N   0  0  0  0  0  0  0  0  0  0  0  0
   13.8490   -5.1590   20.1040 C   0  0  0  0  0  0  0  0  0  0  0  0
   12.5310   -5.1490   20.3010 C   0  0  0  0  0  0  0  0  0  0  0  0
   11.4140   -4.9040   20.0780 N   0  0  0  0  0  0  0  0  0  0  0  0
   14.6580   -5.9590   19.9240 N   0  0  0  0  0  0  0  0  0  0  0  0
   15.7630   -5.3950   19.4060 C   0  0  0  0  0  0  0  0  0  0  0  0
   15.9850   -4.1180   19.1710 C   0  0  0  0  0  0  0  0  0  0  0  0
   17.4150   -3.3530   18.5360 N   0  0  0  0  0  0  0  0  0  0  0  0
   18.9150   -3.0240   19.3090 C   0  0  0  0  0  0  0  0  0  0  0  0
   19.6000   -3.7980   20.0060 O   0  0  0  0  0  0  0  0  0  0  0  0
   19.8350   -2.0270   19.6170 C   0  0  0  0  0  0  0  0  0  0  0  0
   21.4330   -2.4150   18.9080 Cl  0  0  0  0  0  0  0  0  0  0  0  0
   11.6600   -2.0820   21.3290 C   0  0  0  0  0  0  0  0  0  0  0  0
    7.2140   -0.6690   23.2460 C   0  0  0  0  0  0  0  0  0  0  0  0
    6.4640   -1.9600   22.9580 C   0  0  0  0  0  0  0  0  0  0  0  0
  1  2  1  0
  3  2  1  0
  3  4  2  0
  3  5  2  0
  3  6  1  0
  6  7  1  0
  7  8  1  0
  8  9  1  0
  9 10  1  0
 10 11  1  0
 11 12  2  0
 12 13  1  0
 13 14  1  0
 13 15  2  0
 15 16  1  0
 16 17  1  0
 17 18  1  0
 18 19  2  0
 19 20  1  0
 20 21  1  0
 21 22  3  0
 20 23  2  0
 23 24  1  0
 18 25  1  0
 24 25  2  0
 25 26  1  0
 26 27  1  0
 27 28  2  0
 27 29  1  0
 29 30  1  0
 11 31  1  0
 16 31  2  0
  9 32  1  0
  6 33  1  0
 32 33  1  0
M  END
