MAK-UNK-702fb7d3-12-nitrile
     RDKit          3D

 41 46  0  0  0  0  0  0  0  0999 V2000
    6.8800   -3.5500   19.7750 C   0  0  0  0  0  0  0  0  0  0  0  0
    6.0060   -3.1710   18.9320 N   0  0  0  0  0  0  0  0  0  0  0  0
    7.1070   -2.8040   20.9250 N   0  0  0  0  0  0  0  0  0  0  0  0
    5.9980   -2.2680   21.7610 C   0  0  0  0  0  0  0  0  0  0  0  0
    5.7120   -3.5880   22.5090 C   0  0  0  0  0  0  0  0  0  0  0  0
    4.2390   -3.8000   22.7320 C   0  0  0  0  0  0  0  0  0  0  0  0
    3.8410   -5.1330   23.4530 C   0  0  0  0  0  0  0  0  0  0  0  0
    4.9530   -6.1560   23.9000 C   0  0  0  0  0  0  0  0  0  0  0  0
    6.4300   -5.7720   23.6020 C   0  0  0  0  0  0  0  0  0  0  0  0
    6.6520   -4.4380   22.9000 C   0  0  0  0  0  0  0  0  0  0  0  0
    8.0770   -4.1960   22.7040 C   0  0  2  0  0  0  0  0  0  0  0  0
    8.6450   -3.9570   24.0140 C   0  0  0  0  0  0  0  0  0  0  0  0
    7.9020   -4.6030   24.9280 C   0  0  0  0  0  0  0  0  0  0  0  0
    8.1770   -4.5760   26.3070 C   0  0  0  0  0  0  0  0  0  0  0  0
    9.2040   -3.8920   26.7230 C   0  0  0  0  0  0  0  0  0  0  0  0
   10.0250   -3.1820   25.7270 C   0  0  0  0  0  0  0  0  0  0  0  0
    9.7900   -3.1820   24.3690 C   0  0  0  0  0  0  0  0  0  0  0  0
   10.5680   -2.5100   23.4480 N   0  0  0  0  0  0  0  0  0  0  0  0
   11.5450   -1.6940   23.9800 C   0  0  0  0  0  0  0  0  0  0  0  0
   12.7300   -2.4280   24.1240 C   0  0  0  0  0  0  0  0  0  0  0  0
   12.9930   -3.1980   25.2300 C   0  0  0  0  0  0  0  0  0  0  0  0
   14.1910   -3.8280   25.0590 C   0  0  0  0  0  0  0  0  0  0  0  0
   14.7260   -4.6590   25.8270 C   0  0  0  0  0  0  0  0  0  0  0  0
   14.1280   -4.2930   26.9440 C   0  0  0  0  0  0  0  0  0  0  0  0
   14.5620   -5.0170   28.1050 C   0  0  0  0  0  0  0  0  0  0  0  0
   15.5450   -6.1520   27.8710 C   0  0  0  0  0  0  0  0  0  0  0  0
   16.0840   -6.4710   26.6730 C   0  0  0  0  0  0  0  0  0  0  0  0
   15.6830   -5.6930   25.6240 C   0  0  0  0  0  0  0  0  0  0  0  0
   16.2360   -5.9770   24.4410 F   0  0  0  0  0  0  0  0  0  0  0  0
   14.7510   -3.5780   24.0370 N   0  0  0  0  0  0  0  0  0  0  0  0
   16.3140   -4.5290   23.9130 S   0  0  0  0  0  0  0  0  0  0  0  0
   16.2380   -5.2620   22.6850 O   0  0  0  0  0  0  0  0  0  0  0  0
   17.5530   -3.9850   24.4510 O   0  0  0  0  0  0  0  0  0  0  0  0
   16.3590   -5.8560   24.9930 C   0  0  0  0  0  0  0  0  0  0  0  0
   17.2940   -6.7650   24.7000 C   0  0  0  0  0  0  0  0  0  0  0  0
   17.4230   -7.8950   25.4170 C   0  0  0  0  0  0  0  0  0  0  0  0
   16.6260   -8.0240   26.4440 C   0  0  0  0  0  0  0  0  0  0  0  0
   15.7160   -7.1550   26.7920 N   0  0  0  0  0  0  0  0  0  0  0  0
   15.5640   -6.0540   26.0550 C   0  0  0  0  0  0  0  0  0  0  0  0
   13.8720   -2.6470   23.3430 C   0  0  0  0  0  0  0  0  0  0  0  0
    8.3190   -3.0020   21.7450 C   0  0  0  0  0  0  0  0  0  0  0  0
  1  2  2  3
  1  3  1  0
  3  4  1  0
  4  5  1  0
  5  6  1  0
  6  7  2  0
  7  8  1  0
  8  9  2  0
  5 10  2  0
  9 10  1  0
 10 11  1  0
 11 12  1  1
 12 13  2  0
 13 14  1  0
 14 15  2  0
 15 16  1  0
 12 17  1  0
 16 17  2  0
 17 18  1  0
 18 19  1  0
 19 20  1  0
 20 21  1  0
 21 22  2  0
 22 23  1  0
 23 24  2  0
 24 25  1  0
 25 26  2  0
 26 27  1  0
 23 28  1  0
 27 28  2  0
 28 29  1  0
 22 30  1  0
 30 31  1  0
 31 32  2  0
 31 33  2  0
 31 34  1  0
 34 35  2  0
 35 36  1  0
 36 37  2  0
 37 38  1  0
 34 39  1  0
 38 39  2  0
 20 40  2  0
 30 40  1  0
  3 41  1  0
 11 41  1  0
M  END
