MAK-UNK-10799360-21-nitrile
     RDKit          3D

 22 25  0  0  0  0  0  0  0  0999 V2000
    6.9100   -3.6620   20.0410 C   0  0  0  0  0  0  0  0  0  0  0  0
    5.8150   -4.2940   19.8310 N   0  0  0  0  0  0  0  0  0  0  0  0
    7.0630   -2.9500   21.1970 N   0  0  0  0  0  0  0  0  0  0  0  0
    6.5620   -3.3040   22.5120 C   0  0  0  0  0  0  0  0  0  0  0  0
    7.8360   -2.8400   23.2660 C   0  0  1  0  0  0  0  0  0  0  0  0
    8.6150   -2.2630   22.0580 C   0  0  0  0  0  0  0  0  0  0  0  0
    7.4390   -1.5260   21.3420 C   0  0  2  0  0  0  0  0  0  0  0  0
    8.2700   -0.7930   22.4220 C   0  0  0  0  0  0  0  0  0  0  0  0
    7.9370   -1.4670   23.7450 N   0  0  0  0  0  0  0  0  0  0  0  0
    9.0960   -1.3220   24.6680 C   0  0  0  0  0  0  0  0  0  0  0  0
   10.2300   -0.4640   24.1100 C   0  0  0  0  0  0  0  0  0  0  0  0
   10.1620    1.0330   24.2140 C   0  0  0  0  0  0  0  0  0  0  0  0
   11.2080    1.7980   23.6790 C   0  0  0  0  0  0  0  0  0  0  0  0
   12.2590    1.1500   23.0700 C   0  0  0  0  0  0  0  0  0  0  0  0
   12.3540   -0.2060   22.9560 C   0  0  0  0  0  0  0  0  0  0  0  0
   11.3490   -0.9890   23.4870 C   0  0  0  0  0  0  0  0  0  0  0  0
   11.4160   -2.3090   23.4280 C   0  0  0  0  0  0  0  0  0  0  0  0
   12.6830   -2.7650   23.1850 C   0  0  0  0  0  0  0  0  0  0  0  0
   13.2190   -3.0000   24.5090 O   0  0  0  0  0  0  0  0  0  0  0  0
   13.2040   -2.8940   21.9700 N   0  0  0  0  0  0  0  0  0  0  0  0
   13.2260   -1.6660   21.2910 C   0  0  0  0  0  0  0  0  0  0  0  0
   13.4400   -0.7630   22.3290 C   0  0  0  0  0  0  0  0  0  0  0  0
  1  2  2  3
  1  3  1  0
  3  4  1  0
  5  4  1  6
  5  6  1  0
  3  7  1  0
  6  7  1  0
  7  8  1  1
  5  9  1  0
  8  9  1  0
  9 10  1  0
 10 11  1  0
 11 12  2  0
 12 13  1  0
 13 14  2  0
 14 15  1  0
 11 16  1  0
 15 16  2  0
 16 17  1  0
 17 18  1  0
 18 19  2  0
 18 20  1  0
 20 21  1  0
 15 22  1  0
 21 22  1  0
M  END
