MAK-UNK-5d2caa6f-19-chloroacetamide
     RDKit          3D

 24 27  0  0  0  0  0  0  0  0999 V2000
    7.1560   -3.0400   18.9900 C   0  0  0  0  0  0  0  0  0  0  0  0
    6.1860   -3.4600   20.0570 C   0  0  0  0  0  0  0  0  0  0  0  0
    5.3640   -4.3520   19.8470 O   0  0  0  0  0  0  0  0  0  0  0  0
    6.2970   -2.7830   21.2500 N   0  0  0  0  0  0  0  0  0  0  0  0
    6.8230   -3.3880   22.5050 C   0  0  0  0  0  0  0  0  0  0  0  0
    6.1750   -2.4790   23.2390 C   0  0  2  0  0  0  0  0  0  0  0  0
    4.8890   -2.2160   22.9380 C   0  0  0  0  0  0  0  0  0  0  0  0
    5.5240   -1.5460   21.7220 C   0  0  1  0  0  0  0  0  0  0  0  0
    6.5840   -0.5980   22.3540 C   0  0  0  0  0  0  0  0  0  0  0  0
    6.7580   -1.1560   23.7770 C   0  0  2  0  0  0  0  0  0  0  0  0
    8.1630   -1.1380   24.3600 C   0  0  0  0  0  0  0  0  0  0  0  0
    8.6790   -2.2100   24.6610 O   0  0  0  0  0  0  0  0  0  0  0  0
    8.7490    0.0540   24.5060 N   0  0  0  0  0  0  0  0  0  0  0  0
   10.1740   -0.1770   24.7830 C   0  0  0  0  0  0  0  0  0  0  0  0
   11.7650   -0.5340   24.9000 C   0  0  0  0  0  0  0  0  0  0  0  0
   12.2050   -1.2060   23.8220 C   0  0  0  0  0  0  0  0  0  0  0  0
   10.8820   -1.0740   23.4120 C   0  0  0  0  0  0  0  0  0  0  0  0
   10.2660   -1.4480   22.3990 C   0  0  0  0  0  0  0  0  0  0  0  0
   11.5490   -2.0370   22.0530 C   0  0  0  0  0  0  0  0  0  0  0  0
   12.3430   -2.4500   23.2360 C   0  0  0  0  0  0  0  0  0  0  0  0
   13.5450   -3.0040   22.6660 C   0  0  0  0  0  0  0  0  0  0  0  0
   13.3530   -2.8770   21.2290 N   0  0  0  0  0  0  0  0  0  0  0  0
   12.1680   -2.2970   20.8890 N   0  0  0  0  0  0  0  0  0  0  0  0
    9.5930   -0.7110   23.4230 C   0  0  0  0  0  0  0  0  0  0  0  0
  1  2  1  0
  2  3  2  0
  2  4  1  0
  4  5  1  0
  6  5  1  6
  6  7  1  0
  4  8  1  0
  7  8  1  0
  8  9  1  1
  6 10  1  0
  9 10  1  0
 10 11  1  6
 11 12  2  0
 11 13  1  0
 13 14  1  0
 14 15  2  0
 15 16  1  0
 16 17  2  0
 17 18  1  0
 18 19  1  0
 19 20  1  0
 20 21  2  0
 21 22  1  0
 19 23  2  0
 22 23  1  0
 14 24  1  0
 18 24  2  0
M  END
