MAK-UNK-6ca90168-11-chloroacetamide
     RDKit          3D

 22 24  0  0  0  0  0  0  0  0999 V2000
    7.1400   -2.9270   18.7050 C   0  0  0  0  0  0  0  0  0  0  0  0
    6.2140   -3.2190   19.8460 C   0  0  0  0  0  0  0  0  0  0  0  0
    5.3980   -4.1470   19.7420 O   0  0  0  0  0  0  0  0  0  0  0  0
    6.3310   -2.4420   20.9810 N   0  0  0  0  0  0  0  0  0  0  0  0
    7.0250   -1.3410   21.0320 C   0  0  0  0  0  0  0  0  0  0  0  0
    8.3780   -1.6000   21.7280 C   0  0  0  0  0  0  0  0  0  0  0  0
    8.1790   -2.1570   23.1430 C   0  0  0  0  0  0  0  0  0  0  0  0
    9.4670   -2.5530   23.8470 C   0  0  0  0  0  0  0  0  0  0  0  0
    9.3180   -3.1200   25.2750 C   0  0  0  0  0  0  0  0  0  0  0  0
    8.6840   -2.3530   26.2720 C   0  0  0  0  0  0  0  0  0  0  0  0
    8.5310   -2.8550   27.5680 C   0  0  0  0  0  0  0  0  0  0  0  0
    9.0020   -4.1230   27.8900 C   0  0  0  0  0  0  0  0  0  0  0  0
    9.6280   -4.8960   26.9220 C   0  0  0  0  0  0  0  0  0  0  0  0
    9.7850   -4.4010   25.6300 C   0  0  0  0  0  0  0  0  0  0  0  0
   10.5270   -1.4430   23.6700 C   0  0  0  0  0  0  0  0  0  0  0  0
   11.7170   -1.7270   22.9720 C   0  0  0  0  0  0  0  0  0  0  0  0
   12.6910   -0.7410   22.7830 C   0  0  0  0  0  0  0  0  0  0  0  0
   12.4920    0.5420   23.2860 C   0  0  0  0  0  0  0  0  0  0  0  0
   11.3230    0.8450   23.9790 C   0  0  0  0  0  0  0  0  0  0  0  0
   10.3460   -0.1390   24.1730 C   0  0  0  0  0  0  0  0  0  0  0  0
    7.2190   -3.3620   23.0940 C   0  0  0  0  0  0  0  0  0  0  0  0
    5.9700   -3.0590   22.2490 C   0  0  0  0  0  0  0  0  0  0  0  0
  1  2  1  0
  2  3  2  0
  2  4  1  0
  4  5  1  0
  5  6  1  0
  6  7  1  0
  7  8  1  0
  8  9  1  0
  9 10  2  0
 10 11  1  0
 11 12  2  0
 12 13  1  0
  9 14  1  0
 13 14  2  0
  8 15  1  0
 15 16  2  0
 16 17  1  0
 17 18  2  0
 18 19  1  0
 15 20  1  0
 19 20  2  0
  7 21  1  0
  4 22  1  0
 21 22  1  0
M  END
