MAK-UNK-de9577cf-10
     RDKit          3D

 37 40  0  0  0  0  0  0  0  0999 V2000
    8.9690    4.7320   22.5920 N   0  0  0  0  0  0  0  0  0  0  0  0
   10.2890    4.8680   23.6630 S   0  0  0  0  0  0  0  0  0  0  0  0
   11.2110    5.8190   23.0820 O   0  0  0  0  0  0  0  0  0  0  0  0
    9.6620    5.1510   24.9360 O   0  0  0  0  0  0  0  0  0  0  0  0
   11.0220    3.2180   23.6390 C   0  0  0  0  0  0  0  0  0  0  0  0
   12.3480    3.0030   22.9940 C   0  0  0  0  0  0  0  0  0  0  0  0
   12.9910    1.6160   22.9760 C   0  0  0  0  0  0  0  0  0  0  0  0
   12.2920    0.4300   23.6210 C   0  0  0  0  0  0  0  0  0  0  0  0
   12.9310   -1.0380   23.6170 C   0  0  0  0  0  0  0  0  0  0  0  0
   12.8150   -1.6950   22.6250 O   0  0  0  0  0  0  0  0  0  0  0  0
   13.6120   -1.4970   24.7610 O   0  0  0  0  0  0  0  0  0  0  0  0
   13.9070   -2.9570   25.0440 C   0  0  0  0  0  0  0  0  0  0  0  0
   15.0000   -3.6380   24.3100 N   0  0  0  0  0  0  0  0  0  0  0  0
   16.1270   -4.6680   24.7530 C   0  0  0  0  0  0  0  0  0  0  0  0
   17.5770   -4.3600   24.2320 C   0  0  0  0  0  0  0  0  0  0  0  0
   18.2990   -4.8300   23.0960 C   0  0  0  0  0  0  0  0  0  0  0  0
   19.5540   -4.1600   23.0410 C   0  0  0  0  0  0  0  0  0  0  0  0
   20.5020   -4.2990   22.0580 C   0  0  0  0  0  0  0  0  0  0  0  0
   20.9120   -3.1890   21.1860 C   0  0  0  0  0  0  0  0  0  0  0  0
   21.9070   -3.3840   20.2260 C   0  0  0  0  0  0  0  0  0  0  0  0
   22.5120   -4.6320   20.1110 C   0  0  0  0  0  0  0  0  0  0  0  0
   22.1180   -5.6770   20.9370 C   0  0  0  0  0  0  0  0  0  0  0  0
   21.1210   -5.5110   21.8760 C   0  0  0  0  0  0  0  0  0  0  0  0
   20.7980   -6.5990   22.5950 F   0  0  0  0  0  0  0  0  0  0  0  0
   19.6650   -3.3030   24.1540 N   0  0  0  0  0  0  0  0  0  0  0  0
   20.8980   -2.2240   24.6870 S   0  0  0  0  0  0  0  0  0  0  0  0
   20.2720   -0.9170   24.7120 O   0  0  0  0  0  0  0  0  0  0  0  0
   21.4330   -2.8230   25.8850 O   0  0  0  0  0  0  0  0  0  0  0  0
   22.2220   -2.1000   23.5340 C   0  0  0  0  0  0  0  0  0  0  0  0
   22.7900   -0.8440   23.3190 C   0  0  0  0  0  0  0  0  0  0  0  0
   23.9350   -0.7500   22.3310 C   0  0  0  0  0  0  0  0  0  0  0  0
   24.3500   -2.0420   21.6710 C   0  0  0  0  0  0  0  0  0  0  0  0
   23.7340   -3.2090   21.9500 N   0  0  0  0  0  0  0  0  0  0  0  0
   22.7050   -3.2140   22.8560 C   0  0  0  0  0  0  0  0  0  0  0  0
   18.4980   -3.4380   24.8330 C   0  0  0  0  0  0  0  0  0  0  0  0
   10.9090    0.7540   24.2580 C   0  0  0  0  0  0  0  0  0  0  0  0
   10.3700    2.0980   24.2290 C   0  0  0  0  0  0  0  0  0  0  0  0
  2  1  1  0
  2  3  2  0
  2  4  2  0
  2  5  1  0
  5  6  2  0
  6  7  1  0
  7  8  2  0
  8  9  1  0
  9 10  2  0
  9 11  1  0
 11 12  1  0
 12 13  1  0
 13 14  1  0
 14 15  1  0
 15 16  1  0
 16 17  2  0
 17 18  1  0
 18 19  2  0
 19 20  1  0
 20 21  2  0
 21 22  1  0
 18 23  1  0
 22 23  2  0
 23 24  1  0
 17 25  1  0
 25 26  1  0
 26 27  2  0
 26 28  2  0
 26 29  1  0
 29 30  2  0
 30 31  1  0
 31 32  2  0
 32 33  1  0
 29 34  1  0
 33 34  2  0
 15 35  2  0
 25 35  1  0
  8 36  1  0
  5 37  1  0
 36 37  2  0
M  END
