MAK-UNK-f983951f-13-acrylamide
     RDKit          3D

 13 13  0  0  0  0  0  0  0  0999 V2000
    6.9220   -4.8060   20.3120 C   0  0  0  0  0  0  0  0  0  0  0  0
    6.9100   -3.8750   21.4660 C   0  0  0  0  0  0  0  0  0  0  0  0
    5.7770   -4.2730   22.3340 C   0  0  0  0  0  0  0  0  0  0  0  0
    4.6730   -3.7900   22.1350 O   0  0  0  0  0  0  0  0  0  0  0  0
    6.0370   -5.1810   23.3210 N   0  0  0  0  0  0  0  0  0  0  0  0
    5.3890   -4.8500   24.5380 O   0  0  0  0  0  0  0  0  0  0  0  0
    4.0000   -4.6600   24.2530 C   0  0  0  0  0  0  0  0  0  0  0  0
    3.3910   -3.6680   25.0240 C   0  0  0  0  0  0  0  0  0  0  0  0
    2.0030   -3.5800   24.9870 C   0  0  0  0  0  0  0  0  0  0  0  0
    1.3260   -2.5750   25.7310 C   0  0  0  0  0  0  0  0  0  0  0  0
    2.0630   -1.6840   26.5050 C   0  0  0  0  0  0  0  0  0  0  0  0
    3.4560   -1.7770   26.5520 C   0  0  0  0  0  0  0  0  0  0  0  0
    4.1220   -2.7640   25.8180 C   0  0  0  0  0  0  0  0  0  0  0  0
  1  2  1  0
  2  3  1  0
  3  4  2  0
  3  5  1  0
  5  6  1  0
  6  7  1  0
  7  8  1  0
  8  9  2  0
  9 10  1  0
 10 11  2  0
 11 12  1  0
  8 13  1  0
 12 13  2  0
M  END
