MAK-UNK-5d2caa6f-2-acrylamide
     RDKit          3D

 31 35  0  0  0  0  0  0  0  0999 V2000
    7.3140   -3.0140   18.5410 C   0  0  0  0  0  0  0  0  0  0  0  0
    6.6430   -1.9590   19.4200 C   0  0  0  0  0  0  0  0  0  0  0  0
    6.0700   -2.5330   20.6860 C   0  0  0  0  0  0  0  0  0  0  0  0
    5.0770   -3.3170   20.7230 O   0  0  0  0  0  0  0  0  0  0  0  0
    6.7310   -2.1280   21.8180 N   0  0  0  0  0  0  0  0  0  0  0  0
    5.9780   -2.2770   23.0570 C   0  0  0  0  0  0  0  0  0  0  0  0
    7.0340   -2.8570   23.9730 C   0  0  1  0  0  0  0  0  0  0  0  0
    6.0890   -3.4760   25.0170 C   0  0  0  0  0  0  0  0  0  0  0  0
    4.6840   -2.7510   24.8760 C   0  0  0  0  0  0  0  0  0  0  0  0
    3.6470   -3.3040   25.9030 C   0  0  0  0  0  0  0  0  0  0  0  0
    4.0140   -4.4290   26.9190 C   0  0  0  0  0  0  0  0  0  0  0  0
    5.4280   -5.0330   26.9300 C   0  0  0  0  0  0  0  0  0  0  0  0
    5.8630   -6.2630   28.0430 Cl  0  0  0  0  0  0  0  0  0  0  0  0
    6.4170   -4.4840   25.9200 C   0  0  0  0  0  0  0  0  0  0  0  0
    7.9070   -3.6530   22.9300 C   0  0  0  0  0  0  0  0  0  0  0  0
    8.1880   -2.4060   22.0840 C   0  0  2  0  0  0  0  0  0  0  0  0
    8.7430   -1.4330   23.1340 C   0  0  0  0  0  0  0  0  0  0  0  0
    9.9070   -0.2870   23.1020 C   0  0  0  0  0  0  0  0  0  0  0  0
   10.7460    0.1560   22.1510 O   0  0  0  0  0  0  0  0  0  0  0  0
   12.0390    0.4710   22.6500 C   0  0  0  0  0  0  0  0  0  0  0  0
   13.0020   -0.6650   22.3830 C   0  0  0  0  0  0  0  0  0  0  0  0
   13.5520   -1.1930   23.6080 N   0  0  0  0  0  0  0  0  0  0  0  0
   13.5820   -2.6500   23.6540 C   0  0  0  0  0  0  0  0  0  0  0  0
   13.3360   -3.0090   25.0820 C   0  0  0  0  0  0  0  0  0  0  0  0
   11.9370   -2.9990   25.1760 O   0  0  0  0  0  0  0  0  0  0  0  0
   11.5090   -1.7450   24.6340 C   0  0  0  0  0  0  0  0  0  0  0  0
   12.6820   -0.8010   24.7120 C   0  0  0  0  0  0  0  0  0  0  0  0
    9.6940    0.0200   24.3600 C   0  0  0  0  0  0  0  0  0  0  0  0
    8.8030   -0.9270   24.2510 C   0  0  0  0  0  0  0  0  0  0  0  0
    8.2940   -0.9180   25.4470 C   0  0  0  0  0  0  0  0  0  0  0  0
    7.9710   -1.7230   24.3510 C   0  0  0  0  0  0  0  0  0  0  0  0
  1  2  1  0
  2  3  1  0
  3  4  2  0
  3  5  1  0
  5  6  1  0
  6  7  1  0
  7  8  1  1
  8  9  2  0
  9 10  1  0
 10 11  2  0
 11 12  1  0
 12 13  1  0
  8 14  1  0
 12 14  2  0
  7 15  1  0
 16  5  1  1
 15 16  1  0
 16 17  1  0
 17 18  1  0
 18 19  1  0
 19 20  1  0
 20 21  1  0
 21 22  1  0
 22 23  1  0
 23 24  1  0
 24 25  1  0
 25 26  1  0
 22 27  1  0
 26 27  1  0
 18 28  2  0
 28 29  1  0
 29 30  2  0
  7 31  1  0
 17 31  2  0
 30 31  1  0
M  END
