MAK-UNK-8fdbca50-36-acrylamide
     RDKit          3D

 40 43  0  0  0  0  0  0  0  0999 V2000
    7.1960   -3.1120   19.2340 C   0  0  0  0  0  0  0  0  0  0  0  0
    6.5560   -2.1510   20.2380 C   0  0  0  0  0  0  0  0  0  0  0  0
    6.3490   -2.7210   21.6070 C   0  0  0  0  0  0  0  0  0  0  0  0
    5.0390   -3.4820   21.6180 O   0  0  0  0  0  0  0  0  0  0  0  0
    7.7410   -2.2710   22.4730 N   0  0  0  0  0  0  0  0  0  0  0  0
    8.9930   -1.9630   21.6080 C   0  0  0  0  0  0  0  0  0  0  0  0
   10.0140   -1.1870   22.2290 C   0  0  0  0  0  0  0  0  0  0  0  0
   10.6030   -1.7760   23.3970 C   0  0  1  0  0  0  0  0  0  0  0  0
   11.5880   -0.9090   24.0150 C   0  0  0  0  0  0  0  0  0  0  0  0
   11.4960   -0.4810   25.3200 O   0  0  0  0  0  0  0  0  0  0  0  0
   12.6080   -0.5370   23.2240 N   0  0  0  0  0  0  0  0  0  0  0  0
   12.6710    0.8430   23.1530 C   0  0  0  0  0  0  0  0  0  0  0  0
   13.0210   -1.2110   22.1450 C   0  0  0  0  0  0  0  0  0  0  0  0
   12.2860   -2.3000   21.4000 C   0  0  0  0  0  0  0  0  0  0  0  0
   13.3280   -2.6590   22.3500 C   0  0  0  0  0  0  0  0  0  0  0  0
    9.5030   -2.0710   24.1870 C   0  0  0  0  0  0  0  0  0  0  0  0
    8.1200   -1.5640   23.7170 C   0  0  2  0  0  0  0  0  0  0  0  0
    7.2480   -1.4760   24.7330 N   0  0  0  0  0  0  0  0  0  0  0  0
    7.5900   -0.6130   25.7430 C   0  0  0  0  0  0  0  0  0  0  0  0
    6.9660    0.7680   25.5960 C   0  0  0  0  0  0  0  0  0  0  0  0
    7.1840    1.6330   24.5330 C   0  0  0  0  0  0  0  0  0  0  0  0
    6.4760    2.7920   24.6550 C   0  0  0  0  0  0  0  0  0  0  0  0
    6.5370    3.8080   23.6890 C   0  0  0  0  0  0  0  0  0  0  0  0
    7.3710    4.9170   23.9120 C   0  0  0  0  0  0  0  0  0  0  0  0
    7.4870    5.9630   22.9860 C   0  0  0  0  0  0  0  0  0  0  0  0
    6.6780    5.8890   21.6980 C   0  0  0  0  0  0  0  0  0  0  0  0
    5.7890    4.6670   21.5130 C   0  0  0  0  0  0  0  0  0  0  0  0
    5.7720    3.7050   22.5090 C   0  0  0  0  0  0  0  0  0  0  0  0
    4.9840    2.6360   22.3150 F   0  0  0  0  0  0  0  0  0  0  0  0
    5.7730    2.7140   25.8150 N   0  0  0  0  0  0  0  0  0  0  0  0
    4.6940    3.8560   26.5020 S   0  0  0  0  0  0  0  0  0  0  0  0
    4.8630    5.1270   25.8320 O   0  0  0  0  0  0  0  0  0  0  0  0
    4.8470    3.7350   27.9370 O   0  0  0  0  0  0  0  0  0  0  0  0
    3.1330    3.1710   26.0730 C   0  0  0  0  0  0  0  0  0  0  0  0
    3.0410    1.8780   25.2610 C   0  0  0  0  0  0  0  0  0  0  0  0
    1.7690    1.3920   24.9580 C   0  0  0  0  0  0  0  0  0  0  0  0
    0.5860    2.2000   25.4670 C   0  0  0  0  0  0  0  0  0  0  0  0
    0.7130    3.3440   26.1850 N   0  0  0  0  0  0  0  0  0  0  0  0
    1.9640    3.8030   26.4710 C   0  0  0  0  0  0  0  0  0  0  0  0
    6.0640    1.4720   26.4140 C   0  0  0  0  0  0  0  0  0  0  0  0
  1  2  1  0
  2  3  1  0
  3  4  2  0
  3  5  1  0
  5  6  1  0
  6  7  1  0
  7  8  1  0
  8  9  1  1
  9 10  2  0
  9 11  1  0
 11 12  1  0
 11 13  1  0
 13 14  1  0
 13 15  1  0
  8 16  1  0
  5 17  1  0
 16 17  1  0
 17 18  1  1
 18 19  1  0
 19 20  1  0
 20 21  1  0
 21 22  2  0
 22 23  1  0
 23 24  2  0
 24 25  1  0
 25 26  2  0
 26 27  1  0
 23 28  1  0
 27 28  2  0
 28 29  1  0
 22 30  1  0
 30 31  1  0
 31 32  2  0
 31 33  2  0
 31 34  1  0
 34 35  2  0
 35 36  1  0
 36 37  2  0
 37 38  1  0
 34 39  1  0
 38 39  2  0
 20 40  2  0
 30 40  1  0
M  END
