MAK-UNK-10799360-17-vinylsulfonamide
     RDKit          3D

 28 31  0  0  0  0  0  0  0  0999 V2000
    7.4470   -2.9890   18.8170 C   0  0  0  0  0  0  0  0  0  0  0  0
    6.9080   -2.5510   20.1620 C   0  0  0  0  0  0  0  0  0  0  0  0
    5.8990   -3.8180   20.9070 S   0  0  0  0  0  0  0  0  0  0  0  0
    4.7830   -3.2090   21.5720 O   0  0  0  0  0  0  0  0  0  0  0  0
    5.5940   -4.8670   19.9540 O   0  0  0  0  0  0  0  0  0  0  0  0
    6.9750   -4.3790   22.0770 N   0  0  0  0  0  0  0  0  0  0  0  0
    8.1510   -3.4920   22.3860 C   0  0  0  0  0  0  0  0  0  0  0  0
    7.8730   -3.0100   23.8450 C   0  0  1  0  0  0  0  0  0  0  0  0
    6.3640   -3.2070   23.9730 C   0  0  0  0  0  0  0  0  0  0  0  0
    6.4410   -4.6410   23.4610 C   0  0  2  0  0  0  0  0  0  0  0  0
    7.5400   -5.2240   24.4020 C   0  0  0  0  0  0  0  0  0  0  0  0
    8.4350   -4.0700   24.6860 N   0  0  0  0  0  0  0  0  0  0  0  0
    9.8590   -4.3240   24.4820 C   0  0  0  0  0  0  0  0  0  0  0  0
   10.7510   -3.1240   24.1930 C   0  0  0  0  0  0  0  0  0  0  0  0
   10.9090   -2.2220   25.1940 C   0  0  0  0  0  0  0  0  0  0  0  0
   11.6820   -1.0980   25.0110 C   0  0  0  0  0  0  0  0  0  0  0  0
   12.3220   -0.8500   23.8150 C   0  0  0  0  0  0  0  0  0  0  0  0
   13.0330    0.2890   23.6790 C   0  0  0  0  0  0  0  0  0  0  0  0
   13.7040    0.6590   22.5260 C   0  0  0  0  0  0  0  0  0  0  0  0
   13.6450   -0.1660   21.4300 C   0  0  0  0  0  0  0  0  0  0  0  0
   14.4900    0.3190   19.7940 S   0  0  0  0  0  0  0  0  0  0  0  0
   15.4460    1.3810   19.7670 O   0  0  0  0  0  0  0  0  0  0  0  0
   14.6320   -1.0880   19.7940 O   0  0  0  0  0  0  0  0  0  0  0  0
   13.9850    0.0930   18.3280 N   0  0  0  0  0  0  0  0  0  0  0  0
   13.9600    1.0510   17.3340 C   0  0  0  0  0  0  0  0  0  0  0  0
   12.9020   -1.4010   21.5480 C   0  0  0  0  0  0  0  0  0  0  0  0
   12.2220   -1.7310   22.7540 C   0  0  0  0  0  0  0  0  0  0  0  0
   11.4150   -2.8640   22.9710 C   0  0  0  0  0  0  0  0  0  0  0  0
  1  2  1  0
  3  2  1  0
  3  4  2  0
  3  5  2  0
  3  6  1  0
  6  7  1  0
  8  7  1  6
  8  9  1  0
  6 10  1  0
  9 10  1  0
 10 11  1  1
  8 12  1  0
 11 12  1  0
 12 13  1  0
 13 14  1  0
 14 15  2  0
 15 16  1  0
 16 17  2  0
 17 18  1  0
 18 19  2  0
 19 20  1  0
 20 21  1  0
 21 22  2  0
 21 23  2  0
 21 24  1  0
 24 25  1  0
 20 26  2  0
 17 27  1  0
 26 27  1  0
 14 28  1  0
 27 28  2  0
M  END
