MAK-UNK-176ca439-2-chloroacetamide
     RDKit          3D

 28 29  0  0  0  0  0  0  0  0999 V2000
    7.2090   -2.9830   18.7920 C   0  0  0  0  0  0  0  0  0  0  0  0
    6.2230   -3.2720   19.8690 C   0  0  0  0  0  0  0  0  0  0  0  0
    5.3530   -4.1310   19.7420 O   0  0  0  0  0  0  0  0  0  0  0  0
    6.3630   -2.5290   21.0390 N   0  0  0  0  0  0  0  0  0  0  0  0
    6.1460   -3.0930   22.3720 C   0  0  0  0  0  0  0  0  0  0  0  0
    7.3630   -3.3500   23.0050 C   0  0  0  0  0  0  0  0  0  0  0  0
    8.2530   -2.1690   23.0800 N   0  0  0  0  0  0  0  0  0  0  0  0
    9.5520   -2.5120   23.6420 C   0  0  0  0  0  0  0  0  0  0  0  0
   10.4830   -1.4920   23.5200 C   0  0  0  0  0  0  0  0  0  0  0  0
   11.9190   -1.8430   23.0970 C   0  0  0  0  0  0  0  0  0  0  0  0
   12.8790   -0.6780   22.9770 C   0  0  0  0  0  0  0  0  0  0  0  0
   12.3920    0.7000   23.2670 C   0  0  0  0  0  0  0  0  0  0  0  0
   10.9630    0.9720   23.6800 C   0  0  0  0  0  0  0  0  0  0  0  0
   10.5310    2.2910   23.9440 C   0  0  1  0  0  0  0  0  0  0  0  0
   10.5240    3.0150   22.6490 N   0  0  0  0  0  0  0  0  0  0  0  0
   11.6800    3.9200   22.5050 C   0  0  0  0  0  0  0  0  0  0  0  0
   11.5660    5.1330   23.1740 C   0  0  0  0  0  0  0  0  0  0  0  0
   10.7730    6.0860   22.4160 N   0  0  0  0  0  0  0  0  0  0  0  0
    9.9170    6.9830   23.0210 C   0  0  0  0  0  0  0  0  0  0  0  0
    8.6760    7.1340   22.3670 C   0  0  0  0  0  0  0  0  0  0  0  0
   10.1680    7.6140   24.0510 O   0  0  0  0  0  0  0  0  0  0  0  0
    9.2550    2.4380   24.5440 C   0  0  0  0  0  0  0  0  0  0  0  0
    8.3650    3.5030   24.1640 O   0  0  0  0  0  0  0  0  0  0  0  0
    8.8030    1.5640   25.5210 N   0  0  0  0  0  0  0  0  0  0  0  0
    9.4880    0.4310   26.1200 C   0  0  0  0  0  0  0  0  0  0  0  0
   10.0930   -0.1470   23.7810 C   0  0  0  0  0  0  0  0  0  0  0  0
    8.4340   -1.6520   21.8070 C   0  0  0  0  0  0  0  0  0  0  0  0
    7.2740   -1.3770   21.0890 C   0  0  0  0  0  0  0  0  0  0  0  0
  1  2  1  0
  2  3  2  0
  2  4  1  0
  4  5  1  0
  5  6  1  0
  6  7  1  0
  7  8  1  0
  8  9  1  0
  9 10  2  0
 10 11  1  0
 11 12  2  0
 12 13  1  0
 13 14  1  0
 14 15  1  6
 15 16  1  0
 16 17  1  0
 17 18  1  0
 18 19  1  0
 19 20  1  0
 19 21  2  0
 14 22  1  0
 22 23  2  0
 22 24  1  0
 24 25  1  0
  9 26  1  0
 13 26  2  0
  7 27  1  0
  4 28  1  0
 27 28  1  0
M  END
