MAK-UNK-6c8f5f75-2-acrylamide
     RDKit          3D

 12 12  0  0  0  0  0  0  0  0999 V2000
    7.3370   -3.3140   19.1110 C   0  0  0  0  0  0  0  0  0  0  0  0
    6.0830   -2.7110   19.7100 C   0  0  0  0  0  0  0  0  0  0  0  0
    6.0990   -3.1720   21.1480 C   0  0  0  0  0  0  0  0  0  0  0  0
    5.0900   -3.8020   21.5740 O   0  0  0  0  0  0  0  0  0  0  0  0
    7.3510   -2.8300   21.7850 N   0  0  0  0  0  0  0  0  0  0  0  0
    8.1100   -1.8200   21.1230 C   0  0  0  0  0  0  0  0  0  0  0  0
    7.6820   -0.6470   21.9080 C   0  0  0  0  0  0  0  0  0  0  0  0
    8.7110   -0.3720   22.9050 C   0  0  0  0  0  0  0  0  0  0  0  0
    8.7060   -1.5730   23.8130 C   0  0  2  0  0  0  0  0  0  0  0  0
   10.0550   -1.7520   24.1550 C   0  0  0  0  0  0  0  0  0  0  0  0
   11.1970   -1.7240   24.4330 N   0  0  0  0  0  0  0  0  0  0  0  0
    7.7320   -2.7980   23.2640 C   0  0  0  0  0  0  0  0  0  0  0  0
  1  2  1  0
  2  3  1  0
  3  4  2  0
  3  5  1  0
  5  6  1  0
  6  7  1  0
  7  8  1  0
  8  9  1  0
  9 10  1  6
 10 11  3  0
  5 12  1  0
  9 12  1  0
M  END
