MAK-UNK-bae89c02-2-acrylamide
     RDKit          3D

 28 31  0  0  0  0  0  0  0  0999 V2000
    8.0370   -3.4870   19.6120 C   0  0  0  0  0  0  0  0  0  0  0  0
    6.9700   -2.7320   18.9180 C   0  0  0  0  0  0  0  0  0  0  0  0
    5.9750   -2.9690   19.9670 C   0  0  0  0  0  0  0  0  0  0  0  0
    4.8900   -3.4790   19.7500 O   0  0  0  0  0  0  0  0  0  0  0  0
    6.4580   -2.6180   21.2230 N   0  0  0  0  0  0  0  0  0  0  0  0
    7.5260   -1.6070   21.4140 C   0  0  0  0  0  0  0  0  0  0  0  0
    7.3090   -1.0820   22.8430 C   0  0  1  0  0  0  0  0  0  0  0  0
    5.8420   -1.4560   23.0080 C   0  0  0  0  0  0  0  0  0  0  0  0
    6.0180   -2.9030   22.5950 C   0  0  2  0  0  0  0  0  0  0  0  0
    7.2540   -3.2170   23.3760 C   0  0  0  0  0  0  0  0  0  0  0  0
    7.8270   -2.0890   23.9590 C   0  0  1  0  0  0  0  0  0  0  0  0
    9.2530   -2.0760   24.3940 N   0  0  0  0  0  0  0  0  0  0  0  0
    9.8430   -3.4100   24.5380 C   0  0  0  0  0  0  0  0  0  0  0  0
    9.3740   -4.1550   25.6060 C   0  0  0  0  0  0  0  0  0  0  0  0
    9.5190   -5.6150   25.6250 C   0  0  0  0  0  0  0  0  0  0  0  0
    9.0440   -6.3260   26.7040 C   0  0  0  0  0  0  0  0  0  0  0  0
    8.4370   -5.7130   27.7710 C   0  0  0  0  0  0  0  0  0  0  0  0
    8.2940   -4.3510   27.7680 C   0  0  0  0  0  0  0  0  0  0  0  0
    8.7340   -3.5320   26.7290 C   0  0  0  0  0  0  0  0  0  0  0  0
    8.5190   -2.1570   26.8520 C   0  0  0  0  0  0  0  0  0  0  0  0
    8.3280   -1.0290   27.0550 N   0  0  0  0  0  0  0  0  0  0  0  0
   10.1400   -1.1780   23.6060 C   0  0  1  0  0  0  0  0  0  0  0  0
   10.4340    0.1570   24.2580 C   0  0  0  0  0  0  0  0  0  0  0  0
   11.8500    0.6840   24.0910 C   0  0  0  0  0  0  0  0  0  0  0  0
   12.5030    0.1940   22.8260 C   0  0  1  0  0  0  0  0  0  0  0  0
   13.8740    0.2390   23.0560 O   0  0  0  0  0  0  0  0  0  0  0  0
   12.2960   -1.2220   22.3900 C   0  0  0  0  0  0  0  0  0  0  0  0
   11.2300   -1.9220   23.1930 C   0  0  0  0  0  0  0  0  0  0  0  0
  1  2  1  0
  2  3  1  0
  3  4  2  0
  3  5  1  0
  5  6  1  0
  7  6  1  6
  7  8  1  0
  5  9  1  0
  8  9  1  0
  9 10  1  1
  7 11  1  0
 10 11  1  0
 11 12  1  6
 12 13  1  0
 13 14  1  0
 14 15  2  0
 15 16  1  0
 16 17  2  0
 17 18  1  0
 14 19  1  0
 18 19  2  0
 19 20  1  0
 20 21  3  0
 22 12  1  1
 22 23  1  0
 23 24  1  0
 24 25  1  0
 25 26  1  1
 25 27  1  0
 22 28  1  0
 27 28  1  0
M  END
