MAK-UNK-5d2caa6f-13-acrylamide
     RDKit          3D

 25 28  0  0  0  0  0  0  0  0999 V2000
    8.0360   -3.4230   19.7480 C   0  0  0  0  0  0  0  0  0  0  0  0
    6.9120   -2.7000   19.0870 C   0  0  0  0  0  0  0  0  0  0  0  0
    5.8740   -3.0910   20.0470 C   0  0  0  0  0  0  0  0  0  0  0  0
    5.1000   -4.0140   19.7990 O   0  0  0  0  0  0  0  0  0  0  0  0
    5.9830   -2.3480   21.1910 N   0  0  0  0  0  0  0  0  0  0  0  0
    6.9900   -1.2650   21.1950 C   0  0  0  0  0  0  0  0  0  0  0  0
    7.5540   -1.2810   22.4560 C   0  0  1  0  0  0  0  0  0  0  0  0
    6.3420   -1.6650   23.2790 C   0  0  0  0  0  0  0  0  0  0  0  0
    6.0630   -2.9550   22.5530 C   0  0  2  0  0  0  0  0  0  0  0  0
    7.3810   -3.6900   22.5890 C   0  0  0  0  0  0  0  0  0  0  0  0
    8.4410   -2.5690   22.6070 C   0  0  2  0  0  0  0  0  0  0  0  0
    9.2540   -2.6310   23.8820 C   0  0  0  0  0  0  0  0  0  0  0  0
    9.0350   -3.5230   24.6830 O   0  0  0  0  0  0  0  0  0  0  0  0
   10.2020   -1.7080   24.1600 N   0  0  0  0  0  0  0  0  0  0  0  0
   10.0090   -0.3850   24.4150 C   0  0  0  0  0  0  0  0  0  0  0  0
    9.1120    0.5570   25.0370 C   0  0  0  0  0  0  0  0  0  0  0  0
    9.6550    2.1040   24.8600 C   0  0  0  0  0  0  0  0  0  0  0  0
    8.6200    3.3590   25.5750 Cl  0  0  0  0  0  0  0  0  0  0  0  0
   10.9060    2.4790   24.1640 N   0  0  0  0  0  0  0  0  0  0  0  0
   11.6050    1.3300   23.6460 C   0  0  0  0  0  0  0  0  0  0  0  0
   12.9140    0.8750   22.8340 C   0  0  0  0  0  0  0  0  0  0  0  0
   13.5140   -0.5820   22.3180 C   0  0  0  0  0  0  0  0  0  0  0  0
   12.2930   -1.0550   22.9850 C   0  0  0  0  0  0  0  0  0  0  0  0
   11.7720    0.1510   23.4250 C   0  0  0  0  0  0  0  0  0  0  0  0
   10.7430    0.5660   24.0770 C   0  0  0  0  0  0  0  0  0  0  0  0
  1  2  1  0
  2  3  1  0
  3  4  2  0
  3  5  1  0
  5  6  1  0
  7  6  1  6
  7  8  1  0
  5  9  1  0
  8  9  1  0
  9 10  1  6
  7 11  1  0
 10 11  1  0
 11 12  1  1
 12 13  2  0
 12 14  1  0
 14 15  1  0
 15 16  2  0
 16 17  1  0
 17 18  1  0
 17 19  2  0
 19 20  1  0
 20 21  1  0
 21 22  2  0
 22 23  1  0
 23 24  2  0
 15 25  1  0
 20 25  2  0
 24 25  1  0
M  END
