MAK-UNK-f983951f-23-acrylamide
     RDKit          3D

 14 14  0  0  0  0  0  0  0  0999 V2000
    7.6360   -4.0540   20.8320 C   0  0  0  0  0  0  0  0  0  0  0  0
    6.4320   -3.1610   21.0810 C   0  0  0  0  0  0  0  0  0  0  0  0
    5.7160   -3.5780   22.3470 C   0  0  0  0  0  0  0  0  0  0  0  0
    4.6770   -4.2420   22.2500 O   0  0  0  0  0  0  0  0  0  0  0  0
    6.2940   -3.1440   23.5360 N   0  0  0  0  0  0  0  0  0  0  0  0
    5.8520   -3.5350   24.8750 C   0  0  0  0  0  0  0  0  0  0  0  0
    4.5130   -3.1900   25.1640 C   0  0  0  0  0  0  0  0  0  0  0  0
    3.5590   -4.1900   25.3500 C   0  0  0  0  0  0  0  0  0  0  0  0
    2.1940   -3.8750   25.6350 C   0  0  0  0  0  0  0  0  0  0  0  0
    1.8000   -2.5450   25.7430 C   0  0  0  0  0  0  0  0  0  0  0  0
    0.4680   -2.2220   26.0260 C   0  0  0  0  0  0  0  0  0  0  0  0
   -0.6360   -1.9570   26.2600 N   0  0  0  0  0  0  0  0  0  0  0  0
    2.7530   -1.5410   25.5720 C   0  0  0  0  0  0  0  0  0  0  0  0
    4.0950   -1.8530   25.2800 C   0  0  0  0  0  0  0  0  0  0  0  0
  1  2  1  0
  2  3  1  0
  3  4  2  0
  3  5  1  0
  5  6  1  0
  6  7  1  0
  7  8  2  0
  8  9  1  0
  9 10  2  0
 10 11  1  0
 11 12  3  0
 10 13  1  0
  7 14  1  0
 13 14  2  0
M  END
