MAK-UNK-d4768348-9-chloroacetamide
     RDKit          3D

 19 20  0  0  0  0  0  0  0  0999 V2000
    7.7700   -3.6690   20.3910 C   0  0  0  0  0  0  0  0  0  0  0  0
    6.5130   -4.4900   20.6540 C   0  0  0  0  0  0  0  0  0  0  0  0
    5.5320   -4.4860   19.9120 O   0  0  0  0  0  0  0  0  0  0  0  0
    6.5770   -5.2280   21.8160 N   0  0  0  0  0  0  0  0  0  0  0  0
    7.4010   -4.8160   22.9350 C   0  0  0  0  0  0  0  0  0  0  0  0
    6.5330   -4.1630   23.9990 C   0  0  0  0  0  0  0  0  0  0  0  0
    5.2890   -4.9490   24.1390 N   0  0  0  0  0  0  0  0  0  0  0  0
    4.6480   -5.0270   25.7220 S   0  0  0  0  0  0  0  0  0  0  0  0
    5.6690   -4.5080   26.6010 O   0  0  0  0  0  0  0  0  0  0  0  0
    4.0620   -6.3340   25.9110 O   0  0  0  0  0  0  0  0  0  0  0  0
    3.3320   -3.8470   25.6830 C   0  0  0  0  0  0  0  0  0  0  0  0
    3.5460   -2.4710   25.9870 C   0  0  0  0  0  0  0  0  0  0  0  0
    2.5180   -1.4870   25.9820 C   0  0  0  0  0  0  0  0  0  0  0  0
    1.1860   -2.6090   25.5230 S   0  0  0  0  0  0  0  0  0  0  0  0
   -0.2190   -2.3410   25.3120 O   0  0  0  0  0  0  0  0  0  0  0  0
   -0.7870   -1.4280   26.2400 C   0  0  0  0  0  0  0  0  0  0  0  0
    2.0010   -4.1510   25.3710 C   0  0  0  0  0  0  0  0  0  0  0  0
    4.5900   -5.7070   23.0890 C   0  0  0  0  0  0  0  0  0  0  0  0
    5.6320   -6.2030   22.0580 C   0  0  0  0  0  0  0  0  0  0  0  0
  1  2  1  0
  2  3  2  0
  2  4  1  0
  4  5  1  0
  5  6  1  0
  6  7  1  0
  7  8  1  0
  8  9  2  0
  8 10  2  0
  8 11  1  0
 11 12  2  0
 12 13  1  0
 13 14  1  0
 14 15  1  0
 15 16  1  0
 11 17  1  0
 14 17  2  0
  7 18  1  0
  4 19  1  0
 18 19  1  0
M  END
