MAK-UNK-148caf23-12-chloroacetamide
     RDKit          3D

 35 38  0  0  0  0  0  0  0  0999 V2000
    8.2570   -3.6650   20.2780 C   0  0  0  0  0  0  0  0  0  0  0  0
    7.6820   -2.2880   19.8470 C   0  0  0  0  0  0  0  0  0  0  0  0
    7.1800   -2.9230   18.7820 O   0  0  0  0  0  0  0  0  0  0  0  0
    8.4050   -1.9020   21.2120 C   0  0  0  0  0  0  0  0  0  0  0  0
    8.7420   -2.9170   22.3810 C   0  0  0  0  0  0  0  0  0  0  0  0
    9.3790   -2.3150   23.6880 C   0  0  0  0  0  0  0  0  0  0  0  0
    9.5870   -0.7940   23.6270 C   0  0  0  0  0  0  0  0  0  0  0  0
   10.0740   -0.0880   24.7280 N   0  0  0  0  0  0  0  0  0  0  0  0
    9.4010   -0.4210   26.0160 C   0  0  0  0  0  0  0  0  0  0  0  0
    8.5390    0.6950   26.6540 C   0  0  0  0  0  0  0  0  0  0  0  0
    8.4970    1.0390   28.1660 C   0  0  0  0  0  0  0  0  0  0  0  0
    9.2470    0.3920   29.1550 C   0  0  0  0  0  0  0  0  0  0  0  0
    9.4940    1.2730   30.1910 N   0  0  0  0  0  0  0  0  0  0  0  0
   10.7640    1.6340   30.7120 C   0  0  0  0  0  0  0  0  0  0  0  0
    7.5720    2.1110   28.2920 C   0  0  0  0  0  0  0  0  0  0  0  0
    7.1480    2.3430   27.0060 C   0  0  0  0  0  0  0  0  0  0  0  0
    6.2220    3.3260   26.6470 C   0  0  0  0  0  0  0  0  0  0  0  0
    6.6530    4.5150   26.0640 C   0  0  0  0  0  0  0  0  0  0  0  0
    5.7040    5.5070   25.7150 C   0  0  0  0  0  0  0  0  0  0  0  0
    4.3450    5.3140   25.9440 C   0  0  0  0  0  0  0  0  0  0  0  0
    3.9070    4.1270   26.5260 C   0  0  0  0  0  0  0  0  0  0  0  0
    4.8470    3.1370   26.8770 C   0  0  0  0  0  0  0  0  0  0  0  0
    4.4000    2.0040   27.4400 F   0  0  0  0  0  0  0  0  0  0  0  0
    7.6690    1.5500   25.9590 N   0  0  0  0  0  0  0  0  0  0  0  0
    7.3680    1.5660   24.2900 S   0  0  0  0  0  0  0  0  0  0  0  0
    6.3890    0.5320   24.0220 O   0  0  0  0  0  0  0  0  0  0  0  0
    8.6720    1.5270   23.6800 O   0  0  0  0  0  0  0  0  0  0  0  0
    6.6970    3.1130   23.7960 C   0  0  0  0  0  0  0  0  0  0  0  0
    5.2220    3.3470   23.7660 C   0  0  0  0  0  0  0  0  0  0  0  0
    4.8370    4.7460   23.2950 C   0  0  0  0  0  0  0  0  0  0  0  0
    5.8420    5.6460   22.9510 C   0  0  0  0  0  0  0  0  0  0  0  0
    7.1660    5.3660   23.0050 N   0  0  0  0  0  0  0  0  0  0  0  0
    7.5610    4.1310   23.4170 C   0  0  0  0  0  0  0  0  0  0  0  0
    9.3080   -0.0370   22.5750 N   0  0  0  0  0  0  0  0  0  0  0  0
    8.7460   -0.5680   21.4460 C   0  0  0  0  0  0  0  0  0  0  0  0
  1  2  1  0
  2  3  2  0
  2  4  1  0
  4  5  2  0
  5  6  1  0
  6  7  2  0
  7  8  1  0
  8  9  1  0
  9 10  1  0
 10 11  2  0
 11 12  1  0
 12 13  1  0
 13 14  1  0
 11 15  1  0
 15 16  2  0
 16 17  1  0
 17 18  2  0
 18 19  1  0
 19 20  2  0
 20 21  1  0
 17 22  1  0
 21 22  2  0
 22 23  1  0
 10 24  1  0
 16 24  1  0
 24 25  1  0
 25 26  2  0
 25 27  2  0
 25 28  1  0
 28 29  2  0
 29 30  1  0
 30 31  2  0
 31 32  1  0
 28 33  1  0
 32 33  2  0
  7 34  1  0
  4 35  1  0
 34 35  2  0
M  END
