MAK-UNK-8fdbca50-41-nitrile
     RDKit          3D

 38 41  0  0  0  0  0  0  0  0999 V2000
    8.4680   -3.5840   19.8730 C   0  0  0  0  0  0  0  0  0  0  0  0
    7.2300   -3.3920   19.3380 N   0  0  0  0  0  0  0  0  0  0  0  0
    8.9760   -2.9620   21.0700 N   0  0  0  0  0  0  0  0  0  0  0  0
    9.5030   -3.6990   22.2460 C   0  0  0  0  0  0  0  0  0  0  0  0
   10.6250   -3.0560   22.7720 C   0  0  0  0  0  0  0  0  0  0  0  0
   10.3140   -1.8040   23.2800 C   0  0  0  0  0  0  0  0  0  0  0  0
    9.1820   -1.7450   24.1080 C   0  0  0  0  0  0  0  0  0  0  0  0
    8.4800   -2.7400   24.2860 O   0  0  0  0  0  0  0  0  0  0  0  0
    8.9220   -0.4410   24.7570 N   0  0  0  0  0  0  0  0  0  0  0  0
    9.7540   -0.1700   25.8610 C   0  0  0  0  0  0  0  0  0  0  0  0
    8.2800    0.8060   24.2470 C   0  0  0  0  0  0  0  0  0  0  0  0
    7.4980    1.2900   25.2800 C   0  0  0  0  0  0  0  0  0  0  0  0
    9.3040    1.8930   23.9090 C   0  0  0  0  0  0  0  0  0  0  0  0
    7.6660    0.5570   23.0690 N   0  0  0  0  0  0  0  0  0  0  0  0
    6.2810    0.3200   23.1660 C   0  0  0  0  0  0  0  0  0  0  0  0
    5.7550   -0.8670   23.9660 C   0  0  0  0  0  0  0  0  0  0  0  0
    4.8440   -1.8350   23.2790 C   0  0  0  0  0  0  0  0  0  0  0  0
    4.5120   -2.8530   24.2910 C   0  0  0  0  0  0  0  0  0  0  0  0
    3.6740   -3.9480   24.0590 C   0  0  0  0  0  0  0  0  0  0  0  0
    4.1020   -5.0830   23.1610 C   0  0  0  0  0  0  0  0  0  0  0  0
    3.2330   -6.1620   22.9640 C   0  0  0  0  0  0  0  0  0  0  0  0
    1.9810   -6.1840   23.5890 C   0  0  0  0  0  0  0  0  0  0  0  0
    1.5810   -5.1350   24.4210 C   0  0  0  0  0  0  0  0  0  0  0  0
    2.4080   -4.0340   24.6570 C   0  0  0  0  0  0  0  0  0  0  0  0
    1.9620   -3.0580   25.4690 F   0  0  0  0  0  0  0  0  0  0  0  0
    5.1450   -2.5540   25.4400 N   0  0  0  0  0  0  0  0  0  0  0  0
    5.0280   -3.5220   26.8270 S   0  0  0  0  0  0  0  0  0  0  0  0
    3.6810   -3.3810   27.3380 O   0  0  0  0  0  0  0  0  0  0  0  0
    6.2000   -3.2970   27.6390 O   0  0  0  0  0  0  0  0  0  0  0  0
    5.1880   -5.0130   25.9050 C   0  0  0  0  0  0  0  0  0  0  0  0
    4.1410   -6.1270   25.9130 C   0  0  0  0  0  0  0  0  0  0  0  0
    4.4120   -7.3440   25.0300 C   0  0  0  0  0  0  0  0  0  0  0  0
    5.5910   -7.3680   24.2850 C   0  0  0  0  0  0  0  0  0  0  0  0
    6.5020   -6.3620   24.3150 N   0  0  0  0  0  0  0  0  0  0  0  0
    6.3070   -5.1870   25.1120 C   0  0  0  0  0  0  0  0  0  0  0  0
    5.8910   -1.3740   25.2830 C   0  0  0  0  0  0  0  0  0  0  0  0
   10.0530   -0.9540   22.0490 C   0  0  0  0  0  0  0  0  0  0  0  0
    8.8260   -1.5160   21.3340 C   0  0  0  0  0  0  0  0  0  0  0  0
  1  2  2  3
  1  3  1  0
  3  4  1  0
  4  5  1  0
  5  6  1  0
  6  7  1  0
  7  8  2  0
  7  9  1  0
  9 10  1  0
 11  9  1  0
 11 12  1  0
 11 13  1  0
 11 14  1  0
 14 15  1  0
 15 16  1  0
 16 17  1  0
 17 18  2  0
 18 19  1  0
 19 20  2  0
 20 21  1  0
 21 22  2  0
 22 23  1  0
 19 24  1  0
 23 24  2  0
 24 25  1  0
 18 26  1  0
 26 27  1  0
 27 28  2  0
 27 29  2  0
 27 30  1  0
 30 31  2  0
 31 32  1  0
 32 33  2  0
 33 34  1  0
 30 35  1  0
 34 35  2  0
 16 36  2  0
 26 36  1  0
  6 37  1  0
  3 38  1  0
 37 38  1  0
M  END
