MAK-UNK-6ca90168-13-vinylsulfonamide
     RDKit          3D

 19 20  0  0  0  0  0  0  0  0999 V2000
    7.9310   -3.2610   19.1820 C   0  0  0  0  0  0  0  0  0  0  0  0
    6.8180   -2.3970   18.6250 C   0  0  0  0  0  0  0  0  0  0  0  0
    5.5440   -2.3440   19.8040 S   0  0  0  0  0  0  0  0  0  0  0  0
    4.9200   -3.6370   19.6950 O   0  0  0  0  0  0  0  0  0  0  0  0
    4.8250   -1.1060   19.6370 O   0  0  0  0  0  0  0  0  0  0  0  0
    6.4580   -2.2040   21.2170 N   0  0  0  0  0  0  0  0  0  0  0  0
    7.5000   -1.1880   21.2150 C   0  0  0  0  0  0  0  0  0  0  0  0
    8.7780   -1.7790   21.7960 C   0  0  0  0  0  0  0  0  0  0  0  0
    8.5490   -2.4210   23.0870 N   0  0  0  0  0  0  0  0  0  0  0  0
    9.5560   -2.3100   24.0520 C   0  0  0  0  0  0  0  0  0  0  0  0
   10.5040   -1.3390   23.8050 C   0  0  0  0  0  0  0  0  0  0  0  0
   11.7590   -1.8520   23.4040 C   0  0  0  0  0  0  0  0  0  0  0  0
   12.7930   -0.9730   23.1140 C   0  0  0  0  0  0  0  0  0  0  0  0
   12.6280    0.4440   23.2070 C   0  0  0  0  0  0  0  0  0  0  0  0
   11.2650    1.0160   23.6420 C   0  0  0  0  0  0  0  0  0  0  0  0
   10.9330    2.6890   23.7770 Cl  0  0  0  0  0  0  0  0  0  0  0  0
   10.2520    0.0110   23.9270 C   0  0  0  0  0  0  0  0  0  0  0  0
    7.4600   -3.4090   23.1400 C   0  0  0  0  0  0  0  0  0  0  0  0
    6.2100   -3.0040   22.4260 C   0  0  0  0  0  0  0  0  0  0  0  0
  1  2  1  0
  3  2  1  0
  3  4  2  0
  3  5  2  0
  3  6  1  0
  6  7  1  0
  7  8  1  0
  8  9  1  0
  9 10  1  0
 10 11  1  0
 11 12  2  0
 12 13  1  0
 13 14  2  0
 14 15  1  0
 15 16  1  0
 11 17  1  0
 15 17  2  0
  9 18  1  0
  6 19  1  0
 18 19  1  0
M  END
