MAK-UNK-8fdbca50-11-acrylamide
     RDKit          3D

 40 43  0  0  0  0  0  0  0  0999 V2000
    6.6730   -3.6090   20.1000 C   0  0  0  0  0  0  0  0  0  0  0  0
    6.6520   -2.4990   21.1150 C   0  0  0  0  0  0  0  0  0  0  0  0
    5.7590   -2.8080   22.2990 C   0  0  0  0  0  0  0  0  0  0  0  0
    4.9720   -3.4380   21.5120 O   0  0  0  0  0  0  0  0  0  0  0  0
    6.8360   -2.0480   22.8340 N   0  0  0  0  0  0  0  0  0  0  0  0
    7.6060   -2.4000   23.9270 C   0  0  0  0  0  0  0  0  0  0  0  0
    9.0300   -1.8300   24.0560 C   0  0  0  0  0  0  0  0  0  0  0  0
    9.5290   -1.3230   22.6960 C   0  0  0  0  0  0  0  0  0  0  0  0
   11.0560   -1.0780   23.0250 C   0  0  0  0  0  0  0  0  0  0  0  0
   11.2020   -0.7370   24.1860 O   0  0  0  0  0  0  0  0  0  0  0  0
   12.2040   -1.1860   22.2700 N   0  0  0  0  0  0  0  0  0  0  0  0
   13.2080   -0.6920   23.0740 C   0  0  0  0  0  0  0  0  0  0  0  0
   12.7280   -2.4110   21.7910 C   0  0  1  0  0  0  0  0  0  0  0  0
   11.9400   -2.8710   20.8550 C   0  0  0  0  0  0  0  0  0  0  0  0
   12.7460   -3.2090   20.4270 C   0  0  0  0  0  0  0  0  0  0  0  0
   13.9430   -4.1700   20.1180 C   0  0  0  0  0  0  0  0  0  0  0  0
   15.0910   -3.7550   19.4570 C   0  0  0  0  0  0  0  0  0  0  0  0
   16.1580   -4.4000   19.2600 C   0  0  0  0  0  0  0  0  0  0  0  0
   16.1770   -5.5230   19.7550 C   0  0  0  0  0  0  0  0  0  0  0  0
   15.1310   -6.0660   20.2780 C   0  0  0  0  0  0  0  0  0  0  0  0
   14.0440   -5.3890   20.3610 C   0  0  0  0  0  0  0  0  0  0  0  0
   12.8850   -5.7650   20.5640 C   0  0  0  0  0  0  0  0  0  0  0  0
   12.2620   -6.5810   20.9100 C   0  0  0  0  0  0  0  0  0  0  0  0
   11.1010   -6.3360   20.5840 C   0  0  0  0  0  0  0  0  0  0  0  0
   10.8420   -7.7140   21.0160 C   0  0  0  0  0  0  0  0  0  0  0  0
   10.2410   -8.6220   19.6210 N   0  0  0  0  0  0  0  0  0  0  0  0
    9.8090   -9.9890   18.9610 C   0  0  0  0  0  0  0  0  0  0  0  0
   11.1430   -4.9330   20.1000 C   0  0  0  0  0  0  0  0  0  0  0  0
   12.5370   -4.9020   20.1190 N   0  0  0  0  0  0  0  0  0  0  0  0
   14.1610   -4.4390   19.9290 S   0  0  0  0  0  0  0  0  0  0  0  0
   14.8840   -5.3820   20.7790 O   0  0  0  0  0  0  0  0  0  0  0  0
   13.9540   -3.1320   20.2600 O   0  0  0  0  0  0  0  0  0  0  0  0
   14.7030   -5.0500   18.1770 C   0  0  0  0  0  0  0  0  0  0  0  0
   13.9120   -5.1280   16.9390 C   0  0  0  0  0  0  0  0  0  0  0  0
   14.2800   -5.6250   15.7730 C   0  0  0  0  0  0  0  0  0  0  0  0
   15.4500   -6.1130   15.7660 C   0  0  0  0  0  0  0  0  0  0  0  0
   16.2350   -6.0800   16.8550 N   0  0  0  0  0  0  0  0  0  0  0  0
   15.8430   -5.5450   18.0170 C   0  0  0  0  0  0  0  0  0  0  0  0
    8.5400   -0.2560   22.2000 C   0  0  0  0  0  0  0  0  0  0  0  0
    7.0620   -0.6320   22.4540 C   0  0  0  0  0  0  0  0  0  0  0  0
  1  2  1  0
  2  3  1  0
  3  4  2  0
  3  5  1  0
  5  6  1  0
  6  7  1  0
  7  8  1  0
  8  9  1  0
  9 10  2  0
  9 11  1  0
 11 12  1  0
 11 13  1  0
 13 14  1  1
 13 15  1  0
 15 16  1  0
 16 17  2  0
 17 18  1  0
 18 19  2  0
 19 20  1  0
 16 21  1  0
 20 21  2  0
 21 22  1  0
 22 23  2  0
 23 24  1  0
 24 25  1  0
 25 26  1  0
 26 27  1  0
 24 28  2  0
 22 29  1  0
 28 29  1  0
 29 30  1  0
 30 31  2  0
 30 32  2  0
 30 33  1  0
 33 34  2  0
 34 35  1  0
 35 36  2  0
 36 37  1  0
 33 38  1  0
 37 38  2  0
  8 39  1  0
  5 40  1  0
 39 40  1  0
M  END
