MAK-UNK-ec98eaf6-53-chloroacetamide
     RDKit          3D

 28 31  0  0  0  0  0  0  0  0999 V2000
    7.3310   -3.0790   18.7700 C   0  0  0  0  0  0  0  0  0  0  0  0
    6.2850   -3.3570   19.8590 C   0  0  0  0  0  0  0  0  0  0  0  0
    5.5810   -4.3720   19.8380 O   0  0  0  0  0  0  0  0  0  0  0  0
    6.1390   -2.4190   20.8480 N   0  0  0  0  0  0  0  0  0  0  0  0
    5.7850   -2.7570   22.2420 C   0  0  0  0  0  0  0  0  0  0  0  0
    7.1950   -2.8880   22.8210 C   0  0  1  0  0  0  0  0  0  0  0  0
    7.6270   -2.7650   21.4380 C   0  0  0  0  0  0  0  0  0  0  0  0
    7.0610   -1.3380   21.1140 C   0  0  2  0  0  0  0  0  0  0  0  0
    8.4270   -1.3350   21.7420 C   0  0  0  0  0  0  0  0  0  0  0  0
    7.9770   -1.6880   23.1140 N   0  0  0  0  0  0  0  0  0  0  0  0
    9.0280   -1.9920   24.0220 C   0  0  2  0  0  0  0  0  0  0  0  0
    8.5680   -1.6090   25.3830 C   0  0  0  0  0  0  0  0  0  0  0  0
    7.5050   -2.5560   25.9000 C   0  0  0  0  0  0  0  0  0  0  0  0
    7.7260   -3.6820   25.2110 C   0  0  0  0  0  0  0  0  0  0  0  0
    9.0550   -4.0740   25.2110 C   0  0  0  0  0  0  0  0  0  0  0  0
    9.4320   -5.1560   24.4960 C   0  0  0  0  0  0  0  0  0  0  0  0
    8.4830   -5.8350   23.7890 C   0  0  0  0  0  0  0  0  0  0  0  0
    8.9210   -6.8570   23.0680 C   0  0  0  0  0  0  0  0  0  0  0  0
    7.1370   -5.4910   23.7890 C   0  0  0  0  0  0  0  0  0  0  0  0
    6.7410   -4.3780   24.5260 C   0  0  0  0  0  0  0  0  0  0  0  0
   10.3060   -1.2370   23.7500 C   0  0  0  0  0  0  0  0  0  0  0  0
   10.6480   -0.1280   24.5000 C   0  0  0  0  0  0  0  0  0  0  0  0
   11.8350    0.5490   24.1950 C   0  0  0  0  0  0  0  0  0  0  0  0
   12.7110    0.1830   23.2070 C   0  0  0  0  0  0  0  0  0  0  0  0
   12.3290   -0.9870   22.4510 C   0  0  0  0  0  0  0  0  0  0  0  0
   13.2650   -1.3710   21.3900 C   0  0  0  0  0  0  0  0  0  0  0  0
   13.9100   -1.5870   20.5230 N   0  0  0  0  0  0  0  0  0  0  0  0
   11.1490   -1.6630   22.7270 C   0  0  0  0  0  0  0  0  0  0  0  0
  1  2  1  0
  2  3  2  0
  2  4  1  0
  4  5  1  0
  6  5  1  6
  6  7  1  0
  4  8  1  0
  7  8  1  0
  8  9  1  1
  6 10  1  0
  9 10  1  0
 10 11  1  0
 11 12  1  1
 12 13  1  0
 13 14  1  0
 14 15  2  0
 15 16  1  0
 16 17  2  0
 17 18  1  0
 17 19  1  0
 14 20  1  0
 19 20  2  0
 11 21  1  0
 21 22  2  0
 22 23  1  0
 23 24  2  0
 24 25  1  0
 25 26  1  0
 26 27  3  0
 21 28  1  0
 25 28  2  0
M  END
