MAK-UNK-3e0761f8-3-vinylsulfonamide
     RDKit          3D

 28 31  0  0  0  0  0  0  0  0999 V2000
    7.4120   -3.2050   19.3380 C   0  0  0  0  0  0  0  0  0  0  0  0
    6.0310   -2.5760   19.3110 C   0  0  0  0  0  0  0  0  0  0  0  0
    5.5640   -2.1710   20.9560 S   0  0  0  0  0  0  0  0  0  0  0  0
    4.8990   -3.3480   21.5380 O   0  0  0  0  0  0  0  0  0  0  0  0
    4.8290   -0.9340   20.8200 O   0  0  0  0  0  0  0  0  0  0  0  0
    7.0250   -1.7530   21.7040 N   0  0  0  0  0  0  0  0  0  0  0  0
    7.1190   -0.4970   22.4620 C   0  0  0  0  0  0  0  0  0  0  0  0
    7.8700   -0.9310   23.7240 C   0  0  1  0  0  0  0  0  0  0  0  0
    7.1920   -2.2310   23.7560 C   0  0  0  0  0  0  0  0  0  0  0  0
    7.6730   -2.6130   22.5360 C   0  0  2  0  0  0  0  0  0  0  0  0
    9.0670   -2.3380   22.6500 C   0  0  0  0  0  0  0  0  0  0  0  0
    9.2360   -1.2360   23.5630 C   0  0  1  0  0  0  0  0  0  0  0  0
   10.1220   -0.2040   23.1290 C   0  0  0  0  0  0  0  0  0  0  0  0
    9.6370    0.4160   22.1810 O   0  0  0  0  0  0  0  0  0  0  0  0
   11.4350    0.0940   23.7070 N   0  0  0  0  0  0  0  0  0  0  0  0
   12.5520   -0.6270   23.3230 C   0  0  0  0  0  0  0  0  0  0  0  0
   12.7460    0.6690   22.9450 C   0  0  0  0  0  0  0  0  0  0  0  0
   11.6870    1.5300   23.3640 C   0  0  0  0  0  0  0  0  0  0  0  0
   11.7190    2.9100   23.0650 C   0  0  0  0  0  0  0  0  0  0  0  0
   10.5830    3.6380   23.2620 N   0  0  0  0  0  0  0  0  0  0  0  0
   11.0370    4.9170   22.8540 C   0  0  0  0  0  0  0  0  0  0  0  0
   10.2160    6.0460   22.8680 C   0  0  0  0  0  0  0  0  0  0  0  0
   12.3360    4.8580   22.4680 N   0  0  0  0  0  0  0  0  0  0  0  0
   12.7960    3.5960   22.5930 N   0  0  0  0  0  0  0  0  0  0  0  0
   10.5880    0.9250   24.1180 C   0  0  0  0  0  0  0  0  0  0  0  0
   10.5000   -0.4780   24.4580 C   0  0  0  0  0  0  0  0  0  0  0  0
   11.6590   -1.3260   23.9680 C   0  0  0  0  0  0  0  0  0  0  0  0
   11.5480   -2.7950   24.3450 C   0  0  0  0  0  0  0  0  0  0  0  0
  1  2  1  0
  3  2  1  0
  3  4  2  0
  3  5  2  0
  3  6  1  0
  6  7  1  0
  8  7  1  6
  8  9  1  0
  6 10  1  0
  9 10  1  0
 10 11  1  1
  8 12  1  0
 11 12  1  0
 12 13  1  6
 13 14  2  0
 13 15  1  0
 15 16  1  0
 16 17  2  0
 17 18  1  0
 18 19  1  0
 19 20  2  0
 20 21  1  0
 21 22  1  0
 21 23  2  0
 19 24  1  0
 23 24  1  0
 18 25  2  0
 25 26  1  0
 16 27  1  0
 26 27  2  0
 27 28  1  0
M  END
