MAK-UNK-176ca439-7-acrylamide
     RDKit          3D

 31 34  0  0  0  0  0  0  0  0999 V2000
    7.9920   -3.3790   19.7240 C   0  0  0  0  0  0  0  0  0  0  0  0
    6.9180   -2.6490   19.0080 C   0  0  0  0  0  0  0  0  0  0  0  0
    5.8620   -2.9910   19.9660 C   0  0  0  0  0  0  0  0  0  0  0  0
    5.0400   -3.8840   19.7310 O   0  0  0  0  0  0  0  0  0  0  0  0
    5.9820   -2.2700   21.1360 N   0  0  0  0  0  0  0  0  0  0  0  0
    6.8960   -1.0990   21.2290 C   0  0  0  0  0  0  0  0  0  0  0  0
    8.0870   -1.4470   21.8870 C   0  0  0  0  0  0  0  0  0  0  0  0
    8.0340   -2.0010   23.1470 N   0  0  0  0  0  0  0  0  0  0  0  0
    9.2590   -2.2850   23.8960 C   0  0  0  0  0  0  0  0  0  0  0  0
   10.3880   -1.2820   23.6260 C   0  0  0  0  0  0  0  0  0  0  0  0
   11.7650   -1.7920   23.2190 C   0  0  0  0  0  0  0  0  0  0  0  0
   12.8270   -0.7770   22.9720 C   0  0  0  0  0  0  0  0  0  0  0  0
   12.5230    0.6820   23.1250 C   0  0  0  0  0  0  0  0  0  0  0  0
   11.2120    1.0880   23.5040 C   0  0  0  0  0  0  0  0  0  0  0  0
   10.8970    2.4310   23.6480 C   0  0  0  0  0  0  0  0  0  0  0  0
   11.7320    3.3080   22.9710 C   0  0  0  0  0  0  0  0  0  0  0  0
   11.7530    4.6560   23.3290 C   0  0  0  0  0  0  0  0  0  0  0  0
   11.0190    4.8610   24.5930 N   0  0  0  0  0  0  0  0  0  0  0  0
   11.3710    6.1580   25.1730 C   0  0  0  0  0  0  0  0  0  0  0  0
   11.7140    7.2650   24.2490 C   0  0  0  0  0  0  0  0  0  0  0  0
   11.9970    8.3430   25.0080 N   0  0  0  0  0  0  0  0  0  0  0  0
   11.8760    8.0440   26.3900 C   0  0  0  0  0  0  0  0  0  0  0  0
   12.0900    8.8870   27.4870 C   0  0  0  0  0  0  0  0  0  0  0  0
   11.9110    8.3980   28.9030 C   0  0  0  0  0  0  0  0  0  0  0  0
   11.5240    7.0850   29.1110 C   0  0  0  0  0  0  0  0  0  0  0  0
   11.3470    6.6000   30.3500 F   0  0  0  0  0  0  0  0  0  0  0  0
   11.3100    6.2270   27.8680 C   0  0  0  0  0  0  0  0  0  0  0  0
   11.4820    6.6920   26.5730 C   0  0  0  0  0  0  0  0  0  0  0  0
   10.1930    0.1170   23.7430 C   0  0  0  0  0  0  0  0  0  0  0  0
    7.1960   -3.2160   23.1070 C   0  0  0  0  0  0  0  0  0  0  0  0
    5.8440   -3.0180   22.3920 C   0  0  0  0  0  0  0  0  0  0  0  0
  1  2  1  0
  2  3  1  0
  3  4  2  0
  3  5  1  0
  5  6  1  0
  6  7  1  0
  7  8  1  0
  8  9  1  0
  9 10  1  0
 10 11  2  0
 11 12  1  0
 12 13  2  0
 13 14  1  0
 14 15  1  0
 15 16  1  0
 16 17  1  0
 17 18  1  0
 18 19  1  0
 19 20  2  0
 20 21  1  0
 21 22  1  0
 22 23  1  0
 23 24  2  0
 24 25  1  0
 25 26  1  0
 25 27  2  0
 19 28  1  0
 22 28  2  0
 27 28  1  0
 10 29  1  0
 14 29  2  0
  8 30  1  0
  5 31  1  0
 30 31  1  0
M  END
