MAK-UNK-1bb0b7ee-3
     RDKit          3D

 27 28  0  0  0  0  0  0  0  0999 V2000
    1.4150   -8.7800   27.3020 C   0  0  0  0  0  0  0  0  0  0  0  0
    1.9520   -9.1000   25.9030 C   0  0  0  0  0  0  0  0  0  0  0  0
    3.1220   -8.9520   25.5770 O   0  0  0  0  0  0  0  0  0  0  0  0
    0.9410   -9.5720   24.9910 N   0  0  0  0  0  0  0  0  0  0  0  0
    0.2770   -8.5900   24.2440 C   0  0  2  0  0  0  0  0  0  0  0  0
   -0.8680   -8.9700   23.5080 C   0  0  0  0  0  0  0  0  0  0  0  0
   -1.6280   -8.1420   23.0060 O   0  0  0  0  0  0  0  0  0  0  0  0
   -1.0740  -10.3280   23.4030 N   0  0  0  0  0  0  0  0  0  0  0  0
   -1.2510  -10.9700   22.1200 C   0  0  0  0  0  0  0  0  0  0  0  0
   -2.5310  -10.7070   21.6630 C   0  0  0  0  0  0  0  0  0  0  0  0
   -2.6700   -9.6310   20.6530 C   0  0  0  0  0  0  0  0  0  0  0  0
   -2.8830   -8.2470   19.3560 Br  0  0  0  0  0  0  0  0  0  0  0  0
    1.2240   -7.8660   23.4930 C   0  0  2  0  0  0  0  0  0  0  0  0
    1.1390   -8.2410   22.0130 C   0  0  0  0  0  0  0  0  0  0  0  0
    2.5850   -8.1510   23.9000 O   0  0  0  0  0  0  0  0  0  0  0  0
    3.3090   -7.2450   24.7890 C   0  0  0  0  0  0  0  0  0  0  0  0
    3.4440   -5.8000   24.3700 C   0  0  0  0  0  0  0  0  0  0  0  0
    4.8370   -5.4670   23.9480 C   0  0  0  0  0  0  0  0  0  0  0  0
    5.4470   -6.0340   22.7190 C   0  0  0  0  0  0  0  0  0  0  0  0
    6.7490   -5.8100   22.0990 C   0  0  0  0  0  0  0  0  0  0  0  0
    7.5040   -4.8010   22.9470 C   0  0  0  0  0  0  0  0  0  0  0  0
    6.8820   -4.2870   24.1260 C   0  0  0  0  0  0  0  0  0  0  0  0
    5.6270   -4.5870   24.6270 N   0  0  0  0  0  0  0  0  0  0  0  0
    2.9060   -4.6720   25.2720 C   0  0  0  0  0  0  0  0  0  0  0  0
    3.2000   -3.5800   24.4640 C   0  0  0  0  0  0  0  0  0  0  0  0
    3.6040   -4.0710   23.0760 C   0  0  0  0  0  0  0  0  0  0  0  0
    2.7450   -5.3730   23.1250 C   0  0  0  0  0  0  0  0  0  0  0  0
  1  2  1  0
  2  3  2  0
  2  4  1  0
  5  4  1  6
  5  6  1  0
  6  7  2  0
  6  8  1  0
  8  9  1  0
  9 10  1  0
 10 11  3  0
 11 12  1  0
  5 13  1  0
 13 14  1  6
 13 15  1  0
 15 16  1  0
 17 16  1  0
 17 18  1  0
 18 19  2  0
 19 20  1  0
 20 21  2  0
 21 22  1  0
 18 23  1  0
 22 23  2  0
 17 24  1  0
 24 25  1  0
 25 26  1  0
 17 27  1  0
 26 27  1  0
M  END
