MAK-UNK-af83ef51-29-nitrile
     RDKit          3D

 28 31  0  0  0  0  0  0  0  0999 V2000
    6.7910   -3.2980   19.5010 C   0  0  0  0  0  0  0  0  0  0  0  0
    5.9270   -3.0730   18.6030 N   0  0  0  0  0  0  0  0  0  0  0  0
    6.8400   -2.8000   20.7630 N   0  0  0  0  0  0  0  0  0  0  0  0
    6.5580   -3.4470   21.9740 C   0  0  0  0  0  0  0  0  0  0  0  0
    7.5060   -3.5010   23.0060 C   0  0  0  0  0  0  0  0  0  0  0  0
    8.3080   -2.2730   23.1800 N   0  0  0  0  0  0  0  0  0  0  0  0
    9.3970   -2.3380   24.1660 C   0  0  0  0  0  0  0  0  0  0  0  0
   10.3570   -1.3650   23.9230 C   0  0  0  0  0  0  0  0  0  0  0  0
   11.6810   -1.6320   23.6120 C   0  0  0  0  0  0  0  0  0  0  0  0
   12.2600   -2.8420   23.5560 C   0  0  0  0  0  0  0  0  0  0  0  0
   12.5850   -0.4720   23.2690 C   0  0  0  0  0  0  0  0  0  0  0  0
   12.1620    0.9000   23.2630 N   0  0  0  0  0  0  0  0  0  0  0  0
   10.7720    0.9980   23.6710 C   0  0  0  0  0  0  0  0  0  0  0  0
    9.8790    2.1230   23.8530 C   0  0  0  0  0  0  0  0  0  0  0  0
   10.5740    3.3640   23.4860 C   0  0  0  0  0  0  0  0  0  0  0  0
   11.7510    3.6600   23.0880 C   0  0  0  0  0  0  0  0  0  0  0  0
   12.9550    3.3040   22.7730 C   0  0  0  0  0  0  0  0  0  0  0  0
   12.5870    4.7930   22.6450 C   0  0  0  0  0  0  0  0  0  0  0  0
   13.6890    5.5000   22.1320 N   0  0  0  0  0  0  0  0  0  0  0  0
   13.9930    4.7760   21.0130 C   0  0  0  0  0  0  0  0  0  0  0  0
   12.7280    4.4610   20.3770 C   0  0  0  0  0  0  0  0  0  0  0  0
   11.3300    5.4290   22.9410 N   0  0  0  0  0  0  0  0  0  0  0  0
   10.2460    4.6340   23.3920 C   0  0  0  0  0  0  0  0  0  0  0  0
    8.6290    1.8080   24.2780 N   0  0  0  0  0  0  0  0  0  0  0  0
    8.7050    0.4840   24.3450 C   0  0  0  0  0  0  0  0  0  0  0  0
    9.9360   -0.0470   23.9870 N   0  0  0  0  0  0  0  0  0  0  0  0
    8.6800   -1.6520   21.8940 C   0  0  0  0  0  0  0  0  0  0  0  0
    7.4650   -1.4890   20.9660 C   0  0  0  0  0  0  0  0  0  0  0  0
  1  2  2  3
  1  3  1  0
  3  4  1  0
  4  5  1  0
  5  6  1  0
  6  7  1  0
  7  8  1  0
  8  9  2  0
  9 10  1  0
  9 11  1  0
 11 12  2  0
 12 13  1  0
 13 14  2  0
 14 15  1  0
 15 16  2  0
 16 17  1  0
 17 18  2  0
 18 19  1  0
 19 20  1  0
 20 21  1  0
 18 22  1  0
 15 23  1  0
 22 23  2  0
 14 24  1  0
 24 25  2  0
  8 26  1  0
 13 26  1  0
 25 26  1  0
  6 27  1  0
  3 28  1  0
 27 28  1  0
M  END
