MAK-UNK-9159f8ed-7
     RDKit          3D

 26 28  0  0  0  0  0  0  0  0999 V2000
   13.2020   -1.0920   22.2640 C   0  0  0  0  0  0  0  0  0  0  0  0
   11.5940   -1.5090   22.8730 S   0  0  0  0  0  0  0  0  0  0  0  0
   11.7420   -2.0710   24.2030 O   0  0  0  0  0  0  0  0  0  0  0  0
   10.9550   -2.2640   21.8210 O   0  0  0  0  0  0  0  0  0  0  0  0
   10.8140    0.0020   22.9230 N   0  0  0  0  0  0  0  0  0  0  0  0
    9.5640    0.1490   22.2730 C   0  0  0  0  0  0  0  0  0  0  0  0
    9.0280    1.5280   21.9040 C   0  0  0  0  0  0  0  0  0  0  0  0
    7.6870    1.6460   21.2070 C   0  0  0  0  0  0  0  0  0  0  0  0
    6.9130    0.3860   20.8950 C   0  0  0  0  0  0  0  0  0  0  0  0
    7.5390   -0.9390   21.3090 C   0  0  0  0  0  0  0  0  0  0  0  0
    6.6710   -2.1470   20.9480 C   0  0  0  0  0  0  0  0  0  0  0  0
    7.2830   -3.0840   20.1110 O   0  0  0  0  0  0  0  0  0  0  0  0
    5.4110   -2.1290   21.4930 O   0  0  0  0  0  0  0  0  0  0  0  0
    5.1650   -3.1900   22.3640 C   0  0  0  0  0  0  0  0  0  0  0  0
    5.4060   -4.6460   21.9990 C   0  0  0  0  0  0  0  0  0  0  0  0
    5.1640   -5.7200   22.8670 C   0  0  0  0  0  0  0  0  0  0  0  0
    4.6280   -5.3960   24.2630 C   0  0  0  0  0  0  0  0  0  0  0  0
    4.4500   -4.0320   24.4740 C   0  0  0  0  0  0  0  0  0  0  0  0
    3.9840   -4.0300   25.7500 N   0  0  0  0  0  0  0  0  0  0  0  0
    2.5030   -4.1200   25.7250 C   0  0  0  0  0  0  0  0  0  0  0  0
    2.0850   -3.0020   26.4800 C   0  0  0  0  0  0  0  0  0  0  0  0
    3.1460   -2.4380   27.1690 C   0  0  0  0  0  0  0  0  0  0  0  0
    4.3990   -3.1180   26.7340 C   0  0  0  0  0  0  0  0  0  0  0  0
    5.5030   -2.8720   27.1850 O   0  0  0  0  0  0  0  0  0  0  0  0
    4.6790   -2.9370   23.6290 C   0  0  0  0  0  0  0  0  0  0  0  0
    8.8020   -1.0060   21.9610 C   0  0  0  0  0  0  0  0  0  0  0  0
  1  2  1  0
  2  3  2  0
  2  4  2  0
  2  5  1  0
  5  6  1  0
  6  7  2  0
  7  8  1  0
  8  9  2  0
  9 10  1  0
 10 11  1  0
 11 12  2  0
 11 13  1  0
 13 14  1  0
 14 15  2  0
 15 16  1  0
 16 17  2  0
 17 18  1  0
 18 19  1  0
 19 20  1  0
 20 21  1  0
 21 22  1  0
 19 23  1  0
 22 23  1  0
 23 24  2  0
 14 25  1  0
 18 25  2  0
  6 26  1  0
 10 26  2  0
M  END
