MAK-UNK-750cfbcc-4-acrylamide
     RDKit          3D

 19 20  0  0  0  0  0  0  0  0999 V2000
    7.1330   -2.8780   18.6730 C   0  0  0  0  0  0  0  0  0  0  0  0
    6.1210   -2.5360   19.7420 C   0  0  0  0  0  0  0  0  0  0  0  0
    5.7620   -3.8080   20.4980 C   0  0  0  0  0  0  0  0  0  0  0  0
    5.1450   -4.6840   19.9090 O   0  0  0  0  0  0  0  0  0  0  0  0
    6.2640   -3.9020   21.7760 N   0  0  0  0  0  0  0  0  0  0  0  0
    6.1150   -5.0640   22.5620 C   0  0  0  0  0  0  0  0  0  0  0  0
    5.9990   -4.9080   23.9390 C   0  0  0  0  0  0  0  0  0  0  0  0
    6.0960   -3.5760   24.3130 C   0  0  0  0  0  0  0  0  0  0  0  0
    5.8140   -3.2170   25.6190 C   0  0  0  0  0  0  0  0  0  0  0  0
    4.8010   -2.5260   25.7720 O   0  0  0  0  0  0  0  0  0  0  0  0
    6.5630   -3.5740   26.6810 N   0  0  0  0  0  0  0  0  0  0  0  0
    6.0330   -3.2120   27.8810 C   0  0  0  0  0  0  0  0  0  0  0  0
    5.7370   -4.4030   28.7750 C   0  0  0  0  0  0  0  0  0  0  0  0
    6.7140   -5.5430   28.8490 C   0  0  0  0  0  0  0  0  0  0  0  0
    7.8720   -5.3860   27.8580 C   0  0  2  0  0  0  0  0  0  0  0  0
    9.0620   -4.6520   27.9520 C   0  0  0  0  0  0  0  0  0  0  0  0
    7.1820   -4.8970   26.6000 C   0  0  0  0  0  0  0  0  0  0  0  0
    7.3390   -2.8950   23.7400 C   0  0  0  0  0  0  0  0  0  0  0  0
    7.3830   -3.0600   22.2300 C   0  0  0  0  0  0  0  0  0  0  0  0
  1  2  1  0
  2  3  1  0
  3  4  2  0
  3  5  1  0
  5  6  1  0
  6  7  1  0
  7  8  1  0
  8  9  1  0
  9 10  2  0
  9 11  1  0
 11 12  1  0
 12 13  1  0
 13 14  1  0
 14 15  1  0
 15 16  1  1
 11 17  1  0
 15 17  1  0
  8 18  1  0
  5 19  1  0
 18 19  1  0
M  END
