MAK-UNK-ec98eaf6-6-chloroacetamide
     RDKit          3D

 25 28  0  0  0  0  0  0  0  0999 V2000
    7.3780   -3.0380   18.7720 C   0  0  0  0  0  0  0  0  0  0  0  0
    6.3800   -3.3510   19.8960 C   0  0  0  0  0  0  0  0  0  0  0  0
    5.5280   -4.2400   19.7820 O   0  0  0  0  0  0  0  0  0  0  0  0
    6.4530   -2.6070   21.0360 N   0  0  0  0  0  0  0  0  0  0  0  0
    7.4400   -1.5530   21.1340 C   0  0  0  0  0  0  0  0  0  0  0  0
    8.3730   -2.3670   22.0380 C   0  0  2  0  0  0  0  0  0  0  0  0
    7.5220   -3.6680   22.0210 C   0  0  0  0  0  0  0  0  0  0  0  0
    6.1900   -3.0020   22.4370 C   0  0  1  0  0  0  0  0  0  0  0  0
    7.1120   -3.3100   23.6420 C   0  0  0  0  0  0  0  0  0  0  0  0
    8.1360   -2.2660   23.4640 N   0  0  0  0  0  0  0  0  0  0  0  0
    9.1950   -2.3060   24.4470 C   0  0  2  0  0  0  0  0  0  0  0  0
    8.5170   -2.1050   25.7990 C   0  0  0  0  0  0  0  0  0  0  0  0
    7.9780   -3.1950   26.5280 C   0  0  0  0  0  0  0  0  0  0  0  0
    7.3400   -2.9940   27.7560 C   0  0  0  0  0  0  0  0  0  0  0  0
    7.2290   -1.7040   28.2650 C   0  0  0  0  0  0  0  0  0  0  0  0
    6.4420   -1.3890   29.7580 Cl  0  0  0  0  0  0  0  0  0  0  0  0
    7.7530   -0.6390   27.5590 C   0  0  0  0  0  0  0  0  0  0  0  0
    8.3940   -0.8240   26.3400 C   0  0  0  0  0  0  0  0  0  0  0  0
   10.3970   -1.4330   24.0110 C   0  0  0  0  0  0  0  0  0  0  0  0
   10.6620   -0.1530   24.5720 C   0  0  0  0  0  0  0  0  0  0  0  0
   11.7420    0.6380   24.1480 C   0  0  0  0  0  0  0  0  0  0  0  0
   12.6050    0.1930   23.1610 C   0  0  0  0  0  0  0  0  0  0  0  0
   12.3250   -1.0570   22.6330 C   0  0  0  0  0  0  0  0  0  0  0  0
   13.3370   -1.6480   21.4100 Cl  0  0  0  0  0  0  0  0  0  0  0  0
   11.2570   -1.9000   23.0130 C   0  0  0  0  0  0  0  0  0  0  0  0
  1  2  1  0
  2  3  2  0
  2  4  1  0
  4  5  1  0
  6  5  1  6
  6  7  1  0
  4  8  1  0
  7  8  1  0
  8  9  1  1
  6 10  1  0
  9 10  1  0
 10 11  1  0
 11 12  1  1
 12 13  2  0
 13 14  1  0
 14 15  2  0
 15 16  1  0
 15 17  1  0
 12 18  1  0
 17 18  2  0
 11 19  1  0
 19 20  2  0
 20 21  1  0
 21 22  2  0
 22 23  1  0
 23 24  1  0
 19 25  1  0
 23 25  2  0
M  END
