MAK-UNK-72659d64-14-acrylamide
     RDKit          3D

 20 20  0  0  0  0  0  0  0  0999 V2000
    7.2840   -3.7710   20.1810 C   0  0  0  0  0  0  0  0  0  0  0  0
    7.1430   -4.8410   21.2560 C   0  0  0  0  0  0  0  0  0  0  0  0
    5.6810   -5.1270   21.3220 C   0  0  0  0  0  0  0  0  0  0  0  0
    5.0820   -5.2500   20.2450 O   0  0  0  0  0  0  0  0  0  0  0  0
    5.0680   -5.2030   22.5720 N   0  0  0  0  0  0  0  0  0  0  0  0
    4.5060   -6.4950   23.0000 C   0  0  0  0  0  0  0  0  0  0  0  0
    5.4980   -4.4490   23.5990 C   0  0  0  0  0  0  0  0  0  0  0  0
    5.6040   -3.6070   22.4400 C   0  0  0  0  0  0  0  0  0  0  0  0
    6.0130   -2.3030   22.1160 C   0  0  0  0  0  0  0  0  0  0  0  0
    5.9630   -1.8280   20.7920 N   0  0  0  0  0  0  0  0  0  0  0  0
    5.2530   -2.4920   19.7660 C   0  0  0  0  0  0  0  0  0  0  0  0
    6.7130   -0.7270   20.4210 C   0  0  0  0  0  0  0  0  0  0  0  0
    7.3570    0.0060   21.1700 O   0  0  0  0  0  0  0  0  0  0  0  0
    6.7190   -0.4320   19.0570 C   0  0  0  0  0  0  0  0  0  0  0  0
    5.7210    1.0150   18.8270 Cl  0  0  0  0  0  0  0  0  0  0  0  0
    6.4520   -1.5190   23.1060 N   0  0  0  0  0  0  0  0  0  0  0  0
    6.3950   -2.2200   24.2910 C   0  0  0  0  0  0  0  0  0  0  0  0
    6.8130   -1.5550   25.4480 C   0  0  0  0  0  0  0  0  0  0  0  0
    6.2620   -1.8320   26.5820 N   0  0  0  0  0  0  0  0  0  0  0  0
    5.9720   -3.5020   24.4720 N   0  0  0  0  0  0  0  0  0  0  0  0
  1  2  1  0
  2  3  1  0
  3  4  2  0
  3  5  1  0
  5  6  1  0
  5  7  1  0
  7  8  2  0
  8  9  1  0
  9 10  1  0
 10 11  1  0
 10 12  1  0
 12 13  2  0
 12 14  1  0
 14 15  1  0
  9 16  2  0
 16 17  1  0
 17 18  1  0
 18 19  3  0
  7 20  1  0
 17 20  2  0
M  END
