MAK-UNK-e4a48a85-10
     RDKit          3D

 26 28  0  0  0  0  0  0  0  0999 V2000
   10.6850    2.7030   23.8870 C   0  0  0  0  0  0  0  0  0  0  0  0
   11.1620    1.3180   23.6250 C   0  0  0  0  0  0  0  0  0  0  0  0
   12.5250    1.0760   22.9440 C   0  0  0  0  0  0  0  0  0  0  0  0
   12.9650   -0.3770   22.6600 C   0  0  0  0  0  0  0  0  0  0  0  0
   12.0680   -1.5600   23.0520 C   0  0  0  0  0  0  0  0  0  0  0  0
   10.7540   -1.1890   23.7390 C   0  0  0  0  0  0  0  0  0  0  0  0
    9.8580   -2.3900   24.1540 C   0  0  0  0  0  0  0  0  0  0  0  0
    8.5460   -2.1380   23.6010 N   0  0  0  0  0  0  0  0  0  0  0  0
    8.6210   -1.4080   22.3070 C   0  0  0  0  0  0  0  0  0  0  0  0
    7.8590   -2.2440   21.2870 C   0  0  2  0  0  0  0  0  0  0  0  0
    6.8900   -1.5060   20.6680 N   0  0  0  0  0  0  0  0  0  0  0  0
    5.7010   -1.1560   21.3180 C   0  0  0  0  0  0  0  0  0  0  0  0
    5.1660   -2.2520   22.2100 C   0  0  0  0  0  0  0  0  0  0  0  0
    5.4570   -3.5490   21.4450 C   0  0  0  0  0  0  0  0  0  0  0  0
    4.6320   -4.4150   21.6940 O   0  0  0  0  0  0  0  0  0  0  0  0
    5.3990   -3.2470   19.9290 C   0  0  0  0  0  0  0  0  0  0  0  0
    6.5450   -2.3170   19.5160 C   0  0  0  0  0  0  0  0  0  0  0  0
    7.2410   -3.3480   21.9010 C   0  0  0  0  0  0  0  0  0  0  0  0
    7.8590   -3.3940   23.3220 C   0  0  2  0  0  0  0  0  0  0  0  0
    6.9160   -3.8280   24.4440 C   0  0  0  0  0  0  0  0  0  0  0  0
    6.5110   -2.7390   25.2770 O   0  0  0  0  0  0  0  0  0  0  0  0
    6.5160   -5.0970   24.6480 N   0  0  0  0  0  0  0  0  0  0  0  0
    7.0890   -5.8620   25.7960 C   0  0  0  0  0  0  0  0  0  0  0  0
    8.4460   -5.4000   26.3250 C   0  0  0  0  0  0  0  0  0  0  0  0
    9.4550   -6.3910   26.0740 O   0  0  0  0  0  0  0  0  0  0  0  0
   10.3690    0.2770   23.9890 C   0  0  0  0  0  0  0  0  0  0  0  0
  1  2  1  0
  2  3  2  0
  3  4  1  0
  4  5  2  0
  5  6  1  0
  6  7  1  0
  7  8  1  0
  8  9  1  0
  9 10  1  0
 10 11  1  1
 11 12  1  0
 12 13  1  0
 13 14  1  0
 14 15  1  0
 14 16  1  0
 11 17  1  0
 16 17  1  0
 10 18  1  0
  8 19  1  0
 18 19  1  0
 19 20  1  1
 20 21  2  0
 20 22  1  0
 22 23  1  0
 23 24  1  0
 24 25  1  0
  2 26  1  0
  6 26  2  0
M  END
