MAK-UNK-3c359d2a-1-nitrile
     RDKit          3D

 24 26  0  0  0  0  0  0  0  0999 V2000
    6.6910   -3.3810   19.5940 C   0  0  0  0  0  0  0  0  0  0  0  0
    5.8160   -3.1000   18.7310 N   0  0  0  0  0  0  0  0  0  0  0  0
    6.7330   -2.6600   20.7660 N   0  0  0  0  0  0  0  0  0  0  0  0
    6.2780   -3.2160   22.0480 C   0  0  0  0  0  0  0  0  0  0  0  0
    7.4720   -3.3320   23.0210 C   0  0  0  0  0  0  0  0  0  0  0  0
    8.2550   -2.0880   23.1480 N   0  0  0  0  0  0  0  0  0  0  0  0
    9.4250   -2.3020   23.9970 C   0  0  0  0  0  0  0  0  0  0  0  0
   10.5640   -1.3160   23.7010 C   0  0  0  0  0  0  0  0  0  0  0  0
   11.8590   -1.8020   23.0950 C   0  0  0  0  0  0  0  0  0  0  0  0
   12.9370   -0.7770   22.8300 C   0  0  0  0  0  0  0  0  0  0  0  0
   12.6880    0.5680   23.1570 C   0  0  0  0  0  0  0  0  0  0  0  0
   11.4880    0.9850   23.7130 C   0  0  0  0  0  0  0  0  0  0  0  0
   11.1750    2.2750   24.0520 O   0  0  0  0  0  0  0  0  0  0  0  0
   10.9740    3.2010   22.9740 C   0  0  1  0  0  0  0  0  0  0  0  0
    9.6630    2.9910   22.5100 C   0  0  0  0  0  0  0  0  0  0  0  0
    8.7250    3.7290   23.2500 C   0  0  0  0  0  0  0  0  0  0  0  0
    9.1400    4.0820   24.5290 C   0  0  0  0  0  0  0  0  0  0  0  0
   10.1680    5.0080   24.4770 C   0  0  1  0  0  0  0  0  0  0  0  0
   10.8280    5.0580   25.5070 O   0  0  0  0  0  0  0  0  0  0  0  0
   10.0770    5.3020   26.7020 C   0  0  0  0  0  0  0  0  0  0  0  0
   11.1420    4.5670   23.3900 C   0  0  0  0  0  0  0  0  0  0  0  0
   10.4610    0.0650   23.9730 C   0  0  0  0  0  0  0  0  0  0  0  0
    8.6120   -1.4970   21.8420 C   0  0  0  0  0  0  0  0  0  0  0  0
    7.4300   -1.3800   20.8700 C   0  0  0  0  0  0  0  0  0  0  0  0
  1  2  2  3
  1  3  1  0
  3  4  1  0
  4  5  1  0
  5  6  1  0
  6  7  1  0
  7  8  1  0
  8  9  2  0
  9 10  1  0
 10 11  2  0
 11 12  1  0
 12 13  1  0
 14 13  1  1
 14 15  1  0
 15 16  1  0
 16 17  1  0
 17 18  1  0
 18 19  1  1
 19 20  1  0
 14 21  1  0
 18 21  1  0
  8 22  1  0
 12 22  2  0
  6 23  1  0
  3 24  1  0
 23 24  1  0
M  END
