MAK-UNK-516d8086-19-vinylsulfonamide
     RDKit          3D

 25 27  0  0  0  0  0  0  0  0999 V2000
    6.8890   -3.4730   19.6470 C   0  0  0  0  0  0  0  0  0  0  0  0
    6.6740   -3.7200   21.1780 C   0  0  0  0  0  0  0  0  0  0  0  0
    5.9600   -2.6690   22.4120 S   0  0  0  0  0  0  0  0  0  0  0  0
    4.6900   -3.1680   21.7020 O   0  0  0  0  0  0  0  0  0  0  0  0
    5.5390   -3.0880   23.8520 O   0  0  0  0  0  0  0  0  0  0  0  0
    7.7090   -2.9860   23.2460 C   0  0  0  0  0  0  0  0  0  0  0  0
    7.7230   -4.3130   23.9370 C   0  0  0  0  0  0  0  0  0  0  0  0
    8.8020   -4.8950   24.5880 N   0  0  0  0  0  0  0  0  0  0  0  0
   10.0360   -4.2720   24.5840 C   0  0  0  0  0  0  0  0  0  0  0  0
   11.3460   -4.8060   25.2840 N   0  0  0  0  0  0  0  0  0  0  0  0
   12.3000   -3.8660   25.9780 C   0  0  0  0  0  0  0  0  0  0  0  0
   13.6430   -3.6250   25.2550 C   0  0  0  0  0  0  0  0  0  0  0  0
   10.0990   -2.8730   23.8780 C   0  0  0  0  0  0  0  0  0  0  0  0
   11.4210   -2.0820   23.9680 C   0  0  0  0  0  0  0  0  0  0  0  0
   11.0680   -0.6780   23.8290 C   0  0  0  0  0  0  0  0  0  0  0  0
   10.8060   -0.6250   25.2120 C   0  0  0  0  0  0  0  0  0  0  0  0
   11.3300   -1.7500   25.1640 C   0  0  0  0  0  0  0  0  0  0  0  0
   11.5830   -1.7480   23.7700 C   0  0  0  0  0  0  0  0  0  0  0  0
   10.9830   -0.2880   23.7080 C   0  0  0  0  0  0  0  0  0  0  0  0
   11.3210   -0.7300   22.4950 N   0  0  0  0  0  0  0  0  0  0  0  0
   10.8800   -0.5870   25.2370 C   0  0  0  0  0  0  0  0  0  0  0  0
   10.8060   -0.8430   26.3600 O   0  0  0  0  0  0  0  0  0  0  0  0
   10.8670   -2.1630   25.1380 N   0  0  0  0  0  0  0  0  0  0  0  0
   11.9550   -2.8050   24.4140 C   0  0  0  0  0  0  0  0  0  0  0  0
    8.9350   -2.3430   23.2350 C   0  0  0  0  0  0  0  0  0  0  0  0
  1  2  1  0
  3  2  1  0
  3  4  2  0
  3  5  2  0
  3  6  1  0
  6  7  2  0
  7  8  1  0
  8  9  2  0
  9 10  1  0
 10 11  1  0
 11 12  1  0
  9 13  1  0
 13 14  1  0
 14 15  1  0
 15 16  2  0
 16 17  1  0
 17 18  2  0
 18 19  1  0
 15 20  1  0
 19 20  2  0
 19 21  1  0
 21 22  2  0
 21 23  1  0
 18 24  1  0
 23 24  1  0
  6 25  1  0
 13 25  2  0
M  END
