MAK-UNK-212f693e-12-vinylsulfonamide
     RDKit          3D

 17 18  0  0  0  0  0  0  0  0999 V2000
    6.7200   -3.8490   20.2870 C   0  0  0  0  0  0  0  0  0  0  0  0
    7.1330   -3.3200   21.6750 C   0  0  0  0  0  0  0  0  0  0  0  0
    5.7120   -2.6710   22.4830 S   0  0  0  0  0  0  0  0  0  0  0  0
    4.6020   -3.0750   21.6760 O   0  0  0  0  0  0  0  0  0  0  0  0
    5.9480   -1.2730   22.7590 O   0  0  0  0  0  0  0  0  0  0  0  0
    5.4980   -3.4740   23.9280 N   0  0  0  0  0  0  0  0  0  0  0  0
    4.1080   -3.6520   24.3030 C   0  0  0  0  0  0  0  0  0  0  0  0
    3.9510   -4.2190   25.7080 C   0  0  0  0  0  0  0  0  0  0  0  0
    5.2780   -4.6880   26.2400 C   0  0  1  0  0  0  0  0  0  0  0  0
    5.7040   -5.8570   25.7120 O   0  0  0  0  0  0  0  0  0  0  0  0
    5.8180   -5.9430   24.2780 C   0  0  0  0  0  0  0  0  0  0  0  0
    7.0240   -5.7200   23.6310 C   0  0  0  0  0  0  0  0  0  0  0  0
    7.0030   -5.8390   22.2590 C   0  0  0  0  0  0  0  0  0  0  0  0
    5.4800   -6.2410   21.6090 S   0  0  0  0  0  0  0  0  0  0  0  0
    4.7940   -6.2700   23.1800 C   0  0  0  0  0  0  0  0  0  0  0  0
    6.3810   -3.8280   26.0710 C   0  0  0  0  0  0  0  0  0  0  0  0
    6.3770   -3.0000   24.9300 N   0  0  0  0  0  0  0  0  0  0  0  0
  1  2  1  0
  3  2  1  0
  3  4  2  0
  3  5  2  0
  3  6  1  0
  6  7  1  0
  7  8  1  0
  8  9  1  0
  9 10  1  6
 10 11  1  0
 11 12  1  0
 12 13  2  0
 13 14  1  0
 11 15  2  0
 14 15  1  0
  9 16  1  0
  6 17  1  0
 16 17  1  0
M  END
