MAK-UNK-8fdbca50-23-acrylamide
     RDKit          3D

 40 43  0  0  0  0  0  0  0  0999 V2000
    7.5500   -3.0360   19.1890 C   0  0  0  0  0  0  0  0  0  0  0  0
    6.1850   -2.3560   19.1520 C   0  0  0  0  0  0  0  0  0  0  0  0
    5.3580   -2.8630   20.2960 C   0  0  0  0  0  0  0  0  0  0  0  0
    4.7270   -2.9960   21.3330 O   0  0  0  0  0  0  0  0  0  0  0  0
    5.5640   -1.5290   20.6670 N   0  0  0  0  0  0  0  0  0  0  0  0
    6.8140   -0.7990   20.4590 C   0  0  0  0  0  0  0  0  0  0  0  0
    7.5970   -1.1900   21.7410 C   0  0  0  0  0  0  0  0  0  0  0  0
    6.7570   -0.5560   22.8770 C   0  0  0  0  0  0  0  0  0  0  0  0
    6.3910   -1.8960   23.5240 C   0  0  0  0  0  0  0  0  0  0  0  0
    5.2780   -2.1910   23.9730 O   0  0  0  0  0  0  0  0  0  0  0  0
    7.6330   -2.7050   23.4920 N   0  0  0  0  0  0  0  0  0  0  0  0
    8.8310   -1.8960   23.5730 C   0  0  0  0  0  0  0  0  0  0  0  0
    9.9460   -2.2280   22.6280 C   0  0  0  0  0  0  0  0  0  0  0  0
   11.1770   -1.4060   22.7270 C   0  0  0  0  0  0  0  0  0  0  0  0
   11.2190   -0.3700   23.6880 C   0  0  0  0  0  0  0  0  0  0  0  0
   12.6930    0.5640   23.8630 S   0  0  0  0  0  0  0  0  0  0  0  0
   13.6300   -0.1840   23.0610 O   0  0  0  0  0  0  0  0  0  0  0  0
   12.7700    0.3820   25.2510 O   0  0  0  0  0  0  0  0  0  0  0  0
   12.9620    2.2760   23.2100 N   0  0  0  0  0  0  0  0  0  0  0  0
   13.9930    2.2860   22.2110 C   0  0  0  0  0  0  0  0  0  0  0  0
   14.2820    3.5260   21.6270 C   0  0  0  0  0  0  0  0  0  0  0  0
   15.2490    3.7050   20.6350 C   0  0  0  0  0  0  0  0  0  0  0  0
   15.3790    2.5080   19.8300 N   0  0  0  0  0  0  0  0  0  0  0  0
   14.8780    2.2980   18.4920 C   0  0  0  0  0  0  0  0  0  0  0  0
   13.4310    4.4060   22.2420 C   0  0  0  0  0  0  0  0  0  0  0  0
   12.6080    3.7340   23.1910 C   0  0  0  0  0  0  0  0  0  0  0  0
   11.6560    4.5530   23.8500 C   0  0  0  0  0  0  0  0  0  0  0  0
   11.9360    5.9280   23.8690 C   0  0  0  0  0  0  0  0  0  0  0  0
   11.0420    6.8250   24.4660 C   0  0  0  0  0  0  0  0  0  0  0  0
    9.7560    6.3590   25.0990 C   0  0  0  0  0  0  0  0  0  0  0  0
    9.4270    5.0690   25.1180 C   0  0  0  0  0  0  0  0  0  0  0  0
   10.4570    4.1060   24.4520 C   0  0  0  0  0  0  0  0  0  0  0  0
   10.1530    2.8130   24.4790 F   0  0  0  0  0  0  0  0  0  0  0  0
   10.1070   -0.1360   24.5150 C   0  0  0  0  0  0  0  0  0  0  0  0
    8.9550   -0.8710   24.4610 N   0  0  0  0  0  0  0  0  0  0  0  0
    7.7290   -4.1310   23.8700 C   0  0  0  0  0  0  0  0  0  0  0  0
    6.3750   -4.8420   24.0020 C   0  0  0  0  0  0  0  0  0  0  0  0
    8.6230   -4.3820   25.0950 C   0  0  0  0  0  0  0  0  0  0  0  0
    5.4880    0.1590   22.4160 C   0  0  0  0  0  0  0  0  0  0  0  0
    4.6660   -0.8170   21.5730 C   0  0  0  0  0  0  0  0  0  0  0  0
  1  2  1  0
  2  3  1  0
  3  4  2  0
  3  5  1  0
  5  6  1  0
  6  7  1  0
  7  8  1  0
  8  9  1  0
  9 10  2  0
  9 11  1  0
 11 12  1  0
 12 13  2  0
 13 14  1  0
 14 15  2  0
 16 15  1  0
 16 17  2  0
 16 18  2  0
 16 19  1  0
 19 20  1  0
 20 21  2  0
 21 22  1  0
 22 23  1  0
 23 24  1  0
 21 25  1  0
 19 26  1  0
 25 26  2  0
 26 27  1  0
 27 28  2  0
 28 29  1  0
 29 30  2  0
 30 31  1  0
 27 32  1  0
 31 32  2  0
 32 33  1  0
 15 34  1  0
 12 35  1  0
 34 35  2  0
 11 36  1  0
 36 37  1  0
 36 38  1  0
  8 39  1  0
  5 40  1  0
 39 40  1  0
M  END
