MAK-UNK-e4a48a85-27-acrylamide
     RDKit          3D

 28 30  0  0  0  0  0  0  0  0999 V2000
    7.8950   -3.2300   19.0350 C   0  0  0  0  0  0  0  0  0  0  0  0
    6.6820   -2.4110   18.7880 C   0  0  0  0  0  0  0  0  0  0  0  0
    5.7640   -2.7650   19.8920 C   0  0  0  0  0  0  0  0  0  0  0  0
    4.8950   -3.5950   19.6710 O   0  0  0  0  0  0  0  0  0  0  0  0
    6.0350   -2.1850   21.1210 N   0  0  0  0  0  0  0  0  0  0  0  0
    7.0340   -1.1150   21.1470 C   0  0  0  0  0  0  0  0  0  0  0  0
    8.1940   -1.5840   21.7180 C   0  0  0  0  0  0  0  0  0  0  0  0
    8.1520   -2.1720   22.9700 N   0  0  0  0  0  0  0  0  0  0  0  0
    9.1810   -2.2850   23.9160 C   0  0  0  0  0  0  0  0  0  0  0  0
   10.2060   -1.3700   23.6920 C   0  0  0  0  0  0  0  0  0  0  0  0
   11.2850   -1.7810   23.0490 N   0  0  0  0  0  0  0  0  0  0  0  0
   12.2740   -0.8580   22.8800 C   0  0  0  0  0  0  0  0  0  0  0  0
   13.3650   -1.2690   22.1880 C   0  0  0  0  0  0  0  0  0  0  0  0
   12.2290    0.3930   23.3380 N   0  0  0  0  0  0  0  0  0  0  0  0
   10.9880    0.8690   23.9290 C   0  0  0  0  0  0  0  0  0  0  0  0
   10.7790    2.1760   24.2510 O   0  0  0  0  0  0  0  0  0  0  0  0
    9.9960   -0.1000   24.1400 C   0  0  0  0  0  0  0  0  0  0  0  0
    8.8020    0.2700   24.7980 N   0  0  0  0  0  0  0  0  0  0  0  0
    8.5620    1.6200   25.3240 C   0  0  0  0  0  0  0  0  0  0  0  0
    8.3150    2.5840   24.3440 C   0  0  0  0  0  0  0  0  0  0  0  0
    8.2740    2.2200   22.9790 C   0  0  0  0  0  0  0  0  0  0  0  0
    8.0250    3.1900   21.9780 C   0  0  0  0  0  0  0  0  0  0  0  0
    7.8070    4.6390   22.4530 C   0  0  0  0  0  0  0  0  0  0  0  0
    7.8590    4.9320   23.7960 C   0  0  0  0  0  0  0  0  0  0  0  0
    7.6560    6.2760   24.2390 O   0  0  0  0  0  0  0  0  0  0  0  0
    8.1070    3.9340   24.7310 C   0  0  0  0  0  0  0  0  0  0  0  0
    7.2020   -3.2850   22.9550 C   0  0  0  0  0  0  0  0  0  0  0  0
    5.9660   -3.0330   22.3260 C   0  0  0  0  0  0  0  0  0  0  0  0
  1  2  1  0
  2  3  1  0
  3  4  2  0
  3  5  1  0
  5  6  1  0
  6  7  1  0
  7  8  1  0
  8  9  1  0
  9 10  1  0
 10 11  1  0
 11 12  2  0
 12 13  1  0
 12 14  1  0
 14 15  1  0
 15 16  2  0
 10 17  2  0
 15 17  1  0
 17 18  1  0
 18 19  1  0
 19 20  1  0
 20 21  2  0
 21 22  1  0
 22 23  2  0
 23 24  1  0
 24 25  1  0
 20 26  1  0
 24 26  2  0
  8 27  1  0
  5 28  1  0
 27 28  1  0
M  END
