MAK-UNK-90d0606b-9-vinylsulfonamide
     RDKit          3D

 22 24  0  0  0  0  0  0  0  0999 V2000
    7.5140   -3.7510   20.1950 C   0  0  0  0  0  0  0  0  0  0  0  0
    6.9150   -2.3760   19.9060 C   0  0  0  0  0  0  0  0  0  0  0  0
    5.7060   -2.0210   21.1690 S   0  0  0  0  0  0  0  0  0  0  0  0
    4.9040   -3.2360   21.3500 O   0  0  0  0  0  0  0  0  0  0  0  0
    5.0730   -0.7680   20.8300 O   0  0  0  0  0  0  0  0  0  0  0  0
    6.6290   -1.7810   22.5950 N   0  0  0  0  0  0  0  0  0  0  0  0
    8.0730   -2.1010   22.5450 C   0  0  0  0  0  0  0  0  0  0  0  0
    8.6070   -0.9350   23.3440 C   0  0  1  0  0  0  0  0  0  0  0  0
    7.6960    0.1570   23.0000 C   0  0  0  0  0  0  0  0  0  0  0  0
    6.5370   -0.4840   23.3830 C   0  0  2  0  0  0  0  0  0  0  0  0
    6.7450   -0.8890   24.6910 C   0  0  0  0  0  0  0  0  0  0  0  0
    8.1170   -1.2220   24.8120 C   0  0  1  0  0  0  0  0  0  0  0  0
    8.3980   -2.5310   25.2110 C   0  0  0  0  0  0  0  0  0  0  0  0
    7.6050   -2.9790   26.3230 O   0  0  0  0  0  0  0  0  0  0  0  0
    9.3460   -3.2540   24.5260 N   0  0  0  0  0  0  0  0  0  0  0  0
   10.5210   -2.6870   23.7980 C   0  0  0  0  0  0  0  0  0  0  0  0
   11.9300   -2.7930   24.2810 N   0  0  0  0  0  0  0  0  0  0  0  0
   13.1850   -2.2130   23.5580 C   0  0  0  0  0  0  0  0  0  0  0  0
   13.1840   -1.4080   22.1790 C   0  0  0  0  0  0  0  0  0  0  0  0
   11.8580   -1.7840   22.5370 C   0  0  0  0  0  0  0  0  0  0  0  0
   10.4460   -2.0110   22.6220 C   0  0  0  0  0  0  0  0  0  0  0  0
    9.3700   -1.5640   21.6350 C   0  0  0  0  0  0  0  0  0  0  0  0
  1  2  1  0
  3  2  1  0
  3  4  2  0
  3  5  2  0
  3  6  1  0
  6  7  1  0
  8  7  1  6
  8  9  1  0
  6 10  1  0
  9 10  1  0
 10 11  1  1
  8 12  1  0
 11 12  1  0
 12 13  1  6
 13 14  2  0
 13 15  1  0
 15 16  1  0
 16 17  2  0
 17 18  1  0
 18 19  2  0
 19 20  1  0
 16 21  1  0
 20 21  2  0
 21 22  1  0
M  END
