MAK-UNK-6ca90168-10-vinylsulfonamide
     RDKit          3D

 21 22  0  0  0  0  0  0  0  0999 V2000
    6.8060   -5.0190   20.3840 C   0  0  0  0  0  0  0  0  0  0  0  0
    7.0270   -5.3340   21.8630 C   0  0  0  0  0  0  0  0  0  0  0  0
    6.0920   -4.1490   22.7840 S   0  0  0  0  0  0  0  0  0  0  0  0
    4.9910   -3.7870   21.8130 O   0  0  0  0  0  0  0  0  0  0  0  0
    5.7600   -4.7840   24.0440 O   0  0  0  0  0  0  0  0  0  0  0  0
    7.2640   -2.9380   23.1500 N   0  0  0  0  0  0  0  0  0  0  0  0
    8.3620   -3.1930   22.5880 C   0  0  0  0  0  0  0  0  0  0  0  0
    8.0830   -2.7830   21.1430 C   0  0  0  0  0  0  0  0  0  0  0  0
    6.6500   -2.4660   20.9180 N   0  0  0  0  0  0  0  0  0  0  0  0
    6.1730   -2.6690   19.5290 C   0  0  0  0  0  0  0  0  0  0  0  0
    5.4810   -3.6410   19.1900 O   0  0  0  0  0  0  0  0  0  0  0  0
    6.6240   -1.5060   18.6530 C   0  0  0  0  0  0  0  0  0  0  0  0
    6.6250   -0.1460   19.3780 C   0  0  0  0  0  0  0  0  0  0  0  0
    7.5550    0.0730   20.4110 C   0  0  0  0  0  0  0  0  0  0  0  0
    7.5870    1.2740   21.1150 C   0  0  0  0  0  0  0  0  0  0  0  0
    6.6840    2.2750   20.8000 C   0  0  0  0  0  0  0  0  0  0  0  0
    5.7580    2.0770   19.7790 C   0  0  0  0  0  0  0  0  0  0  0  0
    5.7270    0.8810   19.0700 C   0  0  0  0  0  0  0  0  0  0  0  0
    4.7820    0.7320   18.0550 C   0  0  0  0  0  0  0  0  0  0  0  0
    6.1940   -1.4070   21.7940 C   0  0  0  0  0  0  0  0  0  0  0  0
    6.9050   -1.5330   22.9680 C   0  0  0  0  0  0  0  0  0  0  0  0
  1  2  1  0
  3  2  1  0
  3  4  2  0
  3  5  2  0
  3  6  1  0
  6  7  1  0
  7  8  1  0
  8  9  1  0
  9 10  1  0
 10 11  2  0
 10 12  1  0
 12 13  1  0
 13 14  2  0
 14 15  1  0
 15 16  2  0
 16 17  1  0
 13 18  1  0
 17 18  2  0
 18 19  1  0
  9 20  1  0
  6 21  1  0
 20 21  1  0
M  END
