MAK-UNK-8fdbca50-38-vinylsulfonamide
     RDKit          3D

 41 44  0  0  0  0  0  0  0  0999 V2000
    8.0430   -3.6360   19.7860 C   0  0  0  0  0  0  0  0  0  0  0  0
    7.4000   -4.1850   21.0230 C   0  0  0  0  0  0  0  0  0  0  0  0
    6.5470   -2.8180   21.6780 S   0  0  0  0  0  0  0  0  0  0  0  0
    4.9990   -3.5270   21.6990 O   0  0  0  0  0  0  0  0  0  0  0  0
    6.6950   -1.7880   20.6920 O   0  0  0  0  0  0  0  0  0  0  0  0
    8.0330   -2.2990   22.8160 N   0  0  0  0  0  0  0  0  0  0  0  0
    9.4550   -2.3200   22.2550 C   0  0  0  0  0  0  0  0  0  0  0  0
   10.1070   -1.0790   21.9830 C   0  0  0  0  0  0  0  0  0  0  0  0
   10.2180   -0.1150   22.9790 C   0  0  0  0  0  0  0  0  0  0  0  0
    9.7430    1.1260   22.4700 N   0  0  0  0  0  0  0  0  0  0  0  0
    8.4770    1.8200   22.5710 C   0  0  0  0  0  0  0  0  0  0  0  0
    7.4560    1.5920   21.5220 C   0  0  0  0  0  0  0  0  0  0  0  0
    7.7970    0.4990   20.7320 C   0  0  0  0  0  0  0  0  0  0  0  0
    6.6710    0.7220   20.0460 C   0  0  0  0  0  0  0  0  0  0  0  0
    6.5490   -0.3000   18.9710 C   0  0  0  0  0  0  0  0  0  0  0  0
    5.9240   -1.6100   19.4680 C   0  0  0  0  0  0  0  0  0  0  0  0
    5.8040   -2.7490   18.5200 C   0  0  0  0  0  0  0  0  0  0  0  0
    6.3490   -2.3370   17.2020 C   0  0  0  0  0  0  0  0  0  0  0  0
    6.8970   -1.2790   16.5880 C   0  0  0  0  0  0  0  0  0  0  0  0
    7.0440   -0.0750   17.4810 C   0  0  0  0  0  0  0  0  0  0  0  0
    7.5610    1.0390   16.9950 F   0  0  0  0  0  0  0  0  0  0  0  0
    5.8530    1.7080   20.3580 N   0  0  0  0  0  0  0  0  0  0  0  0
    4.4020    1.9560   19.4740 S   0  0  0  0  0  0  0  0  0  0  0  0
    4.0060    0.6390   19.0300 O   0  0  0  0  0  0  0  0  0  0  0  0
    4.6860    2.9840   18.5130 O   0  0  0  0  0  0  0  0  0  0  0  0
    3.1260    2.5090   20.5330 C   0  0  0  0  0  0  0  0  0  0  0  0
    3.2360    2.5310   21.9260 C   0  0  0  0  0  0  0  0  0  0  0  0
    2.1610    2.9900   22.6770 C   0  0  0  0  0  0  0  0  0  0  0  0
    1.0040    3.4160   22.0270 C   0  0  0  0  0  0  0  0  0  0  0  0
    0.8630    3.4090   20.6860 N   0  0  0  0  0  0  0  0  0  0  0  0
    1.9270    2.9550   19.9660 C   0  0  0  0  0  0  0  0  0  0  0  0
    6.2610    2.4760   21.4240 C   0  0  0  0  0  0  0  0  0  0  0  0
   11.7640    0.0900   23.2850 C   0  0  0  0  0  0  0  0  0  0  0  0
   12.2150    1.2360   23.4020 O   0  0  0  0  0  0  0  0  0  0  0  0
   12.5980   -0.9670   23.4150 N   0  0  0  0  0  0  0  0  0  0  0  0
   13.1020   -1.4370   22.2680 C   0  0  0  0  0  0  0  0  0  0  0  0
   12.2980   -1.9100   24.3420 C   0  0  0  0  0  0  0  0  0  0  0  0
   13.5090   -2.6180   24.9280 C   0  0  0  0  0  0  0  0  0  0  0  0
   11.3290   -2.9610   23.8250 C   0  0  0  0  0  0  0  0  0  0  0  0
    9.4210   -0.5450   24.1980 C   0  0  0  0  0  0  0  0  0  0  0  0
    8.0920   -1.3100   23.9700 C   0  0  0  0  0  0  0  0  0  0  0  0
  1  2  1  0
  3  2  1  0
  3  4  2  0
  3  5  2  0
  3  6  1  0
  6  7  1  0
  7  8  1  0
  8  9  1  0
  9 10  1  0
 10 11  1  0
 11 12  1  0
 12 13  1  0
 13 14  2  0
 14 15  1  0
 15 16  2  0
 16 17  1  0
 17 18  2  0
 18 19  1  0
 15 20  1  0
 19 20  2  0
 20 21  1  0
 14 22  1  0
 22 23  1  0
 23 24  2  0
 23 25  2  0
 23 26  1  0
 26 27  2  0
 27 28  1  0
 28 29  2  0
 29 30  1  0
 26 31  1  0
 30 31  2  0
 12 32  2  0
 22 32  1  0
  9 33  1  0
 33 34  2  0
 33 35  1  0
 35 36  1  0
 35 37  1  0
 37 38  1  0
 37 39  1  0
  9 40  1  0
  6 41  1  0
 40 41  1  0
M  END
