MAK-UNK-a7992eb3-8-acrylamide
     RDKit          3D

 26 28  0  0  0  0  0  0  0  0999 V2000
    8.2110   -4.1980   20.7140 C   0  0  0  0  0  0  0  0  0  0  0  0
    7.2850   -3.0380   20.9980 C   0  0  0  0  0  0  0  0  0  0  0  0
    5.9040   -3.5420   21.3060 C   0  0  0  0  0  0  0  0  0  0  0  0
    4.9760   -3.1800   20.6130 O   0  0  0  0  0  0  0  0  0  0  0  0
    5.7190   -4.4190   22.3780 N   0  0  0  0  0  0  0  0  0  0  0  0
    6.1870   -4.0980   23.6000 C   0  0  0  0  0  0  0  0  0  0  0  0
    5.9530   -4.9960   24.6290 C   0  0  0  0  0  0  0  0  0  0  0  0
    4.7490   -5.7270   24.6140 C   0  0  0  0  0  0  0  0  0  0  0  0
    3.6640   -5.2270   25.3510 C   0  0  0  0  0  0  0  0  0  0  0  0
    3.0400   -6.1780   26.2240 O   0  0  0  0  0  0  0  0  0  0  0  0
    3.3000   -3.8990   25.1730 N   0  0  0  0  0  0  0  0  0  0  0  0
    4.0990   -2.8370   25.7820 C   0  0  0  0  0  0  0  0  0  0  0  0
    4.0030   -1.4240   26.5510 C   0  0  0  0  0  0  0  0  0  0  0  0
    2.5750   -0.7030   26.8840 C   0  0  0  0  0  0  0  0  0  0  0  0
    1.1520   -1.2860   26.4930 C   0  0  0  0  0  0  0  0  0  0  0  0
    1.4730   -2.5510   25.8180 C   0  0  0  0  0  0  0  0  0  0  0  0
    2.9210   -2.3310   25.9930 C   0  0  0  0  0  0  0  0  0  0  0  0
    3.1090   -1.2460   26.5390 O   0  0  0  0  0  0  0  0  0  0  0  0
    3.4260   -0.0420   25.7710 C   0  0  0  0  0  0  0  0  0  0  0  0
    2.3940    0.9740   25.6420 C   0  0  0  0  0  0  0  0  0  0  0  0
    2.5700    2.2050   24.9160 C   0  0  0  0  0  0  0  0  0  0  0  0
    3.7950    2.4080   24.3190 C   0  0  0  0  0  0  0  0  0  0  0  0
    4.5540    1.3400   24.5830 C   0  0  0  0  0  0  0  0  0  0  0  0
    4.6600    0.1480   25.1770 N   0  0  0  0  0  0  0  0  0  0  0  0
    4.2570   -6.0350   23.1830 C   0  0  0  0  0  0  0  0  0  0  0  0
    5.3130   -5.8260   22.2980 C   0  0  0  0  0  0  0  0  0  0  0  0
  1  2  1  0
  2  3  1  0
  3  4  2  0
  3  5  1  0
  5  6  1  0
  6  7  1  0
  7  8  1  0
  8  9  1  0
  9 10  2  0
  9 11  1  0
 11 12  1  0
 12 13  2  0
 13 14  1  0
 14 15  2  0
 15 16  1  0
 12 17  1  0
 16 17  2  0
 17 18  1  0
 18 19  1  0
 19 20  2  0
 20 21  1  0
 21 22  2  0
 22 23  1  0
 19 24  1  0
 23 24  2  0
  8 25  1  0
  5 26  1  0
 25 26  1  0
M  END
