MAK-UNK-194150d3-9
     RDKit          3D

 33 37  0  0  0  0  0  0  0  0999 V2000
   10.2740    0.2830   12.8810 O   0  0  0  0  0  0  0  0  0  0  0  0
    9.0800    0.4940   12.7750 C   0  0  0  0  0  0  0  0  0  0  0  0
    8.3230    0.1810   11.7160 N   0  0  0  0  0  0  0  0  0  0  0  0
    6.9360    0.5970   11.6940 C   0  0  0  0  0  0  0  0  0  0  0  0
    6.2570    0.0300   10.5410 C   0  0  0  0  0  0  0  0  0  0  0  0
    5.7640   -1.3540   10.8000 C   0  0  0  0  0  0  0  0  0  0  0  0
    6.7190   -2.3580   10.6570 C   0  0  0  0  0  0  0  0  0  0  0  0
    7.8240   -2.1580    9.8050 C   0  0  0  0  0  0  0  0  0  0  0  0
    8.0900   -0.8520    9.4880 C   0  0  0  0  0  0  0  0  0  0  0  0
    7.0550    0.0970    9.4810 C   0  0  0  0  0  0  0  0  0  0  0  0
    6.3180    1.2810   12.5890 N   0  0  0  0  0  0  0  0  0  0  0  0
    6.9870    1.5690   13.8290 C   0  0  0  0  0  0  0  0  0  0  0  0
    8.2340    1.1770   13.8900 C   0  0  0  0  0  0  0  0  0  0  0  0
    8.5360    1.4850   15.2430 N   0  0  0  0  0  0  0  0  0  0  0  0
    7.6340    2.0600   15.9260 C   0  0  0  0  0  0  0  0  0  0  0  0
    6.5680    2.2770   15.3140 N   0  0  0  0  0  0  0  0  0  0  0  0
    5.2490    3.0370   16.1310 C   0  0  1  0  0  0  0  0  0  0  0  0
    5.3090    2.7510   17.5980 O   0  0  0  0  0  0  0  0  0  0  0  0
    4.3250    3.5050   18.3850 C   0  0  2  0  0  0  0  0  0  0  0  0
    3.4000    2.7370   19.1440 C   0  0  0  0  0  0  0  0  0  0  0  0
    3.7970    2.4870   20.5440 N   0  0  0  0  0  0  0  0  0  0  0  0
    5.2250    2.1960   20.7570 C   0  0  0  0  0  0  0  0  0  0  0  0
    5.5170    1.1260   21.5980 C   0  0  0  0  0  0  0  0  0  0  0  0
    6.8120    0.6230   21.6630 C   0  0  0  0  0  0  0  0  0  0  0  0
    7.0520   -0.7250   21.4080 C   0  0  0  0  0  0  0  0  0  0  0  0
    8.4610   -1.2400   21.4920 C   0  0  0  0  0  0  0  0  0  0  0  0
    9.4910   -0.3580   21.8220 C   0  0  0  0  0  0  0  0  0  0  0  0
    9.2000    0.9900   22.0680 C   0  0  0  0  0  0  0  0  0  0  0  0
    7.8870    1.4660   21.9880 C   0  0  0  0  0  0  0  0  0  0  0  0
    3.6520    4.4580   17.4270 C   0  0  2  0  0  0  0  0  0  0  0  0
    2.2700    4.1930   17.2430 O   0  0  0  0  0  0  0  0  0  0  0  0
    4.4000    4.4120   16.2270 C   0  0  1  0  0  0  0  0  0  0  0  0
    4.9520    5.6440   16.1950 F   0  0  0  0  0  0  0  0  0  0  0  0
  1  2  2  0
  2  3  1  0
  3  4  1  0
  4  5  1  0
  5  6  1  0
  6  7  1  0
  7  8  1  0
  8  9  1  0
  5 10  1  0
  9 10  1  0
  4 11  2  0
 11 12  1  0
  2 13  1  0
 12 13  2  0
 13 14  1  0
 14 15  2  0
 12 16  1  0
 15 16  1  0
 17 16  1  1
 17 18  1  0
 18 19  1  0
 19 20  1  6
 20 21  1  0
 21 22  1  0
 22 23  1  0
 23 24  1  0
 24 25  2  0
 25 26  1  0
 26 27  2  0
 27 28  1  0
 24 29  1  0
 28 29  2  0
 19 30  1  0
 30 31  1  6
 17 32  1  0
 30 32  1  0
 32 33  1  1
M  END
