MAK-UNK-0d6072ac-31
     RDKit          3D

 19 21  0  0  0  0  0  0  0  0999 V2000
    8.9620   -5.4450   27.7290 C   0  0  0  0  0  0  0  0  0  0  0  0
    7.8470   -4.7150   27.0280 C   0  0  2  0  0  0  0  0  0  0  0  0
    6.6150   -5.5560   26.6600 C   0  0  0  0  0  0  0  0  0  0  0  0
    6.0150   -5.3450   25.3840 O   0  0  0  0  0  0  0  0  0  0  0  0
    6.1760   -6.4470   27.5830 O   0  0  0  0  0  0  0  0  0  0  0  0
    8.4280   -3.9820   25.8230 C   0  0  0  0  0  0  0  0  0  0  0  0
    9.9210   -3.6860   25.7440 C   0  0  0  0  0  0  0  0  0  0  0  0
   10.6080   -3.0400   24.7480 N   0  0  0  0  0  0  0  0  0  0  0  0
    9.8180   -2.6430   23.7370 C   0  0  0  0  0  0  0  0  0  0  0  0
    8.3080   -2.9000   23.7320 C   0  0  0  0  0  0  0  0  0  0  0  0
    7.5450   -3.5290   24.6800 N   0  0  0  0  0  0  0  0  0  0  0  0
    8.0670   -2.3220   22.5450 N   0  0  0  0  0  0  0  0  0  0  0  0
    9.3710   -2.2610   22.8580 C   0  0  0  0  0  0  0  0  0  0  0  0
    9.4620   -2.9380   24.2120 C   0  0  0  0  0  0  0  0  0  0  0  0
   10.7900   -3.1060   24.9970 C   0  0  0  0  0  0  0  0  0  0  0  0
   12.0250   -2.5430   24.3160 C   0  0  0  0  0  0  0  0  0  0  0  0
   13.5680   -2.6340   25.0360 Cl  0  0  0  0  0  0  0  0  0  0  0  0
   11.7770   -1.9600   23.0820 C   0  0  0  0  0  0  0  0  0  0  0  0
   10.4990   -1.9010   22.5360 C   0  0  0  0  0  0  0  0  0  0  0  0
  2  1  1  6
  2  3  1  0
  3  4  2  0
  3  5  1  0
  2  6  1  0
  6  7  2  0
  7  8  1  0
  8  9  2  0
  9 10  1  0
  6 11  1  0
 10 11  2  0
 10 12  1  0
 12 13  1  0
 13 14  1  0
 14 15  2  0
 15 16  1  0
 16 17  1  0
 16 18  2  0
  9 19  1  0
 13 19  2  0
 18 19  1  0
M  END
