MAK-UNK-f2409524-32
     RDKit          3D

 29 31  0  0  0  0  0  0  0  0999 V2000
    5.5770   -2.5020   21.0240 C   0  0  0  0  0  0  0  0  0  0  0  0
    5.2240   -2.8330   19.6030 C   0  0  0  0  0  0  0  0  0  0  0  0
    5.1260   -4.0180   19.2940 O   0  0  0  0  0  0  0  0  0  0  0  0
    4.9850   -1.7570   18.7460 N   0  0  0  0  0  0  0  0  0  0  0  0
    5.9350   -1.0560   17.8450 C   0  0  0  0  0  0  0  0  0  0  0  0
    6.9770   -1.8650   17.0570 C   0  0  0  0  0  0  0  0  0  0  0  0
    7.8930   -1.1740   16.1770 N   0  0  0  0  0  0  0  0  0  0  0  0
    7.8160    0.1750   16.0510 C   0  0  0  0  0  0  0  0  0  0  0  0
    6.8540    0.8220   16.7710 C   0  0  0  0  0  0  0  0  0  0  0  0
    5.9060    0.3250   17.6540 C   0  0  0  0  0  0  0  0  0  0  0  0
    4.9810    1.2040   18.2710 C   0  0  0  0  0  0  0  0  0  0  0  0
    5.0190    1.4380   19.6040 O   0  0  0  0  0  0  0  0  0  0  0  0
    5.1370    0.3000   20.4500 C   0  0  1  0  0  0  0  0  0  0  0  0
    6.3950   -0.4910   20.2070 C   0  0  0  0  0  0  0  0  0  0  0  0
    7.4370    0.2710   20.3210 C   0  0  0  0  0  0  0  0  0  0  0  0
    7.2990    1.4000   21.1300 C   0  0  0  0  0  0  0  0  0  0  0  0
    6.4010    1.1650   22.1820 C   0  0  0  0  0  0  0  0  0  0  0  0
    5.1040    0.8380   21.7510 C   0  0  1  0  0  0  0  0  0  0  0  0
    4.2730    1.9640   21.8480 C   0  0  0  0  0  0  0  0  0  0  0  0
    4.0070    2.5590   23.0270 N   0  0  0  0  0  0  0  0  0  0  0  0
    2.7850    2.3120   23.5700 C   0  0  0  0  0  0  0  0  0  0  0  0
    2.5700    1.4090   24.3650 O   0  0  0  0  0  0  0  0  0  0  0  0
    1.8590    3.1910   23.1120 N   0  0  0  0  0  0  0  0  0  0  0  0
    0.7280    3.3870   23.8510 C   0  0  0  0  0  0  0  0  0  0  0  0
    0.5530    4.6440   24.4550 C   0  0  0  0  0  0  0  0  0  0  0  0
   -0.6980    4.9300   25.0130 C   0  0  0  0  0  0  0  0  0  0  0  0
   -1.8270    4.4720   24.3450 C   0  0  0  0  0  0  0  0  0  0  0  0
   -1.6920    3.2870   23.6360 C   0  0  0  0  0  0  0  0  0  0  0  0
   -0.4240    2.9130   23.1800 C   0  0  0  0  0  0  0  0  0  0  0  0
  1  2  1  0
  2  3  2  0
  2  4  1  0
  4  5  1  0
  5  6  2  0
  6  7  1  0
  7  8  2  0
  8  9  1  0
  5 10  1  0
  9 10  2  0
 10 11  1  0
 11 12  1  0
 13 12  1  6
 13 14  1  0
 14 15  1  0
 15 16  1  0
 16 17  1  0
 13 18  1  0
 17 18  1  0
 18 19  1  6
 19 20  1  0
 20 21  1  0
 21 22  2  0
 21 23  1  0
 23 24  1  0
 24 25  1  0
 25 26  1  0
 26 27  1  0
 27 28  1  0
 24 29  1  0
 28 29  1  0
M  END
