MAK-UNK-849bee6c-13-vinylsulfonamide
     RDKit          3D

 27 29  0  0  0  0  0  0  0  0999 V2000
    7.9080   -3.3460   19.6160 C   0  0  0  0  0  0  0  0  0  0  0  0
    6.9850   -2.5120   18.7660 C   0  0  0  0  0  0  0  0  0  0  0  0
    5.5780   -2.5510   19.7780 S   0  0  0  0  0  0  0  0  0  0  0  0
    5.0310   -3.8990   19.7100 O   0  0  0  0  0  0  0  0  0  0  0  0
    4.8160   -1.3470   19.5300 O   0  0  0  0  0  0  0  0  0  0  0  0
    6.4130   -2.3320   21.2340 N   0  0  0  0  0  0  0  0  0  0  0  0
    6.0500   -2.9500   22.3080 C   0  0  0  0  0  0  0  0  0  0  0  0
    7.3090   -3.1970   23.1650 C   0  0  0  0  0  0  0  0  0  0  0  0
    8.1510   -1.9870   23.2840 N   0  0  0  0  0  0  0  0  0  0  0  0
    9.3430   -2.1600   24.1460 C   0  0  0  0  0  0  0  0  0  0  0  0
   10.4690   -1.1800   23.8160 C   0  0  0  0  0  0  0  0  0  0  0  0
   11.7950   -1.6080   23.1790 C   0  0  0  0  0  0  0  0  0  0  0  0
   12.7630   -0.6150   22.9170 C   0  0  0  0  0  0  0  0  0  0  0  0
   12.5040    0.7290   23.2360 C   0  0  0  0  0  0  0  0  0  0  0  0
   11.2840    1.0880   23.8160 C   0  0  0  0  0  0  0  0  0  0  0  0
   11.0220    2.4600   24.1380 O   0  0  0  0  0  0  0  0  0  0  0  0
   11.5040    3.5200   23.4090 C   0  0  0  0  0  0  0  0  0  0  0  0
   12.6920    3.6050   22.7260 C   0  0  0  0  0  0  0  0  0  0  0  0
   12.7170    4.8460   22.1930 C   0  0  0  0  0  0  0  0  0  0  0  0
   12.2050    5.8270   22.0610 N   0  0  0  0  0  0  0  0  0  0  0  0
   11.0350    5.6590   22.7560 C   0  0  0  0  0  0  0  0  0  0  0  0
   10.1400    6.7350   22.7800 C   0  0  0  0  0  0  0  0  0  0  0  0
    9.8210    7.2840   24.0310 N   0  0  0  0  0  0  0  0  0  0  0  0
   10.6780    4.6670   23.3670 N   0  0  0  0  0  0  0  0  0  0  0  0
   10.2850    0.1650   24.1060 C   0  0  0  0  0  0  0  0  0  0  0  0
    8.5070   -1.5460   21.9410 C   0  0  0  0  0  0  0  0  0  0  0  0
    7.3350   -1.1820   21.2820 C   0  0  0  0  0  0  0  0  0  0  0  0
  1  2  1  0
  3  2  1  0
  3  4  2  0
  3  5  2  0
  3  6  1  0
  6  7  1  0
  7  8  1  0
  8  9  1  0
  9 10  1  0
 10 11  1  0
 11 12  2  0
 12 13  1  0
 13 14  2  0
 14 15  1  0
 15 16  1  0
 16 17  1  0
 17 18  2  0
 18 19  1  0
 19 20  2  0
 20 21  1  0
 21 22  1  0
 22 23  3  0
 17 24  1  0
 21 24  2  0
 11 25  1  0
 15 25  2  0
  9 26  1  0
  6 27  1  0
 26 27  1  0
M  END
