MAK-UNK-ec98eaf6-42-vinylsulfonamide
     RDKit          3D

 23 26  0  0  0  0  0  0  0  0999 V2000
    6.5400   -3.4830   19.3270 C   0  0  0  0  0  0  0  0  0  0  0  0
    6.3960   -2.6360   20.5510 C   0  0  0  0  0  0  0  0  0  0  0  0
    6.1250   -3.6780   21.9530 S   0  0  0  0  0  0  0  0  0  0  0  0
    4.6930   -3.8380   22.1410 O   0  0  0  0  0  0  0  0  0  0  0  0
    6.9930   -4.8570   21.9060 O   0  0  0  0  0  0  0  0  0  0  0  0
    6.7740   -2.6350   23.1090 N   0  0  0  0  0  0  0  0  0  0  0  0
    8.2500   -2.6250   23.1370 C   0  0  0  0  0  0  0  0  0  0  0  0
    8.5080   -1.1330   23.3160 C   0  0  1  0  0  0  0  0  0  0  0  0
   10.0220   -1.2220   23.0250 C   0  0  0  0  0  0  0  0  0  0  0  0
    9.3370    0.1020   22.7970 C   0  0  0  0  0  0  0  0  0  0  0  0
    7.8710   -0.0920   23.2180 C   0  0  0  0  0  0  0  0  0  0  0  0
    7.4250   -1.5460   23.7570 C   0  0  0  0  0  0  0  0  0  0  0  0
    8.4040   -2.7600   23.8710 C   0  0  0  0  0  0  0  0  0  0  0  0
    7.9540   -4.1300   24.3800 C   0  0  0  0  0  0  0  0  0  0  0  0
    9.8420   -2.5070   23.4470 C   0  0  0  0  0  0  0  0  0  0  0  0
    7.4070   -0.7290   22.2530 C   0  0  0  0  0  0  0  0  0  0  0  0
    6.3610   -1.2130   23.0780 C   0  0  2  0  0  0  0  0  0  0  0  0
    6.5330   -0.7660   24.4030 C   0  0  0  0  0  0  0  0  0  0  0  0
    5.5560   -0.4570   25.3310 C   0  0  0  0  0  0  0  0  0  0  0  0
    5.9590   -0.0180   26.5890 C   0  0  0  0  0  0  0  0  0  0  0  0
    7.3550    0.0910   26.8530 C   0  0  0  0  0  0  0  0  0  0  0  0
    8.3160   -0.2320   25.8880 C   0  0  0  0  0  0  0  0  0  0  0  0
    7.8800   -0.6730   24.6380 C   0  0  0  0  0  0  0  0  0  0  0  0
  1  2  1  0
  3  2  1  0
  3  4  2  0
  3  5  2  0
  3  6  1  0
  6  7  1  0
  7  8  1  0
  8  9  1  6
  9 10  2  0
 10 11  1  0
 11 12  2  0
 12 13  1  0
 13 14  1  0
  9 15  1  0
 13 15  2  0
  8 16  1  0
 17  6  1  1
 16 17  1  0
 17 18  1  0
 18 19  1  0
 19 20  2  0
 20 21  1  0
 21 22  2  0
  8 23  1  0
 18 23  2  0
 22 23  1  0
M  END
