MAK-UNK-e05327b2-2-nitrile
     RDKit          3D

 50 56  0  0  0  0  0  0  0  0999 V2000
    6.4610   -5.0700   20.4580 C   0  0  0  0  0  0  0  0  0  0  0  0
    5.7170   -5.8990   19.8940 N   0  0  0  0  0  0  0  0  0  0  0  0
    6.3400   -5.0390   21.8390 N   0  0  0  0  0  0  0  0  0  0  0  0
    7.4960   -4.7300   22.7300 C   0  0  0  0  0  0  0  0  0  0  0  0
    6.3760   -4.2620   23.5190 C   0  0  0  0  0  0  0  0  0  0  0  0
    5.7390   -5.3300   24.3010 N   0  0  0  0  0  0  0  0  0  0  0  0
    5.1860   -5.2080   25.8810 S   0  0  0  0  0  0  0  0  0  0  0  0
    4.1950   -6.2460   26.0600 O   0  0  0  0  0  0  0  0  0  0  0  0
    6.3150   -5.0530   26.7640 O   0  0  0  0  0  0  0  0  0  0  0  0
    4.2800   -3.6850   25.9420 C   0  0  0  0  0  0  0  0  0  0  0  0
    4.7220   -2.2290   26.0730 C   0  0  0  0  0  0  0  0  0  0  0  0
    3.5540   -1.3130   26.0810 C   0  0  0  0  0  0  0  0  0  0  0  0
    2.2350   -2.0330   25.9620 C   0  0  0  0  0  0  0  0  0  0  0  0
    0.9720   -1.4170   25.9540 C   0  0  0  0  0  0  0  0  0  0  0  0
    0.1020   -2.3080   26.4820 N   0  0  0  0  0  0  0  0  0  0  0  0
   -0.9620   -2.5030   25.6790 C   0  0  0  0  0  0  0  0  0  0  0  0
   -1.6920   -1.3140   25.6360 C   0  0  0  0  0  0  0  0  0  0  0  0
   -2.2850   -1.0310   26.9900 N   0  0  0  0  0  0  0  0  0  0  0  0
   -3.9920   -0.8650   27.0210 S   0  0  0  0  0  0  0  0  0  0  0  0
   -4.5850   -2.1560   26.7460 O   0  0  0  0  0  0  0  0  0  0  0  0
   -4.3130   -0.1520   28.2350 O   0  0  0  0  0  0  0  0  0  0  0  0
   -4.3030    0.2210   25.6360 C   0  0  0  0  0  0  0  0  0  0  0  0
   -3.9980    1.5740   25.7910 C   0  0  0  0  0  0  0  0  0  0  0  0
   -4.2190    2.4740   24.7410 C   0  0  0  0  0  0  0  0  0  0  0  0
   -4.7490    2.0190   23.5270 C   0  0  0  0  0  0  0  0  0  0  0  0
   -5.0610    0.6700   23.3550 C   0  0  0  0  0  0  0  0  0  0  0  0
   -5.5850    0.2630   22.1280 C   0  0  0  0  0  0  0  0  0  0  0  0
   -5.9210   -1.0690   21.8690 C   0  0  0  0  0  0  0  0  0  0  0  0
   -6.4340   -1.3890   20.6100 C   0  0  0  0  0  0  0  0  0  0  0  0
   -5.5810   -0.8990   19.4270 C   0  0  0  0  0  0  0  0  0  0  0  0
   -4.6400    0.2920   19.7070 C   0  0  0  0  0  0  0  0  0  0  0  0
   -3.3280    0.1710   20.4370 C   0  0  0  0  0  0  0  0  0  0  0  0
   -2.6720    1.5200   20.5410 C   0  0  0  0  0  0  0  0  0  0  0  0
   -3.3980    2.5490   19.9580 C   0  0  0  0  0  0  0  0  0  0  0  0
   -2.9740    4.2120   19.8770 Cl  0  0  0  0  0  0  0  0  0  0  0  0
   -4.9080    1.9490   19.2500 S   0  0  0  0  0  0  0  0  0  0  0  0
   -5.7320   -2.0310   22.8710 C   0  0  0  0  0  0  0  0  0  0  0  0
   -6.0720   -3.5190   22.7040 C   0  0  0  0  0  0  0  0  0  0  0  0
   -7.5370   -3.7430   23.0860 C   0  0  0  0  0  0  0  0  0  0  0  0
   -8.5450   -2.6520   22.8030 C   0  0  0  0  0  0  0  0  0  0  0  0
   -9.9360   -2.9880   23.2210 C   0  0  0  0  0  0  0  0  0  0  0  0
   -9.9070   -4.5600   23.9050 S   0  0  0  0  0  0  0  0  0  0  0  0
   -8.1980   -4.8170   23.6860 C   0  0  0  0  0  0  0  0  0  0  0  0
   -5.2020   -1.6180   24.1150 C   0  0  0  0  0  0  0  0  0  0  0  0
   -4.8460   -0.2610   24.4030 C   0  0  0  0  0  0  0  0  0  0  0  0
   -1.7090   -1.8930   28.0710 C   0  0  0  0  0  0  0  0  0  0  0  0
   -0.2960   -2.0910   27.9050 C   0  0  0  0  0  0  0  0  0  0  0  0
    2.5390   -3.7480   25.8420 S   0  0  0  0  0  0  0  0  0  0  0  0
    4.8590   -6.0870   23.4440 C   0  0  0  0  0  0  0  0  0  0  0  0
    5.5810   -6.2790   22.2730 C   0  0  0  0  0  0  0  0  0  0  0  0
  1  2  2  3
  1  3  1  0
  3  4  1  0
  4  5  1  0
  5  6  1  0
  6  7  1  0
  7  8  2  0
  7  9  2  0
  7 10  1  0
 10 11  2  0
 11 12  1  0
 12 13  2  0
 13 14  1  0
 14 15  1  0
 15 16  1  0
 16 17  1  0
 17 18  1  0
 18 19  1  0
 19 20  2  0
 19 21  2  0
 19 22  1  0
 22 23  2  0
 23 24  1  0
 24 25  2  0
 25 26  1  0
 26 27  1  0
 27 28  2  0
 28 29  1  0
 29 30  1  0
 30 31  1  0
 31 32  2  0
 32 33  1  0
 33 34  2  0
 34 35  1  0
 31 36  1  0
 34 36  1  0
 28 37  1  0
 37 38  1  0
 38 39  1  0
 39 40  1  0
 40 41  2  0
 41 42  1  0
 39 43  2  0
 42 43  1  0
 37 44  2  0
 22 45  1  0
 26 45  2  0
 44 45  1  0
 18 46  1  0
 15 47  1  0
 46 47  1  0
 10 48  1  0
 13 48  1  0
  6 49  1  0
  3 50  1  0
 49 50  1  0
M  END
