MAK-UNK-8fdbca50-40-acrylamide
     RDKit          3D

 40 43  0  0  0  0  0  0  0  0999 V2000
    7.4350   -2.7650   20.9970 C   0  0  0  0  0  0  0  0  0  0  0  0
    5.9280   -2.8860   21.1640 C   0  0  0  0  0  0  0  0  0  0  0  0
    5.4530   -2.8030   22.6010 C   0  0  0  0  0  0  0  0  0  0  0  0
    4.5440   -3.5330   22.1490 O   0  0  0  0  0  0  0  0  0  0  0  0
    6.6230   -1.9950   22.7220 N   0  0  0  0  0  0  0  0  0  0  0  0
    7.4530   -2.1660   23.9080 C   0  0  0  0  0  0  0  0  0  0  0  0
    8.7970   -2.1900   23.4940 C   0  0  0  0  0  0  0  0  0  0  0  0
    9.4130   -1.0850   22.7620 C   0  0  0  0  0  0  0  0  0  0  0  0
    9.9420   -1.4160   21.3940 C   0  0  0  0  0  0  0  0  0  0  0  0
    8.9020   -0.5140   21.2080 O   0  0  0  0  0  0  0  0  0  0  0  0
   10.9530   -2.3180   21.8750 C   0  0  1  0  0  0  0  0  0  0  0  0
   11.2380   -2.0950   23.2340 C   0  0  0  0  0  0  0  0  0  0  0  0
   10.9340   -3.7030   21.5370 N   0  0  0  0  0  0  0  0  0  0  0  0
   11.3610   -4.6030   20.3820 C   0  0  0  0  0  0  0  0  0  0  0  0
   10.8840   -6.1860   19.9850 C   0  0  0  0  0  0  0  0  0  0  0  0
    9.8840   -6.1670   18.9060 C   0  0  0  0  0  0  0  0  0  0  0  0
    9.7790   -7.7790   18.7630 C   0  0  0  0  0  0  0  0  0  0  0  0
    8.8350   -7.8110   18.0690 C   0  0  0  0  0  0  0  0  0  0  0  0
    8.1660   -6.6800   18.4720 C   0  0  0  0  0  0  0  0  0  0  0  0
    6.7670   -6.2760   18.2470 C   0  0  0  0  0  0  0  0  0  0  0  0
    6.3440   -7.2550   17.3310 C   0  0  0  0  0  0  0  0  0  0  0  0
    7.1160   -8.2070   16.8910 C   0  0  0  0  0  0  0  0  0  0  0  0
    8.3570   -8.5330   17.3460 C   0  0  0  0  0  0  0  0  0  0  0  0
    8.8350   -9.4450   17.0940 F   0  0  0  0  0  0  0  0  0  0  0  0
   10.5020   -8.9750   19.4430 N   0  0  0  0  0  0  0  0  0  0  0  0
   10.3820  -10.6490   19.3740 S   0  0  0  0  0  0  0  0  0  0  0  0
    9.3280  -11.3110   20.0720 O   0  0  0  0  0  0  0  0  0  0  0  0
    9.5490  -10.6380   18.2430 O   0  0  0  0  0  0  0  0  0  0  0  0
   11.4930  -12.0020   19.8930 C   0  0  0  0  0  0  0  0  0  0  0  0
   13.0310  -12.6040   20.2560 C   0  0  0  0  0  0  0  0  0  0  0  0
   12.9730  -14.1360   20.4430 C   0  0  0  0  0  0  0  0  0  0  0  0
   11.7230  -14.5930   20.3680 C   0  0  0  0  0  0  0  0  0  0  0  0
   10.7850  -13.9780   20.1590 N   0  0  0  0  0  0  0  0  0  0  0  0
   10.5550  -12.8260   19.9290 C   0  0  0  0  0  0  0  0  0  0  0  0
   11.2640   -7.9140   20.4490 C   0  0  0  0  0  0  0  0  0  0  0  0
   12.3680   -2.1000   21.2870 C   0  0  0  0  0  0  0  0  0  0  0  0
   13.1750   -3.3670   21.2140 C   0  0  0  0  0  0  0  0  0  0  0  0
   13.1990   -1.0290   21.9780 C   0  0  0  0  0  0  0  0  0  0  0  0
    8.2230   -0.0770   22.5710 C   0  0  0  0  0  0  0  0  0  0  0  0
    6.8660   -0.6810   22.1100 C   0  0  0  0  0  0  0  0  0  0  0  0
  1  2  1  0
  2  3  1  0
  3  4  2  0
  3  5  1  0
  5  6  1  0
  6  7  1  0
  7  8  1  0
  8  9  1  0
  9 10  2  0
 11  9  1  0
 11 12  1  1
 11 13  1  0
 13 14  1  0
 14 15  1  0
 15 16  1  0
 16 17  2  0
 17 18  1  0
 18 19  2  0
 19 20  1  0
 20 21  2  0
 21 22  1  0
 18 23  1  0
 22 23  2  0
 23 24  1  0
 17 25  1  0
 25 26  1  0
 26 27  2  0
 26 28  2  0
 26 29  1  0
 29 30  2  0
 30 31  1  0
 31 32  2  0
 32 33  1  0
 29 34  1  0
 33 34  2  0
 15 35  2  0
 25 35  1  0
 11 36  1  0
 36 37  1  0
 36 38  1  0
  8 39  1  0
  5 40  1  0
 39 40  1  0
M  END
