MAK-UNK-ec98eaf6-50-vinylsulfonamide
     RDKit          3D

 29 32  0  0  0  0  0  0  0  0999 V2000
    7.9710   -3.2980   19.0600 C   0  0  0  0  0  0  0  0  0  0  0  0
    6.8030   -2.4310   18.6480 C   0  0  0  0  0  0  0  0  0  0  0  0
    5.6080   -2.4410   19.9060 S   0  0  0  0  0  0  0  0  0  0  0  0
    4.9620   -3.7130   19.7180 O   0  0  0  0  0  0  0  0  0  0  0  0
    4.9120   -1.1740   19.9060 O   0  0  0  0  0  0  0  0  0  0  0  0
    6.6680   -2.4800   21.2080 N   0  0  0  0  0  0  0  0  0  0  0  0
    7.5540   -1.3290   21.3040 C   0  0  0  0  0  0  0  0  0  0  0  0
    7.7190   -1.1530   22.8000 C   0  0  1  0  0  0  0  0  0  0  0  0
    6.2520   -1.4020   23.1550 C   0  0  0  0  0  0  0  0  0  0  0  0
    6.1720   -2.8060   22.5430 C   0  0  2  0  0  0  0  0  0  0  0  0
    7.3080   -3.3900   23.4030 C   0  0  0  0  0  0  0  0  0  0  0  0
    8.3760   -2.3550   23.3450 N   0  0  0  0  0  0  0  0  0  0  0  0
    9.2080   -2.0600   24.5090 C   0  0  2  0  0  0  0  0  0  0  0  0
    8.4150   -1.2580   25.5550 C   0  0  0  0  0  0  0  0  0  0  0  0
    8.0800   -2.0370   26.8020 C   0  0  0  0  0  0  0  0  0  0  0  0
    7.5690   -1.3030   27.8770 C   0  0  0  0  0  0  0  0  0  0  0  0
    8.1460   -1.3990   29.1360 C   0  0  0  0  0  0  0  0  0  0  0  0
    7.6500   -0.6700   30.2120 C   0  0  0  0  0  0  0  0  0  0  0  0
    6.5580    0.1730   30.0490 C   0  0  0  0  0  0  0  0  0  0  0  0
    6.0710    0.8970   31.1380 C   0  0  0  0  0  0  0  0  0  0  0  0
    5.9620    0.2830   28.7920 C   0  0  0  0  0  0  0  0  0  0  0  0
    6.4680   -0.4570   27.7020 C   0  0  0  0  0  0  0  0  0  0  0  0
   10.3640   -1.2060   24.0040 C   0  0  0  0  0  0  0  0  0  0  0  0
   10.5590    0.1080   24.4590 C   0  0  0  0  0  0  0  0  0  0  0  0
   11.6320    0.8550   23.9580 C   0  0  0  0  0  0  0  0  0  0  0  0
   12.5560    0.3930   23.0080 C   0  0  0  0  0  0  0  0  0  0  0  0
   12.3980   -0.9800   22.4810 C   0  0  0  0  0  0  0  0  0  0  0  0
   13.3960   -1.6820   21.3200 Cl  0  0  0  0  0  0  0  0  0  0  0  0
   11.2330   -1.7610   23.0510 C   0  0  0  0  0  0  0  0  0  0  0  0
  1  2  1  0
  3  2  1  0
  3  4  2  0
  3  5  2  0
  3  6  1  0
  6  7  1  0
  8  7  1  6
  8  9  1  0
  6 10  1  0
  9 10  1  0
 10 11  1  1
  8 12  1  0
 11 12  1  0
 12 13  1  0
 13 14  1  1
 14 15  1  0
 15 16  1  0
 16 17  2  0
 17 18  1  0
 18 19  2  0
 19 20  1  0
 19 21  1  0
 16 22  1  0
 21 22  2  0
 13 23  1  0
 23 24  2  0
 24 25  1  0
 25 26  2  0
 26 27  1  0
 27 28  1  0
 23 29  1  0
 27 29  2  0
M  END
