MAK-UNK-212f693e-25
     RDKit          3D

 16 17  0  0  0  0  0  0  0  0999 V2000
    8.2480   -2.1170   21.0470 N   0  0  0  0  0  0  0  0  0  0  0  0
    7.1210   -2.8380   20.7710 C   0  0  0  0  0  0  0  0  0  0  0  0
    6.3140   -4.1260   20.9090 C   0  0  0  0  0  0  0  0  0  0  0  0
    5.4900   -4.3620   20.0110 O   0  0  0  0  0  0  0  0  0  0  0  0
    6.5390   -4.9510   21.9270 N   0  0  0  0  0  0  0  0  0  0  0  0
    5.4640   -5.7900   22.0450 C   0  0  0  0  0  0  0  0  0  0  0  0
    4.5170   -5.5410   23.2210 C   0  0  0  0  0  0  0  0  0  0  0  0
    5.3250   -5.0870   24.4080 C   0  0  0  0  0  0  0  0  0  0  0  0
    4.7000   -4.8450   25.4590 O   0  0  0  0  0  0  0  0  0  0  0  0
    3.6680   -3.9410   25.4960 C   0  0  0  0  0  0  0  0  0  0  0  0
    3.7760   -2.5660   25.6680 C   0  0  0  0  0  0  0  0  0  0  0  0
    2.6370   -1.7590   25.6950 C   0  0  0  0  0  0  0  0  0  0  0  0
    1.2170   -2.6920   25.4960 S   0  0  0  0  0  0  0  0  0  0  0  0
    2.1570   -4.1270   25.3760 C   0  0  0  0  0  0  0  0  0  0  0  0
    6.2410   -4.0670   24.0780 C   0  0  0  0  0  0  0  0  0  0  0  0
    7.1430   -4.5140   23.1000 C   0  0  0  0  0  0  0  0  0  0  0  0
  1  2  2  3
  2  3  1  0
  3  4  2  0
  3  5  1  0
  5  6  1  0
  6  7  1  0
  7  8  1  0
  8  9  1  0
  9 10  1  0
 10 11  1  0
 11 12  2  0
 12 13  1  0
 10 14  2  0
 13 14  1  0
  8 15  1  0
  5 16  1  0
 15 16  1  0
M  END
