MAK-UNK-148caf23-19-nitrile
     RDKit          3D

 34 37  0  0  0  0  0  0  0  0999 V2000
    8.2090   -3.1850   19.8030 C   0  0  0  0  0  0  0  0  0  0  0  0
    7.9060   -2.6770   18.5610 N   0  0  0  0  0  0  0  0  0  0  0  0
    8.8370   -2.4110   21.2270 C   0  0  0  0  0  0  0  0  0  0  0  0
    8.4380   -3.0030   22.6450 C   0  0  0  0  0  0  0  0  0  0  0  0
    8.9600   -2.2720   23.9750 C   0  0  0  0  0  0  0  0  0  0  0  0
    9.8370   -1.0430   23.7400 C   0  0  0  0  0  0  0  0  0  0  0  0
   10.2790   -0.3610   25.0190 N   0  0  0  0  0  0  0  0  0  0  0  0
    9.4530   -0.5730   26.2240 C   0  0  0  0  0  0  0  0  0  0  0  0
    8.0180   -0.0250   26.0680 C   0  0  0  0  0  0  0  0  0  0  0  0
    7.6640    0.3880   24.6770 N   0  0  0  0  0  0  0  0  0  0  0  0
    6.3340    0.8910   24.5250 C   0  0  0  0  0  0  0  0  0  0  0  0
    5.3830    0.9840   25.7090 C   0  0  0  0  0  0  0  0  0  0  0  0
    5.8140    0.5690   26.9760 C   0  0  0  0  0  0  0  0  0  0  0  0
    7.1120    0.0780   27.1270 C   0  0  0  0  0  0  0  0  0  0  0  0
    7.4690   -0.3820   28.7350 S   0  0  0  0  0  0  0  0  0  0  0  0
    8.4020   -1.4850   28.6710 O   0  0  0  0  0  0  0  0  0  0  0  0
    6.1790   -0.5840   29.3600 O   0  0  0  0  0  0  0  0  0  0  0  0
    8.2090    0.8150   29.6500 N   0  0  0  0  0  0  0  0  0  0  0  0
    9.0810    0.6170   30.6300 C   0  0  0  0  0  0  0  0  0  0  0  0
    9.5670    1.7280   31.2540 C   0  0  0  0  0  0  0  0  0  0  0  0
   10.4870    1.7380   32.3060 C   0  0  0  0  0  0  0  0  0  0  0  0
   11.0280    3.0080   32.3810 N   0  0  0  0  0  0  0  0  0  0  0  0
   11.6740    3.7010   31.2570 C   0  0  0  0  0  0  0  0  0  0  0  0
    8.9010    2.7270   30.5550 C   0  0  0  0  0  0  0  0  0  0  0  0
    8.0630    2.1440   29.5620 C   0  0  0  0  0  0  0  0  0  0  0  0
    7.2690    2.9000   28.6920 C   0  0  0  0  0  0  0  0  0  0  0  0
    7.4730    2.8120   27.3000 C   0  0  0  0  0  0  0  0  0  0  0  0
    6.7350    3.5360   26.3350 C   0  0  0  0  0  0  0  0  0  0  0  0
    5.6740    4.4480   26.8090 C   0  0  0  0  0  0  0  0  0  0  0  0
    5.4530    4.5400   28.3210 C   0  0  0  0  0  0  0  0  0  0  0  0
    6.2460    3.7740   29.2030 C   0  0  0  0  0  0  0  0  0  0  0  0
    6.0250    3.8830   30.5220 F   0  0  0  0  0  0  0  0  0  0  0  0
   10.1840   -0.5900   22.5670 N   0  0  0  0  0  0  0  0  0  0  0  0
    9.7140   -1.2270   21.4320 C   0  0  0  0  0  0  0  0  0  0  0  0
  1  2  2  3
  1  3  1  0
  3  4  2  0
  4  5  1  0
  5  6  2  0
  6  7  1  0
  7  8  1  0
  8  9  1  0
  9 10  2  0
 10 11  1  0
 11 12  2  0
 12 13  1  0
  9 14  1  0
 13 14  2  0
 15 14  1  0
 15 16  2  0
 15 17  2  0
 15 18  1  0
 18 19  1  0
 19 20  2  0
 20 21  1  0
 21 22  1  0
 22 23  1  0
 20 24  1  0
 18 25  1  0
 24 25  2  0
 25 26  1  0
 26 27  2  0
 27 28  1  0
 28 29  2  0
 29 30  1  0
 26 31  1  0
 30 31  2  0
 31 32  1  0
  6 33  1  0
  3 34  1  0
 33 34  2  0
M  END
