MAK-UNK-10dfa458-10-acrylamide
     RDKit          3D

 18 19  0  0  0  0  0  0  0  0999 V2000
    8.1130   -3.7410   20.3030 C   0  0  0  0  0  0  0  0  0  0  0  0
    6.8070   -3.0610   20.1690 C   0  0  0  0  0  0  0  0  0  0  0  0
    5.8730   -4.1520   20.5570 C   0  0  0  0  0  0  0  0  0  0  0  0
    5.0880   -4.5900   19.7450 O   0  0  0  0  0  0  0  0  0  0  0  0
    5.9640   -4.6850   21.8270 N   0  0  0  0  0  0  0  0  0  0  0  0
    6.8690   -4.1630   22.8730 C   0  0  0  0  0  0  0  0  0  0  0  0
    5.9080   -3.8660   24.0890 C   0  0  0  0  0  0  0  0  0  0  0  0
    5.3120   -5.2530   24.3250 C   0  0  0  0  0  0  0  0  0  0  0  0
    4.7390   -4.9820   25.7290 C   0  0  0  0  0  0  0  0  0  0  0  0
    3.6640   -3.8480   25.6110 C   0  0  0  0  0  0  0  0  0  0  0  0
    2.2150   -4.2470   25.4290 C   0  0  0  0  0  0  0  0  0  0  0  0
    1.1910   -3.1310   25.3460 C   0  0  0  0  0  0  0  0  0  0  0  0
    1.6460   -1.8060   25.4400 C   0  0  0  0  0  0  0  0  0  0  0  0
    2.9870   -1.4870   25.5990 C   0  0  0  0  0  0  0  0  0  0  0  0
    3.3650   -0.1090   25.6780 C   0  0  0  0  0  0  0  0  0  0  0  0
    3.9790   -2.4800   25.6860 C   0  0  0  0  0  0  0  0  0  0  0  0
    4.5310   -5.7930   23.2980 C   0  0  0  0  0  0  0  0  0  0  0  0
    5.3740   -5.9630   22.1970 C   0  0  0  0  0  0  0  0  0  0  0  0
  1  2  1  0
  2  3  1  0
  3  4  2  0
  3  5  1  0
  5  6  1  0
  6  7  1  0
  7  8  1  0
  8  9  1  0
  9 10  1  0
 10 11  2  0
 11 12  1  0
 12 13  2  0
 13 14  1  0
 14 15  1  0
 10 16  1  0
 14 16  2  0
  8 17  1  0
  5 18  1  0
 17 18  1  0
M  END
