MAK-UNK-72659d64-6-acrylamide
     RDKit          3D

 15 15  0  0  0  0  0  0  0  0999 V2000
    7.3350   -3.0300   19.1670 C   0  0  0  0  0  0  0  0  0  0  0  0
    5.9480   -2.4380   19.4020 C   0  0  0  0  0  0  0  0  0  0  0  0
    5.6290   -2.3490   20.8850 C   0  0  0  0  0  0  0  0  0  0  0  0
    4.8000   -3.1170   21.3960 O   0  0  0  0  0  0  0  0  0  0  0  0
    6.3100   -1.3840   21.6470 N   0  0  0  0  0  0  0  0  0  0  0  0
    7.4550   -0.7770   21.2140 C   0  0  0  0  0  0  0  0  0  0  0  0
    6.0980   -1.3830   23.0100 C   0  0  0  0  0  0  0  0  0  0  0  0
    5.1960   -2.4620   23.6220 C   0  0  0  0  0  0  0  0  0  0  0  0
    6.3790   -3.1540   22.8820 C   0  0  0  0  0  0  0  0  0  0  0  0
    6.7000   -4.4130   22.6790 N   0  0  0  0  0  0  0  0  0  0  0  0
    5.9040   -5.2870   23.1630 C   0  0  0  0  0  0  0  0  0  0  0  0
    6.2350   -6.5840   22.8810 C   0  0  0  0  0  0  0  0  0  0  0  0
    6.5300   -7.6380   22.5680 N   0  0  0  0  0  0  0  0  0  0  0  0
    4.8410   -4.9890   23.8640 N   0  0  0  0  0  0  0  0  0  0  0  0
    4.5770   -3.6730   24.0430 C   0  0  0  0  0  0  0  0  0  0  0  0
  1  2  1  0
  2  3  1  0
  3  4  2  0
  3  5  1  0
  5  6  1  0
  5  7  1  0
  7  8  1  0
  8  9  2  0
  9 10  1  0
 10 11  2  0
 11 12  1  0
 12 13  3  0
 11 14  1  0
  8 15  1  0
 14 15  2  0
M  END
