MAK-UNK-ec98eaf6-17-vinylsulfonamide
     RDKit          3D

 24 26  0  0  0  0  0  0  0  0999 V2000
    8.0580   -3.5130   19.6280 C   0  0  0  0  0  0  0  0  0  0  0  0
    6.9100   -2.7810   19.0180 C   0  0  0  0  0  0  0  0  0  0  0  0
    5.6530   -3.3120   20.0910 S   0  0  0  0  0  0  0  0  0  0  0  0
    4.3980   -3.0340   19.5350 O   0  0  0  0  0  0  0  0  0  0  0  0
    5.8950   -4.6790   20.4590 O   0  0  0  0  0  0  0  0  0  0  0  0
    6.0440   -2.3760   21.4350 N   0  0  0  0  0  0  0  0  0  0  0  0
    5.8180   -2.9800   22.7870 C   0  0  0  0  0  0  0  0  0  0  0  0
    7.2850   -3.3940   23.0870 C   0  0  1  0  0  0  0  0  0  0  0  0
    8.0120   -3.3000   21.7600 C   0  0  0  0  0  0  0  0  0  0  0  0
    7.4850   -1.9530   21.4110 C   0  0  2  0  0  0  0  0  0  0  0  0
    7.8470   -1.2540   22.6760 C   0  0  0  0  0  0  0  0  0  0  0  0
    7.9480   -2.1910   23.6960 N   0  0  0  0  0  0  0  0  0  0  0  0
    9.3300   -2.5840   23.9910 C   0  0  0  0  0  0  0  0  0  0  0  0
   10.3240   -1.4480   23.8790 C   0  0  0  0  0  0  0  0  0  0  0  0
   11.2910   -1.9230   22.7980 C   0  0  0  0  0  0  0  0  0  0  0  0
   12.4270   -1.0380   22.4100 C   0  0  0  0  0  0  0  0  0  0  0  0
   13.4550   -1.6020   21.2030 Cl  0  0  0  0  0  0  0  0  0  0  0  0
   12.5700    0.2740   23.1000 C   0  0  0  0  0  0  0  0  0  0  0  0
   11.5820    0.6780   24.1490 C   0  0  0  0  0  0  0  0  0  0  0  0
   10.4290   -0.2320   24.5360 C   0  0  0  0  0  0  0  0  0  0  0  0
    9.4070    0.1640   25.6070 C   0  0  0  0  0  0  0  0  0  0  0  0
    8.4820    1.2570   25.0680 C   0  0  0  0  0  0  0  0  0  0  0  0
    9.1730    2.5090   25.0750 O   0  0  0  0  0  0  0  0  0  0  0  0
    8.6680    3.3740   26.0840 C   0  0  0  0  0  0  0  0  0  0  0  0
  1  2  1  0
  3  2  1  0
  3  4  2  0
  3  5  2  0
  3  6  1  0
  6  7  1  0
  8  7  1  6
  8  9  1  0
  6 10  1  0
  9 10  1  0
 10 11  1  1
  8 12  1  0
 11 12  1  0
 12 13  1  0
 13 14  1  0
 14 15  2  0
 15 16  1  0
 16 17  1  0
 16 18  2  0
 18 19  1  0
 14 20  1  0
 19 20  2  0
 20 21  1  0
 21 22  1  0
 22 23  1  0
 23 24  1  0
M  END
