MAK-UNK-148caf23-3-vinylsulfonamide
     RDKit          3D

 37 40  0  0  0  0  0  0  0  0999 V2000
    7.6160   -4.6260   20.7400 C   0  0  0  0  0  0  0  0  0  0  0  0
    6.8840   -5.0140   21.9970 C   0  0  0  0  0  0  0  0  0  0  0  0
    6.1650   -3.4680   22.3730 S   0  0  0  0  0  0  0  0  0  0  0  0
    5.0490   -3.4010   21.3350 O   0  0  0  0  0  0  0  0  0  0  0  0
    5.8100   -3.5140   23.7760 O   0  0  0  0  0  0  0  0  0  0  0  0
    7.7000   -2.4370   22.2800 C   0  0  0  0  0  0  0  0  0  0  0  0
    8.9700   -2.3220   21.6580 C   0  0  0  0  0  0  0  0  0  0  0  0
    7.9760   -1.8840   22.8920 C   0  0  0  0  0  0  0  0  0  0  0  0
    9.0860   -1.4520   23.6370 C   0  0  0  0  0  0  0  0  0  0  0  0
    9.3910   -1.3950   25.0060 N   0  0  0  0  0  0  0  0  0  0  0  0
    8.3550   -0.8650   25.9030 C   0  0  0  0  0  0  0  0  0  0  0  0
    9.0040   -0.3670   27.2210 C   0  0  0  0  0  0  0  0  0  0  0  0
    9.7180   -0.9460   22.6880 N   0  0  0  0  0  0  0  0  0  0  0  0
    8.1680   -0.9290   22.3370 C   0  0  0  0  0  0  0  0  0  0  0  0
    9.2130    0.1310   22.1470 N   0  0  0  0  0  0  0  0  0  0  0  0
    9.7020    0.8450   23.3240 C   0  0  0  0  0  0  0  0  0  0  0  0
    9.8350    2.1670   23.2250 C   0  0  0  0  0  0  0  0  0  0  0  0
    8.8400    3.1530   23.0230 C   0  0  0  0  0  0  0  0  0  0  0  0
    9.2420    4.4050   22.9650 C   0  0  0  0  0  0  0  0  0  0  0  0
    8.4110    5.6090   22.7650 C   0  0  0  0  0  0  0  0  0  0  0  0
    8.8100    6.9070   23.1670 C   0  0  0  0  0  0  0  0  0  0  0  0
    8.0390    8.0630   22.9860 C   0  0  0  0  0  0  0  0  0  0  0  0
    6.7940    8.0010   22.3760 C   0  0  0  0  0  0  0  0  0  0  0  0
    6.3290    6.7380   21.9520 C   0  0  0  0  0  0  0  0  0  0  0  0
    7.0120    5.5370   22.0910 C   0  0  0  0  0  0  0  0  0  0  0  0
    6.4730    4.3890   21.6600 F   0  0  0  0  0  0  0  0  0  0  0  0
   10.6210    4.2790   23.1400 N   0  0  0  0  0  0  0  0  0  0  0  0
   11.7430    5.5650   23.1710 S   0  0  0  0  0  0  0  0  0  0  0  0
   12.0920    5.7080   24.5660 O   0  0  0  0  0  0  0  0  0  0  0  0
   11.0960    6.6370   22.4610 O   0  0  0  0  0  0  0  0  0  0  0  0
   13.1610    5.1050   22.2360 C   0  0  0  0  0  0  0  0  0  0  0  0
   14.4380    4.7330   22.9310 C   0  0  0  0  0  0  0  0  0  0  0  0
   15.6370    4.3470   22.0790 C   0  0  0  0  0  0  0  0  0  0  0  0
   15.3950    4.3920   20.5850 C   0  0  0  0  0  0  0  0  0  0  0  0
   14.2070    4.7390   20.0660 N   0  0  0  0  0  0  0  0  0  0  0  0
   13.1520    5.0720   20.8650 C   0  0  0  0  0  0  0  0  0  0  0  0
   10.9840    2.9540   23.2930 C   0  0  0  0  0  0  0  0  0  0  0  0
  1  2  1  0
  3  2  1  0
  3  4  2  0
  3  5  2  0
  3  6  1  0
  6  7  2  0
  7  8  1  0
  8  9  2  0
  9 10  1  0
 10 11  1  0
 11 12  1  0
  9 13  1  0
  6 14  1  0
 13 14  2  0
 14 15  1  0
 15 16  1  0
 16 17  1  0
 17 18  1  0
 18 19  2  0
 19 20  1  0
 20 21  2  0
 21 22  1  0
 22 23  2  0
 23 24  1  0
 20 25  1  0
 24 25  2  0
 25 26  1  0
 19 27  1  0
 27 28  1  0
 28 29  2  0
 28 30  2  0
 28 31  1  0
 31 32  2  0
 32 33  1  0
 33 34  2  0
 34 35  1  0
 31 36  1  0
 35 36  2  0
 17 37  2  0
 27 37  1  0
M  END
