MAK-UNK-8fdbca50-39-nitrile
     RDKit          3D

 38 41  0  0  0  0  0  0  0  0999 V2000
    7.2700   -3.4850   19.7960 C   0  0  0  0  0  0  0  0  0  0  0  0
    6.1930   -3.2080   19.1370 N   0  0  0  0  0  0  0  0  0  0  0  0
    7.5110   -2.8910   21.0440 N   0  0  0  0  0  0  0  0  0  0  0  0
    7.4530   -1.4340   21.1870 C   0  0  0  0  0  0  0  0  0  0  0  0
    7.3660   -1.1080   22.5520 C   0  0  0  0  0  0  0  0  0  0  0  0
    8.5320   -1.3070   23.3180 C   0  0  0  0  0  0  0  0  0  0  0  0
    9.4250   -0.2220   23.4020 C   0  0  0  0  0  0  0  0  0  0  0  0
   10.8790   -0.3840   23.5100 C   0  0  0  0  0  0  0  0  0  0  0  0
   11.6740   -1.4950   23.5580 N   0  0  0  0  0  0  0  0  0  0  0  0
   12.1210   -1.7940   24.9370 C   0  0  0  0  0  0  0  0  0  0  0  0
   13.1960   -2.6560   24.9150 C   0  0  0  0  0  0  0  0  0  0  0  0
   13.6100   -3.5910   25.8370 C   0  0  0  0  0  0  0  0  0  0  0  0
   14.7880   -4.2360   25.2560 C   0  0  0  0  0  0  0  0  0  0  0  0
   15.5580   -5.3610   25.6710 C   0  0  0  0  0  0  0  0  0  0  0  0
   16.5630   -5.9720   24.6940 C   0  0  0  0  0  0  0  0  0  0  0  0
   17.1770   -7.2270   25.2900 C   0  0  0  0  0  0  0  0  0  0  0  0
   16.7890   -7.6090   26.5570 C   0  0  0  0  0  0  0  0  0  0  0  0
   15.7700   -6.7640   27.3020 C   0  0  0  0  0  0  0  0  0  0  0  0
   15.2300   -5.7000   26.7760 C   0  0  0  0  0  0  0  0  0  0  0  0
   14.3130   -4.9150   27.3590 F   0  0  0  0  0  0  0  0  0  0  0  0
   15.1220   -3.7820   24.1710 N   0  0  0  0  0  0  0  0  0  0  0  0
   16.6320   -4.5930   23.4660 S   0  0  0  0  0  0  0  0  0  0  0  0
   16.2000   -5.2870   22.2670 O   0  0  0  0  0  0  0  0  0  0  0  0
   17.9100   -3.8680   23.4770 O   0  0  0  0  0  0  0  0  0  0  0  0
   17.0120   -5.6970   24.6880 C   0  0  0  0  0  0  0  0  0  0  0  0
   17.8120   -5.5380   25.6530 C   0  0  0  0  0  0  0  0  0  0  0  0
   17.8840   -6.5820   26.5510 C   0  0  0  0  0  0  0  0  0  0  0  0
   17.1940   -7.7500   26.3970 C   0  0  0  0  0  0  0  0  0  0  0  0
   16.4380   -7.9090   25.4020 N   0  0  0  0  0  0  0  0  0  0  0  0
   16.4290   -6.8090   24.6350 C   0  0  0  0  0  0  0  0  0  0  0  0
   14.1180   -2.7620   23.8470 C   0  0  0  0  0  0  0  0  0  0  0  0
    8.8600    1.0600   23.3860 N   0  0  0  0  0  0  0  0  0  0  0  0
    8.3460    1.4870   24.7050 C   0  0  0  0  0  0  0  0  0  0  0  0
    9.2030    1.9840   22.3390 C   0  0  0  0  0  0  0  0  0  0  0  0
   10.3710    2.9020   22.7130 C   0  0  0  0  0  0  0  0  0  0  0  0
    7.9970    2.7900   21.8450 C   0  0  0  0  0  0  0  0  0  0  0  0
    9.2120   -2.5820   22.7990 C   0  0  0  0  0  0  0  0  0  0  0  0
    8.1340   -3.5070   22.2350 C   0  0  0  0  0  0  0  0  0  0  0  0
  1  2  2  3
  1  3  1  0
  3  4  1  0
  4  5  1  0
  5  6  1  0
  6  7  1  0
  7  8  2  3
  8  9  1  0
  9 10  1  0
 10 11  1  0
 11 12  1  0
 12 13  2  0
 13 14  1  0
 14 15  2  0
 15 16  1  0
 16 17  2  0
 17 18  1  0
 14 19  1  0
 18 19  2  0
 19 20  1  0
 13 21  1  0
 21 22  1  0
 22 23  2  0
 22 24  2  0
 22 25  1  0
 25 26  2  0
 26 27  1  0
 27 28  2  0
 28 29  1  0
 25 30  1  0
 29 30  2  0
 11 31  2  0
 21 31  1  0
  7 32  1  0
 32 33  1  0
 32 34  1  0
 34 35  1  0
 34 36  1  0
  6 37  1  0
  3 38  1  0
 37 38  1  0
M  END
