MAK-UNK-516d8086-19-chloroacetamide
     RDKit          3D

 23 25  0  0  0  0  0  0  0  0999 V2000
    6.9750   -3.9180   20.1260 C   0  0  0  0  0  0  0  0  0  0  0  0
    5.6420   -3.6300   20.8240 C   0  0  0  0  0  0  0  0  0  0  0  0
    5.2740   -3.7710   19.6280 O   0  0  0  0  0  0  0  0  0  0  0  0
    6.5680   -3.5660   22.0930 C   0  0  0  0  0  0  0  0  0  0  0  0
    6.0820   -4.5090   23.1820 C   0  0  0  0  0  0  0  0  0  0  0  0
    6.6980   -4.6530   24.3690 N   0  0  0  0  0  0  0  0  0  0  0  0
    7.8180   -3.9200   24.5910 C   0  0  0  0  0  0  0  0  0  0  0  0
    8.6240   -3.9660   25.8380 N   0  0  0  0  0  0  0  0  0  0  0  0
    8.2140   -4.8580   26.7670 C   0  0  0  0  0  0  0  0  0  0  0  0
    9.3160   -5.0300   27.8070 C   0  0  0  0  0  0  0  0  0  0  0  0
    8.4140   -2.9190   23.5540 C   0  0  0  0  0  0  0  0  0  0  0  0
    9.7170   -2.0950   23.8570 C   0  0  0  0  0  0  0  0  0  0  0  0
   10.7060   -2.7970   24.6250 C   0  0  0  0  0  0  0  0  0  0  0  0
   12.0370   -3.0880   25.1520 C   0  0  0  0  0  0  0  0  0  0  0  0
   12.5810   -1.8810   24.7590 C   0  0  0  0  0  0  0  0  0  0  0  0
   11.9060   -1.1300   23.7620 C   0  0  0  0  0  0  0  0  0  0  0  0
   10.9640   -1.1910   22.6600 C   0  0  0  0  0  0  0  0  0  0  0  0
   11.1150   -2.3550   23.2510 N   0  0  0  0  0  0  0  0  0  0  0  0
   10.2320   -2.0750   21.7830 C   0  0  0  0  0  0  0  0  0  0  0  0
    9.5600   -2.9340   21.2660 O   0  0  0  0  0  0  0  0  0  0  0  0
   10.1120   -2.4530   23.0820 N   0  0  0  0  0  0  0  0  0  0  0  0
   11.4050   -2.3830   23.6710 C   0  0  0  0  0  0  0  0  0  0  0  0
    7.7160   -2.7980   22.3250 C   0  0  0  0  0  0  0  0  0  0  0  0
  1  2  1  0
  2  3  2  0
  2  4  1  0
  4  5  2  0
  5  6  1  0
  6  7  2  0
  7  8  1  0
  8  9  1  0
  9 10  1  0
  7 11  1  0
 11 12  1  0
 12 13  1  0
 13 14  2  0
 14 15  1  0
 15 16  2  0
 16 17  1  0
 13 18  1  0
 17 18  2  0
 17 19  1  0
 19 20  2  0
 19 21  1  0
 16 22  1  0
 21 22  1  0
  4 23  1  0
 11 23  2  0
M  END
