MAK-UNK-849bee6c-4-acrylamide
     RDKit          3D

 26 28  0  0  0  0  0  0  0  0999 V2000
    7.4690   -2.9080   18.3480 C   0  0  0  0  0  0  0  0  0  0  0  0
    6.5710   -1.9830   19.1000 C   0  0  0  0  0  0  0  0  0  0  0  0
    5.7770   -2.7200   20.1460 C   0  0  0  0  0  0  0  0  0  0  0  0
    5.0580   -3.7140   19.8740 O   0  0  0  0  0  0  0  0  0  0  0  0
    5.9760   -2.2160   21.4140 N   0  0  0  0  0  0  0  0  0  0  0  0
    6.8570   -1.0450   21.5230 C   0  0  0  0  0  0  0  0  0  0  0  0
    8.2850   -1.4320   21.9030 C   0  0  0  0  0  0  0  0  0  0  0  0
    8.2710   -2.1870   23.1620 N   0  0  0  0  0  0  0  0  0  0  0  0
    9.4890   -2.4460   23.7700 C   0  0  0  0  0  0  0  0  0  0  0  0
   10.4730   -1.3120   23.6330 C   0  0  0  0  0  0  0  0  0  0  0  0
   11.7360   -1.9170   23.0610 C   0  0  0  0  0  0  0  0  0  0  0  0
   12.8770   -0.9530   22.8310 C   0  0  0  0  0  0  0  0  0  0  0  0
   12.5740    0.4800   23.2160 C   0  0  0  0  0  0  0  0  0  0  0  0
   11.2660    0.9870   23.7840 C   0  0  0  0  0  0  0  0  0  0  0  0
   11.0530    2.3320   24.1260 N   0  0  0  0  0  0  0  0  0  0  0  0
   10.3170    3.4090   23.6310 C   0  0  0  0  0  0  0  0  0  0  0  0
   10.8130    4.7190   23.6120 C   0  0  0  0  0  0  0  0  0  0  0  0
    9.9820    5.7620   23.1020 N   0  0  0  0  0  0  0  0  0  0  0  0
    8.7200    5.5240   22.6290 C   0  0  0  0  0  0  0  0  0  0  0  0
    7.7760    6.5650   22.0670 C   0  0  0  0  0  0  0  0  0  0  0  0
    7.3450    7.7540   22.6160 N   0  0  0  0  0  0  0  0  0  0  0  0
    8.2220    4.2680   22.6370 N   0  0  0  0  0  0  0  0  0  0  0  0
    9.0230    3.2720   23.1280 C   0  0  0  0  0  0  0  0  0  0  0  0
   10.2590    0.0400   23.9690 C   0  0  0  0  0  0  0  0  0  0  0  0
    7.4100   -3.3900   23.0660 C   0  0  0  0  0  0  0  0  0  0  0  0
    6.0090   -3.1450   22.5440 C   0  0  0  0  0  0  0  0  0  0  0  0
  1  2  1  0
  2  3  1  0
  3  4  2  0
  3  5  1  0
  5  6  1  0
  6  7  1  0
  7  8  1  0
  8  9  1  0
  9 10  1  0
 10 11  2  0
 11 12  1  0
 12 13  2  0
 13 14  1  0
 14 15  1  0
 15 16  1  0
 16 17  2  0
 17 18  1  0
 18 19  2  0
 19 20  1  0
 20 21  3  0
 19 22  1  0
 16 23  1  0
 22 23  2  0
 10 24  1  0
 14 24  2  0
  8 25  1  0
  5 26  1  0
 25 26  1  0
M  END
