MAK-UNK-8fdbca50-22-acrylamide
     RDKit          3D

 40 43  0  0  0  0  0  0  0  0999 V2000
    6.6360   -3.9950   20.0700 C   0  0  0  0  0  0  0  0  0  0  0  0
    6.4540   -3.7220   21.5570 C   0  0  0  0  0  0  0  0  0  0  0  0
    5.1110   -4.2130   22.0050 C   0  0  0  0  0  0  0  0  0  0  0  0
    4.0770   -4.3650   22.6420 O   0  0  0  0  0  0  0  0  0  0  0  0
    5.4740   -3.2810   22.9870 N   0  0  0  0  0  0  0  0  0  0  0  0
    6.6200   -3.2340   23.7950 C   0  0  0  0  0  0  0  0  0  0  0  0
    6.5580   -2.6670   25.2240 C   0  0  0  0  0  0  0  0  0  0  0  0
    5.5910   -1.4890   25.2500 C   0  0  0  0  0  0  0  0  0  0  0  0
    6.1960   -0.3890   26.1560 C   0  0  0  0  0  0  0  0  0  0  0  0
    5.3990    0.4730   26.5250 O   0  0  0  0  0  0  0  0  0  0  0  0
    7.4610   -0.3020   26.5650 N   0  0  0  0  0  0  0  0  0  0  0  0
    8.2360    0.3430   25.6060 C   0  0  0  0  0  0  0  0  0  0  0  0
    7.7950    1.5090   24.8700 C   0  0  0  0  0  0  0  0  0  0  0  0
    8.6000    2.1250   23.9380 N   0  0  0  0  0  0  0  0  0  0  0  0
    9.9180    1.6650   23.6300 C   0  0  0  0  0  0  0  0  0  0  0  0
   10.4630    0.5170   24.2850 C   0  0  0  0  0  0  0  0  0  0  0  0
   12.0230    0.0710   23.8300 S   0  0  0  0  0  0  0  0  0  0  0  0
   12.5570    1.2330   23.1640 O   0  0  0  0  0  0  0  0  0  0  0  0
   12.6670   -0.4570   25.0030 O   0  0  0  0  0  0  0  0  0  0  0  0
   12.0980   -1.1860   22.7200 N   0  0  0  0  0  0  0  0  0  0  0  0
   13.2290   -2.0560   22.4420 C   0  0  0  0  0  0  0  0  0  0  0  0
   12.8790   -2.9970   21.4070 C   0  0  0  0  0  0  0  0  0  0  0  0
   13.4160   -4.0580   20.6570 C   0  0  0  0  0  0  0  0  0  0  0  0
   14.5330   -4.1070   19.9370 N   0  0  0  0  0  0  0  0  0  0  0  0
   15.2740   -5.2110   20.3360 C   0  0  0  0  0  0  0  0  0  0  0  0
   11.4720   -2.6620   21.1240 C   0  0  0  0  0  0  0  0  0  0  0  0
   11.0570   -1.5730   21.8850 C   0  0  0  0  0  0  0  0  0  0  0  0
    9.7950   -0.9440   21.8030 C   0  0  0  0  0  0  0  0  0  0  0  0
    9.7340    0.4220   21.9460 C   0  0  0  0  0  0  0  0  0  0  0  0
    8.5620    1.1580   21.8430 C   0  0  0  0  0  0  0  0  0  0  0  0
    7.3410    0.5620   21.5910 C   0  0  0  0  0  0  0  0  0  0  0  0
    7.2900   -0.8260   21.4330 C   0  0  0  0  0  0  0  0  0  0  0  0
    8.5930   -1.6390   21.5430 C   0  0  0  0  0  0  0  0  0  0  0  0
    8.5560   -2.9500   21.3820 F   0  0  0  0  0  0  0  0  0  0  0  0
    9.7050   -0.1550   25.2400 C   0  0  0  0  0  0  0  0  0  0  0  0
    7.6850    0.2590   27.9210 C   0  0  0  0  0  0  0  0  0  0  0  0
    8.9330   -0.0120   28.4490 C   0  0  0  0  0  0  0  0  0  0  0  0
    7.4140    1.7650   27.9570 C   0  0  0  0  0  0  0  0  0  0  0  0
    5.3590   -0.9670   23.8360 C   0  0  0  0  0  0  0  0  0  0  0  0
    4.7130   -2.0390   22.9820 C   0  0  0  0  0  0  0  0  0  0  0  0
  1  2  1  0
  2  3  1  0
  3  4  2  0
  3  5  1  0
  5  6  1  0
  6  7  1  0
  7  8  1  0
  8  9  1  0
  9 10  2  0
  9 11  1  0
 11 12  1  0
 12 13  2  0
 13 14  1  0
 14 15  2  0
 15 16  1  0
 17 16  1  0
 17 18  2  0
 17 19  2  0
 17 20  1  0
 20 21  1  0
 21 22  2  0
 22 23  1  0
 23 24  1  0
 24 25  1  0
 22 26  1  0
 20 27  1  0
 26 27  2  0
 27 28  1  0
 28 29  2  0
 29 30  1  0
 30 31  2  0
 31 32  1  0
 28 33  1  0
 32 33  2  0
 33 34  1  0
 12 35  1  0
 16 35  2  0
 11 36  1  0
 36 37  1  0
 36 38  1  0
  8 39  1  0
  5 40  1  0
 39 40  1  0
M  END
