MAK-UNK-ec98eaf6-53-acrylamide
     RDKit          3D

 29 32  0  0  0  0  0  0  0  0999 V2000
    7.9440   -3.2840   19.1010 C   0  0  0  0  0  0  0  0  0  0  0  0
    6.7340   -2.4080   18.9500 C   0  0  0  0  0  0  0  0  0  0  0  0
    5.7700   -2.8600   19.9750 C   0  0  0  0  0  0  0  0  0  0  0  0
    4.9060   -3.6620   19.6470 O   0  0  0  0  0  0  0  0  0  0  0  0
    5.9730   -2.4030   21.2500 N   0  0  0  0  0  0  0  0  0  0  0  0
    5.7430   -3.2040   22.4580 C   0  0  0  0  0  0  0  0  0  0  0  0
    7.0550   -3.0400   23.2790 C   0  0  2  0  0  0  0  0  0  0  0  0
    6.3640   -1.6100   23.2100 C   0  0  0  0  0  0  0  0  0  0  0  0
    6.7740   -1.3250   21.7670 C   0  0  1  0  0  0  0  0  0  0  0  0
    8.2690   -1.6160   21.9970 C   0  0  0  0  0  0  0  0  0  0  0  0
    8.0920   -1.9590   23.4250 N   0  0  0  0  0  0  0  0  0  0  0  0
    9.2920   -2.2510   24.2460 C   0  0  1  0  0  0  0  0  0  0  0  0
    9.7130   -3.6960   24.1980 C   0  0  0  0  0  0  0  0  0  0  0  0
   10.0570   -4.3470   25.3850 C   0  0  0  0  0  0  0  0  0  0  0  0
    9.0410   -4.5840   26.2950 C   0  0  0  0  0  0  0  0  0  0  0  0
    7.9780   -3.6900   26.4080 C   0  0  0  0  0  0  0  0  0  0  0  0
    6.9500   -3.9230   27.3150 C   0  0  0  0  0  0  0  0  0  0  0  0
    6.9840   -5.0590   28.1130 C   0  0  0  0  0  0  0  0  0  0  0  0
    5.9660   -5.3180   29.0180 C   0  0  0  0  0  0  0  0  0  0  0  0
    8.0440   -5.9440   28.0000 C   0  0  0  0  0  0  0  0  0  0  0  0
    9.0690   -5.7150   27.1000 C   0  0  0  0  0  0  0  0  0  0  0  0
   10.4440   -1.3260   23.9280 C   0  0  0  0  0  0  0  0  0  0  0  0
   10.5660   -0.0160   24.3750 C   0  0  0  0  0  0  0  0  0  0  0  0
   11.6490    0.8380   24.0560 C   0  0  0  0  0  0  0  0  0  0  0  0
   12.7580    0.3690   23.2030 C   0  0  0  0  0  0  0  0  0  0  0  0
   12.5760   -1.0740   22.7470 C   0  0  0  0  0  0  0  0  0  0  0  0
   13.4970   -1.8320   21.9060 C   0  0  0  0  0  0  0  0  0  0  0  0
   13.7310   -1.3010   20.6030 N   0  0  0  0  0  0  0  0  0  0  0  0
   11.4610   -1.8150   23.1240 C   0  0  0  0  0  0  0  0  0  0  0  0
  1  2  1  0
  2  3  1  0
  3  4  2  0
  3  5  1  0
  5  6  1  0
  7  6  1  6
  7  8  1  0
  5  9  1  0
  8  9  1  0
  9 10  1  1
  7 11  1  0
 10 11  1  0
 11 12  1  0
 12 13  1  6
 13 14  1  0
 14 15  1  0
 15 16  2  0
 16 17  1  0
 17 18  2  0
 18 19  1  0
 18 20  1  0
 15 21  1  0
 20 21  2  0
 12 22  1  0
 22 23  2  0
 23 24  1  0
 24 25  2  0
 25 26  1  0
 26 27  1  0
 27 28  3  0
 22 29  1  0
 26 29  2  0
M  END
