MAK-UNK-516d8086-6-acrylamide
     RDKit          3D

 24 26  0  0  0  0  0  0  0  0999 V2000
    8.8420   -4.4380   20.7670 C   0  0  0  0  0  0  0  0  0  0  0  0
    7.4610   -3.7400   20.7890 C   0  0  0  0  0  0  0  0  0  0  0  0
    6.3290   -4.5180   21.5580 C   0  0  0  0  0  0  0  0  0  0  0  0
    5.1130   -4.0720   21.6560 O   0  0  0  0  0  0  0  0  0  0  0  0
    6.6840   -5.9620   22.1050 C   0  0  0  0  0  0  0  0  0  0  0  0
    7.8040   -5.2300   22.7990 C   0  0  0  0  0  0  0  0  0  0  0  0
    7.2850   -3.9560   22.4120 C   0  0  0  0  0  0  0  0  0  0  0  0
    7.9120   -2.8410   22.9970 C   0  0  0  0  0  0  0  0  0  0  0  0
    9.2160   -3.1260   23.4520 C   0  0  0  0  0  0  0  0  0  0  0  0
    8.3210   -2.9940   24.6120 C   0  0  0  0  0  0  0  0  0  0  0  0
    7.9170   -3.2100   25.9680 C   0  0  0  0  0  0  0  0  0  0  0  0
    8.6800   -4.1700   25.7230 C   0  0  0  0  0  0  0  0  0  0  0  0
    9.8110   -3.1670   25.5360 C   0  0  0  0  0  0  0  0  0  0  0  0
   10.3010   -3.3510   24.3290 C   0  0  0  0  0  0  0  0  0  0  0  0
   11.1130   -2.9300   25.1010 C   0  0  0  0  0  0  0  0  0  0  0  0
   10.8860   -1.7600   24.8180 O   0  0  0  0  0  0  0  0  0  0  0  0
   10.9230   -4.2110   25.5370 N   0  0  0  0  0  0  0  0  0  0  0  0
    9.7390   -4.7440   24.9840 C   0  0  0  0  0  0  0  0  0  0  0  0
    6.0750   -3.6160   21.4280 C   0  0  0  0  0  0  0  0  0  0  0  0
    5.6920   -2.3120   21.2050 N   0  0  0  0  0  0  0  0  0  0  0  0
    6.2300   -1.6180   20.1580 C   0  0  0  0  0  0  0  0  0  0  0  0
    5.8470   -2.2650   18.8260 C   0  0  0  0  0  0  0  0  0  0  0  0
    5.3970   -4.6190   20.8040 N   0  0  0  0  0  0  0  0  0  0  0  0
    5.4220   -5.8950   21.2450 C   0  0  0  0  0  0  0  0  0  0  0  0
  1  2  1  0
  2  3  1  0
  3  4  2  0
  3  5  1  0
  5  6  2  0
  6  7  1  0
  7  8  1  0
  8  9  1  0
  9 10  2  0
 10 11  1  0
 11 12  2  0
 12 13  1  0
  9 14  1  0
 13 14  2  0
 13 15  1  0
 15 16  2  0
 15 17  1  0
 12 18  1  0
 17 18  1  0
  7 19  2  0
 19 20  1  0
 20 21  1  0
 21 22  1  0
 19 23  1  0
  5 24  1  0
 23 24  1  0
M  END
