MAK-UNK-6435e6c2-6
     RDKit          3D

 20 21  0  0  0  0  0  0  0  0999 V2000
    7.0760   -2.9510   20.7080 C   0  0  0  0  0  0  0  0  0  0  0  0
    6.2740   -4.1820   20.6860 C   0  0  0  0  0  0  0  0  0  0  0  0
    5.4070   -4.4400   19.8510 O   0  0  0  0  0  0  0  0  0  0  0  0
    6.6160   -5.1060   21.7690 N   0  0  0  0  0  0  0  0  0  0  0  0
    7.2630   -4.5670   22.9680 C   0  0  0  0  0  0  0  0  0  0  0  0
    6.2060   -4.2530   23.9900 C   0  0  0  0  0  0  0  0  0  0  0  0
    5.2900   -5.1960   24.2980 N   0  0  0  0  0  0  0  0  0  0  0  0
    4.6290   -5.1310   25.8710 S   0  0  0  0  0  0  0  0  0  0  0  0
    5.6960   -4.8350   26.7990 O   0  0  0  0  0  0  0  0  0  0  0  0
    3.8180   -6.3190   26.0000 O   0  0  0  0  0  0  0  0  0  0  0  0
    3.5920   -3.7260   25.8600 C   0  0  0  0  0  0  0  0  0  0  0  0
    4.2260   -2.3410   26.2740 C   0  0  0  0  0  0  0  0  0  0  0  0
    5.5090   -2.1880   26.6260 F   0  0  0  0  0  0  0  0  0  0  0  0
    3.2870   -1.0950   26.2690 C   0  0  0  0  0  0  0  0  0  0  0  0
    1.9360   -1.6200   25.8380 C   0  0  0  0  0  0  0  0  0  0  0  0
    1.2570   -2.7150   25.4670 C   0  0  0  0  0  0  0  0  0  0  0  0
    2.1600   -3.9380   25.4630 C   0  0  0  0  0  0  0  0  0  0  0  0
    1.6570   -5.1330   25.1210 F   0  0  0  0  0  0  0  0  0  0  0  0
    4.6270   -5.7110   23.0800 C   0  0  0  0  0  0  0  0  0  0  0  0
    5.6640   -6.1790   22.0700 C   0  0  0  0  0  0  0  0  0  0  0  0
  1  2  1  0
  2  3  2  0
  2  4  1  0
  4  5  1  0
  5  6  1  0
  6  7  1  0
  7  8  1  0
  8  9  2  0
  8 10  2  0
  8 11  1  0
 11 12  2  0
 12 13  1  0
 12 14  1  0
 14 15  2  0
 15 16  1  0
 11 17  1  0
 16 17  2  0
 17 18  1  0
  7 19  1  0
  4 20  1  0
 19 20  1  0
M  END
