MAK-UNK-ec98eaf6-36-vinylsulfonamide
     RDKit          3D

 27 30  0  0  0  0  0  0  0  0999 V2000
    7.0090   -4.7950   20.6840 C   0  0  0  0  0  0  0  0  0  0  0  0
    6.0330   -3.7080   21.1070 C   0  0  0  0  0  0  0  0  0  0  0  0
    5.3410   -4.1560   22.6740 S   0  0  0  0  0  0  0  0  0  0  0  0
    3.9570   -3.7780   22.6000 O   0  0  0  0  0  0  0  0  0  0  0  0
    5.6810   -5.5430   22.9100 O   0  0  0  0  0  0  0  0  0  0  0  0
    6.1580   -3.2170   23.8400 N   0  0  0  0  0  0  0  0  0  0  0  0
    7.0770   -3.9490   24.6860 C   0  0  0  0  0  0  0  0  0  0  0  0
    8.1560   -4.2290   23.6470 C   0  0  1  0  0  0  0  0  0  0  0  0
    7.3840   -3.4180   22.6490 C   0  0  0  0  0  0  0  0  0  0  0  0
    7.0690   -2.1260   23.4570 C   0  0  2  0  0  0  0  0  0  0  0  0
    8.4160   -2.0540   22.7020 C   0  0  0  0  0  0  0  0  0  0  0  0
    9.2630   -3.2260   23.3240 C   0  0  1  0  0  0  0  0  0  0  0  0
   10.1550   -2.7220   24.3890 N   0  0  0  0  0  0  0  0  0  0  0  0
   10.9310   -1.5410   23.9890 C   0  0  0  0  0  0  0  0  0  0  0  0
   10.7570   -0.2190   24.6320 C   0  0  0  0  0  0  0  0  0  0  0  0
   11.4940    0.8620   24.2320 C   0  0  0  0  0  0  0  0  0  0  0  0
   12.4310    0.8320   23.2420 C   0  0  0  0  0  0  0  0  0  0  0  0
   13.1150    1.9740   22.9480 C   0  0  0  0  0  0  0  0  0  0  0  0
   14.0610    2.0510   21.9540 C   0  0  0  0  0  0  0  0  0  0  0  0
   14.3350    0.9930   21.1710 C   0  0  0  0  0  0  0  0  0  0  0  0
   15.5820    1.1530   19.4830 S   0  0  0  0  0  0  0  0  0  0  0  0
   15.6610    2.8630   19.3100 N   0  0  0  0  0  0  0  0  0  0  0  0
   16.9270    1.3210   19.1090 O   0  0  0  0  0  0  0  0  0  0  0  0
   14.7690    0.5620   18.4530 O   0  0  0  0  0  0  0  0  0  0  0  0
   13.6340   -0.2500   21.5080 C   0  0  0  0  0  0  0  0  0  0  0  0
   12.6880   -0.3320   22.5400 C   0  0  0  0  0  0  0  0  0  0  0  0
   11.9920   -1.5230   22.8630 C   0  0  0  0  0  0  0  0  0  0  0  0
  1  2  1  0
  3  2  1  0
  3  4  2  0
  3  5  2  0
  3  6  1  0
  6  7  1  0
  8  7  1  1
  8  9  1  0
  6 10  1  0
  9 10  1  0
 10 11  1  1
  8 12  1  0
 11 12  1  0
 12 13  1  1
 13 14  1  0
 14 15  2  0
 15 16  1  0
 16 17  2  0
 17 18  1  0
 18 19  2  0
 19 20  1  0
 20 21  1  0
 21 22  1  0
 21 23  2  0
 21 24  2  0
 20 25  2  0
 17 26  1  0
 25 26  1  0
 14 27  1  0
 26 27  2  0
M  END
