MAK-UNK-8145c7a0-12
     RDKit          3D

 26 28  0  0  0  0  0  0  0  0999 V2000
    7.8380  -11.3520   31.6300 C   0  0  0  0  0  0  0  0  0  0  0  0
    8.1740  -10.7320   29.9510 S   0  0  0  0  0  0  0  0  0  0  0  0
    7.6050  -11.5560   29.0190 O   0  0  0  0  0  0  0  0  0  0  0  0
    9.5990  -10.7440   29.7530 O   0  0  0  0  0  0  0  0  0  0  0  0
    7.4030   -9.2130   29.5130 N   0  0  0  0  0  0  0  0  0  0  0  0
    6.2160   -8.3840   30.0410 C   0  0  0  0  0  0  0  0  0  0  0  0
    6.0760   -6.9900   29.8160 C   0  0  0  0  0  0  0  0  0  0  0  0
    6.4970   -6.1740   28.7470 C   0  0  0  0  0  0  0  0  0  0  0  0
    5.5020   -5.3970   28.1320 C   0  0  0  0  0  0  0  0  0  0  0  0
    5.7800   -4.5240   27.0810 C   0  0  0  0  0  0  0  0  0  0  0  0
    7.1750   -4.3320   26.5010 C   0  0  0  0  0  0  0  0  0  0  0  0
    7.4350   -3.3470   25.3610 C   0  0  0  0  0  0  0  0  0  0  0  0
    6.7990   -2.1830   25.2810 N   0  0  0  0  0  0  0  0  0  0  0  0
    7.1600   -1.4220   24.1930 N   0  0  0  0  0  0  0  0  0  0  0  0
    8.1680   -2.1230   23.4080 C   0  0  0  0  0  0  0  0  0  0  0  0
    8.8000   -1.5840   22.1320 C   0  0  0  0  0  0  0  0  0  0  0  0
   10.0890   -0.9020   22.3910 N   0  0  0  0  0  0  0  0  0  0  0  0
   10.1430   -0.0000   23.5750 C   0  0  0  0  0  0  0  0  0  0  0  0
   11.2440    0.8540   23.4900 C   0  0  0  0  0  0  0  0  0  0  0  0
   12.3720    0.2340   23.0200 C   0  0  0  0  0  0  0  0  0  0  0  0
   12.3880   -0.9960   22.3870 C   0  0  0  0  0  0  0  0  0  0  0  0
   13.5420   -1.5160   21.9580 F   0  0  0  0  0  0  0  0  0  0  0  0
   11.1960   -1.6950   22.1880 C   0  0  0  0  0  0  0  0  0  0  0  0
    8.5680   -3.6380   24.0810 S   0  0  0  0  0  0  0  0  0  0  0  0
    8.1760   -5.1010   27.0860 C   0  0  0  0  0  0  0  0  0  0  0  0
    7.8150   -6.0510   28.2500 C   0  0  0  0  0  0  0  0  0  0  0  0
  1  2  1  0
  2  3  2  0
  2  4  2  0
  2  5  1  0
  5  6  1  0
  6  7  1  0
  7  8  1  0
  8  9  2  0
  9 10  1  0
 10 11  2  0
 11 12  1  0
 12 13  2  0
 13 14  1  0
 14 15  2  0
 15 16  1  0
 16 17  1  0
 17 18  1  0
 18 19  1  0
 19 20  1  0
 20 21  2  0
 21 22  1  0
 17 23  1  0
 21 23  1  0
 12 24  1  0
 15 24  1  0
 11 25  1  0
  8 26  1  0
 25 26  2  0
M  END
