MAK-UNK-8fdbca50-28-acrylamide
     RDKit          3D

 40 43  0  0  0  0  0  0  0  0999 V2000
    6.1030   -5.2810   20.3680 C   0  0  0  0  0  0  0  0  0  0  0  0
    6.1350   -5.4970   21.8800 C   0  0  0  0  0  0  0  0  0  0  0  0
    5.5800   -4.2800   22.5780 C   0  0  0  0  0  0  0  0  0  0  0  0
    4.6540   -3.6560   22.0880 O   0  0  0  0  0  0  0  0  0  0  0  0
    6.1520   -3.9220   23.7750 N   0  0  0  0  0  0  0  0  0  0  0  0
    6.2220   -4.6830   24.9370 C   0  0  0  0  0  0  0  0  0  0  0  0
    7.1200   -4.2310   26.0960 C   0  0  0  0  0  0  0  0  0  0  0  0
    6.9290   -2.7180   26.2830 C   0  0  0  0  0  0  0  0  0  0  0  0
    8.2030   -2.1060   25.6890 C   0  0  0  0  0  0  0  0  0  0  0  0
    9.0800   -2.9100   25.4150 O   0  0  0  0  0  0  0  0  0  0  0  0
    8.4130   -0.8160   25.4530 N   0  0  0  0  0  0  0  0  0  0  0  0
    9.5280   -0.7200   24.6300 C   0  0  0  0  0  0  0  0  0  0  0  0
   10.5100    0.3570   24.6960 C   0  0  0  0  0  0  0  0  0  0  0  0
   11.6060    0.3850   23.8560 C   0  0  0  0  0  0  0  0  0  0  0  0
   11.8270   -0.6090   22.8830 C   0  0  0  0  0  0  0  0  0  0  0  0
   12.8970   -0.6680   21.8870 C   0  0  0  0  0  0  0  0  0  0  0  0
   13.6840    0.4020   21.3450 C   0  0  0  0  0  0  0  0  0  0  0  0
   14.2800   -0.4280   20.2030 C   0  0  0  0  0  0  0  0  0  0  0  0
   15.1600   -0.0000   19.0820 C   0  0  0  0  0  0  0  0  0  0  0  0
   16.1660   -0.7230   18.4440 N   0  0  0  0  0  0  0  0  0  0  0  0
   16.8350   -0.1370   17.2910 C   0  0  0  0  0  0  0  0  0  0  0  0
   13.9310   -1.6800   20.4310 C   0  0  0  0  0  0  0  0  0  0  0  0
   13.1430   -1.8490   21.3370 N   0  0  0  0  0  0  0  0  0  0  0  0
   12.6910   -3.3710   21.4970 S   0  0  0  0  0  0  0  0  0  0  0  0
   11.4140   -3.4100   20.8520 O   0  0  0  0  0  0  0  0  0  0  0  0
   12.9760   -3.3500   22.8830 O   0  0  0  0  0  0  0  0  0  0  0  0
   13.8990   -4.3690   20.5450 C   0  0  0  0  0  0  0  0  0  0  0  0
   14.6710   -3.7540   19.7910 C   0  0  0  0  0  0  0  0  0  0  0  0
   15.6190   -4.2180   18.9890 C   0  0  0  0  0  0  0  0  0  0  0  0
   15.8160   -5.4480   18.9390 C   0  0  0  0  0  0  0  0  0  0  0  0
   15.1320   -6.2720   19.6870 N   0  0  0  0  0  0  0  0  0  0  0  0
   14.1820   -5.6760   20.4520 C   0  0  0  0  0  0  0  0  0  0  0  0
   10.9150   -1.6370   22.7750 C   0  0  0  0  0  0  0  0  0  0  0  0
   11.1390   -2.5300   21.8370 F   0  0  0  0  0  0  0  0  0  0  0  0
    9.6550   -1.8980   23.5830 C   0  0  0  0  0  0  0  0  0  0  0  0
    8.3390    0.1450   26.5680 C   0  0  0  0  0  0  0  0  0  0  0  0
    7.0920    0.7190   26.7240 C   0  0  0  0  0  0  0  0  0  0  0  0
    8.8530   -0.4500   27.8730 C   0  0  0  0  0  0  0  0  0  0  0  0
    5.6960   -2.2610   25.5160 C   0  0  0  0  0  0  0  0  0  0  0  0
    5.9320   -2.5050   24.0460 C   0  0  0  0  0  0  0  0  0  0  0  0
  1  2  1  0
  2  3  1  0
  3  4  2  0
  3  5  1  0
  5  6  1  0
  6  7  1  0
  7  8  1  0
  8  9  1  0
  9 10  2  0
  9 11  1  0
 11 12  1  0
 12 13  2  0
 13 14  1  0
 14 15  2  0
 15 16  1  0
 16 17  2  0
 17 18  1  0
 18 19  1  0
 19 20  1  0
 20 21  1  0
 18 22  2  0
 16 23  1  0
 22 23  1  0
 23 24  1  0
 24 25  2  0
 24 26  2  0
 24 27  1  0
 27 28  2  0
 28 29  1  0
 29 30  2  0
 30 31  1  0
 27 32  1  0
 31 32  2  0
 15 33  1  0
 33 34  1  0
 12 35  1  0
 33 35  2  0
 11 36  1  0
 36 37  1  0
 36 38  1  0
  8 39  1  0
  5 40  1  0
 39 40  1  0
M  END
