MAK-UNK-516d8086-6-vinylsulfonamide
     RDKit          3D

 25 27  0  0  0  0  0  0  0  0999 V2000
    7.7560   -3.1950   18.9320 C   0  0  0  0  0  0  0  0  0  0  0  0
    7.0990   -2.7580   20.2380 C   0  0  0  0  0  0  0  0  0  0  0  0
    6.1080   -4.0110   21.0130 S   0  0  0  0  0  0  0  0  0  0  0  0
    4.9110   -3.3980   21.5660 O   0  0  0  0  0  0  0  0  0  0  0  0
    5.8370   -5.0940   20.0900 O   0  0  0  0  0  0  0  0  0  0  0  0
    7.3320   -4.3810   22.3440 C   0  0  0  0  0  0  0  0  0  0  0  0
    8.4300   -3.3670   22.6370 C   0  0  0  0  0  0  0  0  0  0  0  0
    9.4250   -3.6550   23.7260 C   0  0  0  0  0  0  0  0  0  0  0  0
   10.5990   -2.8400   23.9090 C   0  0  0  0  0  0  0  0  0  0  0  0
   11.5230   -3.3070   24.8450 C   0  0  0  0  0  0  0  0  0  0  0  0
   12.6310   -3.4310   25.4820 C   0  0  0  0  0  0  0  0  0  0  0  0
   13.1560   -2.5200   24.7110 C   0  0  0  0  0  0  0  0  0  0  0  0
   11.6790   -2.6910   24.3090 C   0  0  0  0  0  0  0  0  0  0  0  0
   12.1730   -1.7350   23.4580 C   0  0  0  0  0  0  0  0  0  0  0  0
   12.8150   -2.4160   24.4730 C   0  0  0  0  0  0  0  0  0  0  0  0
   11.2460   -1.1900   22.4670 C   0  0  0  0  0  0  0  0  0  0  0  0
   10.2590   -0.7230   21.8980 O   0  0  0  0  0  0  0  0  0  0  0  0
   10.5270   -1.2140   23.5610 N   0  0  0  0  0  0  0  0  0  0  0  0
   10.4690   -2.5570   23.6900 C   0  0  0  0  0  0  0  0  0  0  0  0
    9.1010   -4.7680   24.5480 C   0  0  0  0  0  0  0  0  0  0  0  0
    9.8590   -5.1640   25.5830 N   0  0  0  0  0  0  0  0  0  0  0  0
    9.1810   -5.8150   26.6320 C   0  0  0  0  0  0  0  0  0  0  0  0
    9.2210   -5.1600   27.8570 C   0  0  0  0  0  0  0  0  0  0  0  0
    7.9660   -5.5160   24.3380 N   0  0  0  0  0  0  0  0  0  0  0  0
    7.2660   -5.7050   23.1760 C   0  0  0  0  0  0  0  0  0  0  0  0
  1  2  1  0
  3  2  1  0
  3  4  2  0
  3  5  2  0
  3  6  1  0
  6  7  2  0
  7  8  1  0
  8  9  1  0
  9 10  1  0
 10 11  2  0
 11 12  1  0
 12 13  2  0
 13 14  1  0
 10 15  1  0
 14 15  2  0
 14 16  1  0
 16 17  2  0
 16 18  1  0
 13 19  1  0
 18 19  1  0
  8 20  2  0
 20 21  1  0
 21 22  1  0
 22 23  1  0
 20 24  1  0
  6 25  1  0
 24 25  1  0
M  END
