MAK-UNK-10799360-16-acrylamide
     RDKit          3D

 26 29  0  0  0  0  0  0  0  0999 V2000
    7.8710   -3.2150   19.2930 C   0  0  0  0  0  0  0  0  0  0  0  0
    6.6880   -2.2860   19.2150 C   0  0  0  0  0  0  0  0  0  0  0  0
    5.5610   -2.8150   20.0320 C   0  0  0  0  0  0  0  0  0  0  0  0
    4.7430   -3.5470   19.4890 O   0  0  0  0  0  0  0  0  0  0  0  0
    5.5560   -2.4930   21.3680 N   0  0  0  0  0  0  0  0  0  0  0  0
    5.2660   -3.3400   22.5390 C   0  0  0  0  0  0  0  0  0  0  0  0
    5.8620   -2.5150   23.7210 C   0  0  2  0  0  0  0  0  0  0  0  0
    4.5580   -1.9090   23.1560 C   0  0  0  0  0  0  0  0  0  0  0  0
    5.1460   -1.2310   21.9040 C   0  0  1  0  0  0  0  0  0  0  0  0
    6.2320   -0.4950   22.6310 C   0  0  0  0  0  0  0  0  0  0  0  0
    5.8670   -1.0350   23.9800 N   0  0  0  0  0  0  0  0  0  0  0  0
    6.6800   -0.5780   25.1130 C   0  0  0  0  0  0  0  0  0  0  0  0
    7.9120   -0.0230   24.7530 C   0  0  0  0  0  0  0  0  0  0  0  0
    8.0360    1.2680   24.2100 C   0  0  0  0  0  0  0  0  0  0  0  0
    9.3080    1.7620   23.8690 C   0  0  0  0  0  0  0  0  0  0  0  0
   10.4200    0.9430   24.0890 C   0  0  0  0  0  0  0  0  0  0  0  0
   10.3030   -0.2930   24.6200 C   0  0  0  0  0  0  0  0  0  0  0  0
    9.0620   -0.7850   24.9480 C   0  0  0  0  0  0  0  0  0  0  0  0
   11.5880   -1.0500   24.8170 C   0  0  0  0  0  0  0  0  0  0  0  0
   12.5270   -0.9160   23.6970 N   0  0  0  0  0  0  0  0  0  0  0  0
   12.6810   -2.3680   22.9180 S   0  0  0  0  0  0  0  0  0  0  0  0
   12.9970   -1.9790   21.2210 C   0  0  0  0  0  0  0  0  0  0  0  0
   11.3650   -2.9460   22.9970 O   0  0  0  0  0  0  0  0  0  0  0  0
   13.8340   -3.0190   23.4750 O   0  0  0  0  0  0  0  0  0  0  0  0
   12.3300    0.3250   22.9110 C   0  0  0  0  0  0  0  0  0  0  0  0
   11.8240    1.2840   23.7880 C   0  0  0  0  0  0  0  0  0  0  0  0
  1  2  1  0
  2  3  1  0
  3  4  2  0
  3  5  1  0
  5  6  1  0
  7  6  1  6
  7  8  1  0
  5  9  1  0
  8  9  1  0
  9 10  1  1
  7 11  1  0
 10 11  1  0
 11 12  1  0
 12 13  1  0
 13 14  2  0
 14 15  1  0
 15 16  2  0
 16 17  1  0
 13 18  1  0
 17 18  2  0
 17 19  1  0
 19 20  1  0
 20 21  1  0
 21 22  1  0
 21 23  2  0
 21 24  2  0
 20 25  1  0
 16 26  1  0
 25 26  1  0
M  END
