MAK-UNK-516d8086-18-vinylsulfonamide
     RDKit          3D

 25 27  0  0  0  0  0  0  0  0999 V2000
    9.3580   -4.2570   20.5920 C   0  0  0  0  0  0  0  0  0  0  0  0
    7.7330   -4.3710   20.4530 C   0  0  0  0  0  0  0  0  0  0  0  0
    6.4980   -3.1240   20.8550 S   0  0  0  0  0  0  0  0  0  0  0  0
    5.1830   -3.7520   21.3320 O   0  0  0  0  0  0  0  0  0  0  0  0
    6.3730   -2.3670   19.6280 O   0  0  0  0  0  0  0  0  0  0  0  0
    7.4960   -1.9970   21.9540 C   0  0  0  0  0  0  0  0  0  0  0  0
    7.3740   -3.3950   22.6510 C   0  0  0  0  0  0  0  0  0  0  0  0
    7.7950   -3.9750   23.8000 N   0  0  0  0  0  0  0  0  0  0  0  0
    8.5210   -3.2410   24.6080 C   0  0  0  0  0  0  0  0  0  0  0  0
    9.1080   -3.6500   25.9130 N   0  0  0  0  0  0  0  0  0  0  0  0
    8.3370   -4.4350   26.6920 C   0  0  0  0  0  0  0  0  0  0  0  0
    9.1690   -4.9270   27.8790 C   0  0  0  0  0  0  0  0  0  0  0  0
    8.8080   -1.8140   24.1780 C   0  0  0  0  0  0  0  0  0  0  0  0
    9.6130   -0.8990   24.9570 N   0  0  0  0  0  0  0  0  0  0  0  0
   10.2160    0.3050   24.4740 C   0  0  0  0  0  0  0  0  0  0  0  0
    8.8450    0.4570   24.7650 C   0  0  0  0  0  0  0  0  0  0  0  0
    9.7920   -0.5990   24.8700 C   0  0  0  0  0  0  0  0  0  0  0  0
   10.4610   -1.6700   25.0520 C   0  0  0  0  0  0  0  0  0  0  0  0
   11.6440   -1.9990   24.8570 C   0  0  0  0  0  0  0  0  0  0  0  0
   11.4730   -0.5400   24.4270 C   0  0  0  0  0  0  0  0  0  0  0  0
   11.4690   -3.2110   25.2970 C   0  0  0  0  0  0  0  0  0  0  0  0
   11.9030   -4.3070   25.4880 O   0  0  0  0  0  0  0  0  0  0  0  0
   12.4220   -2.4760   24.5640 N   0  0  0  0  0  0  0  0  0  0  0  0
   11.6530   -1.0910   24.5320 C   0  0  0  0  0  0  0  0  0  0  0  0
    8.2770   -1.3640   22.9610 C   0  0  0  0  0  0  0  0  0  0  0  0
  1  2  1  0
  3  2  1  0
  3  4  2  0
  3  5  2  0
  3  6  1  0
  6  7  2  0
  7  8  1  0
  8  9  2  0
  9 10  1  0
 10 11  1  0
 11 12  1  0
  9 13  1  0
 13 14  1  0
 14 15  1  0
 15 16  2  0
 16 17  1  0
 17 18  2  0
 18 19  1  0
 15 20  1  0
 19 20  2  0
 19 21  1  0
 21 22  2  0
 21 23  1  0
 18 24  1  0
 23 24  1  0
  6 25  1  0
 13 25  2  0
M  END
