MAK-UNK-148caf23-3-chloroacetamide
     RDKit          3D

 35 38  0  0  0  0  0  0  0  0999 V2000
    7.8350   -4.1470   20.9110 C   0  0  0  0  0  0  0  0  0  0  0  0
    7.9050   -2.7730   20.2480 C   0  0  0  0  0  0  0  0  0  0  0  0
    7.1430   -2.8210   19.0910 O   0  0  0  0  0  0  0  0  0  0  0  0
    8.8990   -1.6380   21.0910 C   0  0  0  0  0  0  0  0  0  0  0  0
    7.9630   -2.1850   22.0360 C   0  0  0  0  0  0  0  0  0  0  0  0
    7.6910   -2.0250   23.4080 C   0  0  0  0  0  0  0  0  0  0  0  0
    8.3680   -1.1880   24.2300 C   0  0  0  0  0  0  0  0  0  0  0  0
    8.0970   -1.0390   25.5980 N   0  0  0  0  0  0  0  0  0  0  0  0
    9.0380   -0.1700   26.3250 C   0  0  0  0  0  0  0  0  0  0  0  0
    8.9190   -0.2910   27.8390 C   0  0  0  0  0  0  0  0  0  0  0  0
    9.3600   -0.4590   23.7120 N   0  0  0  0  0  0  0  0  0  0  0  0
    9.6820   -0.5850   22.3140 C   0  0  0  0  0  0  0  0  0  0  0  0
   10.9500    0.4260   22.1090 N   0  0  0  0  0  0  0  0  0  0  0  0
   11.3850    1.8710   22.5710 C   0  0  0  0  0  0  0  0  0  0  0  0
   12.9870    2.5690   22.3670 C   0  0  0  0  0  0  0  0  0  0  0  0
   13.3570    4.0060   22.6960 C   0  0  0  0  0  0  0  0  0  0  0  0
   14.8890    4.0890   22.4800 C   0  0  0  0  0  0  0  0  0  0  0  0
   16.3470    4.6410   22.4490 C   0  0  0  0  0  0  0  0  0  0  0  0
   17.2230    4.6080   21.1510 C   0  0  0  0  0  0  0  0  0  0  0  0
   18.6490    5.1890   21.3150 C   0  0  0  0  0  0  0  0  0  0  0  0
   19.1560    5.6710   22.5300 C   0  0  0  0  0  0  0  0  0  0  0  0
   18.3330    5.5990   23.6390 C   0  0  0  0  0  0  0  0  0  0  0  0
   17.0360    5.0800   23.4790 C   0  0  0  0  0  0  0  0  0  0  0  0
   16.3140    4.9410   24.3900 F   0  0  0  0  0  0  0  0  0  0  0  0
   15.3620    3.2460   22.1360 N   0  0  0  0  0  0  0  0  0  0  0  0
   17.0040    4.1290   22.1980 S   0  0  0  0  0  0  0  0  0  0  0  0
   17.3750    3.1250   23.2020 O   0  0  0  0  0  0  0  0  0  0  0  0
   17.5860    4.2310   20.8620 O   0  0  0  0  0  0  0  0  0  0  0  0
   18.2680    4.6580   23.3660 C   0  0  0  0  0  0  0  0  0  0  0  0
   18.8480    3.5720   24.3190 C   0  0  0  0  0  0  0  0  0  0  0  0
   19.9710    3.9710   25.2820 C   0  0  0  0  0  0  0  0  0  0  0  0
   20.3990    5.2420   25.2800 C   0  0  0  0  0  0  0  0  0  0  0  0
   19.8960    6.2150   24.4690 N   0  0  0  0  0  0  0  0  0  0  0  0
   18.8630    5.9470   23.5320 C   0  0  0  0  0  0  0  0  0  0  0  0
   14.3750    2.1450   21.9310 C   0  0  0  0  0  0  0  0  0  0  0  0
  1  2  1  0
  2  3  2  0
  2  4  1  0
  4  5  2  0
  5  6  1  0
  6  7  2  0
  7  8  1  0
  8  9  1  0
  9 10  1  0
  7 11  1  0
  4 12  1  0
 11 12  2  0
 12 13  1  0
 13 14  1  0
 14 15  1  0
 15 16  1  0
 16 17  2  0
 17 18  1  0
 18 19  2  0
 19 20  1  0
 20 21  2  0
 21 22  1  0
 18 23  1  0
 22 23  2  0
 23 24  1  0
 17 25  1  0
 25 26  1  0
 26 27  2  0
 26 28  2  0
 26 29  1  0
 29 30  2  0
 30 31  1  0
 31 32  2  0
 32 33  1  0
 29 34  1  0
 33 34  2  0
 15 35  2  0
 25 35  1  0
M  END
