MAK-UNK-e4a48a85-13-chloroacetamide
     RDKit          3D

 20 21  0  0  0  0  0  0  0  0999 V2000
    6.9080   -3.0530   19.0130 C   0  0  0  0  0  0  0  0  0  0  0  0
    5.8750   -3.5410   20.0430 C   0  0  0  0  0  0  0  0  0  0  0  0
    5.2080   -4.5420   19.8550 O   0  0  0  0  0  0  0  0  0  0  0  0
    5.6920   -2.8400   21.2250 N   0  0  0  0  0  0  0  0  0  0  0  0
    6.0760   -1.4350   21.2790 C   0  0  0  0  0  0  0  0  0  0  0  0
    7.5420   -1.4990   21.7390 C   0  0  0  0  0  0  0  0  0  0  0  0
    7.5740   -2.0840   23.1270 N   0  0  0  0  0  0  0  0  0  0  0  0
    8.8620   -2.0650   23.8360 C   0  0  0  0  0  0  0  0  0  0  0  0
    9.8520   -1.3100   22.9340 C   0  0  0  0  0  0  0  0  0  0  0  0
    9.9680    0.0770   23.6880 C   0  0  2  0  0  0  0  0  0  0  0  0
    9.2820    1.0630   23.0000 N   0  0  0  0  0  0  0  0  0  0  0  0
   11.3290    0.2970   24.0170 N   0  0  0  0  0  0  0  0  0  0  0  0
   12.3470    0.5020   23.1190 C   0  0  0  0  0  0  0  0  0  0  0  0
   12.7440   -0.8080   22.3970 C   0  0  0  0  0  0  0  0  0  0  0  0
   13.1120   -1.9180   23.3750 C   0  0  0  0  0  0  0  0  0  0  0  0
   13.3410   -3.1130   22.7800 O   0  0  0  0  0  0  0  0  0  0  0  0
   12.0720   -1.9960   24.4760 C   0  0  0  0  0  0  0  0  0  0  0  0
   11.7360   -0.5980   24.9850 C   0  0  0  0  0  0  0  0  0  0  0  0
    6.9960   -3.4340   23.2110 C   0  0  0  0  0  0  0  0  0  0  0  0
    5.6460   -3.4900   22.5260 C   0  0  0  0  0  0  0  0  0  0  0  0
  1  2  1  0
  2  3  2  0
  2  4  1  0
  4  5  1  0
  5  6  1  0
  6  7  1  0
  7  8  1  0
  8  9  1  0
  9 10  1  0
 10 11  1  6
 10 12  1  0
 12 13  1  0
 13 14  1  0
 14 15  1  0
 15 16  1  0
 15 17  1  0
 12 18  1  0
 17 18  1  0
  7 19  1  0
  4 20  1  0
 19 20  1  0
M  END
