MAK-UNK-10799360-33-acrylamide
     RDKit          3D

 27 30  0  0  0  0  0  0  0  0999 V2000
    7.3480   -2.9450   18.3720 C   0  0  0  0  0  0  0  0  0  0  0  0
    6.5800   -1.8880   19.1310 C   0  0  0  0  0  0  0  0  0  0  0  0
    5.8800   -2.5340   20.2880 C   0  0  0  0  0  0  0  0  0  0  0  0
    5.0280   -3.4000   20.1680 O   0  0  0  0  0  0  0  0  0  0  0  0
    6.3290   -2.0690   21.4630 N   0  0  0  0  0  0  0  0  0  0  0  0
    6.2550   -2.5830   22.7980 C   0  0  2  0  0  0  0  0  0  0  0  0
    6.7530   -1.3110   23.5130 C   0  0  0  0  0  0  0  0  0  0  0  0
    8.1740   -1.2100   22.8350 C   0  0  2  0  0  0  0  0  0  0  0  0
    7.3890   -1.0740   21.4920 C   0  0  2  0  0  0  0  0  0  0  0  0
    6.7900    0.3260   21.5220 C   0  0  0  0  0  0  0  0  0  0  0  0
    7.7590    1.4630   21.8580 C   0  0  0  0  0  0  0  0  0  0  0  0
    9.0880    1.2550   22.2850 C   0  0  0  0  0  0  0  0  0  0  0  0
    9.9230    2.3440   22.5750 C   0  0  0  0  0  0  0  0  0  0  0  0
    9.4330    3.6360   22.4360 C   0  0  0  0  0  0  0  0  0  0  0  0
   10.2550    4.6890   22.7040 O   0  0  0  0  0  0  0  0  0  0  0  0
    8.1280    3.8540   22.0190 C   0  0  0  0  0  0  0  0  0  0  0  0
    7.2970    2.7780   21.7320 C   0  0  0  0  0  0  0  0  0  0  0  0
    8.2350   -2.3580   23.7980 N   0  0  0  0  0  0  0  0  0  0  0  0
    9.5990   -2.8040   23.9960 C   0  0  0  0  0  0  0  0  0  0  0  0
   10.5240   -1.7580   23.7940 C   0  0  0  0  0  0  0  0  0  0  0  0
   10.6110   -0.5210   24.4910 C   0  0  0  0  0  0  0  0  0  0  0  0
   11.6080    0.4400   24.1680 C   0  0  0  0  0  0  0  0  0  0  0  0
   12.5190    0.1500   23.1490 C   0  0  0  0  0  0  0  0  0  0  0  0
   12.4520   -1.0640   22.4460 C   0  0  0  0  0  0  0  0  0  0  0  0
   13.4790   -1.5290   21.1960 Cl  0  0  0  0  0  0  0  0  0  0  0  0
   11.4310   -2.0180   22.7900 C   0  0  0  0  0  0  0  0  0  0  0  0
    7.4500   -3.4420   23.1500 C   0  0  0  0  0  0  0  0  0  0  0  0
  1  2  1  0
  2  3  1  0
  3  4  2  0
  3  5  1  0
  5  6  1  0
  6  7  1  0
  7  8  1  0
  5  9  1  0
  8  9  1  0
  9 10  1  1
 10 11  1  0
 11 12  2  0
 12 13  1  0
 13 14  2  0
 14 15  1  0
 14 16  1  0
 11 17  1  0
 16 17  2  0
  8 18  1  6
 18 19  1  0
 19 20  1  0
 20 21  2  0
 21 22  1  0
 22 23  2  0
 23 24  1  0
 24 25  1  0
 20 26  1  0
 24 26  2  0
  6 27  1  6
 18 27  1  0
M  END
