MAK-UNK-6c8f5f75-3-vinylsulfonamide
     RDKit          3D

 12 12  0  0  0  0  0  0  0  0999 V2000
    7.7330   -3.5900   19.6440 C   0  0  0  0  0  0  0  0  0  0  0  0
    7.0710   -2.4490   18.9250 C   0  0  0  0  0  0  0  0  0  0  0  0
    5.6420   -2.4160   19.9220 S   0  0  0  0  0  0  0  0  0  0  0  0
    5.0300   -3.7400   19.7960 O   0  0  0  0  0  0  0  0  0  0  0  0
    4.9390   -1.1890   19.6320 O   0  0  0  0  0  0  0  0  0  0  0  0
    6.3610   -2.2540   21.4670 N   0  0  0  0  0  0  0  0  0  0  0  0
    6.2920   -3.3580   22.4000 C   0  0  0  0  0  0  0  0  0  0  0  0
    7.5470   -3.4240   23.1920 C   0  0  0  0  0  0  0  0  0  0  0  0
    8.5140   -2.3280   22.7480 C   0  0  2  0  0  0  0  0  0  0  0  0
    9.1590   -1.4630   23.8280 C   0  0  0  0  0  0  0  0  0  0  0  0
   10.4250   -1.0190   23.5170 N   0  0  0  0  0  0  0  0  0  0  0  0
    7.6700   -1.5420   21.6940 C   0  0  0  0  0  0  0  0  0  0  0  0
  1  2  1  0
  3  2  1  0
  3  4  2  0
  3  5  2  0
  3  6  1  0
  6  7  1  0
  7  8  2  0
  8  9  1  0
  9 10  1  1
 10 11  3  0
  6 12  1  0
  9 12  1  0
M  END
