MAK-UNK-e4a48a85-18-nitrile
     RDKit          3D

 28 30  0  0  0  0  0  0  0  0999 V2000
    6.6450   -3.9600   20.1050 C   0  0  0  0  0  0  0  0  0  0  0  0
    5.6200   -3.5710   19.4510 N   0  0  0  0  0  0  0  0  0  0  0  0
    7.2450   -3.2200   21.1010 N   0  0  0  0  0  0  0  0  0  0  0  0
    6.8570   -3.2710   22.5330 C   0  0  0  0  0  0  0  0  0  0  0  0
    8.2000   -3.0690   23.3470 C   0  0  0  0  0  0  0  0  0  0  0  0
    8.8850   -1.7790   22.9750 N   0  0  0  0  0  0  0  0  0  0  0  0
   10.1320   -1.5900   23.7470 C   0  0  0  0  0  0  0  0  0  0  0  0
   10.9200   -0.2950   23.4270 C   0  0  0  0  0  0  0  0  0  0  0  0
   12.3210   -0.6380   22.9070 C   0  0  0  0  0  0  0  0  0  0  0  0
   13.2230    0.6590   22.5590 C   0  0  0  0  0  0  0  0  0  0  0  0
   12.6910    2.1300   22.7430 C   0  0  0  0  0  0  0  0  0  0  0  0
   13.3470    3.2760   22.4960 N   0  0  0  0  0  0  0  0  0  0  0  0
   14.5920    2.9570   21.9520 C   0  0  0  0  0  0  0  0  0  0  0  0
   15.8600    3.9070   22.1800 C   0  0  0  0  0  0  0  0  0  0  0  0
   16.9640    3.5030   22.9520 N   0  0  0  0  0  0  0  0  0  0  0  0
   17.6030    4.3800   23.8980 C   0  0  0  0  0  0  0  0  0  0  0  0
   19.0530    4.5150   23.6680 N   0  0  0  0  0  0  0  0  0  0  0  0
   19.8160    3.8980   24.8080 C   0  0  0  0  0  0  0  0  0  0  0  0
   21.3340    4.1240   24.8240 C   0  0  0  0  0  0  0  0  0  0  0  0
   21.7730    5.2950   23.9620 C   0  0  0  0  0  0  0  0  0  0  0  0
   22.9880    5.8120   24.5000 O   0  0  0  0  0  0  0  0  0  0  0  0
   20.7010    6.3680   24.0620 C   0  0  0  0  0  0  0  0  0  0  0  0
   19.4040    5.9110   23.3520 C   0  0  0  0  0  0  0  0  0  0  0  0
   11.3780    2.2980   23.2250 C   0  0  0  0  0  0  0  0  0  0  0  0
   10.6750    3.6180   23.4630 C   0  0  0  0  0  0  0  0  0  0  0  0
   10.4440    1.1260   23.5840 C   0  0  0  0  0  0  0  0  0  0  0  0
    9.0430   -1.6620   21.5660 C   0  0  0  0  0  0  0  0  0  0  0  0
    7.8200   -1.9340   20.7070 C   0  0  0  0  0  0  0  0  0  0  0  0
  1  2  2  3
  1  3  1  0
  3  4  1  0
  4  5  1  0
  5  6  1  0
  6  7  1  0
  7  8  1  0
  8  9  2  0
  9 10  1  0
 10 11  2  0
 11 12  1  0
 12 13  1  0
 13 14  1  0
 14 15  1  0
 15 16  1  0
 16 17  1  0
 17 18  1  0
 18 19  1  0
 19 20  1  0
 20 21  1  0
 20 22  1  0
 17 23  1  0
 22 23  1  0
 11 24  1  0
 24 25  1  0
  8 26  1  0
 24 26  2  0
  6 27  1  0
  3 28  1  0
 27 28  1  0
M  END
