MAK-UNK-516d8086-10-acrylamide
     RDKit          3D

 24 26  0  0  0  0  0  0  0  0999 V2000
    6.5490   -4.0170   20.0180 C   0  0  0  0  0  0  0  0  0  0  0  0
    6.8220   -3.5210   21.4560 C   0  0  0  0  0  0  0  0  0  0  0  0
    5.6610   -2.7380   22.0270 C   0  0  0  0  0  0  0  0  0  0  0  0
    5.0320   -3.7030   21.5900 O   0  0  0  0  0  0  0  0  0  0  0  0
    6.8180   -1.8510   22.3620 C   0  0  0  0  0  0  0  0  0  0  0  0
    6.6270   -0.3630   22.6600 C   0  0  0  0  0  0  0  0  0  0  0  0
    7.7800    0.3410   22.9550 N   0  0  0  0  0  0  0  0  0  0  0  0
    9.0820   -0.2190   22.9950 C   0  0  0  0  0  0  0  0  0  0  0  0
   10.2040    0.6210   23.3120 N   0  0  0  0  0  0  0  0  0  0  0  0
    9.9350    2.0440   23.6290 C   0  0  0  0  0  0  0  0  0  0  0  0
   11.2980    3.0260   23.0650 Cl  0  0  0  0  0  0  0  0  0  0  0  0
    9.2560   -1.5960   22.7210 C   0  0  0  0  0  0  0  0  0  0  0  0
   10.6100   -2.3530   22.7210 C   0  0  0  0  0  0  0  0  0  0  0  0
   11.7010   -2.0610   23.5920 C   0  0  0  0  0  0  0  0  0  0  0  0
   12.4570   -1.2790   22.9870 C   0  0  0  0  0  0  0  0  0  0  0  0
   11.1300   -2.0060   22.7150 C   0  0  0  0  0  0  0  0  0  0  0  0
   10.1110   -3.0650   23.5460 C   0  0  0  0  0  0  0  0  0  0  0  0
   10.8080   -3.2830   24.9260 C   0  0  0  0  0  0  0  0  0  0  0  0
   11.6980   -2.5810   24.6600 C   0  0  0  0  0  0  0  0  0  0  0  0
   10.3770   -4.1120   26.0760 C   0  0  0  0  0  0  0  0  0  0  0  0
   11.5090   -4.5110   26.2280 O   0  0  0  0  0  0  0  0  0  0  0  0
    9.4040   -3.4900   25.6130 N   0  0  0  0  0  0  0  0  0  0  0  0
    9.3370   -3.9480   24.3430 C   0  0  0  0  0  0  0  0  0  0  0  0
    8.1200   -2.3800   22.4120 C   0  0  0  0  0  0  0  0  0  0  0  0
  1  2  1  0
  2  3  1  0
  3  4  2  0
  3  5  1  0
  5  6  2  0
  6  7  1  0
  7  8  2  0
  8  9  1  0
  9 10  1  0
 10 11  1  0
  8 12  1  0
 12 13  1  0
 13 14  1  0
 14 15  2  0
 15 16  1  0
 16 17  2  0
 17 18  1  0
 14 19  1  0
 18 19  2  0
 18 20  1  0
 20 21  2  0
 20 22  1  0
 17 23  1  0
 22 23  1  0
  5 24  1  0
 12 24  2  0
M  END
