MAK-UNK-10799360-8-nitrile
     RDKit          3D

 28 31  0  0  0  0  0  0  0  0999 V2000
    6.7000   -3.8330   19.9640 C   0  0  0  0  0  0  0  0  0  0  0  0
    5.8350   -4.7790   19.9590 N   0  0  0  0  0  0  0  0  0  0  0  0
    6.6600   -2.9200   20.9830 N   0  0  0  0  0  0  0  0  0  0  0  0
    7.5740   -1.7960   21.1780 C   0  0  0  0  0  0  0  0  0  0  0  0
    8.4400   -2.5810   22.1730 C   0  0  2  0  0  0  0  0  0  0  0  0
    7.6030   -3.8740   22.3790 C   0  0  0  0  0  0  0  0  0  0  0  0
    6.2050   -3.2250   22.3680 C   0  0  1  0  0  0  0  0  0  0  0  0
    7.0030   -3.2470   23.6930 C   0  0  0  0  0  0  0  0  0  0  0  0
    8.0690   -2.2050   23.5070 N   0  0  0  0  0  0  0  0  0  0  0  0
    9.2120   -2.4350   24.3380 C   0  0  0  0  0  0  0  0  0  0  0  0
   10.2760   -1.4910   23.9250 C   0  0  0  0  0  0  0  0  0  0  0  0
   11.3580   -1.8780   22.9730 C   0  0  0  0  0  0  0  0  0  0  0  0
   12.3030   -0.9460   22.6200 C   0  0  0  0  0  0  0  0  0  0  0  0
   13.4660   -1.4620   21.5100 Cl  0  0  0  0  0  0  0  0  0  0  0  0
   12.2550    0.3380   23.1590 C   0  0  0  0  0  0  0  0  0  0  0  0
   11.2250    0.6840   24.0500 C   0  0  0  0  0  0  0  0  0  0  0  0
   10.2100   -0.2160   24.4480 C   0  0  0  0  0  0  0  0  0  0  0  0
    9.1130    0.0250   25.3100 C   0  0  0  0  0  0  0  0  0  0  0  0
    9.1600    1.3150   26.0170 N   0  0  0  0  0  0  0  0  0  0  0  0
    8.0970    2.1610   26.0610 C   0  0  0  0  0  0  0  0  0  0  0  0
    6.9720    1.7630   25.7430 O   0  0  0  0  0  0  0  0  0  0  0  0
    8.3640    3.4500   26.4730 N   0  0  0  0  0  0  0  0  0  0  0  0
    9.0490    4.3290   25.5100 C   0  0  0  0  0  0  0  0  0  0  0  0
    8.6030    5.7740   25.7260 C   0  0  0  0  0  0  0  0  0  0  0  0
    8.6650    6.0780   27.1400 N   0  0  0  0  0  0  0  0  0  0  0  0
    9.0190    5.1000   28.0410 C   0  0  0  0  0  0  0  0  0  0  0  0
    9.7480    5.3100   29.0100 O   0  0  0  0  0  0  0  0  0  0  0  0
    8.5450    3.7840   27.8970 C   0  0  0  0  0  0  0  0  0  0  0  0
  1  2  2  3
  1  3  1  0
  3  4  1  0
  5  4  1  6
  5  6  1  0
  3  7  1  0
  6  7  1  0
  7  8  1  1
  5  9  1  0
  8  9  1  0
  9 10  1  0
 10 11  1  0
 11 12  2  0
 12 13  1  0
 13 14  1  0
 13 15  2  0
 15 16  1  0
 11 17  1  0
 16 17  2  0
 17 18  1  0
 18 19  1  0
 19 20  1  0
 20 21  2  0
 20 22  1  0
 22 23  1  0
 23 24  1  0
 24 25  1  0
 25 26  1  0
 26 27  2  0
 22 28  1  0
 26 28  1  0
M  END
