MAK-UNK-ec98eaf6-30-chloroacetamide
     RDKit          3D

 20 21  0  0  0  0  0  0  0  0999 V2000
    7.2640   -2.9750   18.8800 C   0  0  0  0  0  0  0  0  0  0  0  0
    6.2990   -3.3100   19.9840 C   0  0  0  0  0  0  0  0  0  0  0  0
    5.3820   -4.1220   19.7630 O   0  0  0  0  0  0  0  0  0  0  0  0
    6.4830   -2.7160   21.2280 N   0  0  0  0  0  0  0  0  0  0  0  0
    6.6840   -1.3120   21.6530 C   0  0  0  0  0  0  0  0  0  0  0  0
    7.8660   -1.4090   22.7350 C   0  0  1  0  0  0  0  0  0  0  0  0
    8.8590   -1.5460   21.5530 C   0  0  0  0  0  0  0  0  0  0  0  0
   10.1870   -2.2840   21.7750 C   0  0  0  0  0  0  0  0  0  0  0  0
    8.5520   -1.0350   20.4830 O   0  0  0  0  0  0  0  0  0  0  0  0
    6.5950   -2.1500   23.3470 C   0  0  0  0  0  0  0  0  0  0  0  0
    6.6120   -3.4030   22.4810 C   0  0  2  0  0  0  0  0  0  0  0  0
    8.0240   -3.8340   22.7890 C   0  0  2  0  0  0  0  0  0  0  0  0
    7.8140   -5.1340   23.6220 C   0  0  0  0  0  0  0  0  0  0  0  0
    6.8060   -6.0170   22.8860 C   0  0  0  0  0  0  0  0  0  0  0  0
    5.6910   -6.3760   23.5860 N   0  0  0  0  0  0  0  0  0  0  0  0
    7.0040   -6.3480   21.7250 O   0  0  0  0  0  0  0  0  0  0  0  0
    8.4340   -2.5970   23.5000 N   0  0  0  0  0  0  0  0  0  0  0  0
    9.5740   -2.5080   24.2780 C   0  0  0  0  0  0  0  0  0  0  0  0
   10.4180   -3.7420   24.4590 C   0  0  0  0  0  0  0  0  0  0  0  0
    9.8990   -1.4600   24.8210 O   0  0  0  0  0  0  0  0  0  0  0  0
  1  2  1  0
  2  3  2  0
  2  4  1  0
  4  5  1  0
  5  6  1  0
  6  7  1  6
  7  8  1  0
  7  9  2  0
  6 10  1  0
 11  4  1  6
 10 11  1  0
 11 12  1  0
 12 13  1  1
 13 14  1  0
 14 15  1  0
 14 16  2  0
  6 17  1  0
 12 17  1  0
 17 18  1  0
 18 19  1  0
 18 20  2  0
M  END
