MAK-UNK-10dfa458-5-chloroacetamide
     RDKit          3D

 19 20  0  0  0  0  0  0  0  0999 V2000
    7.1850   -3.3650   19.8770 C   0  0  0  0  0  0  0  0  0  0  0  0
    6.2320   -4.3770   20.4910 C   0  0  0  0  0  0  0  0  0  0  0  0
    5.2010   -4.6200   19.8940 O   0  0  0  0  0  0  0  0  0  0  0  0
    6.4620   -5.0600   21.6620 N   0  0  0  0  0  0  0  0  0  0  0  0
    5.7520   -6.2890   22.0200 C   0  0  0  0  0  0  0  0  0  0  0  0
    4.7760   -5.7870   23.1140 C   0  0  0  0  0  0  0  0  0  0  0  0
    5.5780   -5.2320   24.2290 N   0  0  0  0  0  0  0  0  0  0  0  0
    4.7760   -5.1370   25.7310 S   0  0  0  0  0  0  0  0  0  0  0  0
    5.7650   -4.8570   26.7420 O   0  0  0  0  0  0  0  0  0  0  0  0
    3.8730   -6.2610   25.8300 O   0  0  0  0  0  0  0  0  0  0  0  0
    3.7250   -3.7640   25.7900 C   0  0  0  0  0  0  0  0  0  0  0  0
    4.2870   -2.4190   26.1130 C   0  0  0  0  0  0  0  0  0  0  0  0
    3.2500   -1.2740   26.1560 C   0  0  0  0  0  0  0  0  0  0  0  0
    1.6790   -1.3200   25.9090 C   0  0  0  0  0  0  0  0  0  0  0  0
    1.4530   -2.8120   25.6070 C   0  0  0  0  0  0  0  0  0  0  0  0
    0.1800   -3.1430   25.3520 F   0  0  0  0  0  0  0  0  0  0  0  0
    2.4150   -3.9540   25.5510 C   0  0  0  0  0  0  0  0  0  0  0  0
    6.4250   -4.0990   23.8430 C   0  0  0  0  0  0  0  0  0  0  0  0
    7.2470   -4.4580   22.7650 C   0  0  0  0  0  0  0  0  0  0  0  0
  1  2  1  0
  2  3  2  0
  2  4  1  0
  4  5  1  0
  5  6  1  0
  6  7  1  0
  7  8  1  0
  8  9  2  0
  8 10  2  0
  8 11  1  0
 11 12  2  0
 12 13  1  0
 13 14  2  0
 14 15  1  0
 15 16  1  0
 11 17  1  0
 15 17  2  0
  7 18  1  0
  4 19  1  0
 18 19  1  0
M  END
