MAK-UNK-212f693e-18
     RDKit          3D

 16 17  0  0  0  0  0  0  0  0999 V2000
    6.2160   -1.9440   21.6500 C   0  0  0  0  0  0  0  0  0  0  0  0
    6.8980   -2.9550   20.7290 C   0  0  0  0  0  0  0  0  0  0  0  0
    6.2000   -4.3320   20.7590 C   0  0  0  0  0  0  0  0  0  0  0  0
    5.4490   -4.7380   19.8710 O   0  0  0  0  0  0  0  0  0  0  0  0
    6.5240   -5.1380   21.9430 N   0  0  0  0  0  0  0  0  0  0  0  0
    5.5740   -6.2240   22.2170 C   0  0  0  0  0  0  0  0  0  0  0  0
    4.5990   -5.8490   23.2890 C   0  0  0  0  0  0  0  0  0  0  0  0
    4.9420   -4.7200   24.0330 C   0  0  0  0  0  0  0  0  0  0  0  0
    4.4630   -4.7240   25.1750 O   0  0  0  0  0  0  0  0  0  0  0  0
    3.5430   -3.7460   25.4100 C   0  0  0  0  0  0  0  0  0  0  0  0
    3.7280   -2.4250   25.7460 C   0  0  0  0  0  0  0  0  0  0  0  0
    2.5470   -1.7300   25.9030 C   0  0  0  0  0  0  0  0  0  0  0  0
    1.1760   -2.7290   25.6290 S   0  0  0  0  0  0  0  0  0  0  0  0
    2.1800   -4.0990   25.2980 C   0  0  0  0  0  0  0  0  0  0  0  0
    6.3340   -4.5190   24.1980 C   0  0  0  0  0  0  0  0  0  0  0  0
    7.1740   -4.6600   23.0790 C   0  0  0  0  0  0  0  0  0  0  0  0
  1  2  1  0
  2  3  1  0
  3  4  2  0
  3  5  1  0
  5  6  1  0
  6  7  1  0
  7  8  1  0
  8  9  1  0
  9 10  1  0
 10 11  1  0
 11 12  2  0
 12 13  1  0
 10 14  2  0
 13 14  1  0
  8 15  1  0
  5 16  1  0
 15 16  1  0
M  END
