MAK-UNK-9a6be56d-32
     RDKit          3D

 38 42  0  0  0  0  0  0  0  0999 V2000
    9.7740    0.0390   24.7680 C   0  0  0  0  0  0  0  0  0  0  0  0
    9.6860    0.5130   23.3170 C   0  0  2  0  0  0  0  0  0  0  0  0
    8.4020    0.9940   22.9140 N   0  0  0  0  0  0  0  0  0  0  0  0
    7.2440    0.0800   22.7800 C   0  0  0  0  0  0  0  0  0  0  0  0
    7.7230   -1.2240   23.0240 C   0  0  0  0  0  0  0  0  0  0  0  0
    8.9200   -1.2560   23.5270 C   0  0  0  0  0  0  0  0  0  0  0  0
    9.4430   -2.4370   23.7710 C   0  0  0  0  0  0  0  0  0  0  0  0
   10.7250   -2.4180   24.2940 C   0  0  0  0  0  0  0  0  0  0  0  0
   11.4570   -1.0740   24.4090 C   0  0  0  0  0  0  0  0  0  0  0  0
   12.7340   -1.0130   24.9130 C   0  0  0  0  0  0  0  0  0  0  0  0
   13.3580   -2.2510   25.3340 C   0  0  0  0  0  0  0  0  0  0  0  0
   12.6800   -3.4230   25.2300 C   0  0  0  0  0  0  0  0  0  0  0  0
   11.3780   -3.5160   24.7160 C   0  0  0  0  0  0  0  0  0  0  0  0
   10.7010   -4.6640   24.6180 F   0  0  0  0  0  0  0  0  0  0  0  0
    8.4200   -3.3240   23.3710 N   0  0  0  0  0  0  0  0  0  0  0  0
    8.3010   -5.0430   23.3630 S   0  0  0  0  0  0  0  0  0  0  0  0
    8.6170   -5.4840   22.0330 O   0  0  0  0  0  0  0  0  0  0  0  0
    8.9930   -5.6230   24.4720 O   0  0  0  0  0  0  0  0  0  0  0  0
    6.6320   -5.3010   23.6050 C   0  0  0  0  0  0  0  0  0  0  0  0
    5.9050   -6.0900   22.7210 C   0  0  0  0  0  0  0  0  0  0  0  0
    4.5270   -6.3060   22.9170 C   0  0  0  0  0  0  0  0  0  0  0  0
    3.8490   -5.6420   24.1430 C   0  0  0  0  0  0  0  0  0  0  0  0
    4.5760   -4.8460   25.0370 N   0  0  0  0  0  0  0  0  0  0  0  0
    6.0090   -4.7150   24.6940 C   0  0  0  0  0  0  0  0  0  0  0  0
    7.3640   -2.5690   22.9110 C   0  0  0  0  0  0  0  0  0  0  0  0
   10.1990   -0.4490   22.3770 C   0  0  0  0  0  0  0  0  0  0  0  0
   11.5410   -0.8620   22.5810 C   0  0  0  0  0  0  0  0  0  0  0  0
   12.4990    0.1340   22.7710 C   0  0  0  0  0  0  0  0  0  0  0  0
   11.8860    1.5000   22.9640 C   0  0  0  0  0  0  0  0  0  0  0  0
   12.6750    2.6260   22.8750 C   0  0  0  0  0  0  0  0  0  0  0  0
   12.1580    3.8970   23.0630 C   0  0  0  0  0  0  0  0  0  0  0  0
   10.8050    4.0780   23.3580 C   0  0  0  0  0  0  0  0  0  0  0  0
   10.0900    5.6660   23.6420 S   0  0  0  0  0  0  0  0  0  0  0  0
   11.3230    6.6730   23.1150 N   0  0  0  0  0  0  0  0  0  0  0  0
    8.9550    5.8560   22.7660 O   0  0  0  0  0  0  0  0  0  0  0  0
    9.9640    5.8740   25.0750 O   0  0  0  0  0  0  0  0  0  0  0  0
   10.0200    2.9180   23.4280 C   0  0  0  0  0  0  0  0  0  0  0  0
   10.5150    1.6250   23.2360 C   0  0  0  0  0  0  0  0  0  0  0  0
  2  1  1  1
  2  3  1  0
  3  4  1  0
  4  5  1  0
  5  6  1  0
  6  7  2  0
  7  8  1  0
  8  9  2  0
  9 10  1  0
 10 11  2  0
 11 12  1  0
  8 13  1  0
 12 13  2  0
 13 14  1  0
  7 15  1  0
 15 16  1  0
 16 17  2  0
 16 18  2  0
 16 19  1  0
 19 20  2  0
 20 21  1  0
 21 22  2  0
 22 23  1  0
 19 24  1  0
 23 24  2  0
  5 25  2  0
 15 25  1  0
  2 26  1  0
 26 27  1  0
 27 28  1  0
 28 29  1  0
 29 30  2  0
 30 31  1  0
 31 32  2  0
 32 33  1  0
 33 34  1  0
 33 35  2  0
 33 36  2  0
 32 37  1  0
  2 38  1  0
 29 38  1  0
 37 38  2  0
M  END
