MAK-UNK-bae89c02-2-nitrile
     RDKit          3D

 26 29  0  0  0  0  0  0  0  0999 V2000
    8.1740   -4.1480   20.0610 C   0  0  0  0  0  0  0  0  0  0  0  0
    6.9490   -4.0110   19.5630 N   0  0  0  0  0  0  0  0  0  0  0  0
    8.3170   -4.3900   21.3950 N   0  0  0  0  0  0  0  0  0  0  0  0
    9.3170   -3.6690   22.1980 C   0  0  0  0  0  0  0  0  0  0  0  0
    8.7890   -3.7950   23.6040 C   0  0  2  0  0  0  0  0  0  0  0  0
    8.0250   -5.0890   23.5490 C   0  0  0  0  0  0  0  0  0  0  0  0
    7.2070   -4.7210   22.3330 C   0  0  1  0  0  0  0  0  0  0  0  0
    6.5980   -3.4090   22.7700 C   0  0  0  0  0  0  0  0  0  0  0  0
    7.6560   -2.7050   23.6550 C   0  0  2  0  0  0  0  0  0  0  0  0
    8.1350   -1.3560   23.2480 N   0  0  0  0  0  0  0  0  0  0  0  0
    9.0280   -0.7960   24.3060 C   0  0  0  0  0  0  0  0  0  0  0  0
   10.2770   -0.3160   23.8980 C   0  0  0  0  0  0  0  0  0  0  0  0
   10.2460    1.0980   23.5740 C   0  0  0  0  0  0  0  0  0  0  0  0
   11.4580    1.6470   23.1650 C   0  0  0  0  0  0  0  0  0  0  0  0
   12.6590    0.8490   23.0710 C   0  0  0  0  0  0  0  0  0  0  0  0
   12.6330   -0.4770   23.3860 C   0  0  0  0  0  0  0  0  0  0  0  0
   11.4750   -1.1010   23.8100 C   0  0  0  0  0  0  0  0  0  0  0  0
   11.5170   -2.4340   24.1330 C   0  0  0  0  0  0  0  0  0  0  0  0
   11.5600   -3.5280   24.4520 N   0  0  0  0  0  0  0  0  0  0  0  0
    7.2170   -0.4110   22.4460 C   0  0  2  0  0  0  0  0  0  0  0  0
    6.1940   -1.1280   21.7720 C   0  0  0  0  0  0  0  0  0  0  0  0
    6.2940   -1.4230   20.3930 C   0  0  0  0  0  0  0  0  0  0  0  0
    6.9710   -0.3490   19.5600 C   0  0  1  0  0  0  0  0  0  0  0  0
    6.1860   -0.0660   18.3950 O   0  0  0  0  0  0  0  0  0  0  0  0
    7.1470    0.9150   20.3740 C   0  0  0  0  0  0  0  0  0  0  0  0
    7.9040    0.5380   21.6440 C   0  0  0  0  0  0  0  0  0  0  0  0
  1  2  2  3
  1  3  1  0
  3  4  1  0
  5  4  1  6
  5  6  1  0
  3  7  1  0
  6  7  1  0
  7  8  1  1
  5  9  1  0
  8  9  1  0
  9 10  1  6
 10 11  1  0
 11 12  1  0
 12 13  2  0
 13 14  1  0
 14 15  2  0
 15 16  1  0
 12 17  1  0
 16 17  2  0
 17 18  1  0
 18 19  3  0
 20 10  1  6
 20 21  1  0
 21 22  1  0
 22 23  1  0
 23 24  1  6
 23 25  1  0
 20 26  1  0
 25 26  1  0
M  END
