MAK-UNK-8fdbca50-39-vinylsulfonamide
     RDKit          3D

 41 44  0  0  0  0  0  0  0  0999 V2000
    9.0210   -3.8070   20.2180 C   0  0  0  0  0  0  0  0  0  0  0  0
    7.6050   -3.2160   20.1580 C   0  0  0  0  0  0  0  0  0  0  0  0
    6.8440   -3.3880   21.7400 S   0  0  0  0  0  0  0  0  0  0  0  0
    5.1370   -3.4970   21.3890 O   0  0  0  0  0  0  0  0  0  0  0  0
    7.3650   -4.6520   22.2450 O   0  0  0  0  0  0  0  0  0  0  0  0
    8.1640   -2.1240   22.4790 N   0  0  0  0  0  0  0  0  0  0  0  0
    9.4250   -1.5990   21.7050 C   0  0  0  0  0  0  0  0  0  0  0  0
   10.9050   -2.0610   22.1600 C   0  0  0  0  0  0  0  0  0  0  0  0
   10.9810   -1.8500   23.6640 C   0  0  0  0  0  0  0  0  0  0  0  0
   10.8710   -3.2950   24.3350 C   0  0  0  0  0  0  0  0  0  0  0  0
   12.2300   -3.7880   24.9990 C   0  0  0  0  0  0  0  0  0  0  0  0
   13.5740   -3.0760   24.9800 N   0  0  0  0  0  0  0  0  0  0  0  0
   14.6810   -3.8590   25.6830 C   0  0  0  0  0  0  0  0  0  0  0  0
   16.2080   -3.5040   25.4570 C   0  0  0  0  0  0  0  0  0  0  0  0
   17.1770   -4.2580   24.5370 C   0  0  0  0  0  0  0  0  0  0  0  0
   18.4540   -3.7090   24.5350 C   0  0  0  0  0  0  0  0  0  0  0  0
   19.7600   -3.7870   23.9960 C   0  0  0  0  0  0  0  0  0  0  0  0
   20.8070   -4.5660   24.4480 C   0  0  0  0  0  0  0  0  0  0  0  0
   22.0610   -4.4330   23.8370 C   0  0  0  0  0  0  0  0  0  0  0  0
   22.3380   -3.5680   22.7950 C   0  0  0  0  0  0  0  0  0  0  0  0
   21.3240   -2.7710   22.3060 C   0  0  0  0  0  0  0  0  0  0  0  0
   20.0520   -2.9030   22.9280 C   0  0  0  0  0  0  0  0  0  0  0  0
   19.0970   -2.1360   22.4750 F   0  0  0  0  0  0  0  0  0  0  0  0
   18.3950   -2.6460   25.4320 N   0  0  0  0  0  0  0  0  0  0  0  0
   19.9360   -1.9600   25.5270 S   0  0  0  0  0  0  0  0  0  0  0  0
   20.4990   -2.4080   26.7850 O   0  0  0  0  0  0  0  0  0  0  0  0
   20.5810   -2.4440   24.3320 O   0  0  0  0  0  0  0  0  0  0  0  0
   20.3260   -0.2310   25.4010 C   0  0  0  0  0  0  0  0  0  0  0  0
   20.0070   -1.0080   26.6180 C   0  0  0  0  0  0  0  0  0  0  0  0
   20.0010   -0.4090   27.7250 C   0  0  0  0  0  0  0  0  0  0  0  0
   20.3200    0.7260   27.2970 C   0  0  0  0  0  0  0  0  0  0  0  0
   20.5700    1.6160   26.9640 N   0  0  0  0  0  0  0  0  0  0  0  0
   20.6440    1.2990   25.5890 C   0  0  0  0  0  0  0  0  0  0  0  0
   17.0840   -2.4730   25.9820 C   0  0  0  0  0  0  0  0  0  0  0  0
    9.6020   -4.0380   24.3550 N   0  0  0  0  0  0  0  0  0  0  0  0
    8.3570   -3.2830   24.5690 C   0  0  0  0  0  0  0  0  0  0  0  0
    9.4450   -5.3980   24.6000 C   0  0  0  0  0  0  0  0  0  0  0  0
   10.1730   -5.9770   25.7810 C   0  0  0  0  0  0  0  0  0  0  0  0
    9.6250   -6.2790   23.3410 C   0  0  0  0  0  0  0  0  0  0  0  0
    9.8100   -0.9140   24.0350 C   0  0  0  0  0  0  0  0  0  0  0  0
    8.4410   -1.6050   23.8840 C   0  0  0  0  0  0  0  0  0  0  0  0
  1  2  1  0
  3  2  1  0
  3  4  2  0
  3  5  2  0
  3  6  1  0
  6  7  1  0
  7  8  1  0
  8  9  1  0
  9 10  1  0
 10 11  2  3
 11 12  1  0
 12 13  1  0
 13 14  1  0
 14 15  1  0
 15 16  2  0
 16 17  1  0
 17 18  2  0
 18 19  1  0
 19 20  2  0
 20 21  1  0
 17 22  1  0
 21 22  2  0
 22 23  1  0
 16 24  1  0
 24 25  1  0
 25 26  2  0
 25 27  2  0
 25 28  1  0
 28 29  2  0
 29 30  1  0
 30 31  2  0
 31 32  1  0
 28 33  1  0
 32 33  2  0
 14 34  2  0
 24 34  1  0
 10 35  1  0
 35 36  1  0
 35 37  1  0
 37 38  1  0
 37 39  1  0
  9 40  1  0
  6 41  1  0
 40 41  1  0
M  END
