MAK-UNK-df1a028e-5-acrylamide
     RDKit          3D

 22 24  0  0  0  0  0  0  0  0999 V2000
    7.9110   -3.2780   19.0430 C   0  0  0  0  0  0  0  0  0  0  0  0
    6.7050   -2.4160   18.8280 C   0  0  0  0  0  0  0  0  0  0  0  0
    5.7610   -2.8030   19.8930 C   0  0  0  0  0  0  0  0  0  0  0  0
    4.8750   -3.6060   19.6370 O   0  0  0  0  0  0  0  0  0  0  0  0
    6.0310   -2.2780   21.1230 N   0  0  0  0  0  0  0  0  0  0  0  0
    6.5720   -0.9380   21.3030 C   0  0  0  0  0  0  0  0  0  0  0  0
    7.4620   -1.1460   22.5480 C   0  0  1  0  0  0  0  0  0  0  0  0
    5.9730   -1.3240   23.0320 C   0  0  0  0  0  0  0  0  0  0  0  0
    5.8080   -2.7450   22.4720 C   0  0  2  0  0  0  0  0  0  0  0  0
    7.0560   -3.3370   23.1370 C   0  0  0  0  0  0  0  0  0  0  0  0
    7.3800   -2.0020   23.8210 C   0  0  1  0  0  0  0  0  0  0  0  0
    8.5650   -2.0040   24.6490 N   0  0  0  0  0  0  0  0  0  0  0  0
   10.0140   -2.1050   23.8970 S   0  0  0  0  0  0  0  0  0  0  0  0
   10.8270   -3.1950   24.3450 O   0  0  0  0  0  0  0  0  0  0  0  0
    9.6720   -2.0150   22.4960 O   0  0  0  0  0  0  0  0  0  0  0  0
   10.9520   -0.6790   24.2350 C   0  0  0  0  0  0  0  0  0  0  0  0
   11.0630   -1.6600   23.2540 C   0  0  0  0  0  0  0  0  0  0  0  0
   11.8930   -1.8450   22.2620 C   0  0  0  0  0  0  0  0  0  0  0  0
   12.8450   -1.0130   22.0510 C   0  0  0  0  0  0  0  0  0  0  0  0
   13.5570   -1.4770   20.8790 C   0  0  0  0  0  0  0  0  0  0  0  0
   12.9760    0.0700   22.8930 C   0  0  0  0  0  0  0  0  0  0  0  0
   12.0450    0.2110   23.9450 C   0  0  0  0  0  0  0  0  0  0  0  0
  1  2  1  0
  2  3  1  0
  3  4  2  0
  3  5  1  0
  5  6  1  0
  7  6  1  6
  7  8  1  0
  5  9  1  0
  8  9  1  0
  9 10  1  1
  7 11  1  0
 10 11  1  0
 11 12  1  6
 13 12  1  0
 13 14  2  0
 13 15  2  0
 13 16  1  0
 16 17  2  0
 17 18  1  0
 18 19  2  0
 19 20  1  0
 19 21  1  0
 16 22  1  0
 21 22  2  0
M  END
