MAK-UNK-9e4a73aa-27
     RDKit          3D

 26 29  0  0  0  0  0  0  0  0999 V2000
    9.2310   -3.7700   22.4950 O   0  0  0  0  0  0  0  0  0  0  0  0
    9.3830   -2.7120   23.0430 C   0  0  0  0  0  0  0  0  0  0  0  0
   10.6140   -1.8160   22.8160 C   0  0  0  0  0  0  0  0  0  0  0  0
   11.6030   -2.1410   21.7120 C   0  0  0  0  0  0  0  0  0  0  0  0
   12.7780   -1.2240   21.4820 C   0  0  0  0  0  0  0  0  0  0  0  0
   13.7150   -1.4230   20.5610 F   0  0  0  0  0  0  0  0  0  0  0  0
   12.8470    0.0320   22.3350 C   0  0  0  0  0  0  0  0  0  0  0  0
   13.9080    1.3020   22.2550 Cl  0  0  0  0  0  0  0  0  0  0  0  0
   11.7980    0.1470   23.4030 C   0  0  0  0  0  0  0  0  0  0  0  0
   10.8010   -0.7460   23.6020 C   0  0  0  0  0  0  0  0  0  0  0  0
    9.9640   -0.6880   24.6060 N   0  0  0  0  0  0  0  0  0  0  0  0
   10.7510   -1.7780   25.1030 C   0  0  0  0  0  0  0  0  0  0  0  0
   12.0870   -1.4070   25.0080 C   0  0  0  0  0  0  0  0  0  0  0  0
   13.2240   -2.3580   25.4020 C   0  0  0  0  0  0  0  0  0  0  0  0
   12.7250   -3.7510   25.9260 C   0  0  0  0  0  0  0  0  0  0  0  0
   11.2220   -3.9610   25.9470 C   0  0  0  0  0  0  0  0  0  0  0  0
   10.2970   -3.0210   25.5570 C   0  0  0  0  0  0  0  0  0  0  0  0
    8.5770   -1.0840   24.4770 C   0  0  0  0  0  0  0  0  0  0  0  0
    7.5490   -0.3510   25.0210 O   0  0  0  0  0  0  0  0  0  0  0  0
    8.4050   -2.2170   23.7990 N   0  0  0  0  0  0  0  0  0  0  0  0
    7.1340   -2.3960   23.0980 C   0  0  0  0  0  0  0  0  0  0  0  0
    8.1160   -1.5300   22.2830 C   0  0  0  0  0  0  0  0  0  0  0  0
    7.7570   -1.0000   20.9960 C   0  0  0  0  0  0  0  0  0  0  0  0
    6.8660   -0.8930   20.0640 C   0  0  0  0  0  0  0  0  0  0  0  0
    5.8750   -1.6340   20.6410 N   0  0  0  0  0  0  0  0  0  0  0  0
    5.9710   -2.3150   21.9950 C   0  0  0  0  0  0  0  0  0  0  0  0
  1  2  2  0
  2  3  1  0
  3  4  2  0
  4  5  1  0
  5  6  1  0
  5  7  2  0
  7  8  1  0
  7  9  1  0
  3 10  1  0
  9 10  2  0
 10 11  1  0
 11 12  1  0
 12 13  2  0
 13 14  1  0
 14 15  2  0
 15 16  1  0
 12 17  1  0
 16 17  2  0
 11 18  1  0
 18 19  2  0
  2 20  1  0
 18 20  1  0
 20 21  1  0
 21 22  2  0
 22 23  1  0
 23 24  2  0
 24 25  1  0
 21 26  1  0
 25 26  2  0
M  END
