MAK-UNK-10799360-17-chloroacetamide
     RDKit          3D

 26 29  0  0  0  0  0  0  0  0999 V2000
    7.3190   -3.2070   19.3520 C   0  0  0  0  0  0  0  0  0  0  0  0
    6.2830   -3.8890   20.3330 C   0  0  0  0  0  0  0  0  0  0  0  0
    5.5680   -4.8180   19.9760 O   0  0  0  0  0  0  0  0  0  0  0  0
    6.0870   -3.4360   21.6320 N   0  0  0  0  0  0  0  0  0  0  0  0
    5.7380   -4.3180   22.7670 C   0  0  0  0  0  0  0  0  0  0  0  0
    7.1910   -4.5980   23.3040 C   0  0  1  0  0  0  0  0  0  0  0  0
    7.5980   -3.9120   22.0550 C   0  0  0  0  0  0  0  0  0  0  0  0
    6.8950   -2.5590   22.4170 C   0  0  1  0  0  0  0  0  0  0  0  0
    8.3330   -2.5750   22.8760 C   0  0  0  0  0  0  0  0  0  0  0  0
    8.1790   -3.6450   23.9080 N   0  0  0  0  0  0  0  0  0  0  0  0
    9.5250   -4.1530   24.1770 C   0  0  0  0  0  0  0  0  0  0  0  0
   10.5710   -3.0850   23.8700 C   0  0  0  0  0  0  0  0  0  0  0  0
   10.9420   -2.3000   24.9390 C   0  0  0  0  0  0  0  0  0  0  0  0
   11.8510   -1.3270   24.7060 C   0  0  0  0  0  0  0  0  0  0  0  0
   12.4200   -1.0860   23.4890 C   0  0  0  0  0  0  0  0  0  0  0  0
   13.2530   -0.1060   23.4380 C   0  0  0  0  0  0  0  0  0  0  0  0
   13.8840    0.2640   22.2960 C   0  0  0  0  0  0  0  0  0  0  0  0
   13.7630   -0.3050   21.0220 C   0  0  0  0  0  0  0  0  0  0  0  0
   14.7670    0.5360   19.5250 S   0  0  0  0  0  0  0  0  0  0  0  0
   14.3090   -0.0840   18.3500 O   0  0  0  0  0  0  0  0  0  0  0  0
   16.1080    0.8170   19.5630 O   0  0  0  0  0  0  0  0  0  0  0  0
   14.5640    2.1800   19.1180 N   0  0  0  0  0  0  0  0  0  0  0  0
   15.5190    3.1280   19.1840 C   0  0  0  0  0  0  0  0  0  0  0  0
   12.8220   -1.4700   21.1030 C   0  0  0  0  0  0  0  0  0  0  0  0
   12.1460   -1.8120   22.3550 C   0  0  0  0  0  0  0  0  0  0  0  0
   11.1730   -2.8370   22.5780 C   0  0  0  0  0  0  0  0  0  0  0  0
  1  2  1  0
  2  3  2  0
  2  4  1  0
  4  5  1  0
  6  5  1  1
  6  7  1  0
  4  8  1  0
  7  8  1  0
  8  9  1  6
  6 10  1  0
  9 10  1  0
 10 11  1  0
 11 12  1  0
 12 13  2  0
 13 14  1  0
 14 15  2  0
 15 16  1  0
 16 17  2  0
 17 18  1  0
 18 19  1  0
 19 20  2  0
 19 21  2  0
 19 22  1  0
 22 23  1  0
 18 24  2  0
 15 25  1  0
 24 25  1  0
 12 26  1  0
 25 26  2  0
M  END
