MAK-UNK-ec98eaf6-9-acrylamide
     RDKit          3D

 26 29  0  0  0  0  0  0  0  0999 V2000
    8.6630   -3.7550   19.6240 C   0  0  0  0  0  0  0  0  0  0  0  0
    7.2540   -3.2690   19.2130 C   0  0  0  0  0  0  0  0  0  0  0  0
    6.1340   -3.4350   20.1800 C   0  0  0  0  0  0  0  0  0  0  0  0
    5.2180   -4.2570   19.9900 O   0  0  0  0  0  0  0  0  0  0  0  0
    6.2190   -2.5760   21.2530 N   0  0  0  0  0  0  0  0  0  0  0  0
    6.9890   -1.2960   21.1570 C   0  0  0  0  0  0  0  0  0  0  0  0
    8.0720   -1.7770   22.1220 C   0  0  2  0  0  0  0  0  0  0  0  0
    7.5180   -3.1400   22.3780 C   0  0  0  0  0  0  0  0  0  0  0  0
    6.0640   -2.8910   22.7100 C   0  0  1  0  0  0  0  0  0  0  0  0
    6.9180   -2.4990   23.9530 C   0  0  0  0  0  0  0  0  0  0  0  0
    7.8960   -1.4000   23.5480 N   0  0  0  0  0  0  0  0  0  0  0  0
    9.1200   -1.5720   24.3680 C   0  0  1  0  0  0  0  0  0  0  0  0
    9.2010   -3.0570   24.2670 C   0  0  0  0  0  0  0  0  0  0  0  0
    9.6770   -3.3990   22.8990 C   0  0  0  0  0  0  0  0  0  0  0  0
    9.7820   -4.7710   22.5140 C   0  0  0  0  0  0  0  0  0  0  0  0
    9.4210   -5.8040   23.4640 C   0  0  0  0  0  0  0  0  0  0  0  0
    9.5360   -7.1380   22.9360 C   0  0  0  0  0  0  0  0  0  0  0  0
    8.9990   -5.4880   24.7630 C   0  0  0  0  0  0  0  0  0  0  0  0
    8.8710   -4.0440   25.2220 C   0  0  0  0  0  0  0  0  0  0  0  0
   10.3870   -0.9210   23.8050 C   0  0  0  0  0  0  0  0  0  0  0  0
   11.5210   -1.7460   23.1900 C   0  0  0  0  0  0  0  0  0  0  0  0
   12.7410   -1.0520   22.6720 C   0  0  0  0  0  0  0  0  0  0  0  0
   12.7900    0.4150   22.7700 C   0  0  0  0  0  0  0  0  0  0  0  0
   11.6420    1.1630   23.3560 C   0  0  0  0  0  0  0  0  0  0  0  0
   11.6870    2.5480   23.3970 C   0  0  0  0  0  0  0  0  0  0  0  0
   10.5180    0.4760   23.8470 C   0  0  0  0  0  0  0  0  0  0  0  0
  1  2  1  0
  2  3  1  0
  3  4  2  0
  3  5  1  0
  5  6  1  0
  7  6  1  6
  7  8  1  0
  5  9  1  0
  8  9  1  0
  9 10  1  1
  7 11  1  0
 10 11  1  0
 11 12  1  0
 12 13  1  6
 13 14  2  0
 14 15  1  0
 15 16  2  0
 16 17  1  0
 16 18  1  0
 13 19  1  0
 18 19  2  0
 12 20  1  0
 20 21  2  0
 21 22  1  0
 22 23  2  0
 23 24  1  0
 24 25  1  0
 20 26  1  0
 24 26  2  0
M  END
