MAK-UNK-987948f6-2-vinylsulfonamide
     RDKit          3D

 19 20  0  0  0  0  0  0  0  0999 V2000
    6.1130   -5.1720   20.6740 C   0  0  0  0  0  0  0  0  0  0  0  0
    5.4100   -4.0870   21.6130 C   0  0  0  0  0  0  0  0  0  0  0  0
    4.3070   -4.6810   22.9440 S   0  0  0  0  0  0  0  0  0  0  0  0
    3.1900   -5.4480   22.4950 O   0  0  0  0  0  0  0  0  0  0  0  0
    4.0820   -3.6080   23.8760 O   0  0  0  0  0  0  0  0  0  0  0  0
    5.1990   -5.8020   23.7670 N   0  0  0  0  0  0  0  0  0  0  0  0
    6.0000   -6.5820   22.8350 C   0  0  0  0  0  0  0  0  0  0  0  0
    7.3800   -5.9400   22.7560 C   0  0  0  0  0  0  0  0  0  0  0  0
    7.3160   -4.5360   23.2060 N   0  0  0  0  0  0  0  0  0  0  0  0
    7.8020   -3.3220   22.6260 C   0  0  0  0  0  0  0  0  0  0  0  0
    7.0280   -2.5750   22.0180 O   0  0  0  0  0  0  0  0  0  0  0  0
    9.1290   -2.9410   22.7720 C   0  0  0  0  0  0  0  0  0  0  0  0
    9.6790   -3.4290   23.9700 C   0  0  0  0  0  0  0  0  0  0  0  0
   11.0340   -3.1220   24.2570 C   0  0  0  0  0  0  0  0  0  0  0  0
   11.8550   -2.3360   23.3750 C   0  0  0  0  0  0  0  0  0  0  0  0
   11.1720   -1.8480   22.0990 C   0  0  0  0  0  0  0  0  0  0  0  0
    9.7930   -2.1920   21.8660 C   0  0  0  0  0  0  0  0  0  0  0  0
    7.1310   -4.6330   24.5850 C   0  0  0  0  0  0  0  0  0  0  0  0
    5.8520   -5.2480   24.9480 C   0  0  0  0  0  0  0  0  0  0  0  0
  1  2  1  0
  3  2  1  0
  3  4  2  0
  3  5  2  0
  3  6  1  0
  6  7  1  0
  7  8  1  0
  8  9  1  0
  9 10  1  0
 10 11  2  0
 10 12  1  0
 12 13  2  0
 13 14  1  0
 14 15  2  0
 15 16  1  0
 12 17  1  0
 16 17  2  0
  9 18  1  0
  6 19  1  0
 18 19  1  0
M  END
