MAK-UNK-176ca439-7-vinylsulfonamide
     RDKit          3D

 32 35  0  0  0  0  0  0  0  0999 V2000
    7.1680   -3.2140   18.8940 C   0  0  0  0  0  0  0  0  0  0  0  0
    6.1190   -3.8220   19.7730 C   0  0  0  0  0  0  0  0  0  0  0  0
    5.5490   -2.4590   20.6100 S   0  0  0  0  0  0  0  0  0  0  0  0
    4.5500   -2.9280   21.5240 O   0  0  0  0  0  0  0  0  0  0  0  0
    5.4580   -1.4020   19.6270 O   0  0  0  0  0  0  0  0  0  0  0  0
    6.7620   -2.1670   21.6560 N   0  0  0  0  0  0  0  0  0  0  0  0
    7.9150   -1.3880   21.2470 C   0  0  0  0  0  0  0  0  0  0  0  0
    8.9530   -1.6950   22.0990 C   0  0  0  0  0  0  0  0  0  0  0  0
    8.5190   -1.9130   23.5100 N   0  0  0  0  0  0  0  0  0  0  0  0
    9.6110   -1.9410   24.4330 C   0  0  0  0  0  0  0  0  0  0  0  0
   10.6080   -1.1310   23.9930 C   0  0  0  0  0  0  0  0  0  0  0  0
   11.9660   -1.6850   23.5580 C   0  0  0  0  0  0  0  0  0  0  0  0
   13.0030   -0.7150   23.0840 C   0  0  0  0  0  0  0  0  0  0  0  0
   12.7010    0.7400   23.0450 C   0  0  0  0  0  0  0  0  0  0  0  0
   11.3670    1.3170   23.4610 C   0  0  0  0  0  0  0  0  0  0  0  0
   11.1890    2.7190   23.3540 C   0  0  0  0  0  0  0  0  0  0  0  0
   10.3020    3.4050   24.1880 C   0  0  0  0  0  0  0  0  0  0  0  0
    9.1880    2.7860   24.7200 C   0  0  0  0  0  0  0  0  0  0  0  0
    8.5130    3.6070   25.7290 N   0  0  0  0  0  0  0  0  0  0  0  0
    7.2050    3.1760   25.9860 C   0  0  0  0  0  0  0  0  0  0  0  0
    6.8930    2.0930   26.8120 C   0  0  0  0  0  0  0  0  0  0  0  0
    5.5640    1.9130   26.8740 N   0  0  0  0  0  0  0  0  0  0  0  0
    4.9570    2.8770   26.0860 C   0  0  0  0  0  0  0  0  0  0  0  0
    3.4830    3.1760   25.7640 C   0  0  0  0  0  0  0  0  0  0  0  0
    3.0850    4.2100   24.9340 C   0  0  0  0  0  0  0  0  0  0  0  0
    4.1620    5.0760   24.3230 C   0  0  0  0  0  0  0  0  0  0  0  0
    3.8090    6.0850   23.5130 F   0  0  0  0  0  0  0  0  0  0  0  0
    5.5210    4.8380   24.5900 C   0  0  0  0  0  0  0  0  0  0  0  0
    5.9520    3.6840   25.5150 C   0  0  0  0  0  0  0  0  0  0  0  0
   10.3860    0.4130   23.9130 C   0  0  0  0  0  0  0  0  0  0  0  0
    7.7250   -3.1280   23.6880 C   0  0  0  0  0  0  0  0  0  0  0  0
    7.0020   -3.3930   22.3850 C   0  0  0  0  0  0  0  0  0  0  0  0
  1  2  1  0
  3  2  1  0
  3  4  2  0
  3  5  2  0
  3  6  1  0
  6  7  1  0
  7  8  1  0
  8  9  1  0
  9 10  1  0
 10 11  1  0
 11 12  2  0
 12 13  1  0
 13 14  2  0
 14 15  1  0
 15 16  1  0
 16 17  1  0
 17 18  1  0
 18 19  1  0
 19 20  1  0
 20 21  2  0
 21 22  1  0
 22 23  1  0
 23 24  1  0
 24 25  2  0
 25 26  1  0
 26 27  1  0
 26 28  2  0
 20 29  1  0
 23 29  2  0
 28 29  1  0
 11 30  1  0
 15 30  2  0
  9 31  1  0
  6 32  1  0
 31 32  1  0
M  END
