MAK-UNK-c7aa8293-6
     RDKit          3D

 17 18  0  0  0  0  0  0  0  0999 V2000
    6.2300   -4.0550   20.6690 C   0  0  0  0  0  0  0  0  0  0  0  0
    6.7590   -4.8080   21.7470 C   0  0  0  0  0  0  0  0  0  0  0  0
    8.0170   -4.9420   22.2130 C   0  0  0  0  0  0  0  0  0  0  0  0
    8.4540   -4.1110   23.3580 C   0  0  1  0  0  0  0  0  0  0  0  0
    9.3580   -4.5970   24.5480 C   0  0  0  0  0  0  0  0  0  0  0  0
   10.7800   -4.2570   25.1110 C   0  0  0  0  0  0  0  0  0  0  0  0
   10.9470   -2.9210   24.5800 C   0  0  0  0  0  0  0  0  0  0  0  0
   10.7810   -1.6600   23.9400 C   0  0  0  0  0  0  0  0  0  0  0  0
   12.0460   -1.1830   24.2470 C   0  0  0  0  0  0  0  0  0  0  0  0
   12.7550   -2.3010   25.1220 C   0  0  0  0  0  0  0  0  0  0  0  0
   14.0060   -2.1340   25.6280 O   0  0  0  0  0  0  0  0  0  0  0  0
   12.0990   -3.5950   25.4500 C   0  0  0  0  0  0  0  0  0  0  0  0
   13.0150   -4.3180   26.2650 O   0  0  0  0  0  0  0  0  0  0  0  0
    9.5840   -3.0960   24.1950 C   0  0  1  0  0  0  0  0  0  0  0  0
    8.7180   -2.1720   24.8050 C   0  0  0  0  0  0  0  0  0  0  0  0
    7.4760   -2.7360   25.3660 N   0  0  0  0  0  0  0  0  0  0  0  0
    9.2490   -3.1290   22.8740 O   0  0  0  0  0  0  0  0  0  0  0  0
  1  2  1  0
  2  3  1  0
  4  3  1  6
  4  5  1  0
  5  6  1  0
  6  7  2  0
  7  8  1  0
  8  9  2  0
  9 10  1  0
 10 11  1  0
  6 12  1  0
 10 12  2  0
 12 13  1  0
  7 14  1  0
 14 15  1  1
 15 16  1  0
  4 17  1  0
 14 17  1  0
M  END
