MAK-UNK-7c9d1431-17-chloroacetamide
     RDKit          3D

 20 21  0  0  0  0  0  0  0  0999 V2000
    6.9060   -3.4250   19.7150 C   0  0  0  0  0  0  0  0  0  0  0  0
    6.2260   -4.5220   20.4910 C   0  0  0  0  0  0  0  0  0  0  0  0
    5.2720   -5.0820   20.0010 O   0  0  0  0  0  0  0  0  0  0  0  0
    6.7320   -4.9130   21.7100 N   0  0  0  0  0  0  0  0  0  0  0  0
    6.2850   -6.1670   22.2540 C   0  0  0  0  0  0  0  0  0  0  0  0
    5.3250   -5.9000   23.3900 C   0  0  0  0  0  0  0  0  0  0  0  0
    5.9920   -5.0270   24.3820 N   0  0  0  0  0  0  0  0  0  0  0  0
    5.3260   -5.0820   25.9520 S   0  0  0  0  0  0  0  0  0  0  0  0
    4.7760   -6.4100   26.0910 O   0  0  0  0  0  0  0  0  0  0  0  0
    6.2970   -4.5720   26.8790 O   0  0  0  0  0  0  0  0  0  0  0  0
    3.9440   -3.9690   25.8940 C   0  0  0  0  0  0  0  0  0  0  0  0
    4.1100   -2.6210   26.0770 C   0  0  0  0  0  0  0  0  0  0  0  0
    3.0810   -1.6860   26.0520 C   0  0  0  0  0  0  0  0  0  0  0  0
    1.7390   -2.0660   25.8320 C   0  0  0  0  0  0  0  0  0  0  0  0
    0.8240   -1.0540   25.8400 O   0  0  0  0  0  0  0  0  0  0  0  0
   -0.5260   -1.4190   25.5880 C   0  0  0  0  0  0  0  0  0  0  0  0
    1.4440   -3.5480   25.6120 C   0  0  0  0  0  0  0  0  0  0  0  0
    2.6710   -4.4670   25.6640 C   0  0  0  0  0  0  0  0  0  0  0  0
    6.4040   -3.7590   23.7650 C   0  0  0  0  0  0  0  0  0  0  0  0
    7.3110   -4.0200   22.7180 C   0  0  0  0  0  0  0  0  0  0  0  0
  1  2  1  0
  2  3  2  0
  2  4  1  0
  4  5  1  0
  5  6  1  0
  6  7  1  0
  7  8  1  0
  8  9  2  0
  8 10  2  0
  8 11  1  0
 11 12  2  0
 12 13  1  0
 13 14  2  0
 14 15  1  0
 15 16  1  0
 14 17  1  0
 11 18  1  0
 17 18  2  0
  7 19  1  0
  4 20  1  0
 19 20  1  0
M  END
