MAK-UNK-6ca90168-10-acrylamide
     RDKit          3D

 20 21  0  0  0  0  0  0  0  0999 V2000
    7.8860   -3.2120   18.9990 C   0  0  0  0  0  0  0  0  0  0  0  0
    6.6650   -2.3870   18.7490 C   0  0  0  0  0  0  0  0  0  0  0  0
    5.8050   -2.5710   19.9420 C   0  0  0  0  0  0  0  0  0  0  0  0
    4.8040   -3.2500   19.8490 O   0  0  0  0  0  0  0  0  0  0  0  0
    6.2430   -2.0010   21.1130 N   0  0  0  0  0  0  0  0  0  0  0  0
    5.8720   -2.4980   22.3150 C   0  0  0  0  0  0  0  0  0  0  0  0
    7.0480   -3.0650   23.1250 C   0  0  0  0  0  0  0  0  0  0  0  0
    8.1920   -2.1430   23.1230 N   0  0  0  0  0  0  0  0  0  0  0  0
    9.2580   -2.7810   23.9200 C   0  0  0  0  0  0  0  0  0  0  0  0
    9.0290   -3.8550   24.4580 O   0  0  0  0  0  0  0  0  0  0  0  0
   10.6190   -2.0840   24.0170 C   0  0  0  0  0  0  0  0  0  0  0  0
   10.7110   -0.6940   23.9860 C   0  0  0  0  0  0  0  0  0  0  0  0
   11.8460   -1.4010   23.4590 C   0  0  0  0  0  0  0  0  0  0  0  0
   13.0340   -0.9870   22.9180 C   0  0  0  0  0  0  0  0  0  0  0  0
   13.2940    0.3050   22.8160 C   0  0  0  0  0  0  0  0  0  0  0  0
   12.3490    1.1460   23.2580 C   0  0  0  0  0  0  0  0  0  0  0  0
   11.1550    0.6720   23.7970 C   0  0  0  0  0  0  0  0  0  0  0  0
   10.2860    1.6950   24.1980 C   0  0  0  0  0  0  0  0  0  0  0  0
    8.5260   -1.5770   21.8180 C   0  0  0  0  0  0  0  0  0  0  0  0
    7.4010   -1.0800   21.1540 C   0  0  0  0  0  0  0  0  0  0  0  0
  1  2  1  0
  2  3  1  0
  3  4  2  0
  3  5  1  0
  5  6  1  0
  6  7  1  0
  7  8  1  0
  8  9  1  0
  9 10  2  0
  9 11  1  0
 11 12  1  0
 12 13  2  0
 13 14  1  0
 14 15  2  0
 15 16  1  0
 12 17  1  0
 16 17  2  0
 17 18  1  0
  8 19  1  0
  5 20  1  0
 19 20  1  0
M  END
