MAK-UNK-5e88aa6a-14
     RDKit          3D

 12 13  0  0  0  0  0  0  0  0999 V2000
   11.2110   -2.8900   24.1200 C   0  0  0  0  0  0  0  0  0  0  0  0
   11.5990   -1.4750   23.7790 C   0  0  0  0  0  0  0  0  0  0  0  0
   12.7610   -1.2950   23.0560 C   0  0  0  0  0  0  0  0  0  0  0  0
   13.1600   -0.0160   22.7160 C   0  0  0  0  0  0  0  0  0  0  0  0
   12.3810    1.0690   23.1030 C   0  0  0  0  0  0  0  0  0  0  0  0
   12.7620    2.3640   22.7550 C   0  0  0  0  0  0  0  0  0  0  0  0
   12.7460    3.6660   22.5920 C   0  0  0  0  0  0  0  0  0  0  0  0
   11.6940    3.6120   23.0970 C   0  0  0  0  0  0  0  0  0  0  0  0
   10.6390    4.5530   23.4740 S   0  0  0  0  0  0  0  0  0  0  0  0
   11.3010    2.7880   23.3840 C   0  0  0  0  0  0  0  0  0  0  0  0
   11.2300    0.7890   23.8340 C   0  0  0  0  0  0  0  0  0  0  0  0
   10.8200   -0.4510   24.1790 N   0  0  0  0  0  0  0  0  0  0  0  0
  1  2  1  0
  2  3  2  0
  3  4  1  0
  4  5  2  0
  5  6  1  0
  6  7  1  0
  7  8  2  0
  8  9  1  0
  6 10  2  0
  9 10  1  0
  5 11  1  0
  2 12  1  0
 11 12  2  0
M  END
