MAK-UNK-8fdbca50-41-vinylsulfonamide
     RDKit          3D

 41 44  0  0  0  0  0  0  0  0999 V2000
    7.5890   -2.9460   18.6480 C   0  0  0  0  0  0  0  0  0  0  0  0
    7.3240   -2.0450   19.8270 C   0  0  0  0  0  0  0  0  0  0  0  0
    6.1500   -2.7940   20.9120 S   0  0  0  0  0  0  0  0  0  0  0  0
    4.8630   -3.0760   20.2620 O   0  0  0  0  0  0  0  0  0  0  0  0
    6.8200   -3.8970   21.5390 O   0  0  0  0  0  0  0  0  0  0  0  0
    6.0290   -1.5170   22.0560 N   0  0  0  0  0  0  0  0  0  0  0  0
    6.9020   -1.6180   23.2110 C   0  0  0  0  0  0  0  0  0  0  0  0
    6.3010   -2.4470   24.1580 C   0  0  0  0  0  0  0  0  0  0  0  0
    5.3230   -3.2740   23.6420 C   0  0  0  0  0  0  0  0  0  0  0  0
    4.9400   -4.5180   24.2620 C   0  0  0  0  0  0  0  0  0  0  0  0
    4.2580   -4.6230   25.2910 O   0  0  0  0  0  0  0  0  0  0  0  0
    5.4650   -5.5240   23.4980 N   0  0  0  0  0  0  0  0  0  0  0  0
    4.7530   -6.6600   23.7250 C   0  0  0  0  0  0  0  0  0  0  0  0
    6.8430   -5.7200   23.4350 C   0  0  0  0  0  0  0  0  0  0  0  0
    7.7110   -4.7260   22.9680 C   0  0  0  0  0  0  0  0  0  0  0  0
    7.1440   -6.9210   22.5660 C   0  0  0  0  0  0  0  0  0  0  0  0
    7.1200   -5.8230   24.8190 N   0  0  0  0  0  0  0  0  0  0  0  0
    8.5110   -5.5350   25.1710 C   0  0  0  0  0  0  0  0  0  0  0  0
    8.6090   -4.0410   25.2970 C   0  0  0  0  0  0  0  0  0  0  0  0
    8.0090   -3.3750   26.4680 C   0  0  0  0  0  0  0  0  0  0  0  0
    8.2090   -2.0630   26.3640 C   0  0  0  0  0  0  0  0  0  0  0  0
    7.7440   -1.0460   27.3870 C   0  0  0  0  0  0  0  0  0  0  0  0
    8.1780   -1.2250   28.7080 C   0  0  0  0  0  0  0  0  0  0  0  0
    7.7840   -0.3480   29.7190 C   0  0  0  0  0  0  0  0  0  0  0  0
    6.9470    0.7180   29.4040 C   0  0  0  0  0  0  0  0  0  0  0  0
    6.5020    0.9180   28.0990 C   0  0  0  0  0  0  0  0  0  0  0  0
    6.9020    0.0360   27.0870 C   0  0  0  0  0  0  0  0  0  0  0  0
    6.4540    0.2550   25.8430 F   0  0  0  0  0  0  0  0  0  0  0  0
    8.8850   -1.7500   25.2330 N   0  0  0  0  0  0  0  0  0  0  0  0
    9.4480   -0.3080   24.5230 S   0  0  0  0  0  0  0  0  0  0  0  0
   10.2800    0.2450   25.5390 O   0  0  0  0  0  0  0  0  0  0  0  0
    8.3610    0.4340   23.9220 O   0  0  0  0  0  0  0  0  0  0  0  0
   10.4650   -1.0730   23.3160 C   0  0  0  0  0  0  0  0  0  0  0  0
   11.5250   -1.5990   22.2820 C   0  0  0  0  0  0  0  0  0  0  0  0
   12.7690   -1.0930   22.0010 C   0  0  0  0  0  0  0  0  0  0  0  0
   13.1830    0.1130   22.7360 C   0  0  0  0  0  0  0  0  0  0  0  0
   12.3690    0.6360   23.6100 N   0  0  0  0  0  0  0  0  0  0  0  0
   11.1600    0.0620   23.8340 C   0  0  0  0  0  0  0  0  0  0  0  0
    9.1460   -2.9810   24.5530 C   0  0  0  0  0  0  0  0  0  0  0  0
    4.1490   -2.4080   23.2640 C   0  0  0  0  0  0  0  0  0  0  0  0
    4.6870   -1.2080   22.4900 C   0  0  0  0  0  0  0  0  0  0  0  0
  1  2  1  0
  3  2  1  0
  3  4  2  0
  3  5  2  0
  3  6  1  0
  6  7  1  0
  7  8  1  0
  8  9  1  0
  9 10  1  0
 10 11  2  0
 10 12  1  0
 12 13  1  0
 14 12  1  0
 14 15  1  0
 14 16  1  0
 14 17  1  0
 17 18  1  0
 18 19  1  0
 19 20  1  0
 20 21  2  0
 21 22  1  0
 22 23  2  0
 23 24  1  0
 24 25  2  0
 25 26  1  0
 22 27  1  0
 26 27  2  0
 27 28  1  0
 21 29  1  0
 29 30  1  0
 30 31  2  0
 30 32  2  0
 30 33  1  0
 33 34  2  0
 34 35  1  0
 35 36  2  0
 36 37  1  0
 33 38  1  0
 37 38  2  0
 19 39  2  0
 29 39  1  0
  9 40  1  0
  6 41  1  0
 40 41  1  0
M  END
