MAK-UNK-f983951f-23-chloroacetamide
     RDKit          3D

 13 13  0  0  0  0  0  0  0  0999 V2000
    6.9950   -4.7820   20.5970 C   0  0  0  0  0  0  0  0  0  0  0  0
    5.6950   -4.0690   20.6670 C   0  0  0  0  0  0  0  0  0  0  0  0
    5.0130   -3.9730   19.6400 O   0  0  0  0  0  0  0  0  0  0  0  0
    5.3590   -3.5590   21.9170 N   0  0  0  0  0  0  0  0  0  0  0  0
    5.2660   -4.4070   23.1270 C   0  0  0  0  0  0  0  0  0  0  0  0
    4.0200   -5.0090   23.0730 C   0  0  0  0  0  0  0  0  0  0  0  0
    3.9070   -3.7230   23.6080 C   0  0  0  0  0  0  0  0  0  0  0  0
    5.1920   -3.0680   23.7550 C   0  0  0  0  0  0  0  0  0  0  0  0
    6.4010   -3.8320   23.3370 C   0  0  0  0  0  0  0  0  0  0  0  0
    7.7160   -3.3500   23.4240 C   0  0  0  0  0  0  0  0  0  0  0  0
    8.8040   -2.9550   23.5070 N   0  0  0  0  0  0  0  0  0  0  0  0
    6.0490   -5.1000   22.8460 C   0  0  0  0  0  0  0  0  0  0  0  0
    4.9680   -5.8930   22.6160 C   0  0  0  0  0  0  0  0  0  0  0  0
  1  2  1  0
  2  3  2  0
  2  4  1  0
  4  5  1  0
  5  6  1  0
  6  7  2  0
  7  8  1  0
  8  9  2  0
  9 10  1  0
 10 11  3  0
  9 12  1  0
  6 13  1  0
 12 13  2  0
M  END
