MAK-UNK-5d2caa6f-22-chloroacetamide
     RDKit          3D

 24 27  0  0  0  0  0  0  0  0999 V2000
    7.3940   -3.0560   18.8270 C   0  0  0  0  0  0  0  0  0  0  0  0
    6.3430   -3.3690   19.9120 C   0  0  0  0  0  0  0  0  0  0  0  0
    5.4170   -4.1590   19.7330 O   0  0  0  0  0  0  0  0  0  0  0  0
    6.5210   -2.7130   21.1080 N   0  0  0  0  0  0  0  0  0  0  0  0
    6.0210   -3.3260   22.3660 C   0  0  0  0  0  0  0  0  0  0  0  0
    7.1540   -3.9270   22.9120 C   0  0  1  0  0  0  0  0  0  0  0  0
    8.0650   -3.9110   21.9150 C   0  0  0  0  0  0  0  0  0  0  0  0
    7.8820   -2.4250   21.5260 C   0  0  2  0  0  0  0  0  0  0  0  0
    7.8570   -1.7210   22.8600 C   0  0  0  0  0  0  0  0  0  0  0  0
    8.1040   -2.9750   23.6490 C   0  0  1  0  0  0  0  0  0  0  0  0
    8.2360   -3.0650   25.1230 C   0  0  0  0  0  0  0  0  0  0  0  0
    7.2740   -3.2070   25.8740 O   0  0  0  0  0  0  0  0  0  0  0  0
    9.4750   -2.9770   25.4730 N   0  0  0  0  0  0  0  0  0  0  0  0
    9.6540   -1.5490   25.5560 C   0  0  0  0  0  0  0  0  0  0  0  0
    9.9970   -0.0660   25.4510 C   0  0  0  0  0  0  0  0  0  0  0  0
   10.8650    0.2850   24.4710 C   0  0  0  0  0  0  0  0  0  0  0  0
   11.1090   -0.8350   23.9230 N   0  0  0  0  0  0  0  0  0  0  0  0
   11.9350   -0.9830   22.8510 C   0  0  0  0  0  0  0  0  0  0  0  0
   11.7890   -2.0400   22.0030 C   0  0  0  0  0  0  0  0  0  0  0  0
   12.6770   -2.1360   20.8380 C   0  0  0  0  0  0  0  0  0  0  0  0
   13.6930   -1.0950   20.6200 C   0  0  0  0  0  0  0  0  0  0  0  0
   13.7040   -0.0070   21.6610 C   0  0  0  0  0  0  0  0  0  0  0  0
   12.8120    0.0170   22.7750 C   0  0  0  0  0  0  0  0  0  0  0  0
   10.5210   -1.8760   24.4230 N   0  0  0  0  0  0  0  0  0  0  0  0
  1  2  1  0
  2  3  2  0
  2  4  1  0
  4  5  1  0
  6  5  1  6
  6  7  1  0
  4  8  1  0
  7  8  1  0
  8  9  1  1
  6 10  1  0
  9 10  1  0
 10 11  1  1
 11 12  2  0
 11 13  1  0
 13 14  1  0
 14 15  1  0
 15 16  2  0
 16 17  1  0
 17 18  1  0
 18 19  2  0
 19 20  1  0
 20 21  2  0
 21 22  1  0
 18 23  1  0
 22 23  2  0
 14 24  2  0
 17 24  1  0
M  END
