MAK-UNK-702fb7d3-13-acrylamide
     RDKit          3D

 43 48  0  0  0  0  0  0  0  0999 V2000
    6.7240   -3.4840   19.7260 C   0  0  0  0  0  0  0  0  0  0  0  0
    6.8700   -2.5750   20.9420 C   0  0  0  0  0  0  0  0  0  0  0  0
    6.2380   -3.2620   22.1290 C   0  0  0  0  0  0  0  0  0  0  0  0
    4.9870   -3.7560   21.8570 O   0  0  0  0  0  0  0  0  0  0  0  0
    7.1170   -3.2770   23.3490 N   0  0  0  0  0  0  0  0  0  0  0  0
    6.7210   -3.3470   24.6540 C   0  0  0  0  0  0  0  0  0  0  0  0
    7.4410   -4.2450   25.4660 C   0  0  0  0  0  0  0  0  0  0  0  0
    6.9000   -5.2520   26.1960 C   0  0  0  0  0  0  0  0  0  0  0  0
    8.4440   -5.0430   26.2070 C   0  0  0  0  0  0  0  0  0  0  0  0
    9.8500   -5.4420   26.6700 C   0  0  0  0  0  0  0  0  0  0  0  0
   10.2700   -4.2250   25.8040 C   0  0  0  0  0  0  0  0  0  0  0  0
    8.8130   -4.3670   25.7330 C   0  0  0  0  0  0  0  0  0  0  0  0
    9.0940   -3.1460   24.8410 C   0  0  1  0  0  0  0  0  0  0  0  0
   10.3890   -2.5980   24.7510 C   0  0  0  0  0  0  0  0  0  0  0  0
   10.3550   -1.0950   24.6800 C   0  0  0  0  0  0  0  0  0  0  0  0
   11.5650   -0.2990   24.5450 C   0  0  0  0  0  0  0  0  0  0  0  0
   12.8490   -1.1720   24.4800 C   0  0  0  0  0  0  0  0  0  0  0  0
   12.8520   -2.7030   24.5650 C   0  0  0  0  0  0  0  0  0  0  0  0
   14.1400   -3.3540   24.4580 N   0  0  0  0  0  0  0  0  0  0  0  0
   15.0670   -4.1960   25.3480 C   0  0  0  0  0  0  0  0  0  0  0  0
   16.2880   -4.6460   24.6700 C   0  0  0  0  0  0  0  0  0  0  0  0
   17.4200   -3.9800   24.9670 C   0  0  0  0  0  0  0  0  0  0  0  0
   18.4590   -4.3590   24.2880 C   0  0  0  0  0  0  0  0  0  0  0  0
   19.7510   -3.5320   24.5660 C   0  0  0  0  0  0  0  0  0  0  0  0
   20.1030   -2.4570   23.6050 C   0  0  0  0  0  0  0  0  0  0  0  0
   21.1840   -1.8080   23.9150 C   0  0  0  0  0  0  0  0  0  0  0  0
   21.9550   -2.1340   25.1130 C   0  0  0  0  0  0  0  0  0  0  0  0
   21.7850   -3.0820   26.1150 C   0  0  0  0  0  0  0  0  0  0  0  0
   20.5810   -3.7190   25.6600 C   0  0  0  0  0  0  0  0  0  0  0  0
   20.1840   -4.6880   26.4600 F   0  0  0  0  0  0  0  0  0  0  0  0
   18.1390   -5.3560   23.4800 N   0  0  0  0  0  0  0  0  0  0  0  0
   19.0770   -6.1960   22.3530 S   0  0  0  0  0  0  0  0  0  0  0  0
   18.2380   -6.1700   21.1860 O   0  0  0  0  0  0  0  0  0  0  0  0
   19.4710   -7.4410   22.9340 O   0  0  0  0  0  0  0  0  0  0  0  0
   20.5310   -5.2910   21.9820 C   0  0  0  0  0  0  0  0  0  0  0  0
   21.7190   -5.9440   21.6270 C   0  0  0  0  0  0  0  0  0  0  0  0
   22.8570   -5.2000   21.3230 C   0  0  0  0  0  0  0  0  0  0  0  0
   22.7770   -3.8180   21.3870 C   0  0  0  0  0  0  0  0  0  0  0  0
   21.6460   -3.1530   21.7290 N   0  0  0  0  0  0  0  0  0  0  0  0
   20.5240   -3.9160   22.0230 C   0  0  0  0  0  0  0  0  0  0  0  0
   16.7580   -5.5890   23.7040 C   0  0  0  0  0  0  0  0  0  0  0  0
   11.5810   -3.3050   24.7030 C   0  0  0  0  0  0  0  0  0  0  0  0
    8.5930   -3.3590   23.3850 C   0  0  0  0  0  0  0  0  0  0  0  0
  1  2  1  0
  2  3  1  0
  3  4  2  0
  3  5  1  0
  5  6  1  0
  6  7  1  0
  7  8  1  0
  8  9  2  0
  9 10  1  0
 10 11  2  0
  7 12  2  0
 11 12  1  0
 12 13  1  0
 13 14  1  6
 14 15  2  0
 15 16  1  0
 16 17  2  0
 17 18  1  0
 18 19  1  0
 19 20  1  0
 20 21  1  0
 21 22  1  0
 22 23  2  0
 23 24  1  0
 24 25  2  0
 25 26  1  0
 26 27  2  0
 27 28  1  0
 24 29  1  0
 28 29  2  0
 29 30  1  0
 23 31  1  0
 31 32  1  0
 32 33  2  0
 32 34  2  0
 32 35  1  0
 35 36  2  0
 36 37  1  0
 37 38  2  0
 38 39  1  0
 35 40  1  0
 39 40  2  0
 21 41  2  0
 31 41  1  0
 14 42  1  0
 18 42  2  0
  5 43  1  0
 13 43  1  0
M  END
