MAK-UNK-ca11b4f7-2-nitrile
     RDKit          3D

  9  9  0  0  0  0  0  0  0  0999 V2000
    7.2050   -2.9890   19.4700 C   0  0  0  0  0  0  0  0  0  0  0  0
    6.7620   -2.6940   18.3340 N   0  0  0  0  0  0  0  0  0  0  0  0
    6.9190   -2.0170   20.4400 N   0  0  0  0  0  0  0  0  0  0  0  0
    6.3740   -0.8210   19.7580 C   0  0  0  0  0  0  0  0  0  0  0  0
    5.2310   -0.1900   20.2370 C   0  0  0  0  0  0  0  0  0  0  0  0
    4.6510    0.9210   19.6160 C   0  0  0  0  0  0  0  0  0  0  0  0
    5.1780    1.4970   18.4480 C   0  0  0  0  0  0  0  0  0  0  0  0
    6.4130    0.8530   17.9000 N   0  0  0  0  0  0  0  0  0  0  0  0
    6.9340   -0.2790   18.6170 C   0  0  0  0  0  0  0  0  0  0  0  0
  1  2  2  3
  1  3  1  0
  3  4  1  0
  4  5  2  0
  5  6  1  0
  6  7  2  0
  7  8  1  0
  4  9  1  0
  8  9  2  0
M  END
