MAK-UNK-8fdbca50-10-chloroacetamide
     RDKit          3D

 39 42  0  0  0  0  0  0  0  0999 V2000
    8.0540   -4.9170   21.3220 C   0  0  0  0  0  0  0  0  0  0  0  0
    6.7030   -4.3120   20.8220 C   0  0  0  0  0  0  0  0  0  0  0  0
    5.9160   -4.7520   19.8740 O   0  0  0  0  0  0  0  0  0  0  0  0
    6.2830   -3.1770   21.4750 N   0  0  0  0  0  0  0  0  0  0  0  0
    5.0280   -2.6110   21.1790 C   0  0  0  0  0  0  0  0  0  0  0  0
    5.3120   -1.2090   20.5900 C   0  0  0  0  0  0  0  0  0  0  0  0
    6.1110   -0.5230   21.7320 C   0  0  0  0  0  0  0  0  0  0  0  0
    5.4260    0.8560   21.6370 C   0  0  0  0  0  0  0  0  0  0  0  0
    5.0410    1.4850   22.6290 O   0  0  0  0  0  0  0  0  0  0  0  0
    5.2930    1.3490   20.2340 N   0  0  0  0  0  0  0  0  0  0  0  0
    3.9170    1.5370   19.6910 C   0  0  0  0  0  0  0  0  0  0  0  0
    6.2650    1.1480   19.1240 C   0  0  2  0  0  0  0  0  0  0  0  0
    5.5490    1.3750   17.8070 C   0  0  0  0  0  0  0  0  0  0  0  0
    6.9060   -0.0650   19.3410 C   0  0  0  0  0  0  0  0  0  0  0  0
    7.2860   -0.0390   20.6340 N   0  0  0  0  0  0  0  0  0  0  0  0
    7.8760   -1.1200   21.0960 C   0  0  0  0  0  0  0  0  0  0  0  0
    8.0870   -2.2190   20.3160 C   0  0  0  0  0  0  0  0  0  0  0  0
    7.6950   -2.2390   18.9220 C   0  0  0  0  0  0  0  0  0  0  0  0
    7.0990   -1.1160   18.3950 C   0  0  0  0  0  0  0  0  0  0  0  0
    6.5810   -0.9260   16.7120 S   0  0  0  0  0  0  0  0  0  0  0  0
    7.4500    0.0870   16.1520 O   0  0  0  0  0  0  0  0  0  0  0  0
    5.2080   -0.6330   17.0420 O   0  0  0  0  0  0  0  0  0  0  0  0
    6.5120   -2.1950   15.4070 N   0  0  0  0  0  0  0  0  0  0  0  0
    5.6950   -2.4110   14.0110 C   0  0  0  0  0  0  0  0  0  0  0  0
    5.6310   -3.2070   13.1540 C   0  0  0  0  0  0  0  0  0  0  0  0
    4.7300   -3.2750   11.9750 C   0  0  0  0  0  0  0  0  0  0  0  0
    3.3350   -3.1570   12.2360 N   0  0  0  0  0  0  0  0  0  0  0  0
    2.6700   -4.4330   12.7700 C   0  0  0  0  0  0  0  0  0  0  0  0
    6.4600   -3.6880   13.7850 C   0  0  0  0  0  0  0  0  0  0  0  0
    7.1470   -3.3630   15.1130 C   0  0  0  0  0  0  0  0  0  0  0  0
    8.4520   -4.4130   15.5630 C   0  0  0  0  0  0  0  0  0  0  0  0
    9.2740   -5.4540   13.9450 C   0  0  0  0  0  0  0  0  0  0  0  0
   10.8960   -6.4500   14.1330 C   0  0  0  0  0  0  0  0  0  0  0  0
   11.5400   -6.6150   15.8050 C   0  0  0  0  0  0  0  0  0  0  0  0
   10.6090   -5.5960   17.3800 C   0  0  0  0  0  0  0  0  0  0  0  0
    9.1940   -4.4960   17.0790 C   0  0  0  0  0  0  0  0  0  0  0  0
    8.6290   -3.6560   17.9620 F   0  0  0  0  0  0  0  0  0  0  0  0
    6.0940   -1.3100   23.0590 C   0  0  0  0  0  0  0  0  0  0  0  0
    6.7340   -2.7100   22.7840 C   0  0  0  0  0  0  0  0  0  0  0  0
  1  2  1  0
  2  3  2  0
  2  4  1  0
  4  5  1  0
  5  6  1  0
  6  7  1  0
  7  8  1  0
  8  9  2  0
  8 10  1  0
 10 11  1  0
 10 12  1  0
 12 13  1  6
 12 14  1  0
 14 15  2  0
 15 16  1  0
 16 17  2  0
 17 18  1  0
 14 19  1  0
 18 19  2  0
 20 19  1  0
 20 21  2  0
 20 22  2  0
 20 23  1  0
 23 24  1  0
 24 25  2  0
 25 26  1  0
 26 27  1  0
 27 28  1  0
 25 29  1  0
 23 30  1  0
 29 30  2  0
 30 31  1  0
 31 32  2  0
 32 33  1  0
 33 34  2  0
 34 35  1  0
 31 36  1  0
 35 36  2  0
 36 37  1  0
  7 38  1  0
  4 39  1  0
 38 39  1  0
M  END
