MAK-UNK-10dfa458-12-acrylamide
     RDKit          3D

 22 23  0  0  0  0  0  0  0  0999 V2000
    7.8800   -3.3260   19.8140 C   0  0  0  0  0  0  0  0  0  0  0  0
    6.9200   -2.4850   20.6730 C   0  0  0  0  0  0  0  0  0  0  0  0
    6.0630   -3.2600   21.6520 C   0  0  0  0  0  0  0  0  0  0  0  0
    4.8450   -3.2610   21.5140 O   0  0  0  0  0  0  0  0  0  0  0  0
    6.6780   -3.9430   22.6760 N   0  0  0  0  0  0  0  0  0  0  0  0
    7.6020   -3.3040   23.6160 C   0  0  0  0  0  0  0  0  0  0  0  0
    6.6610   -2.8140   24.7700 C   0  0  0  0  0  0  0  0  0  0  0  0
    5.6230   -3.9420   24.8640 C   0  0  2  0  0  0  0  0  0  0  0  0
    5.3550   -3.6750   26.3410 C   0  0  0  0  0  0  0  0  0  0  0  0
    3.8860   -3.1900   26.2460 C   0  0  0  0  0  0  0  0  0  0  0  0
    3.5910   -1.6650   26.0610 C   0  0  0  0  0  0  0  0  0  0  0  0
    2.1100   -1.1540   25.9650 C   0  0  0  0  0  0  0  0  0  0  0  0
    1.0910   -2.1330   26.0530 C   0  0  0  0  0  0  0  0  0  0  0  0
    1.6350   -3.3580   26.2090 C   0  0  0  0  0  0  0  0  0  0  0  0
    2.7040   -2.4250   26.1220 C   0  0  0  0  0  0  0  0  0  0  0  0
    2.7870   -4.0630   26.3190 C   0  0  0  0  0  0  0  0  0  0  0  0
    5.9820   -5.2380   24.4600 C   0  0  0  0  0  0  0  0  0  0  0  0
    6.2330   -5.2630   23.0960 C   0  0  1  0  0  0  0  0  0  0  0  0
    5.2050   -5.6430   22.2530 C   0  0  0  0  0  0  0  0  0  0  0  0
    5.2090   -6.6210   21.5420 O   0  0  0  0  0  0  0  0  0  0  0  0
    4.1340   -4.7000   22.3310 O   0  0  0  0  0  0  0  0  0  0  0  0
    3.1930   -5.0190   23.3620 C   0  0  0  0  0  0  0  0  0  0  0  0
  1  2  1  0
  2  3  1  0
  3  4  2  0
  3  5  1  0
  5  6  1  0
  6  7  1  0
  7  8  1  0
  8  9  1  1
  9 10  1  0
 10 11  2  0
 11 12  1  0
 12 13  2  0
 13 14  1  0
 14 15  1  0
 10 16  1  0
 14 16  2  0
  8 17  1  0
  5 18  1  0
 17 18  1  0
 18 19  1  6
 19 20  2  0
 19 21  1  0
 21 22  1  0
M  END
