MAK-UNK-8fdbca50-2-nitrile
     RDKit          3D

 38 41  0  0  0  0  0  0  0  0999 V2000
    6.9000   -2.2200   20.4670 C   0  0  0  0  0  0  0  0  0  0  0  0
    6.0260   -2.6850   19.4520 N   0  0  0  0  0  0  0  0  0  0  0  0
    6.9210   -1.2490   21.5380 N   0  0  0  0  0  0  0  0  0  0  0  0
    7.0850   -1.6200   23.0240 C   0  0  0  0  0  0  0  0  0  0  0  0
    8.3140   -0.8380   23.7820 C   0  0  0  0  0  0  0  0  0  0  0  0
    9.5200   -1.0520   22.8110 C   0  0  0  0  0  0  0  0  0  0  0  0
   10.9400   -0.6920   23.3600 C   0  0  0  0  0  0  0  0  0  0  0  0
   11.0350    0.2370   24.1630 O   0  0  0  0  0  0  0  0  0  0  0  0
   12.1350   -1.4320   22.9310 N   0  0  0  0  0  0  0  0  0  0  0  0
   13.2270   -1.7030   23.8540 C   0  0  0  0  0  0  0  0  0  0  0  0
   12.4980   -1.9480   21.5070 C   0  0  1  0  0  0  0  0  0  0  0  0
   13.5830   -1.1800   20.9220 C   0  0  0  0  0  0  0  0  0  0  0  0
   12.9170   -3.3030   21.2620 C   0  0  2  0  0  0  0  0  0  0  0  0
   13.9550   -3.7650   20.5180 C   0  0  0  0  0  0  0  0  0  0  0  0
   12.2450   -3.9750   20.1660 C   0  0  0  0  0  0  0  0  0  0  0  0
   11.2180   -4.7310   20.0370 C   0  0  0  0  0  0  0  0  0  0  0  0
   10.3070   -4.6560   20.6330 C   0  0  0  0  0  0  0  0  0  0  0  0
    9.0630   -5.4080   20.5540 C   0  0  0  0  0  0  0  0  0  0  0  0
    7.5440   -4.8990   21.6710 C   0  0  0  0  0  0  0  0  0  0  0  0
    6.3400   -4.4350   20.8440 C   0  0  0  0  0  0  0  0  0  0  0  0
    5.1620   -3.9500   21.2330 C   0  0  0  0  0  0  0  0  0  0  0  0
    4.7250   -3.8100   22.4920 C   0  0  0  0  0  0  0  0  0  0  0  0
    5.6510   -4.2220   23.3580 C   0  0  0  0  0  0  0  0  0  0  0  0
    6.9520   -4.7300   23.1370 C   0  0  0  0  0  0  0  0  0  0  0  0
    7.4370   -4.9760   24.3540 F   0  0  0  0  0  0  0  0  0  0  0  0
    9.7570   -6.2000   19.4580 N   0  0  0  0  0  0  0  0  0  0  0  0
    9.4190   -7.5890   18.3480 S   0  0  0  0  0  0  0  0  0  0  0  0
    9.3520   -7.8130   17.2330 O   0  0  0  0  0  0  0  0  0  0  0  0
    8.2870   -6.9630   18.6790 O   0  0  0  0  0  0  0  0  0  0  0  0
    9.8870   -9.3460   18.7640 C   0  0  0  0  0  0  0  0  0  0  0  0
    9.0540  -10.3240   18.1750 C   0  0  0  0  0  0  0  0  0  0  0  0
    8.8750  -11.6920   18.5170 C   0  0  0  0  0  0  0  0  0  0  0  0
    9.7330  -12.0320   19.4770 C   0  0  0  0  0  0  0  0  0  0  0  0
   10.5100  -11.1260   19.7520 N   0  0  0  0  0  0  0  0  0  0  0  0
   10.6540   -9.8550   19.4900 C   0  0  0  0  0  0  0  0  0  0  0  0
   10.9420   -5.5540   19.3170 C   0  0  0  0  0  0  0  0  0  0  0  0
    9.1750   -0.0470   21.7230 C   0  0  0  0  0  0  0  0  0  0  0  0
    7.6680    0.0120   21.2970 C   0  0  0  0  0  0  0  0  0  0  0  0
  1  2  2  3
  1  3  1  0
  3  4  1  0
  4  5  1  0
  5  6  1  0
  6  7  1  0
  7  8  2  0
  7  9  1  0
  9 10  1  0
  9 11  1  0
 11 12  1  1
 11 13  1  0
 13 14  1  6
 13 15  1  0
 15 16  1  0
 16 17  1  0
 17 18  2  0
 18 19  1  0
 19 20  2  0
 20 21  1  0
 21 22  2  0
 22 23  1  0
 19 24  1  0
 23 24  2  0
 24 25  1  0
 18 26  1  0
 26 27  1  0
 27 28  2  0
 27 29  2  0
 27 30  1  0
 30 31  2  0
 31 32  1  0
 32 33  2  0
 33 34  1  0
 30 35  1  0
 34 35  2  0
 16 36  2  0
 26 36  1  0
  6 37  1  0
  3 38  1  0
 37 38  1  0
M  END
