MAK-UNK-8fdbca50-13-chloroacetamide
     RDKit          3D

 39 42  0  0  0  0  0  0  0  0999 V2000
    7.1300   -3.5160   19.8270 C   0  0  0  0  0  0  0  0  0  0  0  0
    5.6710   -3.1730   19.9240 C   0  0  0  0  0  0  0  0  0  0  0  0
    4.8870   -3.3960   19.0200 O   0  0  0  0  0  0  0  0  0  0  0  0
    5.1740   -2.6680   21.1030 N   0  0  0  0  0  0  0  0  0  0  0  0
    4.8910   -3.5080   22.1380 C   0  0  0  0  0  0  0  0  0  0  0  0
    6.0600   -3.6490   23.0760 C   0  0  0  0  0  0  0  0  0  0  0  0
    6.3590   -2.2580   23.6000 C   0  0  0  0  0  0  0  0  0  0  0  0
    6.2740   -2.5670   25.0660 C   0  0  0  0  0  0  0  0  0  0  0  0
    5.6730   -1.8630   25.8880 O   0  0  0  0  0  0  0  0  0  0  0  0
    6.9720   -3.7570   25.3140 N   0  0  0  0  0  0  0  0  0  0  0  0
    6.2270   -4.8000   26.0580 C   0  0  0  0  0  0  0  0  0  0  0  0
    7.7540   -4.3540   24.3240 C   0  0  2  0  0  0  0  0  0  0  0  0
    8.8410   -5.2050   24.5840 C   0  0  0  0  0  0  0  0  0  0  0  0
    8.9960   -3.6640   23.6870 C   0  0  0  0  0  0  0  0  0  0  0  0
    8.8270   -2.7950   22.5410 C   0  0  0  0  0  0  0  0  0  0  0  0
    9.9370   -2.0800   21.9020 C   0  0  0  0  0  0  0  0  0  0  0  0
   11.2610   -2.2740   22.4840 C   0  0  0  0  0  0  0  0  0  0  0  0
   12.2840   -1.5540   21.8800 C   0  0  0  0  0  0  0  0  0  0  0  0
   13.0950   -1.8830   20.7860 C   0  0  0  0  0  0  0  0  0  0  0  0
   13.9870   -0.8380   20.4160 C   0  0  0  0  0  0  0  0  0  0  0  0
   15.0110   -0.6840   19.2180 C   0  0  0  0  0  0  0  0  0  0  0  0
   14.9520   -0.0370   18.0380 N   0  0  0  0  0  0  0  0  0  0  0  0
   16.0330    0.8240   17.8830 C   0  0  0  0  0  0  0  0  0  0  0  0
   13.7020    0.1810   21.4750 C   0  0  0  0  0  0  0  0  0  0  0  0
   12.6540   -0.2990   22.2880 N   0  0  0  0  0  0  0  0  0  0  0  0
   11.8380    0.4760   23.5930 S   0  0  0  0  0  0  0  0  0  0  0  0
   10.4870    0.5890   23.0510 O   0  0  0  0  0  0  0  0  0  0  0  0
   12.6280    1.6070   23.9280 O   0  0  0  0  0  0  0  0  0  0  0  0
   11.8150   -0.7560   24.8320 C   0  0  0  0  0  0  0  0  0  0  0  0
   12.9430   -0.7420   24.1310 C   0  0  0  0  0  0  0  0  0  0  0  0
   12.8400    0.3460   23.2340 C   0  0  0  0  0  0  0  0  0  0  0  0
   11.4870    1.1940   23.3020 C   0  0  0  0  0  0  0  0  0  0  0  0
   10.4200    0.9440   24.1610 N   0  0  0  0  0  0  0  0  0  0  0  0
   10.6180   -0.1240   24.9860 C   0  0  0  0  0  0  0  0  0  0  0  0
   11.4140   -3.1020   23.5720 C   0  0  0  0  0  0  0  0  0  0  0  0
   12.6380   -3.2450   24.0960 F   0  0  0  0  0  0  0  0  0  0  0  0
   10.3390   -3.7800   24.1340 C   0  0  0  0  0  0  0  0  0  0  0  0
    5.3470   -1.2270   23.0710 C   0  0  0  0  0  0  0  0  0  0  0  0
    5.3120   -1.2780   21.5410 C   0  0  0  0  0  0  0  0  0  0  0  0
  1  2  1  0
  2  3  2  0
  2  4  1  0
  4  5  1  0
  5  6  1  0
  6  7  1  0
  7  8  1  0
  8  9  2  0
  8 10  1  0
 10 11  1  0
 10 12  1  0
 12 13  1  1
 12 14  1  0
 14 15  2  0
 15 16  1  0
 16 17  2  0
 17 18  1  0
 18 19  2  0
 19 20  1  0
 20 21  1  0
 21 22  1  0
 22 23  1  0
 20 24  2  0
 18 25  1  0
 24 25  1  0
 25 26  1  0
 26 27  2  0
 26 28  2  0
 26 29  1  0
 29 30  2  0
 30 31  1  0
 31 32  2  0
 32 33  1  0
 29 34  1  0
 33 34  2  0
 17 35  1  0
 35 36  1  0
 14 37  1  0
 35 37  2  0
  7 38  1  0
  4 39  1  0
 38 39  1  0
M  END
