MAK-UNK-5d2caa6f-4-acrylamide
     RDKit          3D

 24 27  0  0  0  0  0  0  0  0999 V2000
    7.7990   -2.9080   18.5520 C   0  0  0  0  0  0  0  0  0  0  0  0
    6.2910   -2.7500   18.7270 C   0  0  0  0  0  0  0  0  0  0  0  0
    5.8390   -3.3240   20.0010 C   0  0  0  0  0  0  0  0  0  0  0  0
    5.2270   -4.3900   20.0310 O   0  0  0  0  0  0  0  0  0  0  0  0
    6.1980   -2.5510   21.0620 N   0  0  0  0  0  0  0  0  0  0  0  0
    6.9090   -1.2620   20.9190 C   0  0  0  0  0  0  0  0  0  0  0  0
    7.9730   -1.3410   22.0370 C   0  0  1  0  0  0  0  0  0  0  0  0
    6.5180   -1.1140   22.5930 C   0  0  0  0  0  0  0  0  0  0  0  0
    5.9820   -2.5940   22.4630 C   0  0  2  0  0  0  0  0  0  0  0  0
    7.1610   -3.2190   23.1950 C   0  0  0  0  0  0  0  0  0  0  0  0
    7.8830   -1.9270   23.3940 N   0  0  0  0  0  0  0  0  0  0  0  0
    9.0790   -2.0170   24.2060 C   0  0  2  0  0  0  0  0  0  0  0  0
   10.3990   -1.3620   23.7390 C   0  0  0  0  0  0  0  0  0  0  0  0
   11.2540   -1.9740   22.6400 C   0  0  0  0  0  0  0  0  0  0  0  0
   12.5620   -1.2440   22.2460 C   0  0  0  0  0  0  0  0  0  0  0  0
   12.9390    0.0590   22.9600 C   0  0  0  0  0  0  0  0  0  0  0  0
   12.0190    0.5910   24.0410 C   0  0  0  0  0  0  0  0  0  0  0  0
   10.7790   -0.2080   24.3520 C   0  0  0  0  0  0  0  0  0  0  0  0
    9.3020   -3.4420   24.6940 C   0  0  0  0  0  0  0  0  0  0  0  0
   10.5340   -3.4970   25.4950 C   0  0  0  0  0  0  0  0  0  0  0  0
   10.5480   -4.7940   26.2280 C   0  0  0  0  0  0  0  0  0  0  0  0
    9.4860   -5.7760   25.7170 C   0  0  0  0  0  0  0  0  0  0  0  0
    9.3750   -5.8540   24.1840 C   0  0  0  0  0  0  0  0  0  0  0  0
    9.4970   -4.4770   23.5800 C   0  0  0  0  0  0  0  0  0  0  0  0
  1  2  1  0
  2  3  1  0
  3  4  2  0
  3  5  1  0
  5  6  1  0
  7  6  1  6
  7  8  1  0
  5  9  1  0
  8  9  1  0
  9 10  1  1
  7 11  1  0
 10 11  1  0
 11 12  1  0
 12 13  1  6
 13 14  2  0
 14 15  1  0
 15 16  2  0
 16 17  1  0
 13 18  1  0
 17 18  2  0
 12 19  1  0
 19 20  1  0
 20 21  1  0
 21 22  1  0
 22 23  1  0
 19 24  1  0
 23 24  1  0
M  END
