MAK-UNK-ec98eaf6-16-vinylsulfonamide
     RDKit          3D

 24 26  0  0  0  0  0  0  0  0999 V2000
    8.1020   -3.4060   19.9340 C   0  0  0  0  0  0  0  0  0  0  0  0
    6.9600   -2.7570   19.2310 C   0  0  0  0  0  0  0  0  0  0  0  0
    5.6790   -3.1910   20.3180 S   0  0  0  0  0  0  0  0  0  0  0  0
    4.4610   -3.0050   19.6380 O   0  0  0  0  0  0  0  0  0  0  0  0
    5.9460   -4.5020   20.8540 O   0  0  0  0  0  0  0  0  0  0  0  0
    6.0250   -2.0770   21.5550 N   0  0  0  0  0  0  0  0  0  0  0  0
    5.8440   -2.5200   22.9820 C   0  0  0  0  0  0  0  0  0  0  0  0
    7.3380   -2.8430   23.3060 C   0  0  1  0  0  0  0  0  0  0  0  0
    8.0110   -2.8960   21.9540 C   0  0  0  0  0  0  0  0  0  0  0  0
    7.4540   -1.6140   21.4610 C   0  0  2  0  0  0  0  0  0  0  0  0
    7.8520   -0.7540   22.6260 C   0  0  0  0  0  0  0  0  0  0  0  0
    7.9820   -1.5550   23.7500 N   0  0  0  0  0  0  0  0  0  0  0  0
    9.3640   -1.8050   24.2650 C   0  0  0  0  0  0  0  0  0  0  0  0
   10.5220   -0.9530   23.7080 C   0  0  0  0  0  0  0  0  0  0  0  0
   10.1860    0.5240   23.9220 C   0  0  0  0  0  0  0  0  0  0  0  0
   11.2400    1.5080   23.4240 C   0  0  0  0  0  0  0  0  0  0  0  0
   11.0040    2.9830   23.5630 C   0  0  0  0  0  0  0  0  0  0  0  0
    9.8400    3.5760   22.8200 C   0  0  0  0  0  0  0  0  0  0  0  0
    9.9920    4.9880   22.7260 O   0  0  0  0  0  0  0  0  0  0  0  0
   12.4060    1.1270   22.8410 N   0  0  0  0  0  0  0  0  0  0  0  0
   12.7090   -0.1830   22.6540 C   0  0  0  0  0  0  0  0  0  0  0  0
   11.8250   -1.3450   23.0520 C   0  0  0  0  0  0  0  0  0  0  0  0
   12.4440   -2.6750   22.7030 C   0  0  0  0  0  0  0  0  0  0  0  0
   12.9010   -2.6780   21.3310 N   0  0  0  0  0  0  0  0  0  0  0  0
  1  2  1  0
  3  2  1  0
  3  4  2  0
  3  5  2  0
  3  6  1  0
  6  7  1  0
  8  7  1  6
  8  9  1  0
  6 10  1  0
  9 10  1  0
 10 11  1  1
  8 12  1  0
 11 12  1  0
 12 13  1  0
 13 14  1  0
 14 15  2  0
 15 16  1  0
 16 17  1  0
 17 18  1  0
 18 19  1  0
 16 20  2  0
 20 21  1  0
 14 22  1  0
 21 22  2  0
 22 23  1  0
 23 24  3  0
M  END
