MAK-UNK-2084232d-17
     RDKit          3D

 22 24  0  0  0  0  0  0  0  0999 V2000
   13.5490   -2.3210   25.1190 N   0  0  0  0  0  0  0  0  0  0  0  0
   12.7560   -2.3740   23.9580 C   0  0  0  0  0  0  0  0  0  0  0  0
   11.2430   -2.1370   23.9920 C   0  0  2  0  0  0  0  0  0  0  0  0
   10.2760   -3.1030   24.0690 O   0  0  0  0  0  0  0  0  0  0  0  0
    8.8120   -2.8230   24.4910 C   0  0  2  0  0  0  0  0  0  0  0  0
    7.8720   -3.7170   23.9210 C   0  0  2  0  0  0  0  0  0  0  0  0
    8.4290   -4.7660   23.2380 C   0  0  0  0  0  0  0  0  0  0  0  0
    7.5800   -5.7320   22.6850 C   0  0  0  0  0  0  0  0  0  0  0  0
    6.2090   -5.4920   22.5790 C   0  0  0  0  0  0  0  0  0  0  0  0
    5.6730   -4.0500   22.7500 C   0  0  2  0  0  0  0  0  0  0  0  0
    5.0010   -3.5790   21.5660 O   0  0  0  0  0  0  0  0  0  0  0  0
    6.8130   -3.0870   23.2330 C   0  0  1  0  0  0  0  0  0  0  0  0
    6.4780   -2.1810   23.9830 O   0  0  0  0  0  0  0  0  0  0  0  0
    8.7540   -1.4900   24.2380 C   0  0  0  0  0  0  0  0  0  0  0  0
   10.1720   -1.7640   24.0030 C   0  0  0  0  0  0  0  0  0  0  0  0
   10.9730   -1.3160   22.9120 C   0  0  0  0  0  0  0  0  0  0  0  0
   12.4050   -1.5200   22.5030 C   0  0  0  0  0  0  0  0  0  0  0  0
   13.1160   -2.4170   23.5250 C   0  0  0  0  0  0  0  0  0  0  0  0
   12.3700   -2.9070   24.6650 C   0  0  0  0  0  0  0  0  0  0  0  0
   13.0160   -3.7180   25.6040 O   0  0  0  0  0  0  0  0  0  0  0  0
   10.9630   -2.5900   24.8780 C   0  0  0  0  0  0  0  0  0  0  0  0
   10.4350   -3.1550   25.9980 O   0  0  0  0  0  0  0  0  0  0  0  0
  1  2  1  0
  3  2  1  6
  3  4  1  0
  4  5  1  0
  5  6  1  0
  6  7  1  6
  7  8  1  0
  8  9  1  0
  9 10  1  0
 10 11  1  6
  6 12  1  0
 10 12  1  0
 12 13  1  1
  5 14  1  6
 14 15  1  0
  3 16  1  0
 15 16  2  0
 16 17  1  0
 17 18  2  0
 18 19  1  0
 19 20  1  0
 15 21  1  0
 19 21  2  0
 21 22  1  0
M  END
