MAK-UNK-acefcb18-14
     RDKit          3D

 26 28  0  0  0  0  0  0  0  0999 V2000
    9.2600   -4.9740   28.0540 C   0  0  0  0  0  0  0  0  0  0  0  0
    8.6650   -4.9720   26.7350 N   0  0  0  0  0  0  0  0  0  0  0  0
    7.6590   -3.9700   26.4130 C   0  0  0  0  0  0  0  0  0  0  0  0
    8.1810   -3.0490   25.3150 C   0  0  0  0  0  0  0  0  0  0  0  0
    9.6150   -2.7970   25.4250 N   0  0  0  0  0  0  0  0  0  0  0  0
   10.1940   -1.5700   25.0290 C   0  0  0  0  0  0  0  0  0  0  0  0
    9.5210   -0.5480   25.0600 O   0  0  0  0  0  0  0  0  0  0  0  0
   11.6100   -1.5360   24.5800 C   0  0  0  0  0  0  0  0  0  0  0  0
   12.1250   -0.2070   24.5130 O   0  0  0  0  0  0  0  0  0  0  0  0
   12.7280   -0.0790   23.2570 C   0  0  0  0  0  0  0  0  0  0  0  0
   12.5300   -1.6400   22.5680 S   0  0  0  0  0  0  0  0  0  0  0  0
   11.1090   -0.9880   21.8760 C   0  0  0  0  0  0  0  0  0  0  0  0
    9.8350   -1.0200   22.4740 C   0  0  1  0  0  0  0  0  0  0  0  0
    9.0210   -0.2800   21.8850 O   0  0  0  0  0  0  0  0  0  0  0  0
    7.6580   -0.7790   22.0170 C   0  0  1  0  0  0  0  0  0  0  0  0
    6.8660   -0.6090   20.7080 C   0  0  0  0  0  0  0  0  0  0  0  0
    7.0510    0.6770   19.9540 C   0  0  0  0  0  0  0  0  0  0  0  0
    6.2730    0.6600   18.8110 C   0  0  0  0  0  0  0  0  0  0  0  0
    5.3660   -0.7980   18.6340 S   0  0  0  0  0  0  0  0  0  0  0  0
    5.9820   -1.4790   20.0980 C   0  0  0  0  0  0  0  0  0  0  0  0
    7.7550   -2.0740   22.5470 C   0  0  1  0  0  0  0  0  0  0  0  0
    6.9690   -2.9710   21.8920 O   0  0  0  0  0  0  0  0  0  0  0  0
    9.1600   -2.2430   22.5450 C   0  0  1  0  0  0  0  0  0  0  0  0
    9.5250   -3.1150   21.4940 O   0  0  0  0  0  0  0  0  0  0  0  0
   10.4120   -3.9270   25.4530 C   0  0  0  0  0  0  0  0  0  0  0  0
    9.6700   -5.0730   25.6730 C   0  0  0  0  0  0  0  0  0  0  0  0
  1  2  1  0
  2  3  1  0
  3  4  1  0
  4  5  1  0
  5  6  1  0
  6  7  2  0
  6  8  1  0
  8  9  1  0
  9 10  1  0
 10 11  1  0
 11 12  1  0
 13 12  1  6
 13 14  1  0
 14 15  1  0
 15 16  1  6
 16 17  1  0
 17 18  2  0
 18 19  1  0
 16 20  2  0
 19 20  1  0
 15 21  1  0
 21 22  1  6
 13 23  1  0
 21 23  1  0
 23 24  1  6
  5 25  1  0
  2 26  1  0
 25 26  1  0
M  END
