MAK-UNK-148caf23-22-vinylsulfonamide
     RDKit          3D

 37 40  0  0  0  0  0  0  0  0999 V2000
    8.4400   -4.0450   20.1440 C   0  0  0  0  0  0  0  0  0  0  0  0
    7.4700   -3.0260   20.1020 C   0  0  0  0  0  0  0  0  0  0  0  0
    6.8350   -3.1870   21.7980 S   0  0  0  0  0  0  0  0  0  0  0  0
    5.1320   -3.3340   21.3740 O   0  0  0  0  0  0  0  0  0  0  0  0
    7.3320   -4.4710   22.1050 O   0  0  0  0  0  0  0  0  0  0  0  0
    8.3080   -2.2950   22.9720 C   0  0  0  0  0  0  0  0  0  0  0  0
    8.6560   -2.7490   24.2940 C   0  0  0  0  0  0  0  0  0  0  0  0
    9.4670   -1.6640   23.6690 C   0  0  0  0  0  0  0  0  0  0  0  0
    8.9500   -1.4040   22.4610 C   0  0  0  0  0  0  0  0  0  0  0  0
    7.9260   -1.9410   22.0840 N   0  0  0  0  0  0  0  0  0  0  0  0
    7.5730   -2.7190   23.2490 C   0  0  0  0  0  0  0  0  0  0  0  0
    6.4860   -3.3390   23.7010 C   0  0  0  0  0  0  0  0  0  0  0  0
    5.1770   -4.1240   24.0170 C   0  0  0  0  0  0  0  0  0  0  0  0
    4.0000   -4.8960   23.2370 C   0  0  0  0  0  0  0  0  0  0  0  0
    3.7730   -4.6970   24.6110 C   0  0  0  0  0  0  0  0  0  0  0  0
    3.0500   -4.7540   25.6040 F   0  0  0  0  0  0  0  0  0  0  0  0
    5.1740   -3.8730   24.8170 C   0  0  0  0  0  0  0  0  0  0  0  0
    5.7690   -3.4060   26.0560 C   0  0  0  0  0  0  0  0  0  0  0  0
    7.3760   -3.6050   25.8410 C   0  0  0  0  0  0  0  0  0  0  0  0
    7.8370   -2.9320   26.9970 C   0  0  0  0  0  0  0  0  0  0  0  0
    9.0790   -2.6500   27.2480 C   0  0  0  0  0  0  0  0  0  0  0  0
   10.1270   -3.5070   26.4720 N   0  0  0  0  0  0  0  0  0  0  0  0
   10.6440   -3.0220   25.2300 C   0  0  0  0  0  0  0  0  0  0  0  0
    6.6030   -2.6150   27.7490 C   0  0  0  0  0  0  0  0  0  0  0  0
    5.4270   -2.8590   27.1790 N   0  0  0  0  0  0  0  0  0  0  0  0
    4.9820   -2.1460   28.6420 S   0  0  0  0  0  0  0  0  0  0  0  0
    4.2500   -1.0010   28.1180 O   0  0  0  0  0  0  0  0  0  0  0  0
    4.5000   -3.1390   29.5760 O   0  0  0  0  0  0  0  0  0  0  0  0
    6.3960   -1.7930   29.5480 C   0  0  0  0  0  0  0  0  0  0  0  0
    5.5510   -0.7420   29.9540 C   0  0  0  0  0  0  0  0  0  0  0  0
    5.4610    0.4250   30.8030 C   0  0  0  0  0  0  0  0  0  0  0  0
    6.5420    0.6820   31.5090 C   0  0  0  0  0  0  0  0  0  0  0  0
    6.9230   -0.3400   30.8980 N   0  0  0  0  0  0  0  0  0  0  0  0
    7.4410   -1.3190   30.3840 C   0  0  0  0  0  0  0  0  0  0  0  0
    6.3860   -3.1550   25.0140 C   0  0  0  0  0  0  0  0  0  0  0  0
    9.7950   -0.4660   22.0410 N   0  0  0  0  0  0  0  0  0  0  0  0
    9.4080   -1.2340   22.9190 C   0  0  0  0  0  0  0  0  0  0  0  0
  1  2  1  0
  3  2  1  0
  3  4  2  0
  3  5  2  0
  3  6  1  0
  6  7  2  0
  7  8  1  0
  8  9  2  0
  9 10  1  0
 10 11  1  0
 11 12  1  0
 12 13  2  0
 13 14  1  0
 14 15  2  0
 15 16  1  0
 15 17  1  0
 17 18  1  0
 18 19  2  0
 19 20  1  0
 20 21  1  0
 21 22  1  0
 22 23  1  0
 20 24  2  0
 18 25  1  0
 24 25  1  0
 25 26  1  0
 26 27  2  0
 26 28  2  0
 26 29  1  0
 29 30  2  0
 30 31  1  0
 31 32  2  0
 32 33  1  0
 29 34  1  0
 33 34  2  0
 12 35  1  0
 17 35  2  0
  9 36  1  0
  6 37  1  0
 36 37  2  0
M  END
