MAK-UNK-176ca439-3-nitrile
     RDKit          3D

 22 23  0  0  0  0  0  0  0  0999 V2000
    6.7600   -3.3890   19.6430 C   0  0  0  0  0  0  0  0  0  0  0  0
    5.8640   -3.1320   18.7750 N   0  0  0  0  0  0  0  0  0  0  0  0
    6.8190   -2.6740   20.8340 N   0  0  0  0  0  0  0  0  0  0  0  0
    7.5720   -1.4080   20.9220 C   0  0  0  0  0  0  0  0  0  0  0  0
    8.6590   -1.5580   21.7890 C   0  0  0  0  0  0  0  0  0  0  0  0
    8.2980   -2.0480   23.1390 N   0  0  0  0  0  0  0  0  0  0  0  0
    9.4080   -2.1330   24.0780 C   0  0  0  0  0  0  0  0  0  0  0  0
   10.4780   -1.2940   23.7640 C   0  0  0  0  0  0  0  0  0  0  0  0
   11.6950   -1.8820   23.3710 C   0  0  0  0  0  0  0  0  0  0  0  0
   12.8860   -1.0070   23.0180 C   0  0  0  0  0  0  0  0  0  0  0  0
   12.6590    0.4810   23.1160 C   0  0  0  0  0  0  0  0  0  0  0  0
   11.3360    1.0440   23.5390 C   0  0  0  0  0  0  0  0  0  0  0  0
   11.0760    2.5440   23.6310 C   0  0  0  0  0  0  0  0  0  0  0  0
   10.1010    2.9760   24.2280 O   0  0  0  0  0  0  0  0  0  0  0  0
   12.2270    3.6070   22.7950 S   0  0  0  0  0  0  0  0  0  0  0  0
   11.5710    5.3100   22.9780 C   0  0  0  0  0  0  0  0  0  0  0  0
   10.5290    5.4000   23.8920 C   0  0  0  0  0  0  0  0  0  0  0  0
   10.6020    6.6200   24.7140 N   0  0  0  0  0  0  0  0  0  0  0  0
   11.8420    6.6720   25.4810 C   0  0  0  0  0  0  0  0  0  0  0  0
   10.3110    0.1230   23.8460 C   0  0  0  0  0  0  0  0  0  0  0  0
    7.5420   -3.3050   23.0870 C   0  0  0  0  0  0  0  0  0  0  0  0
    6.3630   -3.2090   22.1200 C   0  0  0  0  0  0  0  0  0  0  0  0
  1  2  2  3
  1  3  1  0
  3  4  1  0
  4  5  1  0
  5  6  1  0
  6  7  1  0
  7  8  1  0
  8  9  2  0
  9 10  1  0
 10 11  2  0
 11 12  1  0
 12 13  1  0
 13 14  2  0
 13 15  1  0
 15 16  1  0
 16 17  1  0
 17 18  1  0
 18 19  1  0
  8 20  1  0
 12 20  2  0
  6 21  1  0
  3 22  1  0
 21 22  1  0
M  END
