MAK-UNK-9e4a73aa-12
     RDKit          3D

 26 29  0  0  0  0  0  0  0  0999 V2000
    8.1300   -2.6240   25.4430 O   0  0  0  0  0  0  0  0  0  0  0  0
    8.3810   -1.7890   24.5680 C   0  0  0  0  0  0  0  0  0  0  0  0
    9.7990   -1.4110   24.2180 C   0  0  0  0  0  0  0  0  0  0  0  0
   10.9220   -2.2900   24.7970 C   0  0  0  0  0  0  0  0  0  0  0  0
   12.3540   -1.9210   24.4400 C   0  0  0  0  0  0  0  0  0  0  0  0
   13.5950   -2.8820   25.0960 Cl  0  0  0  0  0  0  0  0  0  0  0  0
   12.5470   -0.7160   23.5210 C   0  0  0  0  0  0  0  0  0  0  0  0
   13.7040   -0.2650   23.0950 F   0  0  0  0  0  0  0  0  0  0  0  0
   11.3090    0.0080   23.0770 C   0  0  0  0  0  0  0  0  0  0  0  0
   10.0390   -0.3230   23.4160 C   0  0  0  0  0  0  0  0  0  0  0  0
    9.0430    0.4570   22.9480 N   0  0  0  0  0  0  0  0  0  0  0  0
    9.4360    1.8660   22.8470 C   0  0  0  0  0  0  0  0  0  0  0  0
    8.4130    2.7630   22.6160 C   0  0  0  0  0  0  0  0  0  0  0  0
    8.6830    4.2770   22.5090 C   0  0  0  0  0  0  0  0  0  0  0  0
   10.2080    4.7070   22.6780 C   0  0  0  0  0  0  0  0  0  0  0  0
   11.1630    3.5760   22.9090 C   0  0  0  0  0  0  0  0  0  0  0  0
   10.7920    2.2580   22.9880 C   0  0  0  0  0  0  0  0  0  0  0  0
    7.6770    0.1310   23.4280 C   0  0  0  0  0  0  0  0  0  0  0  0
    6.6820    1.0740   23.4850 O   0  0  0  0  0  0  0  0  0  0  0  0
    7.4820   -1.1470   23.8110 N   0  0  0  0  0  0  0  0  0  0  0  0
    6.5690   -2.0170   23.0390 C   0  0  0  0  0  0  0  0  0  0  0  0
    7.1660   -0.9750   22.0770 C   0  0  0  0  0  0  0  0  0  0  0  0
    6.8020   -0.9530   20.6730 C   0  0  0  0  0  0  0  0  0  0  0  0
    6.1110   -1.4720   19.7040 C   0  0  0  0  0  0  0  0  0  0  0  0
    5.4990   -2.4650   20.4140 N   0  0  0  0  0  0  0  0  0  0  0  0
    5.6880   -2.7240   21.8970 C   0  0  0  0  0  0  0  0  0  0  0  0
  1  2  2  0
  2  3  1  0
  3  4  2  0
  4  5  1  0
  5  6  1  0
  5  7  2  0
  7  8  1  0
  7  9  1  0
  3 10  1  0
  9 10  2  0
 10 11  1  0
 11 12  1  0
 12 13  2  0
 13 14  1  0
 14 15  2  0
 15 16  1  0
 12 17  1  0
 16 17  2  0
 11 18  1  0
 18 19  2  0
  2 20  1  0
 18 20  1  0
 20 21  1  0
 21 22  2  0
 22 23  1  0
 23 24  2  0
 24 25  1  0
 21 26  1  0
 25 26  2  0
M  END
