MAK-UNK-516d8086-20-vinylsulfonamide
     RDKit          3D

 25 27  0  0  0  0  0  0  0  0999 V2000
    7.5340   -3.0080   18.7150 C   0  0  0  0  0  0  0  0  0  0  0  0
    6.7090   -2.5430   19.9340 C   0  0  0  0  0  0  0  0  0  0  0  0
    5.9000   -3.8290   20.8560 S   0  0  0  0  0  0  0  0  0  0  0  0
    4.8000   -3.2270   21.5600 O   0  0  0  0  0  0  0  0  0  0  0  0
    5.5770   -4.9490   19.9960 O   0  0  0  0  0  0  0  0  0  0  0  0
    7.1650   -4.2870   22.1320 C   0  0  0  0  0  0  0  0  0  0  0  0
    7.0610   -5.6670   22.7110 C   0  0  0  0  0  0  0  0  0  0  0  0
    7.8700   -6.1660   23.6420 N   0  0  0  0  0  0  0  0  0  0  0  0
    8.8550   -5.3620   24.0910 C   0  0  0  0  0  0  0  0  0  0  0  0
    9.8320   -5.7450   25.1430 N   0  0  0  0  0  0  0  0  0  0  0  0
    9.2680   -6.0710   26.3300 C   0  0  0  0  0  0  0  0  0  0  0  0
    9.6650   -5.0790   27.4090 C   0  0  0  0  0  0  0  0  0  0  0  0
    9.0800   -3.9130   23.5610 C   0  0  0  0  0  0  0  0  0  0  0  0
   10.2380   -2.9890   24.0750 C   0  0  0  0  0  0  0  0  0  0  0  0
   10.7210   -3.2340   25.3750 C   0  0  0  0  0  0  0  0  0  0  0  0
    9.3040   -3.4500   25.1400 C   0  0  0  0  0  0  0  0  0  0  0  0
   10.1730   -2.9530   24.1000 C   0  0  0  0  0  0  0  0  0  0  0  0
   10.1570   -2.5430   22.7890 C   0  0  0  0  0  0  0  0  0  0  0  0
   11.2900   -2.5660   23.5880 C   0  0  0  0  0  0  0  0  0  0  0  0
   11.8650   -2.8190   24.7640 N   0  0  0  0  0  0  0  0  0  0  0  0
   11.0850   -2.0870   21.9650 C   0  0  0  0  0  0  0  0  0  0  0  0
   12.0980   -2.1560   22.9790 N   0  0  0  0  0  0  0  0  0  0  0  0
   11.5910   -2.7470   24.3290 C   0  0  0  0  0  0  0  0  0  0  0  0
   12.2540   -2.9890   25.3400 O   0  0  0  0  0  0  0  0  0  0  0  0
    8.1820   -3.4540   22.5780 C   0  0  0  0  0  0  0  0  0  0  0  0
  1  2  1  0
  3  2  1  0
  3  4  2  0
  3  5  2  0
  3  6  1  0
  6  7  2  0
  7  8  1  0
  8  9  2  0
  9 10  1  0
 10 11  1  0
 11 12  1  0
  9 13  1  0
 13 14  1  0
 14 15  1  0
 15 16  2  0
 16 17  1  0
 17 18  2  0
 18 19  1  0
 15 20  1  0
 19 20  2  0
 18 21  1  0
 21 22  1  0
 17 23  1  0
 22 23  1  0
 23 24  2  0
  6 25  1  0
 13 25  2  0
M  END
