MAK-UNK-ec98eaf6-22-nitrile
     RDKit          3D

 21 23  0  0  0  0  0  0  0  0999 V2000
    6.7050   -3.8200   19.9710 C   0  0  0  0  0  0  0  0  0  0  0  0
    5.7840   -4.7030   19.9560 N   0  0  0  0  0  0  0  0  0  0  0  0
    6.7060   -2.9220   20.9910 N   0  0  0  0  0  0  0  0  0  0  0  0
    7.5440   -1.6960   21.0660 C   0  0  0  0  0  0  0  0  0  0  0  0
    8.4780   -2.3800   22.0400 C   0  0  2  0  0  0  0  0  0  0  0  0
    7.8520   -3.7140   22.4070 C   0  0  0  0  0  0  0  0  0  0  0  0
    6.3510   -3.3550   22.4240 C   0  0  1  0  0  0  0  0  0  0  0  0
    6.9080   -2.7520   23.7280 C   0  0  0  0  0  0  0  0  0  0  0  0
    8.1720   -1.9780   23.4000 N   0  0  0  0  0  0  0  0  0  0  0  0
    9.2380   -2.3010   24.3160 C   0  0  0  0  0  0  0  0  0  0  0  0
   10.3950   -1.3770   24.0500 C   0  0  0  0  0  0  0  0  0  0  0  0
   11.2220   -1.9240   22.9090 C   0  0  0  0  0  0  0  0  0  0  0  0
   12.3730   -0.9680   22.6370 C   0  0  0  0  0  0  0  0  0  0  0  0
   13.2390   -1.4000   21.5180 C   0  0  0  0  0  0  0  0  0  0  0  0
   13.8140   -1.6880   20.6140 N   0  0  0  0  0  0  0  0  0  0  0  0
   12.5750    0.2660   23.4160 C   0  0  0  0  0  0  0  0  0  0  0  0
   11.7330    0.5860   24.4060 N   0  0  0  0  0  0  0  0  0  0  0  0
   10.6650   -0.2080   24.7250 C   0  0  0  0  0  0  0  0  0  0  0  0
    9.8010    0.1570   25.7650 N   0  0  0  0  0  0  0  0  0  0  0  0
    8.6980    1.0760   25.4880 C   0  0  0  0  0  0  0  0  0  0  0  0
    9.2020    2.2620   24.6650 C   0  0  0  0  0  0  0  0  0  0  0  0
  1  2  2  3
  1  3  1  0
  3  4  1  0
  5  4  1  6
  5  6  1  0
  3  7  1  0
  6  7  1  0
  7  8  1  1
  5  9  1  0
  8  9  1  0
  9 10  1  0
 10 11  1  0
 11 12  2  0
 12 13  1  0
 13 14  1  0
 14 15  3  0
 13 16  2  0
 16 17  1  0
 11 18  1  0
 17 18  2  0
 18 19  1  0
 19 20  1  0
 20 21  1  0
M  END
