MAK-UNK-cd94b63c-1-vinylsulfonamide
     RDKit          3D

 25 26  0  0  0  0  0  0  0  0999 V2000
    7.6190   -2.9650   18.4980 C   0  0  0  0  0  0  0  0  0  0  0  0
    7.3110   -2.3100   19.7750 C   0  0  0  0  0  0  0  0  0  0  0  0
    5.6190   -2.4280   20.1350 S   0  0  0  0  0  0  0  0  0  0  0  0
    5.1200   -3.7720   19.9530 O   0  0  0  0  0  0  0  0  0  0  0  0
    4.9560   -1.2570   19.6160 O   0  0  0  0  0  0  0  0  0  0  0  0
    5.9390   -2.1550   21.7490 N   0  0  0  0  0  0  0  0  0  0  0  0
    6.8900   -1.0420   21.9490 C   0  0  0  0  0  0  0  0  0  0  0  0
    8.3660   -1.4720   22.1010 C   0  0  0  0  0  0  0  0  0  0  0  0
    8.5590   -2.5710   23.0610 N   0  0  0  0  0  0  0  0  0  0  0  0
    9.4510   -2.2300   24.1730 C   0  0  0  0  0  0  0  0  0  0  0  0
   10.5040   -1.2030   23.8380 C   0  0  0  0  0  0  0  0  0  0  0  0
   11.8510   -1.6830   23.3360 C   0  0  0  0  0  0  0  0  0  0  0  0
   12.8100   -0.6960   23.0260 C   0  0  0  0  0  0  0  0  0  0  0  0
   12.5290    0.6590   23.1750 C   0  0  0  0  0  0  0  0  0  0  0  0
   11.2860    1.1000   23.6360 C   0  0  0  0  0  0  0  0  0  0  0  0
   11.0100    2.4640   23.7670 C   0  0  0  0  0  0  0  0  0  0  0  0
   11.7960    3.2810   23.3320 O   0  0  0  0  0  0  0  0  0  0  0  0
    9.4940    2.9480   24.5180 S   0  0  0  0  0  0  0  0  0  0  0  0
    9.8370    4.7020   24.8740 C   0  0  0  0  0  0  0  0  0  0  0  0
    8.9440    5.3490   25.7260 C   0  0  0  0  0  0  0  0  0  0  0  0
    8.0200    4.3940   26.3160 N   0  0  0  0  0  0  0  0  0  0  0  0
    8.2910    3.7910   27.5230 C   0  0  0  0  0  0  0  0  0  0  0  0
   10.2690    0.1800   23.9740 C   0  0  0  0  0  0  0  0  0  0  0  0
    7.3160   -3.2040   23.5330 C   0  0  0  0  0  0  0  0  0  0  0  0
    6.2250   -3.3890   22.4650 C   0  0  0  0  0  0  0  0  0  0  0  0
  1  2  1  0
  3  2  1  0
  3  4  2  0
  3  5  2  0
  3  6  1  0
  6  7  1  0
  7  8  1  0
  8  9  1  0
  9 10  1  0
 10 11  1  0
 11 12  2  0
 12 13  1  0
 13 14  2  0
 14 15  1  0
 15 16  1  0
 16 17  2  0
 16 18  1  0
 18 19  1  0
 19 20  1  0
 20 21  1  0
 21 22  1  0
 11 23  1  0
 15 23  2  0
  9 24  1  0
  6 25  1  0
 24 25  1  0
M  END
