MAK-UNK-212f693e-13-nitrile
     RDKit          3D

 14 15  0  0  0  0  0  0  0  0999 V2000
    6.3790   -4.5460   20.3200 C   0  0  0  0  0  0  0  0  0  0  0  0
    5.2650   -4.2030   19.8070 N   0  0  0  0  0  0  0  0  0  0  0  0
    6.5250   -5.0470   21.6140 N   0  0  0  0  0  0  0  0  0  0  0  0
    5.7700   -6.0810   22.0570 C   0  0  0  0  0  0  0  0  0  0  0  0
    4.6910   -5.8090   23.1250 C   0  0  0  0  0  0  0  0  0  0  0  0
    5.2070   -4.6900   24.0060 C   0  0  0  0  0  0  0  0  0  0  0  0
    4.7220   -4.7360   25.2590 N   0  0  0  0  0  0  0  0  0  0  0  0
    3.5680   -3.8420   25.4270 C   0  0  0  0  0  0  0  0  0  0  0  0
    3.6530   -2.4850   25.7210 C   0  0  0  0  0  0  0  0  0  0  0  0
    2.5350   -1.7330   25.8510 C   0  0  0  0  0  0  0  0  0  0  0  0
    1.1510   -2.6360   25.6230 S   0  0  0  0  0  0  0  0  0  0  0  0
    2.1300   -4.0160   25.3520 C   0  0  0  0  0  0  0  0  0  0  0  0
    6.5880   -4.5990   23.9320 C   0  0  0  0  0  0  0  0  0  0  0  0
    7.1240   -4.3000   22.6600 C   0  0  0  0  0  0  0  0  0  0  0  0
  1  2  2  3
  1  3  1  0
  3  4  1  0
  4  5  1  0
  5  6  1  0
  6  7  1  0
  7  8  1  0
  8  9  1  0
  9 10  2  0
 10 11  1  0
  8 12  2  0
 11 12  1  0
  6 13  1  0
  3 14  1  0
 13 14  1  0
M  END
