MAK-UNK-148caf23-4-nitrile
     RDKit          3D

 34 37  0  0  0  0  0  0  0  0999 V2000
    8.3150   -3.3800   19.7810 C   0  0  0  0  0  0  0  0  0  0  0  0
    7.0110   -3.4580   19.6350 N   0  0  0  0  0  0  0  0  0  0  0  0
    9.0440   -2.5550   21.1580 C   0  0  0  0  0  0  0  0  0  0  0  0
   10.5060   -1.7990   21.5460 C   0  0  0  0  0  0  0  0  0  0  0  0
   10.8860   -1.1680   22.7350 N   0  0  0  0  0  0  0  0  0  0  0  0
    9.8920   -1.1630   23.7910 C   0  0  0  0  0  0  0  0  0  0  0  0
   10.0570   -0.5780   25.0610 N   0  0  0  0  0  0  0  0  0  0  0  0
    8.9040   -0.0900   25.8460 C   0  0  0  0  0  0  0  0  0  0  0  0
    9.1520   -0.1940   27.3480 C   0  0  0  0  0  0  0  0  0  0  0  0
    8.6500   -1.7930   23.5410 C   0  0  0  0  0  0  0  0  0  0  0  0
    7.6350   -1.7920   24.6480 N   0  0  0  0  0  0  0  0  0  0  0  0
    6.2430   -1.7190   24.2010 C   0  0  0  0  0  0  0  0  0  0  0  0
    5.9650   -0.5250   23.3660 C   0  0  0  0  0  0  0  0  0  0  0  0
    6.5060    0.7900   23.6310 C   0  0  0  0  0  0  0  0  0  0  0  0
    6.0330    1.6210   22.6640 C   0  0  0  0  0  0  0  0  0  0  0  0
    6.3230    3.0290   22.5330 C   0  0  0  0  0  0  0  0  0  0  0  0
    5.3380    3.9580   22.5490 C   0  0  0  0  0  0  0  0  0  0  0  0
    5.5600    5.3940   22.4210 C   0  0  0  0  0  0  0  0  0  0  0  0
    6.8380    5.8690   22.2760 C   0  0  0  0  0  0  0  0  0  0  0  0
    7.8670    4.9440   22.2570 C   0  0  0  0  0  0  0  0  0  0  0  0
    7.6450    3.5550   22.3760 C   0  0  0  0  0  0  0  0  0  0  0  0
    8.7050    2.7340   22.3390 F   0  0  0  0  0  0  0  0  0  0  0  0
    5.2020    0.8430   21.8050 N   0  0  0  0  0  0  0  0  0  0  0  0
    4.3500    1.3900   20.4130 S   0  0  0  0  0  0  0  0  0  0  0  0
    4.3410    2.8280   20.4970 O   0  0  0  0  0  0  0  0  0  0  0  0
    3.1550    0.6290   20.2100 O   0  0  0  0  0  0  0  0  0  0  0  0
    5.5110    0.9110   19.2400 C   0  0  0  0  0  0  0  0  0  0  0  0
    6.3120   -0.1940   19.5340 C   0  0  0  0  0  0  0  0  0  0  0  0
    7.2640   -0.5640   18.6210 C   0  0  0  0  0  0  0  0  0  0  0  0
    7.3460    0.2890   17.3740 C   0  0  0  0  0  0  0  0  0  0  0  0
    6.5420    1.3280   17.1270 N   0  0  0  0  0  0  0  0  0  0  0  0
    5.6330    1.6190   18.0660 C   0  0  0  0  0  0  0  0  0  0  0  0
    5.1910   -0.4390   22.2530 C   0  0  0  0  0  0  0  0  0  0  0  0
    8.2710   -2.4370   22.3110 C   0  0  0  0  0  0  0  0  0  0  0  0
  1  2  2  3
  1  3  1  0
  3  4  2  0
  4  5  1  0
  5  6  2  0
  6  7  1  0
  7  8  1  0
  8  9  1  0
  6 10  1  0
 10 11  1  0
 11 12  1  0
 12 13  1  0
 13 14  1  0
 14 15  2  0
 15 16  1  0
 16 17  2  0
 17 18  1  0
 18 19  2  0
 19 20  1  0
 16 21  1  0
 20 21  2  0
 21 22  1  0
 15 23  1  0
 23 24  1  0
 24 25  2  0
 24 26  2  0
 24 27  1  0
 27 28  2  0
 28 29  1  0
 29 30  2  0
 30 31  1  0
 27 32  1  0
 31 32  2  0
 13 33  2  0
 23 33  1  0
  3 34  1  0
 10 34  2  0
M  END
