MAK-UNK-3e0761f8-10-acrylamide
     RDKit          3D

 32 36  0  0  0  0  0  0  0  0999 V2000
    7.5640   -2.8990   18.9240 C   0  0  0  0  0  0  0  0  0  0  0  0
    6.0660   -2.6850   19.1740 C   0  0  0  0  0  0  0  0  0  0  0  0
    5.5210   -3.5920   20.2420 C   0  0  0  0  0  0  0  0  0  0  0  0
    5.1460   -4.7090   19.9120 O   0  0  0  0  0  0  0  0  0  0  0  0
    5.4700   -3.1540   21.5240 N   0  0  0  0  0  0  0  0  0  0  0  0
    5.4280   -1.7430   21.8730 C   0  0  0  0  0  0  0  0  0  0  0  0
    5.8390   -1.6930   23.3890 C   0  0  1  0  0  0  0  0  0  0  0  0
    4.5200   -2.5330   23.4040 C   0  0  0  0  0  0  0  0  0  0  0  0
    5.0780   -3.8010   22.7550 C   0  0  2  0  0  0  0  0  0  0  0  0
    6.2920   -3.9630   23.6680 C   0  0  0  0  0  0  0  0  0  0  0  0
    6.0450   -2.7350   24.4260 N   0  0  0  0  0  0  0  0  0  0  0  0
    7.0070   -2.3520   25.4130 C   0  0  0  0  0  0  0  0  0  0  0  0
    7.1390   -0.8880   25.4270 C   0  0  0  0  0  0  0  0  0  0  0  0
    6.1170   -0.2450   25.9670 C   0  0  0  0  0  0  0  0  0  0  0  0
    6.0790    1.1800   26.0470 C   0  0  0  0  0  0  0  0  0  0  0  0
    7.0830    1.9050   25.5730 C   0  0  0  0  0  0  0  0  0  0  0  0
    8.2270    1.2180   24.9750 C   0  0  0  0  0  0  0  0  0  0  0  0
    9.3170    1.9110   24.4610 C   0  0  0  0  0  0  0  0  0  0  0  0
   10.3760    1.2100   23.9130 C   0  0  0  0  0  0  0  0  0  0  0  0
   11.4620    1.8960   23.4130 C   0  0  0  0  0  0  0  0  0  0  0  0
   11.1250    3.0620   23.5850 O   0  0  0  0  0  0  0  0  0  0  0  0
   12.4890    1.9660   22.9470 N   0  0  0  0  0  0  0  0  0  0  0  0
   13.2180    0.7300   22.8650 C   0  0  0  0  0  0  0  0  0  0  0  0
   10.3350   -0.1730   23.8750 C   0  0  0  0  0  0  0  0  0  0  0  0
   11.2780   -1.0240   23.3860 N   0  0  0  0  0  0  0  0  0  0  0  0
   11.1830   -1.8040   22.1450 C   0  0  0  0  0  0  0  0  0  0  0  0
   12.5680   -2.3150   21.7160 C   0  0  0  0  0  0  0  0  0  0  0  0
   13.5590   -1.9610   22.5770 O   0  0  0  0  0  0  0  0  0  0  0  0
   13.2930   -2.3000   23.9440 C   0  0  0  0  0  0  0  0  0  0  0  0
   12.0260   -1.6620   24.4830 C   0  0  0  0  0  0  0  0  0  0  0  0
    9.2670   -0.8320   24.3670 N   0  0  0  0  0  0  0  0  0  0  0  0
    8.2380   -0.1880   24.9100 C   0  0  0  0  0  0  0  0  0  0  0  0
  1  2  1  0
  2  3  1  0
  3  4  2  0
  3  5  1  0
  5  6  1  0
  7  6  1  6
  7  8  1  0
  5  9  1  0
  8  9  1  0
  9 10  1  1
  7 11  1  0
 10 11  1  0
 11 12  1  0
 12 13  1  0
 13 14  2  0
 14 15  1  0
 15 16  2  0
 16 17  1  0
 17 18  1  0
 18 19  2  0
 19 20  1  0
 20 21  2  0
 20 22  1  0
 22 23  1  0
 19 24  1  0
 24 25  1  0
 25 26  1  0
 26 27  1  0
 27 28  1  0
 28 29  1  0
 25 30  1  0
 29 30  1  0
 24 31  2  0
 13 32  1  0
 17 32  2  0
 31 32  1  0
M  END
