MAK-UNK-f2409524-4
     RDKit          3D

 26 28  0  0  0  0  0  0  0  0999 V2000
    2.3920    1.7750   24.4780 O   0  0  0  0  0  0  0  0  0  0  0  0
    2.5950    2.5510   23.5490 C   0  0  0  0  0  0  0  0  0  0  0  0
    3.9180    2.8380   23.0440 N   0  0  0  0  0  0  0  0  0  0  0  0
    5.0290    1.8820   22.9220 C   0  0  0  0  0  0  0  0  0  0  0  0
    4.5230    0.6040   22.2350 C   0  0  0  0  0  0  0  0  0  0  0  0
    5.2330    0.3940   20.9000 C   0  0  2  0  0  0  0  0  0  0  0  0
    4.3400    0.6780   19.9120 O   0  0  0  0  0  0  0  0  0  0  0  0
    5.0750    0.6850   18.7730 C   0  0  0  0  0  0  0  0  0  0  0  0
    5.7840   -0.4800   18.5480 C   0  0  1  0  0  0  0  0  0  0  0  0
    6.6470   -0.2960   17.5220 C   0  0  0  0  0  0  0  0  0  0  0  0
    7.4630   -1.3260   17.0320 C   0  0  0  0  0  0  0  0  0  0  0  0
    8.3730   -1.2640   16.0320 N   0  0  0  0  0  0  0  0  0  0  0  0
    8.5320   -0.0360   15.4050 C   0  0  0  0  0  0  0  0  0  0  0  0
    7.7200    1.0480   15.8630 N   0  0  0  0  0  0  0  0  0  0  0  0
    6.8210    0.8820   16.8760 C   0  0  0  0  0  0  0  0  0  0  0  0
    6.4850   -0.9040   19.6890 C   0  0  1  0  0  0  0  0  0  0  0  0
    7.4620   -0.1820   19.8530 O   0  0  0  0  0  0  0  0  0  0  0  0
    5.7110   -0.8520   20.8260 C   0  0  1  0  0  0  0  0  0  0  0  0
    6.3730   -1.1170   21.8200 O   0  0  0  0  0  0  0  0  0  0  0  0
    1.6420    3.2640   22.8350 N   0  0  0  0  0  0  0  0  0  0  0  0
    0.5470    3.8170   23.3930 C   0  0  0  0  0  0  0  0  0  0  0  0
    0.5250    4.2200   24.7230 C   0  0  0  0  0  0  0  0  0  0  0  0
   -0.6380    4.9940   24.9730 C   0  0  0  0  0  0  0  0  0  0  0  0
   -1.8080    4.4350   24.4490 C   0  0  0  0  0  0  0  0  0  0  0  0
   -1.6890    3.2040   23.8190 C   0  0  0  0  0  0  0  0  0  0  0  0
   -0.5090    2.9440   23.1350 C   0  0  0  0  0  0  0  0  0  0  0  0
  1  2  2  0
  2  3  1  0
  3  4  1  0
  4  5  1  0
  6  5  1  1
  6  7  1  0
  7  8  1  0
  8  9  1  0
  9 10  1  6
 10 11  2  0
 11 12  1  0
 12 13  2  0
 13 14  1  0
 10 15  1  0
 14 15  2  0
  9 16  1  0
 16 17  1  1
  6 18  1  0
 16 18  1  0
 18 19  1  1
  2 20  1  0
 20 21  1  0
 21 22  1  0
 22 23  1  0
 23 24  1  0
 24 25  1  0
 21 26  1  0
 25 26  1  0
M  END
