MAK-UNK-5d2caa6f-2-vinylsulfonamide
     RDKit          3D

 32 36  0  0  0  0  0  0  0  0999 V2000
    7.3930   -3.1770   19.3340 C   0  0  0  0  0  0  0  0  0  0  0  0
    6.0090   -2.5110   19.3810 C   0  0  0  0  0  0  0  0  0  0  0  0
    5.5710   -2.1690   21.0640 S   0  0  0  0  0  0  0  0  0  0  0  0
    4.8760   -3.3530   21.5910 O   0  0  0  0  0  0  0  0  0  0  0  0
    4.8630   -0.9170   21.0300 O   0  0  0  0  0  0  0  0  0  0  0  0
    7.0310   -1.8480   21.8940 N   0  0  0  0  0  0  0  0  0  0  0  0
    7.5060   -2.6210   23.0590 C   0  0  0  0  0  0  0  0  0  0  0  0
    9.0140   -2.2040   23.0870 C   0  0  1  0  0  0  0  0  0  0  0  0
    9.7430   -3.2320   24.0110 C   0  0  0  0  0  0  0  0  0  0  0  0
    8.5320   -3.8950   24.1140 C   0  0  0  0  0  0  0  0  0  0  0  0
    8.2160   -2.6670   23.1530 C   0  0  0  0  0  0  0  0  0  0  0  0
    9.6040   -1.7180   22.8950 C   0  0  0  0  0  0  0  0  0  0  0  0
   11.1090   -1.9450   23.5040 C   0  0  0  0  0  0  0  0  0  0  0  0
   12.5130   -0.9800   23.2360 Cl  0  0  0  0  0  0  0  0  0  0  0  0
   11.0130   -3.1480   24.3280 C   0  0  0  0  0  0  0  0  0  0  0  0
    9.2300   -2.2150   21.5240 C   0  0  0  0  0  0  0  0  0  0  0  0
    8.1630   -1.1490   21.2290 C   0  0  2  0  0  0  0  0  0  0  0  0
    8.6080   -0.0780   22.2130 C   0  0  0  0  0  0  0  0  0  0  0  0
    8.5220    1.4180   21.9980 C   0  0  0  0  0  0  0  0  0  0  0  0
    8.0130    1.9040   20.8370 O   0  0  0  0  0  0  0  0  0  0  0  0
    6.5870    1.9620   20.7390 C   0  0  0  0  0  0  0  0  0  0  0  0
    5.9860    3.0890   21.6220 C   0  0  0  0  0  0  0  0  0  0  0  0
    4.5540    3.3530   21.3920 N   0  0  0  0  0  0  0  0  0  0  0  0
    3.9970    2.7230   20.1810 C   0  0  0  0  0  0  0  0  0  0  0  0
    2.4770    2.7800   20.1810 C   0  0  0  0  0  0  0  0  0  0  0  0
    1.9570    3.8040   21.0270 O   0  0  0  0  0  0  0  0  0  0  0  0
    2.7610    5.0030   21.0220 C   0  0  0  0  0  0  0  0  0  0  0  0
    4.2080    4.7790   21.4570 C   0  0  0  0  0  0  0  0  0  0  0  0
    9.0070    2.1540   23.0810 C   0  0  0  0  0  0  0  0  0  0  0  0
    9.5220    1.5400   24.2450 C   0  0  0  0  0  0  0  0  0  0  0  0
    9.5810    0.1510   24.3870 C   0  0  0  0  0  0  0  0  0  0  0  0
    9.1210   -0.6770   23.3540 C   0  0  0  0  0  0  0  0  0  0  0  0
  1  2  1  0
  3  2  1  0
  3  4  2  0
  3  5  2  0
  3  6  1  0
  6  7  1  0
  7  8  1  0
  8  9  1  1
  9 10  2  0
 10 11  1  0
 11 12  2  0
 12 13  1  0
 13 14  1  0
  9 15  1  0
 13 15  2  0
  8 16  1  0
 17  6  1  1
 16 17  1  0
 17 18  1  0
 18 19  1  0
 19 20  1  0
 20 21  1  0
 21 22  1  0
 22 23  1  0
 23 24  1  0
 24 25  1  0
 25 26  1  0
 26 27  1  0
 23 28  1  0
 27 28  1  0
 19 29  2  0
 29 30  1  0
 30 31  2  0
  8 32  1  0
 18 32  2  0
 31 32  1  0
M  END
