MAK-UNK-51bb34f9-2-acrylamide
     RDKit          3D

 28 29  0  0  0  0  0  0  0  0999 V2000
    7.0930   -3.3470   19.3740 C   0  0  0  0  0  0  0  0  0  0  0  0
    5.7730   -2.8630   19.9540 C   0  0  0  0  0  0  0  0  0  0  0  0
    5.7550   -3.1550   21.4310 C   0  0  0  0  0  0  0  0  0  0  0  0
    4.7630   -3.6500   21.9780 O   0  0  0  0  0  0  0  0  0  0  0  0
    7.0060   -2.8670   22.1870 C   0  0  0  0  0  0  0  0  0  0  0  0
    7.5880   -2.5740   23.5990 C   0  0  0  0  0  0  0  0  0  0  0  0
    7.5400   -2.3570   25.0630 N   0  0  0  0  0  0  0  0  0  0  0  0
    8.9140   -2.2510   24.4880 C   0  0  0  0  0  0  0  0  0  0  0  0
    7.8550   -2.6630   23.7380 N   0  0  0  0  0  0  0  0  0  0  0  0
    7.6440   -4.1420   23.7500 C   0  0  0  0  0  0  0  0  0  0  0  0
    6.3040   -4.3310   24.4290 C   0  0  0  0  0  0  0  0  0  0  0  0
    9.3210   -2.4310   23.1280 C   0  0  0  0  0  0  0  0  0  0  0  0
    8.3710   -2.7480   21.9730 C   0  0  0  0  0  0  0  0  0  0  0  0
    7.7420   -2.5160   23.1880 N   0  0  0  0  0  0  0  0  0  0  0  0
    7.3200   -1.1270   23.3680 C   0  0  0  0  0  0  0  0  0  0  0  0
    6.0060   -0.8520   23.6640 O   0  0  0  0  0  0  0  0  0  0  0  0
    8.2940    0.0630   23.2580 C   0  0  1  0  0  0  0  0  0  0  0  0
    9.3180   -0.1580   22.3110 C   0  0  0  0  0  0  0  0  0  0  0  0
    7.6950    1.2450   23.0120 N   0  0  0  0  0  0  0  0  0  0  0  0
    7.7590    2.0050   21.8660 C   0  0  0  0  0  0  0  0  0  0  0  0
    8.9860    2.2220   21.1870 O   0  0  0  0  0  0  0  0  0  0  0  0
    6.5540    2.4810   21.5160 N   0  0  0  0  0  0  0  0  0  0  0  0
    5.9770    1.9520   20.4100 C   0  0  0  0  0  0  0  0  0  0  0  0
    4.5150    2.3140   20.2030 C   0  0  0  0  0  0  0  0  0  0  0  0
    3.9830    1.6750   18.9490 C   0  0  0  0  0  0  0  0  0  0  0  0
    4.8930    0.8100   18.0930 C   0  0  0  0  0  0  0  0  0  0  0  0
    6.2480    0.5480   18.3870 N   0  0  0  0  0  0  0  0  0  0  0  0
    6.7020    1.1290   19.5240 C   0  0  0  0  0  0  0  0  0  0  0  0
  1  2  1  0
  2  3  1  0
  3  4  2  0
  3  5  1  0
  5  6  2  0
  6  7  1  0
  7  8  2  0
  8  9  1  0
  9 10  1  0
 10 11  1  0
  8 12  1  0
  5 13  1  0
 12 13  2  0
 13 14  1  0
 14 15  1  0
 15 16  2  0
 15 17  1  0
 17 18  1  6
 17 19  1  0
 19 20  1  0
 20 21  2  0
 20 22  1  0
 22 23  1  0
 23 24  2  0
 24 25  1  0
 25 26  2  0
 26 27  1  0
 23 28  1  0
 27 28  2  0
M  END
