MAK-UNK-3c359d2a-1-nitrile
     RDKit          3D

 24 26  0  0  0  0  0  0  0  0999 V2000
    6.7400   -3.3690   19.5290 C   0  0  0  0  0  0  0  0  0  0  0  0
    5.9240   -3.0900   18.5940 N   0  0  0  0  0  0  0  0  0  0  0  0
    6.7230   -2.6580   20.7120 N   0  0  0  0  0  0  0  0  0  0  0  0
    6.2570   -3.2200   21.9770 C   0  0  0  0  0  0  0  0  0  0  0  0
    7.4240   -3.3830   22.9550 C   0  0  0  0  0  0  0  0  0  0  0  0
    8.3090   -2.2160   23.0970 N   0  0  0  0  0  0  0  0  0  0  0  0
    9.4380   -2.3290   23.9010 C   0  0  0  0  0  0  0  0  0  0  0  0
   10.4940   -1.2560   23.6390 C   0  0  0  0  0  0  0  0  0  0  0  0
   11.8030   -1.7480   23.0210 C   0  0  0  0  0  0  0  0  0  0  0  0
   12.8930   -0.7400   22.7430 C   0  0  0  0  0  0  0  0  0  0  0  0
   12.6290    0.7180   23.0980 C   0  0  0  0  0  0  0  0  0  0  0  0
   11.2790    1.0510   23.7060 C   0  0  0  0  0  0  0  0  0  0  0  0
   10.9250    2.3260   24.0790 O   0  0  0  0  0  0  0  0  0  0  0  0
   10.6450    3.3380   23.0960 C   0  0  1  0  0  0  0  0  0  0  0  0
    9.1910    3.1800   22.6470 C   0  0  0  0  0  0  0  0  0  0  0  0
    8.3180    4.4300   22.7870 C   0  0  0  0  0  0  0  0  0  0  0  0
    8.8200    5.4670   23.5920 C   0  0  0  0  0  0  0  0  0  0  0  0
   10.3150    5.6830   23.5150 C   0  0  1  0  0  0  0  0  0  0  0  0
   10.6160    6.6570   24.5280 O   0  0  0  0  0  0  0  0  0  0  0  0
   11.9110    6.5420   25.1130 C   0  0  0  0  0  0  0  0  0  0  0  0
   11.0970    4.5490   23.6460 C   0  0  0  0  0  0  0  0  0  0  0  0
   10.2990    0.0870   23.9410 C   0  0  0  0  0  0  0  0  0  0  0  0
    8.6140   -1.5550   21.8060 C   0  0  0  0  0  0  0  0  0  0  0  0
    7.4510   -1.3800   20.8680 C   0  0  0  0  0  0  0  0  0  0  0  0
  1  2  2  3
  1  3  1  0
  3  4  1  0
  4  5  1  0
  5  6  1  0
  6  7  1  0
  7  8  1  0
  8  9  2  0
  9 10  1  0
 10 11  2  0
 11 12  1  0
 12 13  1  0
 14 13  1  1
 14 15  1  0
 15 16  1  0
 16 17  1  0
 17 18  1  0
 18 19  1  1
 19 20  1  0
 14 21  1  0
 18 21  1  0
  8 22  1  0
 12 22  2  0
  6 23  1  0
  3 24  1  0
 23 24  1  0
M  END
