MAK-UNK-acefcb18-12
     RDKit          3D

 12 13  0  0  0  0  0  0  0  0999 V2000
    9.0060   -4.7760   27.9580 C   0  0  0  0  0  0  0  0  0  0  0  0
    9.0190   -4.6990   26.4530 C   0  0  0  0  0  0  0  0  0  0  0  0
   10.4540   -4.6100   25.9200 C   0  0  0  0  0  0  0  0  0  0  0  0
   10.7900   -3.4130   25.0220 C   0  0  0  0  0  0  0  0  0  0  0  0
    9.9740   -2.3870   24.7570 N   0  0  0  0  0  0  0  0  0  0  0  0
   10.6360   -1.1850   24.6090 C   0  0  0  0  0  0  0  0  0  0  0  0
   11.3250   -1.8040   23.6480 C   0  0  0  0  0  0  0  0  0  0  0  0
   12.2540   -1.8930   22.6790 C   0  0  0  0  0  0  0  0  0  0  0  0
   12.8930   -0.3640   22.7250 S   0  0  0  0  0  0  0  0  0  0  0  0
   11.6810   -0.0520   24.0590 C   0  0  0  0  0  0  0  0  0  0  0  0
    8.6530   -2.5440   25.0790 C   0  0  0  0  0  0  0  0  0  0  0  0
    8.1290   -3.7590   25.8680 C   0  0  0  0  0  0  0  0  0  0  0  0
  1  2  1  0
  2  3  1  0
  3  4  1  0
  4  5  1  0
  5  6  1  0
  6  7  1  0
  7  8  2  0
  8  9  1  0
  6 10  2  0
  9 10  1  0
  5 11  1  0
  2 12  1  0
 11 12  1  0
M  END
