MAK-UNK-3e0761f8-1-nitrile
     RDKit          3D

 21 23  0  0  0  0  0  0  0  0999 V2000
    7.0090   -3.6840   20.1150 C   0  0  0  0  0  0  0  0  0  0  0  0
    5.7990   -3.9900   19.7590 N   0  0  0  0  0  0  0  0  0  0  0  0
    7.3240   -2.8240   21.1710 N   0  0  0  0  0  0  0  0  0  0  0  0
    8.1380   -3.0640   22.2420 C   0  0  0  0  0  0  0  0  0  0  0  0
    7.9230   -1.9180   23.2510 C   0  0  2  0  0  0  0  0  0  0  0  0
    6.5360   -1.6450   22.7390 C   0  0  0  0  0  0  0  0  0  0  0  0
    7.0850   -1.4880   21.3520 C   0  0  1  0  0  0  0  0  0  0  0  0
    8.2110   -0.6400   21.4940 C   0  0  0  0  0  0  0  0  0  0  0  0
    8.6790   -0.7780   22.8300 C   0  0  2  0  0  0  0  0  0  0  0  0
   10.1070   -0.7890   22.9700 C   0  0  0  0  0  0  0  0  0  0  0  0
   10.7360   -1.6070   22.2990 O   0  0  0  0  0  0  0  0  0  0  0  0
   10.7870    0.1800   23.8680 N   0  0  0  0  0  0  0  0  0  0  0  0
   10.6620    1.5320   23.6250 C   0  0  0  0  0  0  0  0  0  0  0  0
    9.6580    1.0420   24.3810 C   0  0  0  0  0  0  0  0  0  0  0  0
    9.9070   -0.3040   24.7180 C   0  0  0  0  0  0  0  0  0  0  0  0
   11.1350   -0.8900   24.2120 C   0  0  0  0  0  0  0  0  0  0  0  0
   11.5070   -2.2080   24.4890 C   0  0  0  0  0  0  0  0  0  0  0  0
   10.6080   -3.1810   24.1350 C   0  0  0  0  0  0  0  0  0  0  0  0
   12.5680   -2.5080   25.0240 O   0  0  0  0  0  0  0  0  0  0  0  0
   12.1000   -0.2030   23.3860 C   0  0  0  0  0  0  0  0  0  0  0  0
   11.8410    1.1200   23.0680 C   0  0  0  0  0  0  0  0  0  0  0  0
  1  2  2  3
  1  3  1  0
  3  4  1  0
  5  4  1  6
  5  6  1  0
  3  7  1  0
  6  7  1  0
  7  8  1  1
  5  9  1  0
  8  9  1  0
  9 10  1  6
 10 11  2  0
 10 12  1  0
 12 13  1  0
 13 14  2  0
 14 15  1  0
 15 16  2  0
 16 17  1  0
 17 18  1  0
 17 19  2  0
 16 20  1  0
 13 21  1  0
 20 21  2  0
M  END
