MAK-UNK-f2409524-7
     RDKit          3D

 26 29  0  0  0  0  0  0  0  0999 V2000
    2.6510    1.6820   24.4520 O   0  0  0  0  0  0  0  0  0  0  0  0
    2.7080    2.4780   23.5210 C   0  0  0  0  0  0  0  0  0  0  0  0
    3.8690    2.5480   22.6900 N   0  0  0  0  0  0  0  0  0  0  0  0
    4.7370    1.4110   22.4110 C   0  0  0  0  0  0  0  0  0  0  0  0
    4.4950    1.8940   21.0290 N   0  0  0  0  0  0  0  0  0  0  0  0
    5.0490    1.2680   20.0010 C   0  0  0  0  0  0  0  0  0  0  0  0
    4.9850    1.5350   18.5060 C   0  0  0  0  0  0  0  0  0  0  0  0
    5.7970    0.5340   17.7740 C   0  0  0  0  0  0  0  0  0  0  0  0
    6.4970   -0.4890   18.3730 C   0  0  0  0  0  0  0  0  0  0  0  0
    6.4770   -0.6280   19.7420 C   0  0  0  0  0  0  0  0  0  0  0  0
    5.7430    0.2710   20.5120 C   0  0  0  0  0  0  0  0  0  0  0  0
    5.5640    0.3550   21.8750 N   0  0  0  0  0  0  0  0  0  0  0  0
    6.2140   -0.5940   22.5910 C   0  0  0  0  0  0  0  0  0  0  0  0
    5.4090   -1.5650   23.4650 C   0  0  0  0  0  0  0  0  0  0  0  0
    4.1830   -1.3880   24.0170 C   0  0  0  0  0  0  0  0  0  0  0  0
    3.5500   -2.3480   24.7970 N   0  0  0  0  0  0  0  0  0  0  0  0
    4.2020   -3.5630   25.0270 C   0  0  0  0  0  0  0  0  0  0  0  0
    5.5030   -3.7760   24.4490 N   0  0  0  0  0  0  0  0  0  0  0  0
    6.0500   -2.7810   23.7010 C   0  0  0  0  0  0  0  0  0  0  0  0
    1.6890    3.3200   23.2220 N   0  0  0  0  0  0  0  0  0  0  0  0
    0.4680    3.3660   24.0110 C   0  0  0  0  0  0  0  0  0  0  0  0
   -0.6210    3.0550   23.1730 C   0  0  0  0  0  0  0  0  0  0  0  0
   -1.8500    3.3080   23.7710 C   0  0  0  0  0  0  0  0  0  0  0  0
   -1.9690    4.6210   24.2070 C   0  0  0  0  0  0  0  0  0  0  0  0
   -0.8830    5.0870   24.9530 C   0  0  0  0  0  0  0  0  0  0  0  0
    0.3870    4.6310   24.6090 C   0  0  0  0  0  0  0  0  0  0  0  0
  1  2  2  0
  2  3  1  0
  3  4  1  0
  4  5  2  0
  5  6  1  0
  6  7  2  0
  7  8  1  0
  8  9  2  0
  9 10  1  0
  6 11  1  0
 10 11  2  0
  4 12  1  0
 11 12  1  0
 12 13  1  0
 13 14  1  0
 14 15  2  0
 15 16  1  0
 16 17  2  0
 17 18  1  0
 14 19  1  0
 18 19  2  0
  2 20  1  0
 20 21  1  0
 21 22  1  0
 22 23  1  0
 23 24  1  0
 24 25  1  0
 21 26  1  0
 25 26  1  0
M  END
