MAK-UNK-8fdbca50-17-chloroacetamide
     RDKit          3D

 39 42  0  0  0  0  0  0  0  0999 V2000
    7.2880   -4.1270   20.5090 C   0  0  0  0  0  0  0  0  0  0  0  0
    5.8640   -3.7960   20.2180 C   0  0  0  0  0  0  0  0  0  0  0  0
    5.0940   -4.6790   19.9040 O   0  0  0  0  0  0  0  0  0  0  0  0
    5.4700   -2.5030   20.2920 N   0  0  0  0  0  0  0  0  0  0  0  0
    5.2560   -1.6220   19.1410 C   0  0  0  0  0  0  0  0  0  0  0  0
    6.5770   -0.8140   19.0570 C   0  0  0  0  0  0  0  0  0  0  0  0
    6.3320    0.2330   20.1780 C   0  0  0  0  0  0  0  0  0  0  0  0
    5.4480    1.2580   19.4660 C   0  0  0  0  0  0  0  0  0  0  0  0
    5.3930    1.3330   18.2350 O   0  0  0  0  0  0  0  0  0  0  0  0
    4.7090    2.1180   20.4120 N   0  0  0  0  0  0  0  0  0  0  0  0
    3.4160    2.7540   20.0130 C   0  0  0  0  0  0  0  0  0  0  0  0
    2.3490    1.7720   20.4900 C   0  0  0  0  0  0  0  0  0  0  0  0
    3.2720    3.2070   18.7160 C   0  0  0  0  0  0  0  0  0  0  0  0
    5.5960    2.7810   21.4230 C   0  0  2  0  0  0  0  0  0  0  0  0
    6.9440    2.5250   21.0580 C   0  0  0  0  0  0  0  0  0  0  0  0
    5.2700    2.3200   22.7130 C   0  0  0  0  0  0  0  0  0  0  0  0
    6.4900    1.9620   23.3570 C   0  0  0  0  0  0  0  0  0  0  0  0
    7.5400    2.8300   23.4410 C   0  0  0  0  0  0  0  0  0  0  0  0
    8.6420    2.3440   24.0520 C   0  0  0  0  0  0  0  0  0  0  0  0
    9.7170    3.2550   24.1050 C   0  0  0  0  0  0  0  0  0  0  0  0
    9.6730    4.3650   24.9720 C   0  0  0  0  0  0  0  0  0  0  0  0
   10.6990    5.3120   25.0210 C   0  0  0  0  0  0  0  0  0  0  0  0
   11.8010    5.1710   24.1940 C   0  0  0  0  0  0  0  0  0  0  0  0
   11.9230    4.0910   23.3070 C   0  0  0  0  0  0  0  0  0  0  0  0
   10.8100    3.0540   23.2550 C   0  0  0  0  0  0  0  0  0  0  0  0
   10.8680    2.0080   22.4380 F   0  0  0  0  0  0  0  0  0  0  0  0
    8.3100    1.0180   24.4290 N   0  0  0  0  0  0  0  0  0  0  0  0
    9.1340   -0.2660   25.2210 S   0  0  0  0  0  0  0  0  0  0  0  0
   10.0420    0.2580   26.1920 O   0  0  0  0  0  0  0  0  0  0  0  0
    8.0210   -1.0820   25.6770 O   0  0  0  0  0  0  0  0  0  0  0  0
    9.9620   -1.2510   23.9930 C   0  0  0  0  0  0  0  0  0  0  0  0
   11.0370   -1.7640   22.9470 C   0  0  0  0  0  0  0  0  0  0  0  0
   12.3940   -1.0390   22.6090 C   0  0  0  0  0  0  0  0  0  0  0  0
   12.7350    0.2650   23.3350 C   0  0  0  0  0  0  0  0  0  0  0  0
   11.8420    0.6880   24.2140 N   0  0  0  0  0  0  0  0  0  0  0  0
   10.9480   -0.3140   24.0500 C   0  0  0  0  0  0  0  0  0  0  0  0
    6.9770    0.8040   23.9980 C   0  0  0  0  0  0  0  0  0  0  0  0
    5.5310   -0.2850   21.3810 C   0  0  0  0  0  0  0  0  0  0  0  0
    5.6020   -1.8090   21.5580 C   0  0  0  0  0  0  0  0  0  0  0  0
  1  2  1  0
  2  3  2  0
  2  4  1  0
  4  5  1  0
  5  6  1  0
  6  7  1  0
  7  8  1  0
  8  9  2  0
  8 10  1  0
 10 11  1  0
 11 12  1  0
 11 13  1  0
 10 14  1  0
 14 15  1  6
 14 16  1  0
 16 17  1  0
 17 18  1  0
 18 19  2  0
 19 20  1  0
 20 21  2  0
 21 22  1  0
 22 23  2  0
 23 24  1  0
 20 25  1  0
 24 25  2  0
 25 26  1  0
 19 27  1  0
 27 28  1  0
 28 29  2  0
 28 30  2  0
 28 31  1  0
 31 32  2  0
 32 33  1  0
 33 34  2  0
 34 35  1  0
 31 36  1  0
 35 36  2  0
 17 37  2  0
 27 37  1  0
  7 38  1  0
  4 39  1  0
 38 39  1  0
M  END
