MAK-UNK-148caf23-3-chloroacetamide
     RDKit          3D

 35 38  0  0  0  0  0  0  0  0999 V2000
    8.6140   -3.7530   20.1040 C   0  0  0  0  0  0  0  0  0  0  0  0
    7.5500   -2.8920   20.2800 C   0  0  0  0  0  0  0  0  0  0  0  0
    6.5140   -3.0840   19.4010 O   0  0  0  0  0  0  0  0  0  0  0  0
    7.9040   -2.0630   21.5870 C   0  0  0  0  0  0  0  0  0  0  0  0
    6.8030   -1.3180   22.3740 C   0  0  0  0  0  0  0  0  0  0  0  0
    7.2760   -0.5670   23.6980 C   0  0  0  0  0  0  0  0  0  0  0  0
    8.7600   -0.6450   24.0800 C   0  0  0  0  0  0  0  0  0  0  0  0
    9.1590    0.0030   25.2570 N   0  0  0  0  0  0  0  0  0  0  0  0
    8.2040   -0.1170   26.3660 C   0  0  0  0  0  0  0  0  0  0  0  0
    8.9450   -0.3970   27.6940 C   0  0  0  0  0  0  0  0  0  0  0  0
    9.6670   -1.3130   23.3280 N   0  0  0  0  0  0  0  0  0  0  0  0
    9.2480   -1.9930   22.1210 C   0  0  0  0  0  0  0  0  0  0  0  0
   10.4150   -2.6010   21.5200 N   0  0  0  0  0  0  0  0  0  0  0  0
   11.4340   -1.6850   21.8920 C   0  0  0  0  0  0  0  0  0  0  0  0
   10.8210   -0.5080   22.1140 C   0  0  0  0  0  0  0  0  0  0  0  0
    9.5650   -0.0630   21.5960 C   0  0  0  0  0  0  0  0  0  0  0  0
    9.1340    1.1360   21.9460 C   0  0  0  0  0  0  0  0  0  0  0  0
    7.8760    1.8120   21.5580 C   0  0  0  0  0  0  0  0  0  0  0  0
    7.4960    3.0970   21.9960 C   0  0  0  0  0  0  0  0  0  0  0  0
    6.3200    3.7530   21.6610 C   0  0  0  0  0  0  0  0  0  0  0  0
    5.3780    3.1850   20.8300 C   0  0  0  0  0  0  0  0  0  0  0  0
    5.6380    1.8890   20.3100 C   0  0  0  0  0  0  0  0  0  0  0  0
    6.8100    1.1630   20.6100 C   0  0  0  0  0  0  0  0  0  0  0  0
    6.9800   -0.0530   20.0810 F   0  0  0  0  0  0  0  0  0  0  0  0
   10.1700    1.5420   22.7650 N   0  0  0  0  0  0  0  0  0  0  0  0
   10.3160    2.9330   23.6040 S   0  0  0  0  0  0  0  0  0  0  0  0
   11.2400    2.3490   24.4750 O   0  0  0  0  0  0  0  0  0  0  0  0
    9.0330    3.3860   24.0780 O   0  0  0  0  0  0  0  0  0  0  0  0
   11.1720    4.2850   22.8980 C   0  0  0  0  0  0  0  0  0  0  0  0
   10.5620    5.6890   23.0110 C   0  0  0  0  0  0  0  0  0  0  0  0
   11.3760    6.8210   22.4020 C   0  0  0  0  0  0  0  0  0  0  0  0
   12.6870    6.3940   21.7610 C   0  0  0  0  0  0  0  0  0  0  0  0
   13.1260    5.1080   21.7150 N   0  0  0  0  0  0  0  0  0  0  0  0
   12.3930    4.0940   22.2660 C   0  0  0  0  0  0  0  0  0  0  0  0
   11.1800    0.5880   22.8740 C   0  0  0  0  0  0  0  0  0  0  0  0
  1  2  1  0
  2  3  2  0
  2  4  1  0
  4  5  2  0
  5  6  1  0
  6  7  2  0
  7  8  1  0
  8  9  1  0
  9 10  1  0
  7 11  1  0
  4 12  1  0
 11 12  2  0
 12 13  1  0
 13 14  1  0
 14 15  1  0
 15 16  1  0
 16 17  2  0
 17 18  1  0
 18 19  2  0
 19 20  1  0
 20 21  2  0
 21 22  1  0
 18 23  1  0
 22 23  2  0
 23 24  1  0
 17 25  1  0
 25 26  1  0
 26 27  2  0
 26 28  2  0
 26 29  1  0
 29 30  2  0
 30 31  1  0
 31 32  2  0
 32 33  1  0
 29 34  1  0
 33 34  2  0
 15 35  2  0
 25 35  1  0
M  END
