MAK-UNK-10dfa458-2-nitrile
     RDKit          3D

 14 15  0  0  0  0  0  0  0  0999 V2000
    6.3900   -4.5410   20.3890 C   0  0  0  0  0  0  0  0  0  0  0  0
    5.2680   -4.3320   19.8540 N   0  0  0  0  0  0  0  0  0  0  0  0
    6.4930   -5.0730   21.6560 N   0  0  0  0  0  0  0  0  0  0  0  0
    5.6800   -6.2290   22.0790 C   0  0  0  0  0  0  0  0  0  0  0  0
    4.6550   -5.6000   23.0920 C   0  0  0  0  0  0  0  0  0  0  0  0
    5.4470   -5.1310   24.2640 N   0  0  0  0  0  0  0  0  0  0  0  0
    4.6680   -4.9820   25.5430 C   0  0  0  0  0  0  0  0  0  0  0  0
    3.6980   -3.7530   25.5700 C   0  0  0  0  0  0  0  0  0  0  0  0
    2.2600   -4.1690   25.2680 C   0  0  0  0  0  0  0  0  0  0  0  0
    1.4550   -2.8770   25.3430 C   0  0  0  0  0  0  0  0  0  0  0  0
    2.3780   -1.6830   25.6830 C   0  0  0  0  0  0  0  0  0  0  0  0
    4.0250   -2.1010   25.8830 S   0  0  0  0  0  0  0  0  0  0  0  0
    6.2330   -4.0840   23.9260 C   0  0  0  0  0  0  0  0  0  0  0  0
    7.2230   -4.4170   22.8040 C   0  0  0  0  0  0  0  0  0  0  0  0
  1  2  2  3
  1  3  1  0
  3  4  1  0
  4  5  1  0
  5  6  1  0
  6  7  1  0
  7  8  1  0
  8  9  2  0
  9 10  1  0
 10 11  2  0
  8 12  1  0
 11 12  1  0
  6 13  1  0
  3 14  1  0
 13 14  1  0
M  END
