MAK-UNK-148caf23-5-chloroacetamide
     RDKit          3D

 35 38  0  0  0  0  0  0  0  0999 V2000
    8.4290   -3.6140   20.3180 C   0  0  0  0  0  0  0  0  0  0  0  0
    8.0080   -2.1920   19.9580 C   0  0  0  0  0  0  0  0  0  0  0  0
    7.2690   -2.7800   18.8980 O   0  0  0  0  0  0  0  0  0  0  0  0
    8.9490   -1.7180   21.2740 C   0  0  0  0  0  0  0  0  0  0  0  0
   10.5710   -1.7310   21.6020 C   0  0  0  0  0  0  0  0  0  0  0  0
   11.0830   -1.1220   22.9970 C   0  0  0  0  0  0  0  0  0  0  0  0
    9.9580   -0.5990   23.8830 C   0  0  0  0  0  0  0  0  0  0  0  0
   10.2000   -0.0310   25.1400 N   0  0  0  0  0  0  0  0  0  0  0  0
    9.3980   -0.5650   26.2530 C   0  0  0  0  0  0  0  0  0  0  0  0
    8.7010    0.5180   27.1150 C   0  0  0  0  0  0  0  0  0  0  0  0
    8.6240   -0.6630   23.4790 C   0  0  0  0  0  0  0  0  0  0  0  0
    7.6560   -0.1580   24.3370 N   0  0  0  0  0  0  0  0  0  0  0  0
    7.2140   -0.6220   25.5950 C   0  0  0  0  0  0  0  0  0  0  0  0
    6.3550   -1.6340   25.5610 C   0  0  0  0  0  0  0  0  0  0  0  0
    6.1280   -2.5870   26.5750 C   0  0  0  0  0  0  0  0  0  0  0  0
    5.2180   -3.4600   26.2720 C   0  0  0  0  0  0  0  0  0  0  0  0
    4.8680   -4.5150   27.2410 C   0  0  0  0  0  0  0  0  0  0  0  0
    3.5670   -4.9770   27.5010 C   0  0  0  0  0  0  0  0  0  0  0  0
    3.2330   -5.9670   28.4170 C   0  0  0  0  0  0  0  0  0  0  0  0
    4.1800   -6.6050   29.1860 C   0  0  0  0  0  0  0  0  0  0  0  0
    5.5380   -6.2230   29.0230 C   0  0  0  0  0  0  0  0  0  0  0  0
    5.9550   -5.2290   28.1110 C   0  0  0  0  0  0  0  0  0  0  0  0
    7.2610   -4.9170   28.0090 F   0  0  0  0  0  0  0  0  0  0  0  0
    4.7440   -3.2030   25.0530 N   0  0  0  0  0  0  0  0  0  0  0  0
    3.5580   -3.9570   24.1270 S   0  0  0  0  0  0  0  0  0  0  0  0
    4.0600   -3.9770   22.7480 O   0  0  0  0  0  0  0  0  0  0  0  0
    2.3570   -3.2510   24.4830 O   0  0  0  0  0  0  0  0  0  0  0  0
    3.2470   -5.5900   24.6820 C   0  0  0  0  0  0  0  0  0  0  0  0
    2.0710   -5.8520   25.6340 C   0  0  0  0  0  0  0  0  0  0  0  0
    1.8540   -7.2950   26.0730 C   0  0  0  0  0  0  0  0  0  0  0  0
    2.8390   -8.3120   25.5080 C   0  0  0  0  0  0  0  0  0  0  0  0
    3.8480   -7.9530   24.6620 N   0  0  0  0  0  0  0  0  0  0  0  0
    4.0460   -6.6530   24.2660 C   0  0  0  0  0  0  0  0  0  0  0  0
    5.4380   -2.0640   24.5760 C   0  0  0  0  0  0  0  0  0  0  0  0
    8.1990   -1.1850   22.2720 C   0  0  0  0  0  0  0  0  0  0  0  0
  1  2  1  0
  2  3  2  0
  2  4  1  0
  4  5  2  0
  5  6  1  0
  6  7  2  0
  7  8  1  0
  8  9  1  0
  9 10  1  0
  7 11  1  0
 11 12  1  0
 12 13  1  0
 13 14  1  0
 14 15  1  0
 15 16  2  0
 16 17  1  0
 17 18  2  0
 18 19  1  0
 19 20  2  0
 20 21  1  0
 17 22  1  0
 21 22  2  0
 22 23  1  0
 16 24  1  0
 24 25  1  0
 25 26  2  0
 25 27  2  0
 25 28  1  0
 28 29  2  0
 29 30  1  0
 30 31  2  0
 31 32  1  0
 28 33  1  0
 32 33  2  0
 14 34  2  0
 24 34  1  0
  4 35  1  0
 11 35  2  0
M  END
