MAK-UNK-148caf23-4-chloroacetamide
     RDKit          3D

 35 38  0  0  0  0  0  0  0  0999 V2000
    8.4510   -3.8440   20.3280 C   0  0  0  0  0  0  0  0  0  0  0  0
    8.0300   -2.5670   20.0970 C   0  0  0  0  0  0  0  0  0  0  0  0
    7.1180   -2.5960   18.9950 O   0  0  0  0  0  0  0  0  0  0  0  0
    8.8000   -1.7370   21.3250 C   0  0  0  0  0  0  0  0  0  0  0  0
   10.2310   -1.5690   21.6420 C   0  0  0  0  0  0  0  0  0  0  0  0
   10.7870   -0.9130   22.7540 N   0  0  0  0  0  0  0  0  0  0  0  0
    9.9340   -0.3810   23.6600 C   0  0  0  0  0  0  0  0  0  0  0  0
   10.2430    0.2440   24.8560 N   0  0  0  0  0  0  0  0  0  0  0  0
    9.6350   -0.4460   26.0050 C   0  0  0  0  0  0  0  0  0  0  0  0
    8.9730    0.3910   27.0970 C   0  0  0  0  0  0  0  0  0  0  0  0
    8.5740   -0.4610   23.4350 C   0  0  0  0  0  0  0  0  0  0  0  0
    7.6570    0.1740   24.4370 N   0  0  0  0  0  0  0  0  0  0  0  0
    7.1160   -0.5830   25.5940 C   0  0  0  0  0  0  0  0  0  0  0  0
    6.0000   -1.5580   25.2420 C   0  0  0  0  0  0  0  0  0  0  0  0
    4.7280   -1.6100   26.0540 C   0  0  0  0  0  0  0  0  0  0  0  0
    3.9430   -2.5710   25.5090 C   0  0  0  0  0  0  0  0  0  0  0  0
    2.5670   -3.1440   25.8110 C   0  0  0  0  0  0  0  0  0  0  0  0
    2.6370   -4.5890   25.6770 C   0  0  0  0  0  0  0  0  0  0  0  0
    1.2740   -5.2610   25.9610 C   0  0  0  0  0  0  0  0  0  0  0  0
    0.1030   -4.3360   26.3290 C   0  0  0  0  0  0  0  0  0  0  0  0
    0.2160   -2.9130   26.4230 C   0  0  0  0  0  0  0  0  0  0  0  0
    1.4460   -2.3710   26.1610 C   0  0  0  0  0  0  0  0  0  0  0  0
    1.5690   -1.0400   26.2490 F   0  0  0  0  0  0  0  0  0  0  0  0
    4.6350   -3.1750   24.3540 N   0  0  0  0  0  0  0  0  0  0  0  0
    4.2280   -4.3920   23.2740 S   0  0  0  0  0  0  0  0  0  0  0  0
    4.3390   -3.7850   21.9720 O   0  0  0  0  0  0  0  0  0  0  0  0
    3.0170   -5.0820   23.6500 O   0  0  0  0  0  0  0  0  0  0  0  0
    5.5960   -5.4570   23.5160 C   0  0  0  0  0  0  0  0  0  0  0  0
    6.3880   -5.3070   24.6330 C   0  0  0  0  0  0  0  0  0  0  0  0
    7.5900   -6.2320   24.8330 C   0  0  0  0  0  0  0  0  0  0  0  0
    7.7810   -7.2580   23.7280 C   0  0  0  0  0  0  0  0  0  0  0  0
    6.9570   -7.3340   22.6770 N   0  0  0  0  0  0  0  0  0  0  0  0
    5.8980   -6.4550   22.5830 C   0  0  0  0  0  0  0  0  0  0  0  0
    5.8610   -2.5330   24.2340 C   0  0  0  0  0  0  0  0  0  0  0  0
    8.0490   -1.1210   22.3030 C   0  0  0  0  0  0  0  0  0  0  0  0
  1  2  1  0
  2  3  2  0
  2  4  1  0
  4  5  2  0
  5  6  1  0
  6  7  2  0
  7  8  1  0
  8  9  1  0
  9 10  1  0
  7 11  1  0
 11 12  1  0
 12 13  1  0
 13 14  1  0
 14 15  1  0
 15 16  2  0
 16 17  1  0
 17 18  2  0
 18 19  1  0
 19 20  2  0
 20 21  1  0
 17 22  1  0
 21 22  2  0
 22 23  1  0
 16 24  1  0
 24 25  1  0
 25 26  2  0
 25 27  2  0
 25 28  1  0
 28 29  2  0
 29 30  1  0
 30 31  2  0
 31 32  1  0
 28 33  1  0
 32 33  2  0
 14 34  2  0
 24 34  1  0
  4 35  1  0
 11 35  2  0
M  END
