MAK-UNK-e4a48a85-23-acrylamide
     RDKit          3D

 24 26  0  0  0  0  0  0  0  0999 V2000
    7.8990   -3.2410   19.1700 C   0  0  0  0  0  0  0  0  0  0  0  0
    6.7170   -2.3270   18.9280 C   0  0  0  0  0  0  0  0  0  0  0  0
    5.7760   -2.5370   20.0580 C   0  0  0  0  0  0  0  0  0  0  0  0
    4.7840   -3.1970   19.8870 O   0  0  0  0  0  0  0  0  0  0  0  0
    6.1270   -1.9990   21.2650 N   0  0  0  0  0  0  0  0  0  0  0  0
    6.0280   -2.7330   22.5400 C   0  0  0  0  0  0  0  0  0  0  0  0
    7.4760   -3.1700   22.8890 C   0  0  0  0  0  0  0  0  0  0  0  0
    8.3710   -1.9660   22.9600 N   0  0  0  0  0  0  0  0  0  0  0  0
    9.5810   -2.1820   23.7500 C   0  0  0  0  0  0  0  0  0  0  0  0
   10.5830   -0.9900   23.4610 C   0  0  0  0  0  0  0  0  0  0  0  0
   11.8080   -1.2340   22.8480 N   0  0  0  0  0  0  0  0  0  0  0  0
   12.5810   -0.2150   22.6180 C   0  0  0  0  0  0  0  0  0  0  0  0
   12.2370    1.2590   22.9740 C   0  0  0  0  0  0  0  0  0  0  0  0
   13.1560    2.4710   22.7180 C   0  0  0  0  0  0  0  0  0  0  0  0
   14.4500    2.2250   21.9880 C   0  0  0  0  0  0  0  0  0  0  0  0
   15.1320    3.5960   21.9920 C   0  0  0  0  0  0  0  0  0  0  0  0
   14.2300    4.8650   22.7490 S   0  0  0  0  0  0  0  0  0  0  0  0
   12.9060    3.7990   23.1360 C   0  0  0  0  0  0  0  0  0  0  0  0
   10.8920    1.4810   23.6510 C   0  0  0  0  0  0  0  0  0  0  0  0
   10.4710    2.7670   24.0350 N   0  0  0  0  0  0  0  0  0  0  0  0
    9.1790    2.8450   24.4670 C   0  0  0  0  0  0  0  0  0  0  0  0
   10.0390    0.3330   23.9030 N   0  0  0  0  0  0  0  0  0  0  0  0
    8.4130   -1.2420   21.6950 C   0  0  0  0  0  0  0  0  0  0  0  0
    7.0190   -0.8500   21.2700 C   0  0  0  0  0  0  0  0  0  0  0  0
  1  2  1  0
  2  3  1  0
  3  4  2  0
  3  5  1  0
  5  6  1  0
  6  7  1  0
  7  8  1  0
  8  9  1  0
  9 10  1  0
 10 11  2  0
 11 12  1  0
 12 13  2  0
 13 14  1  0
 14 15  1  0
 15 16  2  0
 16 17  1  0
 14 18  2  0
 17 18  1  0
 13 19  1  0
 19 20  1  0
 20 21  1  0
 10 22  1  0
 19 22  2  0
  8 23  1  0
  5 24  1  0
 23 24  1  0
M  END
