MAK-UNK-10799360-10-nitrile
     RDKit          3D

 28 31  0  0  0  0  0  0  0  0999 V2000
    6.6090   -3.7080   19.9100 C   0  0  0  0  0  0  0  0  0  0  0  0
    5.7660   -4.6730   19.9490 N   0  0  0  0  0  0  0  0  0  0  0  0
    6.5810   -2.7140   20.8490 N   0  0  0  0  0  0  0  0  0  0  0  0
    7.3210   -1.4260   20.8640 C   0  0  0  0  0  0  0  0  0  0  0  0
    8.2450   -1.5730   22.1390 C   0  0  1  0  0  0  0  0  0  0  0  0
    6.7470   -1.4840   22.6490 C   0  0  0  0  0  0  0  0  0  0  0  0
    6.2470   -2.8670   22.2420 C   0  0  2  0  0  0  0  0  0  0  0  0
    7.3540   -3.5420   23.0210 C   0  0  0  0  0  0  0  0  0  0  0  0
    8.0850   -2.3230   23.4180 N   0  0  0  0  0  0  0  0  0  0  0  0
    9.3000   -2.5850   24.1680 C   0  0  0  0  0  0  0  0  0  0  0  0
   10.4170   -1.6260   23.8880 C   0  0  0  0  0  0  0  0  0  0  0  0
   11.3750   -1.9410   22.7850 C   0  0  0  0  0  0  0  0  0  0  0  0
   12.4150   -1.0880   22.4960 C   0  0  0  0  0  0  0  0  0  0  0  0
   13.4320   -1.5630   21.2230 Cl  0  0  0  0  0  0  0  0  0  0  0  0
   12.5730    0.0830   23.2340 C   0  0  0  0  0  0  0  0  0  0  0  0
   11.6760    0.3740   24.2630 C   0  0  0  0  0  0  0  0  0  0  0  0
   10.5880   -0.4450   24.6330 C   0  0  0  0  0  0  0  0  0  0  0  0
    9.7140   -0.1230   25.6910 C   0  0  0  0  0  0  0  0  0  0  0  0
    9.1020    1.2290   25.5380 N   0  0  0  0  0  0  0  0  0  0  0  0
    8.0150    1.6070   26.7970 S   0  0  0  0  0  0  0  0  0  0  0  0
    6.9620    0.6150   26.8080 O   0  0  0  0  0  0  0  0  0  0  0  0
    8.7780    1.8860   27.9950 O   0  0  0  0  0  0  0  0  0  0  0  0
    7.3650    3.0500   26.2440 N   0  0  0  0  0  0  0  0  0  0  0  0
    5.8990    2.9350   25.9180 C   0  0  0  0  0  0  0  0  0  0  0  0
    5.3480    4.2100   25.9630 C   0  0  0  0  0  0  0  0  0  0  0  0
    5.2810    4.6960   27.0940 O   0  0  0  0  0  0  0  0  0  0  0  0
    6.4700    4.5320   27.8970 C   0  0  0  0  0  0  0  0  0  0  0  0
    7.5990    4.2460   27.1180 C   0  0  0  0  0  0  0  0  0  0  0  0
  1  2  2  3
  1  3  1  0
  3  4  1  0
  5  4  1  6
  5  6  1  0
  3  7  1  0
  6  7  1  0
  7  8  1  1
  5  9  1  0
  8  9  1  0
  9 10  1  0
 10 11  1  0
 11 12  2  0
 12 13  1  0
 13 14  1  0
 13 15  2  0
 15 16  1  0
 11 17  1  0
 16 17  2  0
 17 18  1  0
 18 19  1  0
 20 19  1  0
 20 21  2  0
 20 22  2  0
 20 23  1  0
 23 24  1  0
 24 25  1  0
 25 26  1  0
 26 27  1  0
 23 28  1  0
 27 28  1  0
M  END
