MAK-UNK-8fdbca50-14-nitrile
     RDKit          3D

 38 41  0  0  0  0  0  0  0  0999 V2000
    7.4980   -3.5320   19.9140 C   0  0  0  0  0  0  0  0  0  0  0  0
    6.2330   -3.7320   19.6070 N   0  0  0  0  0  0  0  0  0  0  0  0
    7.8480   -2.6310   20.9520 N   0  0  0  0  0  0  0  0  0  0  0  0
    7.2400   -1.4240   21.2910 C   0  0  0  0  0  0  0  0  0  0  0  0
    8.2600   -0.3120   21.7560 C   0  0  0  0  0  0  0  0  0  0  0  0
    9.2880   -0.8440   22.8080 C   0  0  0  0  0  0  0  0  0  0  0  0
   10.7010   -0.2010   22.6030 C   0  0  0  0  0  0  0  0  0  0  0  0
   10.7880    0.9330   23.0220 O   0  0  0  0  0  0  0  0  0  0  0  0
   11.8680   -0.8180   22.0610 N   0  0  0  0  0  0  0  0  0  0  0  0
   12.2700   -1.9220   22.8100 C   0  0  0  0  0  0  0  0  0  0  0  0
   12.9900    0.0650   22.0970 C   0  0  1  0  0  0  0  0  0  0  0  0
   13.3700    0.3280   23.4100 C   0  0  0  0  0  0  0  0  0  0  0  0
   14.0160    0.6360   21.0620 C   0  0  0  0  0  0  0  0  0  0  0  0
   14.6440    1.9970   21.1550 C   0  0  0  0  0  0  0  0  0  0  0  0
   15.6070    2.5030   19.9540 C   0  0  0  0  0  0  0  0  0  0  0  0
   16.0250    1.5510   18.8170 C   0  0  0  0  0  0  0  0  0  0  0  0
   16.7860    1.5960   17.7860 F   0  0  0  0  0  0  0  0  0  0  0  0
   15.5260    0.2710   18.7940 C   0  0  0  0  0  0  0  0  0  0  0  0
   16.1910   -0.5370   17.6870 C   0  0  0  0  0  0  0  0  0  0  0  0
   16.1820   -1.8230   17.7470 C   0  0  0  0  0  0  0  0  0  0  0  0
   16.7770   -2.5290   16.8270 C   0  0  0  0  0  0  0  0  0  0  0  0
   16.8560   -3.8350   16.8110 C   0  0  0  0  0  0  0  0  0  0  0  0
   16.0320   -4.5620   16.0990 N   0  0  0  0  0  0  0  0  0  0  0  0
   16.2820   -5.8240   16.5870 C   0  0  0  0  0  0  0  0  0  0  0  0
   17.3110   -1.7610   15.9490 C   0  0  0  0  0  0  0  0  0  0  0  0
   16.9910   -0.4960   16.4800 N   0  0  0  0  0  0  0  0  0  0  0  0
   17.5280    0.8470   15.8730 S   0  0  0  0  0  0  0  0  0  0  0  0
   17.0550    1.4230   14.6570 O   0  0  0  0  0  0  0  0  0  0  0  0
   18.6050    0.9640   16.8070 O   0  0  0  0  0  0  0  0  0  0  0  0
   16.5970    0.8670   16.9970 C   0  0  0  0  0  0  0  0  0  0  0  0
   16.8260    1.0610   18.2470 C   0  0  0  0  0  0  0  0  0  0  0  0
   15.7870    0.8790   18.9360 C   0  0  0  0  0  0  0  0  0  0  0  0
   14.6820    0.4990   18.0390 C   0  0  0  0  0  0  0  0  0  0  0  0
   14.5700    0.3900   16.7910 N   0  0  0  0  0  0  0  0  0  0  0  0
   15.6320    0.5840   16.3530 C   0  0  0  0  0  0  0  0  0  0  0  0
   14.5690   -0.1140   19.7690 C   0  0  0  0  0  0  0  0  0  0  0  0
    9.3340   -2.3300   22.7300 C   0  0  0  0  0  0  0  0  0  0  0  0
    9.2510   -2.4820   21.3890 C   0  0  0  0  0  0  0  0  0  0  0  0
  1  2  2  3
  1  3  1  0
  3  4  1  0
  4  5  1  0
  5  6  1  0
  6  7  1  0
  7  8  2  0
  7  9  1  0
  9 10  1  0
  9 11  1  0
 11 12  1  1
 11 13  1  0
 13 14  2  0
 14 15  1  0
 15 16  2  0
 16 17  1  0
 16 18  1  0
 18 19  1  0
 19 20  2  0
 20 21  1  0
 21 22  1  0
 22 23  1  0
 23 24  1  0
 21 25  2  0
 19 26  1  0
 25 26  1  0
 26 27  1  0
 27 28  2  0
 27 29  2  0
 27 30  1  0
 30 31  2  0
 31 32  1  0
 32 33  2  0
 33 34  1  0
 30 35  1  0
 34 35  2  0
 13 36  1  0
 18 36  2  0
  6 37  1  0
  3 38  1  0
 37 38  1  0
M  END
