MAK-UNK-6ca90168-15-acrylamide
     RDKit          3D

 19 20  0  0  0  0  0  0  0  0999 V2000
    7.9070   -3.2760   19.1350 C   0  0  0  0  0  0  0  0  0  0  0  0
    6.7380   -2.3760   18.8930 C   0  0  0  0  0  0  0  0  0  0  0  0
    5.7860   -2.7180   19.9810 C   0  0  0  0  0  0  0  0  0  0  0  0
    4.9010   -3.5360   19.7300 O   0  0  0  0  0  0  0  0  0  0  0  0
    6.0270   -2.1590   21.2340 N   0  0  0  0  0  0  0  0  0  0  0  0
    7.0330   -1.0930   21.2880 C   0  0  0  0  0  0  0  0  0  0  0  0
    8.3600   -1.5380   21.6850 C   0  0  0  0  0  0  0  0  0  0  0  0
    8.3630   -2.3680   22.8920 N   0  0  0  0  0  0  0  0  0  0  0  0
    9.5690   -2.5040   23.6040 C   0  0  0  0  0  0  0  0  0  0  0  0
    9.7720   -3.5320   24.2510 O   0  0  0  0  0  0  0  0  0  0  0  0
   10.5230   -1.4590   23.5260 C   0  0  0  0  0  0  0  0  0  0  0  0
   11.7670   -1.9750   23.2090 C   0  0  0  0  0  0  0  0  0  0  0  0
   12.8220   -1.0060   23.0800 C   0  0  0  0  0  0  0  0  0  0  0  0
   12.4830    0.4850   23.2980 C   0  0  0  0  0  0  0  0  0  0  0  0
   11.1630    1.0030   23.6340 C   0  0  0  0  0  0  0  0  0  0  0  0
   10.7790    2.6530   23.8650 Cl  0  0  0  0  0  0  0  0  0  0  0  0
   10.1670   -0.1320   23.7390 C   0  0  0  0  0  0  0  0  0  0  0  0
    7.2880   -3.3650   23.0440 C   0  0  0  0  0  0  0  0  0  0  0  0
    5.9770   -3.0220   22.4340 C   0  0  0  0  0  0  0  0  0  0  0  0
  1  2  1  0
  2  3  1  0
  3  4  2  0
  3  5  1  0
  5  6  1  0
  6  7  1  0
  7  8  1  0
  8  9  1  0
  9 10  2  0
  9 11  1  0
 11 12  2  0
 12 13  1  0
 13 14  2  0
 14 15  1  0
 15 16  1  0
 11 17  1  0
 15 17  2  0
  8 18  1  0
  5 19  1  0
 18 19  1  0
M  END
