MAK-UNK-6435e6c2-5
     RDKit          3D

 19 20  0  0  0  0  0  0  0  0999 V2000
    7.1010   -2.9960   20.7080 C   0  0  0  0  0  0  0  0  0  0  0  0
    6.2670   -4.2030   20.6720 C   0  0  0  0  0  0  0  0  0  0  0  0
    5.3900   -4.4250   19.8420 O   0  0  0  0  0  0  0  0  0  0  0  0
    6.5990   -5.1520   21.7350 N   0  0  0  0  0  0  0  0  0  0  0  0
    5.5920   -6.1460   22.1070 C   0  0  0  0  0  0  0  0  0  0  0  0
    4.7750   -5.6280   23.2710 C   0  0  0  0  0  0  0  0  0  0  0  0
    5.4090   -5.0970   24.3450 N   0  0  0  0  0  0  0  0  0  0  0  0
    4.6160   -5.1500   25.8510 S   0  0  0  0  0  0  0  0  0  0  0  0
    3.7680   -6.3180   25.8890 O   0  0  0  0  0  0  0  0  0  0  0  0
    5.6520   -4.9310   26.8280 O   0  0  0  0  0  0  0  0  0  0  0  0
    3.5640   -3.7590   25.8100 C   0  0  0  0  0  0  0  0  0  0  0  0
    2.0640   -3.9250   25.4330 C   0  0  0  0  0  0  0  0  0  0  0  0
    1.1480   -2.6760   25.4140 C   0  0  0  0  0  0  0  0  0  0  0  0
    2.0620   -1.5180   25.8050 C   0  0  0  0  0  0  0  0  0  0  0  0
    3.3160   -1.1590   26.1510 C   0  0  0  0  0  0  0  0  0  0  0  0
    3.7380    0.0790   26.4400 F   0  0  0  0  0  0  0  0  0  0  0  0
    4.1740   -2.4390   26.1550 C   0  0  0  0  0  0  0  0  0  0  0  0
    6.3910   -4.0790   23.9340 C   0  0  0  0  0  0  0  0  0  0  0  0
    7.3360   -4.6230   22.8870 C   0  0  0  0  0  0  0  0  0  0  0  0
  1  2  1  0
  2  3  2  0
  2  4  1  0
  4  5  1  0
  5  6  1  0
  6  7  1  0
  7  8  1  0
  8  9  2  0
  8 10  2  0
  8 11  1  0
 11 12  2  0
 12 13  1  0
 13 14  2  0
 14 15  1  0
 15 16  1  0
 11 17  1  0
 15 17  2  0
  7 18  1  0
  4 19  1  0
 18 19  1  0
M  END
