MAK-UNK-ca11b4f7-3
     RDKit          3D

 12 12  0  0  0  0  0  0  0  0999 V2000
   10.4720   -0.7590   22.9190 C   0  0  0  0  0  0  0  0  0  0  0  0
    9.1060   -1.1390   22.3940 C   0  0  0  0  0  0  0  0  0  0  0  0
    8.5530   -2.2100   22.6270 O   0  0  0  0  0  0  0  0  0  0  0  0
    8.3940   -0.2520   21.5860 C   0  0  0  0  0  0  0  0  0  0  0  0
    8.9690    0.8170   21.3550 O   0  0  0  0  0  0  0  0  0  0  0  0
    7.0610   -0.7620   21.1690 N   0  0  0  0  0  0  0  0  0  0  0  0
    6.4270   -0.0430   20.0700 C   0  0  0  0  0  0  0  0  0  0  0  0
    5.2590    0.6580   20.3530 C   0  0  0  0  0  0  0  0  0  0  0  0
    4.6260    1.3850   19.2600 C   0  0  0  0  0  0  0  0  0  0  0  0
    5.2540    1.3360   17.9410 C   0  0  0  0  0  0  0  0  0  0  0  0
    6.3960    0.6330   17.7060 N   0  0  0  0  0  0  0  0  0  0  0  0
    6.9340   -0.0330   18.7870 C   0  0  0  0  0  0  0  0  0  0  0  0
  1  2  1  0
  2  3  2  0
  2  4  1  0
  4  5  2  0
  4  6  1  0
  6  7  1  0
  7  8  2  0
  8  9  1  0
  9 10  2  0
 10 11  1  0
  7 12  1  0
 11 12  2  0
M  END
