MAK-UNK-212f693e-10-chloroacetamide
     RDKit          3D

 15 16  0  0  0  0  0  0  0  0999 V2000
    7.1630   -3.3780   19.8560 C   0  0  0  0  0  0  0  0  0  0  0  0
    6.2440   -4.3930   20.5240 C   0  0  0  0  0  0  0  0  0  0  0  0
    5.2290   -4.7060   19.9170 O   0  0  0  0  0  0  0  0  0  0  0  0
    6.4810   -4.9920   21.7570 N   0  0  0  0  0  0  0  0  0  0  0  0
    5.7270   -6.1730   22.1360 C   0  0  0  0  0  0  0  0  0  0  0  0
    4.6790   -5.8120   23.1850 C   0  0  0  0  0  0  0  0  0  0  0  0
    5.2000   -4.7020   24.0500 C   0  0  0  0  0  0  0  0  0  0  0  0
    4.7210   -4.6730   25.2000 O   0  0  0  0  0  0  0  0  0  0  0  0
    3.6530   -3.8360   25.3980 C   0  0  0  0  0  0  0  0  0  0  0  0
    3.7150   -2.4930   25.7410 C   0  0  0  0  0  0  0  0  0  0  0  0
    2.5520   -1.7460   25.9140 C   0  0  0  0  0  0  0  0  0  0  0  0
    1.1560   -2.7030   25.6510 S   0  0  0  0  0  0  0  0  0  0  0  0
    2.1430   -4.0730   25.3140 C   0  0  0  0  0  0  0  0  0  0  0  0
    6.6130   -4.6350   24.0660 C   0  0  0  0  0  0  0  0  0  0  0  0
    7.1880   -4.3940   22.7980 C   0  0  0  0  0  0  0  0  0  0  0  0
  1  2  1  0
  2  3  2  0
  2  4  1  0
  4  5  1  0
  5  6  1  0
  6  7  1  0
  7  8  1  0
  8  9  1  0
  9 10  1  0
 10 11  2  0
 11 12  1  0
  9 13  2  0
 12 13  1  0
  7 14  1  0
  4 15  1  0
 14 15  1  0
M  END
