MAK-UNK-72659d64-17-nitrile
     RDKit          3D

 21 21  0  0  0  0  0  0  0  0999 V2000
    6.8840   -4.0300   20.0950 C   0  0  0  0  0  0  0  0  0  0  0  0
    5.7310   -3.8380   19.5820 N   0  0  0  0  0  0  0  0  0  0  0  0
    7.0610   -4.7420   21.2540 N   0  0  0  0  0  0  0  0  0  0  0  0
    6.6960   -4.3200   22.4790 C   0  0  0  0  0  0  0  0  0  0  0  0
    5.8900   -5.3730   22.0470 N   0  0  0  0  0  0  0  0  0  0  0  0
    4.8170   -6.2150   22.3400 C   0  0  0  0  0  0  0  0  0  0  0  0
    3.6270   -6.9240   23.0120 C   0  0  0  0  0  0  0  0  0  0  0  0
    2.5890   -7.5620   23.5790 N   0  0  0  0  0  0  0  0  0  0  0  0
    4.4980   -5.7780   23.5240 N   0  0  0  0  0  0  0  0  0  0  0  0
    5.0450   -4.8410   24.1850 C   0  0  0  0  0  0  0  0  0  0  0  0
    4.4730   -4.6060   25.4540 N   0  0  0  0  0  0  0  0  0  0  0  0
    3.3200   -5.2390   25.9120 C   0  0  0  0  0  0  0  0  0  0  0  0
    2.3820   -5.5680   25.2030 O   0  0  0  0  0  0  0  0  0  0  0  0
    3.3170   -5.4830   27.2880 C   0  0  0  0  0  0  0  0  0  0  0  0
    2.1990   -4.4180   28.1700 Cl  0  0  0  0  0  0  0  0  0  0  0  0
    6.1030   -4.0970   23.7410 C   0  0  0  0  0  0  0  0  0  0  0  0
    6.5630   -3.0840   24.6270 N   0  0  0  0  0  0  0  0  0  0  0  0
    7.7540   -2.4060   24.5770 C   0  0  0  0  0  0  0  0  0  0  0  0
    8.1340   -1.6780   23.6630 O   0  0  0  0  0  0  0  0  0  0  0  0
    8.5850   -2.5820   25.6640 C   0  0  0  0  0  0  0  0  0  0  0  0
    7.6960   -2.4520   27.2060 Cl  0  0  0  0  0  0  0  0  0  0  0  0
  1  2  2  3
  1  3  1  0
  3  4  1  0
  4  5  2  0
  5  6  1  0
  6  7  1  0
  7  8  3  0
  6  9  2  0
  9 10  1  0
 10 11  1  0
 11 12  1  0
 12 13  2  0
 12 14  1  0
 14 15  1  0
  4 16  1  0
 10 16  2  0
 16 17  1  0
 17 18  1  0
 18 19  2  0
 18 20  1  0
 20 21  1  0
M  END
