MAK-UNK-10799360-7-chloroacetamide
     RDKit          3D

 26 29  0  0  0  0  0  0  0  0999 V2000
    7.8770   -3.9260   20.4940 C   0  0  0  0  0  0  0  0  0  0  0  0
    7.0480   -2.6500   20.0400 C   0  0  0  0  0  0  0  0  0  0  0  0
    6.2510   -3.3450   19.3500 O   0  0  0  0  0  0  0  0  0  0  0  0
    8.0440   -2.0190   20.8720 N   0  0  0  0  0  0  0  0  0  0  0  0
    7.9470   -0.6460   21.5110 C   0  0  0  0  0  0  0  0  0  0  0  0
    8.8770   -0.7250   22.7830 C   0  0  2  0  0  0  0  0  0  0  0  0
   10.0460   -1.3880   22.0910 C   0  0  0  0  0  0  0  0  0  0  0  0
    9.2020   -2.6060   21.6780 C   0  0  1  0  0  0  0  0  0  0  0  0
    8.7570   -3.1270   23.0700 C   0  0  0  0  0  0  0  0  0  0  0  0
    8.6420   -1.8370   23.8750 C   0  0  2  0  0  0  0  0  0  0  0  0
    7.5120   -1.7010   24.9170 C   0  0  0  0  0  0  0  0  0  0  0  0
    6.3260   -0.8760   24.5490 N   0  0  0  0  0  0  0  0  0  0  0  0
    6.3460   -0.5500   23.1460 C   0  0  0  0  0  0  0  0  0  0  0  0
    6.1530   -1.7000   22.3660 C   0  0  0  0  0  0  0  0  0  0  0  0
    5.5420   -2.8300   22.9610 C   0  0  0  0  0  0  0  0  0  0  0  0
    5.5050   -4.0120   22.2170 C   0  0  0  0  0  0  0  0  0  0  0  0
    4.9330   -5.1790   22.6930 C   0  0  0  0  0  0  0  0  0  0  0  0
    4.9630   -6.3090   21.9320 C   0  0  0  0  0  0  0  0  0  0  0  0
    4.2790   -5.2330   24.0370 C   0  0  0  0  0  0  0  0  0  0  0  0
    3.4910   -6.7120   24.6360 S   0  0  0  0  0  0  0  0  0  0  0  0
    2.5850   -7.2650   23.3280 N   0  0  0  0  0  0  0  0  0  0  0  0
    2.5770   -6.3250   25.6970 O   0  0  0  0  0  0  0  0  0  0  0  0
    4.4860   -7.7270   24.8270 O   0  0  0  0  0  0  0  0  0  0  0  0
    4.3650   -3.9290   24.8020 C   0  0  0  0  0  0  0  0  0  0  0  0
    4.9860   -2.7860   24.2760 C   0  0  0  0  0  0  0  0  0  0  0  0
    5.1190   -1.5830   24.9490 C   0  0  0  0  0  0  0  0  0  0  0  0
  1  2  1  0
  2  3  2  0
  2  4  1  0
  4  5  1  0
  6  5  1  6
  6  7  1  0
  4  8  1  0
  7  8  1  0
  8  9  1  1
  6 10  1  0
  9 10  1  0
 10 11  1  6
 11 12  1  0
 12 13  1  0
 13 14  1  0
 14 15  1  0
 15 16  2  0
 16 17  1  0
 17 18  1  0
 17 19  2  0
 19 20  1  0
 20 21  1  0
 20 22  2  0
 20 23  2  0
 19 24  1  0
 15 25  1  0
 24 25  2  0
 12 26  1  0
 25 26  1  0
M  END
