MAK-UNK-d4768348-8-nitrile
     RDKit          3D

 17 18  0  0  0  0  0  0  0  0999 V2000
    6.3690   -4.4620   20.3370 C   0  0  0  0  0  0  0  0  0  0  0  0
    5.2350   -4.2350   19.8210 N   0  0  0  0  0  0  0  0  0  0  0  0
    6.5760   -5.1040   21.5280 N   0  0  0  0  0  0  0  0  0  0  0  0
    7.3470   -4.5400   22.6330 C   0  0  0  0  0  0  0  0  0  0  0  0
    6.4310   -4.1280   23.7870 C   0  0  0  0  0  0  0  0  0  0  0  0
    5.4900   -5.1870   24.1750 N   0  0  0  0  0  0  0  0  0  0  0  0
    4.7560   -5.1210   25.7000 S   0  0  0  0  0  0  0  0  0  0  0  0
    5.7260   -4.5960   26.6290 O   0  0  0  0  0  0  0  0  0  0  0  0
    4.1220   -6.3980   25.9270 O   0  0  0  0  0  0  0  0  0  0  0  0
    3.4510   -3.9210   25.6220 C   0  0  0  0  0  0  0  0  0  0  0  0
    3.6710   -2.4260   25.8920 C   0  0  0  0  0  0  0  0  0  0  0  0
    2.6240   -1.4810   25.8570 C   0  0  0  0  0  0  0  0  0  0  0  0
    1.2530   -2.5950   25.4780 S   0  0  0  0  0  0  0  0  0  0  0  0
   -0.1420   -2.2800   25.3110 O   0  0  0  0  0  0  0  0  0  0  0  0
    1.9860   -4.1840   25.3310 C   0  0  0  0  0  0  0  0  0  0  0  0
    4.6500   -5.5550   23.0290 C   0  0  0  0  0  0  0  0  0  0  0  0
    5.6090   -6.1520   22.0030 C   0  0  0  0  0  0  0  0  0  0  0  0
  1  2  2  3
  1  3  1  0
  3  4  1  0
  4  5  1  0
  5  6  1  0
  6  7  1  0
  7  8  2  0
  7  9  2  0
  7 10  1  0
 10 11  2  0
 11 12  1  0
 12 13  1  0
 13 14  1  0
 10 15  1  0
 13 15  2  0
  6 16  1  0
  3 17  1  0
 16 17  1  0
M  END
