MAK-UNK-8fdbca50-33
     RDKit          3D

 40 43  0  0  0  0  0  0  0  0999 V2000
   13.6090   -4.2140   25.8950 C   0  0  0  0  0  0  0  0  0  0  0  0
   13.3090   -3.1540   24.9180 C   0  0  0  0  0  0  0  0  0  0  0  0
   13.9410   -2.0910   25.2420 C   0  0  0  0  0  0  0  0  0  0  0  0
   11.9640   -2.7490   24.7420 N   0  0  0  0  0  0  0  0  0  0  0  0
   11.9850   -1.3120   25.0180 C   0  0  0  0  0  0  0  0  0  0  0  0
   11.1900   -2.9510   23.6880 C   0  0  0  0  0  0  0  0  0  0  0  0
   10.5810   -4.0080   23.4890 O   0  0  0  0  0  0  0  0  0  0  0  0
   11.0260   -1.8420   22.7910 C   0  0  0  0  0  0  0  0  0  0  0  0
   12.2120   -0.9690   22.6050 C   0  0  0  0  0  0  0  0  0  0  0  0
   12.2550    0.3510   23.0980 C   0  0  0  0  0  0  0  0  0  0  0  0
   11.2110    0.9320   23.7820 N   0  0  0  0  0  0  0  0  0  0  0  0
   10.4860    1.9040   23.1640 C   0  0  0  0  0  0  0  0  0  0  0  0
    9.8780    1.6390   22.1490 O   0  0  0  0  0  0  0  0  0  0  0  0
   10.3270    3.2790   23.7880 C   0  0  2  0  0  0  0  0  0  0  0  0
    8.9010    4.1210   23.3160 Cl  0  0  0  0  0  0  0  0  0  0  0  0
   11.3310    4.2050   23.7440 N   0  0  0  0  0  0  0  0  0  0  0  0
   10.9820    5.5540   23.2260 C   0  0  0  0  0  0  0  0  0  0  0  0
   10.8470    6.6470   24.3110 C   0  0  0  0  0  0  0  0  0  0  0  0
   11.7730    6.7030   25.4790 C   0  0  0  0  0  0  0  0  0  0  0  0
   11.4380    7.7430   26.2590 C   0  0  0  0  0  0  0  0  0  0  0  0
   12.0990    8.1920   27.5640 C   0  0  0  0  0  0  0  0  0  0  0  0
   12.3180    7.2440   28.5650 C   0  0  0  0  0  0  0  0  0  0  0  0
   12.9250    7.5840   29.7720 C   0  0  0  0  0  0  0  0  0  0  0  0
   13.3210    8.8960   29.9940 C   0  0  0  0  0  0  0  0  0  0  0  0
   13.1130    9.8640   29.0190 C   0  0  0  0  0  0  0  0  0  0  0  0
   12.5060    9.5110   27.8130 C   0  0  0  0  0  0  0  0  0  0  0  0
   12.3310   10.4720   26.9060 F   0  0  0  0  0  0  0  0  0  0  0  0
   10.3820    8.4270   25.7780 N   0  0  0  0  0  0  0  0  0  0  0  0
    9.5540    9.8140   26.3710 S   0  0  0  0  0  0  0  0  0  0  0  0
    8.2870    9.9020   25.6740 O   0  0  0  0  0  0  0  0  0  0  0  0
    9.5970    9.7200   27.8150 O   0  0  0  0  0  0  0  0  0  0  0  0
   10.5300   11.2030   25.9120 C   0  0  0  0  0  0  0  0  0  0  0  0
   11.8560   11.0030   25.1960 C   0  0  0  0  0  0  0  0  0  0  0  0
   12.5830   12.1280   24.8600 C   0  0  0  0  0  0  0  0  0  0  0  0
   11.9850   13.4800   25.2410 C   0  0  0  0  0  0  0  0  0  0  0  0
   10.7960   13.6190   25.8810 N   0  0  0  0  0  0  0  0  0  0  0  0
   10.0980   12.4890   26.2030 C   0  0  0  0  0  0  0  0  0  0  0  0
    9.9950    7.7600   24.5600 C   0  0  0  0  0  0  0  0  0  0  0  0
   10.4210   -0.0600   24.4880 C   0  0  0  0  0  0  0  0  0  0  0  0
    9.8960   -1.0730   23.4720 C   0  0  0  0  0  0  0  0  0  0  0  0
  1  2  1  0
  2  3  1  0
  2  4  1  0
  4  5  1  0
  4  6  1  0
  6  7  2  0
  6  8  1  0
  8  9  1  0
  9 10  1  0
 10 11  1  0
 11 12  1  0
 12 13  2  0
 12 14  1  0
 14 15  1  6
 14 16  1  0
 16 17  1  0
 17 18  1  0
 18 19  1  0
 19 20  2  0
 20 21  1  0
 21 22  2  0
 22 23  1  0
 23 24  2  0
 24 25  1  0
 21 26  1  0
 25 26  2  0
 26 27  1  0
 20 28  1  0
 28 29  1  0
 29 30  2  0
 29 31  2  0
 29 32  1  0
 32 33  2  0
 33 34  1  0
 34 35  2  0
 35 36  1  0
 32 37  1  0
 36 37  2  0
 18 38  2  0
 28 38  1  0
 11 39  1  0
  8 40  1  0
 39 40  1  0
M  END
