MAK-UNK-148caf23-10-vinylsulfonamide
     RDKit          3D

 37 40  0  0  0  0  0  0  0  0999 V2000
    6.8050   -5.0130   20.3150 C   0  0  0  0  0  0  0  0  0  0  0  0
    6.8890   -4.3100   21.6450 C   0  0  0  0  0  0  0  0  0  0  0  0
    6.3280   -2.6760   21.4630 S   0  0  0  0  0  0  0  0  0  0  0  0
    4.8030   -3.1810   21.6410 O   0  0  0  0  0  0  0  0  0  0  0  0
    6.5800   -2.0580   20.1840 O   0  0  0  0  0  0  0  0  0  0  0  0
    7.8090   -1.9150   22.5070 C   0  0  0  0  0  0  0  0  0  0  0  0
    9.3580   -1.7100   22.4280 C   0  0  0  0  0  0  0  0  0  0  0  0
    8.6690   -1.1020   23.8670 C   0  0  0  0  0  0  0  0  0  0  0  0
   10.1280   -0.8460   23.8950 C   0  0  0  0  0  0  0  0  0  0  0  0
   10.0600   -0.2450   25.1640 N   0  0  0  0  0  0  0  0  0  0  0  0
    8.9440   -0.6840   26.0450 C   0  0  0  0  0  0  0  0  0  0  0  0
    8.9760   -0.0510   27.4310 C   0  0  2  0  0  0  0  0  0  0  0  0
    8.4940   -1.1890   28.2880 N   0  0  0  0  0  0  0  0  0  0  0  0
    7.4980   -2.0580   27.6240 C   0  0  0  0  0  0  0  0  0  0  0  0
    8.1840    1.0700   27.6560 C   0  0  0  0  0  0  0  0  0  0  0  0
    7.8980    1.4480   29.0390 C   0  0  0  0  0  0  0  0  0  0  0  0
    7.2230    2.4330   28.3910 C   0  0  0  0  0  0  0  0  0  0  0  0
    6.6330    3.2640   29.3520 C   0  0  0  0  0  0  0  0  0  0  0  0
    5.3410    3.4890   29.6560 C   0  0  0  0  0  0  0  0  0  0  0  0
    5.2350    4.4280   30.7320 C   0  0  0  0  0  0  0  0  0  0  0  0
    6.4050    5.0610   31.4170 C   0  0  0  0  0  0  0  0  0  0  0  0
    7.8120    4.8550   31.1360 C   0  0  0  0  0  0  0  0  0  0  0  0
    7.1580    4.0870   30.2780 C   0  0  0  0  0  0  0  0  0  0  0  0
    8.3790    3.7390   29.8470 F   0  0  0  0  0  0  0  0  0  0  0  0
    6.8970    2.9200   27.4410 N   0  0  0  0  0  0  0  0  0  0  0  0
    5.9700    4.2610   26.8900 S   0  0  0  0  0  0  0  0  0  0  0  0
    4.7880    4.3230   27.7190 O   0  0  0  0  0  0  0  0  0  0  0  0
    5.8450    4.0830   25.4590 O   0  0  0  0  0  0  0  0  0  0  0  0
    6.9160    5.7090   27.1930 C   0  0  0  0  0  0  0  0  0  0  0  0
    7.1050    6.2250   28.5120 C   0  0  0  0  0  0  0  0  0  0  0  0
    7.9070    7.4440   28.7230 C   0  0  0  0  0  0  0  0  0  0  0  0
    8.4700    8.0510   27.4570 C   0  0  0  0  0  0  0  0  0  0  0  0
    8.2660    7.5300   26.2210 N   0  0  0  0  0  0  0  0  0  0  0  0
    7.5030    6.3840   26.1180 C   0  0  0  0  0  0  0  0  0  0  0  0
    7.6010    1.9260   26.6660 C   0  0  0  0  0  0  0  0  0  0  0  0
    9.3610   -1.3890   23.0340 N   0  0  0  0  0  0  0  0  0  0  0  0
    7.9880   -1.3080   23.6410 C   0  0  0  0  0  0  0  0  0  0  0  0
  1  2  1  0
  3  2  1  0
  3  4  2  0
  3  5  2  0
  3  6  1  0
  6  7  2  0
  7  8  1  0
  8  9  2  0
  9 10  1  0
 10 11  1  0
 12 11  1  6
 12 13  1  0
 13 14  1  0
 12 15  1  0
 15 16  1  0
 16 17  2  0
 17 18  1  0
 18 19  2  0
 19 20  1  0
 20 21  2  0
 21 22  1  0
 18 23  1  0
 22 23  2  0
 23 24  1  0
 17 25  1  0
 25 26  1  0
 26 27  2  0
 26 28  2  0
 26 29  1  0
 29 30  2  0
 30 31  1  0
 31 32  2  0
 32 33  1  0
 29 34  1  0
 33 34  2  0
 15 35  2  0
 25 35  1  0
  9 36  1  0
  6 37  1  0
 36 37  2  0
M  END
