MAK-UNK-10dfa458-15-nitrile
     RDKit          3D

 32 35  0  0  0  0  0  0  0  0999 V2000
    6.4020   -4.4820   20.3710 C   0  0  0  0  0  0  0  0  0  0  0  0
    5.2760   -4.2380   19.8240 N   0  0  0  0  0  0  0  0  0  0  0  0
    6.5140   -5.0920   21.6010 N   0  0  0  0  0  0  0  0  0  0  0  0
    7.2890   -4.5760   22.7590 C   0  0  0  0  0  0  0  0  0  0  0  0
    6.2000   -3.9800   23.7370 C   0  0  0  0  0  0  0  0  0  0  0  0
    5.3680   -5.1110   24.2590 N   0  0  0  0  0  0  0  0  0  0  0  0
    4.6300   -4.9120   25.5570 C   0  0  0  0  0  0  0  0  0  0  0  0
    3.3750   -3.9560   25.5440 C   0  0  0  0  0  0  0  0  0  0  0  0
    3.8120   -2.5160   26.0240 C   0  0  0  0  0  0  0  0  0  0  0  0
    2.6330   -1.4500   26.0870 C   0  0  0  0  0  0  0  0  0  0  0  0
    1.2350   -1.9800   25.6790 C   0  0  0  0  0  0  0  0  0  0  0  0
   -0.0200   -1.1070   25.6910 C   0  0  0  0  0  0  0  0  0  0  0  0
   -1.1240   -1.8390   25.0890 N   0  0  0  0  0  0  0  0  0  0  0  0
   -2.2740   -1.1980   24.6570 C   0  0  0  0  0  0  0  0  0  0  0  0
   -2.7110   -0.1790   25.1860 O   0  0  0  0  0  0  0  0  0  0  0  0
   -2.9170   -1.8100   23.5510 C   0  0  0  0  0  0  0  0  0  0  0  0
   -3.5520   -0.7410   22.7480 N   0  0  0  0  0  0  0  0  0  0  0  0
   -3.5280   -1.0300   21.3050 C   0  0  0  0  0  0  0  0  0  0  0  0
   -3.7020    0.2190   20.6110 C   0  0  0  0  0  0  0  0  0  0  0  0
   -2.9520    1.3660   20.8810 C   0  0  0  0  0  0  0  0  0  0  0  0
   -3.3740    2.3740   20.0350 N   0  0  0  0  0  0  0  0  0  0  0  0
   -4.3860    1.8770   19.2220 C   0  0  0  0  0  0  0  0  0  0  0  0
   -5.1930    2.3850   18.1930 C   0  0  0  0  0  0  0  0  0  0  0  0
   -6.1560    1.6090   17.5480 C   0  0  0  0  0  0  0  0  0  0  0  0
   -6.3780    0.2790   17.8900 C   0  0  0  0  0  0  0  0  0  0  0  0
   -7.3050   -0.4690   17.2700 F   0  0  0  0  0  0  0  0  0  0  0  0
   -5.5760   -0.2340   18.9170 C   0  0  0  0  0  0  0  0  0  0  0  0
   -4.5920    0.5300   19.5870 C   0  0  0  0  0  0  0  0  0  0  0  0
    1.3080   -3.2710   25.3290 C   0  0  0  0  0  0  0  0  0  0  0  0
    2.0680   -4.2970   25.1910 C   0  0  0  0  0  0  0  0  0  0  0  0
    4.6440   -5.7260   23.1280 C   0  0  0  0  0  0  0  0  0  0  0  0
    5.5890   -6.1690   21.9810 C   0  0  0  0  0  0  0  0  0  0  0  0
  1  2  2  3
  1  3  1  0
  3  4  1  0
  4  5  1  0
  5  6  1  0
  6  7  1  0
  7  8  1  0
  8  9  2  0
  9 10  1  0
 10 11  2  0
 11 12  1  0
 12 13  1  0
 13 14  1  0
 14 15  2  0
 14 16  1  0
 16 17  1  0
 17 18  1  0
 18 19  1  0
 19 20  2  0
 20 21  1  0
 21 22  1  0
 22 23  1  0
 23 24  2  0
 24 25  1  0
 25 26  1  0
 25 27  2  0
 19 28  1  0
 22 28  2  0
 27 28  1  0
 11 29  1  0
  8 30  1  0
 29 30  2  0
  6 31  1  0
  3 32  1  0
 31 32  1  0
M  END
