MAK-UNK-516d8086-10-vinylsulfonamide
     RDKit          3D

 25 27  0  0  0  0  0  0  0  0999 V2000
    7.6990   -3.6250   20.0280 C   0  0  0  0  0  0  0  0  0  0  0  0
    7.3310   -3.0190   21.4130 C   0  0  0  0  0  0  0  0  0  0  0  0
    5.9070   -1.9560   21.2570 S   0  0  0  0  0  0  0  0  0  0  0  0
    4.7350   -2.9320   21.2080 O   0  0  0  0  0  0  0  0  0  0  0  0
    6.1540   -1.1580   20.0850 O   0  0  0  0  0  0  0  0  0  0  0  0
    5.5930   -0.6650   22.6560 C   0  0  0  0  0  0  0  0  0  0  0  0
    4.4240   -1.1630   23.2350 C   0  0  0  0  0  0  0  0  0  0  0  0
    5.2860   -0.9920   24.2730 N   0  0  0  0  0  0  0  0  0  0  0  0
    6.7190   -0.6270   24.1140 C   0  0  0  0  0  0  0  0  0  0  0  0
    7.6470   -1.1920   25.1250 N   0  0  0  0  0  0  0  0  0  0  0  0
    7.6740   -2.5410   25.2440 C   0  0  0  0  0  0  0  0  0  0  0  0
    6.3880   -3.0120   26.3760 Cl  0  0  0  0  0  0  0  0  0  0  0  0
    7.4450    0.3110   23.2380 C   0  0  0  0  0  0  0  0  0  0  0  0
    8.9510    0.8320   23.1480 C   0  0  0  0  0  0  0  0  0  0  0  0
    9.7660   -0.2880   23.8080 C   0  0  0  0  0  0  0  0  0  0  0  0
   10.5130   -0.8280   24.4560 C   0  0  0  0  0  0  0  0  0  0  0  0
   11.3730   -1.0730   25.2450 C   0  0  0  0  0  0  0  0  0  0  0  0
   11.6580   -2.2890   25.3930 C   0  0  0  0  0  0  0  0  0  0  0  0
   10.3360   -2.8990   24.1950 C   0  0  0  0  0  0  0  0  0  0  0  0
    9.6970   -1.5860   23.6380 C   0  0  0  0  0  0  0  0  0  0  0  0
   10.8530   -3.9610   24.6460 C   0  0  0  0  0  0  0  0  0  0  0  0
   11.4280   -4.9130   25.0410 O   0  0  0  0  0  0  0  0  0  0  0  0
   11.9500   -3.5170   24.3410 N   0  0  0  0  0  0  0  0  0  0  0  0
   11.9920   -3.5000   25.5810 C   0  0  0  0  0  0  0  0  0  0  0  0
    6.2420    0.6610   23.1600 C   0  0  0  0  0  0  0  0  0  0  0  0
  1  2  1  0
  3  2  1  0
  3  4  2  0
  3  5  2  0
  3  6  1  0
  6  7  2  0
  7  8  1  0
  8  9  2  0
  9 10  1  0
 10 11  1  0
 11 12  1  0
  9 13  1  0
 13 14  1  0
 14 15  1  0
 15 16  2  0
 16 17  1  0
 17 18  2  0
 18 19  1  0
 15 20  1  0
 19 20  2  0
 19 21  1  0
 21 22  2  0
 21 23  1  0
 18 24  1  0
 23 24  1  0
  6 25  1  0
 13 25  2  0
M  END
