MAK-UNK-5d2caa6f-23-nitrile
     RDKit          3D

 27 30  0  0  0  0  0  0  0  0999 V2000
    6.6560   -3.7760   20.0110 C   0  0  0  0  0  0  0  0  0  0  0  0
    5.5460   -3.6810   19.4080 N   0  0  0  0  0  0  0  0  0  0  0  0
    6.7270   -3.1050   21.1950 N   0  0  0  0  0  0  0  0  0  0  0  0
    7.7090   -2.1000   21.5380 C   0  0  0  0  0  0  0  0  0  0  0  0
    8.4510   -2.8970   22.3500 C   0  0  2  0  0  0  0  0  0  0  0  0
    7.7370   -4.0530   22.5000 C   0  0  0  0  0  0  0  0  0  0  0  0
    6.3790   -3.7630   22.5400 C   0  0  1  0  0  0  0  0  0  0  0  0
    6.9520   -3.3810   23.9310 C   0  0  0  0  0  0  0  0  0  0  0  0
    8.1570   -2.5290   23.7250 N   0  0  0  0  0  0  0  0  0  0  0  0
    9.2560   -2.7100   24.5400 C   0  0  0  0  0  0  0  0  0  0  0  0
   10.3120   -1.7380   24.0790 C   0  0  0  0  0  0  0  0  0  0  0  0
   11.1980   -2.2000   22.9560 C   0  0  0  0  0  0  0  0  0  0  0  0
   12.2660   -1.2550   22.4580 C   0  0  0  0  0  0  0  0  0  0  0  0
   13.2830   -1.7650   21.2010 Cl  0  0  0  0  0  0  0  0  0  0  0  0
   12.3930    0.1230   23.0970 C   0  0  0  0  0  0  0  0  0  0  0  0
   11.5100    0.5000   24.1600 C   0  0  0  0  0  0  0  0  0  0  0  0
   10.4430   -0.4860   24.6650 C   0  0  0  0  0  0  0  0  0  0  0  0
    9.5590   -0.2100   25.7200 C   0  0  0  0  0  0  0  0  0  0  0  0
    8.5840    0.8390   25.5920 N   0  0  0  0  0  0  0  0  0  0  0  0
    7.5970    0.7160   26.6650 C   0  0  0  0  0  0  0  0  0  0  0  0
    6.4020    0.4980   26.4520 O   0  0  0  0  0  0  0  0  0  0  0  0
    8.1390    0.8930   28.0760 C   0  0  2  0  0  0  0  0  0  0  0  0
    7.8610   -0.3280   28.9580 C   0  0  0  0  0  0  0  0  0  0  0  0
    7.9650   -0.0610   30.4580 C   0  0  0  0  0  0  0  0  0  0  0  0
    7.2970    1.1300   30.7740 C   0  0  0  0  0  0  0  0  0  0  0  0
    7.8190    2.0800   30.1870 O   0  0  0  0  0  0  0  0  0  0  0  0
    7.5160    2.1000   28.7850 C   0  0  0  0  0  0  0  0  0  0  0  0
  1  2  2  3
  1  3  1  0
  3  4  1  0
  5  4  1  6
  5  6  1  0
  3  7  1  0
  6  7  1  0
  7  8  1  1
  5  9  1  0
  8  9  1  0
  9 10  1  0
 10 11  1  0
 11 12  2  0
 12 13  1  0
 13 14  1  0
 13 15  2  0
 15 16  1  0
 11 17  1  0
 16 17  2  0
 17 18  1  0
 18 19  1  0
 19 20  1  0
 20 21  2  0
 22 20  1  6
 22 23  1  0
 23 24  1  0
 24 25  1  0
 25 26  1  0
 22 27  1  0
 26 27  1  0
M  END
