MAK-UNK-ec98eaf6-33-acrylamide
     RDKit          3D

 28 31  0  0  0  0  0  0  0  0999 V2000
    7.0850   -2.8790   18.8070 C   0  0  0  0  0  0  0  0  0  0  0  0
    6.2810   -2.5870   20.0680 C   0  0  0  0  0  0  0  0  0  0  0  0
    5.5490   -3.8140   20.5530 C   0  0  0  0  0  0  0  0  0  0  0  0
    5.1020   -4.6440   19.7810 O   0  0  0  0  0  0  0  0  0  0  0  0
    5.3930   -3.9820   21.8990 N   0  0  0  0  0  0  0  0  0  0  0  0
    4.6680   -2.9710   22.6860 C   0  0  0  0  0  0  0  0  0  0  0  0
    5.5260   -2.8520   23.9380 C   0  0  1  0  0  0  0  0  0  0  0  0
    5.7480   -4.3720   24.2000 C   0  0  0  0  0  0  0  0  0  0  0  0
    6.3560   -4.5950   22.8240 C   0  0  2  0  0  0  0  0  0  0  0  0
    7.5140   -3.6130   22.9810 C   0  0  0  0  0  0  0  0  0  0  0  0
    6.9320   -2.3170   23.5000 C   0  0  2  0  0  0  0  0  0  0  0  0
    7.7860   -1.7710   24.5940 C   0  0  0  0  0  0  0  0  0  0  0  0
    8.8370   -0.8990   24.2900 C   0  0  0  0  0  0  0  0  0  0  0  0
    8.7280    0.4490   24.6590 C   0  0  0  0  0  0  0  0  0  0  0  0
    9.7530    1.3480   24.3820 C   0  0  0  0  0  0  0  0  0  0  0  0
    9.6270    2.6250   24.7280 F   0  0  0  0  0  0  0  0  0  0  0  0
   10.8930    0.9020   23.7460 C   0  0  0  0  0  0  0  0  0  0  0  0
   11.0540   -0.4010   23.3390 C   0  0  0  0  0  0  0  0  0  0  0  0
   12.0510   -1.1200   22.6700 C   0  0  0  0  0  0  0  0  0  0  0  0
   13.3320   -0.7650   22.1270 C   0  0  0  0  0  0  0  0  0  0  0  0
   13.5210   -1.2460   20.7830 C   0  0  0  0  0  0  0  0  0  0  0  0
   14.2700   -0.4040   19.7140 N   0  0  0  0  0  0  0  0  0  0  0  0
   14.8010    0.9470   19.7280 C   0  0  0  0  0  0  0  0  0  0  0  0
   15.0170    1.6700   18.5400 C   0  0  0  0  0  0  0  0  0  0  0  0
   15.0410    1.5460   20.6950 O   0  0  0  0  0  0  0  0  0  0  0  0
   11.6780   -2.4180   22.5310 C   0  0  0  0  0  0  0  0  0  0  0  0
   10.4330   -2.5190   23.1180 N   0  0  0  0  0  0  0  0  0  0  0  0
   10.0240   -1.2910   23.6180 C   0  0  0  0  0  0  0  0  0  0  0  0
  1  2  1  0
  2  3  1  0
  3  4  2  0
  3  5  1  0
  5  6  1  0
  7  6  1  6
  7  8  1  0
  5  9  1  0
  8  9  1  0
  9 10  1  1
  7 11  1  0
 10 11  1  0
 11 12  1  1
 12 13  1  0
 13 14  1  0
 14 15  2  0
 15 16  1  0
 15 17  1  0
 17 18  2  0
 18 19  1  0
 19 20  1  0
 20 21  1  0
 21 22  1  0
 22 23  1  0
 23 24  1  0
 23 25  2  0
 19 26  2  0
 26 27  1  0
 13 28  2  0
 18 28  1  0
 27 28  1  0
M  END
