MAK-UNK-af83ef51-30-nitrile
     RDKit          3D

 28 30  0  0  0  0  0  0  0  0999 V2000
    6.3950   -5.1450   20.4200 C   0  0  0  0  0  0  0  0  0  0  0  0
    5.6800   -6.0290   19.8600 N   0  0  0  0  0  0  0  0  0  0  0  0
    6.2020   -4.7760   21.7080 N   0  0  0  0  0  0  0  0  0  0  0  0
    6.9810   -5.3310   22.8090 C   0  0  0  0  0  0  0  0  0  0  0  0
    7.7510   -4.2160   23.5410 C   0  0  0  0  0  0  0  0  0  0  0  0
    6.8650   -3.0820   23.8510 N   0  0  0  0  0  0  0  0  0  0  0  0
    7.6030   -1.9480   24.3910 C   0  0  0  0  0  0  0  0  0  0  0  0
    7.4270   -0.8890   23.4100 N   0  0  0  0  0  0  0  0  0  0  0  0
    8.5320    0.0810   23.4630 C   0  0  1  0  0  0  0  0  0  0  0  0
    9.1750    0.3640   22.1890 C   0  0  1  0  0  0  0  0  0  0  0  0
    8.4260    0.0850   21.0370 O   0  0  0  0  0  0  0  0  0  0  0  0
    9.6040    1.5220   22.0180 O   0  0  0  0  0  0  0  0  0  0  0  0
   10.3430    1.9570   23.1930 C   0  0  2  0  0  0  0  0  0  0  0  0
   11.1910    0.8910   23.4890 C   0  0  0  0  0  0  0  0  0  0  0  0
   12.4290    0.7350   22.7480 C   0  0  0  0  0  0  0  0  0  0  0  0
   12.9610   -0.4520   23.2730 C   0  0  0  0  0  0  0  0  0  0  0  0
   12.9440   -1.3510   23.9750 C   0  0  0  0  0  0  0  0  0  0  0  0
   13.7700   -2.3900   24.1380 N   0  0  0  0  0  0  0  0  0  0  0  0
   13.2910   -3.1430   25.2510 C   0  0  0  0  0  0  0  0  0  0  0  0
   11.9350   -3.2630   24.9550 C   0  0  0  0  0  0  0  0  0  0  0  0
   11.7880   -1.1960   24.7230 N   0  0  0  0  0  0  0  0  0  0  0  0
   10.9610   -0.1080   24.4620 C   0  0  0  0  0  0  0  0  0  0  0  0
    9.3620    2.2540   24.3430 C   0  0  1  0  0  0  0  0  0  0  0  0
    9.0300    3.6590   24.3570 O   0  0  0  0  0  0  0  0  0  0  0  0
    8.1180    1.4250   24.1120 C   0  0  2  0  0  0  0  0  0  0  0  0
    7.4040    1.2150   25.3480 O   0  0  0  0  0  0  0  0  0  0  0  0
    6.0880   -2.6360   22.6890 C   0  0  0  0  0  0  0  0  0  0  0  0
    5.3520   -3.6400   22.0760 C   0  0  0  0  0  0  0  0  0  0  0  0
  1  2  2  3
  1  3  1  0
  3  4  1  0
  4  5  1  0
  5  6  1  0
  6  7  1  0
  7  8  1  0
  9  8  1  6
  9 10  1  0
 10 11  1  6
 10 12  1  0
 12 13  1  0
 13 14  1  1
 14 15  2  0
 15 16  1  0
 16 17  2  0
 17 18  1  0
 18 19  1  0
 19 20  1  0
 17 21  1  0
 14 22  1  0
 21 22  2  0
 13 23  1  0
 23 24  1  6
  9 25  1  0
 23 25  1  0
 25 26  1  1
  6 27  1  0
  3 28  1  0
 27 28  1  0
M  END
