MAK-UNK-8fdbca50-2-nitrile
     RDKit          3D

 38 41  0  0  0  0  0  0  0  0999 V2000
    8.3450   -3.9250   20.1430 C   0  0  0  0  0  0  0  0  0  0  0  0
    7.0300   -3.9080   19.7280 N   0  0  0  0  0  0  0  0  0  0  0  0
    8.9580   -3.4560   21.4620 N   0  0  0  0  0  0  0  0  0  0  0  0
    8.9830   -4.2700   22.7400 C   0  0  0  0  0  0  0  0  0  0  0  0
   10.0670   -3.8520   23.8500 C   0  0  0  0  0  0  0  0  0  0  0  0
   11.2230   -2.9290   23.3630 C   0  0  0  0  0  0  0  0  0  0  0  0
   12.4420   -2.5630   24.3260 C   0  0  0  0  0  0  0  0  0  0  0  0
   12.8340   -1.3890   24.3760 O   0  0  0  0  0  0  0  0  0  0  0  0
   13.0770   -3.6410   25.1880 N   0  0  0  0  0  0  0  0  0  0  0  0
   12.2280   -4.1100   26.0370 C   0  0  0  0  0  0  0  0  0  0  0  0
   14.5480   -3.8030   25.4740 C   0  0  1  0  0  0  0  0  0  0  0  0
   14.9050   -2.6990   26.1110 C   0  0  0  0  0  0  0  0  0  0  0  0
   15.0180   -5.4100   26.0610 C   0  0  2  0  0  0  0  0  0  0  0  0
   15.6850   -6.1990   27.1770 C   0  0  0  0  0  0  0  0  0  0  0  0
   16.2250   -5.9550   25.2500 C   0  0  0  0  0  0  0  0  0  0  0  0
   16.8250   -7.2580   25.5360 C   0  0  0  0  0  0  0  0  0  0  0  0
   16.7660   -8.2260   24.7170 C   0  0  0  0  0  0  0  0  0  0  0  0
   17.4110   -9.3320   24.9910 C   0  0  0  0  0  0  0  0  0  0  0  0
   17.7290  -10.5970   24.4670 C   0  0  0  0  0  0  0  0  0  0  0  0
   19.0590  -10.8230   24.1720 C   0  0  0  0  0  0  0  0  0  0  0  0
   19.4830  -11.9120   23.6620 C   0  0  0  0  0  0  0  0  0  0  0  0
   18.7120  -12.8820   23.3710 C   0  0  0  0  0  0  0  0  0  0  0  0
   17.5010  -12.7430   23.6380 C   0  0  0  0  0  0  0  0  0  0  0  0
   16.9870  -11.7160   24.1280 C   0  0  0  0  0  0  0  0  0  0  0  0
   15.7600  -12.0110   24.1730 F   0  0  0  0  0  0  0  0  0  0  0  0
   17.8950   -9.3010   25.9170 N   0  0  0  0  0  0  0  0  0  0  0  0
   18.5970  -10.9570   25.7770 S   0  0  0  0  0  0  0  0  0  0  0  0
   19.7640  -10.9890   24.9120 O   0  0  0  0  0  0  0  0  0  0  0  0
   18.5480  -11.4900   27.0530 O   0  0  0  0  0  0  0  0  0  0  0  0
   17.4320  -11.9850   24.9300 C   0  0  0  0  0  0  0  0  0  0  0  0
   16.7580  -11.4940   24.1040 C   0  0  0  0  0  0  0  0  0  0  0  0
   15.7530  -12.1720   23.4560 C   0  0  0  0  0  0  0  0  0  0  0  0
   15.4860  -13.2040   23.7100 C   0  0  0  0  0  0  0  0  0  0  0  0
   16.1210  -13.8240   24.5150 N   0  0  0  0  0  0  0  0  0  0  0  0
   17.0740  -13.2110   25.1050 C   0  0  0  0  0  0  0  0  0  0  0  0
   17.5720   -7.9610   26.4710 C   0  0  0  0  0  0  0  0  0  0  0  0
   10.4590   -1.9310   22.7960 C   0  0  0  0  0  0  0  0  0  0  0  0
    9.9660   -2.3430   21.5370 C   0  0  0  0  0  0  0  0  0  0  0  0
  1  2  2  3
  1  3  1  0
  3  4  1  0
  4  5  1  0
  5  6  1  0
  6  7  1  0
  7  8  2  0
  7  9  1  0
  9 10  1  0
  9 11  1  0
 11 12  1  1
 11 13  1  0
 13 14  1  1
 13 15  1  0
 15 16  1  0
 16 17  1  0
 17 18  2  0
 18 19  1  0
 19 20  2  0
 20 21  1  0
 21 22  2  0
 22 23  1  0
 19 24  1  0
 23 24  2  0
 24 25  1  0
 18 26  1  0
 26 27  1  0
 27 28  2  0
 27 29  2  0
 27 30  1  0
 30 31  2  0
 31 32  1  0
 32 33  2  0
 33 34  1  0
 30 35  1  0
 34 35  2  0
 16 36  2  0
 26 36  1  0
  6 37  1  0
  3 38  1  0
 37 38  1  0
M  END
