MAK-UNK-516d8086-9-chloroacetamide
     RDKit          3D

 23 25  0  0  0  0  0  0  0  0999 V2000
    6.8040   -4.2930   20.2880 C   0  0  0  0  0  0  0  0  0  0  0  0
    5.8550   -3.1780   19.9630 C   0  0  0  0  0  0  0  0  0  0  0  0
    4.9680   -3.4040   19.1410 O   0  0  0  0  0  0  0  0  0  0  0  0
    6.1240   -1.8170   20.6530 C   0  0  0  0  0  0  0  0  0  0  0  0
    5.2160   -0.6580   20.2980 C   0  0  0  0  0  0  0  0  0  0  0  0
    5.3710    0.5680   20.8470 N   0  0  0  0  0  0  0  0  0  0  0  0
    6.3890    0.7410   21.7460 C   0  0  0  0  0  0  0  0  0  0  0  0
    6.6970    2.0170   22.4370 N   0  0  0  0  0  0  0  0  0  0  0  0
    7.2120    2.9600   21.6400 C   0  0  0  0  0  0  0  0  0  0  0  0
    8.5730    3.3930   22.1870 C   0  0  0  0  0  0  0  0  0  0  0  0
    7.3700   -0.3970   22.1590 C   0  0  0  0  0  0  0  0  0  0  0  0
    8.5580   -0.2690   23.1750 C   0  0  0  0  0  0  0  0  0  0  0  0
    8.6960    1.0010   23.7100 C   0  0  0  0  0  0  0  0  0  0  0  0
    9.1950    0.6540   22.4600 C   0  0  0  0  0  0  0  0  0  0  0  0
    8.8970   -0.7550   22.2860 C   0  0  0  0  0  0  0  0  0  0  0  0
    8.1930   -1.8630   23.1370 C   0  0  0  0  0  0  0  0  0  0  0  0
    7.7700   -1.0880   24.4520 C   0  0  0  0  0  0  0  0  0  0  0  0
    8.1070    0.1990   24.4850 C   0  0  0  0  0  0  0  0  0  0  0  0
    7.0420   -1.7740   25.5680 C   0  0  0  0  0  0  0  0  0  0  0  0
    5.9740   -2.7150   26.4040 S   0  0  0  0  0  0  0  0  0  0  0  0
    6.5290   -2.1100   24.5050 N   0  0  0  0  0  0  0  0  0  0  0  0
    7.5540   -2.7900   23.9540 C   0  0  0  0  0  0  0  0  0  0  0  0
    7.1520   -1.6440   21.5540 C   0  0  0  0  0  0  0  0  0  0  0  0
  1  2  1  0
  2  3  2  0
  2  4  1  0
  4  5  2  0
  5  6  1  0
  6  7  2  0
  7  8  1  0
  8  9  1  0
  9 10  1  0
  7 11  1  0
 11 12  1  0
 12 13  1  0
 13 14  2  0
 14 15  1  0
 15 16  2  0
 16 17  1  0
 13 18  1  0
 17 18  2  0
 17 19  1  0
 19 20  2  0
 19 21  1  0
 16 22  1  0
 21 22  1  0
  4 23  1  0
 11 23  2  0
M  END
