MAK-UNK-704ed37c-14-vinylsulfonamide
     RDKit          3D

 14 14  0  0  0  0  0  0  0  0999 V2000
    7.6270   -3.0970   19.2010 C   0  0  0  0  0  0  0  0  0  0  0  0
    6.2420   -2.6280   19.6200 C   0  0  0  0  0  0  0  0  0  0  0  0
    5.5080   -3.6960   20.8540 S   0  0  0  0  0  0  0  0  0  0  0  0
    4.5530   -2.9840   21.6390 O   0  0  0  0  0  0  0  0  0  0  0  0
    5.0800   -4.8760   20.1600 O   0  0  0  0  0  0  0  0  0  0  0  0
    6.7290   -4.0040   21.9510 N   0  0  0  0  0  0  0  0  0  0  0  0
    7.4780   -2.9150   22.4300 C   0  0  0  0  0  0  0  0  0  0  0  0
    7.0060   -2.4440   23.6220 C   0  0  0  0  0  0  0  0  0  0  0  0
    6.7920   -3.4170   24.5770 C   0  0  1  0  0  0  0  0  0  0  0  0
    5.9150   -3.0960   25.6010 C   0  0  0  0  0  0  0  0  0  0  0  0
    6.3440   -2.9540   26.8710 N   0  0  0  0  0  0  0  0  0  0  0  0
    4.7200   -2.9290   25.3590 O   0  0  0  0  0  0  0  0  0  0  0  0
    6.6150   -4.7330   24.2580 N   0  0  0  0  0  0  0  0  0  0  0  0
    6.3790   -5.0880   22.8540 C   0  0  0  0  0  0  0  0  0  0  0  0
  1  2  1  0
  3  2  1  0
  3  4  2  0
  3  5  2  0
  3  6  1  0
  6  7  1  0
  7  8  1  0
  8  9  1  0
  9 10  1  6
 10 11  1  0
 10 12  2  0
  9 13  1  0
  6 14  1  0
 13 14  1  0
M  END
