MAK-UNK-849bee6c-5-chloroacetamide
     RDKit          3D

 24 26  0  0  0  0  0  0  0  0999 V2000
    7.1810   -2.9590   18.7670 C   0  0  0  0  0  0  0  0  0  0  0  0
    6.2090   -3.2800   19.8680 C   0  0  0  0  0  0  0  0  0  0  0  0
    5.3660   -4.1740   19.7550 O   0  0  0  0  0  0  0  0  0  0  0  0
    6.3250   -2.5200   21.0410 N   0  0  0  0  0  0  0  0  0  0  0  0
    7.1950   -1.3390   21.0000 C   0  0  0  0  0  0  0  0  0  0  0  0
    8.4990   -1.5900   21.7690 C   0  0  0  0  0  0  0  0  0  0  0  0
    8.2910   -2.1700   23.0990 N   0  0  0  0  0  0  0  0  0  0  0  0
    9.3320   -2.3070   23.9980 C   0  0  0  0  0  0  0  0  0  0  0  0
   10.4580   -1.2960   23.7240 C   0  0  0  0  0  0  0  0  0  0  0  0
   11.7600   -1.9360   23.3680 C   0  0  0  0  0  0  0  0  0  0  0  0
   12.9160   -1.0040   23.0800 C   0  0  0  0  0  0  0  0  0  0  0  0
   12.7140    0.5040   23.1590 C   0  0  0  0  0  0  0  0  0  0  0  0
   11.3080    0.9800   23.5370 C   0  0  0  0  0  0  0  0  0  0  0  0
   11.0920    2.4930   23.6010 C   0  0  0  0  0  0  0  0  0  0  0  0
   12.1440    3.3890   22.9360 C   0  0  0  0  0  0  0  0  0  0  0  0
   12.0350    4.7780   22.9370 C   0  0  0  0  0  0  0  0  0  0  0  0
   10.8660    5.4480   23.5990 C   0  0  0  0  0  0  0  0  0  0  0  0
    9.9090    4.5370   24.2060 N   0  0  0  0  0  0  0  0  0  0  0  0
   10.0100    3.1540   24.2080 C   0  0  0  0  0  0  0  0  0  0  0  0
    8.9360    2.3200   24.8760 C   0  0  0  0  0  0  0  0  0  0  0  0
    7.9190    2.7780   25.6760 N   0  0  0  0  0  0  0  0  0  0  0  0
   10.2760    0.0790   23.7950 C   0  0  0  0  0  0  0  0  0  0  0  0
    7.4310   -3.3710   23.0380 C   0  0  0  0  0  0  0  0  0  0  0  0
    6.1030   -3.0640   22.3800 C   0  0  0  0  0  0  0  0  0  0  0  0
  1  2  1  0
  2  3  2  0
  2  4  1  0
  4  5  1  0
  5  6  1  0
  6  7  1  0
  7  8  1  0
  8  9  1  0
  9 10  2  0
 10 11  1  0
 11 12  2  0
 12 13  1  0
 13 14  1  0
 14 15  2  0
 15 16  1  0
 16 17  2  0
 17 18  1  0
 14 19  1  0
 18 19  2  0
 19 20  1  0
 20 21  3  0
  9 22  1  0
 13 22  2  0
  7 23  1  0
  4 24  1  0
 23 24  1  0
M  END
