MAK-UNK-a7992eb3-15
     RDKit          3D

 19 21  0  0  0  0  0  0  0  0999 V2000
    2.9910   -7.1240   28.4890 O   0  0  0  0  0  0  0  0  0  0  0  0
    2.7220   -5.8690   27.8260 S   0  0  0  0  0  0  0  0  0  0  0  0
    1.5450   -5.0760   28.1120 O   0  0  0  0  0  0  0  0  0  0  0  0
    4.1760   -4.8580   27.6730 C   0  0  0  0  0  0  0  0  0  0  0  0
    3.8780   -4.9670   26.2300 C   0  0  0  0  0  0  0  0  0  0  0  0
    5.0580   -5.1500   25.4040 O   0  0  0  0  0  0  0  0  0  0  0  0
    4.9920   -4.6140   24.0740 C   0  0  0  0  0  0  0  0  0  0  0  0
    6.2290   -3.9890   23.8230 C   0  0  0  0  0  0  0  0  0  0  0  0
    7.1450   -4.6890   23.0450 C   0  0  0  0  0  0  0  0  0  0  0  0
    6.5950   -5.2690   21.8450 N   0  0  0  0  0  0  0  0  0  0  0  0
    5.9990   -4.3060   20.9050 C   0  0  0  0  0  0  0  0  0  0  0  0
    6.6450   -3.0890   20.6950 C   0  0  0  0  0  0  0  0  0  0  0  0
    6.6140   -2.3560   19.3540 C   0  0  0  0  0  0  0  0  0  0  0  0
    7.3810   -1.0510   19.4200 C   0  0  0  0  0  0  0  0  0  0  0  0
    8.0660   -0.7510   20.9560 S   0  0  0  0  0  0  0  0  0  0  0  0
    7.3940   -2.3060   21.5830 C   0  0  0  0  0  0  0  0  0  0  0  0
    5.6900   -6.2120   22.2130 C   0  0  0  0  0  0  0  0  0  0  0  0
    4.6590   -5.6700   23.2150 C   0  0  0  0  0  0  0  0  0  0  0  0
    2.9380   -5.9720   26.1020 C   0  0  0  0  0  0  0  0  0  0  0  0
  1  2  2  0
  2  3  2  0
  2  4  1  0
  4  5  1  0
  5  6  1  0
  6  7  1  0
  7  8  1  0
  8  9  1  0
  9 10  1  0
 10 11  1  0
 11 12  1  0
 12 13  1  0
 13 14  2  0
 14 15  1  0
 12 16  2  0
 15 16  1  0
 10 17  1  0
  7 18  1  0
 17 18  1  0
  2 19  1  0
  5 19  1  0
M  END
