MAK-UNK-bae89c02-4-acrylamide
     RDKit          3D

 24 26  0  0  0  0  0  0  0  0999 V2000
    7.9900   -3.4170   19.2050 C   0  0  0  0  0  0  0  0  0  0  0  0
    6.8550   -2.4580   19.0470 C   0  0  0  0  0  0  0  0  0  0  0  0
    5.9340   -2.7120   20.1820 C   0  0  0  0  0  0  0  0  0  0  0  0
    4.8620   -3.2460   19.9670 O   0  0  0  0  0  0  0  0  0  0  0  0
    6.3750   -2.4080   21.4740 N   0  0  0  0  0  0  0  0  0  0  0  0
    7.0830   -1.1530   21.7940 C   0  0  0  0  0  0  0  0  0  0  0  0
    8.4090   -1.6390   22.3410 C   0  0  2  0  0  0  0  0  0  0  0  0
    8.2260   -3.0030   21.9020 C   0  0  0  0  0  0  0  0  0  0  0  0
    6.8380   -3.4320   22.4570 C   0  0  1  0  0  0  0  0  0  0  0  0
    7.5380   -3.2900   23.7870 C   0  0  0  0  0  0  0  0  0  0  0  0
    8.4110   -2.0560   23.7670 N   0  0  0  0  0  0  0  0  0  0  0  0
    9.7620   -2.3760   24.2490 C   0  0  0  0  0  0  0  0  0  0  0  0
   10.7330   -1.4040   23.8910 C   0  0  0  0  0  0  0  0  0  0  0  0
   11.7970   -1.8300   23.1040 C   0  0  0  0  0  0  0  0  0  0  0  0
   12.8680   -0.9350   22.6640 C   0  0  0  0  0  0  0  0  0  0  0  0
   12.7330    0.3730   23.1040 C   0  0  0  0  0  0  0  0  0  0  0  0
   11.6610    0.7790   23.8870 C   0  0  0  0  0  0  0  0  0  0  0  0
   10.6320   -0.0700   24.3060 C   0  0  0  0  0  0  0  0  0  0  0  0
    9.5600    0.3890   25.0860 C   0  0  0  0  0  0  0  0  0  0  0  0
    9.3310   -0.3050   26.2770 C   0  0  0  0  0  0  0  0  0  0  0  0
    8.4120    0.6800   27.4550 S   0  0  0  0  0  0  0  0  0  0  0  0
    7.0280   -0.2380   27.6970 N   0  0  0  0  0  0  0  0  0  0  0  0
    7.9500    1.9270   26.8720 O   0  0  0  0  0  0  0  0  0  0  0  0
    9.1050    0.6810   28.7320 O   0  0  0  0  0  0  0  0  0  0  0  0
  1  2  1  0
  2  3  1  0
  3  4  2  0
  3  5  1  0
  5  6  1  0
  7  6  1  1
  7  8  1  0
  5  9  1  0
  8  9  1  0
  9 10  1  1
  7 11  1  0
 10 11  1  0
 11 12  1  0
 12 13  1  0
 13 14  2  0
 14 15  1  0
 15 16  2  0
 16 17  1  0
 13 18  1  0
 17 18  2  0
 18 19  1  0
 19 20  1  0
 20 21  1  0
 21 22  1  0
 21 23  2  0
 21 24  2  0
M  END
