MAK-UNK-516d8086-16-nitrile
     RDKit          3D

 22 24  0  0  0  0  0  0  0  0999 V2000
    7.4120   -3.5780   20.1000 C   0  0  0  0  0  0  0  0  0  0  0  0
    6.1970   -3.9680   19.8120 N   0  0  0  0  0  0  0  0  0  0  0  0
    7.7330   -2.3810   21.2030 C   0  0  0  0  0  0  0  0  0  0  0  0
    6.5650   -1.8430   22.0480 C   0  0  0  0  0  0  0  0  0  0  0  0
    6.8340   -0.7250   23.0640 C   0  0  0  0  0  0  0  0  0  0  0  0
    8.2230   -0.1280   23.2530 C   0  0  0  0  0  0  0  0  0  0  0  0
    8.4220    0.9070   24.1830 C   0  0  0  0  0  0  0  0  0  0  0  0
    9.0070    2.0600   23.6400 C   0  0  0  0  0  0  0  0  0  0  0  0
    8.7970    2.2230   22.2600 C   0  0  0  0  0  0  0  0  0  0  0  0
    9.3470   -0.5570   22.5290 C   0  0  0  0  0  0  0  0  0  0  0  0
   10.6640    0.0560   22.6970 C   0  0  0  0  0  0  0  0  0  0  0  0
   11.6750   -0.2970   23.6530 C   0  0  0  0  0  0  0  0  0  0  0  0
   12.5330   -0.9480   24.5950 C   0  0  0  0  0  0  0  0  0  0  0  0
   12.5760   -2.2350   25.1260 C   0  0  0  0  0  0  0  0  0  0  0  0
   11.7310   -3.2700   24.8730 C   0  0  0  0  0  0  0  0  0  0  0  0
   10.9320   -2.5880   23.9730 C   0  0  0  0  0  0  0  0  0  0  0  0
   10.8950   -1.3780   23.4610 C   0  0  0  0  0  0  0  0  0  0  0  0
    9.6350   -3.0580   23.1340 C   0  0  0  0  0  0  0  0  0  0  0  0
    8.6060   -3.6230   22.8750 O   0  0  0  0  0  0  0  0  0  0  0  0
    9.5780   -3.5670   24.3120 N   0  0  0  0  0  0  0  0  0  0  0  0
   10.7570   -4.0300   24.4120 C   0  0  0  0  0  0  0  0  0  0  0  0
    9.1470   -1.6410   21.5490 C   0  0  0  0  0  0  0  0  0  0  0  0
  1  2  2  3
  1  3  1  0
  3  4  2  0
  4  5  1  0
  5  6  2  0
  6  7  1  0
  7  8  1  0
  8  9  1  0
  6 10  1  0
 10 11  1  0
 11 12  1  0
 12 13  2  0
 13 14  1  0
 14 15  2  0
 15 16  1  0
 12 17  1  0
 16 17  2  0
 16 18  1  0
 18 19  2  0
 18 20  1  0
 15 21  1  0
 20 21  1  0
  3 22  1  0
 10 22  2  0
M  END
