MAK-UNK-148caf23-5-vinylsulfonamide
     RDKit          3D

 37 40  0  0  0  0  0  0  0  0999 V2000
    6.6230   -3.6810   19.5580 C   0  0  0  0  0  0  0  0  0  0  0  0
    7.0290   -2.8170   20.7230 C   0  0  0  0  0  0  0  0  0  0  0  0
    6.2590   -3.4630   22.1760 S   0  0  0  0  0  0  0  0  0  0  0  0
    4.8030   -3.6010   21.9180 O   0  0  0  0  0  0  0  0  0  0  0  0
    7.0640   -4.6150   22.5520 O   0  0  0  0  0  0  0  0  0  0  0  0
    6.7030   -2.2590   23.4080 C   0  0  0  0  0  0  0  0  0  0  0  0
    8.2390   -2.2530   23.9300 C   0  0  0  0  0  0  0  0  0  0  0  0
    9.0580   -1.3250   25.0390 C   0  0  0  0  0  0  0  0  0  0  0  0
    7.8050   -0.4660   25.3760 C   0  0  0  0  0  0  0  0  0  0  0  0
    7.9800    0.5550   26.3310 N   0  0  0  0  0  0  0  0  0  0  0  0
    8.7810    0.2550   27.5420 C   0  0  0  0  0  0  0  0  0  0  0  0
    8.3220   -1.0620   28.2200 C   0  0  0  0  0  0  0  0  0  0  0  0
    6.5790   -0.6550   24.7860 C   0  0  0  0  0  0  0  0  0  0  0  0
    7.4720   -1.5960   24.3450 N   0  0  0  0  0  0  0  0  0  0  0  0
    7.7310   -2.7910   25.0980 C   0  0  0  0  0  0  0  0  0  0  0  0
    6.7030   -3.1340   25.8900 C   0  0  0  0  0  0  0  0  0  0  0  0
    6.3270   -2.7090   27.1210 C   0  0  0  0  0  0  0  0  0  0  0  0
    5.2680   -3.3130   27.5200 C   0  0  0  0  0  0  0  0  0  0  0  0
    4.7170   -2.9780   28.8400 C   0  0  0  0  0  0  0  0  0  0  0  0
    4.0840   -3.9430   29.6640 C   0  0  0  0  0  0  0  0  0  0  0  0
    3.5400   -3.6750   30.9320 C   0  0  0  0  0  0  0  0  0  0  0  0
    3.5960   -2.3980   31.4700 C   0  0  0  0  0  0  0  0  0  0  0  0
    4.2150   -1.3820   30.7030 C   0  0  0  0  0  0  0  0  0  0  0  0
    4.7780   -1.5470   29.4440 C   0  0  0  0  0  0  0  0  0  0  0  0
    5.3360   -0.5050   28.8100 F   0  0  0  0  0  0  0  0  0  0  0  0
    4.6730   -4.2440   26.7430 N   0  0  0  0  0  0  0  0  0  0  0  0
    4.1360   -5.3400   25.6050 S   0  0  0  0  0  0  0  0  0  0  0  0
    3.4400   -6.3520   26.3650 O   0  0  0  0  0  0  0  0  0  0  0  0
    3.4570   -4.6190   24.5520 O   0  0  0  0  0  0  0  0  0  0  0  0
    5.5980   -6.0540   24.9210 C   0  0  0  0  0  0  0  0  0  0  0  0
    5.5040   -7.0150   23.7350 C   0  0  0  0  0  0  0  0  0  0  0  0
    6.8190   -7.5920   23.2200 C   0  0  0  0  0  0  0  0  0  0  0  0
    8.0710   -7.1370   23.9560 C   0  0  0  0  0  0  0  0  0  0  0  0
    8.0430   -6.2750   25.0010 N   0  0  0  0  0  0  0  0  0  0  0  0
    6.8580   -5.7630   25.4510 C   0  0  0  0  0  0  0  0  0  0  0  0
    5.6700   -4.0620   25.6920 C   0  0  0  0  0  0  0  0  0  0  0  0
    5.8450   -1.3510   23.9240 C   0  0  0  0  0  0  0  0  0  0  0  0
  1  2  1  0
  3  2  1  0
  3  4  2  0
  3  5  2  0
  3  6  1  0
  6  7  2  0
  7  8  1  0
  8  9  2  0
  9 10  1  0
 10 11  1  0
 11 12  1  0
  9 13  1  0
 13 14  1  0
 14 15  1  0
 15 16  1  0
 16 17  1  0
 17 18  2  0
 18 19  1  0
 19 20  2  0
 20 21  1  0
 21 22  2  0
 22 23  1  0
 19 24  1  0
 23 24  2  0
 24 25  1  0
 18 26  1  0
 26 27  1  0
 27 28  2  0
 27 29  2  0
 27 30  1  0
 30 31  2  0
 31 32  1  0
 32 33  2  0
 33 34  1  0
 30 35  1  0
 34 35  2  0
 16 36  2  0
 26 36  1  0
  6 37  1  0
 13 37  2  0
M  END
