MAK-UNK-148caf23-5-chloroacetamide
     RDKit          3D

 35 38  0  0  0  0  0  0  0  0999 V2000
    7.8700   -3.0890   18.9690 C   0  0  0  0  0  0  0  0  0  0  0  0
    7.3360   -3.3320   20.2740 C   0  0  0  0  0  0  0  0  0  0  0  0
    6.2970   -4.1370   20.0280 O   0  0  0  0  0  0  0  0  0  0  0  0
    8.0350   -2.6650   21.5900 C   0  0  0  0  0  0  0  0  0  0  0  0
    9.3800   -2.0850   21.3840 C   0  0  0  0  0  0  0  0  0  0  0  0
    9.7320   -1.5540   22.6440 C   0  0  0  0  0  0  0  0  0  0  0  0
    9.0300   -1.5540   23.7970 C   0  0  0  0  0  0  0  0  0  0  0  0
    9.5500   -0.9430   24.9780 N   0  0  0  0  0  0  0  0  0  0  0  0
    8.6740   -0.8920   26.1580 C   0  0  0  0  0  0  0  0  0  0  0  0
    9.1700    0.0170   27.2700 C   0  0  0  0  0  0  0  0  0  0  0  0
    7.8030   -2.1560   23.7800 C   0  0  0  0  0  0  0  0  0  0  0  0
    7.0820   -2.1380   24.9930 N   0  0  0  0  0  0  0  0  0  0  0  0
    6.1910   -0.9710   25.1450 C   0  0  0  0  0  0  0  0  0  0  0  0
    6.3930    0.1810   24.1650 C   0  0  0  0  0  0  0  0  0  0  0  0
    5.7920    0.0960   22.9330 C   0  0  0  0  0  0  0  0  0  0  0  0
    6.1330    1.2750   22.1300 C   0  0  0  0  0  0  0  0  0  0  0  0
    5.6060    1.3370   20.7990 C   0  0  0  0  0  0  0  0  0  0  0  0
    6.7520    0.9420   19.9030 C   0  0  0  0  0  0  0  0  0  0  0  0
    6.3190    0.9800   18.4670 C   0  0  0  0  0  0  0  0  0  0  0  0
    4.9890    1.3470   18.0650 C   0  0  0  0  0  0  0  0  0  0  0  0
    4.0070    1.6930   18.9980 C   0  0  0  0  0  0  0  0  0  0  0  0
    4.3450    1.6760   20.3380 C   0  0  0  0  0  0  0  0  0  0  0  0
    3.3780    2.0150   21.2070 F   0  0  0  0  0  0  0  0  0  0  0  0
    6.9400    2.0430   22.9250 N   0  0  0  0  0  0  0  0  0  0  0  0
    7.6400    3.5130   22.4550 S   0  0  0  0  0  0  0  0  0  0  0  0
    8.2390    4.1220   23.6110 O   0  0  0  0  0  0  0  0  0  0  0  0
    8.4420    3.1390   21.2970 O   0  0  0  0  0  0  0  0  0  0  0  0
    6.3740    4.5480   21.9730 C   0  0  0  0  0  0  0  0  0  0  0  0
    4.9250    4.0650   21.8450 C   0  0  0  0  0  0  0  0  0  0  0  0
    3.9350    5.1370   21.4110 C   0  0  0  0  0  0  0  0  0  0  0  0
    4.3980    6.3800   21.1860 C   0  0  0  0  0  0  0  0  0  0  0  0
    5.7020    6.7710   21.3120 N   0  0  0  0  0  0  0  0  0  0  0  0
    6.6610    5.8770   21.6930 C   0  0  0  0  0  0  0  0  0  0  0  0
    7.1050    1.4010   24.1750 C   0  0  0  0  0  0  0  0  0  0  0  0
    7.1170   -2.8010   22.6910 C   0  0  0  0  0  0  0  0  0  0  0  0
  1  2  1  0
  2  3  2  0
  2  4  1  0
  4  5  2  0
  5  6  1  0
  6  7  2  0
  7  8  1  0
  8  9  1  0
  9 10  1  0
  7 11  1  0
 11 12  1  0
 12 13  1  0
 13 14  1  0
 14 15  1  0
 15 16  2  0
 16 17  1  0
 17 18  2  0
 18 19  1  0
 19 20  2  0
 20 21  1  0
 17 22  1  0
 21 22  2  0
 22 23  1  0
 16 24  1  0
 24 25  1  0
 25 26  2  0
 25 27  2  0
 25 28  1  0
 28 29  2  0
 29 30  1  0
 30 31  2  0
 31 32  1  0
 28 33  1  0
 32 33  2  0
 14 34  2  0
 24 34  1  0
  4 35  1  0
 11 35  2  0
M  END
