MAK-UNK-6ca90168-21-acrylamide
     RDKit          3D

 17 18  0  0  0  0  0  0  0  0999 V2000
    7.9140   -3.2900   19.1750 C   0  0  0  0  0  0  0  0  0  0  0  0
    6.7420   -2.4020   18.8780 C   0  0  0  0  0  0  0  0  0  0  0  0
    5.8520   -2.5690   20.0500 C   0  0  0  0  0  0  0  0  0  0  0  0
    4.8430   -3.2320   19.9510 O   0  0  0  0  0  0  0  0  0  0  0  0
    6.2660   -1.9910   21.2330 N   0  0  0  0  0  0  0  0  0  0  0  0
    6.1770   -2.8240   22.4470 C   0  0  0  0  0  0  0  0  0  0  0  0
    7.4500   -3.2280   23.0680 C   0  0  0  0  0  0  0  0  0  0  0  0
    8.5300   -2.2250   23.0210 N   0  0  0  0  0  0  0  0  0  0  0  0
    9.7470   -2.3720   23.7010 C   0  0  0  0  0  0  0  0  0  0  0  0
    9.9450   -3.3950   24.3470 O   0  0  0  0  0  0  0  0  0  0  0  0
   10.7230   -1.3460   23.6100 C   0  0  0  0  0  0  0  0  0  0  0  0
   10.2640   -0.1400   24.1590 C   0  0  0  0  0  0  0  0  0  0  0  0
   11.2630    0.8720   24.0360 C   0  0  0  0  0  0  0  0  0  0  0  0
   12.4930    0.2940   23.3550 C   0  0  0  0  0  0  0  0  0  0  0  0
   12.3080   -1.4430   22.9240 S   0  0  0  0  0  0  0  0  0  0  0  0
    8.6350   -1.4900   21.7650 C   0  0  0  0  0  0  0  0  0  0  0  0
    7.2950   -0.9370   21.2590 C   0  0  0  0  0  0  0  0  0  0  0  0
  1  2  1  0
  2  3  1  0
  3  4  2  0
  3  5  1  0
  5  6  1  0
  6  7  1  0
  7  8  1  0
  8  9  1  0
  9 10  2  0
  9 11  1  0
 11 12  2  0
 12 13  1  0
 13 14  2  0
 11 15  1  0
 14 15  1  0
  8 16  1  0
  5 17  1  0
 16 17  1  0
M  END
