MAK-UNK-702fb7d3-10-acrylamide
     RDKit          3D

 43 48  0  0  0  0  0  0  0  0999 V2000
    6.4480   -4.4020   20.3970 C   0  0  0  0  0  0  0  0  0  0  0  0
    6.7390   -4.5570   21.8960 C   0  0  0  0  0  0  0  0  0  0  0  0
    6.0370   -3.4720   22.7130 C   0  0  0  0  0  0  0  0  0  0  0  0
    4.9860   -3.7380   21.8500 O   0  0  0  0  0  0  0  0  0  0  0  0
    7.3600   -3.4650   23.4520 N   0  0  0  0  0  0  0  0  0  0  0  0
    7.5600   -3.0070   24.7380 C   0  0  0  0  0  0  0  0  0  0  0  0
    7.9640   -3.9710   25.7030 C   0  0  0  0  0  0  0  0  0  0  0  0
    7.4840   -4.4310   26.9050 C   0  0  0  0  0  0  0  0  0  0  0  0
    8.8140   -5.5560   27.0680 C   0  0  0  0  0  0  0  0  0  0  0  0
    7.7680   -5.3890   27.9240 C   0  0  0  0  0  0  0  0  0  0  0  0
    7.0300   -5.7780   29.2000 N   0  0  0  0  0  0  0  0  0  0  0  0
    6.1060   -6.9180   29.2710 C   0  0  0  0  0  0  0  0  0  0  0  0
    5.1840   -7.0470   30.4930 C   0  0  0  0  0  0  0  0  0  0  0  0
    3.8280   -6.3860   30.5300 C   0  0  0  0  0  0  0  0  0  0  0  0
    3.2190   -6.6670   31.7170 C   0  0  0  0  0  0  0  0  0  0  0  0
    1.8290   -6.0990   31.9670 C   0  0  0  0  0  0  0  0  0  0  0  0
    0.9720   -7.2420   31.7920 C   0  0  0  0  0  0  0  0  0  0  0  0
    0.2460   -6.0000   31.4550 C   0  0  0  0  0  0  0  0  0  0  0  0
    0.3760   -5.6250   33.0390 C   0  0  0  0  0  0  0  0  0  0  0  0
    0.3980   -4.2400   32.8300 C   0  0  0  0  0  0  0  0  0  0  0  0
    1.4710   -4.7250   32.1350 C   0  0  0  0  0  0  0  0  0  0  0  0
    2.3030   -3.7540   31.7290 F   0  0  0  0  0  0  0  0  0  0  0  0
    4.0670   -7.4460   32.4380 N   0  0  0  0  0  0  0  0  0  0  0  0
    3.5500   -7.9520   33.9800 S   0  0  0  0  0  0  0  0  0  0  0  0
    2.1850   -8.4150   33.8460 O   0  0  0  0  0  0  0  0  0  0  0  0
    3.8740   -6.8680   34.8900 O   0  0  0  0  0  0  0  0  0  0  0  0
    4.5870   -9.3080   34.3960 C   0  0  0  0  0  0  0  0  0  0  0  0
    5.9510   -9.2360   34.2300 C   0  0  0  0  0  0  0  0  0  0  0  0
    6.8110  -10.4560   34.6100 C   0  0  0  0  0  0  0  0  0  0  0  0
    6.0180  -11.6460   35.1500 C   0  0  0  0  0  0  0  0  0  0  0  0
    4.6710  -11.6180   35.2790 N   0  0  0  0  0  0  0  0  0  0  0  0
    4.0020  -10.4820   34.9090 C   0  0  0  0  0  0  0  0  0  0  0  0
    5.2650   -7.7010   31.7420 C   0  0  0  0  0  0  0  0  0  0  0  0
    7.7100   -4.5730   26.8630 C   0  0  0  0  0  0  0  0  0  0  0  0
    8.8520   -4.7490   25.8170 C   0  0  0  0  0  0  0  0  0  0  0  0
    9.3800   -4.3530   24.5820 C   0  0  2  0  0  0  0  0  0  0  0  0
   10.0390   -3.1430   24.2560 C   0  0  0  0  0  0  0  0  0  0  0  0
   10.1140   -2.7270   22.9150 C   0  0  0  0  0  0  0  0  0  0  0  0
   10.7600   -1.5490   22.5610 C   0  0  0  0  0  0  0  0  0  0  0  0
   11.3450   -0.7610   23.5430 C   0  0  0  0  0  0  0  0  0  0  0  0
   11.2770   -1.1600   24.8770 C   0  0  0  0  0  0  0  0  0  0  0  0
   10.6250   -2.3480   25.2210 C   0  0  0  0  0  0  0  0  0  0  0  0
    8.3200   -4.5470   23.4550 C   0  0  0  0  0  0  0  0  0  0  0  0
  1  2  1  0
  2  3  1  0
  3  4  2  0
  3  5  1  0
  5  6  1  0
  6  7  1  0
  7  8  1  0
  8  9  2  0
  9 10  1  0
 10 11  1  0
 11 12  1  0
 12 13  1  0
 13 14  1  0
 14 15  2  0
 15 16  1  0
 16 17  2  0
 17 18  1  0
 18 19  2  0
 19 20  1  0
 16 21  1  0
 20 21  2  0
 21 22  1  0
 15 23  1  0
 23 24  1  0
 24 25  2  0
 24 26  2  0
 24 27  1  0
 27 28  2  0
 28 29  1  0
 29 30  2  0
 30 31  1  0
 27 32  1  0
 31 32  2  0
 13 33  2  0
 23 33  1  0
 10 34  2  0
  7 35  2  0
 34 35  1  0
 35 36  1  0
 36 37  1  1
 37 38  2  0
 38 39  1  0
 39 40  2  0
 40 41  1  0
 37 42  1  0
 41 42  2  0
  5 43  1  0
 36 43  1  0
M  END
