MAK-UNK-750cfbcc-4-nitrile
     RDKit          3D

 17 18  0  0  0  0  0  0  0  0999 V2000
    6.6730   -4.3600   20.4200 C   0  0  0  0  0  0  0  0  0  0  0  0
    5.5610   -4.7770   19.9850 N   0  0  0  0  0  0  0  0  0  0  0  0
    7.1380   -4.4080   21.6840 N   0  0  0  0  0  0  0  0  0  0  0  0
    6.7960   -5.3750   22.6340 C   0  0  0  0  0  0  0  0  0  0  0  0
    6.1790   -4.9980   23.8170 C   0  0  0  0  0  0  0  0  0  0  0  0
    6.1790   -3.6320   24.0930 C   0  0  0  0  0  0  0  0  0  0  0  0
    5.9230   -3.2510   25.4260 C   0  0  0  0  0  0  0  0  0  0  0  0
    4.9890   -2.4660   25.5790 O   0  0  0  0  0  0  0  0  0  0  0  0
    6.5980   -3.6540   26.5440 N   0  0  0  0  0  0  0  0  0  0  0  0
    7.2980   -4.8250   26.4920 C   0  0  0  0  0  0  0  0  0  0  0  0
    7.8940   -5.2040   27.6790 C   0  0  0  0  0  0  0  0  0  0  0  0
    6.9450   -5.3080   28.8380 C   0  0  0  0  0  0  0  0  0  0  0  0
    5.5820   -4.7720   28.4520 C   0  0  2  0  0  0  0  0  0  0  0  0
    4.7230   -5.6480   27.5720 C   0  0  0  0  0  0  0  0  0  0  0  0
    5.8480   -3.4200   27.7740 C   0  0  0  0  0  0  0  0  0  0  0  0
    7.5890   -3.1640   23.7190 C   0  0  0  0  0  0  0  0  0  0  0  0
    7.7350   -3.1970   22.2850 C   0  0  0  0  0  0  0  0  0  0  0  0
  1  2  2  3
  1  3  1  0
  3  4  1  0
  4  5  1  0
  5  6  1  0
  6  7  1  0
  7  8  2  0
  7  9  1  0
  9 10  1  0
 10 11  1  0
 11 12  1  0
 12 13  1  0
 13 14  1  6
  9 15  1  0
 13 15  1  0
  6 16  1  0
  3 17  1  0
 16 17  1  0
M  END
