MAK-UNK-3e0761f8-3-vinylsulfonamide
     RDKit          3D

 28 31  0  0  0  0  0  0  0  0999 V2000
    7.8230   -3.2120   19.4730 C   0  0  0  0  0  0  0  0  0  0  0  0
    6.6310   -3.5830   20.2590 C   0  0  0  0  0  0  0  0  0  0  0  0
    5.4610   -2.4060   19.7990 S   0  0  0  0  0  0  0  0  0  0  0  0
    4.4090   -3.2510   19.3460 O   0  0  0  0  0  0  0  0  0  0  0  0
    6.0870   -1.4180   18.9520 O   0  0  0  0  0  0  0  0  0  0  0  0
    5.2160   -1.7740   21.3320 N   0  0  0  0  0  0  0  0  0  0  0  0
    6.0120   -2.4220   22.3850 C   0  0  0  0  0  0  0  0  0  0  0  0
    6.9340   -1.2500   22.7730 C   0  0  2  0  0  0  0  0  0  0  0  0
    5.8430   -0.1690   22.9420 C   0  0  0  0  0  0  0  0  0  0  0  0
    5.3080   -0.3020   21.5140 C   0  0  1  0  0  0  0  0  0  0  0  0
    6.5890    0.2550   20.8840 C   0  0  0  0  0  0  0  0  0  0  0  0
    7.6250   -0.7180   21.4950 C   0  0  1  0  0  0  0  0  0  0  0  0
    8.8110    0.1060   21.7720 C   0  0  0  0  0  0  0  0  0  0  0  0
    8.8120    1.5310   21.6520 O   0  0  0  0  0  0  0  0  0  0  0  0
    9.8410   -0.7390   22.1300 N   0  0  0  0  0  0  0  0  0  0  0  0
   10.8290   -0.5920   23.1310 C   0  0  0  0  0  0  0  0  0  0  0  0
   11.5400    0.5420   22.8850 C   0  0  0  0  0  0  0  0  0  0  0  0
   12.5800    0.9630   23.6620 C   0  0  0  0  0  0  0  0  0  0  0  0
   12.8640    2.0870   22.9660 C   0  0  0  0  0  0  0  0  0  0  0  0
   12.2250    3.2510   23.0240 N   0  0  0  0  0  0  0  0  0  0  0  0
   12.9390    4.0600   22.1830 C   0  0  0  0  0  0  0  0  0  0  0  0
   12.6230    5.4060   21.9720 C   0  0  0  0  0  0  0  0  0  0  0  0
   13.9660    3.4510   21.5930 N   0  0  0  0  0  0  0  0  0  0  0  0
   13.8860    2.2130   22.1060 N   0  0  0  0  0  0  0  0  0  0  0  0
   11.8870   -0.1570   23.9090 C   0  0  0  0  0  0  0  0  0  0  0  0
   12.0750   -1.0030   24.8810 C   0  0  0  0  0  0  0  0  0  0  0  0
   10.9370   -1.6150   24.2050 C   0  0  0  0  0  0  0  0  0  0  0  0
    9.8630   -2.0280   23.4180 C   0  0  0  0  0  0  0  0  0  0  0  0
  1  2  1  0
  3  2  1  0
  3  4  2  0
  3  5  2  0
  3  6  1  0
  6  7  1  0
  8  7  1  6
  8  9  1  0
  6 10  1  0
  9 10  1  0
 10 11  1  6
  8 12  1  0
 11 12  1  0
 12 13  1  1
 13 14  2  0
 13 15  1  0
 15 16  1  0
 16 17  2  0
 17 18  1  0
 18 19  1  0
 19 20  2  0
 20 21  1  0
 21 22  1  0
 21 23  2  0
 19 24  1  0
 23 24  1  0
 18 25  2  0
 25 26  1  0
 16 27  1  0
 26 27  2  0
 27 28  1  0
M  END
