MAK-UNK-3e0761f8-2-nitrile
     RDKit          3D

 19 22  0  0  0  0  0  0  0  0999 V2000
    7.6590   -4.1950   20.4020 C   0  0  0  0  0  0  0  0  0  0  0  0
    6.3910   -4.4300   20.0090 N   0  0  0  0  0  0  0  0  0  0  0  0
    8.1390   -3.8760   21.7660 N   0  0  0  0  0  0  0  0  0  0  0  0
    9.4370   -3.9620   22.3030 C   0  0  2  0  0  0  0  0  0  0  0  0
    9.2550   -3.9490   23.8210 C   0  0  0  0  0  0  0  0  0  0  0  0
    8.3970   -2.7060   23.7520 C   0  0  1  0  0  0  0  0  0  0  0  0
    9.5740   -1.9030   23.3970 C   0  0  0  0  0  0  0  0  0  0  0  0
    9.9380   -0.6420   23.9020 C   0  0  0  0  0  0  0  0  0  0  0  0
   11.1170   -0.0530   23.4490 C   0  0  0  0  0  0  0  0  0  0  0  0
   11.9030   -0.7290   22.5080 C   0  0  0  0  0  0  0  0  0  0  0  0
   11.5230   -2.0000   22.0060 C   0  0  0  0  0  0  0  0  0  0  0  0
   10.3150   -2.6190   22.4650 C   0  0  0  0  0  0  0  0  0  0  0  0
    7.3930   -3.0760   22.6590 C   0  0  1  0  0  0  0  0  0  0  0  0
    7.4520   -1.7960   22.2110 C   0  0  0  0  0  0  0  0  0  0  0  0
    6.8070   -2.8280   21.5970 N   0  0  0  0  0  0  0  0  0  0  0  0
    6.2110   -2.7710   20.4810 N   0  0  0  0  0  0  0  0  0  0  0  0
    6.5230   -1.5630   20.3280 C   0  0  0  0  0  0  0  0  0  0  0  0
    6.0930   -1.0910   19.1250 C   0  0  0  0  0  0  0  0  0  0  0  0
    7.1490   -0.9980   21.2390 O   0  0  0  0  0  0  0  0  0  0  0  0
  1  2  2  3
  1  3  1  0
  4  3  1  6
  4  5  1  0
  5  6  1  0
  6  7  1  6
  7  8  1  0
  8  9  2  0
  9 10  1  0
 10 11  2  0
  4 12  1  0
  7 12  2  0
 11 12  1  0
  3 13  1  0
  6 13  1  0
 13 14  1  6
 14 15  2  0
 15 16  1  0
 16 17  2  0
 17 18  1  0
 14 19  1  0
 17 19  1  0
M  END
