MAK-UNK-9a6be56d-3
     RDKit          3D

 38 42  0  0  0  0  0  0  0  0999 V2000
    9.2750    0.5820   25.0580 C   0  0  0  0  0  0  0  0  0  0  0  0
   10.0370   -0.0430   24.1000 N   0  0  0  0  0  0  0  0  0  0  0  0
   10.1250   -1.4180   24.1410 C   0  0  0  0  0  0  0  0  0  0  0  0
   10.8770   -1.8790   23.0760 C   0  0  0  0  0  0  0  0  0  0  0  0
   12.2160   -1.4690   23.0550 C   0  0  0  0  0  0  0  0  0  0  0  0
   12.2390   -0.1070   23.0910 C   0  0  0  0  0  0  0  0  0  0  0  0
   13.3530    0.4690   22.6030 C   0  0  0  0  0  0  0  0  0  0  0  0
   13.4810    1.8250   22.5860 C   0  0  0  0  0  0  0  0  0  0  0  0
   12.4230    2.7110   23.0920 C   0  0  0  0  0  0  0  0  0  0  0  0
   12.6450    4.4780   23.0420 S   0  0  0  0  0  0  0  0  0  0  0  0
   11.9500    4.9910   24.2150 O   0  0  0  0  0  0  0  0  0  0  0  0
   12.0900    4.8740   21.7690 O   0  0  0  0  0  0  0  0  0  0  0  0
   14.2340    5.2010   23.0200 N   0  0  0  0  0  0  0  0  0  0  0  0
   13.7200    6.3250   22.4150 C   0  0  0  0  0  0  0  0  0  0  0  0
   15.5950    4.6240   22.6600 C   0  0  0  0  0  0  0  0  0  0  0  0
   17.0310    4.7140   23.3390 C   0  0  0  0  0  0  0  0  0  0  0  0
   17.9760    5.8090   23.5980 C   0  0  0  0  0  0  0  0  0  0  0  0
   19.1420    5.6250   24.1680 C   0  0  0  0  0  0  0  0  0  0  0  0
   20.0490    6.6770   24.4140 C   0  0  0  0  0  0  0  0  0  0  0  0
   20.1070    7.7530   23.4970 C   0  0  0  0  0  0  0  0  0  0  0  0
   21.1060    8.8800   23.7980 C   0  0  0  0  0  0  0  0  0  0  0  0
   21.9100    8.8550   24.9100 C   0  0  0  0  0  0  0  0  0  0  0  0
   21.8200    7.7810   25.7940 C   0  0  0  0  0  0  0  0  0  0  0  0
   20.9100    6.7200   25.5510 C   0  0  0  0  0  0  0  0  0  0  0  0
   20.8880    5.7390   26.4510 F   0  0  0  0  0  0  0  0  0  0  0  0
   19.1280    4.3110   24.4330 N   0  0  0  0  0  0  0  0  0  0  0  0
   20.3660    3.5320   25.2550 S   0  0  0  0  0  0  0  0  0  0  0  0
   20.2360    4.0030   26.6130 O   0  0  0  0  0  0  0  0  0  0  0  0
   20.0220    2.2240   24.9540 O   0  0  0  0  0  0  0  0  0  0  0  0
   21.9040    4.0420   24.5930 C   0  0  0  0  0  0  0  0  0  0  0  0
   21.9860    5.0370   23.6260 C   0  0  0  0  0  0  0  0  0  0  0  0
   23.3530    5.4170   23.1000 C   0  0  0  0  0  0  0  0  0  0  0  0
   24.4180    4.7110   23.6560 C   0  0  0  0  0  0  0  0  0  0  0  0
   24.3220    3.7450   24.5950 N   0  0  0  0  0  0  0  0  0  0  0  0
   23.0740    3.4290   25.0460 C   0  0  0  0  0  0  0  0  0  0  0  0
   17.8940    3.7190   23.9250 C   0  0  0  0  0  0  0  0  0  0  0  0
   11.2670    2.0800   23.5990 C   0  0  0  0  0  0  0  0  0  0  0  0
   11.1590    0.6490   23.6070 C   0  0  0  0  0  0  0  0  0  0  0  0
  1  2  1  0
  2  3  1  0
  3  4  1  0
  4  5  1  0
  5  6  1  0
  6  7  1  0
  7  8  2  0
  8  9  1  0
  9 10  1  0
 10 11  2  0
 10 12  2  0
 10 13  1  0
 13 14  1  0
 13 15  1  0
 15 16  1  0
 16 17  1  0
 17 18  2  0
 18 19  1  0
 19 20  2  0
 20 21  1  0
 21 22  2  0
 22 23  1  0
 19 24  1  0
 23 24  2  0
 24 25  1  0
 18 26  1  0
 26 27  1  0
 27 28  2  0
 27 29  2  0
 27 30  1  0
 30 31  2  0
 31 32  1  0
 32 33  2  0
 33 34  1  0
 30 35  1  0
 34 35  2  0
 16 36  2  0
 26 36  1  0
  9 37  2  0
  2 38  1  0
  6 38  2  0
 37 38  1  0
M  END
