MAK-UNK-10799360-35-nitrile
     RDKit          3D

 29 33  0  0  0  0  0  0  0  0999 V2000
    6.7550   -3.7370   19.9790 C   0  0  0  0  0  0  0  0  0  0  0  0
    5.8190   -4.6100   19.9230 N   0  0  0  0  0  0  0  0  0  0  0  0
    6.7240   -2.8320   21.0070 N   0  0  0  0  0  0  0  0  0  0  0  0
    7.7090   -1.8290   21.3660 C   0  0  0  0  0  0  0  0  0  0  0  0
    8.4210   -2.7610   22.3710 C   0  0  2  0  0  0  0  0  0  0  0  0
    7.4350   -3.9720   22.3680 C   0  0  0  0  0  0  0  0  0  0  0  0
    6.1180   -3.1440   22.3310 C   0  0  1  0  0  0  0  0  0  0  0  0
    6.7640   -3.4700   23.7020 C   0  0  0  0  0  0  0  0  0  0  0  0
    8.0260   -2.6610   23.7700 N   0  0  0  0  0  0  0  0  0  0  0  0
    9.2040   -3.2830   24.7890 S   0  0  0  0  0  0  0  0  0  0  0  0
    9.5550   -4.6090   24.3480 O   0  0  0  0  0  0  0  0  0  0  0  0
    8.7920   -3.0430   26.1390 O   0  0  0  0  0  0  0  0  0  0  0  0
   10.4210   -2.1540   24.2650 C   0  0  0  0  0  0  0  0  0  0  0  0
   10.4370   -0.7770   24.8490 C   0  0  0  0  0  0  0  0  0  0  0  0
   11.4900    0.0940   24.2870 C   0  0  0  0  0  0  0  0  0  0  0  0
   12.3240   -0.4170   23.3180 C   0  0  0  0  0  0  0  0  0  0  0  0
   13.1690    0.4080   22.8480 C   0  0  0  0  0  0  0  0  0  0  0  0
   12.3720    1.4480   22.6100 C   0  0  0  0  0  0  0  0  0  0  0  0
   10.9990    1.3460   22.8160 C   0  0  0  0  0  0  0  0  0  0  0  0
   10.1940    2.4380   22.5870 C   0  0  0  0  0  0  0  0  0  0  0  0
   10.7830    3.5970   22.1750 C   0  0  0  0  0  0  0  0  0  0  0  0
   12.1600    3.7070   21.9400 C   0  0  0  0  0  0  0  0  0  0  0  0
   12.7650    4.8580   21.4960 C   0  0  0  0  0  0  0  0  0  0  0  0
   14.1380    4.8740   21.2570 C   0  0  0  0  0  0  0  0  0  0  0  0
   14.9140    3.7750   21.4650 C   0  0  0  0  0  0  0  0  0  0  0  0
   14.3670    2.6200   21.9160 C   0  0  0  0  0  0  0  0  0  0  0  0
   12.9430    2.5890   22.1630 C   0  0  0  0  0  0  0  0  0  0  0  0
   12.2860   -1.6870   22.8320 C   0  0  0  0  0  0  0  0  0  0  0  0
   11.3340   -2.5540   23.3020 C   0  0  0  0  0  0  0  0  0  0  0  0
  1  2  2  3
  1  3  1  0
  3  4  1  0
  5  4  1  6
  5  6  1  0
  3  7  1  0
  6  7  1  0
  7  8  1  1
  5  9  1  0
  8  9  1  0
  9 10  1  0
 10 11  2  0
 10 12  2  0
 10 13  1  0
 13 14  2  0
 14 15  1  0
 15 16  2  0
 16 17  1  0
 17 18  1  0
 18 19  2  0
 19 20  1  0
 20 21  2  0
 21 22  1  0
 22 23  1  0
 23 24  2  0
 24 25  1  0
 25 26  2  0
 18 27  1  0
 22 27  2  0
 26 27  1  0
 16 28  1  0
 13 29  1  0
 28 29  2  0
M  END
