MAK-UNK-849bee6c-21-vinylsulfonamide
     RDKit          3D

 31 33  0  0  0  0  0  0  0  0999 V2000
    7.2070   -2.8210   18.4750 C   0  0  0  0  0  0  0  0  0  0  0  0
    6.1010   -2.4280   19.4840 C   0  0  0  0  0  0  0  0  0  0  0  0
    5.7660   -3.5510   20.8170 S   0  0  0  0  0  0  0  0  0  0  0  0
    4.6620   -3.0710   21.5730 O   0  0  0  0  0  0  0  0  0  0  0  0
    5.6920   -4.8860   20.2520 O   0  0  0  0  0  0  0  0  0  0  0  0
    7.1020   -3.2550   21.8190 N   0  0  0  0  0  0  0  0  0  0  0  0
    7.4600   -2.0170   21.8410 C   0  0  0  0  0  0  0  0  0  0  0  0
    8.9590   -1.9690   22.1290 C   0  0  0  0  0  0  0  0  0  0  0  0
    9.3890   -2.9840   23.1090 N   0  0  0  0  0  0  0  0  0  0  0  0
   10.6380   -2.5560   23.8040 C   0  0  0  0  0  0  0  0  0  0  0  0
   10.6600   -1.0400   23.8710 C   0  0  0  0  0  0  0  0  0  0  0  0
    9.5200   -0.1700   24.3800 C   0  0  0  0  0  0  0  0  0  0  0  0
    9.6630    1.2200   24.3610 C   0  0  0  0  0  0  0  0  0  0  0  0
    8.6260    2.0330   24.8110 C   0  0  0  0  0  0  0  0  0  0  0  0
   10.8430    1.8090   23.8860 C   0  0  0  0  0  0  0  0  0  0  0  0
   11.9330    1.0860   23.4090 C   0  0  0  0  0  0  0  0  0  0  0  0
   13.0540    1.7960   22.9630 N   0  0  0  0  0  0  0  0  0  0  0  0
   13.0660    3.1400   22.4940 C   0  0  0  0  0  0  0  0  0  0  0  0
   12.2140    4.1570   22.8960 C   0  0  0  0  0  0  0  0  0  0  0  0
   12.4930    5.3140   22.2350 C   0  0  0  0  0  0  0  0  0  0  0  0
   11.6040    6.2870   22.6980 C   0  0  0  0  0  0  0  0  0  0  0  0
   11.8840    6.8870   23.9360 N   0  0  0  0  0  0  0  0  0  0  0  0
   13.1310    5.8540   21.4650 N   0  0  0  0  0  0  0  0  0  0  0  0
   14.0290    4.8820   20.9960 C   0  0  0  0  0  0  0  0  0  0  0  0
   14.9890    5.1270   19.9920 N   0  0  0  0  0  0  0  0  0  0  0  0
   16.1730    4.2780   19.9850 C   0  0  0  0  0  0  0  0  0  0  0  0
   15.8480    3.0900   19.4280 C   0  0  0  0  0  0  0  0  0  0  0  0
   13.9970    3.5710   21.5200 C   0  0  0  0  0  0  0  0  0  0  0  0
   11.9130   -0.3080   23.3720 C   0  0  0  0  0  0  0  0  0  0  0  0
    8.3120   -3.5230   23.9580 C   0  0  0  0  0  0  0  0  0  0  0  0
    7.0720   -3.8990   23.1250 C   0  0  0  0  0  0  0  0  0  0  0  0
  1  2  1  0
  3  2  1  0
  3  4  2  0
  3  5  2  0
  3  6  1  0
  6  7  1  0
  7  8  1  0
  8  9  1  0
  9 10  1  0
 10 11  1  0
 11 12  2  0
 12 13  1  0
 13 14  1  0
 13 15  2  0
 15 16  1  0
 16 17  1  0
 17 18  1  0
 18 19  2  0
 19 20  1  0
 20 21  1  0
 21 22  3  0
 20 23  2  0
 23 24  1  0
 24 25  1  0
 25 26  1  0
 26 27  1  0
 18 28  1  0
 24 28  2  0
 11 29  1  0
 16 29  2  0
  9 30  1  0
  6 31  1  0
 30 31  1  0
M  END
