MAK-UNK-10799360-6-nitrile
     RDKit          3D

 23 25  0  0  0  0  0  0  0  0999 V2000
    6.7770   -3.9580   20.0610 C   0  0  0  0  0  0  0  0  0  0  0  0
    5.8380   -4.8240   19.9690 N   0  0  0  0  0  0  0  0  0  0  0  0
    6.7470   -3.0140   21.0670 N   0  0  0  0  0  0  0  0  0  0  0  0
    6.1870   -3.1010   22.4630 C   0  0  0  0  0  0  0  0  0  0  0  0
    7.5250   -3.2090   23.3170 C   0  0  1  0  0  0  0  0  0  0  0  0
    8.1740   -3.3750   22.0220 C   0  0  0  0  0  0  0  0  0  0  0  0
    7.6890   -2.0070   21.3430 C   0  0  1  0  0  0  0  0  0  0  0  0
    9.0100   -1.9660   21.9920 C   0  0  0  0  0  0  0  0  0  0  0  0
    8.5630   -2.1490   23.4210 N   0  0  0  0  0  0  0  0  0  0  0  0
    9.7620   -2.7040   24.0100 C   0  0  0  0  0  0  0  0  0  0  0  0
   10.8760   -1.7580   23.7180 C   0  0  0  0  0  0  0  0  0  0  0  0
   11.8170   -1.8610   22.5490 C   0  0  0  0  0  0  0  0  0  0  0  0
   12.7970   -0.8840   22.4080 C   0  0  0  0  0  0  0  0  0  0  0  0
   12.8390    0.1330   23.3550 C   0  0  0  0  0  0  0  0  0  0  0  0
   11.9900    0.2150   24.4090 N   0  0  0  0  0  0  0  0  0  0  0  0
   11.0280   -0.7240   24.5840 C   0  0  0  0  0  0  0  0  0  0  0  0
   10.1340   -0.6850   25.6790 N   0  0  0  0  0  0  0  0  0  0  0  0
    8.7130   -0.3370   25.4450 C   0  0  0  0  0  0  0  0  0  0  0  0
    8.1770   -0.0910   26.7240 C   0  0  0  0  0  0  0  0  0  0  0  0
    7.2640    1.4180   26.9080 S   0  0  0  0  0  0  0  0  0  0  0  0
    5.6740    0.9060   27.0220 N   0  0  0  0  0  0  0  0  0  0  0  0
    7.3380    2.2230   25.7060 O   0  0  0  0  0  0  0  0  0  0  0  0
    7.5700    1.9830   28.2050 O   0  0  0  0  0  0  0  0  0  0  0  0
  1  2  2  3
  1  3  1  0
  3  4  1  0
  5  4  1  6
  5  6  1  0
  3  7  1  0
  6  7  1  0
  7  8  1  6
  5  9  1  0
  8  9  1  0
  9 10  1  0
 10 11  1  0
 11 12  2  0
 12 13  1  0
 13 14  2  0
 14 15  1  0
 11 16  1  0
 15 16  2  0
 16 17  1  0
 17 18  1  0
 18 19  1  0
 19 20  1  0
 20 21  1  0
 20 22  2  0
 20 23  2  0
M  END
