MAK-UNK-f2409524-25
     RDKit          3D

 26 29  0  0  0  0  0  0  0  0999 V2000
    9.9110   -0.7180   22.2770 C   0  0  0  0  0  0  0  0  0  0  0  0
    8.8580    0.0470   21.5160 C   0  0  0  0  0  0  0  0  0  0  0  0
    8.9850    1.2520   21.2380 O   0  0  0  0  0  0  0  0  0  0  0  0
    7.7530   -0.7150   21.1660 N   0  0  0  0  0  0  0  0  0  0  0  0
    6.7350   -0.1820   20.2770 C   0  0  0  0  0  0  0  0  0  0  0  0
    7.0630   -0.2290   18.7940 C   0  0  0  0  0  0  0  0  0  0  0  0
    6.0800    0.3190   17.8910 N   0  0  0  0  0  0  0  0  0  0  0  0
    4.8960    0.8520   18.3580 C   0  0  0  0  0  0  0  0  0  0  0  0
    4.6670    0.8440   19.7100 C   0  0  0  0  0  0  0  0  0  0  0  0
    5.5100    0.3580   20.7040 C   0  0  0  0  0  0  0  0  0  0  0  0
    5.1110    0.4320   22.0510 C   0  0  0  0  0  0  0  0  0  0  0  0
    5.1670    1.7280   22.8130 C   0  0  0  0  0  0  0  0  0  0  0  0
    4.4250    1.6790   24.1510 C   0  0  1  0  0  0  0  0  0  0  0  0
    5.1570    0.8610   25.1630 N   0  0  0  0  0  0  0  0  0  0  0  0
    5.4890    1.5210   26.3210 C   0  0  0  0  0  0  0  0  0  0  0  0
    5.0400    2.7950   26.1180 C   0  0  0  0  0  0  0  0  0  0  0  0
    5.0340    3.9820   26.8010 C   0  0  0  0  0  0  0  0  0  0  0  0
    4.3950    4.8830   25.9720 N   0  0  0  0  0  0  0  0  0  0  0  0
    4.2400    6.2600   26.4440 C   0  0  0  0  0  0  0  0  0  0  0  0
    3.7300    6.3250   27.7650 C   0  0  0  0  0  0  0  0  0  0  0  0
    4.7560    6.4610   28.6900 C   0  0  0  0  0  0  0  0  0  0  0  0
    5.4810    7.6140   28.4560 C   0  0  0  0  0  0  0  0  0  0  0  0
    5.9350    7.8220   27.1600 C   0  0  0  0  0  0  0  0  0  0  0  0
    5.4660    6.9160   26.2130 C   0  0  0  0  0  0  0  0  0  0  0  0
    3.9810    4.3610   24.7910 N   0  0  0  0  0  0  0  0  0  0  0  0
    4.4270    2.9700   24.9200 C   0  0  0  0  0  0  0  0  0  0  0  0
  1  2  1  0
  2  3  2  0
  2  4  1  0
  4  5  1  0
  5  6  2  0
  6  7  1  0
  7  8  2  0
  8  9  1  0
  5 10  1  0
  9 10  2  0
 10 11  1  0
 11 12  1  0
 13 12  1  6
 13 14  1  0
 14 15  1  0
 15 16  1  0
 16 17  2  0
 17 18  1  0
 18 19  1  0
 19 20  1  0
 20 21  1  0
 21 22  1  0
 22 23  1  0
 19 24  1  0
 23 24  1  0
 18 25  1  0
 13 26  1  0
 16 26  1  0
 25 26  2  0
M  END
