MAK-UNK-ec98eaf6-50-acrylamide
     RDKit          3D

 28 31  0  0  0  0  0  0  0  0999 V2000
    7.9200   -3.3160   19.2910 C   0  0  0  0  0  0  0  0  0  0  0  0
    6.7440   -2.4380   18.9420 C   0  0  0  0  0  0  0  0  0  0  0  0
    5.6390   -2.7850   19.8700 C   0  0  0  0  0  0  0  0  0  0  0  0
    4.8200   -3.6380   19.5310 O   0  0  0  0  0  0  0  0  0  0  0  0
    5.6430   -2.1720   21.0870 N   0  0  0  0  0  0  0  0  0  0  0  0
    5.5380   -2.9920   22.3030 C   0  0  0  0  0  0  0  0  0  0  0  0
    6.5900   -2.3200   23.1640 C   0  0  2  0  0  0  0  0  0  0  0  0
    6.1050   -0.8590   22.9790 C   0  0  0  0  0  0  0  0  0  0  0  0
    6.3600   -0.9310   21.4810 C   0  0  1  0  0  0  0  0  0  0  0  0
    7.8770   -1.1680   21.5460 C   0  0  0  0  0  0  0  0  0  0  0  0
    7.8500   -2.3900   22.3610 N   0  0  0  0  0  0  0  0  0  0  0  0
    9.0460   -2.7860   23.0360 C   0  0  2  0  0  0  0  0  0  0  0  0
    8.6810   -3.7770   24.0680 C   0  0  0  0  0  0  0  0  0  0  0  0
    9.5370   -3.9870   25.0830 C   0  0  0  0  0  0  0  0  0  0  0  0
    9.1480   -3.3090   26.1530 C   0  0  0  0  0  0  0  0  0  0  0  0
    9.3420   -3.8860   27.3450 C   0  0  0  0  0  0  0  0  0  0  0  0
    8.9650   -3.2160   28.4440 C   0  0  0  0  0  0  0  0  0  0  0  0
    8.3670   -1.9380   28.3890 C   0  0  0  0  0  0  0  0  0  0  0  0
    7.9820   -1.2360   29.5280 C   0  0  0  0  0  0  0  0  0  0  0  0
    8.1630   -1.3570   27.1450 C   0  0  0  0  0  0  0  0  0  0  0  0
    8.5580   -2.0500   26.0220 C   0  0  0  0  0  0  0  0  0  0  0  0
   10.0840   -1.6910   23.2480 C   0  0  0  0  0  0  0  0  0  0  0  0
   10.0790   -0.5270   24.0680 C   0  0  0  0  0  0  0  0  0  0  0  0
   11.1350    0.4550   24.1390 C   0  0  0  0  0  0  0  0  0  0  0  0
   12.3830    0.3260   23.3290 C   0  0  0  0  0  0  0  0  0  0  0  0
   12.3140   -0.9340   22.4930 C   0  0  0  0  0  0  0  0  0  0  0  0
   13.5090   -1.4260   21.4360 Cl  0  0  0  0  0  0  0  0  0  0  0  0
   11.2050   -1.8570   22.4900 C   0  0  0  0  0  0  0  0  0  0  0  0
  1  2  1  0
  2  3  1  0
  3  4  2  0
  3  5  1  0
  5  6  1  0
  7  6  1  6
  7  8  1  0
  5  9  1  0
  8  9  1  0
  9 10  1  1
  7 11  1  0
 10 11  1  0
 11 12  1  0
 12 13  1  1
 13 14  1  0
 14 15  1  0
 15 16  2  0
 16 17  1  0
 17 18  2  0
 18 19  1  0
 18 20  1  0
 15 21  1  0
 20 21  2  0
 12 22  1  0
 22 23  2  0
 23 24  1  0
 24 25  2  0
 25 26  1  0
 26 27  1  0
 22 28  1  0
 26 28  2  0
M  END
