MAK-UNK-ec98eaf6-48-chloroacetamide
     RDKit          3D

 24 26  0  0  0  0  0  0  0  0999 V2000
    7.3020   -3.0500   18.8910 C   0  0  0  0  0  0  0  0  0  0  0  0
    6.2760   -3.4560   19.9820 C   0  0  0  0  0  0  0  0  0  0  0  0
    5.5640   -4.4480   19.8600 O   0  0  0  0  0  0  0  0  0  0  0  0
    6.1220   -2.6750   21.1070 N   0  0  0  0  0  0  0  0  0  0  0  0
    5.9310   -3.2170   22.4820 C   0  0  0  0  0  0  0  0  0  0  0  0
    7.3830   -3.2110   23.0330 C   0  0  1  0  0  0  0  0  0  0  0  0
    7.6500   -2.9210   21.6310 C   0  0  0  0  0  0  0  0  0  0  0  0
    6.8890   -1.5490   21.5140 C   0  0  1  0  0  0  0  0  0  0  0  0
    8.3450   -1.3900   21.7690 C   0  0  0  0  0  0  0  0  0  0  0  0
    8.2750   -1.9520   23.2260 C   0  0  2  0  0  0  0  0  0  0  0  0
    9.6890   -2.2680   23.6420 C   0  0  0  0  0  0  0  0  0  0  0  0
   10.5420   -1.3080   22.8700 N   0  0  0  0  0  0  0  0  0  0  0  0
   10.4280    0.0980   23.3540 C   0  0  0  0  0  0  0  0  0  0  0  0
   11.0550    0.1490   24.5560 C   0  0  0  0  0  0  0  0  0  0  0  0
   11.6750   -1.0400   24.7910 C   0  0  0  0  0  0  0  0  0  0  0  0
   12.9700   -1.0470   25.1250 C   0  0  0  0  0  0  0  0  0  0  0  0
   13.6640   -2.2150   25.3620 C   0  0  0  0  0  0  0  0  0  0  0  0
   13.0350   -3.3830   25.2480 C   0  0  0  0  0  0  0  0  0  0  0  0
   11.6770   -3.4180   24.8930 C   0  0  0  0  0  0  0  0  0  0  0  0
   10.9970   -2.2330   24.6730 C   0  0  0  0  0  0  0  0  0  0  0  0
   12.0430   -1.8900   22.3360 S   0  0  0  0  0  0  0  0  0  0  0  0
   13.1520   -0.5410   22.5920 C   0  0  0  0  0  0  0  0  0  0  0  0
   12.0080   -2.1240   20.9200 O   0  0  0  0  0  0  0  0  0  0  0  0
   12.5030   -2.9260   23.2120 O   0  0  0  0  0  0  0  0  0  0  0  0
  1  2  1  0
  2  3  2  0
  2  4  1  0
  4  5  1  0
  6  5  1  6
  6  7  1  0
  4  8  1  0
  7  8  1  0
  8  9  1  6
  6 10  1  0
  9 10  1  0
 10 11  1  6
 11 12  1  0
 12 13  1  0
 13 14  1  0
 14 15  1  0
 15 16  2  0
 16 17  1  0
 17 18  2  0
 18 19  1  0
 15 20  1  0
 19 20  2  0
 21 12  1  0
 21 22  1  0
 21 23  2  0
 21 24  2  0
M  END
