MAK-UNK-af83ef51-32-chloroacetamide
     RDKit          3D

 31 33  0  0  0  0  0  0  0  0999 V2000
    7.0380   -2.9090   18.7150 C   0  0  0  0  0  0  0  0  0  0  0  0
    5.8520   -3.0130   19.6140 C   0  0  0  0  0  0  0  0  0  0  0  0
    5.2660   -4.1040   19.7170 O   0  0  0  0  0  0  0  0  0  0  0  0
    5.4600   -1.8320   20.2470 N   0  0  0  0  0  0  0  0  0  0  0  0
    5.8000   -0.5420   19.6120 C   0  0  0  0  0  0  0  0  0  0  0  0
    6.8310    0.1500   20.2870 C   0  0  0  0  0  0  0  0  0  0  0  0
    6.3540    0.5990   21.6140 N   0  0  0  0  0  0  0  0  0  0  0  0
    7.3640    0.6520   22.6880 C   0  0  0  0  0  0  0  0  0  0  0  0
    8.7230    0.8460   22.4550 N   0  0  0  0  0  0  0  0  0  0  0  0
    9.1960    2.1880   22.5250 C   0  0  0  0  0  0  0  0  0  0  0  0
   10.2430    3.1260   22.6610 C   0  0  0  0  0  0  0  0  0  0  0  0
   11.6940    2.8230   22.8340 C   0  0  0  0  0  0  0  0  0  0  0  0
   12.5240    1.4720   22.9210 C   0  0  0  0  0  0  0  0  0  0  0  0
   12.6920    0.0140   22.9270 C   0  0  0  0  0  0  0  0  0  0  0  0
   12.8900   -1.1300   22.8710 N   0  0  0  0  0  0  0  0  0  0  0  0
   11.1690    0.8420   22.7740 C   0  0  0  0  0  0  0  0  0  0  0  0
   10.9090   -0.5360   22.7700 O   0  0  0  0  0  0  0  0  0  0  0  0
   10.0610   -1.1650   21.7830 C   0  0  0  0  0  0  0  0  0  0  0  0
    8.9590   -1.8460   22.3480 C   0  0  0  0  0  0  0  0  0  0  0  0
    8.6730   -1.6710   23.6570 N   0  0  0  0  0  0  0  0  0  0  0  0
    9.6030   -0.8950   24.2280 C   0  0  0  0  0  0  0  0  0  0  0  0
   10.0260   -2.2480   24.0650 C   0  0  0  0  0  0  0  0  0  0  0  0
   11.3470   -2.8770   24.4350 C   0  0  0  0  0  0  0  0  0  0  0  0
   12.2980   -2.1470   24.9850 C   0  0  0  0  0  0  0  0  0  0  0  0
   13.5180   -2.6630   25.3550 C   0  0  0  0  0  0  0  0  0  0  0  0
   14.6660   -3.1740   25.7820 N   0  0  0  0  0  0  0  0  0  0  0  0
   11.9500   -0.8750   25.1570 C   0  0  0  0  0  0  0  0  0  0  0  0
   10.7280   -0.3550   24.8120 N   0  0  0  0  0  0  0  0  0  0  0  0
   10.3930    1.8350   22.6740 N   0  0  0  0  0  0  0  0  0  0  0  0
    5.1930   -0.1660   22.0070 C   0  0  0  0  0  0  0  0  0  0  0  0
    5.3760   -1.6530   21.6900 C   0  0  0  0  0  0  0  0  0  0  0  0
  1  2  1  0
  2  3  2  0
  2  4  1  0
  4  5  1  0
  5  6  1  0
  6  7  1  0
  7  8  1  0
  8  9  1  0
  9 10  1  0
 10 11  2  0
 11 12  1  0
 12 13  2  0
 13 14  1  0
 14 15  3  0
 13 16  1  0
 16 17  1  0
 17 18  1  0
 18 19  1  0
 19 20  1  0
 20 21  1  0
 21 22  2  0
 22 23  1  0
 23 24  2  0
 24 25  1  0
 25 26  3  0
 24 27  1  0
 21 28  1  0
 27 28  2  0
 10 29  1  0
 16 29  2  0
  7 30  1  0
  4 31  1  0
 30 31  1  0
M  END
