MAK-UNK-516d8086-21-vinylsulfonamide
     RDKit          3D

 25 27  0  0  0  0  0  0  0  0999 V2000
    8.6630   -4.1400   20.6740 C   0  0  0  0  0  0  0  0  0  0  0  0
    7.2720   -4.8030   20.9630 C   0  0  0  0  0  0  0  0  0  0  0  0
    6.3240   -4.1820   22.3180 S   0  0  0  0  0  0  0  0  0  0  0  0
    4.9840   -3.8050   21.7690 O   0  0  0  0  0  0  0  0  0  0  0  0
    6.3480   -5.2180   23.3370 O   0  0  0  0  0  0  0  0  0  0  0  0
    7.3800   -2.7680   22.8550 C   0  0  0  0  0  0  0  0  0  0  0  0
    8.0250   -4.0930   23.4000 C   0  0  0  0  0  0  0  0  0  0  0  0
    9.1230   -4.4170   24.1360 N   0  0  0  0  0  0  0  0  0  0  0  0
    9.9110   -3.4450   24.5330 C   0  0  0  0  0  0  0  0  0  0  0  0
   11.1060   -3.7020   25.3090 N   0  0  0  0  0  0  0  0  0  0  0  0
   12.2840   -2.8800   24.9580 C   0  0  0  0  0  0  0  0  0  0  0  0
   13.4460   -3.2680   25.6250 C   0  0  0  0  0  0  0  0  0  0  0  0
    9.5620   -2.1430   24.1770 C   0  0  0  0  0  0  0  0  0  0  0  0
   10.2760   -0.9820   24.4880 C   0  0  0  0  0  0  0  0  0  0  0  0
   11.3560   -0.8830   23.5750 C   0  0  0  0  0  0  0  0  0  0  0  0
   12.6150   -0.3490   22.7640 C   0  0  0  0  0  0  0  0  0  0  0  0
   13.5420   -0.7490   21.6910 N   0  0  0  0  0  0  0  0  0  0  0  0
   12.6160   -1.3300   22.1720 C   0  0  0  0  0  0  0  0  0  0  0  0
   12.1750   -0.4690   23.0860 C   0  0  0  0  0  0  0  0  0  0  0  0
   11.5930    0.2820   24.0580 C   0  0  0  0  0  0  0  0  0  0  0  0
   11.1850   -1.3990   23.4130 C   0  0  0  0  0  0  0  0  0  0  0  0
   11.1580   -2.2290   22.4920 O   0  0  0  0  0  0  0  0  0  0  0  0
   11.7590   -0.2530   23.9060 N   0  0  0  0  0  0  0  0  0  0  0  0
   12.7280   -0.0880   22.8520 C   0  0  0  0  0  0  0  0  0  0  0  0
    8.3850   -1.9010   23.4100 C   0  0  0  0  0  0  0  0  0  0  0  0
  1  2  1  0
  3  2  1  0
  3  4  2  0
  3  5  2  0
  3  6  1  0
  6  7  2  0
  7  8  1  0
  8  9  2  0
  9 10  1  0
 10 11  1  0
 11 12  1  0
  9 13  1  0
 13 14  1  0
 14 15  1  0
 15 16  2  0
 16 17  1  0
 17 18  2  0
 18 19  1  0
 15 20  1  0
 19 20  2  0
 19 21  1  0
 21 22  2  0
 21 23  1  0
 18 24  1  0
 23 24  1  0
  6 25  1  0
 13 25  2  0
M  END
