MAK-UNK-0d6072ac-11
     RDKit          3D

 19 21  0  0  0  0  0  0  0  0999 V2000
    5.9920   -3.8080   20.2800 C   0  0  0  0  0  0  0  0  0  0  0  0
    6.1410   -4.8370   21.3720 C   0  0  2  0  0  0  0  0  0  0  0  0
    5.1240   -5.0220   22.4570 C   0  0  0  0  0  0  0  0  0  0  0  0
    5.4980   -5.9830   23.4480 O   0  0  0  0  0  0  0  0  0  0  0  0
    3.9970   -4.2750   22.3940 O   0  0  0  0  0  0  0  0  0  0  0  0
    7.3840   -4.6830   22.1400 C   0  0  0  0  0  0  0  0  0  0  0  0
    8.3260   -4.8590   23.1870 C   0  0  0  0  0  0  0  0  0  0  0  0
    9.5540   -3.7770   23.2230 C   0  0  0  0  0  0  0  0  0  0  0  0
    9.8010   -2.5150   22.7230 N   0  0  0  0  0  0  0  0  0  0  0  0
   10.9770   -2.1400   23.5050 C   0  0  0  0  0  0  0  0  0  0  0  0
   11.6800   -0.9590   23.5280 C   0  0  0  0  0  0  0  0  0  0  0  0
   12.8750   -0.8960   24.3940 C   0  0  0  0  0  0  0  0  0  0  0  0
   13.2120   -2.1700   25.1900 C   0  0  0  0  0  0  0  0  0  0  0  0
   14.4810   -2.5210   26.1970 Cl  0  0  0  0  0  0  0  0  0  0  0  0
   12.3210   -3.3450   25.0850 C   0  0  0  0  0  0  0  0  0  0  0  0
   11.2760   -3.2480   24.2490 C   0  0  0  0  0  0  0  0  0  0  0  0
   10.5030   -4.3160   24.0180 C   0  0  0  0  0  0  0  0  0  0  0  0
    9.4560   -4.2740   23.1730 C   0  0  0  0  0  0  0  0  0  0  0  0
    8.6620   -4.7120   22.2600 N   0  0  0  0  0  0  0  0  0  0  0  0
  2  1  1  1
  2  3  1  0
  3  4  2  0
  3  5  1  0
  2  6  1  0
  6  7  2  0
  7  8  1  0
  8  9  1  0
  9 10  1  0
 10 11  2  0
 11 12  1  0
 12 13  2  0
 13 14  1  0
 13 15  1  0
 10 16  1  0
 15 16  2  0
  8 17  2  0
 16 17  1  0
 17 18  1  0
  6 19  1  0
 18 19  2  0
M  END
