MAK-UNK-0d6072ac-20
     RDKit          3D

 20 22  0  0  0  0  0  0  0  0999 V2000
    6.5050   -2.9840   22.0240 C   0  0  0  0  0  0  0  0  0  0  0  0
    7.8020   -3.1360   22.7700 C   0  0  0  0  0  0  0  0  0  0  0  0
    8.0620   -4.3290   23.7050 C   0  0  0  0  0  0  0  0  0  0  0  0
    6.9690   -5.3900   23.8590 C   0  0  2  0  0  0  0  0  0  0  0  0
    7.1770   -6.3690   22.7480 C   0  0  0  0  0  0  0  0  0  0  0  0
    5.5720   -4.8090   23.6990 C   0  0  0  0  0  0  0  0  0  0  0  0
    4.8530   -4.9190   22.5400 O   0  0  0  0  0  0  0  0  0  0  0  0
    5.0580   -4.1770   24.7770 O   0  0  0  0  0  0  0  0  0  0  0  0
    9.3660   -4.5260   24.4990 C   0  0  0  0  0  0  0  0  0  0  0  0
   10.3990   -3.5430   24.3510 C   0  0  0  0  0  0  0  0  0  0  0  0
   10.3380   -2.2940   23.4640 C   0  0  0  0  0  0  0  0  0  0  0  0
    8.8880   -2.2330   22.6970 C   0  0  0  0  0  0  0  0  0  0  0  0
    9.2750   -1.1160   22.1290 N   0  0  0  0  0  0  0  0  0  0  0  0
   10.2150   -1.5590   22.8990 C   0  0  0  0  0  0  0  0  0  0  0  0
   10.0930   -2.7490   23.6590 C   0  0  0  0  0  0  0  0  0  0  0  0
   11.1360   -3.2410   24.5200 C   0  0  0  0  0  0  0  0  0  0  0  0
   12.3560   -2.5750   24.6670 C   0  0  0  0  0  0  0  0  0  0  0  0
   13.6030   -3.1480   25.6830 Cl  0  0  0  0  0  0  0  0  0  0  0  0
   12.4590   -1.4300   23.9290 C   0  0  0  0  0  0  0  0  0  0  0  0
   11.3520   -1.1550   23.1880 C   0  0  0  0  0  0  0  0  0  0  0  0
  1  2  1  0
  2  3  2  0
  3  4  1  0
  4  5  1  6
  4  6  1  0
  6  7  2  0
  6  8  1  0
  3  9  1  0
  9 10  2  0
 10 11  1  0
  2 12  1  0
 11 12  2  0
 12 13  1  0
 13 14  1  0
 14 15  1  0
 15 16  2  0
 16 17  1  0
 17 18  1  0
 17 19  2  0
 11 20  1  0
 14 20  2  0
 19 20  1  0
M  END
