MAK-UNK-f983951f-14-acrylamide
     RDKit          3D

 13 13  0  0  0  0  0  0  0  0999 V2000
    6.0750   -5.1650   20.5350 C   0  0  0  0  0  0  0  0  0  0  0  0
    6.2860   -5.1970   22.0800 C   0  0  0  0  0  0  0  0  0  0  0  0
    5.2340   -4.3720   22.8690 C   0  0  0  0  0  0  0  0  0  0  0  0
    4.4400   -3.6540   22.2850 O   0  0  0  0  0  0  0  0  0  0  0  0
    5.2550   -4.4940   24.2750 N   0  0  0  0  0  0  0  0  0  0  0  0
    4.1400   -4.2030   25.2290 C   0  0  0  0  0  0  0  0  0  0  0  0
    4.0440   -5.3800   25.9650 C   0  0  0  0  0  0  0  0  0  0  0  0
    4.0320   -6.3660   26.5720 N   0  0  0  0  0  0  0  0  0  0  0  0
    4.4680   -3.0090   26.1600 C   0  0  0  0  0  0  0  0  0  0  0  0
    3.8600   -1.7890   25.6920 C   0  0  0  0  0  0  0  0  0  0  0  0
    2.4650   -1.8560   25.8010 C   0  0  0  0  0  0  0  0  0  0  0  0
    2.0100   -3.1120   25.3860 C   0  0  0  0  0  0  0  0  0  0  0  0
    2.9490   -3.8120   24.5990 C   0  0  0  0  0  0  0  0  0  0  0  0
  1  2  1  0
  2  3  1  0
  3  4  2  0
  3  5  1  0
  5  6  1  0
  6  7  1  0
  7  8  3  0
  6  9  1  0
  9 10  1  0
 10 11  1  0
 11 12  1  0
  6 13  1  0
 12 13  1  0
M  END
