MAK-UNK-ec98eaf6-43-chloroacetamide
     RDKit          3D

 19 21  0  0  0  0  0  0  0  0999 V2000
    7.3150   -3.0470   18.8380 C   0  0  0  0  0  0  0  0  0  0  0  0
    6.3370   -3.4290   19.9570 C   0  0  0  0  0  0  0  0  0  0  0  0
    5.5100   -4.3310   19.8190 O   0  0  0  0  0  0  0  0  0  0  0  0
    6.3970   -2.7170   21.1240 N   0  0  0  0  0  0  0  0  0  0  0  0
    5.9890   -3.2030   22.4640 C   0  0  0  0  0  0  0  0  0  0  0  0
    7.3520   -3.2310   23.1850 C   0  0  1  0  0  0  0  0  0  0  0  0
    7.8960   -3.0800   21.8230 C   0  0  0  0  0  0  0  0  0  0  0  0
    7.2950   -1.6520   21.4770 C   0  0  0  0  0  0  0  0  0  0  0  0
    8.6580   -1.6160   22.0990 C   0  0  0  0  0  0  0  0  0  0  0  0
    8.1230   -1.9480   23.5310 C   0  0  2  0  0  0  0  0  0  0  0  0
    9.3610   -2.1130   24.3150 N   0  0  0  0  0  0  0  0  0  0  0  0
   10.4130   -1.2380   23.8030 C   0  0  0  0  0  0  0  0  0  0  0  0
   10.2190    0.0610   24.0470 N   0  0  0  0  0  0  0  0  0  0  0  0
   11.2570    0.9200   23.5070 C   0  0  0  0  0  0  0  0  0  0  0  0
   11.1890    2.2980   23.6330 C   0  0  0  0  0  0  0  0  0  0  0  0
   12.4400    0.3870   22.7660 C   0  0  0  0  0  0  0  0  0  0  0  0
   12.4030   -0.9800   22.6420 C   0  0  0  0  0  0  0  0  0  0  0  0
   13.3730   -1.6350   21.9740 C   0  0  0  0  0  0  0  0  0  0  0  0
   11.4410   -1.7650   23.1380 N   0  0  0  0  0  0  0  0  0  0  0  0
  1  2  1  0
  2  3  2  0
  2  4  1  0
  4  5  1  0
  6  5  1  6
  6  7  1  0
  4  8  1  0
  7  8  1  0
  8  9  1  0
  6 10  1  0
  9 10  1  0
 10 11  1  1
 11 12  1  0
 12 13  2  0
 13 14  1  0
 14 15  1  0
 14 16  2  0
 16 17  1  0
 17 18  1  0
 12 19  1  0
 17 19  2  0
M  END
