MAK-UNK-148caf23-10-chloroacetamide
     RDKit          3D

 35 38  0  0  0  0  0  0  0  0999 V2000
    8.3880   -3.6320   20.1600 C   0  0  0  0  0  0  0  0  0  0  0  0
    7.5030   -2.4030   19.9430 C   0  0  0  0  0  0  0  0  0  0  0  0
    7.0080   -3.0630   18.8990 O   0  0  0  0  0  0  0  0  0  0  0  0
    8.2970   -2.0580   21.2630 C   0  0  0  0  0  0  0  0  0  0  0  0
    7.8540   -2.9060   22.4960 C   0  0  0  0  0  0  0  0  0  0  0  0
    8.5220   -2.5860   23.8490 C   0  0  0  0  0  0  0  0  0  0  0  0
    9.5360   -1.4680   23.7570 C   0  0  0  0  0  0  0  0  0  0  0  0
   10.1400   -1.0530   24.8890 N   0  0  0  0  0  0  0  0  0  0  0  0
    9.5630    0.2040   25.3030 C   0  0  0  0  0  0  0  0  0  0  0  0
    8.7110    0.2600   26.5980 C   0  0  2  0  0  0  0  0  0  0  0  0
    9.7320    0.0850   27.6620 N   0  0  0  0  0  0  0  0  0  0  0  0
    9.2270    0.3900   29.0190 C   0  0  0  0  0  0  0  0  0  0  0  0
    7.6290   -0.6010   26.7650 C   0  0  0  0  0  0  0  0  0  0  0  0
    7.1600   -1.0490   28.0100 C   0  0  0  0  0  0  0  0  0  0  0  0
    6.1750   -1.7770   27.5670 C   0  0  0  0  0  0  0  0  0  0  0  0
    5.4000   -2.4270   28.5270 C   0  0  0  0  0  0  0  0  0  0  0  0
    4.4860   -1.6830   29.2830 C   0  0  0  0  0  0  0  0  0  0  0  0
    3.6910   -2.2920   30.2460 C   0  0  0  0  0  0  0  0  0  0  0  0
    3.8110   -3.6850   30.4590 C   0  0  0  0  0  0  0  0  0  0  0  0
    4.7170   -4.4400   29.7160 C   0  0  0  0  0  0  0  0  0  0  0  0
    5.5070   -3.8140   28.7580 C   0  0  0  0  0  0  0  0  0  0  0  0
    6.3660   -4.5640   28.0610 F   0  0  0  0  0  0  0  0  0  0  0  0
    5.7230   -2.0610   26.6140 N   0  0  0  0  0  0  0  0  0  0  0  0
    4.4270   -3.0090   26.0880 S   0  0  0  0  0  0  0  0  0  0  0  0
    4.8860   -3.7310   24.9220 O   0  0  0  0  0  0  0  0  0  0  0  0
    3.9170   -3.7310   27.2330 O   0  0  0  0  0  0  0  0  0  0  0  0
    3.2540   -1.7950   25.6180 C   0  0  0  0  0  0  0  0  0  0  0  0
    3.5730   -0.8060   24.6360 C   0  0  0  0  0  0  0  0  0  0  0  0
    2.6000    0.2310   24.2210 C   0  0  0  0  0  0  0  0  0  0  0  0
    1.2700    0.0950   24.9620 C   0  0  0  0  0  0  0  0  0  0  0  0
    1.0180   -0.8680   25.8920 N   0  0  0  0  0  0  0  0  0  0  0  0
    1.9920   -1.7760   26.1980 C   0  0  0  0  0  0  0  0  0  0  0  0
    6.7240   -1.2400   25.8120 C   0  0  0  0  0  0  0  0  0  0  0  0
    9.9030   -0.8000   22.6720 N   0  0  0  0  0  0  0  0  0  0  0  0
    9.3000   -1.0920   21.4870 C   0  0  0  0  0  0  0  0  0  0  0  0
  1  2  1  0
  2  3  2  0
  2  4  1  0
  4  5  2  0
  5  6  1  0
  6  7  2  0
  7  8  1  0
  8  9  1  0
 10  9  1  6
 10 11  1  0
 11 12  1  0
 10 13  1  0
 13 14  1  0
 14 15  2  0
 15 16  1  0
 16 17  2  0
 17 18  1  0
 18 19  2  0
 19 20  1  0
 16 21  1  0
 20 21  2  0
 21 22  1  0
 15 23  1  0
 23 24  1  0
 24 25  2  0
 24 26  2  0
 24 27  1  0
 27 28  2  0
 28 29  1  0
 29 30  2  0
 30 31  1  0
 27 32  1  0
 31 32  2  0
 13 33  2  0
 23 33  1  0
  7 34  1  0
  4 35  1  0
 34 35  2  0
M  END
