MAK-UNK-5d2caa6f-2-chloroacetamide
     RDKit          3D

 30 34  0  0  0  0  0  0  0  0999 V2000
    7.5030   -2.9370   18.7320 C   0  0  0  0  0  0  0  0  0  0  0  0
    6.5610   -3.0260   19.9120 C   0  0  0  0  0  0  0  0  0  0  0  0
    5.6320   -3.8890   19.7740 O   0  0  0  0  0  0  0  0  0  0  0  0
    6.8510   -2.1190   21.0520 N   0  0  0  0  0  0  0  0  0  0  0  0
    6.2300   -2.3380   22.3340 C   0  0  0  0  0  0  0  0  0  0  0  0
    7.3500   -3.1250   23.0240 C   0  0  1  0  0  0  0  0  0  0  0  0
    6.5230   -4.2850   23.5570 C   0  0  0  0  0  0  0  0  0  0  0  0
    6.2830   -5.0300   22.2390 C   0  0  0  0  0  0  0  0  0  0  0  0
    5.3970   -6.3410   22.3880 C   0  0  0  0  0  0  0  0  0  0  0  0
    4.8960   -6.6890   23.8350 C   0  0  0  0  0  0  0  0  0  0  0  0
    5.2400   -5.8160   25.0760 C   0  0  0  0  0  0  0  0  0  0  0  0
    4.6780   -6.2280   26.6470 Cl  0  0  0  0  0  0  0  0  0  0  0  0
    6.0920   -4.5850   24.8380 C   0  0  0  0  0  0  0  0  0  0  0  0
    8.3560   -3.2540   21.8640 C   0  0  0  0  0  0  0  0  0  0  0  0
    8.2880   -1.8180   21.4030 C   0  0  2  0  0  0  0  0  0  0  0  0
    8.9180   -1.3720   22.7900 C   0  0  0  0  0  0  0  0  0  0  0  0
   10.0620   -0.2180   23.1380 C   0  0  0  0  0  0  0  0  0  0  0  0
   10.7290    0.6480   22.3310 O   0  0  0  0  0  0  0  0  0  0  0  0
   12.0220    1.0370   22.8040 C   0  0  0  0  0  0  0  0  0  0  0  0
   12.8750   -0.2130   22.8500 C   0  0  0  0  0  0  0  0  0  0  0  0
   12.0880   -1.2610   23.4550 N   0  0  0  0  0  0  0  0  0  0  0  0
   12.4150   -1.5410   24.8450 C   0  0  0  0  0  0  0  0  0  0  0  0
   13.3390   -2.7230   25.0760 C   0  0  0  0  0  0  0  0  0  0  0  0
   14.0130   -3.2200   23.9150 O   0  0  0  0  0  0  0  0  0  0  0  0
   13.5350   -2.7680   22.6400 C   0  0  0  0  0  0  0  0  0  0  0  0
   12.0860   -2.4400   22.6660 C   0  0  0  0  0  0  0  0  0  0  0  0
   10.1490   -0.3900   24.4640 C   0  0  0  0  0  0  0  0  0  0  0  0
    9.2680   -1.3480   24.3590 C   0  0  0  0  0  0  0  0  0  0  0  0
    8.6760   -2.1510   25.1780 C   0  0  0  0  0  0  0  0  0  0  0  0
    8.2990   -2.2610   23.8150 C   0  0  0  0  0  0  0  0  0  0  0  0
  1  2  1  0
  2  3  2  0
  2  4  1  0
  4  5  1  0
  5  6  1  0
  6  7  1  1
  7  8  2  0
  8  9  1  0
  9 10  2  0
 10 11  1  0
 11 12  1  0
  7 13  1  0
 11 13  2  0
  6 14  1  0
 15  4  1  1
 14 15  1  0
 15 16  1  0
 16 17  1  0
 17 18  1  0
 18 19  1  0
 19 20  1  0
 20 21  1  0
 21 22  1  0
 22 23  1  0
 23 24  1  0
 24 25  1  0
 21 26  1  0
 25 26  1  0
 17 27  2  0
 27 28  1  0
 28 29  2  0
  6 30  1  0
 16 30  2  0
 29 30  1  0
M  END
