MAK-UNK-8fdbca50-30-chloroacetamide
     RDKit          3D

 39 42  0  0  0  0  0  0  0  0999 V2000
    7.6110   -4.5650   20.6670 C   0  0  0  0  0  0  0  0  0  0  0  0
    6.1510   -4.1770   20.7710 C   0  0  0  0  0  0  0  0  0  0  0  0
    5.3590   -4.1700   19.8170 O   0  0  0  0  0  0  0  0  0  0  0  0
    5.6680   -3.8280   22.0180 N   0  0  0  0  0  0  0  0  0  0  0  0
    5.7430   -4.6840   23.1000 C   0  0  0  0  0  0  0  0  0  0  0  0
    6.6700   -4.2230   24.2520 C   0  0  0  0  0  0  0  0  0  0  0  0
    7.4040   -2.9590   23.8140 C   0  0  0  0  0  0  0  0  0  0  0  0
    8.0990   -2.5000   25.1020 C   0  0  0  0  0  0  0  0  0  0  0  0
    8.2150   -3.2660   26.0680 O   0  0  0  0  0  0  0  0  0  0  0  0
    8.5770   -1.1690   25.0890 N   0  0  0  0  0  0  0  0  0  0  0  0
    9.7990   -0.9490   24.3100 C   0  0  0  0  0  0  0  0  0  0  0  0
   10.6570   -2.1040   23.9690 C   0  0  0  0  0  0  0  0  0  0  0  0
   11.8750   -2.0490   23.2560 C   0  0  0  0  0  0  0  0  0  0  0  0
   12.2440   -0.8120   22.8670 C   0  0  0  0  0  0  0  0  0  0  0  0
   13.3790   -0.6950   22.2370 F   0  0  0  0  0  0  0  0  0  0  0  0
   11.4360    0.3520   23.1300 C   0  0  0  0  0  0  0  0  0  0  0  0
   11.8660    1.6540   22.6350 C   0  0  0  0  0  0  0  0  0  0  0  0
   13.2460    1.9700   22.5340 C   0  0  0  0  0  0  0  0  0  0  0  0
   13.1460    3.2440   22.0360 C   0  0  0  0  0  0  0  0  0  0  0  0
   14.3050    3.9780   21.7460 C   0  0  0  0  0  0  0  0  0  0  0  0
   15.0530    4.8350   22.5760 N   0  0  0  0  0  0  0  0  0  0  0  0
   16.4460    4.5130   22.9070 C   0  0  0  0  0  0  0  0  0  0  0  0
   11.7810    3.6310   21.8690 C   0  0  0  0  0  0  0  0  0  0  0  0
   10.9120    2.5920   22.2350 N   0  0  0  0  0  0  0  0  0  0  0  0
    9.1500    2.4940   22.1800 S   0  0  0  0  0  0  0  0  0  0  0  0
    8.6520    1.7190   23.2820 O   0  0  0  0  0  0  0  0  0  0  0  0
    8.7710    2.1150   20.8610 O   0  0  0  0  0  0  0  0  0  0  0  0
    8.5960    4.1730   22.3330 C   0  0  0  0  0  0  0  0  0  0  0  0
    7.3060    4.5760   22.0530 C   0  0  0  0  0  0  0  0  0  0  0  0
    6.9210    5.8990   22.1840 C   0  0  0  0  0  0  0  0  0  0  0  0
    7.8890    6.7980   22.6190 C   0  0  0  0  0  0  0  0  0  0  0  0
    9.1850    6.4210   22.9130 N   0  0  0  0  0  0  0  0  0  0  0  0
    9.4990    5.1050   22.7450 C   0  0  0  0  0  0  0  0  0  0  0  0
   10.2560    0.2390   23.8380 C   0  0  0  0  0  0  0  0  0  0  0  0
    8.2490   -0.1770   26.1410 C   0  0  0  0  0  0  0  0  0  0  0  0
    9.1000   -0.2580   27.2210 C   0  0  0  0  0  0  0  0  0  0  0  0
    6.8320   -0.4310   26.6730 C   0  0  0  0  0  0  0  0  0  0  0  0
    6.4170   -1.8790   23.3170 C   0  0  0  0  0  0  0  0  0  0  0  0
    5.3570   -2.4510   22.3770 C   0  0  0  0  0  0  0  0  0  0  0  0
  1  2  1  0
  2  3  2  0
  2  4  1  0
  4  5  1  0
  5  6  1  0
  6  7  1  0
  7  8  1  0
  8  9  2  0
  8 10  1  0
 10 11  1  0
 11 12  2  0
 12 13  1  0
 13 14  2  0
 14 15  1  0
 14 16  1  0
 16 17  1  0
 17 18  2  0
 18 19  1  0
 19 20  1  0
 20 21  1  0
 21 22  1  0
 19 23  2  0
 17 24  1  0
 23 24  1  0
 24 25  1  0
 25 26  2  0
 25 27  2  0
 25 28  1  0
 28 29  2  0
 29 30  1  0
 30 31  2  0
 31 32  1  0
 28 33  1  0
 32 33  2  0
 11 34  1  0
 16 34  2  0
 10 35  1  0
 35 36  1  0
 35 37  1  0
  7 38  1  0
  4 39  1  0
 38 39  1  0
M  END
