MAK-UNK-8fdbca50-18-chloroacetamide
     RDKit          3D

 39 42  0  0  0  0  0  0  0  0999 V2000
    8.2960   -5.2080   20.4960 C   0  0  0  0  0  0  0  0  0  0  0  0
    6.7940   -5.2870   20.2880 C   0  0  0  0  0  0  0  0  0  0  0  0
    6.1970   -6.1340   19.6430 O   0  0  0  0  0  0  0  0  0  0  0  0
    6.0060   -4.3400   20.8900 N   0  0  0  0  0  0  0  0  0  0  0  0
    5.4420   -4.6110   22.1270 C   0  0  0  0  0  0  0  0  0  0  0  0
    4.6860   -3.4770   22.8310 C   0  0  0  0  0  0  0  0  0  0  0  0
    5.4910   -2.2160   22.6330 C   0  0  0  0  0  0  0  0  0  0  0  0
    4.6270   -1.1650   23.3030 C   0  0  0  0  0  0  0  0  0  0  0  0
    3.6890   -1.4820   24.0480 O   0  0  0  0  0  0  0  0  0  0  0  0
    4.9990    0.1540   23.0020 N   0  0  0  0  0  0  0  0  0  0  0  0
    4.3320    0.7830   21.8320 C   0  0  0  0  0  0  0  0  0  0  0  0
    3.6240    2.0180   22.3730 C   0  0  0  0  0  0  0  0  0  0  0  0
    5.1760    1.0970   20.7630 C   0  0  0  0  0  0  0  0  0  0  0  0
    6.1660    0.6670   23.5090 C   0  0  2  0  0  0  0  0  0  0  0  0
    6.9470    1.5280   22.7350 N   0  0  0  0  0  0  0  0  0  0  0  0
    7.8870    1.0330   21.7560 C   0  0  0  0  0  0  0  0  0  0  0  0
    6.8900   -0.4670   24.1820 C   0  0  0  0  0  0  0  0  0  0  0  0
    6.3860   -1.3410   25.2540 C   0  0  0  0  0  0  0  0  0  0  0  0
    7.4070   -2.1750   25.4830 C   0  0  0  0  0  0  0  0  0  0  0  0
    7.3920   -3.1980   26.4320 C   0  0  0  0  0  0  0  0  0  0  0  0
    8.1990   -4.3080   26.2530 C   0  0  0  0  0  0  0  0  0  0  0  0
    8.2570   -5.3690   27.1370 C   0  0  0  0  0  0  0  0  0  0  0  0
    7.5050   -5.4220   28.2910 C   0  0  0  0  0  0  0  0  0  0  0  0
    6.6640   -4.3630   28.5640 C   0  0  0  0  0  0  0  0  0  0  0  0
    6.5300   -3.2410   27.7390 C   0  0  0  0  0  0  0  0  0  0  0  0
    5.6870   -2.2530   28.0830 F   0  0  0  0  0  0  0  0  0  0  0  0
    8.5340   -1.9820   24.7160 N   0  0  0  0  0  0  0  0  0  0  0  0
   10.0290   -2.8010   24.6870 S   0  0  0  0  0  0  0  0  0  0  0  0
    9.9100   -3.8720   23.7280 O   0  0  0  0  0  0  0  0  0  0  0  0
   10.3790   -3.0170   26.0520 O   0  0  0  0  0  0  0  0  0  0  0  0
   11.1170   -1.6130   24.0010 C   0  0  0  0  0  0  0  0  0  0  0  0
   11.9610   -1.9900   22.9520 C   0  0  0  0  0  0  0  0  0  0  0  0
   12.9640   -1.0360   22.2690 C   0  0  0  0  0  0  0  0  0  0  0  0
   12.7900    0.3200   22.9940 C   0  0  0  0  0  0  0  0  0  0  0  0
   11.9510    0.6200   23.9970 N   0  0  0  0  0  0  0  0  0  0  0  0
   11.1390   -0.3300   24.4850 C   0  0  0  0  0  0  0  0  0  0  0  0
    8.2140   -0.9170   23.9040 C   0  0  0  0  0  0  0  0  0  0  0  0
    5.6710   -1.8620   21.1500 C   0  0  0  0  0  0  0  0  0  0  0  0
    5.6840   -3.0690   20.2270 C   0  0  0  0  0  0  0  0  0  0  0  0
  1  2  1  0
  2  3  2  0
  2  4  1  0
  4  5  1  0
  5  6  1  0
  6  7  1  0
  7  8  1  0
  8  9  2  0
  8 10  1  0
 10 11  1  0
 11 12  1  0
 11 13  1  0
 10 14  1  0
 14 15  1  6
 15 16  1  0
 14 17  1  0
 17 18  1  0
 18 19  2  0
 19 20  1  0
 20 21  2  0
 21 22  1  0
 22 23  2  0
 23 24  1  0
 20 25  1  0
 24 25  2  0
 25 26  1  0
 19 27  1  0
 27 28  1  0
 28 29  2  0
 28 30  2  0
 28 31  1  0
 31 32  2  0
 32 33  1  0
 33 34  2  0
 34 35  1  0
 31 36  1  0
 35 36  2  0
 17 37  2  0
 27 37  1  0
  7 38  1  0
  4 39  1  0
 38 39  1  0
M  END
