MAK-UNK-212f693e-8-nitrile
     RDKit          3D

 14 15  0  0  0  0  0  0  0  0999 V2000
    6.3960   -4.4720   20.3730 C   0  0  0  0  0  0  0  0  0  0  0  0
    5.2540   -4.2600   19.8420 N   0  0  0  0  0  0  0  0  0  0  0  0
    6.5540   -5.1600   21.5760 N   0  0  0  0  0  0  0  0  0  0  0  0
    5.7040   -6.1340   21.9360 C   0  0  0  0  0  0  0  0  0  0  0  0
    4.8030   -5.8800   23.1580 C   0  0  0  0  0  0  0  0  0  0  0  0
    5.4370   -5.2190   24.1880 N   0  0  0  0  0  0  0  0  0  0  0  0
    4.7590   -4.9600   25.4950 C   0  0  0  0  0  0  0  0  0  0  0  0
    3.6760   -3.8930   25.5170 C   0  0  0  0  0  0  0  0  0  0  0  0
    3.7410   -2.5090   25.7000 C   0  0  0  0  0  0  0  0  0  0  0  0
    2.6210   -1.7470   25.6880 C   0  0  0  0  0  0  0  0  0  0  0  0
    1.2510   -2.6610   25.4490 S   0  0  0  0  0  0  0  0  0  0  0  0
    2.2370   -4.0600   25.3580 C   0  0  0  0  0  0  0  0  0  0  0  0
    6.1880   -4.1650   23.6700 C   0  0  0  0  0  0  0  0  0  0  0  0
    7.1610   -4.6210   22.7360 C   0  0  0  0  0  0  0  0  0  0  0  0
  1  2  2  3
  1  3  1  0
  3  4  1  0
  4  5  1  0
  5  6  1  0
  6  7  1  0
  7  8  1  0
  8  9  1  0
  9 10  2  0
 10 11  1  0
  8 12  2  0
 11 12  1  0
  6 13  1  0
  3 14  1  0
 13 14  1  0
M  END
