MAK-UNK-176ca439-3-chloroacetamide
     RDKit          3D

 23 24  0  0  0  0  0  0  0  0999 V2000
    7.1150   -2.9560   18.7210 C   0  0  0  0  0  0  0  0  0  0  0  0
    6.2100   -3.2920   19.8510 C   0  0  0  0  0  0  0  0  0  0  0  0
    5.3550   -4.1750   19.7610 O   0  0  0  0  0  0  0  0  0  0  0  0
    6.4020   -2.5620   21.0200 N   0  0  0  0  0  0  0  0  0  0  0  0
    6.1980   -3.1270   22.3590 C   0  0  0  0  0  0  0  0  0  0  0  0
    7.4110   -3.3590   23.0090 C   0  0  0  0  0  0  0  0  0  0  0  0
    8.2660   -2.1500   23.0900 N   0  0  0  0  0  0  0  0  0  0  0  0
    9.4390   -2.3350   23.9320 C   0  0  0  0  0  0  0  0  0  0  0  0
   10.4450   -1.4090   23.6700 C   0  0  0  0  0  0  0  0  0  0  0  0
   11.8300   -1.9020   23.2080 C   0  0  0  0  0  0  0  0  0  0  0  0
   12.8830   -0.8410   22.9370 C   0  0  0  0  0  0  0  0  0  0  0  0
   12.5340    0.5960   23.1280 C   0  0  0  0  0  0  0  0  0  0  0  0
   11.1580    1.0010   23.5800 C   0  0  0  0  0  0  0  0  0  0  0  0
   10.8520    2.3690   23.7440 C   0  0  0  0  0  0  0  0  0  0  0  0
   11.8390    3.2520   23.1870 O   0  0  0  0  0  0  0  0  0  0  0  0
    9.3690    2.9170   24.5230 S   0  0  0  0  0  0  0  0  0  0  0  0
    9.7980    4.6540   24.8800 C   0  0  0  0  0  0  0  0  0  0  0  0
    8.9470    5.2130   25.8180 C   0  0  0  0  0  0  0  0  0  0  0  0
    9.0130    4.5890   27.1470 N   0  0  0  0  0  0  0  0  0  0  0  0
    8.2940    3.3810   27.2380 C   0  0  0  0  0  0  0  0  0  0  0  0
   10.1760   -0.0110   23.8330 C   0  0  0  0  0  0  0  0  0  0  0  0
    8.5430   -1.5460   21.7860 C   0  0  0  0  0  0  0  0  0  0  0  0
    7.2090   -1.3270   21.0330 C   0  0  0  0  0  0  0  0  0  0  0  0
  1  2  1  0
  2  3  2  0
  2  4  1  0
  4  5  1  0
  5  6  1  0
  6  7  1  0
  7  8  1  0
  8  9  1  0
  9 10  2  0
 10 11  1  0
 11 12  2  0
 12 13  1  0
 13 14  1  0
 14 15  2  0
 14 16  1  0
 16 17  1  0
 17 18  1  0
 18 19  1  0
 19 20  1  0
  9 21  1  0
 13 21  2  0
  7 22  1  0
  4 23  1  0
 22 23  1  0
M  END
