MAK-UNK-e4a48a85-26-chloroacetamide
     RDKit          3D

 26 28  0  0  0  0  0  0  0  0999 V2000
    7.1580   -2.9390   18.7010 C   0  0  0  0  0  0  0  0  0  0  0  0
    6.2630   -3.2410   19.8490 C   0  0  0  0  0  0  0  0  0  0  0  0
    5.3930   -4.1170   19.7350 O   0  0  0  0  0  0  0  0  0  0  0  0
    6.4550   -2.5340   21.0350 N   0  0  0  0  0  0  0  0  0  0  0  0
    6.1600   -3.0490   22.3590 C   0  0  0  0  0  0  0  0  0  0  0  0
    7.3550   -3.4030   23.0470 C   0  0  0  0  0  0  0  0  0  0  0  0
    8.2890   -2.2210   23.1350 N   0  0  0  0  0  0  0  0  0  0  0  0
    9.4450   -2.3750   23.8500 C   0  0  0  0  0  0  0  0  0  0  0  0
   10.4220   -1.4130   23.5740 C   0  0  0  0  0  0  0  0  0  0  0  0
   11.6510   -1.8440   23.0710 C   0  0  0  0  0  0  0  0  0  0  0  0
   12.7690   -0.8590   22.7610 C   0  0  0  0  0  0  0  0  0  0  0  0
   12.5680    0.4870   22.9700 C   0  0  0  0  0  0  0  0  0  0  0  0
   11.2550    0.9250   23.4870 C   0  0  0  0  0  0  0  0  0  0  0  0
   11.0110    2.2810   23.6820 C   0  0  0  0  0  0  0  0  0  0  0  0
   10.2390   -0.0140   23.7760 C   0  0  0  0  0  0  0  0  0  0  0  0
    9.0220    0.4910   24.2660 C   0  0  0  0  0  0  0  0  0  0  0  0
    8.2750    1.1200   23.2090 O   0  0  0  0  0  0  0  0  0  0  0  0
    8.6280    0.4000   25.6120 N   0  0  0  0  0  0  0  0  0  0  0  0
    9.3710   -0.3650   26.6330 C   0  0  0  0  0  0  0  0  0  0  0  0
    9.1710    0.0770   27.9620 C   0  0  0  0  0  0  0  0  0  0  0  0
    8.1520    1.2450   28.0020 C   0  0  0  0  0  0  0  0  0  0  0  0
    7.7200    1.4410   29.3460 O   0  0  0  0  0  0  0  0  0  0  0  0
    7.0240    1.1660   27.1910 C   0  0  0  0  0  0  0  0  0  0  0  0
    7.1970    0.6680   25.8990 C   0  0  0  0  0  0  0  0  0  0  0  0
    8.5430   -1.6680   21.7980 C   0  0  0  0  0  0  0  0  0  0  0  0
    7.3990   -1.4010   21.0350 C   0  0  0  0  0  0  0  0  0  0  0  0
  1  2  1  0
  2  3  2  0
  2  4  1  0
  4  5  1  0
  5  6  1  0
  6  7  1  0
  7  8  1  0
  8  9  1  0
  9 10  2  0
 10 11  1  0
 11 12  2  0
 12 13  1  0
 13 14  1  0
  9 15  1  0
 13 15  2  0
 15 16  1  0
 16 17  2  0
 16 18  1  0
 18 19  1  0
 19 20  1  0
 20 21  1  0
 21 22  1  0
 21 23  1  0
 18 24  1  0
 23 24  1  0
  7 25  1  0
  4 26  1  0
 25 26  1  0
M  END
