MAK-UNK-ec98eaf6-7-acrylamide
     RDKit          3D

 26 29  0  0  0  0  0  0  0  0999 V2000
    7.3270   -2.8280   18.2880 C   0  0  0  0  0  0  0  0  0  0  0  0
    6.2640   -2.2620   19.2210 C   0  0  0  0  0  0  0  0  0  0  0  0
    5.7630   -3.2690   20.2060 C   0  0  0  0  0  0  0  0  0  0  0  0
    5.1890   -4.3310   19.9220 O   0  0  0  0  0  0  0  0  0  0  0  0
    6.0440   -2.8680   21.4560 N   0  0  0  0  0  0  0  0  0  0  0  0
    5.6620   -3.4960   22.7330 C   0  0  0  0  0  0  0  0  0  0  0  0
    6.8290   -3.1030   23.6850 C   0  0  1  0  0  0  0  0  0  0  0  0
    7.9000   -3.3060   22.6450 C   0  0  0  0  0  0  0  0  0  0  0  0
    7.3360   -2.2420   21.7010 C   0  0  2  0  0  0  0  0  0  0  0  0
    7.1610   -1.0300   22.5630 C   0  0  0  0  0  0  0  0  0  0  0  0
    6.8620   -1.6200   23.9010 N   0  0  0  0  0  0  0  0  0  0  0  0
    7.9040   -1.2450   24.8440 C   0  0  0  0  0  0  0  0  0  0  0  0
    9.0760   -0.7060   24.2970 C   0  0  0  0  0  0  0  0  0  0  0  0
    9.4710    0.4870   24.7820 N   0  0  0  0  0  0  0  0  0  0  0  0
   10.6120    0.9570   24.2860 C   0  0  0  0  0  0  0  0  0  0  0  0
   11.3390    0.2870   23.3480 C   0  0  0  0  0  0  0  0  0  0  0  0
   12.5180    0.6910   22.8990 C   0  0  0  0  0  0  0  0  0  0  0  0
   12.9520   -0.5200   23.2940 C   0  0  0  0  0  0  0  0  0  0  0  0
   13.2950   -1.5220   22.4240 C   0  0  0  0  0  0  0  0  0  0  0  0
   13.6510   -2.7410   23.0000 C   0  0  0  0  0  0  0  0  0  0  0  0
   13.6830   -2.9350   24.3660 C   0  0  0  0  0  0  0  0  0  0  0  0
   13.3580   -1.9420   25.2020 C   0  0  0  0  0  0  0  0  0  0  0  0
   12.9810   -0.7330   24.6660 C   0  0  0  0  0  0  0  0  0  0  0  0
   10.8360   -0.9120   22.8790 C   0  0  0  0  0  0  0  0  0  0  0  0
   11.4780   -1.6960   21.8910 N   0  0  0  0  0  0  0  0  0  0  0  0
    9.7120   -1.4170   23.3460 N   0  0  0  0  0  0  0  0  0  0  0  0
  1  2  1  0
  2  3  1  0
  3  4  2  0
  3  5  1  0
  5  6  1  0
  7  6  1  6
  7  8  1  0
  5  9  1  0
  8  9  1  0
  9 10  1  1
  7 11  1  0
 10 11  1  0
 11 12  1  0
 12 13  1  0
 13 14  2  0
 14 15  1  0
 15 16  2  0
 16 17  1  0
 17 18  1  0
 18 19  2  0
 19 20  1  0
 20 21  2  0
 21 22  1  0
 18 23  1  0
 22 23  2  0
 16 24  1  0
 24 25  1  0
 13 26  1  0
 24 26  2  0
M  END
