MAK-UNK-516d8086-5-chloroacetamide
     RDKit          3D

 23 25  0  0  0  0  0  0  0  0999 V2000
    7.0000   -5.0440   20.2430 C   0  0  0  0  0  0  0  0  0  0  0  0
    5.9390   -4.1240   20.6040 C   0  0  0  0  0  0  0  0  0  0  0  0
    5.0330   -4.0690   19.7490 O   0  0  0  0  0  0  0  0  0  0  0  0
    6.2380   -3.3160   21.9730 C   0  0  0  0  0  0  0  0  0  0  0  0
    5.1160   -2.6000   22.6900 C   0  0  0  0  0  0  0  0  0  0  0  0
    5.3050   -1.8950   23.8440 N   0  0  0  0  0  0  0  0  0  0  0  0
    6.5800   -1.8340   24.3780 C   0  0  0  0  0  0  0  0  0  0  0  0
    6.7980   -1.0960   25.5810 N   0  0  0  0  0  0  0  0  0  0  0  0
    6.9400    0.3510   25.3690 C   0  0  0  0  0  0  0  0  0  0  0  0
    8.3010    0.6520   25.3020 C   0  0  0  0  0  0  0  0  0  0  0  0
    7.7420   -2.4810   23.7910 C   0  0  0  0  0  0  0  0  0  0  0  0
    9.0950   -2.4860   24.2490 C   0  0  0  0  0  0  0  0  0  0  0  0
    9.7560   -1.4450   23.6210 C   0  0  0  0  0  0  0  0  0  0  0  0
    8.4360   -1.5250   23.3600 C   0  0  0  0  0  0  0  0  0  0  0  0
    7.9510   -2.6560   24.0890 C   0  0  0  0  0  0  0  0  0  0  0  0
    8.8980   -3.4030   24.8780 C   0  0  0  0  0  0  0  0  0  0  0  0
   10.2710   -3.1280   25.0050 C   0  0  0  0  0  0  0  0  0  0  0  0
   10.7790   -2.0410   24.3150 C   0  0  0  0  0  0  0  0  0  0  0  0
   10.8480   -4.1400   25.9010 C   0  0  0  0  0  0  0  0  0  0  0  0
   12.0120   -4.2690   26.2650 O   0  0  0  0  0  0  0  0  0  0  0  0
    9.8520   -5.0300   26.3480 C   0  0  0  0  0  0  0  0  0  0  0  0
    8.5180   -4.6260   25.7040 C   0  0  0  0  0  0  0  0  0  0  0  0
    7.4990   -3.2760   22.4770 C   0  0  0  0  0  0  0  0  0  0  0  0
  1  2  1  0
  2  3  2  0
  2  4  1  0
  4  5  2  0
  5  6  1  0
  6  7  2  0
  7  8  1  0
  8  9  1  0
  9 10  1  0
  7 11  1  0
 11 12  1  0
 12 13  1  0
 13 14  2  0
 14 15  1  0
 15 16  2  0
 16 17  1  0
 13 18  1  0
 17 18  2  0
 17 19  1  0
 19 20  2  0
 19 21  1  0
 16 22  1  0
 21 22  1  0
  4 23  1  0
 11 23  2  0
M  END
