MAK-UNK-6ca90168-20-nitrile
     RDKit          3D

 15 16  0  0  0  0  0  0  0  0999 V2000
    6.7230   -3.4130   19.6860 C   0  0  0  0  0  0  0  0  0  0  0  0
    5.8290   -3.1600   18.8230 N   0  0  0  0  0  0  0  0  0  0  0  0
    6.7090   -2.6970   20.8640 N   0  0  0  0  0  0  0  0  0  0  0  0
    7.4240   -1.4080   20.9140 C   0  0  0  0  0  0  0  0  0  0  0  0
    8.6790   -1.4790   21.7980 C   0  0  0  0  0  0  0  0  0  0  0  0
    8.5680   -2.2850   23.0290 N   0  0  0  0  0  0  0  0  0  0  0  0
    9.7730   -2.3300   23.7410 C   0  0  0  0  0  0  0  0  0  0  0  0
   10.0930   -3.3520   24.3430 O   0  0  0  0  0  0  0  0  0  0  0  0
   10.6370   -1.1510   23.7220 C   0  0  0  0  0  0  0  0  0  0  0  0
   10.2040    0.0720   24.2370 C   0  0  0  0  0  0  0  0  0  0  0  0
   11.2070    0.9640   24.0630 C   0  0  0  0  0  0  0  0  0  0  0  0
   12.5360    0.2920   23.3330 S   0  0  0  0  0  0  0  0  0  0  0  0
   11.9470   -1.3430   23.1330 C   0  0  0  0  0  0  0  0  0  0  0  0
    7.5740   -3.4010   23.0520 C   0  0  0  0  0  0  0  0  0  0  0  0
    6.3060   -3.1700   22.1980 C   0  0  0  0  0  0  0  0  0  0  0  0
  1  2  2  3
  1  3  1  0
  3  4  1  0
  4  5  1  0
  5  6  1  0
  6  7  1  0
  7  8  2  0
  7  9  1  0
  9 10  1  0
 10 11  2  0
 11 12  1  0
  9 13  2  0
 12 13  1  0
  6 14  1  0
  3 15  1  0
 14 15  1  0
M  END
