MAK-UNK-9a6be56d-14
     RDKit          3D

 38 42  0  0  0  0  0  0  0  0999 V2000
    6.7590   -6.4460   22.8310 C   0  0  0  0  0  0  0  0  0  0  0  0
    6.7830   -5.3780   21.9710 N   0  0  0  0  0  0  0  0  0  0  0  0
    5.7400   -4.5000   21.8590 C   0  0  0  0  0  0  0  0  0  0  0  0
    6.0720   -3.3430   22.5680 C   0  0  0  0  0  0  0  0  0  0  0  0
    5.3590   -2.1310   22.4710 C   0  0  0  0  0  0  0  0  0  0  0  0
    5.8990   -1.2080   23.2750 C   0  0  0  0  0  0  0  0  0  0  0  0
    5.4000    0.0880   23.4070 C   0  0  0  0  0  0  0  0  0  0  0  0
    4.8190    0.4600   24.6260 C   0  0  0  0  0  0  0  0  0  0  0  0
    4.2390    1.8550   24.8760 C   0  0  0  0  0  0  0  0  0  0  0  0
    4.3150    2.7440   23.8230 C   0  0  0  0  0  0  0  0  0  0  0  0
    4.9290    2.3290   22.5510 C   0  0  0  0  0  0  0  0  0  0  0  0
    5.4510    1.0410   22.3620 C   0  0  0  0  0  0  0  0  0  0  0  0
    5.9940    0.7300   21.1770 F   0  0  0  0  0  0  0  0  0  0  0  0
    6.9850   -1.7350   23.9370 N   0  0  0  0  0  0  0  0  0  0  0  0
    8.0180   -1.0130   25.0840 S   0  0  1  0  0  0  0  0  0  0  0  0
    9.3480   -0.5060   25.3390 O   0  0  0  0  0  0  0  0  0  0  0  0
    9.2650   -0.9220   23.8300 C   0  0  0  0  0  0  0  0  0  0  0  0
   10.5290   -0.4660   24.0450 N   0  0  0  0  0  0  0  0  0  0  0  0
   11.4310   -1.4820   23.9900 C   0  0  0  0  0  0  0  0  0  0  0  0
   12.3010   -1.4720   22.9100 C   0  0  0  0  0  0  0  0  0  0  0  0
   13.1760   -0.3930   22.9350 C   0  0  0  0  0  0  0  0  0  0  0  0
   12.3900    0.9190   23.1670 C   0  0  0  0  0  0  0  0  0  0  0  0
   12.9620    2.1420   22.8550 C   0  0  0  0  0  0  0  0  0  0  0  0
   12.2650    3.3080   23.0500 C   0  0  0  0  0  0  0  0  0  0  0  0
   10.9910    3.3310   23.5670 C   0  0  0  0  0  0  0  0  0  0  0  0
   10.1600    4.8660   23.8160 S   0  0  0  0  0  0  0  0  0  0  0  0
   11.2980    6.0450   23.4120 N   0  0  0  0  0  0  0  0  0  0  0  0
    9.8650    5.0520   25.2150 O   0  0  0  0  0  0  0  0  0  0  0  0
    9.0360    5.0120   22.9210 O   0  0  0  0  0  0  0  0  0  0  0  0
   10.3950    2.1000   23.8970 C   0  0  0  0  0  0  0  0  0  0  0  0
   11.0910    0.8890   23.7000 C   0  0  0  0  0  0  0  0  0  0  0  0
    7.4650   -0.7690   26.7450 C   0  0  0  0  0  0  0  0  0  0  0  0
    6.1910   -1.1710   27.1470 C   0  0  0  0  0  0  0  0  0  0  0  0
    5.7670   -0.9870   28.4540 C   0  0  0  0  0  0  0  0  0  0  0  0
    6.6590   -0.3920   29.3340 C   0  0  0  0  0  0  0  0  0  0  0  0
    7.9050    0.0130   28.9750 N   0  0  0  0  0  0  0  0  0  0  0  0
    8.2850   -0.1850   27.6840 C   0  0  0  0  0  0  0  0  0  0  0  0
    7.1030   -3.0710   23.4990 C   0  0  0  0  0  0  0  0  0  0  0  0
  1  2  1  0
  2  3  1  0
  3  4  1  0
  4  5  1  0
  5  6  2  0
  6  7  1  0
  7  8  2  0
  8  9  1  0
  9 10  2  0
 10 11  1  0
  7 12  1  0
 11 12  2  0
 12 13  1  0
  6 14  1  0
 14 15  1  0
 15 16  2  0
 15 17  2  0
 17 18  1  0
 18 19  1  0
 19 20  1  0
 20 21  1  0
 21 22  1  0
 22 23  2  0
 23 24  1  0
 24 25  2  0
 25 26  1  0
 26 27  1  0
 26 28  2  0
 26 29  2  0
 25 30  1  0
 18 31  1  0
 22 31  1  0
 30 31  2  0
 15 32  1  6
 32 33  2  0
 33 34  1  0
 34 35  2  0
 35 36  1  0
 32 37  1  0
 36 37  2  0
  4 38  2  0
 14 38  1  0
M  END
