MAK-UNK-5e88aa6a-2
     RDKit          3D

 17 18  0  0  0  0  0  0  0  0999 V2000
   11.6140   -1.8490   23.7820 C   0  0  0  0  0  0  0  0  0  0  0  0
   12.2970   -1.2820   22.5720 C   0  0  0  0  0  0  0  0  0  0  0  0
   13.1060   -0.1520   22.6660 C   0  0  0  0  0  0  0  0  0  0  0  0
   12.6190    1.0830   23.1980 C   0  0  2  0  0  0  0  0  0  0  0  0
   11.2640    1.1070   23.3430 C   0  0  0  0  0  0  0  0  0  0  0  0
   10.6330    2.3370   23.6120 C   0  0  0  0  0  0  0  0  0  0  0  0
   11.2480    3.5610   23.2700 C   0  0  1  0  0  0  0  0  0  0  0  0
   11.1110    4.3290   24.4670 O   0  0  0  0  0  0  0  0  0  0  0  0
   11.2300    5.6930   24.5590 C   0  0  0  0  0  0  0  0  0  0  0  0
   11.8380    6.3460   25.6110 C   0  0  0  0  0  0  0  0  0  0  0  0
   11.9370    7.7910   25.6740 C   0  0  0  0  0  0  0  0  0  0  0  0
   11.4210    8.5830   24.6800 C   0  0  0  0  0  0  0  0  0  0  0  0
   11.5490    9.9470   24.7990 C   0  0  0  0  0  0  0  0  0  0  0  0
   10.7950    7.9110   23.6110 C   0  0  0  0  0  0  0  0  0  0  0  0
   10.7050    6.5100   23.5450 C   0  0  0  0  0  0  0  0  0  0  0  0
   12.5890    3.6590   22.8950 C   0  0  0  0  0  0  0  0  0  0  0  0
   13.1760    2.3000   22.4340 C   0  0  0  0  0  0  0  0  0  0  0  0
  1  2  1  0
  2  3  1  0
  4  3  1  6
  4  5  1  0
  5  6  1  0
  6  7  1  0
  7  8  1  1
  8  9  1  0
  9 10  2  0
 10 11  1  0
 11 12  2  0
 12 13  1  0
 12 14  1  0
  9 15  1  0
 14 15  2  0
  7 16  1  0
  4 17  1  0
 16 17  1  0
M  END
