MAK-UNK-212f693e-27
     RDKit          3D

 16 17  0  0  0  0  0  0  0  0999 V2000
    5.4270   -4.7440   19.8450 O   0  0  0  0  0  0  0  0  0  0  0  0
    6.1770   -4.2770   20.6920 C   0  0  0  0  0  0  0  0  0  0  0  0
    6.8980   -2.9390   20.5040 C   0  0  0  0  0  0  0  0  0  0  0  0
    6.3750   -1.8130   19.3130 S   0  0  0  0  0  0  0  0  0  0  0  0
    6.4480   -4.9940   21.9230 N   0  0  0  0  0  0  0  0  0  0  0  0
    7.1290   -4.2600   22.9610 C   0  0  0  0  0  0  0  0  0  0  0  0
    6.5190   -4.5780   24.3020 C   0  0  0  0  0  0  0  0  0  0  0  0
    5.0420   -4.7100   24.1430 C   0  0  0  0  0  0  0  0  0  0  0  0
    4.4280   -4.8270   25.2090 O   0  0  0  0  0  0  0  0  0  0  0  0
    3.4600   -3.9010   25.4170 C   0  0  0  0  0  0  0  0  0  0  0  0
    3.6710   -2.5590   25.7430 C   0  0  0  0  0  0  0  0  0  0  0  0
    2.5400   -1.7530   25.9160 C   0  0  0  0  0  0  0  0  0  0  0  0
    1.0640   -2.6010   25.6870 S   0  0  0  0  0  0  0  0  0  0  0  0
    1.9390   -4.0270   25.3580 C   0  0  0  0  0  0  0  0  0  0  0  0
    4.6160   -5.6390   23.1620 C   0  0  0  0  0  0  0  0  0  0  0  0
    5.6520   -6.0750   22.3030 C   0  0  0  0  0  0  0  0  0  0  0  0
  1  2  2  0
  2  3  1  0
  3  4  2  0
  2  5  1  0
  5  6  1  0
  6  7  1  0
  7  8  1  0
  8  9  1  0
  9 10  1  0
 10 11  1  0
 11 12  2  0
 12 13  1  0
 10 14  2  0
 13 14  1  0
  8 15  1  0
  5 16  1  0
 15 16  1  0
M  END
