MAK-UNK-849bee6c-19-nitrile
     RDKit          3D

 26 28  0  0  0  0  0  0  0  0999 V2000
    6.3940   -4.4720   20.2370 C   0  0  0  0  0  0  0  0  0  0  0  0
    5.1880   -4.3750   19.8600 N   0  0  0  0  0  0  0  0  0  0  0  0
    6.8350   -3.7360   21.2980 N   0  0  0  0  0  0  0  0  0  0  0  0
    6.1330   -2.4660   21.4770 C   0  0  0  0  0  0  0  0  0  0  0  0
    7.5340   -2.3040   21.3040 C   0  0  0  0  0  0  0  0  0  0  0  0
    8.1680   -2.0710   22.5860 N   0  0  0  0  0  0  0  0  0  0  0  0
    9.3000   -1.2780   22.6160 C   0  0  0  0  0  0  0  0  0  0  0  0
    8.8770    0.1810   22.3760 C   0  0  0  0  0  0  0  0  0  0  0  0
    7.7440    0.4660   21.4200 C   0  0  0  0  0  0  0  0  0  0  0  0
    7.2350    1.8510   21.1290 C   0  0  0  0  0  0  0  0  0  0  0  0
    6.1680    2.0350   20.2380 C   0  0  0  0  0  0  0  0  0  0  0  0
    7.9010    2.8840   21.8160 C   0  0  0  0  0  0  0  0  0  0  0  0
    8.9630    2.6040   22.7090 C   0  0  0  0  0  0  0  0  0  0  0  0
    9.5510    3.7700   23.3680 N   0  0  0  0  0  0  0  0  0  0  0  0
   10.8640    4.1610   23.1210 C   0  0  0  0  0  0  0  0  0  0  0  0
   11.1190    5.5300   23.0780 C   0  0  0  0  0  0  0  0  0  0  0  0
   12.4120    6.0330   22.8470 C   0  0  0  0  0  0  0  0  0  0  0  0
   13.5510    5.2210   22.6390 C   0  0  0  0  0  0  0  0  0  0  0  0
   14.6440    4.9330   22.4410 N   0  0  0  0  0  0  0  0  0  0  0  0
   13.1830    3.8830   22.6940 C   0  0  0  0  0  0  0  0  0  0  0  0
   11.9600    3.3100   22.9170 C   0  0  0  0  0  0  0  0  0  0  0  0
   11.9220    1.9190   22.9230 C   0  0  0  0  0  0  0  0  0  0  0  0
   11.9710    0.5150   22.9390 N   0  0  0  0  0  0  0  0  0  0  0  0
    9.4390    1.2950   22.9790 C   0  0  0  0  0  0  0  0  0  0  0  0
    8.1410   -3.3330   23.3300 C   0  0  0  0  0  0  0  0  0  0  0  0
    7.1870   -4.3260   22.6280 C   0  0  0  0  0  0  0  0  0  0  0  0
  1  2  2  3
  1  3  1  0
  3  4  1  0
  4  5  1  0
  5  6  1  0
  6  7  1  0
  7  8  1  0
  8  9  2  0
  9 10  1  0
 10 11  1  0
 10 12  2  0
 12 13  1  0
 13 14  1  0
 14 15  1  0
 15 16  2  0
 16 17  1  0
 17 18  2  0
 18 19  1  0
 18 20  1  0
 15 21  1  0
 20 21  2  0
 21 22  1  0
 22 23  3  0
  8 24  1  0
 13 24  2  0
  6 25  1  0
  3 26  1  0
 25 26  1  0
M  END
