MAK-UNK-6ca90168-29-nitrile
     RDKit          3D

 11 11  0  0  0  0  0  0  0  0999 V2000
    7.6150   -3.2660   19.9950 C   0  0  0  0  0  0  0  0  0  0  0  0
    6.3300   -3.4330   19.6740 N   0  0  0  0  0  0  0  0  0  0  0  0
    8.1660   -2.6580   21.3300 N   0  0  0  0  0  0  0  0  0  0  0  0
    9.1360   -1.3730   21.5620 C   0  0  0  0  0  0  0  0  0  0  0  0
   10.1830   -0.1190   21.9000 C   0  0  0  0  0  0  0  0  0  0  0  0
   11.1340   -0.3390   23.0530 N   0  0  0  0  0  0  0  0  0  0  0  0
   11.5600   -1.1860   24.0670 C   0  0  0  0  0  0  0  0  0  0  0  0
   10.5530   -2.0520   23.6300 C   0  0  0  0  0  0  0  0  0  0  0  0
    9.5990   -2.1490   22.6710 C   0  0  0  0  0  0  0  0  0  0  0  0
    9.0050   -3.3590   23.0200 C   0  0  0  0  0  0  0  0  0  0  0  0
    8.4370   -4.2790   23.4220 N   0  0  0  0  0  0  0  0  0  0  0  0
  1  2  2  3
  1  3  1  0
  3  4  1  0
  4  5  2  0
  5  6  1  0
  6  7  2  0
  7  8  1  0
  4  9  1  0
  8  9  2  0
  9 10  1  0
 10 11  3  0
M  END
