MAK-UNK-176ca439-5-acrylamide
     RDKit          3D

 34 37  0  0  0  0  0  0  0  0999 V2000
    7.8610   -3.1760   19.2170 C   0  0  0  0  0  0  0  0  0  0  0  0
    6.6680   -2.3090   18.9350 C   0  0  0  0  0  0  0  0  0  0  0  0
    5.5880   -2.6510   19.8970 C   0  0  0  0  0  0  0  0  0  0  0  0
    4.7650   -3.4900   19.5570 O   0  0  0  0  0  0  0  0  0  0  0  0
    5.6380   -2.0280   21.1370 N   0  0  0  0  0  0  0  0  0  0  0  0
    6.4470   -0.8240   21.3920 C   0  0  0  0  0  0  0  0  0  0  0  0
    7.6690   -1.2080   21.9620 C   0  0  0  0  0  0  0  0  0  0  0  0
    7.6670   -1.8430   23.1890 N   0  0  0  0  0  0  0  0  0  0  0  0
    8.8970   -2.0680   23.9810 C   0  0  0  0  0  0  0  0  0  0  0  0
   10.0490   -1.1270   23.5930 C   0  0  0  0  0  0  0  0  0  0  0  0
   11.2580   -1.6530   22.8150 C   0  0  0  0  0  0  0  0  0  0  0  0
   12.3680   -0.6970   22.4420 C   0  0  0  0  0  0  0  0  0  0  0  0
   12.3320    0.7750   22.8070 C   0  0  0  0  0  0  0  0  0  0  0  0
   13.4040    1.6040   22.3980 C   0  0  0  0  0  0  0  0  0  0  0  0
   13.0010    3.0640   22.4470 N   0  0  0  0  0  0  0  0  0  0  0  0
   13.9830    4.1570   22.1070 C   0  0  0  0  0  0  0  0  0  0  0  0
   13.7080    5.3420   21.9540 O   0  0  0  0  0  0  0  0  0  0  0  0
   15.3510    3.9380   21.9040 C   0  0  0  0  0  0  0  0  0  0  0  0
   16.3310    4.7690   22.6980 N   0  0  0  0  0  0  0  0  0  0  0  0
   17.7300    4.4640   22.7330 C   0  0  0  0  0  0  0  0  0  0  0  0
   18.7320    5.5040   22.9830 C   0  0  0  0  0  0  0  0  0  0  0  0
   18.5310    6.6110   23.9600 C   0  0  0  0  0  0  0  0  0  0  0  0
   19.6430    7.3490   23.9380 N   0  0  0  0  0  0  0  0  0  0  0  0
   20.6780    6.9580   23.0480 C   0  0  0  0  0  0  0  0  0  0  0  0
   21.9330    7.5090   22.7930 C   0  0  0  0  0  0  0  0  0  0  0  0
   22.8540    6.8980   21.7760 C   0  0  0  0  0  0  0  0  0  0  0  0
   22.4100    5.7760   21.1050 C   0  0  0  0  0  0  0  0  0  0  0  0
   23.1820    5.1810   20.1860 F   0  0  0  0  0  0  0  0  0  0  0  0
   21.0130    5.2590   21.4650 C   0  0  0  0  0  0  0  0  0  0  0  0
   20.1600    5.7960   22.3970 C   0  0  0  0  0  0  0  0  0  0  0  0
   11.2060    1.2100   23.5310 C   0  0  0  0  0  0  0  0  0  0  0  0
   10.0500    0.2470   23.9290 C   0  0  0  0  0  0  0  0  0  0  0  0
    6.8590   -3.0810   23.0830 C   0  0  0  0  0  0  0  0  0  0  0  0
    5.5190   -2.8870   22.3260 C   0  0  0  0  0  0  0  0  0  0  0  0
  1  2  1  0
  2  3  1  0
  3  4  2  0
  3  5  1  0
  5  6  1  0
  6  7  1  0
  7  8  1  0
  8  9  1  0
  9 10  1  0
 10 11  2  0
 11 12  1  0
 12 13  2  0
 13 14  1  0
 14 15  1  0
 15 16  1  0
 16 17  2  0
 16 18  1  0
 18 19  1  0
 19 20  1  0
 20 21  1  0
 21 22  2  0
 22 23  1  0
 23 24  1  0
 24 25  1  0
 25 26  2  0
 26 27  1  0
 27 28  1  0
 27 29  2  0
 21 30  1  0
 24 30  2  0
 29 30  1  0
 13 31  1  0
 10 32  1  0
 31 32  2  0
  8 33  1  0
  5 34  1  0
 33 34  1  0
M  END
