MAK-UNK-704ed37c-11-acrylamide
     RDKit          3D

 13 13  0  0  0  0  0  0  0  0999 V2000
    8.1870   -3.5650   19.9920 C   0  0  0  0  0  0  0  0  0  0  0  0
    6.8680   -2.9930   19.6080 C   0  0  0  0  0  0  0  0  0  0  0  0
    5.9760   -3.9280   20.3380 C   0  0  0  0  0  0  0  0  0  0  0  0
    5.1010   -4.5300   19.7570 O   0  0  0  0  0  0  0  0  0  0  0  0
    6.3450   -4.0250   21.6530 N   0  0  0  0  0  0  0  0  0  0  0  0
    7.2520   -3.1400   22.2690 C   0  0  0  0  0  0  0  0  0  0  0  0
    7.1950   -2.9130   23.6380 C   0  0  0  0  0  0  0  0  0  0  0  0
    6.4740   -3.9630   24.4110 N   0  0  0  0  0  0  0  0  0  0  0  0
    5.8350   -3.3910   25.6040 C   0  0  0  0  0  0  0  0  0  0  0  0
    4.6160   -2.5820   25.4190 N   0  0  0  0  0  0  0  0  0  0  0  0
    6.2920   -3.5720   26.7350 O   0  0  0  0  0  0  0  0  0  0  0  0
    5.7970   -4.9850   23.8020 C   0  0  0  0  0  0  0  0  0  0  0  0
    6.2710   -5.2660   22.4070 C   0  0  0  0  0  0  0  0  0  0  0  0
  1  2  1  0
  2  3  1  0
  3  4  2  0
  3  5  1  0
  5  6  1  0
  6  7  1  0
  7  8  1  0
  8  9  1  0
  9 10  1  0
  9 11  2  0
  8 12  1  0
  5 13  1  0
 12 13  1  0
M  END
