MAK-UNK-148caf23-2-nitrile
     RDKit          3D

 34 37  0  0  0  0  0  0  0  0999 V2000
    8.6040   -3.9820   20.0150 C   0  0  0  0  0  0  0  0  0  0  0  0
    7.3070   -3.7390   19.5370 N   0  0  0  0  0  0  0  0  0  0  0  0
    8.8500   -3.6150   21.3910 C   0  0  0  0  0  0  0  0  0  0  0  0
    8.7390   -2.1120   21.7710 C   0  0  0  0  0  0  0  0  0  0  0  0
    8.8980   -1.6210   23.0120 N   0  0  0  0  0  0  0  0  0  0  0  0
    9.1950   -2.5690   24.0790 C   0  0  0  0  0  0  0  0  0  0  0  0
    9.3320   -2.0590   25.3550 N   0  0  0  0  0  0  0  0  0  0  0  0
    9.4680   -0.6240   25.6460 C   0  0  0  0  0  0  0  0  0  0  0  0
    9.1560   -0.3700   27.1220 C   0  0  0  0  0  0  0  0  0  0  0  0
    9.3320   -3.9710   23.8170 C   0  0  0  0  0  0  0  0  0  0  0  0
    9.1520   -4.5510   22.3830 C   0  0  0  0  0  0  0  0  0  0  0  0
    9.2960   -6.0310   22.2020 N   0  0  0  0  0  0  0  0  0  0  0  0
   10.3180   -6.6760   21.3540 C   0  0  0  0  0  0  0  0  0  0  0  0
   10.2300   -7.7660   20.3190 C   0  0  0  0  0  0  0  0  0  0  0  0
   10.6860   -8.7530   20.6820 C   0  0  0  0  0  0  0  0  0  0  0  0
   10.6490   -9.7350   19.7470 C   0  0  0  0  0  0  0  0  0  0  0  0
   10.9370  -10.8220   19.8390 C   0  0  0  0  0  0  0  0  0  0  0  0
    9.7550  -10.8260   19.5730 C   0  0  0  0  0  0  0  0  0  0  0  0
    9.1380  -11.7700   19.5760 C   0  0  0  0  0  0  0  0  0  0  0  0
    9.9770  -12.6460   19.9120 C   0  0  0  0  0  0  0  0  0  0  0  0
   11.1220  -12.8810   20.1630 C   0  0  0  0  0  0  0  0  0  0  0  0
   11.9500  -12.0400   20.1240 C   0  0  0  0  0  0  0  0  0  0  0  0
   13.2410  -12.3440   20.3830 F   0  0  0  0  0  0  0  0  0  0  0  0
   10.1060   -9.3300   18.7690 N   0  0  0  0  0  0  0  0  0  0  0  0
    9.7910  -10.2190   17.6000 S   0  0  0  0  0  0  0  0  0  0  0  0
    8.9030   -9.1940   17.2910 O   0  0  0  0  0  0  0  0  0  0  0  0
    9.2180  -11.3650   18.3210 O   0  0  0  0  0  0  0  0  0  0  0  0
   10.3650  -10.4750   14.9200 C   0  0  0  0  0  0  0  0  0  0  0  0
   11.6270  -10.2940   13.9060 C   0  0  0  0  0  0  0  0  0  0  0  0
   11.9570  -10.4250   12.5330 C   0  0  0  0  0  0  0  0  0  0  0  0
   11.0260  -10.7850   11.8350 C   0  0  0  0  0  0  0  0  0  0  0  0
    9.8870  -11.0300   12.3080 N   0  0  0  0  0  0  0  0  0  0  0  0
    9.6070  -10.8490   13.6650 C   0  0  0  0  0  0  0  0  0  0  0  0
    9.8260   -8.2000   18.9110 C   0  0  0  0  0  0  0  0  0  0  0  0
  1  2  2  3
  1  3  1  0
  3  4  2  0
  4  5  1  0
  5  6  2  0
  6  7  1  0
  7  8  1  0
  8  9  1  0
  6 10  1  0
  3 11  1  0
 10 11  2  0
 11 12  1  0
 12 13  1  0
 13 14  1  0
 14 15  1  0
 15 16  2  0
 16 17  1  0
 17 18  2  0
 18 19  1  0
 19 20  2  0
 20 21  1  0
 17 22  1  0
 21 22  2  0
 22 23  1  0
 16 24  1  0
 24 25  1  0
 25 26  2  0
 25 27  2  0
 25 28  1  0
 28 29  2  0
 29 30  1  0
 30 31  2  0
 31 32  1  0
 28 33  1  0
 32 33  2  0
 14 34  2  0
 24 34  1  0
M  END
