MAK-UNK-987948f6-4-chloroacetamide
     RDKit          3D

 14 14  0  0  0  0  0  0  0  0999 V2000
    6.6240   -5.0030   20.9530 C   0  0  0  0  0  0  0  0  0  0  0  0
    5.2040   -5.4020   21.2890 C   0  0  0  0  0  0  0  0  0  0  0  0
    5.1090   -5.1240   20.0760 O   0  0  0  0  0  0  0  0  0  0  0  0
    5.6730   -5.6120   22.6100 N   0  0  0  0  0  0  0  0  0  0  0  0
    4.8100   -5.0320   23.5970 C   0  0  0  0  0  0  0  0  0  0  0  0
    4.9550   -3.5330   23.3130 C   0  0  0  0  0  0  0  0  0  0  0  0
    6.1290   -3.2330   22.4530 N   0  0  0  0  0  0  0  0  0  0  0  0
    5.9660   -2.8880   21.0850 C   0  0  0  0  0  0  0  0  0  0  0  0
    4.8750   -3.3350   20.4000 O   0  0  0  0  0  0  0  0  0  0  0  0
    6.9010   -2.1010   20.4200 C   0  0  0  0  0  0  0  0  0  0  0  0
    7.9420   -1.6270   21.2530 C   0  0  0  0  0  0  0  0  0  0  0  0
    6.7890   -1.8070   19.0580 C   0  0  0  0  0  0  0  0  0  0  0  0
    7.3790   -3.9180   22.8440 C   0  0  0  0  0  0  0  0  0  0  0  0
    7.0420   -5.3910   23.0880 C   0  0  0  0  0  0  0  0  0  0  0  0
  1  2  1  0
  2  3  2  0
  2  4  1  0
  4  5  1  0
  5  6  1  0
  6  7  1  0
  7  8  1  0
  8  9  2  0
  8 10  1  0
 10 11  2  3
 10 12  1  0
  7 13  1  0
  4 14  1  0
 13 14  1  0
M  END
