MAK-UNK-704ed37c-2-chloroacetamide
     RDKit          3D

 16 17  0  0  0  0  0  0  0  0999 V2000
    7.2740   -2.9760   18.8620 C   0  0  0  0  0  0  0  0  0  0  0  0
    6.2970   -3.3770   19.9340 C   0  0  0  0  0  0  0  0  0  0  0  0
    5.3410   -4.1180   19.7120 O   0  0  0  0  0  0  0  0  0  0  0  0
    6.5160   -2.9080   21.2290 N   0  0  0  0  0  0  0  0  0  0  0  0
    5.9460   -3.7190   22.2870 C   0  0  0  0  0  0  0  0  0  0  0  0
    7.0620   -4.2990   23.1440 C   0  0  0  0  0  0  0  0  0  0  0  0
    7.8360   -3.1540   23.7750 C   0  0  0  0  0  0  0  0  0  0  0  0
    6.8910   -2.4220   24.7380 C   0  0  0  0  0  0  0  0  0  0  0  0
    6.1310   -1.5320   24.3840 O   0  0  0  0  0  0  0  0  0  0  0  0
    6.9380   -2.8400   26.0230 N   0  0  0  0  0  0  0  0  0  0  0  0
    6.4450   -1.9900   27.0650 C   0  0  0  0  0  0  0  0  0  0  0  0
    7.7190   -1.5440   27.7010 C   0  0  0  0  0  0  0  0  0  0  0  0
    8.6010   -1.8940   26.5440 C   0  0  0  0  0  0  0  0  0  0  0  0
    8.2570   -3.1830   26.2590 O   0  0  0  0  0  0  0  0  0  0  0  0
    8.4120   -2.1710   22.7310 C   0  0  0  0  0  0  0  0  0  0  0  0
    7.4260   -1.8100   21.6110 C   0  0  0  0  0  0  0  0  0  0  0  0
  1  2  1  0
  2  3  2  0
  2  4  1  0
  4  5  1  0
  5  6  1  0
  6  7  1  0
  7  8  1  0
  8  9  2  0
  8 10  1  0
 10 11  1  0
 11 12  1  0
 12 13  1  0
 10 14  1  0
 13 14  1  0
  7 15  1  0
  4 16  1  0
 15 16  1  0
M  END
