MAK-UNK-516d8086-3-vinylsulfonamide
     RDKit          3D

 25 27  0  0  0  0  0  0  0  0999 V2000
    7.3170   -3.6770   19.7860 C   0  0  0  0  0  0  0  0  0  0  0  0
    7.6590   -3.4120   21.2070 C   0  0  0  0  0  0  0  0  0  0  0  0
    6.2130   -2.9410   22.0900 S   0  0  0  0  0  0  0  0  0  0  0  0
    4.9720   -3.2750   21.2960 O   0  0  0  0  0  0  0  0  0  0  0  0
    6.3860   -3.5170   23.3970 O   0  0  0  0  0  0  0  0  0  0  0  0
    6.8290   -1.1870   22.1530 C   0  0  0  0  0  0  0  0  0  0  0  0
    6.5080   -0.0820   21.1780 C   0  0  0  0  0  0  0  0  0  0  0  0
    7.0260    1.1670   21.2970 N   0  0  0  0  0  0  0  0  0  0  0  0
    7.8810    1.4520   22.3410 C   0  0  0  0  0  0  0  0  0  0  0  0
    8.4210    2.7590   22.4550 N   0  0  0  0  0  0  0  0  0  0  0  0
    9.8560    2.7080   22.2180 C   0  0  0  0  0  0  0  0  0  0  0  0
   10.5840    3.3680   23.1870 C   0  0  0  0  0  0  0  0  0  0  0  0
    8.3160    0.5520   23.3750 C   0  0  0  0  0  0  0  0  0  0  0  0
    9.1890    0.9240   24.4450 C   0  0  0  0  0  0  0  0  0  0  0  0
   10.6000    0.6290   24.5160 C   0  0  0  0  0  0  0  0  0  0  0  0
   11.9380    0.1010   24.5710 C   0  0  0  0  0  0  0  0  0  0  0  0
   12.4570   -1.1370   24.5400 C   0  0  0  0  0  0  0  0  0  0  0  0
   11.6700   -2.1420   24.4100 C   0  0  0  0  0  0  0  0  0  0  0  0
   10.3840   -1.8900   24.3100 C   0  0  0  0  0  0  0  0  0  0  0  0
    9.9160   -0.6060   24.3730 C   0  0  0  0  0  0  0  0  0  0  0  0
    9.7400   -3.2180   24.1290 C   0  0  0  0  0  0  0  0  0  0  0  0
    8.5770   -3.5490   24.0810 O   0  0  0  0  0  0  0  0  0  0  0  0
   10.7710   -4.0220   24.0110 N   0  0  0  0  0  0  0  0  0  0  0  0
   11.8960   -3.3730   24.3400 C   0  0  0  0  0  0  0  0  0  0  0  0
    7.8100   -0.7870   23.3210 C   0  0  0  0  0  0  0  0  0  0  0  0
  1  2  1  0
  3  2  1  0
  3  4  2  0
  3  5  2  0
  3  6  1  0
  6  7  2  0
  7  8  1  0
  8  9  2  0
  9 10  1  0
 10 11  1  0
 11 12  1  0
  9 13  1  0
 13 14  1  0
 14 15  1  0
 15 16  2  0
 16 17  1  0
 17 18  2  0
 18 19  1  0
 15 20  1  0
 19 20  2  0
 19 21  1  0
 21 22  2  0
 21 23  1  0
 18 24  1  0
 23 24  1  0
  6 25  1  0
 13 25  2  0
M  END
