MAK-UNK-0cb6a3ad-8
     RDKit          3D

 11 12  0  0  0  0  0  0  0  0999 V2000
    9.3660    0.4050   22.0870 C   0  0  0  0  0  0  0  0  0  0  0  0
   10.6380    0.3370   22.9060 C   0  0  0  0  0  0  0  0  0  0  0  0
   11.6100    1.4500   23.1870 C   0  0  0  0  0  0  0  0  0  0  0  0
   12.6760    0.9270   24.0050 O   0  0  0  0  0  0  0  0  0  0  0  0
   12.3530   -0.3930   24.1910 C   0  0  0  0  0  0  0  0  0  0  0  0
   11.2000   -0.8840   23.6130 C   0  0  0  0  0  0  0  0  0  0  0  0
   10.6420   -2.1640   23.6350 C   0  0  0  0  0  0  0  0  0  0  0  0
   11.4930   -3.1260   24.1240 C   0  0  0  0  0  0  0  0  0  0  0  0
   12.3380   -2.6090   25.2080 C   0  0  1  0  0  0  0  0  0  0  0  0
   13.2950   -3.6010   25.8960 C   0  0  0  0  0  0  0  0  0  0  0  0
   13.1050   -1.3100   24.9240 C   0  0  0  0  0  0  0  0  0  0  0  0
  1  2  1  0
  2  3  2  0
  3  4  1  0
  4  5  1  0
  2  6  1  0
  5  6  2  0
  6  7  1  0
  7  8  1  0
  8  9  1  0
  9 10  1  6
  5 11  1  0
  9 11  1  0
M  END
