MAK-UNK-ec98eaf6-17-nitrile
     RDKit          3D

 21 23  0  0  0  0  0  0  0  0999 V2000
    6.6240   -3.6910   19.9180 C   0  0  0  0  0  0  0  0  0  0  0  0
    5.7520   -4.6300   19.9420 N   0  0  0  0  0  0  0  0  0  0  0  0
    6.6060   -2.7060   20.8600 N   0  0  0  0  0  0  0  0  0  0  0  0
    7.3620   -1.3980   20.8540 C   0  0  0  0  0  0  0  0  0  0  0  0
    8.0030   -1.3910   22.2720 C   0  0  1  0  0  0  0  0  0  0  0  0
    6.5570   -1.5700   22.8030 C   0  0  0  0  0  0  0  0  0  0  0  0
    6.2200   -2.9510   22.2830 C   0  0  2  0  0  0  0  0  0  0  0  0
    7.3400   -3.6770   22.9220 C   0  0  0  0  0  0  0  0  0  0  0  0
    7.9870   -2.4100   23.4080 N   0  0  0  0  0  0  0  0  0  0  0  0
    9.2490   -2.6720   24.0630 C   0  0  0  0  0  0  0  0  0  0  0  0
   10.1870   -1.5090   23.8680 C   0  0  0  0  0  0  0  0  0  0  0  0
   11.2190   -2.0110   22.8880 C   0  0  0  0  0  0  0  0  0  0  0  0
   12.3170   -1.0230   22.4830 C   0  0  0  0  0  0  0  0  0  0  0  0
   13.4570   -1.5500   21.3700 Cl  0  0  0  0  0  0  0  0  0  0  0  0
   12.2820    0.3670   23.1130 C   0  0  0  0  0  0  0  0  0  0  0  0
   11.2000    0.7530   24.0740 C   0  0  0  0  0  0  0  0  0  0  0  0
   10.1330   -0.2530   24.4340 C   0  0  0  0  0  0  0  0  0  0  0  0
    9.0030    0.1170   25.3870 C   0  0  0  0  0  0  0  0  0  0  0  0
    9.2720    0.3200   26.8730 C   0  0  0  0  0  0  0  0  0  0  0  0
    8.2300   -0.2610   27.6570 O   0  0  0  0  0  0  0  0  0  0  0  0
    8.5340   -0.1710   29.0470 C   0  0  0  0  0  0  0  0  0  0  0  0
  1  2  2  3
  1  3  1  0
  3  4  1  0
  5  4  1  6
  5  6  1  0
  3  7  1  0
  6  7  1  0
  7  8  1  1
  5  9  1  0
  8  9  1  0
  9 10  1  0
 10 11  1  0
 11 12  2  0
 12 13  1  0
 13 14  1  0
 13 15  2  0
 15 16  1  0
 11 17  1  0
 16 17  2  0
 17 18  1  0
 18 19  1  0
 19 20  1  0
 20 21  1  0
M  END
