MAK-UNK-6ca90168-24
     RDKit          3D

 19 20  0  0  0  0  0  0  0  0999 V2000
    6.2230   -3.0790   19.6680 C   0  0  0  0  0  0  0  0  0  0  0  0
    6.9700   -2.2580   20.5710 C   0  0  0  0  0  0  0  0  0  0  0  0
    7.1320   -0.8430   20.1310 C   0  0  0  0  0  0  0  0  0  0  0  0
    7.8390   -0.4870   21.1840 C   0  0  0  0  0  0  0  0  0  0  0  0
    8.4430   -0.1810   22.0830 N   0  0  0  0  0  0  0  0  0  0  0  0
    8.2220   -1.5470   22.3930 C   0  0  0  0  0  0  0  0  0  0  0  0
    7.5530   -2.8650   21.8960 C   0  0  0  0  0  0  0  0  0  0  0  0
    7.9730   -3.3030   22.8510 N   0  0  0  0  0  0  0  0  0  0  0  0
    8.4350   -2.5460   24.0370 C   0  0  0  0  0  0  0  0  0  0  0  0
    7.7710   -1.8700   24.8140 O   0  0  0  0  0  0  0  0  0  0  0  0
    9.7960   -2.6860   24.2470 C   0  0  0  0  0  0  0  0  0  0  0  0
   10.2200   -3.8960   24.6860 O   0  0  0  0  0  0  0  0  0  0  0  0
   10.6120   -1.5420   23.9830 C   0  0  0  0  0  0  0  0  0  0  0  0
   11.9440   -1.9380   23.3450 C   0  0  0  0  0  0  0  0  0  0  0  0
   12.9180   -0.8920   23.0010 C   0  0  0  0  0  0  0  0  0  0  0  0
   12.5370    0.5650   23.3130 C   0  0  0  0  0  0  0  0  0  0  0  0
   11.2240    0.8960   23.9390 C   0  0  0  0  0  0  0  0  0  0  0  0
   10.8300    2.5280   24.2700 Cl  0  0  0  0  0  0  0  0  0  0  0  0
   10.2770   -0.2050   24.2620 C   0  0  0  0  0  0  0  0  0  0  0  0
  1  2  1  0
  2  3  2  0
  3  4  1  0
  4  5  2  0
  5  6  1  0
  2  7  1  0
  6  7  2  0
  7  8  1  0
  8  9  1  0
  9 10  2  0
  9 11  1  0
 11 12  2  0
 11 13  1  0
 13 14  2  0
 14 15  1  0
 15 16  2  0
 16 17  1  0
 17 18  1  0
 13 19  1  0
 17 19  2  0
M  END
