MAK-UNK-8fdbca50-21-acrylamide
     RDKit          3D

 40 43  0  0  0  0  0  0  0  0999 V2000
    7.8410   -3.5550   19.6040 C   0  0  0  0  0  0  0  0  0  0  0  0
    7.1890   -4.1840   20.8030 C   0  0  0  0  0  0  0  0  0  0  0  0
    6.5020   -3.1550   21.6120 C   0  0  0  0  0  0  0  0  0  0  0  0
    5.0360   -3.3640   21.4640 O   0  0  0  0  0  0  0  0  0  0  0  0
    7.7430   -2.2790   22.2900 N   0  0  0  0  0  0  0  0  0  0  0  0
    7.9230   -1.0590   23.0280 C   0  0  0  0  0  0  0  0  0  0  0  0
    9.1390   -0.1880   22.6840 C   0  0  0  0  0  0  0  0  0  0  0  0
   10.3500   -0.8950   23.2560 C   0  0  0  0  0  0  0  0  0  0  0  0
   10.0270   -1.2310   24.7010 C   0  0  0  0  0  0  0  0  0  0  0  0
   10.5320   -0.4800   25.5210 O   0  0  0  0  0  0  0  0  0  0  0  0
    9.2870   -2.2860   25.0490 N   0  0  0  0  0  0  0  0  0  0  0  0
    8.0130   -1.9240   25.5670 C   0  0  0  0  0  0  0  0  0  0  0  0
    7.5820   -0.5980   25.2620 C   0  0  0  0  0  0  0  0  0  0  0  0
    6.3950   -0.2370   25.7460 C   0  0  0  0  0  0  0  0  0  0  0  0
    5.6190   -1.0820   26.4990 N   0  0  0  0  0  0  0  0  0  0  0  0
    5.8090   -2.4450   26.9510 C   0  0  0  0  0  0  0  0  0  0  0  0
    7.1540   -2.7540   26.3640 C   0  0  0  0  0  0  0  0  0  0  0  0
    7.4470   -4.3440   26.8770 S   0  0  0  0  0  0  0  0  0  0  0  0
    7.8160   -4.2630   28.2700 O   0  0  0  0  0  0  0  0  0  0  0  0
    8.3090   -4.9840   25.9440 O   0  0  0  0  0  0  0  0  0  0  0  0
    6.0040   -5.2140   26.8110 N   0  0  0  0  0  0  0  0  0  0  0  0
    5.1380   -5.3110   27.7890 C   0  0  0  0  0  0  0  0  0  0  0  0
    4.1540   -6.0910   27.3100 C   0  0  0  0  0  0  0  0  0  0  0  0
    3.1200   -6.3250   28.1980 C   0  0  0  0  0  0  0  0  0  0  0  0
    3.7230   -6.5540   29.4110 N   0  0  0  0  0  0  0  0  0  0  0  0
    4.4680   -7.6890   29.7810 C   0  0  0  0  0  0  0  0  0  0  0  0
    4.1920   -6.6270   25.9870 C   0  0  0  0  0  0  0  0  0  0  0  0
    5.4750   -5.9670   25.7620 C   0  0  0  0  0  0  0  0  0  0  0  0
    6.0740   -6.1390   24.5270 C   0  0  0  0  0  0  0  0  0  0  0  0
    7.4000   -6.5000   24.4610 C   0  0  0  0  0  0  0  0  0  0  0  0
    8.0670   -6.6800   23.2800 C   0  0  0  0  0  0  0  0  0  0  0  0
    7.4160   -6.5040   22.0590 C   0  0  0  0  0  0  0  0  0  0  0  0
    5.9270   -6.1080   21.9160 C   0  0  0  0  0  0  0  0  0  0  0  0
    5.3500   -5.9490   23.3390 C   0  0  0  0  0  0  0  0  0  0  0  0
    4.0530   -5.5970   23.4210 F   0  0  0  0  0  0  0  0  0  0  0  0
    9.9710   -3.5880   25.2450 C   0  0  0  0  0  0  0  0  0  0  0  0
    9.5910   -4.5700   24.3360 C   0  0  0  0  0  0  0  0  0  0  0  0
   11.4870   -3.3920   25.1930 C   0  0  0  0  0  0  0  0  0  0  0  0
   10.5130   -2.1580   22.4860 C   0  0  0  0  0  0  0  0  0  0  0  0
    9.1800   -2.5310   21.7440 C   0  0  0  0  0  0  0  0  0  0  0  0
  1  2  1  0
  2  3  1  0
  3  4  2  0
  3  5  1  0
  5  6  1  0
  6  7  1  0
  7  8  1  0
  8  9  1  0
  9 10  2  0
  9 11  1  0
 11 12  1  0
 12 13  2  0
 13 14  1  0
 14 15  2  0
 15 16  1  0
 12 17  1  0
 16 17  2  0
 18 17  1  0
 18 19  2  0
 18 20  2  0
 18 21  1  0
 21 22  1  0
 22 23  2  0
 23 24  1  0
 24 25  1  0
 25 26  1  0
 23 27  1  0
 21 28  1  0
 27 28  2  0
 28 29  1  0
 29 30  2  0
 30 31  1  0
 31 32  2  0
 32 33  1  0
 29 34  1  0
 33 34  2  0
 34 35  1  0
 11 36  1  0
 36 37  1  0
 36 38  1  0
  8 39  1  0
  5 40  1  0
 39 40  1  0
M  END
