MAK-UNK-bae89c02-4-vinylsulfonamide
     RDKit          3D

 25 27  0  0  0  0  0  0  0  0999 V2000
    7.8460   -3.9980   19.9980 C   0  0  0  0  0  0  0  0  0  0  0  0
    6.9600   -2.9880   19.4300 C   0  0  0  0  0  0  0  0  0  0  0  0
    5.6520   -3.1630   20.5540 S   0  0  0  0  0  0  0  0  0  0  0  0
    4.5320   -3.0060   19.7230 O   0  0  0  0  0  0  0  0  0  0  0  0
    5.6990   -4.3350   21.3970 O   0  0  0  0  0  0  0  0  0  0  0  0
    6.1140   -1.9190   21.5820 N   0  0  0  0  0  0  0  0  0  0  0  0
    7.4210   -1.2330   21.2170 C   0  0  0  0  0  0  0  0  0  0  0  0
    8.0210   -1.5510   22.5190 C   0  0  1  0  0  0  0  0  0  0  0  0
    7.0760   -1.2170   23.5980 C   0  0  0  0  0  0  0  0  0  0  0  0
    6.3330   -2.4070   23.0280 C   0  0  2  0  0  0  0  0  0  0  0  0
    7.5190   -3.4440   23.0450 C   0  0  0  0  0  0  0  0  0  0  0  0
    8.7470   -2.7930   22.8200 N   0  0  0  0  0  0  0  0  0  0  0  0
    9.7700   -2.7200   23.8540 C   0  0  0  0  0  0  0  0  0  0  0  0
   10.6830   -1.7010   23.6730 C   0  0  0  0  0  0  0  0  0  0  0  0
   11.6600   -1.8920   22.6520 C   0  0  0  0  0  0  0  0  0  0  0  0
   12.6040   -0.9370   22.4060 C   0  0  0  0  0  0  0  0  0  0  0  0
   12.6270    0.2910   23.1610 C   0  0  0  0  0  0  0  0  0  0  0  0
   11.6570    0.4590   24.1560 C   0  0  0  0  0  0  0  0  0  0  0  0
   10.6740   -0.5290   24.4440 C   0  0  0  0  0  0  0  0  0  0  0  0
    9.6910   -0.4210   25.4580 C   0  0  0  0  0  0  0  0  0  0  0  0
    8.8720    0.6850   25.6060 C   0  0  0  0  0  0  0  0  0  0  0  0
    7.3860    0.3670   26.5680 S   0  0  0  0  0  0  0  0  0  0  0  0
    7.8560    0.8260   28.1160 N   0  0  0  0  0  0  0  0  0  0  0  0
    7.1310   -1.0470   26.6920 O   0  0  0  0  0  0  0  0  0  0  0  0
    6.3380    1.3130   26.2230 O   0  0  0  0  0  0  0  0  0  0  0  0
  1  2  1  0
  3  2  1  0
  3  4  2  0
  3  5  2  0
  3  6  1  0
  6  7  1  0
  8  7  1  6
  8  9  1  0
  6 10  1  0
  9 10  1  0
 10 11  1  6
  8 12  1  0
 11 12  1  0
 12 13  1  0
 13 14  1  0
 14 15  2  0
 15 16  1  0
 16 17  2  0
 17 18  1  0
 14 19  1  0
 18 19  2  0
 19 20  1  0
 20 21  1  0
 21 22  1  0
 22 23  1  0
 22 24  2  0
 22 25  2  0
M  END
