MAK-UNK-52a1ef4b-1-chloroacetamide
     RDKit          3D

 16 17  0  0  0  0  0  0  0  0999 V2000
    7.2990   -2.9440   18.7090 C   0  0  0  0  0  0  0  0  0  0  0  0
    6.3530   -3.1910   19.8390 C   0  0  0  0  0  0  0  0  0  0  0  0
    5.4340   -4.0180   19.7220 O   0  0  0  0  0  0  0  0  0  0  0  0
    6.5890   -2.4560   21.0220 N   0  0  0  0  0  0  0  0  0  0  0  0
    7.4860   -1.2980   20.9390 C   0  0  0  0  0  0  0  0  0  0  0  0
    8.8190   -1.5810   21.6460 C   0  0  0  0  0  0  0  0  0  0  0  0
    8.7100   -2.1790   22.9770 N   0  0  0  0  0  0  0  0  0  0  0  0
    9.8800   -2.4440   23.6670 C   0  0  0  0  0  0  0  0  0  0  0  0
   10.0210   -3.4790   24.3080 O   0  0  0  0  0  0  0  0  0  0  0  0
   10.8710   -1.5030   23.5760 N   0  0  0  0  0  0  0  0  0  0  0  0
   10.8610   -0.3250   24.3560 C   0  0  0  0  0  0  0  0  0  0  0  0
   12.0680    0.5100   24.0060 C   0  0  0  0  0  0  0  0  0  0  0  0
   12.8560   -0.2480   22.9400 C   0  0  0  0  0  0  0  0  0  0  0  0
   12.0380   -1.5080   22.7220 C   0  0  0  0  0  0  0  0  0  0  0  0
    7.7280   -3.2560   23.1040 C   0  0  0  0  0  0  0  0  0  0  0  0
    6.4050   -2.9800   22.3710 C   0  0  0  0  0  0  0  0  0  0  0  0
  1  2  1  0
  2  3  2  0
  2  4  1  0
  4  5  1  0
  5  6  1  0
  6  7  1  0
  7  8  1  0
  8  9  2  0
  8 10  1  0
 10 11  1  0
 11 12  2  0
 12 13  1  0
 10 14  1  0
 13 14  2  0
  7 15  1  0
  4 16  1  0
 15 16  1  0
M  END
