MAK-UNK-e4a48a85-27-chloroacetamide
     RDKit          3D

 27 29  0  0  0  0  0  0  0  0999 V2000
    7.2200   -2.9930   18.7800 C   0  0  0  0  0  0  0  0  0  0  0  0
    6.2050   -3.2600   19.8740 C   0  0  0  0  0  0  0  0  0  0  0  0
    5.3540   -4.1500   19.7510 O   0  0  0  0  0  0  0  0  0  0  0  0
    6.3120   -2.4640   21.0080 N   0  0  0  0  0  0  0  0  0  0  0  0
    5.9530   -3.0460   22.3000 C   0  0  0  0  0  0  0  0  0  0  0  0
    7.3110   -3.5440   22.8240 C   0  0  0  0  0  0  0  0  0  0  0  0
    8.0720   -2.2980   23.1270 N   0  0  0  0  0  0  0  0  0  0  0  0
    9.1130   -2.3220   24.1790 C   0  0  0  0  0  0  0  0  0  0  0  0
   10.1190   -1.2090   23.8980 C   0  0  0  0  0  0  0  0  0  0  0  0
   11.1310   -1.8010   22.9880 N   0  0  0  0  0  0  0  0  0  0  0  0
   12.2210   -0.8750   22.7360 C   0  0  0  0  0  0  0  0  0  0  0  0
   13.2670   -1.4550   21.7850 C   0  0  0  0  0  0  0  0  0  0  0  0
   12.3310    0.4330   23.2870 N   0  0  0  0  0  0  0  0  0  0  0  0
   11.2270    0.9710   23.9110 C   0  0  0  0  0  0  0  0  0  0  0  0
   11.1180    2.3160   24.1020 O   0  0  0  0  0  0  0  0  0  0  0  0
   10.0770    0.0570   24.3810 C   0  0  0  0  0  0  0  0  0  0  0  0
    9.1260    0.6450   25.2410 N   0  0  0  0  0  0  0  0  0  0  0  0
    7.6900    0.6080   24.9410 C   0  0  0  0  0  0  0  0  0  0  0  0
    6.9300    0.0840   26.1670 C   0  0  0  0  0  0  0  0  0  0  0  0
    7.8460   -0.3940   27.2960 C   0  0  0  0  0  0  0  0  0  0  0  0
    7.2020   -0.9450   28.5930 C   0  0  0  0  0  0  0  0  0  0  0  0
    5.6670   -0.9810   28.6640 C   0  0  0  0  0  0  0  0  0  0  0  0
    4.8510   -0.4760   27.4640 C   0  0  0  0  0  0  0  0  0  0  0  0
    3.4240   -0.5100   27.5310 O   0  0  0  0  0  0  0  0  0  0  0  0
    5.5470    0.0490   26.2330 C   0  0  0  0  0  0  0  0  0  0  0  0
    8.4930   -1.6780   21.8560 C   0  0  0  0  0  0  0  0  0  0  0  0
    7.2320   -1.3180   21.0800 C   0  0  0  0  0  0  0  0  0  0  0  0
  1  2  1  0
  2  3  2  0
  2  4  1  0
  4  5  1  0
  5  6  1  0
  6  7  1  0
  7  8  1  0
  8  9  1  0
  9 10  1  0
 10 11  2  0
 11 12  1  0
 11 13  1  0
 13 14  1  0
 14 15  2  0
  9 16  2  0
 14 16  1  0
 16 17  1  0
 17 18  1  0
 18 19  1  0
 19 20  2  0
 20 21  1  0
 21 22  2  0
 22 23  1  0
 23 24  1  0
 19 25  1  0
 23 25  2  0
  7 26  1  0
  4 27  1  0
 26 27  1  0
M  END
