MAK-UNK-be5ffcbc-6
     RDKit          3D

 22 24  0  0  0  0  0  0  0  0999 V2000
    8.9730    6.6390   22.5330 C   0  0  0  0  0  0  0  0  0  0  0  0
   10.1720    6.2310   23.3930 C   0  0  0  0  0  0  0  0  0  0  0  0
   10.1710    6.3240   24.6160 O   0  0  0  0  0  0  0  0  0  0  0  0
   11.2230    5.7510   22.6590 N   0  0  0  0  0  0  0  0  0  0  0  0
   12.3120    5.0750   23.3510 C   0  0  0  0  0  0  0  0  0  0  0  0
   12.6540    3.7200   22.7350 C   0  0  0  0  0  0  0  0  0  0  0  0
   11.7620    2.5850   23.1970 C   0  0  0  0  0  0  0  0  0  0  0  0
   10.5500    2.7650   23.8890 C   0  0  0  0  0  0  0  0  0  0  0  0
    9.9330    1.5860   24.1490 N   0  0  0  0  0  0  0  0  0  0  0  0
   10.7710    0.5500   23.5990 C   0  0  0  0  0  0  0  0  0  0  0  0
   10.4700   -0.8220   23.6370 C   0  0  0  0  0  0  0  0  0  0  0  0
    9.3130   -1.3900   24.2170 N   0  0  0  0  0  0  0  0  0  0  0  0
    8.7540   -0.8870   25.3980 C   0  0  0  0  0  0  0  0  0  0  0  0
    8.1300   -1.8770   26.1740 C   0  0  0  0  0  0  0  0  0  0  0  0
    8.1650   -3.1830   25.7340 N   0  0  0  0  0  0  0  0  0  0  0  0
    8.6380   -3.5530   24.4730 C   0  0  0  0  0  0  0  0  0  0  0  0
    8.7140   -2.5000   23.5640 C   0  0  0  0  0  0  0  0  0  0  0  0
   11.4840   -1.5500   23.0050 C   0  0  0  0  0  0  0  0  0  0  0  0
   12.6380   -1.0880   22.4340 C   0  0  0  0  0  0  0  0  0  0  0  0
   13.4700   -1.9970   21.8890 F   0  0  0  0  0  0  0  0  0  0  0  0
   12.8790    0.2700   22.4470 C   0  0  0  0  0  0  0  0  0  0  0  0
   11.9970    1.1840   22.9850 C   0  0  0  0  0  0  0  0  0  0  0  0
  1  2  1  0
  2  3  2  0
  2  4  1  0
  4  5  1  0
  5  6  1  0
  6  7  1  0
  7  8  2  0
  8  9  1  0
  9 10  1  0
 10 11  1  0
 11 12  1  0
 12 13  1  0
 13 14  1  0
 14 15  1  0
 15 16  1  0
 12 17  1  0
 16 17  1  0
 11 18  2  0
 18 19  1  0
 19 20  1  0
 19 21  2  0
  7 22  1  0
 10 22  2  0
 21 22  1  0
M  END
