MAK-UNK-10799360-11-nitrile
     RDKit          3D

 25 28  0  0  0  0  0  0  0  0999 V2000
    7.3930   -3.3610   19.7040 C   0  0  0  0  0  0  0  0  0  0  0  0
    6.3210   -3.1040   19.0390 N   0  0  0  0  0  0  0  0  0  0  0  0
    7.7100   -2.7940   20.9300 N   0  0  0  0  0  0  0  0  0  0  0  0
    6.8200   -1.8960   21.7000 C   0  0  0  0  0  0  0  0  0  0  0  0
    7.2860   -2.2410   23.1450 C   0  0  2  0  0  0  0  0  0  0  0  0
    8.7880   -1.9840   22.8900 C   0  0  0  0  0  0  0  0  0  0  0  0
    8.9160   -3.0340   21.7940 C   0  0  1  0  0  0  0  0  0  0  0  0
    8.6660   -4.1560   22.8160 C   0  0  0  0  0  0  0  0  0  0  0  0
    7.2510   -3.7900   23.2660 C   0  0  1  0  0  0  0  0  0  0  0  0
    7.2000   -4.4120   24.6540 C   0  0  0  0  0  0  0  0  0  0  0  0
    6.0970   -5.3790   24.8180 N   0  0  0  0  0  0  0  0  0  0  0  0
    4.9950   -4.6590   25.5000 C   0  0  0  0  0  0  0  0  0  0  0  0
    4.7800   -3.4880   24.7950 C   0  0  0  0  0  0  0  0  0  0  0  0
    4.6520   -2.2180   25.3780 C   0  0  0  0  0  0  0  0  0  0  0  0
    4.4640   -1.1100   24.5360 C   0  0  0  0  0  0  0  0  0  0  0  0
    4.2880    0.5220   25.2660 S   0  0  0  0  0  0  0  0  0  0  0  0
    3.7610    1.4280   23.9450 N   0  0  0  0  0  0  0  0  0  0  0  0
    5.6030    1.0160   25.6160 O   0  0  0  0  0  0  0  0  0  0  0  0
    3.2240    0.5260   26.2460 O   0  0  0  0  0  0  0  0  0  0  0  0
    4.4170   -1.2750   23.1550 C   0  0  0  0  0  0  0  0  0  0  0  0
    4.5370   -2.5450   22.5930 C   0  0  0  0  0  0  0  0  0  0  0  0
    4.7080   -3.6380   23.4150 C   0  0  0  0  0  0  0  0  0  0  0  0
    4.8110   -4.8910   22.8220 C   0  0  0  0  0  0  0  0  0  0  0  0
    5.6270   -5.9720   23.5250 C   0  0  1  0  0  0  0  0  0  0  0  0
    6.7260   -6.5150   22.8260 C   0  0  0  0  0  0  0  0  0  0  0  0
  1  2  2  3
  1  3  1  0
  3  4  1  0
  5  4  1  6
  5  6  1  0
  3  7  1  0
  6  7  1  0
  7  8  1  1
  5  9  1  0
  8  9  1  0
  9 10  1  1
 10 11  1  0
 11 12  1  0
 12 13  1  0
 13 14  2  0
 14 15  1  0
 15 16  1  0
 16 17  1  0
 16 18  2  0
 16 19  2  0
 15 20  2  0
 20 21  1  0
 13 22  1  0
 21 22  2  0
 22 23  1  0
 11 24  1  0
 23 24  1  0
 24 25  1  6
M  END
