MAK-UNK-a7992eb3-5-acrylamide
     RDKit          3D

 34 37  0  0  0  0  0  0  0  0999 V2000
    7.4480   -3.0840   19.0310 C   0  0  0  0  0  0  0  0  0  0  0  0
    7.0080   -3.0670   20.4720 C   0  0  0  0  0  0  0  0  0  0  0  0
    6.1240   -4.2660   20.7180 C   0  0  0  0  0  0  0  0  0  0  0  0
    5.1930   -4.5260   19.9460 O   0  0  0  0  0  0  0  0  0  0  0  0
    6.3790   -5.0740   21.8220 N   0  0  0  0  0  0  0  0  0  0  0  0
    6.8750   -4.4810   22.9420 C   0  0  0  0  0  0  0  0  0  0  0  0
    6.0090   -4.1920   23.9890 C   0  0  0  0  0  0  0  0  0  0  0  0
    5.1430   -5.2170   24.3920 C   0  0  0  0  0  0  0  0  0  0  0  0
    4.1390   -4.9640   25.3510 C   0  0  0  0  0  0  0  0  0  0  0  0
    3.8640   -6.0790   26.2090 O   0  0  0  0  0  0  0  0  0  0  0  0
    3.4990   -3.7180   25.3880 N   0  0  0  0  0  0  0  0  0  0  0  0
    4.2490   -2.4580   25.3730 C   0  0  0  0  0  0  0  0  0  0  0  0
    2.8280   -1.9000   25.5230 C   0  0  0  0  0  0  0  0  0  0  0  0
    1.4760   -2.5460   25.6170 C   0  0  0  0  0  0  0  0  0  0  0  0
    1.5160   -1.0030   25.6810 C   0  0  0  0  0  0  0  0  0  0  0  0
    2.9090   -0.2800   25.5840 C   0  0  0  0  0  0  0  0  0  0  0  0
    4.2570   -1.0640   25.4290 C   0  0  0  0  0  0  0  0  0  0  0  0
    5.3400   -0.4740   25.3510 O   0  0  0  0  0  0  0  0  0  0  0  0
    6.3140   -0.7350   24.3280 C   0  0  1  0  0  0  0  0  0  0  0  0
    5.9790   -0.3640   23.0220 C   0  0  0  0  0  0  0  0  0  0  0  0
    6.1050    1.0150   22.8350 C   0  0  0  0  0  0  0  0  0  0  0  0
    7.4450    1.3480   22.7310 C   0  0  0  0  0  0  0  0  0  0  0  0
    8.3460    0.6460   23.5590 N   0  0  0  0  0  0  0  0  0  0  0  0
    9.6090    1.0570   23.9000 C   0  0  0  0  0  0  0  0  0  0  0  0
   10.5990    0.2600   23.2970 C   0  0  0  0  0  0  0  0  0  0  0  0
   11.9400    0.6770   23.3840 C   0  0  0  0  0  0  0  0  0  0  0  0
   12.9730   -0.0780   22.8000 C   0  0  0  0  0  0  0  0  0  0  0  0
   12.6400   -1.2550   22.1310 C   0  0  0  0  0  0  0  0  0  0  0  0
   11.3320   -1.6710   22.0370 C   0  0  0  0  0  0  0  0  0  0  0  0
   10.3000   -0.9370   22.6070 C   0  0  0  0  0  0  0  0  0  0  0  0
    7.6730   -0.0550   24.6980 C   0  0  2  0  0  0  0  0  0  0  0  0
    8.5610   -1.0130   25.2130 C   0  0  0  0  0  0  0  0  0  0  0  0
    4.4980   -5.8650   23.1550 C   0  0  0  0  0  0  0  0  0  0  0  0
    5.5610   -6.2400   22.1140 C   0  0  0  0  0  0  0  0  0  0  0  0
  1  2  1  0
  2  3  1  0
  3  4  2  0
  3  5  1  0
  5  6  1  0
  6  7  1  0
  7  8  1  0
  8  9  1  0
  9 10  2  0
  9 11  1  0
 11 12  1  0
 12 13  2  0
 13 14  1  0
 14 15  2  0
 15 16  1  0
 12 17  1  0
 16 17  2  0
 17 18  1  0
 19 18  1  1
 19 20  1  0
 20 21  1  0
 21 22  1  0
 22 23  1  0
 23 24  1  0
 24 25  1  0
 25 26  2  0
 26 27  1  0
 27 28  2  0
 28 29  1  0
 25 30  1  0
 29 30  2  0
 19 31  1  0
 23 31  1  0
 31 32  1  6
  8 33  1  0
  5 34  1  0
 33 34  1  0
M  END
