MAK-UNK-f983951f-12-nitrile
     RDKit          3D

 12 13  0  0  0  0  0  0  0  0999 V2000
    6.2240   -4.9090   20.5930 C   0  0  0  0  0  0  0  0  0  0  0  0
    5.4630   -5.7000   20.0000 N   0  0  0  0  0  0  0  0  0  0  0  0
    5.7690   -4.2940   21.8010 N   0  0  0  0  0  0  0  0  0  0  0  0
    6.0800   -2.9450   22.1420 C   0  0  0  0  0  0  0  0  0  0  0  0
    5.3620   -2.5240   23.4120 C   0  0  0  0  0  0  0  0  0  0  0  0
    4.0500   -2.9150   23.5590 C   0  0  0  0  0  0  0  0  0  0  0  0
    3.9990   -4.2610   23.6560 C   0  0  2  0  0  0  0  0  0  0  0  0
    3.6870   -4.4740   25.0120 C   0  0  0  0  0  0  0  0  0  0  0  0
    4.6370   -5.2300   25.7470 C   0  0  0  0  0  0  0  0  0  0  0  0
    5.9500   -5.1610   25.3280 C   0  0  0  0  0  0  0  0  0  0  0  0
    6.2560   -5.1530   23.9780 C   0  0  0  0  0  0  0  0  0  0  0  0
    5.2200   -4.9210   23.0930 C   0  0  2  0  0  0  0  0  0  0  0  0
  1  2  2  3
  1  3  1  0
  3  4  1  0
  4  5  1  0
  5  6  1  0
  7  6  1  1
  7  8  1  0
  8  9  1  0
  9 10  1  0
 10 11  1  0
  3 12  1  0
  7 12  1  0
 12 11  1  1
M  END
