MAK-UNK-af83ef51-32-nitrile
     RDKit          3D

 30 32  0  0  0  0  0  0  0  0999 V2000
    6.5690   -3.4630   19.5010 C   0  0  0  0  0  0  0  0  0  0  0  0
    5.6840   -4.3300   19.8490 N   0  0  0  0  0  0  0  0  0  0  0  0
    6.3640   -2.1280   19.7500 N   0  0  0  0  0  0  0  0  0  0  0  0
    6.8780   -1.0040   18.9540 C   0  0  0  0  0  0  0  0  0  0  0  0
    6.8900    0.2800   19.8240 C   0  0  0  0  0  0  0  0  0  0  0  0
    7.0450   -0.0850   21.2490 N   0  0  0  0  0  0  0  0  0  0  0  0
    8.2210   -0.9510   21.5130 C   0  0  0  0  0  0  0  0  0  0  0  0
    8.6080   -0.8300   22.9410 N   0  0  0  0  0  0  0  0  0  0  0  0
    7.5410   -0.1310   23.6540 C   0  0  0  0  0  0  0  0  0  0  0  0
    8.4870    0.7660   23.1180 C   0  0  0  0  0  0  0  0  0  0  0  0
    9.5540    0.1210   22.5080 C   0  0  0  0  0  0  0  0  0  0  0  0
    9.5670   -1.3110   22.4960 C   0  0  0  0  0  0  0  0  0  0  0  0
   10.6540   -2.1260   21.8890 C   0  0  0  0  0  0  0  0  0  0  0  0
   11.9110   -1.6380   22.1560 N   0  0  0  0  0  0  0  0  0  0  0  0
    8.3580   -2.0930   23.1680 C   0  0  0  0  0  0  0  0  0  0  0  0
    8.3730   -3.4900   23.1520 O   0  0  0  0  0  0  0  0  0  0  0  0
    7.1280   -4.1720   23.4040 C   0  0  0  0  0  0  0  0  0  0  0  0
    7.2210   -5.0920   24.4990 C   0  0  0  0  0  0  0  0  0  0  0  0
    7.6930   -4.5860   25.6530 N   0  0  0  0  0  0  0  0  0  0  0  0
    8.3590   -3.3760   25.4620 C   0  0  0  0  0  0  0  0  0  0  0  0
    9.3100   -4.4290   25.6170 C   0  0  0  0  0  0  0  0  0  0  0  0
   10.6880   -4.5090   25.6160 C   0  0  0  0  0  0  0  0  0  0  0  0
   11.4410   -3.2520   25.4060 C   0  0  0  0  0  0  0  0  0  0  0  0
   12.8300   -3.1580   25.3800 C   0  0  0  0  0  0  0  0  0  0  0  0
   13.9830   -3.0780   25.3940 N   0  0  0  0  0  0  0  0  0  0  0  0
   10.6160   -2.2130   25.2530 C   0  0  0  0  0  0  0  0  0  0  0  0
    9.2450   -2.3240   25.2900 N   0  0  0  0  0  0  0  0  0  0  0  0
    7.2980   -1.4300   23.7750 N   0  0  0  0  0  0  0  0  0  0  0  0
    5.7950   -0.7390   21.6490 C   0  0  0  0  0  0  0  0  0  0  0  0
    5.2880   -1.6960   20.6130 C   0  0  0  0  0  0  0  0  0  0  0  0
  1  2  2  3
  1  3  1  0
  3  4  1  0
  4  5  1  0
  5  6  1  0
  6  7  1  0
  7  8  1  0
  8  9  1  0
  9 10  2  0
 10 11  1  0
 11 12  2  0
 12 13  1  0
 13 14  3  0
 12 15  1  0
 15 16  1  0
 16 17  1  0
 17 18  1  0
 18 19  1  0
 19 20  1  0
 20 21  2  0
 21 22  1  0
 22 23  2  0
 23 24  1  0
 24 25  3  0
 23 26  1  0
 20 27  1  0
 26 27  2  0
  9 28  1  0
 15 28  2  0
  6 29  1  0
  3 30  1  0
 29 30  1  0
M  END
