MAK-UNK-516d8086-7-chloroacetamide
     RDKit          3D

 22 24  0  0  0  0  0  0  0  0999 V2000
    8.4030   -3.5860   19.6780 C   0  0  0  0  0  0  0  0  0  0  0  0
    7.1610   -3.9820   20.4660 C   0  0  0  0  0  0  0  0  0  0  0  0
    6.1800   -4.6060   19.9790 O   0  0  0  0  0  0  0  0  0  0  0  0
    7.2360   -3.4350   21.9570 C   0  0  0  0  0  0  0  0  0  0  0  0
    6.0010   -3.4540   22.8090 C   0  0  0  0  0  0  0  0  0  0  0  0
    5.9880   -2.9970   24.0730 N   0  0  0  0  0  0  0  0  0  0  0  0
    7.1690   -2.4970   24.5710 C   0  0  0  0  0  0  0  0  0  0  0  0
    7.1360   -2.0050   25.9070 N   0  0  0  0  0  0  0  0  0  0  0  0
    6.6440   -0.6360   26.0450 C   0  0  0  0  0  0  0  0  0  0  0  0
    7.6480    0.0820   26.6970 C   0  0  0  0  0  0  0  0  0  0  0  0
    8.4400   -2.4360   23.8220 C   0  0  0  0  0  0  0  0  0  0  0  0
    9.7450   -1.9370   24.2180 C   0  0  0  0  0  0  0  0  0  0  0  0
   10.2490   -3.4610   23.9750 C   0  0  0  0  0  0  0  0  0  0  0  0
    9.1590   -4.2110   23.5890 C   0  0  0  0  0  0  0  0  0  0  0  0
    9.0520   -3.0200   23.8280 C   0  0  0  0  0  0  0  0  0  0  0  0
    8.3900   -1.9000   23.9470 C   0  0  0  0  0  0  0  0  0  0  0  0
    8.6750   -0.7620   24.2610 C   0  0  0  0  0  0  0  0  0  0  0  0
    9.7890   -1.3140   24.3880 C   0  0  0  0  0  0  0  0  0  0  0  0
    9.9260   -0.2650   25.4170 O   0  0  0  0  0  0  0  0  0  0  0  0
   10.8260   -1.8180   23.7930 N   0  0  0  0  0  0  0  0  0  0  0  0
   10.4290   -2.9690   24.0610 C   0  0  0  0  0  0  0  0  0  0  0  0
    8.4100   -2.9320   22.4860 C   0  0  0  0  0  0  0  0  0  0  0  0
  1  2  1  0
  2  3  2  0
  2  4  1  0
  4  5  2  0
  5  6  1  0
  6  7  2  0
  7  8  1  0
  8  9  1  0
  9 10  1  0
  7 11  1  0
 11 12  1  0
 12 13  2  0
 13 14  1  0
 14 15  2  0
 15 16  1  0
 12 17  1  0
 16 17  2  0
 16 18  1  0
 18 19  2  0
 18 20  1  0
 15 21  1  0
 20 21  1  0
  4 22  1  0
 11 22  2  0
M  END
