MAK-UNK-702fb7d3-20
     RDKit          3D

 43 48  0  0  0  0  0  0  0  0999 V2000
   12.1880    0.3390   23.9330 C   0  0  0  0  0  0  0  0  0  0  0  0
   11.4650   -0.2800   25.0180 N   0  0  0  0  0  0  0  0  0  0  0  0
   10.0060   -0.3030   24.9940 C   0  0  2  0  0  0  0  0  0  0  0  0
    9.3900   -0.5640   26.6670 Cl  0  0  0  0  0  0  0  0  0  0  0  0
    9.5570   -1.3180   24.1620 C   0  0  0  0  0  0  0  0  0  0  0  0
    9.3770   -1.1360   22.9580 O   0  0  0  0  0  0  0  0  0  0  0  0
    9.3470   -2.4610   24.8240 N   0  0  0  0  0  0  0  0  0  0  0  0
    8.0640   -2.6100   25.3720 C   0  0  0  0  0  0  0  0  0  0  0  0
    7.9650   -3.5630   26.3610 C   0  0  0  0  0  0  0  0  0  0  0  0
    7.2460   -3.3150   27.5420 C   0  0  0  0  0  0  0  0  0  0  0  0
    7.1510   -4.4010   28.5880 C   0  0  0  0  0  0  0  0  0  0  0  0
    7.8300   -5.7320   28.3770 C   0  0  0  0  0  0  0  0  0  0  0  0
    8.5910   -5.9270   27.1030 C   0  0  0  0  0  0  0  0  0  0  0  0
    8.6080   -4.7770   26.1190 C   0  0  0  0  0  0  0  0  0  0  0  0
    9.3110   -4.9460   24.8140 C   0  0  1  0  0  0  0  0  0  0  0  0
    8.2440   -5.3660   24.0110 C   0  0  0  0  0  0  0  0  0  0  0  0
    6.9190   -5.3260   24.7580 C   0  0  0  0  0  0  0  0  0  0  0  0
    5.6490   -5.7090   24.1460 C   0  0  0  0  0  0  0  0  0  0  0  0
    5.8260   -6.1480   22.6720 C   0  0  0  0  0  0  0  0  0  0  0  0
    7.1950   -6.1580   21.9850 C   0  0  0  0  0  0  0  0  0  0  0  0
    8.3540   -5.7600   22.7100 C   0  0  0  0  0  0  0  0  0  0  0  0
    9.9840   -3.6860   24.2690 C   0  0  0  0  0  0  0  0  0  0  0  0
    9.5570    0.9580   24.7530 C   0  0  0  0  0  0  0  0  0  0  0  0
    8.7980    1.7170   25.5860 C   0  0  0  0  0  0  0  0  0  0  0  0
    8.4780    3.0560   24.9960 C   0  0  0  0  0  0  0  0  0  0  0  0
    7.6380    4.1300   25.7140 C   0  0  0  0  0  0  0  0  0  0  0  0
    8.2370    5.2670   26.1140 C   0  0  0  0  0  0  0  0  0  0  0  0
    7.4870    6.3060   26.8030 C   0  0  0  0  0  0  0  0  0  0  0  0
    6.1770    6.1260   27.0410 C   0  0  0  0  0  0  0  0  0  0  0  0
    5.5420    4.9540   26.6320 C   0  0  0  0  0  0  0  0  0  0  0  0
    6.2710    3.9640   25.9730 C   0  0  0  0  0  0  0  0  0  0  0  0
    5.6290    2.8470   25.5940 F   0  0  0  0  0  0  0  0  0  0  0  0
    9.1150    2.9470   23.7820 N   0  0  0  0  0  0  0  0  0  0  0  0
    9.1850    4.0250   22.5330 S   0  0  0  0  0  0  0  0  0  0  0  0
    9.1320    3.0920   21.4080 O   0  0  0  0  0  0  0  0  0  0  0  0
    8.1150    4.9730   22.7650 O   0  0  0  0  0  0  0  0  0  0  0  0
   10.7090    4.8890   22.6240 C   0  0  0  0  0  0  0  0  0  0  0  0
   11.8550    4.4260   21.9620 C   0  0  0  0  0  0  0  0  0  0  0  0
   13.0220    5.1550   22.0420 C   0  0  0  0  0  0  0  0  0  0  0  0
   13.0040    6.3190   22.7860 C   0  0  0  0  0  0  0  0  0  0  0  0
   11.9210    6.7870   23.4480 N   0  0  0  0  0  0  0  0  0  0  0  0
   10.7670    6.0610   23.3570 C   0  0  0  0  0  0  0  0  0  0  0  0
    9.7670    1.7290   23.6400 C   0  0  0  0  0  0  0  0  0  0  0  0
  1  2  1  0
  3  2  1  1
  3  4  1  0
  3  5  1  0
  5  6  2  0
  5  7  1  0
  7  8  1  0
  8  9  1  0
  9 10  2  0
 10 11  1  0
 11 12  2  0
 12 13  1  0
  9 14  1  0
 13 14  2  0
 14 15  1  0
 15 16  1  6
 16 17  2  0
 17 18  1  0
 18 19  2  0
 19 20  1  0
 16 21  1  0
 20 21  2  0
  7 22  1  0
 15 22  1  0
  3 23  1  0
 23 24  1  0
 24 25  2  0
 25 26  1  0
 26 27  2  0
 27 28  1  0
 28 29  2  0
 29 30  1  0
 26 31  1  0
 30 31  2  0
 31 32  1  0
 25 33  1  0
 33 34  1  0
 34 35  2  0
 34 36  2  0
 34 37  1  0
 37 38  2  0
 38 39  1  0
 39 40  2  0
 40 41  1  0
 37 42  1  0
 41 42  2  0
 23 43  2  0
 33 43  1  0
M  END
