MAK-UNK-704ed37c-16-vinylsulfonamide
     RDKit          3D

 14 14  0  0  0  0  0  0  0  0999 V2000
    7.1300   -2.9480   18.7370 C   0  0  0  0  0  0  0  0  0  0  0  0
    6.2740   -2.4370   19.8820 C   0  0  0  0  0  0  0  0  0  0  0  0
    5.5400   -3.7820   20.8210 S   0  0  0  0  0  0  0  0  0  0  0  0
    5.1410   -4.8700   19.9640 O   0  0  0  0  0  0  0  0  0  0  0  0
    4.5100   -3.2590   21.6160 O   0  0  0  0  0  0  0  0  0  0  0  0
    6.7350   -4.3070   21.8700 N   0  0  0  0  0  0  0  0  0  0  0  0
    7.5640   -3.3220   22.4610 C   0  0  0  0  0  0  0  0  0  0  0  0
    7.0230   -2.7630   23.6030 C   0  0  0  0  0  0  0  0  0  0  0  0
    6.3750   -3.6580   24.4480 C   0  0  1  0  0  0  0  0  0  0  0  0
    5.6810   -3.1830   25.5540 C   0  0  0  0  0  0  0  0  0  0  0  0
    6.1730   -3.2560   26.8140 N   0  0  0  0  0  0  0  0  0  0  0  0
    4.5750   -2.6820   25.3830 O   0  0  0  0  0  0  0  0  0  0  0  0
    5.5280   -4.6040   23.7810 O   0  0  0  0  0  0  0  0  0  0  0  0
    6.1960   -5.3150   22.7520 C   0  0  0  0  0  0  0  0  0  0  0  0
  1  2  1  0
  3  2  1  0
  3  4  2  0
  3  5  2  0
  3  6  1  0
  6  7  1  0
  7  8  1  0
  8  9  1  0
  9 10  1  1
 10 11  1  0
 10 12  2  0
  9 13  1  0
  6 14  1  0
 13 14  1  0
M  END
