MAK-UNK-ec98eaf6-52-chloroacetamide
     RDKit          3D

 31 34  0  0  0  0  0  0  0  0999 V2000
    7.3880   -3.0520   18.8730 C   0  0  0  0  0  0  0  0  0  0  0  0
    6.3700   -3.4100   19.9790 C   0  0  0  0  0  0  0  0  0  0  0  0
    5.5670   -4.3370   19.8360 O   0  0  0  0  0  0  0  0  0  0  0  0
    6.3470   -2.6520   21.1390 N   0  0  0  0  0  0  0  0  0  0  0  0
    6.0550   -3.1800   22.4920 C   0  0  0  0  0  0  0  0  0  0  0  0
    7.4870   -3.4050   23.0100 C   0  0  1  0  0  0  0  0  0  0  0  0
    7.8570   -3.0680   21.6290 C   0  0  0  0  0  0  0  0  0  0  0  0
    7.2620   -1.6100   21.5290 C   0  0  2  0  0  0  0  0  0  0  0  0
    8.6330   -1.6550   22.1470 C   0  0  0  0  0  0  0  0  0  0  0  0
    8.3080   -2.2750   23.4760 N   0  0  0  0  0  0  0  0  0  0  0  0
    9.5430   -2.6980   24.1240 C   0  0  2  0  0  0  0  0  0  0  0  0
    9.4720   -2.7940   25.6340 C   0  0  0  0  0  0  0  0  0  0  0  0
    9.3570   -4.1820   26.1830 C   0  0  0  0  0  0  0  0  0  0  0  0
    8.2060   -4.4960   26.9080 C   0  0  0  0  0  0  0  0  0  0  0  0
    7.7400   -3.6810   27.9420 C   0  0  0  0  0  0  0  0  0  0  0  0
    6.5760   -4.0290   28.6340 C   0  0  0  0  0  0  0  0  0  0  0  0
    5.8680   -5.1930   28.3050 C   0  0  0  0  0  0  0  0  0  0  0  0
    4.6990   -5.5610   28.9770 C   0  0  0  0  0  0  0  0  0  0  0  0
    3.8520   -6.2980   28.2020 F   0  0  0  0  0  0  0  0  0  0  0  0
    3.9530   -4.5020   29.4000 F   0  0  0  0  0  0  0  0  0  0  0  0
    4.9460   -6.3260   30.0760 F   0  0  0  0  0  0  0  0  0  0  0  0
    6.3460   -5.9990   27.2780 C   0  0  0  0  0  0  0  0  0  0  0  0
    7.5140   -5.6420   26.5850 C   0  0  0  0  0  0  0  0  0  0  0  0
   10.5950   -1.6580   23.7710 C   0  0  0  0  0  0  0  0  0  0  0  0
   10.6640   -0.4070   24.4030 C   0  0  0  0  0  0  0  0  0  0  0  0
   11.6680    0.5020   24.0350 C   0  0  0  0  0  0  0  0  0  0  0  0
   12.5980    0.2370   23.0570 C   0  0  0  0  0  0  0  0  0  0  0  0
   12.4720   -1.0630   22.4120 C   0  0  0  0  0  0  0  0  0  0  0  0
   13.4120   -1.3400   21.3390 C   0  0  0  0  0  0  0  0  0  0  0  0
   14.0100   -1.4620   20.4230 N   0  0  0  0  0  0  0  0  0  0  0  0
   11.5050   -1.9720   22.7750 C   0  0  0  0  0  0  0  0  0  0  0  0
  1  2  1  0
  2  3  2  0
  2  4  1  0
  4  5  1  0
  6  5  1  6
  6  7  1  0
  4  8  1  0
  7  8  1  0
  8  9  1  1
  6 10  1  0
  9 10  1  0
 10 11  1  0
 11 12  1  1
 12 13  1  0
 13 14  1  0
 14 15  2  0
 15 16  1  0
 16 17  2  0
 17 18  1  0
 18 19  1  0
 18 20  1  0
 18 21  1  0
 17 22  1  0
 14 23  1  0
 22 23  2  0
 11 24  1  0
 24 25  2  0
 25 26  1  0
 26 27  2  0
 27 28  1  0
 28 29  1  0
 29 30  3  0
 24 31  1  0
 28 31  2  0
M  END
