MAK-UNK-e4a48a85-22-nitrile
     RDKit          3D

 22 24  0  0  0  0  0  0  0  0999 V2000
    6.5080   -4.1460   20.1750 C   0  0  0  0  0  0  0  0  0  0  0  0
    5.5480   -3.6810   19.4730 N   0  0  0  0  0  0  0  0  0  0  0  0
    7.0340   -3.4530   21.2150 N   0  0  0  0  0  0  0  0  0  0  0  0
    7.6810   -2.1890   20.9650 C   0  0  0  0  0  0  0  0  0  0  0  0
    8.8570   -2.2110   21.6670 C   0  0  0  0  0  0  0  0  0  0  0  0
    8.7670   -2.5300   23.0160 N   0  0  0  0  0  0  0  0  0  0  0  0
    9.9880   -2.4090   23.6200 C   0  0  0  0  0  0  0  0  0  0  0  0
   10.2310   -1.0680   23.6000 C   0  0  0  0  0  0  0  0  0  0  0  0
   11.5640   -0.4630   23.4660 N   0  0  0  0  0  0  0  0  0  0  0  0
   11.5510    1.0200   23.4150 C   0  0  0  0  0  0  0  0  0  0  0  0
   10.2980    1.6490   23.5000 C   0  0  0  0  0  0  0  0  0  0  0  0
   10.0410    3.1560   23.4410 C   0  0  0  0  0  0  0  0  0  0  0  0
   11.1600    3.9370   23.4220 C   0  0  0  0  0  0  0  0  0  0  0  0
   11.1970    5.3260   23.9130 C   0  0  0  0  0  0  0  0  0  0  0  0
   12.4010    5.9550   23.8190 C   0  0  0  0  0  0  0  0  0  0  0  0
   13.5920    4.8110   23.1020 S   0  0  0  0  0  0  0  0  0  0  0  0
   12.4130    3.5290   22.9390 C   0  0  0  0  0  0  0  0  0  0  0  0
    9.1380    0.9430   23.6450 C   0  0  0  0  0  0  0  0  0  0  0  0
    7.9290    1.5740   23.7400 N   0  0  0  0  0  0  0  0  0  0  0  0
    9.0910   -0.3620   23.6960 N   0  0  0  0  0  0  0  0  0  0  0  0
    7.9510   -3.7230   23.3390 C   0  0  0  0  0  0  0  0  0  0  0  0
    6.7360   -3.7380   22.6090 C   0  0  0  0  0  0  0  0  0  0  0  0
  1  2  2  3
  1  3  1  0
  3  4  1  0
  4  5  1  0
  5  6  1  0
  6  7  1  0
  7  8  1  0
  8  9  2  0
  9 10  1  0
 10 11  2  0
 11 12  1  0
 12 13  1  0
 13 14  1  0
 14 15  2  0
 15 16  1  0
 13 17  2  0
 16 17  1  0
 11 18  1  0
 18 19  1  0
  8 20  1  0
 18 20  2  0
  6 21  1  0
  3 22  1  0
 21 22  1  0
M  END
