MAK-UNK-6435e6c2-8
     RDKit          3D

 11 11  0  0  0  0  0  0  0  0999 V2000
    6.8630   -2.5000   19.8610 C   0  0  0  0  0  0  0  0  0  0  0  0
    6.1300   -3.7320   20.1290 C   0  0  0  0  0  0  0  0  0  0  0  0
    5.1870   -4.1530   19.5010 O   0  0  0  0  0  0  0  0  0  0  0  0
    6.6600   -4.4730   21.2460 N   0  0  0  0  0  0  0  0  0  0  0  0
    5.7150   -5.1750   22.0590 C   0  0  0  0  0  0  0  0  0  0  0  0
    4.9060   -5.7470   23.3260 C   0  0  0  0  0  0  0  0  0  0  0  0
    4.9200   -5.6660   24.7350 N   0  0  0  0  0  0  0  0  0  0  0  0
    5.8650   -4.9090   25.1680 C   0  0  0  0  0  0  0  0  0  0  0  0
    6.6420   -4.3590   24.1460 C   0  0  0  0  0  0  0  0  0  0  0  0
    6.7160   -4.3700   22.7170 C   0  0  0  0  0  0  0  0  0  0  0  0
    7.8790   -3.4980   22.1230 C   0  0  0  0  0  0  0  0  0  0  0  0
  1  2  1  0
  2  3  2  0
  2  4  1  0
  4  5  1  0
  5  6  2  0
  6  7  1  0
  7  8  2  0
  8  9  1  0
  5 10  1  0
  9 10  2  0
 10 11  1  0
M  END
