MAK-UNK-9a6be56d-9
     RDKit          3D

 38 42  0  0  0  0  0  0  0  0999 V2000
    7.5420    1.8890   23.4920 C   0  0  0  0  0  0  0  0  0  0  0  0
    8.2530    0.7510   23.1770 N   0  0  0  0  0  0  0  0  0  0  0  0
    9.0770    0.1510   24.0940 C   0  0  1  0  0  0  0  0  0  0  0  0
    8.6270   -1.1310   24.2440 C   0  0  0  0  0  0  0  0  0  0  0  0
    7.5470   -1.8000   23.5650 C   0  0  0  0  0  0  0  0  0  0  0  0
    7.4280   -3.0960   23.9780 C   0  0  0  0  0  0  0  0  0  0  0  0
    6.5050   -4.0350   23.5240 C   0  0  0  0  0  0  0  0  0  0  0  0
    5.1360   -3.7390   23.5420 C   0  0  0  0  0  0  0  0  0  0  0  0
    4.1230   -4.7850   23.0520 C   0  0  0  0  0  0  0  0  0  0  0  0
    4.5970   -6.0060   22.5990 C   0  0  0  0  0  0  0  0  0  0  0  0
    6.0430   -6.2490   22.6030 C   0  0  0  0  0  0  0  0  0  0  0  0
    6.9430   -5.2910   23.0520 C   0  0  0  0  0  0  0  0  0  0  0  0
    8.2430   -5.5820   23.0300 F   0  0  0  0  0  0  0  0  0  0  0  0
    8.3950   -3.3320   24.9200 N   0  0  0  0  0  0  0  0  0  0  0  0
    8.9580   -4.5820   25.8660 S   0  0  0  0  0  0  0  0  0  0  0  0
    8.6700   -5.8110   25.1660 O   0  0  0  0  0  0  0  0  0  0  0  0
    8.6240   -4.3620   27.2560 O   0  0  0  0  0  0  0  0  0  0  0  0
   10.5720   -3.9910   25.5200 C   0  0  0  0  0  0  0  0  0  0  0  0
   11.5690   -4.2980   26.3300 C   0  0  0  0  0  0  0  0  0  0  0  0
   12.9060   -3.9210   26.2080 C   0  0  0  0  0  0  0  0  0  0  0  0
   13.2270   -3.1270   25.1170 C   0  0  0  0  0  0  0  0  0  0  0  0
   12.2170   -2.7200   24.1470 N   0  0  0  0  0  0  0  0  0  0  0  0
   10.8490   -3.2120   24.4410 C   0  0  0  0  0  0  0  0  0  0  0  0
    9.1530   -2.0630   25.0960 C   0  0  0  0  0  0  0  0  0  0  0  0
   10.5550    0.1250   23.8450 N   0  0  0  0  0  0  0  0  0  0  0  0
   11.1310   -1.1400   23.3680 C   0  0  0  0  0  0  0  0  0  0  0  0
   12.2910   -1.0650   22.5720 C   0  0  0  0  0  0  0  0  0  0  0  0
   13.0970    0.0230   22.8370 C   0  0  0  0  0  0  0  0  0  0  0  0
   12.4890    1.2500   22.9960 C   0  0  0  0  0  0  0  0  0  0  0  0
   13.1360    2.5490   22.6380 C   0  0  0  0  0  0  0  0  0  0  0  0
   12.4740    3.7320   22.8370 C   0  0  0  0  0  0  0  0  0  0  0  0
   11.1930    3.7170   23.3780 C   0  0  0  0  0  0  0  0  0  0  0  0
   10.3120    5.2240   23.6730 S   0  0  0  0  0  0  0  0  0  0  0  0
   11.4610    6.3930   23.3150 N   0  0  0  0  0  0  0  0  0  0  0  0
    9.9930    5.3210   25.0770 O   0  0  0  0  0  0  0  0  0  0  0  0
    9.2510    5.3540   22.7040 O   0  0  0  0  0  0  0  0  0  0  0  0
   10.5350    2.5270   23.7230 C   0  0  0  0  0  0  0  0  0  0  0  0
   11.1980    1.3000   23.5200 C   0  0  0  0  0  0  0  0  0  0  0  0
  1  2  1  0
  3  2  1  6
  3  4  1  0
  4  5  1  0
  5  6  2  0
  6  7  1  0
  7  8  2  0
  8  9  1  0
  9 10  2  0
 10 11  1  0
  7 12  1  0
 11 12  2  0
 12 13  1  0
  6 14  1  0
 14 15  1  0
 15 16  2  0
 15 17  2  0
 15 18  1  0
 18 19  2  0
 19 20  1  0
 20 21  2  0
 21 22  1  0
 18 23  1  0
 22 23  2  0
  4 24  2  0
 14 24  1  0
  3 25  1  0
 25 26  1  0
 26 27  1  0
 27 28  1  0
 28 29  1  0
 29 30  2  0
 30 31  1  0
 31 32  2  0
 32 33  1  0
 33 34  1  0
 33 35  2  0
 33 36  2  0
 32 37  1  0
 25 38  1  0
 29 38  1  0
 37 38  2  0
M  END
