MAK-UNK-8fdbca50-39-vinylsulfonamide
     RDKit          3D

 41 44  0  0  0  0  0  0  0  0999 V2000
    8.4330   -3.7100   20.1260 C   0  0  0  0  0  0  0  0  0  0  0  0
    7.0380   -4.2480   20.5050 C   0  0  0  0  0  0  0  0  0  0  0  0
    6.2880   -3.4600   21.8940 S   0  0  0  0  0  0  0  0  0  0  0  0
    4.8690   -3.8030   21.9140 O   0  0  0  0  0  0  0  0  0  0  0  0
    7.1030   -3.7700   23.0370 O   0  0  0  0  0  0  0  0  0  0  0  0
    6.3350   -1.7750   21.7240 N   0  0  0  0  0  0  0  0  0  0  0  0
    7.4280   -1.1730   20.9760 C   0  0  0  0  0  0  0  0  0  0  0  0
    7.4710    0.2120   21.1840 C   0  0  0  0  0  0  0  0  0  0  0  0
    6.2560    0.8810   21.4310 C   0  0  0  0  0  0  0  0  0  0  0  0
    6.1380    2.3480   21.3000 C   0  0  0  0  0  0  0  0  0  0  0  0
    7.2040    2.4640   22.3440 C   0  0  0  0  0  0  0  0  0  0  0  0
    7.8840    1.4700   22.9920 N   0  0  0  0  0  0  0  0  0  0  0  0
    7.6790    1.2090   24.3490 C   0  0  0  0  0  0  0  0  0  0  0  0
    8.2970   -0.0100   24.6630 C   0  0  0  0  0  0  0  0  0  0  0  0
    9.6840   -0.2610   24.2450 C   0  0  0  0  0  0  0  0  0  0  0  0
   10.1170   -1.6040   24.6580 C   0  0  0  0  0  0  0  0  0  0  0  0
   11.5440   -1.8940   24.2250 C   0  0  0  0  0  0  0  0  0  0  0  0
   12.4350   -2.7240   24.9640 C   0  0  0  0  0  0  0  0  0  0  0  0
   12.9710   -3.5080   25.8440 C   0  0  0  0  0  0  0  0  0  0  0  0
   13.8050   -3.0360   24.6500 C   0  0  0  0  0  0  0  0  0  0  0  0
   13.3410   -2.1460   23.5510 C   0  0  0  0  0  0  0  0  0  0  0  0
   12.1480   -1.4060   23.1100 C   0  0  0  0  0  0  0  0  0  0  0  0
   13.0540   -1.1430   22.1600 F   0  0  0  0  0  0  0  0  0  0  0  0
    9.0820   -2.2420   25.3310 N   0  0  0  0  0  0  0  0  0  0  0  0
    9.0360   -3.8220   26.0190 S   0  0  0  0  0  0  0  0  0  0  0  0
   10.4060   -4.2440   26.2380 O   0  0  0  0  0  0  0  0  0  0  0  0
    8.0510   -3.8060   27.0850 O   0  0  0  0  0  0  0  0  0  0  0  0
    8.3410   -4.7580   24.7400 C   0  0  0  0  0  0  0  0  0  0  0  0
    9.0980   -5.1040   23.6360 C   0  0  0  0  0  0  0  0  0  0  0  0
    8.5260   -5.8380   22.6240 C   0  0  0  0  0  0  0  0  0  0  0  0
    7.0610   -6.2410   22.7770 C   0  0  0  0  0  0  0  0  0  0  0  0
    6.3380   -5.8940   23.8630 N   0  0  0  0  0  0  0  0  0  0  0  0
    6.9970   -5.1560   24.8270 C   0  0  0  0  0  0  0  0  0  0  0  0
    7.9090   -1.2290   25.3450 C   0  0  0  0  0  0  0  0  0  0  0  0
    5.1980    1.7990   20.3790 N   0  0  0  0  0  0  0  0  0  0  0  0
    3.8810    1.9050   20.6780 C   0  0  0  0  0  0  0  0  0  0  0  0
    5.4370    1.5280   19.0630 C   0  0  0  0  0  0  0  0  0  0  0  0
    6.7140    1.0420   18.7910 C   0  0  0  0  0  0  0  0  0  0  0  0
    4.4330    0.5120   18.5450 C   0  0  0  0  0  0  0  0  0  0  0  0
    5.6200    0.4050   22.7310 C   0  0  0  0  0  0  0  0  0  0  0  0
    5.9110   -1.0700   22.9380 C   0  0  0  0  0  0  0  0  0  0  0  0
  1  2  1  0
  3  2  1  0
  3  4  2  0
  3  5  2  0
  3  6  1  0
  6  7  1  0
  7  8  1  0
  8  9  1  0
  9 10  1  0
 10 11  2  3
 11 12  1  0
 12 13  1  0
 13 14  1  0
 14 15  1  0
 15 16  2  0
 16 17  1  0
 17 18  2  0
 18 19  1  0
 19 20  2  0
 20 21  1  0
 17 22  1  0
 21 22  2  0
 22 23  1  0
 16 24  1  0
 24 25  1  0
 25 26  2  0
 25 27  2  0
 25 28  1  0
 28 29  2  0
 29 30  1  0
 30 31  2  0
 31 32  1  0
 28 33  1  0
 32 33  2  0
 14 34  2  0
 24 34  1  0
 10 35  1  0
 35 36  1  0
 35 37  1  0
 37 38  1  0
 37 39  1  0
  9 40  1  0
  6 41  1  0
 40 41  1  0
M  END
