MAK-UNK-ec98eaf6-49-vinylsulfonamide
     RDKit          3D

 28 31  0  0  0  0  0  0  0  0999 V2000
    8.9530   -3.9570   20.3380 C   0  0  0  0  0  0  0  0  0  0  0  0
    7.7020   -3.2090   19.7820 C   0  0  0  0  0  0  0  0  0  0  0  0
    6.2150   -3.6780   20.6820 S   0  0  0  0  0  0  0  0  0  0  0  0
    5.1020   -3.9880   19.8000 O   0  0  0  0  0  0  0  0  0  0  0  0
    6.5940   -4.6900   21.6320 O   0  0  0  0  0  0  0  0  0  0  0  0
    5.8380   -2.2760   21.5660 N   0  0  0  0  0  0  0  0  0  0  0  0
    5.6330   -2.4490   22.9960 C   0  0  0  0  0  0  0  0  0  0  0  0
    7.0900   -2.6240   23.3930 C   0  0  1  0  0  0  0  0  0  0  0  0
    7.5620   -2.5010   21.9650 C   0  0  0  0  0  0  0  0  0  0  0  0
    6.8200   -1.1790   21.5530 C   0  0  2  0  0  0  0  0  0  0  0  0
    8.0880   -0.9220   22.3970 C   0  0  0  0  0  0  0  0  0  0  0  0
    7.7420   -1.3900   23.7800 N   0  0  0  0  0  0  0  0  0  0  0  0
    8.8970   -1.4950   24.6890 C   0  0  1  0  0  0  0  0  0  0  0  0
    9.1510   -2.9000   25.3130 C   0  0  0  0  0  0  0  0  0  0  0  0
    9.3130   -4.0520   24.3350 C   0  0  0  0  0  0  0  0  0  0  0  0
    8.1870   -4.8280   24.0110 C   0  0  0  0  0  0  0  0  0  0  0  0
    8.2350   -5.7500   22.9650 C   0  0  0  0  0  0  0  0  0  0  0  0
    7.1040   -6.5010   22.6450 C   0  0  0  0  0  0  0  0  0  0  0  0
    5.9200   -6.3440   23.3570 C   0  0  0  0  0  0  0  0  0  0  0  0
    5.8610   -5.4350   24.4070 C   0  0  0  0  0  0  0  0  0  0  0  0
    6.9890   -4.6810   24.7340 C   0  0  0  0  0  0  0  0  0  0  0  0
   10.1480   -0.8820   24.0670 C   0  0  0  0  0  0  0  0  0  0  0  0
   10.4810    0.4490   24.3590 C   0  0  0  0  0  0  0  0  0  0  0  0
   11.6070    1.0970   23.8260 C   0  0  0  0  0  0  0  0  0  0  0  0
   12.4230    0.3780   22.9720 C   0  0  0  0  0  0  0  0  0  0  0  0
   12.1560   -0.9550   22.6290 C   0  0  0  0  0  0  0  0  0  0  0  0
   13.1920   -1.7700   21.5610 Cl  0  0  0  0  0  0  0  0  0  0  0  0
   10.9690   -1.6320   23.1950 C   0  0  0  0  0  0  0  0  0  0  0  0
  1  2  1  0
  3  2  1  0
  3  4  2  0
  3  5  2  0
  3  6  1  0
  6  7  1  0
  8  7  1  6
  8  9  1  0
  6 10  1  0
  9 10  1  0
 10 11  1  1
  8 12  1  0
 11 12  1  0
 12 13  1  0
 13 14  1  6
 14 15  1  0
 15 16  1  0
 16 17  2  0
 17 18  1  0
 18 19  2  0
 19 20  1  0
 16 21  1  0
 20 21  2  0
 13 22  1  0
 22 23  2  0
 23 24  1  0
 24 25  2  0
 25 26  1  0
 26 27  1  0
 22 28  1  0
 26 28  2  0
M  END
