MAK-UNK-10dfa458-11-chloroacetamide
     RDKit          3D

 19 21  0  0  0  0  0  0  0  0999 V2000
    7.9770   -3.6640   20.3900 C   0  0  0  0  0  0  0  0  0  0  0  0
    6.6720   -4.3590   20.6910 C   0  0  0  0  0  0  0  0  0  0  0  0
    5.7390   -4.4640   19.8870 O   0  0  0  0  0  0  0  0  0  0  0  0
    6.4570   -4.8350   21.9450 N   0  0  0  0  0  0  0  0  0  0  0  0
    6.8400   -4.0560   23.0880 C   0  0  1  0  0  0  0  0  0  0  0  0
    5.8750   -2.8570   22.9170 C   0  0  0  0  0  0  0  0  0  0  0  0
    4.7560   -3.4850   22.0140 C   0  0  0  0  0  0  0  0  0  0  0  0
    5.0390   -5.0000   22.0860 C   0  0  2  0  0  0  0  0  0  0  0  0
    4.2450   -5.0510   23.3900 C   0  0  0  0  0  0  0  0  0  0  0  0
    5.2640   -5.3490   24.4710 C   0  0  2  0  0  0  0  0  0  0  0  0
    4.6110   -5.0620   25.8200 C   0  0  0  0  0  0  0  0  0  0  0  0
    3.5620   -3.9400   25.7240 C   0  0  0  0  0  0  0  0  0  0  0  0
    3.9290   -2.5940   25.9740 C   0  0  0  0  0  0  0  0  0  0  0  0
    3.0120   -1.5500   25.9060 C   0  0  0  0  0  0  0  0  0  0  0  0
    1.6450   -1.7630   25.5810 C   0  0  0  0  0  0  0  0  0  0  0  0
    1.1180   -3.0290   25.3050 C   0  0  0  0  0  0  0  0  0  0  0  0
   -0.2380   -3.1900   24.9900 C   0  0  0  0  0  0  0  0  0  0  0  0
    2.0880   -4.2120   25.3650 C   0  0  0  0  0  0  0  0  0  0  0  0
    6.5670   -4.8210   24.3680 C   0  0  0  0  0  0  0  0  0  0  0  0
  1  2  1  0
  2  3  2  0
  2  4  1  0
  4  5  1  0
  5  6  1  1
  6  7  1  0
  4  8  1  0
  8  7  1  6
  8  9  1  0
  9 10  1  0
 10 11  1  1
 11 12  1  0
 12 13  2  0
 13 14  1  0
 14 15  2  0
 15 16  1  0
 16 17  1  0
 12 18  1  0
 16 18  2  0
  5 19  1  0
 10 19  1  0
M  END
