MAK-UNK-5e88aa6a-4
     RDKit          3D

 28 30  0  0  0  0  0  0  0  0999 V2000
   13.1790    6.1330   21.5040 C   0  0  0  0  0  0  0  0  0  0  0  0
   13.4450    4.6940   21.5930 C   0  0  0  0  0  0  0  0  0  0  0  0
   14.0240    3.9530   20.6440 N   0  0  0  0  0  0  0  0  0  0  0  0
   14.1060    2.5900   21.0420 C   0  0  0  0  0  0  0  0  0  0  0  0
   14.6280    1.8010   20.0740 C   0  0  0  0  0  0  0  0  0  0  0  0
   14.4000    0.4130   20.2030 O   0  0  0  0  0  0  0  0  0  0  0  0
   15.2570    2.3600   18.6750 S   0  0  0  0  0  0  0  0  0  0  0  0
   16.7330    1.7770   18.8530 N   0  0  0  0  0  0  0  0  0  0  0  0
   14.5480    1.5750   17.7170 O   0  0  0  0  0  0  0  0  0  0  0  0
   15.2800    3.8020   18.6980 O   0  0  0  0  0  0  0  0  0  0  0  0
   13.5630    2.4640   22.3320 C   0  0  0  0  0  0  0  0  0  0  0  0
   13.3850    1.2690   23.1770 C   0  0  0  0  0  0  0  0  0  0  0  0
   12.7890   -0.0160   23.1360 C   0  0  0  0  0  0  0  0  0  0  0  0
   11.8110   -0.4230   24.2130 C   0  0  0  0  0  0  0  0  0  0  0  0
   11.3230   -1.6830   24.0530 C   0  0  0  0  0  0  0  0  0  0  0  0
   10.3270   -2.2130   25.0060 C   0  0  0  0  0  0  0  0  0  0  0  0
    9.9900   -3.6060   24.7800 N   0  0  0  0  0  0  0  0  0  0  0  0
   10.1000   -4.5080   25.8630 C   0  0  0  0  0  0  0  0  0  0  0  0
    9.1820   -5.5310   25.9270 C   0  0  0  0  0  0  0  0  0  0  0  0
    7.9250   -5.1250   25.5310 C   0  0  0  0  0  0  0  0  0  0  0  0
    7.6660   -4.1270   26.2040 O   0  0  0  0  0  0  0  0  0  0  0  0
    7.8870   -4.7240   24.2150 C   0  0  0  0  0  0  0  0  0  0  0  0
    8.7540   -3.6380   23.9610 C   0  0  0  0  0  0  0  0  0  0  0  0
   11.8570   -2.3220   22.9220 C   0  0  0  0  0  0  0  0  0  0  0  0
   12.9830   -1.3290   22.0440 S   0  0  0  0  0  0  0  0  0  0  0  0
   13.1390    3.8830   22.6090 C   0  0  0  0  0  0  0  0  0  0  0  0
   12.5070    4.6070   23.5880 C   0  0  0  0  0  0  0  0  0  0  0  0
   11.3070    4.8130   23.5730 O   0  0  0  0  0  0  0  0  0  0  0  0
  1  2  1  0
  2  3  1  0
  3  4  1  0
  4  5  1  0
  5  6  2  0
  7  5  1  0
  7  8  1  0
  7  9  2  0
  7 10  2  0
  4 11  2  0
 11 12  1  0
 12 13  1  0
 13 14  2  0
 14 15  1  0
 15 16  1  0
 16 17  1  0
 17 18  1  0
 18 19  1  0
 19 20  1  0
 20 21  1  0
 20 22  1  0
 17 23  1  0
 22 23  1  0
 15 24  2  0
 13 25  1  0
 24 25  1  0
  2 26  2  0
 11 26  1  0
 26 27  1  0
 27 28  2  0
M  END
