MAK-UNK-0cb6a3ad-7
     RDKit          3D

 11 11  0  0  0  0  0  0  0  0999 V2000
   10.4680    0.8610   23.0370 C   0  0  0  0  0  0  0  0  0  0  0  0
   11.2480   -0.4020   23.3160 C   0  0  1  0  0  0  0  0  0  0  0  0
   12.0300   -0.1550   24.5800 C   0  0  0  0  0  0  0  0  0  0  0  0
   12.9590   -1.0850   24.9090 C   0  0  0  0  0  0  0  0  0  0  0  0
   12.5200   -2.3280   24.6550 C   0  0  1  0  0  0  0  0  0  0  0  0
   12.6140   -3.3410   25.4570 C   0  0  0  0  0  0  0  0  0  0  0  0
   11.3960   -3.9310   25.8440 C   0  0  0  0  0  0  0  0  0  0  0  0
   13.6740   -3.6090   26.2400 C   0  0  0  0  0  0  0  0  0  0  0  0
   11.0700   -2.5080   24.2440 C   0  0  0  0  0  0  0  0  0  0  0  0
   10.5700   -3.5610   24.6350 O   0  0  0  0  0  0  0  0  0  0  0  0
   10.3910   -1.4790   23.4440 C   0  0  0  0  0  0  0  0  0  0  0  0
  2  1  1  1
  2  3  1  0
  3  4  1  0
  4  5  1  0
  5  6  1  1
  6  7  1  0
  6  8  1  0
  5  9  1  0
  9 10  2  0
  2 11  1  0
  9 11  1  0
M  END
