MAK-UNK-702fb7d3-19
     RDKit          3D

 43 48  0  0  0  0  0  0  0  0999 V2000
    9.9270    1.0440   23.7180 C   0  0  0  0  0  0  0  0  0  0  0  0
    9.3010    0.0800   24.5880 N   0  0  0  0  0  0  0  0  0  0  0  0
    8.3160    0.4010   25.6230 C   0  0  0  0  0  0  0  0  0  0  0  0
    6.9790    0.3070   25.2320 C   0  0  0  0  0  0  0  0  0  0  0  0
    6.4530    0.7060   24.0240 C   0  0  0  0  0  0  0  0  0  0  0  0
    5.1050    0.5120   23.8950 C   0  0  0  0  0  0  0  0  0  0  0  0
    4.3220    0.8370   22.7670 C   0  0  0  0  0  0  0  0  0  0  0  0
    3.1780    1.8150   23.0180 C   0  0  0  0  0  0  0  0  0  0  0  0
    2.2660    2.2550   21.8730 C   0  0  0  0  0  0  0  0  0  0  0  0
    2.5160    1.7090   20.4790 C   0  0  0  0  0  0  0  0  0  0  0  0
    3.6780    0.7370   20.3070 C   0  0  0  0  0  0  0  0  0  0  0  0
    4.5610    0.3240   21.4860 C   0  0  0  0  0  0  0  0  0  0  0  0
    5.5670   -0.5320   21.2710 F   0  0  0  0  0  0  0  0  0  0  0  0
    4.5880   -0.0620   25.0560 N   0  0  0  0  0  0  0  0  0  0  0  0
    3.0610   -0.5430   25.5490 S   0  0  0  0  0  0  0  0  0  0  0  0
    2.6830   -1.6450   24.6760 O   0  0  0  0  0  0  0  0  0  0  0  0
    3.1060   -0.7600   26.9790 O   0  0  0  0  0  0  0  0  0  0  0  0
    1.9950    0.8570   25.2480 C   0  0  0  0  0  0  0  0  0  0  0  0
    0.9440    0.8870   24.1380 C   0  0  0  0  0  0  0  0  0  0  0  0
    0.1150    2.0790   23.9660 C   0  0  0  0  0  0  0  0  0  0  0  0
    0.3510    3.2570   24.9310 C   0  0  0  0  0  0  0  0  0  0  0  0
    1.3140    3.2030   25.9360 N   0  0  0  0  0  0  0  0  0  0  0  0
    2.1150    1.9920   26.0650 C   0  0  0  0  0  0  0  0  0  0  0  0
    5.8330   -0.1840   25.9100 C   0  0  0  0  0  0  0  0  0  0  0  0
    9.7710   -1.2940   24.3410 C   0  0  0  0  0  0  0  0  0  0  0  0
   10.7230   -1.3100   23.3330 C   0  0  0  0  0  0  0  0  0  0  0  0
   12.2540   -0.7810   24.0830 Cl  0  0  0  0  0  0  0  0  0  0  0  0
    9.3280   -2.3810   25.0210 N   0  0  0  0  0  0  0  0  0  0  0  0
    7.9650   -2.6620   25.1040 C   0  0  0  0  0  0  0  0  0  0  0  0
    7.6910   -3.5200   26.3670 C   0  0  0  0  0  0  0  0  0  0  0  0
    6.5480   -3.2040   27.3320 C   0  0  0  0  0  0  0  0  0  0  0  0
    6.3860   -4.0030   28.4000 C   0  0  0  0  0  0  0  0  0  0  0  0
    7.2770   -5.1380   28.6220 C   0  0  0  0  0  0  0  0  0  0  0  0
    8.2820   -5.4060   27.7620 C   0  0  0  0  0  0  0  0  0  0  0  0
    8.4760   -4.5990   26.6460 C   0  0  0  0  0  0  0  0  0  0  0  0
    9.4330   -4.8210   25.7310 C   0  0  1  0  0  0  0  0  0  0  0  0
    8.8390   -5.3410   24.5900 C   0  0  0  0  0  0  0  0  0  0  0  0
    7.4890   -5.1200   24.2610 C   0  0  0  0  0  0  0  0  0  0  0  0
    6.9530   -5.6680   23.1060 C   0  0  0  0  0  0  0  0  0  0  0  0
    7.7630   -6.4330   22.2900 C   0  0  0  0  0  0  0  0  0  0  0  0
    9.0920   -6.6350   22.6490 C   0  0  0  0  0  0  0  0  0  0  0  0
    9.5850   -6.0940   23.7650 C   0  0  0  0  0  0  0  0  0  0  0  0
   10.2250   -3.5580   25.3220 C   0  0  0  0  0  0  0  0  0  0  0  0
  1  2  1  0
  2  3  1  0
  3  4  1  0
  4  5  1  0
  5  6  2  0
  6  7  1  0
  7  8  2  0
  8  9  1  0
  9 10  2  0
 10 11  1  0
  7 12  1  0
 11 12  2  0
 12 13  1  0
  6 14  1  0
 14 15  1  0
 15 16  2  0
 15 17  2  0
 15 18  1  0
 18 19  2  0
 19 20  1  0
 20 21  2  0
 21 22  1  0
 18 23  1  0
 22 23  2  0
  4 24  2  0
 14 24  1  0
  2 25  2  3
 25 26  1  0
 26 27  1  0
 25 28  1  0
 28 29  1  0
 29 30  1  0
 30 31  2  0
 31 32  1  0
 32 33  2  0
 33 34  1  0
 30 35  1  0
 34 35  2  0
 35 36  1  0
 36 37  1  6
 37 38  2  0
 38 39  1  0
 39 40  2  0
 40 41  1  0
 37 42  1  0
 41 42  2  0
 28 43  1  0
 36 43  1  0
M  CHG  1   2   1
M  END
