MAK-UNK-ec98eaf6-19-acrylamide
     RDKit          3D

 26 29  0  0  0  0  0  0  0  0999 V2000
    7.3390   -2.7250   18.3490 C   0  0  0  0  0  0  0  0  0  0  0  0
    6.1210   -2.1950   19.0880 C   0  0  0  0  0  0  0  0  0  0  0  0
    5.6560   -3.1150   20.1820 C   0  0  0  0  0  0  0  0  0  0  0  0
    5.1960   -4.2420   19.9560 O   0  0  0  0  0  0  0  0  0  0  0  0
    5.8220   -2.6130   21.4390 N   0  0  0  0  0  0  0  0  0  0  0  0
    6.4380   -1.2710   21.6540 C   0  0  0  0  0  0  0  0  0  0  0  0
    7.2640   -1.4610   22.9740 C   0  0  1  0  0  0  0  0  0  0  0  0
    5.9400   -1.9950   23.5050 C   0  0  0  0  0  0  0  0  0  0  0  0
    5.7540   -3.2600   22.7620 C   0  0  2  0  0  0  0  0  0  0  0  0
    7.1070   -3.7950   23.1970 C   0  0  0  0  0  0  0  0  0  0  0  0
    7.4730   -2.5630   23.9710 N   0  0  0  0  0  0  0  0  0  0  0  0
    8.8070   -2.5760   24.5770 C   0  0  0  0  0  0  0  0  0  0  0  0
    9.6680   -1.4290   23.9910 C   0  0  0  0  0  0  0  0  0  0  0  0
    9.2880   -0.2200   24.7740 N   0  0  0  0  0  0  0  0  0  0  0  0
    9.5060    1.0090   24.2050 C   0  0  0  0  0  0  0  0  0  0  0  0
    8.6040    2.0410   24.1850 O   0  0  0  0  0  0  0  0  0  0  0  0
   10.8520    1.1330   23.5950 C   0  0  0  0  0  0  0  0  0  0  0  0
   11.5670    2.3960   23.6370 C   0  0  0  0  0  0  0  0  0  0  0  0
   12.9010    2.4080   23.0520 C   0  0  0  0  0  0  0  0  0  0  0  0
   13.5010    1.1680   22.4440 C   0  0  0  0  0  0  0  0  0  0  0  0
   12.6670   -0.0770   22.4050 C   0  0  0  0  0  0  0  0  0  0  0  0
   13.2530   -1.2960   21.7290 C   0  0  0  0  0  0  0  0  0  0  0  0
   12.4110   -2.5200   21.6650 C   0  0  0  0  0  0  0  0  0  0  0  0
   11.0730   -2.4050   22.2840 C   0  0  0  0  0  0  0  0  0  0  0  0
   10.5680   -1.2050   22.9290 C   0  0  0  0  0  0  0  0  0  0  0  0
   11.3930   -0.0040   22.9840 C   0  0  0  0  0  0  0  0  0  0  0  0
  1  2  1  0
  2  3  1  0
  3  4  2  0
  3  5  1  0
  5  6  1  0
  7  6  1  6
  7  8  1  0
  5  9  1  0
  8  9  1  0
  9 10  1  6
  7 11  1  0
 10 11  1  0
 11 12  1  0
 12 13  1  0
 13 14  1  0
 14 15  1  0
 15 16  2  0
 15 17  1  0
 17 18  2  0
 18 19  1  0
 19 20  2  0
 20 21  1  0
 21 22  1  0
 22 23  2  0
 23 24  1  0
 24 25  2  0
 17 26  1  0
 21 26  2  0
 25 26  1  0
M  END
