MAK-UNK-ec98eaf6-36-acrylamide
     RDKit          3D

 26 29  0  0  0  0  0  0  0  0999 V2000
    7.2500   -2.8270   18.3370 C   0  0  0  0  0  0  0  0  0  0  0  0
    6.2100   -2.3330   19.3060 C   0  0  0  0  0  0  0  0  0  0  0  0
    5.7580   -3.3640   20.2910 C   0  0  0  0  0  0  0  0  0  0  0  0
    5.2060   -4.4260   19.9650 O   0  0  0  0  0  0  0  0  0  0  0  0
    6.0220   -3.0230   21.5720 N   0  0  0  0  0  0  0  0  0  0  0  0
    6.2280   -1.5840   21.8340 C   0  0  0  0  0  0  0  0  0  0  0  0
    7.3550   -1.5590   22.8550 C   0  0  2  0  0  0  0  0  0  0  0  0
    8.1620   -2.8210   22.4440 C   0  0  0  0  0  0  0  0  0  0  0  0
    6.9410   -3.7170   22.4800 C   0  0  1  0  0  0  0  0  0  0  0  0
    6.5830   -3.4610   23.9450 C   0  0  0  0  0  0  0  0  0  0  0  0
    6.7260   -1.9720   24.2160 C   0  0  1  0  0  0  0  0  0  0  0  0
    7.6410   -1.6640   25.3270 N   0  0  0  0  0  0  0  0  0  0  0  0
    8.8210   -0.9170   24.8600 C   0  0  0  0  0  0  0  0  0  0  0  0
    9.0330    0.4120   25.2120 C   0  0  0  0  0  0  0  0  0  0  0  0
   10.1570    1.0880   24.7340 C   0  0  0  0  0  0  0  0  0  0  0  0
   11.0410    0.4320   23.9270 C   0  0  0  0  0  0  0  0  0  0  0  0
   12.1890    1.0110   23.4140 C   0  0  0  0  0  0  0  0  0  0  0  0
   12.9950    0.2710   22.5960 C   0  0  0  0  0  0  0  0  0  0  0  0
   12.6240   -1.0170   22.3020 C   0  0  0  0  0  0  0  0  0  0  0  0
   13.3050   -2.1650   21.3190 S   0  0  0  0  0  0  0  0  0  0  0  0
   11.9150   -2.6710   20.6040 N   0  0  0  0  0  0  0  0  0  0  0  0
   13.6620   -3.2290   22.2190 O   0  0  0  0  0  0  0  0  0  0  0  0
   14.0920   -1.4610   20.3450 O   0  0  0  0  0  0  0  0  0  0  0  0
   11.5440   -1.5750   22.8100 C   0  0  0  0  0  0  0  0  0  0  0  0
   10.7740   -0.8870   23.5980 C   0  0  0  0  0  0  0  0  0  0  0  0
    9.7060   -1.5470   24.0520 C   0  0  0  0  0  0  0  0  0  0  0  0
  1  2  1  0
  2  3  1  0
  3  4  2  0
  3  5  1  0
  5  6  1  0
  7  6  1  6
  7  8  1  0
  5  9  1  0
  8  9  1  0
  9 10  1  1
  7 11  1  0
 10 11  1  0
 11 12  1  1
 12 13  1  0
 13 14  2  0
 14 15  1  0
 15 16  2  0
 16 17  1  0
 17 18  2  0
 18 19  1  0
 19 20  1  0
 20 21  1  0
 20 22  2  0
 20 23  2  0
 19 24  2  0
 16 25  1  0
 24 25  1  0
 13 26  1  0
 25 26  2  0
M  END
