MAK-UNK-148caf23-3-nitrile
     RDKit          3D

 34 37  0  0  0  0  0  0  0  0999 V2000
    7.4690   -3.4430   19.8170 C   0  0  0  0  0  0  0  0  0  0  0  0
    6.8970   -2.8460   18.8280 N   0  0  0  0  0  0  0  0  0  0  0  0
    7.5720   -2.7670   21.2420 C   0  0  0  0  0  0  0  0  0  0  0  0
    6.0560   -2.5990   21.8070 C   0  0  0  0  0  0  0  0  0  0  0  0
    6.4000   -1.9050   23.2280 C   0  0  0  0  0  0  0  0  0  0  0  0
    7.7960   -1.5580   23.7730 C   0  0  0  0  0  0  0  0  0  0  0  0
    7.7550   -0.9100   25.1120 N   0  0  0  0  0  0  0  0  0  0  0  0
    8.5030   -1.3810   26.2740 C   0  0  0  0  0  0  0  0  0  0  0  0
    9.4520   -0.2780   26.7240 C   0  0  0  0  0  0  0  0  0  0  0  0
    8.9280   -1.7700   23.1800 N   0  0  0  0  0  0  0  0  0  0  0  0
    8.8280   -2.3720   21.9030 C   0  0  0  0  0  0  0  0  0  0  0  0
   10.2040   -2.4840   21.4470 N   0  0  0  0  0  0  0  0  0  0  0  0
   11.1190   -1.7320   22.3130 C   0  0  0  0  0  0  0  0  0  0  0  0
   10.6280   -0.3290   22.3870 C   0  0  0  0  0  0  0  0  0  0  0  0
   11.3890    0.7050   22.6010 C   0  0  0  0  0  0  0  0  0  0  0  0
   10.6600    1.9610   22.5710 C   0  0  0  0  0  0  0  0  0  0  0  0
   11.1830    3.2120   22.6960 C   0  0  0  0  0  0  0  0  0  0  0  0
   12.6240    3.4250   22.8400 C   0  0  0  0  0  0  0  0  0  0  0  0
   13.2170    4.6740   22.9480 C   0  0  0  0  0  0  0  0  0  0  0  0
   12.4340    5.8080   22.9180 C   0  0  0  0  0  0  0  0  0  0  0  0
   11.0530    5.7080   22.7830 C   0  0  0  0  0  0  0  0  0  0  0  0
   10.4170    4.4050   22.6720 C   0  0  0  0  0  0  0  0  0  0  0  0
    9.0870    4.3580   22.5420 F   0  0  0  0  0  0  0  0  0  0  0  0
    9.3190    1.4860   22.3340 N   0  0  0  0  0  0  0  0  0  0  0  0
    7.8190    2.2870   22.1440 S   0  0  0  0  0  0  0  0  0  0  0  0
    6.8640    1.2250   21.9210 O   0  0  0  0  0  0  0  0  0  0  0  0
    8.0820    3.2210   21.0930 O   0  0  0  0  0  0  0  0  0  0  0  0
    7.3110    3.0700   23.6450 C   0  0  0  0  0  0  0  0  0  0  0  0
    7.1520    4.4620   23.7000 C   0  0  0  0  0  0  0  0  0  0  0  0
    6.6990    5.0680   25.0290 C   0  0  0  0  0  0  0  0  0  0  0  0
    6.4630    4.0750   26.1650 C   0  0  0  0  0  0  0  0  0  0  0  0
    6.6440    2.7460   26.0030 N   0  0  0  0  0  0  0  0  0  0  0  0
    7.0530    2.2800   24.7840 C   0  0  0  0  0  0  0  0  0  0  0  0
    9.3470    0.1300   22.2300 C   0  0  0  0  0  0  0  0  0  0  0  0
  1  2  2  3
  1  3  1  0
  3  4  2  0
  4  5  1  0
  5  6  2  0
  6  7  1  0
  7  8  1  0
  8  9  1  0
  6 10  1  0
  3 11  1  0
 10 11  2  0
 11 12  1  0
 12 13  1  0
 13 14  1  0
 14 15  1  0
 15 16  2  0
 16 17  1  0
 17 18  2  0
 18 19  1  0
 19 20  2  0
 20 21  1  0
 17 22  1  0
 21 22  2  0
 22 23  1  0
 16 24  1  0
 24 25  1  0
 25 26  2  0
 25 27  2  0
 25 28  1  0
 28 29  2  0
 29 30  1  0
 30 31  2  0
 31 32  1  0
 28 33  1  0
 32 33  2  0
 14 34  2  0
 24 34  1  0
M  END
