MAK-UNK-0d6072ac-18
     RDKit          3D

 20 22  0  0  0  0  0  0  0  0999 V2000
   12.4530   -4.2900   26.2530 C   0  0  0  0  0  0  0  0  0  0  0  0
   12.1310   -3.3020   25.1900 C   0  0  0  0  0  0  0  0  0  0  0  0
   13.1020   -2.2320   25.0470 C   0  0  0  0  0  0  0  0  0  0  0  0
   14.3630   -2.4500   26.1190 Cl  0  0  0  0  0  0  0  0  0  0  0  0
   12.8610   -1.1540   23.9880 C   0  0  0  0  0  0  0  0  0  0  0  0
   11.6140   -1.4220   23.1860 C   0  0  0  0  0  0  0  0  0  0  0  0
   10.8110   -2.5360   23.4290 C   0  0  0  0  0  0  0  0  0  0  0  0
    9.6830   -3.1100   22.9390 N   0  0  0  0  0  0  0  0  0  0  0  0
    9.4990   -4.2480   23.9100 C   0  0  0  0  0  0  0  0  0  0  0  0
    8.0190   -4.5930   23.7820 C   0  0  0  0  0  0  0  0  0  0  0  0
    7.6080   -4.5280   22.5440 C   0  0  0  0  0  0  0  0  0  0  0  0
    6.6130   -4.4300   21.4120 C   0  0  2  0  0  0  0  0  0  0  0  0
    6.2860   -3.2030   20.5710 C   0  0  0  0  0  0  0  0  0  0  0  0
    5.4050   -4.9670   22.0990 C   0  0  0  0  0  0  0  0  0  0  0  0
    5.3340   -6.0360   22.6810 O   0  0  0  0  0  0  0  0  0  0  0  0
    4.3570   -4.1160   22.0510 O   0  0  0  0  0  0  0  0  0  0  0  0
    8.5540   -5.3650   23.3200 C   0  0  0  0  0  0  0  0  0  0  0  0
    9.5350   -5.5090   24.4140 C   0  0  0  0  0  0  0  0  0  0  0  0
   10.4660   -4.6180   24.7910 C   0  0  0  0  0  0  0  0  0  0  0  0
   11.0440   -3.4530   24.4190 C   0  0  0  0  0  0  0  0  0  0  0  0
  1  2  1  0
  2  3  2  0
  3  4  1  0
  3  5  1  0
  5  6  2  0
  6  7  1  0
  7  8  1  0
  8  9  1  0
  9 10  1  0
 10 11  2  0
 11 12  1  0
 12 13  1  1
 12 14  1  0
 14 15  2  0
 14 16  1  0
 11 17  1  0
 17 18  2  0
  9 19  2  0
 18 19  1  0
  2 20  1  0
  7 20  2  0
 19 20  1  0
M  END
