MAK-UNK-5d2caa6f-12-vinylsulfonamide
     RDKit          3D

 24 27  0  0  0  0  0  0  0  0999 V2000
    7.9630   -3.8070   19.9010 C   0  0  0  0  0  0  0  0  0  0  0  0
    7.2640   -2.8150   18.9690 C   0  0  0  0  0  0  0  0  0  0  0  0
    5.7230   -2.4900   19.7190 S   0  0  0  0  0  0  0  0  0  0  0  0
    5.0490   -3.7750   19.8160 O   0  0  0  0  0  0  0  0  0  0  0  0
    5.1270   -1.3340   19.0970 O   0  0  0  0  0  0  0  0  0  0  0  0
    6.3180   -2.0340   21.2230 N   0  0  0  0  0  0  0  0  0  0  0  0
    6.4030   -3.1420   22.1720 C   0  0  0  0  0  0  0  0  0  0  0  0
    7.7540   -3.2050   22.4350 C   0  0  1  0  0  0  0  0  0  0  0  0
    8.5020   -2.6150   21.4210 C   0  0  0  0  0  0  0  0  0  0  0  0
    7.6760   -1.3720   21.3080 C   0  0  2  0  0  0  0  0  0  0  0  0
    7.8180   -0.8940   22.7280 C   0  0  0  0  0  0  0  0  0  0  0  0
    8.1150   -2.1520   23.4380 N   0  0  0  0  0  0  0  0  0  0  0  0
    9.4200   -2.4560   24.0800 C   0  0  0  0  0  0  0  0  0  0  0  0
   10.5870   -1.4900   23.7830 C   0  0  0  0  0  0  0  0  0  0  0  0
   11.5820   -1.9720   22.7430 C   0  0  0  0  0  0  0  0  0  0  0  0
   12.7830   -1.0950   22.3710 C   0  0  0  0  0  0  0  0  0  0  0  0
   12.9100    0.1730   23.0350 C   0  0  0  0  0  0  0  0  0  0  0  0
   11.8420    0.5370   24.0540 C   0  0  0  0  0  0  0  0  0  0  0  0
   10.7640   -0.2770   24.3820 C   0  0  0  0  0  0  0  0  0  0  0  0
    9.9620   -3.8890   23.8590 C   0  0  0  0  0  0  0  0  0  0  0  0
    9.3990   -5.0550   24.6920 C   0  0  0  0  0  0  0  0  0  0  0  0
    8.6330   -4.6270   25.9410 C   0  0  0  0  0  0  0  0  0  0  0  0
    8.0640   -3.2280   25.9140 C   0  0  0  0  0  0  0  0  0  0  0  0
    9.1130   -2.3730   25.5500 C   0  0  0  0  0  0  0  0  0  0  0  0
  1  2  1  0
  3  2  1  0
  3  4  2  0
  3  5  2  0
  3  6  1  0
  6  7  1  0
  8  7  1  6
  8  9  1  0
  6 10  1  0
  9 10  1  0
 10 11  1  1
  8 12  1  0
 11 12  1  0
 12 13  1  0
 13 14  1  0
 14 15  2  0
 15 16  1  0
 16 17  2  0
 17 18  1  0
 14 19  1  0
 18 19  2  0
 13 20  1  0
 20 21  1  0
 21 22  1  0
 22 23  1  0
 13 24  1  0
 23 24  1  0
M  END
