MAK-UNK-8fdbca50-20-nitrile
     RDKit          3D

 38 41  0  0  0  0  0  0  0  0999 V2000
    8.1370   -3.7530   19.8660 C   0  0  0  0  0  0  0  0  0  0  0  0
    6.9140   -3.7280   19.3470 N   0  0  0  0  0  0  0  0  0  0  0  0
    8.1930   -3.3010   21.1590 N   0  0  0  0  0  0  0  0  0  0  0  0
    8.4980   -4.0350   22.3150 C   0  0  0  0  0  0  0  0  0  0  0  0
    9.7580   -3.5000   23.0140 C   0  0  0  0  0  0  0  0  0  0  0  0
   10.3990   -2.5560   21.9970 C   0  0  0  0  0  0  0  0  0  0  0  0
   11.8880   -2.2680   22.2190 C   0  0  0  0  0  0  0  0  0  0  0  0
   12.6240   -2.2900   21.2430 O   0  0  0  0  0  0  0  0  0  0  0  0
   12.4340   -1.9360   23.4230 N   0  0  0  0  0  0  0  0  0  0  0  0
   13.7580   -2.3750   23.6110 C   0  0  0  0  0  0  0  0  0  0  0  0
   14.4160   -3.2610   24.9970 S   0  0  2  0  0  0  0  0  0  0  0  0
   13.9380   -3.7310   26.2650 O   0  0  0  0  0  0  0  0  0  0  0  0
   12.7250   -3.2270   25.3460 C   0  0  0  0  0  0  0  0  0  0  0  0
   12.0920   -4.3620   26.0130 C   0  0  0  0  0  0  0  0  0  0  0  0
   10.7190   -4.5270   26.3340 C   0  0  0  0  0  0  0  0  0  0  0  0
   10.0130   -3.4330   25.9290 C   0  0  0  0  0  0  0  0  0  0  0  0
   10.5280   -2.3190   25.3020 N   0  0  0  0  0  0  0  0  0  0  0  0
   11.8340   -2.2320   25.0250 C   0  0  0  0  0  0  0  0  0  0  0  0
   16.0850   -4.0610   25.1100 N   0  0  0  0  0  0  0  0  0  0  0  0
   15.9070   -5.3260   25.4820 C   0  0  0  0  0  0  0  0  0  0  0  0
   17.0950   -5.9850   25.5600 C   0  0  0  0  0  0  0  0  0  0  0  0
   17.1210   -7.2200   25.9320 C   0  0  0  0  0  0  0  0  0  0  0  0
   17.0380   -8.0770   24.8060 N   0  0  0  0  0  0  0  0  0  0  0  0
   17.6890   -9.3550   25.0180 C   0  0  0  0  0  0  0  0  0  0  0  0
   18.2210   -5.1350   25.2110 C   0  0  0  0  0  0  0  0  0  0  0  0
   17.7590   -3.9500   24.9450 C   0  0  0  0  0  0  0  0  0  0  0  0
   18.8900   -3.0390   24.6190 C   0  0  0  0  0  0  0  0  0  0  0  0
   19.3410   -2.9980   23.3360 C   0  0  0  0  0  0  0  0  0  0  0  0
   20.3840   -2.2090   22.8550 C   0  0  0  0  0  0  0  0  0  0  0  0
   21.1140   -1.3800   23.6510 C   0  0  0  0  0  0  0  0  0  0  0  0
   20.7950   -1.3290   24.9850 C   0  0  0  0  0  0  0  0  0  0  0  0
   19.6430   -2.1890   25.5100 C   0  0  0  0  0  0  0  0  0  0  0  0
   19.4580   -2.0640   26.7900 F   0  0  0  0  0  0  0  0  0  0  0  0
   12.1120   -0.5080   23.5060 C   0  0  0  0  0  0  0  0  0  0  0  0
   12.1030    0.0030   24.7390 C   0  0  0  0  0  0  0  0  0  0  0  0
   13.0050    0.3480   22.6300 C   0  0  0  0  0  0  0  0  0  0  0  0
    9.5030   -1.3280   21.8380 C   0  0  0  0  0  0  0  0  0  0  0  0
    8.1480   -1.8360   21.3410 C   0  0  0  0  0  0  0  0  0  0  0  0
  1  2  2  3
  1  3  1  0
  3  4  1  0
  4  5  1  0
  5  6  1  0
  6  7  1  0
  7  8  2  0
  7  9  1  0
  9 10  1  0
 10 11  2  0
 11 12  2  0
 11 13  1  6
 13 14  2  0
 14 15  1  0
 15 16  2  0
 16 17  1  0
 13 18  1  0
 17 18  2  0
 11 19  1  0
 19 20  1  0
 20 21  2  0
 21 22  1  0
 22 23  1  0
 23 24  1  0
 21 25  1  0
 19 26  1  0
 25 26  2  0
 26 27  1  0
 27 28  2  0
 28 29  1  0
 29 30  2  0
 30 31  1  0
 27 32  1  0
 31 32  2  0
 32 33  1  0
  9 34  1  0
 34 35  1  0
 34 36  1  0
  6 37  1  0
  3 38  1  0
 37 38  1  0
M  END
