MAK-UNK-5d2caa6f-16-chloroacetamide
     RDKit          3D

 20 22  0  0  0  0  0  0  0  0999 V2000
    7.1480   -2.9940   18.7960 C   0  0  0  0  0  0  0  0  0  0  0  0
    6.2250   -3.3240   19.9320 C   0  0  0  0  0  0  0  0  0  0  0  0
    5.4040   -4.2390   19.8080 O   0  0  0  0  0  0  0  0  0  0  0  0
    6.3970   -2.5350   21.0550 N   0  0  0  0  0  0  0  0  0  0  0  0
    7.2300   -1.3220   21.0150 C   0  0  0  0  0  0  0  0  0  0  0  0
    8.0080   -1.2380   22.1730 C   0  0  1  0  0  0  0  0  0  0  0  0
    6.7800   -1.4430   22.8800 C   0  0  0  0  0  0  0  0  0  0  0  0
    6.3530   -2.8340   22.5000 C   0  0  2  0  0  0  0  0  0  0  0  0
    7.5920   -3.5640   22.8780 C   0  0  0  0  0  0  0  0  0  0  0  0
    8.5820   -2.4160   23.0890 C   0  0  2  0  0  0  0  0  0  0  0  0
    8.8810   -2.0100   24.5470 C   0  0  0  0  0  0  0  0  0  0  0  0
    7.9510   -1.6990   25.2860 O   0  0  0  0  0  0  0  0  0  0  0  0
   10.1340   -2.0300   24.9610 N   0  0  0  0  0  0  0  0  0  0  0  0
   10.8360   -0.7580   24.7120 C   0  0  0  0  0  0  0  0  0  0  0  0
   11.7870    0.3370   24.0760 C   0  0  0  0  0  0  0  0  0  0  0  0
   12.6580    0.1800   22.9350 C   0  0  0  0  0  0  0  0  0  0  0  0
   12.6390   -1.1600   22.2970 C   0  0  0  0  0  0  0  0  0  0  0  0
   13.6030   -1.4970   20.9120 Cl  0  0  0  0  0  0  0  0  0  0  0  0
   11.8880   -2.0910   22.7710 C   0  0  0  0  0  0  0  0  0  0  0  0
   11.0400   -1.8870   23.9190 C   0  0  0  0  0  0  0  0  0  0  0  0
  1  2  1  0
  2  3  2  0
  2  4  1  0
  4  5  1  0
  6  5  1  6
  6  7  1  0
  4  8  1  0
  7  8  1  0
  8  9  1  6
  6 10  1  0
  9 10  1  0
 10 11  1  1
 11 12  2  0
 11 13  1  0
 13 14  1  0
 14 15  2  0
 15 16  1  0
 16 17  2  0
 17 18  1  0
 17 19  1  0
 14 20  1  0
 19 20  2  0
M  END
