MAK-UNK-ec98eaf6-10-vinylsulfonamide
     RDKit          3D

 24 26  0  0  0  0  0  0  0  0999 V2000
    7.5330   -3.1420   18.5300 C   0  0  0  0  0  0  0  0  0  0  0  0
    7.3130   -2.2540   19.6980 C   0  0  0  0  0  0  0  0  0  0  0  0
    6.2360   -3.1260   20.8170 S   0  0  0  0  0  0  0  0  0  0  0  0
    5.0230   -3.4250   20.1180 O   0  0  0  0  0  0  0  0  0  0  0  0
    6.8940   -4.1630   21.6390 O   0  0  0  0  0  0  0  0  0  0  0  0
    6.0470   -2.0130   21.9790 N   0  0  0  0  0  0  0  0  0  0  0  0
    5.9880   -2.7000   23.3100 C   0  0  0  0  0  0  0  0  0  0  0  0
    7.0890   -1.8920   24.0140 C   0  0  2  0  0  0  0  0  0  0  0  0
    6.9930   -0.5150   23.3580 C   0  0  0  0  0  0  0  0  0  0  0  0
    7.1860   -1.0240   21.9780 C   0  0  1  0  0  0  0  0  0  0  0  0
    8.4650   -1.7850   22.1880 C   0  0  0  0  0  0  0  0  0  0  0  0
    8.4130   -2.3580   23.4410 N   0  0  0  0  0  0  0  0  0  0  0  0
    9.5200   -2.0660   24.3710 C   0  0  0  0  0  0  0  0  0  0  0  0
   10.6380   -1.1640   23.8510 C   0  0  0  0  0  0  0  0  0  0  0  0
   10.4490    0.2890   24.3060 C   0  0  0  0  0  0  0  0  0  0  0  0
    9.2060    0.5580   25.1550 C   0  0  0  0  0  0  0  0  0  0  0  0
    8.3700    1.5810   24.8540 N   0  0  0  0  0  0  0  0  0  0  0  0
   11.4300    1.3740   23.9290 C   0  0  0  0  0  0  0  0  0  0  0  0
   12.6060    0.9610   23.0950 C   0  0  0  0  0  0  0  0  0  0  0  0
   12.7500   -0.4560   22.6750 C   0  0  0  0  0  0  0  0  0  0  0  0
   11.7860   -1.5660   23.0220 C   0  0  0  0  0  0  0  0  0  0  0  0
   11.9840   -2.8220   22.6000 N   0  0  0  0  0  0  0  0  0  0  0  0
   13.2920   -2.8460   22.0740 C   0  0  0  0  0  0  0  0  0  0  0  0
   13.3210   -1.7390   21.0540 C   0  0  0  0  0  0  0  0  0  0  0  0
  1  2  1  0
  3  2  1  0
  3  4  2  0
  3  5  2  0
  3  6  1  0
  6  7  1  0
  8  7  1  6
  8  9  1  0
  6 10  1  0
  9 10  1  0
 10 11  1  1
  8 12  1  0
 11 12  1  0
 12 13  1  0
 13 14  1  0
 14 15  2  0
 15 16  1  0
 16 17  3  0
 15 18  1  0
 18 19  2  0
 19 20  1  0
 14 21  1  0
 20 21  2  0
 21 22  1  0
 22 23  1  0
 23 24  1  0
M  END
