MAK-UNK-8fdbca50-7-acrylamide
     RDKit          3D

 40 43  0  0  0  0  0  0  0  0999 V2000
    9.0280   -5.1350   20.6060 C   0  0  0  0  0  0  0  0  0  0  0  0
    7.6700   -5.9190   20.5530 C   0  0  0  0  0  0  0  0  0  0  0  0
    6.2570   -5.3190   20.5960 C   0  0  0  0  0  0  0  0  0  0  0  0
    5.3210   -4.5490   20.6880 O   0  0  0  0  0  0  0  0  0  0  0  0
    6.8240   -4.1370   20.8300 N   0  0  0  0  0  0  0  0  0  0  0  0
    6.1310   -2.9190   20.2900 C   0  0  0  0  0  0  0  0  0  0  0  0
    6.4910   -1.7730   21.2370 C   0  0  0  0  0  0  0  0  0  0  0  0
    7.9650   -1.9130   20.9070 C   0  0  0  0  0  0  0  0  0  0  0  0
    8.4560   -0.4790   21.0610 C   0  0  0  0  0  0  0  0  0  0  0  0
    7.7480    0.5280   20.9330 O   0  0  0  0  0  0  0  0  0  0  0  0
    9.8990   -0.4980   21.3730 N   0  0  0  0  0  0  0  0  0  0  0  0
   10.1710    0.7000   22.2210 C   0  0  0  0  0  0  0  0  0  0  0  0
   10.6850   -1.5970   21.9670 C   0  0  1  0  0  0  0  0  0  0  0  0
   12.0630   -1.7110   21.7020 C   0  0  0  0  0  0  0  0  0  0  0  0
   10.3760   -1.0850   23.2720 C   0  0  0  0  0  0  0  0  0  0  0  0
   11.2190   -0.7840   24.2390 C   0  0  0  0  0  0  0  0  0  0  0  0
   11.4490   -0.4070   25.2140 N   0  0  0  0  0  0  0  0  0  0  0  0
   10.0940   -0.0310   25.6350 C   0  0  0  0  0  0  0  0  0  0  0  0
    8.9240   -0.2230   24.8950 C   0  0  0  0  0  0  0  0  0  0  0  0
    7.3890    0.2550   25.5140 S   0  0  0  0  0  0  0  0  0  0  0  0
    7.6100    0.9680   26.7530 O   0  0  0  0  0  0  0  0  0  0  0  0
    6.6700    0.9210   24.4430 O   0  0  0  0  0  0  0  0  0  0  0  0
    6.4320   -1.1070   25.8810 N   0  0  0  0  0  0  0  0  0  0  0  0
    5.0760   -0.9060   26.0040 C   0  0  0  0  0  0  0  0  0  0  0  0
    4.3020   -2.0450   26.3060 C   0  0  0  0  0  0  0  0  0  0  0  0
    2.9190   -2.1110   26.4780 C   0  0  0  0  0  0  0  0  0  0  0  0
    2.4810   -2.9530   25.3640 N   0  0  0  0  0  0  0  0  0  0  0  0
    1.2570   -3.5260   25.6160 C   0  0  0  0  0  0  0  0  0  0  0  0
    5.2980   -3.0530   26.3760 C   0  0  0  0  0  0  0  0  0  0  0  0
    6.5970   -2.4870   26.1170 C   0  0  0  0  0  0  0  0  0  0  0  0
    7.9050   -3.2250   26.0980 C   0  0  0  0  0  0  0  0  0  0  0  0
    8.8770   -2.9110   24.9650 C   0  0  0  0  0  0  0  0  0  0  0  0
   10.1050   -3.5760   24.9040 C   0  0  0  0  0  0  0  0  0  0  0  0
   10.4490   -4.5930   25.9580 C   0  0  0  0  0  0  0  0  0  0  0  0
    9.5800   -4.9020   27.0020 C   0  0  0  0  0  0  0  0  0  0  0  0
    8.2390   -4.1820   27.0760 C   0  0  0  0  0  0  0  0  0  0  0  0
    7.3960   -4.4720   28.0780 F   0  0  0  0  0  0  0  0  0  0  0  0
    9.0720   -0.7860   23.6480 C   0  0  0  0  0  0  0  0  0  0  0  0
    8.5770   -2.8770   21.9090 C   0  0  0  0  0  0  0  0  0  0  0  0
    7.5660   -3.9710   22.0810 C   0  0  0  0  0  0  0  0  0  0  0  0
  1  2  1  0
  2  3  1  0
  3  4  2  0
  3  5  1  0
  5  6  1  0
  6  7  1  0
  7  8  1  0
  8  9  1  0
  9 10  2  0
  9 11  1  0
 11 12  1  0
 11 13  1  0
 13 14  1  6
 13 15  1  0
 15 16  2  0
 16 17  1  0
 17 18  2  0
 18 19  1  0
 20 19  1  0
 20 21  2  0
 20 22  2  0
 20 23  1  0
 23 24  1  0
 24 25  2  0
 25 26  1  0
 26 27  1  0
 27 28  1  0
 25 29  1  0
 23 30  1  0
 29 30  2  0
 30 31  1  0
 31 32  2  0
 32 33  1  0
 33 34  2  0
 34 35  1  0
 31 36  1  0
 35 36  2  0
 36 37  1  0
 15 38  1  0
 19 38  2  0
  8 39  1  0
  5 40  1  0
 39 40  1  0
M  END
