MAK-UNK-e05327b2-6-acrylamide
     RDKit          3D

 61 68  0  0  0  0  0  0  0  0999 V2000
    7.4050   -3.0730   19.0460 C   0  0  0  0  0  0  0  0  0  0  0  0
    6.9580   -3.0940   20.4910 C   0  0  0  0  0  0  0  0  0  0  0  0
    6.1180   -4.3190   20.7460 C   0  0  0  0  0  0  0  0  0  0  0  0
    5.1940   -4.6010   19.9750 O   0  0  0  0  0  0  0  0  0  0  0  0
    6.4300   -5.1040   21.8450 N   0  0  0  0  0  0  0  0  0  0  0  0
    7.1930   -4.6680   22.8800 C   0  0  0  0  0  0  0  0  0  0  0  0
    6.3660   -4.2230   24.0870 C   0  0  0  0  0  0  0  0  0  0  0  0
    5.5600   -5.3530   24.5590 N   0  0  0  0  0  0  0  0  0  0  0  0
    4.9280   -5.3790   26.0970 S   0  0  0  0  0  0  0  0  0  0  0  0
    5.9820   -5.2610   27.0670 O   0  0  0  0  0  0  0  0  0  0  0  0
    3.9700   -6.4580   26.1280 O   0  0  0  0  0  0  0  0  0  0  0  0
    4.0530   -3.8380   26.1400 C   0  0  0  0  0  0  0  0  0  0  0  0
    4.6350   -2.4550   26.0480 C   0  0  0  0  0  0  0  0  0  0  0  0
    3.7100   -1.4400   26.0870 C   0  0  0  0  0  0  0  0  0  0  0  0
    2.4000   -1.9240   26.2070 C   0  0  0  0  0  0  0  0  0  0  0  0
    1.2650   -1.1170   26.2540 C   0  0  0  0  0  0  0  0  0  0  0  0
    1.0860   -0.1860   25.1820 N   0  0  0  0  0  0  0  0  0  0  0  0
    0.1610    0.9030   25.5400 C   0  0  0  0  0  0  0  0  0  0  0  0
    0.9170    2.0590   25.4200 C   0  0  0  0  0  0  0  0  0  0  0  0
    1.8970    2.6240   25.1990 N   0  0  0  0  0  0  0  0  0  0  0  0
    2.3730    3.8420   26.3290 S   0  0  0  0  0  0  0  0  0  0  0  0
    1.8920    3.4780   27.6420 O   0  0  0  0  0  0  0  0  0  0  0  0
    3.7880    4.0570   26.0960 O   0  0  0  0  0  0  0  0  0  0  0  0
    1.4790    5.3100   25.8450 C   0  0  0  0  0  0  0  0  0  0  0  0
    2.0900    6.1660   24.9130 C   0  0  0  0  0  0  0  0  0  0  0  0
    1.4800    7.3210   24.4790 C   0  0  0  0  0  0  0  0  0  0  0  0
    0.2360    7.6580   24.9620 C   0  0  0  0  0  0  0  0  0  0  0  0
   -0.4380    6.8610   25.8900 C   0  0  0  0  0  0  0  0  0  0  0  0
   -1.6940    7.2330   26.3550 C   0  0  0  0  0  0  0  0  0  0  0  0
   -2.5100    6.4220   27.3710 C   0  0  0  0  0  0  0  0  0  0  0  0
   -3.8960    6.9560   27.8030 C   0  0  0  0  0  0  0  0  0  0  0  0
   -4.8570    7.6140   27.8770 N   0  0  0  0  0  0  0  0  0  0  0  0
   -5.5390    7.9070   26.6230 C   0  0  0  0  0  0  0  0  0  0  0  0
   -7.0210    8.2760   26.8340 C   0  0  0  0  0  0  0  0  0  0  0  0
   -7.2260    9.1970   27.9800 N   0  0  0  0  0  0  0  0  0  0  0  0
   -8.0550   10.6630   27.7700 S   0  0  0  0  0  0  0  0  0  0  0  0
   -9.2480   10.4040   26.9900 O   0  0  0  0  0  0  0  0  0  0  0  0
   -8.1350   11.3070   29.0650 O   0  0  0  0  0  0  0  0  0  0  0  0
   -7.0490   11.7840   26.8040 C   0  0  2  0  0  0  0  0  0  0  0  0
   -6.7640   13.0990   27.1870 C   0  0  0  0  0  0  0  0  0  0  0  0
   -6.0020   13.7250   26.0140 C   0  0  0  0  0  0  0  0  0  0  0  0
   -6.4400   13.0320   24.7300 C   0  0  1  0  0  0  0  0  0  0  0  0
   -5.2860   12.4980   23.5730 Cl  0  0  0  0  0  0  0  0  0  0  0  0
   -7.5950   11.8710   25.1680 S   0  0  0  0  0  0  0  0  0  0  0  0
   -6.4110    8.9810   29.2080 C   0  0  0  0  0  0  0  0  0  0  0  0
   -4.9590    8.6320   28.9120 C   0  0  0  0  0  0  0  0  0  0  0  0
   -1.9360    5.2290   27.8510 C   0  0  0  0  0  0  0  0  0  0  0  0
   -2.5910    4.3080   28.8520 C   0  0  0  0  0  0  0  0  0  0  0  0
   -2.8220    2.9170   28.5960 C   0  0  0  0  0  0  0  0  0  0  0  0
   -3.8180    2.6930   27.6690 C   0  0  0  0  0  0  0  0  0  0  0  0
   -5.2160    2.6280   27.9820 C   0  0  0  0  0  0  0  0  0  0  0  0
   -5.9990    2.3930   26.8730 C   0  0  0  0  0  0  0  0  0  0  0  0
   -5.0660    2.2470   25.4520 S   0  0  0  0  0  0  0  0  0  0  0  0
   -3.6110    2.5000   26.3150 C   0  0  0  0  0  0  0  0  0  0  0  0
   -0.6530    4.8400   27.3820 C   0  0  0  0  0  0  0  0  0  0  0  0
    0.1720    5.6570   26.3580 C   0  0  0  0  0  0  0  0  0  0  0  0
    2.9430    1.5800   24.9600 C   0  0  0  0  0  0  0  0  0  0  0  0
    2.3020    0.2620   24.4530 C   0  0  0  0  0  0  0  0  0  0  0  0
    2.3530   -3.6760   26.2910 S   0  0  0  0  0  0  0  0  0  0  0  0
    4.8120   -6.0610   23.4840 C   0  0  0  0  0  0  0  0  0  0  0  0
    5.6540   -6.2830   22.2170 C   0  0  0  0  0  0  0  0  0  0  0  0
  1  2  1  0
  2  3  1  0
  3  4  2  0
  3  5  1  0
  5  6  1  0
  6  7  1  0
  7  8  1  0
  8  9  1  0
  9 10  2  0
  9 11  2  0
  9 12  1  0
 12 13  2  0
 13 14  1  0
 14 15  2  0
 15 16  1  0
 16 17  1  0
 17 18  1  0
 18 19  1  0
 19 20  1  0
 20 21  1  0
 21 22  2  0
 21 23  2  0
 21 24  1  0
 24 25  2  0
 25 26  1  0
 26 27  2  0
 27 28  1  0
 28 29  1  0
 29 30  2  0
 30 31  1  0
 31 32  1  0
 32 33  1  0
 33 34  1  0
 34 35  1  0
 36 35  1  0
 36 37  2  0
 36 38  2  0
 39 36  1  1
 39 40  1  0
 40 41  1  0
 41 42  1  0
 42 43  1  1
 39 44  1  0
 42 44  1  0
 35 45  1  0
 32 46  1  0
 45 46  1  0
 30 47  1  0
 47 48  1  0
 48 49  1  0
 49 50  1  0
 50 51  1  0
 51 52  2  0
 52 53  1  0
 50 54  2  0
 53 54  1  0
 47 55  2  0
 24 56  1  0
 28 56  2  0
 55 56  1  0
 20 57  1  0
 17 58  1  0
 57 58  1  0
 12 59  1  0
 15 59  1  0
  8 60  1  0
  5 61  1  0
 60 61  1  0
M  END
