MAK-UNK-10799360-34-nitrile
     RDKit          3D

 24 27  0  0  0  0  0  0  0  0999 V2000
    6.7830   -3.7550   20.2300 C   0  0  0  0  0  0  0  0  0  0  0  0
    5.6090   -4.0500   19.7970 N   0  0  0  0  0  0  0  0  0  0  0  0
    7.1210   -2.5190   20.7460 N   0  0  0  0  0  0  0  0  0  0  0  0
    7.4210   -1.2960   19.9630 C   0  0  0  0  0  0  0  0  0  0  0  0
    8.2750   -0.5730   21.0450 C   0  0  1  0  0  0  0  0  0  0  0  0
    7.0910   -0.5710   22.0720 C   0  0  0  0  0  0  0  0  0  0  0  0
    7.0750   -2.0960   22.1970 C   0  0  2  0  0  0  0  0  0  0  0  0
    8.4530   -1.9360   22.8620 C   0  0  0  0  0  0  0  0  0  0  0  0
    9.2410   -1.6910   21.5670 C   0  0  2  0  0  0  0  0  0  0  0  0
   10.7800   -1.5300   21.4920 N   0  0  0  0  0  0  0  0  0  0  0  0
   11.5040   -0.6690   22.2280 C   0  0  0  0  0  0  0  0  0  0  0  0
   12.1810    0.1990   23.2210 C   0  0  0  0  0  0  0  0  0  0  0  0
   11.9780    0.2620   24.5260 C   0  0  0  0  0  0  0  0  0  0  0  0
   11.0690   -0.4730   25.1900 C   0  0  0  0  0  0  0  0  0  0  0  0
   10.3540   -1.3020   24.4690 C   0  0  0  0  0  0  0  0  0  0  0  0
    9.3910   -2.0830   25.1020 C   0  0  0  0  0  0  0  0  0  0  0  0
   10.5910   -1.3650   23.0960 C   0  0  0  0  0  0  0  0  0  0  0  0
   11.6090   -2.6420   21.1540 C   0  0  0  0  0  0  0  0  0  0  0  0
   10.8440   -3.7030   20.7680 C   0  0  0  0  0  0  0  0  0  0  0  0
   11.3110   -4.9190   20.3900 C   0  0  0  0  0  0  0  0  0  0  0  0
   12.6280   -5.0820   20.4150 C   0  0  0  0  0  0  0  0  0  0  0  0
   13.4440   -4.1040   20.7460 C   0  0  0  0  0  0  0  0  0  0  0  0
   14.7200   -4.6900   20.5940 N   0  0  0  0  0  0  0  0  0  0  0  0
   13.0210   -2.7890   21.1510 C   0  0  0  0  0  0  0  0  0  0  0  0
  1  2  2  3
  1  3  1  0
  3  4  1  0
  5  4  1  6
  5  6  1  0
  3  7  1  0
  6  7  1  0
  7  8  1  1
  5  9  1  0
  8  9  1  0
  9 10  1  1
 10 11  1  0
 11 12  2  0
 12 13  1  0
 13 14  2  0
 14 15  1  0
 15 16  1  0
 11 17  1  0
 15 17  2  0
 10 18  1  0
 18 19  2  0
 19 20  1  0
 20 21  2  0
 21 22  1  0
 22 23  1  0
 18 24  1  0
 22 24  2  0
M  END
