MAK-UNK-3e0761f8-5-vinylsulfonamide
     RDKit          3D

 22 24  0  0  0  0  0  0  0  0999 V2000
    7.2960   -4.1890   20.3370 C   0  0  0  0  0  0  0  0  0  0  0  0
    6.4730   -2.9230   20.2580 C   0  0  0  0  0  0  0  0  0  0  0  0
    5.7870   -2.7720   21.8730 S   0  0  0  0  0  0  0  0  0  0  0  0
    4.8210   -3.8720   22.0150 O   0  0  0  0  0  0  0  0  0  0  0  0
    5.2880   -1.4220   22.0100 O   0  0  0  0  0  0  0  0  0  0  0  0
    7.1800   -2.9530   22.8510 N   0  0  0  0  0  0  0  0  0  0  0  0
    8.5160   -2.7350   22.2340 C   0  0  0  0  0  0  0  0  0  0  0  0
    9.1940   -1.7200   23.1460 C   0  0  2  0  0  0  0  0  0  0  0  0
    8.5890   -2.2960   24.3140 C   0  0  0  0  0  0  0  0  0  0  0  0
    7.3070   -2.0860   23.8920 C   0  0  1  0  0  0  0  0  0  0  0  0
    7.3430   -0.7280   23.5260 C   0  0  0  0  0  0  0  0  0  0  0  0
    8.6650   -0.4340   23.0960 C   0  0  2  0  0  0  0  0  0  0  0  0
    8.7370    0.2280   21.8740 C   0  0  0  0  0  0  0  0  0  0  0  0
    9.4510    1.2320   21.8880 O   0  0  0  0  0  0  0  0  0  0  0  0
    8.0520   -0.2370   20.7450 N   0  0  0  0  0  0  0  0  0  0  0  0
    6.6790   -0.3020   20.5820 C   0  0  0  0  0  0  0  0  0  0  0  0
    5.5340    0.2910   19.9380 C   0  0  0  0  0  0  0  0  0  0  0  0
    4.6860    1.0880   19.0570 C   0  0  0  0  0  0  0  0  0  0  0  0
    3.8770    0.6830   20.0890 C   0  0  0  0  0  0  0  0  0  0  0  0
    5.6600    1.3480   18.1390 C   0  0  0  0  0  0  0  0  0  0  0  0
    6.7290    0.6180   18.3330 C   0  0  0  0  0  0  0  0  0  0  0  0
    6.9710    0.6380   19.7180 N   0  0  0  0  0  0  0  0  0  0  0  0
  1  2  1  0
  3  2  1  0
  3  4  2  0
  3  5  2  0
  3  6  1  0
  6  7  1  0
  8  7  1  6
  8  9  1  0
  6 10  1  0
  9 10  1  0
 10 11  1  6
  8 12  1  0
 11 12  1  0
 12 13  1  6
 13 14  2  0
 13 15  1  0
 15 16  1  0
 16 17  2  0
 17 18  1  0
 18 19  1  0
 18 20  2  0
 20 21  1  0
 16 22  1  0
 21 22  2  0
M  END
