MAK-UNK-3e0761f8-3-nitrile
     RDKit          3D

 25 28  0  0  0  0  0  0  0  0999 V2000
    6.7120   -4.1280   20.1790 C   0  0  0  0  0  0  0  0  0  0  0  0
    5.8180   -5.0310   20.0250 N   0  0  0  0  0  0  0  0  0  0  0  0
    6.7070   -3.3150   21.2750 N   0  0  0  0  0  0  0  0  0  0  0  0
    7.4040   -3.6160   22.3990 C   0  0  0  0  0  0  0  0  0  0  0  0
    7.5850   -2.3390   23.1680 C   0  0  2  0  0  0  0  0  0  0  0  0
    6.2560   -1.8030   22.7260 C   0  0  0  0  0  0  0  0  0  0  0  0
    6.6910   -1.9420   21.3020 C   0  0  1  0  0  0  0  0  0  0  0  0
    7.9280   -1.2980   21.2440 C   0  0  0  0  0  0  0  0  0  0  0  0
    8.5800   -1.5870   22.4640 C   0  0  2  0  0  0  0  0  0  0  0  0
    9.8630   -2.1740   22.2730 C   0  0  0  0  0  0  0  0  0  0  0  0
   10.0410   -2.9750   21.4120 O   0  0  0  0  0  0  0  0  0  0  0  0
   10.9160   -1.7390   23.0910 N   0  0  0  0  0  0  0  0  0  0  0  0
   10.7380   -0.4790   23.4960 C   0  0  0  0  0  0  0  0  0  0  0  0
   11.5270    0.5420   23.0150 C   0  0  0  0  0  0  0  0  0  0  0  0
   11.2820    1.8610   23.4100 C   0  0  0  0  0  0  0  0  0  0  0  0
   11.9580    2.9910   23.0270 C   0  0  0  0  0  0  0  0  0  0  0  0
   11.4990    4.1630   22.8830 N   0  0  0  0  0  0  0  0  0  0  0  0
   12.5630    4.8830   22.5280 C   0  0  0  0  0  0  0  0  0  0  0  0
   12.4270    6.2120   22.3010 C   0  0  0  0  0  0  0  0  0  0  0  0
   13.7510    4.2500   22.4090 N   0  0  0  0  0  0  0  0  0  0  0  0
   13.3600    3.0020   22.7430 N   0  0  0  0  0  0  0  0  0  0  0  0
   10.2320    2.0870   24.2910 C   0  0  0  0  0  0  0  0  0  0  0  0
    9.4660    1.0670   24.7820 C   0  0  0  0  0  0  0  0  0  0  0  0
    9.7370   -0.1950   24.3750 C   0  0  0  0  0  0  0  0  0  0  0  0
    8.8460   -1.2810   24.9530 C   0  0  0  0  0  0  0  0  0  0  0  0
  1  2  2  3
  1  3  1  0
  3  4  1  0
  5  4  1  6
  5  6  1  0
  3  7  1  0
  6  7  1  0
  7  8  1  1
  5  9  1  0
  8  9  1  0
  9 10  1  6
 10 11  2  0
 10 12  1  0
 12 13  1  0
 13 14  2  0
 14 15  1  0
 15 16  1  0
 16 17  2  0
 17 18  1  0
 18 19  1  0
 18 20  2  0
 16 21  1  0
 20 21  1  0
 15 22  2  0
 22 23  1  0
 13 24  1  0
 23 24  2  0
 24 25  1  0
M  END
