MAK-UNK-5d2caa6f-9-nitrile
     RDKit          3D

 25 29  0  0  0  0  0  0  0  0999 V2000
    6.5800   -4.1470   20.4050 C   0  0  0  0  0  0  0  0  0  0  0  0
    5.8920   -3.5620   19.4870 N   0  0  0  0  0  0  0  0  0  0  0  0
    6.3310   -3.9290   21.7680 N   0  0  0  0  0  0  0  0  0  0  0  0
    6.1620   -5.0210   22.7320 C   0  0  0  0  0  0  0  0  0  0  0  0
    5.5080   -4.4820   23.8280 C   0  0  1  0  0  0  0  0  0  0  0  0
    6.1150   -3.3770   24.4140 C   0  0  0  0  0  0  0  0  0  0  0  0
    5.9120   -2.2020   23.7110 C   0  0  1  0  0  0  0  0  0  0  0  0
    7.1400   -1.2630   23.7770 C   0  0  0  0  0  0  0  0  0  0  0  0
    8.4050   -1.8660   23.4130 N   0  0  0  0  0  0  0  0  0  0  0  0
    9.4980   -1.0150   23.4770 C   0  0  0  0  0  0  0  0  0  0  0  0
   10.7920   -1.6430   23.0700 C   0  0  0  0  0  0  0  0  0  0  0  0
   10.6650   -2.2320   21.6950 C   0  0  0  0  0  0  0  0  0  0  0  0
   11.8550   -2.9290   21.1060 C   0  0  0  0  0  0  0  0  0  0  0  0
   13.0780   -2.9840   21.9430 C   0  0  0  0  0  0  0  0  0  0  0  0
   13.1530   -2.3810   23.2870 N   0  0  0  0  0  0  0  0  0  0  0  0
   12.0000   -1.7420   23.7750 C   0  0  0  0  0  0  0  0  0  0  0  0
    9.4640    0.2660   23.8410 N   0  0  0  0  0  0  0  0  0  0  0  0
    8.2830    0.7980   24.1740 C   0  0  0  0  0  0  0  0  0  0  0  0
    8.3310    2.1430   24.5390 C   0  0  0  0  0  0  0  0  0  0  0  0
    7.0910    2.9240   24.9480 C   0  0  0  0  0  0  0  0  0  0  0  0
    5.7330    2.2540   24.9750 C   0  0  0  0  0  0  0  0  0  0  0  0
    5.7560    0.7790   24.5630 C   0  0  0  0  0  0  0  0  0  0  0  0
    7.0550    0.0830   24.1650 C   0  0  0  0  0  0  0  0  0  0  0  0
    5.4530   -2.8440   22.3430 C   0  0  2  0  0  0  0  0  0  0  0  0
    4.4210   -3.7720   23.0180 C   0  0  0  0  0  0  0  0  0  0  0  0
  1  2  2  3
  1  3  1  0
  3  4  1  0
  5  4  1  6
  5  6  1  0
  6  7  1  0
  7  8  1  6
  8  9  2  0
  9 10  1  0
 10 11  1  0
 11 12  2  0
 12 13  1  0
 13 14  2  0
 14 15  1  0
 11 16  1  0
 15 16  2  0
 10 17  2  0
 17 18  1  0
 18 19  1  0
 19 20  2  0
 20 21  1  0
 21 22  2  0
  8 23  1  0
 18 23  2  0
 22 23  1  0
 24  3  1  1
  7 24  1  0
  5 25  1  0
 24 25  1  0
M  END
