MAK-UNK-53da93bf-3
     RDKit          3D

 18 19  0  0  0  0  0  0  0  0999 V2000
    6.3950    7.1160   22.0120 C   0  0  0  0  0  0  0  0  0  0  0  0
    7.7340    6.5560   21.6130 C   0  0  0  0  0  0  0  0  0  0  0  0
    8.7930    6.3720   22.6950 C   0  0  0  0  0  0  0  0  0  0  0  0
    9.0430    7.2670   23.5090 O   0  0  0  0  0  0  0  0  0  0  0  0
    9.4090    5.1530   22.6550 N   0  0  0  0  0  0  0  0  0  0  0  0
   10.3630    4.8770   23.7280 C   0  0  1  0  0  0  0  0  0  0  0  0
    9.9160    5.1530   25.0000 N   0  0  0  0  0  0  0  0  0  0  0  0
   11.0530    3.5110   23.4930 C   0  0  0  0  0  0  0  0  0  0  0  0
   12.4680    3.4670   22.8660 C   0  0  0  0  0  0  0  0  0  0  0  0
   13.0850    2.0950   22.6930 C   0  0  0  0  0  0  0  0  0  0  0  0
   12.3710    0.9620   23.0830 C   0  0  0  0  0  0  0  0  0  0  0  0
   11.1320    1.0220   23.6240 C   0  0  0  0  0  0  0  0  0  0  0  0
   10.4720    2.2470   23.8350 C   0  0  0  0  0  0  0  0  0  0  0  0
   10.5130   -0.2790   23.9880 N   0  0  0  0  0  0  0  0  0  0  0  0
    9.6640   -0.3220   25.1830 C   0  0  0  0  0  0  0  0  0  0  0  0
   11.2390   -1.4190   23.7460 C   0  0  0  0  0  0  0  0  0  0  0  0
   12.1950   -1.4300   22.7210 C   0  0  0  0  0  0  0  0  0  0  0  0
   13.1660   -0.2400   22.8210 C   0  0  0  0  0  0  0  0  0  0  0  0
  1  2  1  0
  2  3  1  0
  3  4  2  0
  3  5  1  0
  5  6  1  0
  6  7  1  1
  6  8  1  0
  8  9  2  0
  9 10  1  0
 10 11  2  0
 11 12  1  0
  8 13  1  0
 12 13  2  0
 12 14  1  0
 14 15  1  0
 14 16  1  0
 16 17  1  0
 11 18  1  0
 17 18  1  0
M  END
