MAK-UNK-df1a028e-1-nitrile
     RDKit          3D

 18 20  0  0  0  0  0  0  0  0999 V2000
    6.8550   -3.8170   20.0510 C   0  0  0  0  0  0  0  0  0  0  0  0
    5.8320   -4.5770   19.9250 N   0  0  0  0  0  0  0  0  0  0  0  0
    7.0910   -3.0930   21.1840 N   0  0  0  0  0  0  0  0  0  0  0  0
    6.4680   -3.1470   22.5180 C   0  0  0  0  0  0  0  0  0  0  0  0
    7.8120   -3.1030   23.3160 C   0  0  1  0  0  0  0  0  0  0  0  0
    8.6350   -3.1330   22.0750 C   0  0  0  0  0  0  0  0  0  0  0  0
    7.9460   -1.9270   21.2740 C   0  0  2  0  0  0  0  0  0  0  0  0
    8.9430   -1.3940   22.2850 C   0  0  0  0  0  0  0  0  0  0  0  0
    8.3780   -1.7850   23.6200 N   0  0  0  0  0  0  0  0  0  0  0  0
    9.5080   -1.8390   24.5430 C   0  0  0  0  0  0  0  0  0  0  0  0
   10.7700   -1.1970   23.9430 C   0  0  0  0  0  0  0  0  0  0  0  0
   10.6700    0.3040   24.0810 C   0  0  0  0  0  0  0  0  0  0  0  0
   11.6790    1.1200   23.6060 C   0  0  0  0  0  0  0  0  0  0  0  0
   11.5490    2.4670   23.7330 O   0  0  0  0  0  0  0  0  0  0  0  0
   12.7980    0.5340   22.9980 C   0  0  0  0  0  0  0  0  0  0  0  0
   12.9120   -0.8600   22.8550 C   0  0  0  0  0  0  0  0  0  0  0  0
   11.9060   -1.7230   23.3290 C   0  0  0  0  0  0  0  0  0  0  0  0
   12.0980   -3.0470   23.1600 O   0  0  0  0  0  0  0  0  0  0  0  0
  1  2  2  3
  1  3  1  0
  3  4  1  0
  5  4  1  6
  5  6  1  0
  3  7  1  0
  6  7  1  0
  7  8  1  1
  5  9  1  0
  8  9  1  0
  9 10  1  0
 10 11  1  0
 11 12  2  0
 12 13  1  0
 13 14  1  0
 13 15  2  0
 15 16  1  0
 11 17  1  0
 16 17  2  0
 17 18  1  0
M  END
