MAK-UNK-51bb34f9-1-vinylsulfonamide
     RDKit          3D

 32 34  0  0  0  0  0  0  0  0999 V2000
    6.4740   -4.1810   20.1670 C   0  0  0  0  0  0  0  0  0  0  0  0
    6.8100   -3.7990   21.6130 C   0  0  0  0  0  0  0  0  0  0  0  0
    5.8080   -4.7410   22.7570 S   0  0  0  0  0  0  0  0  0  0  0  0
    4.4100   -4.6140   22.4320 O   0  0  0  0  0  0  0  0  0  0  0  0
    6.4080   -6.0550   22.8550 O   0  0  0  0  0  0  0  0  0  0  0  0
    6.0410   -4.0060   24.3460 C   0  0  0  0  0  0  0  0  0  0  0  0
    5.7320   -2.8280   23.3480 C   0  0  0  0  0  0  0  0  0  0  0  0
    5.6380   -1.3210   23.5730 C   0  0  0  0  0  0  0  0  0  0  0  0
    5.8880   -0.9350   24.9920 C   0  0  0  0  0  0  0  0  0  0  0  0
    5.8790    0.3690   25.4710 N   0  0  0  0  0  0  0  0  0  0  0  0
    7.1880    0.9690   25.7060 C   0  0  0  0  0  0  0  0  0  0  0  0
    7.4850    2.1400   25.0400 N   0  0  0  0  0  0  0  0  0  0  0  0
    8.4410    2.3930   23.9700 C   0  0  0  0  0  0  0  0  0  0  0  0
    9.5870    1.4110   24.1680 C   0  0  0  0  0  0  0  0  0  0  0  0
   10.4430    1.5920   23.0090 O   0  0  0  0  0  0  0  0  0  0  0  0
   11.3080    0.4440   22.8220 C   0  0  1  0  0  0  0  0  0  0  0  0
   12.3660    0.1990   23.8550 C   0  0  0  0  0  0  0  0  0  0  0  0
   11.9610   -0.8870   24.5290 N   0  0  0  0  0  0  0  0  0  0  0  0
   10.8070   -1.3800   23.9630 C   0  0  0  0  0  0  0  0  0  0  0  0
   10.5450   -0.7660   22.7000 C   0  0  1  0  0  0  0  0  0  0  0  0
    9.1260   -0.5290   22.5030 N   0  0  0  0  0  0  0  0  0  0  0  0
    8.5060    0.1960   21.4870 C   0  0  0  0  0  0  0  0  0  0  0  0
    8.8720    1.3310   21.1540 O   0  0  0  0  0  0  0  0  0  0  0  0
    7.4750   -0.5100   20.9600 N   0  0  0  0  0  0  0  0  0  0  0  0
    6.6720    0.1240   20.0780 C   0  0  0  0  0  0  0  0  0  0  0  0
    5.4930    0.9140   20.6380 C   0  0  0  0  0  0  0  0  0  0  0  0
    4.6970    1.5750   19.5340 C   0  0  0  0  0  0  0  0  0  0  0  0
    5.1310    1.3900   18.0960 C   0  0  0  0  0  0  0  0  0  0  0  0
    6.2500    0.6180   17.7280 N   0  0  0  0  0  0  0  0  0  0  0  0
    6.9440    0.0390   18.7160 C   0  0  0  0  0  0  0  0  0  0  0  0
    6.1390   -1.8850   25.8640 N   0  0  0  0  0  0  0  0  0  0  0  0
    6.1930   -3.2070   25.5310 C   0  0  0  0  0  0  0  0  0  0  0  0
  1  2  1  0
  3  2  1  0
  3  4  2  0
  3  5  2  0
  3  6  1  0
  6  7  2  0
  7  8  1  0
  8  9  2  0
  9 10  1  0
 10 11  1  0
 11 12  1  0
 12 13  1  0
 13 14  1  0
 14 15  1  0
 16 15  1  1
 16 17  1  0
 17 18  1  0
 18 19  1  0
 16 20  1  0
 19 20  1  0
 20 21  1  1
 21 22  1  0
 22 23  2  0
 22 24  1  0
 24 25  1  0
 25 26  2  0
 26 27  1  0
 27 28  2  0
 28 29  1  0
 25 30  1  0
 29 30  2  0
  9 31  1  0
  6 32  1  0
 31 32  2  0
M  END
