MAK-UNK-9a6be56d-6
     RDKit          3D

 38 42  0  0  0  0  0  0  0  0999 V2000
   15.8800    4.7690   23.1650 C   0  0  0  0  0  0  0  0  0  0  0  0
   14.5020    4.7260   23.6320 N   0  0  0  0  0  0  0  0  0  0  0  0
   13.3930    5.4480   23.1400 C   0  0  0  0  0  0  0  0  0  0  0  0
   12.4520    6.0910   24.0320 C   0  0  0  0  0  0  0  0  0  0  0  0
   11.3050    6.6370   23.4860 C   0  0  0  0  0  0  0  0  0  0  0  0
   10.5140    7.2100   24.4000 C   0  0  0  0  0  0  0  0  0  0  0  0
    9.3620    7.7270   23.8960 C   0  0  0  0  0  0  0  0  0  0  0  0
    8.5520    8.7630   24.3510 C   0  0  0  0  0  0  0  0  0  0  0  0
    7.2720    9.1330   23.5830 C   0  0  0  0  0  0  0  0  0  0  0  0
    6.9960    8.3810   22.4400 C   0  0  0  0  0  0  0  0  0  0  0  0
    7.9150    7.3010   22.0220 C   0  0  0  0  0  0  0  0  0  0  0  0
    9.0540    7.0260   22.7720 C   0  0  0  0  0  0  0  0  0  0  0  0
    9.9860    6.0070   22.4610 N   0  0  0  0  0  0  0  0  0  0  0  0
    9.6930    4.5930   23.3430 S   0  0  0  0  0  0  0  0  0  0  0  0
    8.4180    4.1730   22.8270 O   0  0  0  0  0  0  0  0  0  0  0  0
    9.7640    4.9600   24.7180 O   0  0  0  0  0  0  0  0  0  0  0  0
   10.8210    3.2410   23.1660 C   0  0  0  0  0  0  0  0  0  0  0  0
   12.1430    3.3840   22.7060 C   0  0  0  0  0  0  0  0  0  0  0  0
   12.9670    2.2560   22.6050 C   0  0  0  0  0  0  0  0  0  0  0  0
   12.5300    0.9540   22.9410 C   0  0  0  0  0  0  0  0  0  0  0  0
   11.1110    0.8360   23.4310 C   0  0  0  0  0  0  0  0  0  0  0  0
   10.3420    1.9770   23.5160 C   0  0  0  0  0  0  0  0  0  0  0  0
   10.6270   -0.4290   23.7790 N   0  0  0  0  0  0  0  0  0  0  0  0
    9.6990   -0.4970   24.9160 C   0  0  0  0  0  0  0  0  0  0  0  0
   11.5100   -1.6110   23.6160 C   0  0  0  0  0  0  0  0  0  0  0  0
   12.5420   -1.3770   22.7020 C   0  0  0  0  0  0  0  0  0  0  0  0
   13.2600   -0.2080   22.8660 C   0  0  0  0  0  0  0  0  0  0  0  0
   11.0950    7.1050   25.6870 N   0  0  0  0  0  0  0  0  0  0  0  0
   10.6090    7.6320   27.2430 S   0  0  0  0  0  0  0  0  0  0  0  0
   11.2120    6.7230   28.1990 O   0  0  0  0  0  0  0  0  0  0  0  0
   10.9110    9.0510   27.2890 O   0  0  0  0  0  0  0  0  0  0  0  0
    8.8630    7.4610   27.3040 C   0  0  0  0  0  0  0  0  0  0  0  0
    8.1650    6.5770   26.4790 C   0  0  0  0  0  0  0  0  0  0  0  0
    6.7820    6.5010   26.5910 C   0  0  0  0  0  0  0  0  0  0  0  0
    6.1480    7.3120   27.5260 C   0  0  0  0  0  0  0  0  0  0  0  0
    6.8040    8.1780   28.3390 N   0  0  0  0  0  0  0  0  0  0  0  0
    8.1520    8.2340   28.2100 C   0  0  0  0  0  0  0  0  0  0  0  0
   12.2840    6.4020   25.4380 C   0  0  0  0  0  0  0  0  0  0  0  0
  1  2  1  0
  2  3  1  0
  3  4  1  0
  4  5  1  0
  5  6  2  0
  6  7  1  0
  7  8  2  0
  8  9  1  0
  9 10  2  0
 10 11  1  0
  7 12  1  0
 11 12  2  0
 12 13  1  0
 14 13  1  0
 14 15  2  0
 14 16  2  0
 14 17  1  0
 17 18  2  0
 18 19  1  0
 19 20  2  0
 20 21  1  0
 17 22  1  0
 21 22  2  0
 21 23  1  0
 23 24  1  0
 23 25  1  0
 25 26  1  0
 20 27  1  0
 26 27  1  0
  6 28  1  0
 28 29  1  0
 29 30  2  0
 29 31  2  0
 29 32  1  0
 32 33  2  0
 33 34  1  0
 34 35  2  0
 35 36  1  0
 32 37  1  0
 36 37  2  0
  4 38  2  0
 28 38  1  0
M  END
