MAK-UNK-d4768348-8-chloroacetamide
     RDKit          3D

 18 19  0  0  0  0  0  0  0  0999 V2000
    7.6350   -3.6370   20.4200 C   0  0  0  0  0  0  0  0  0  0  0  0
    6.4050   -4.4780   20.6430 C   0  0  0  0  0  0  0  0  0  0  0  0
    5.4290   -4.4660   19.8930 O   0  0  0  0  0  0  0  0  0  0  0  0
    6.4830   -5.2430   21.7720 N   0  0  0  0  0  0  0  0  0  0  0  0
    7.2690   -4.8040   22.9120 C   0  0  0  0  0  0  0  0  0  0  0  0
    6.3810   -4.1730   23.9670 C   0  0  0  0  0  0  0  0  0  0  0  0
    5.3470   -5.1550   24.3360 N   0  0  0  0  0  0  0  0  0  0  0  0
    4.6770   -5.0970   25.8950 S   0  0  0  0  0  0  0  0  0  0  0  0
    4.0280   -6.3750   26.0810 O   0  0  0  0  0  0  0  0  0  0  0  0
    5.7010   -4.6140   26.7900 O   0  0  0  0  0  0  0  0  0  0  0  0
    3.3830   -3.8920   25.8160 C   0  0  0  0  0  0  0  0  0  0  0  0
    3.5790   -2.5100   26.0960 C   0  0  0  0  0  0  0  0  0  0  0  0
    2.5430   -1.5200   26.0720 C   0  0  0  0  0  0  0  0  0  0  0  0
    1.1510   -2.5890   25.6360 S   0  0  0  0  0  0  0  0  0  0  0  0
   -0.2430   -2.2620   25.4490 O   0  0  0  0  0  0  0  0  0  0  0  0
    1.9000   -4.1580   25.4840 C   0  0  0  0  0  0  0  0  0  0  0  0
    4.5170   -5.6860   23.2140 C   0  0  0  0  0  0  0  0  0  0  0  0
    5.4690   -6.2540   22.1480 C   0  0  0  0  0  0  0  0  0  0  0  0
  1  2  1  0
  2  3  2  0
  2  4  1  0
  4  5  1  0
  5  6  1  0
  6  7  1  0
  7  8  1  0
  8  9  2  0
  8 10  2  0
  8 11  1  0
 11 12  2  0
 12 13  1  0
 13 14  1  0
 14 15  1  0
 11 16  1  0
 14 16  2  0
  7 17  1  0
  4 18  1  0
 17 18  1  0
M  END
