MAK-UNK-704ed37c-8-nitrile
     RDKit          3D

 15 16  0  0  0  0  0  0  0  0999 V2000
    6.6350   -4.3280   20.4020 C   0  0  0  0  0  0  0  0  0  0  0  0
    5.5220   -4.7660   19.9880 N   0  0  0  0  0  0  0  0  0  0  0  0
    7.0740   -4.3350   21.6880 N   0  0  0  0  0  0  0  0  0  0  0  0
    7.7280   -3.2990   22.3770 C   0  0  0  0  0  0  0  0  0  0  0  0
    7.3870   -3.0300   23.7000 C   0  0  0  0  0  0  0  0  0  0  0  0
    6.1370   -3.4840   24.0930 C   0  0  0  0  0  0  0  0  0  0  0  0
    5.7470   -3.2760   25.4460 C   0  0  0  0  0  0  0  0  0  0  0  0
    4.5450   -3.0750   25.6080 O   0  0  0  0  0  0  0  0  0  0  0  0
    6.5420   -3.2470   26.5660 N   0  0  0  0  0  0  0  0  0  0  0  0
    5.8960   -3.1830   27.7750 C   0  0  0  0  0  0  0  0  0  0  0  0
    6.1180   -4.0850   28.6140 O   0  0  0  0  0  0  0  0  0  0  0  0
    7.2020   -4.8820   28.0200 N   0  0  0  0  0  0  0  0  0  0  0  0
    7.5390   -4.2160   26.7610 O   0  0  0  0  0  0  0  0  0  0  0  0
    6.1380   -5.0050   23.8360 C   0  0  0  0  0  0  0  0  0  0  0  0
    6.7270   -5.3930   22.4800 C   0  0  0  0  0  0  0  0  0  0  0  0
  1  2  2  3
  1  3  1  0
  3  4  1  0
  4  5  1  0
  5  6  1  0
  6  7  1  0
  7  8  2  0
  7  9  1  0
  9 10  1  0
 10 11  1  0
 11 12  1  0
  9 13  1  0
 12 13  1  0
  6 14  1  0
  3 15  1  0
 14 15  1  0
M  END
