MAK-UNK-8fdbca50-38-nitrile
     RDKit          3D

 38 41  0  0  0  0  0  0  0  0999 V2000
    8.0410   -3.4730   20.0420 C   0  0  0  0  0  0  0  0  0  0  0  0
    6.6820   -3.6160   19.7650 N   0  0  0  0  0  0  0  0  0  0  0  0
    8.9380   -2.7000   21.2050 N   0  0  0  0  0  0  0  0  0  0  0  0
    8.7800   -1.3850   21.9810 C   0  0  0  0  0  0  0  0  0  0  0  0
    9.5520   -1.5580   23.3420 C   0  0  0  0  0  0  0  0  0  0  0  0
   10.9240   -1.1070   22.9530 C   0  0  0  0  0  0  0  0  0  0  0  0
   10.8320    0.3110   22.4710 N   0  0  0  0  0  0  0  0  0  0  0  0
    9.7990    1.1790   23.0080 C   0  0  0  0  0  0  0  0  0  0  0  0
    8.4110    0.8560   22.4480 C   0  0  0  0  0  0  0  0  0  0  0  0
    7.7210    0.2010   23.5650 C   0  0  0  0  0  0  0  0  0  0  0  0
    6.3820   -0.1190   22.9110 C   0  0  0  0  0  0  0  0  0  0  0  0
    5.2720   -0.8620   23.6740 C   0  0  0  0  0  0  0  0  0  0  0  0
    4.9190   -2.2340   23.1510 C   0  0  0  0  0  0  0  0  0  0  0  0
    3.9380   -2.9920   23.7860 C   0  0  0  0  0  0  0  0  0  0  0  0
    3.2830   -2.4830   24.9030 C   0  0  0  0  0  0  0  0  0  0  0  0
    3.5960   -1.2130   25.4000 C   0  0  0  0  0  0  0  0  0  0  0  0
    4.5730   -0.3980   24.8110 C   0  0  0  0  0  0  0  0  0  0  0  0
    4.7860    0.8160   25.3980 F   0  0  0  0  0  0  0  0  0  0  0  0
    6.4190    0.3570   21.5970 N   0  0  0  0  0  0  0  0  0  0  0  0
    5.2090    0.2490   20.4350 S   0  0  0  0  0  0  0  0  0  0  0  0
    4.5820    1.5510   20.3570 O   0  0  0  0  0  0  0  0  0  0  0  0
    4.5110   -0.9170   20.8240 O   0  0  0  0  0  0  0  0  0  0  0  0
    5.9580   -0.1430   18.8640 C   0  0  0  0  0  0  0  0  0  0  0  0
    6.6860    0.7890   18.1870 C   0  0  0  0  0  0  0  0  0  0  0  0
    7.2500    0.4340   16.9530 C   0  0  0  0  0  0  0  0  0  0  0  0
    7.1090   -0.8290   16.3810 C   0  0  0  0  0  0  0  0  0  0  0  0
    6.3700   -1.7690   17.0720 N   0  0  0  0  0  0  0  0  0  0  0  0
    5.8190   -1.3920   18.2900 C   0  0  0  0  0  0  0  0  0  0  0  0
    7.6510    0.9710   21.2820 C   0  0  0  0  0  0  0  0  0  0  0  0
   11.4260   -1.3600   24.3590 C   0  0  0  0  0  0  0  0  0  0  0  0
   11.2520   -0.5180   25.2450 O   0  0  0  0  0  0  0  0  0  0  0  0
   12.0660   -2.5470   24.6330 N   0  0  0  0  0  0  0  0  0  0  0  0
   13.5170   -2.4340   24.4680 C   0  0  0  0  0  0  0  0  0  0  0  0
   11.6180   -3.6030   25.5270 C   0  0  0  0  0  0  0  0  0  0  0  0
   10.4940   -4.5030   25.1030 C   0  0  0  0  0  0  0  0  0  0  0  0
   12.7410   -4.0540   26.2460 C   0  0  0  0  0  0  0  0  0  0  0  0
   11.4900   -2.0990   22.0100 C   0  0  0  0  0  0  0  0  0  0  0  0
   10.4010   -3.0610   21.5060 C   0  0  0  0  0  0  0  0  0  0  0  0
  1  2  2  3
  1  3  1  0
  3  4  1  0
  4  5  1  0
  5  6  1  0
  6  7  1  0
  7  8  1  0
  8  9  1  0
  9 10  1  0
 10 11  2  0
 11 12  1  0
 12 13  2  0
 13 14  1  0
 14 15  2  0
 15 16  1  0
 12 17  1  0
 16 17  2  0
 17 18  1  0
 11 19  1  0
 19 20  1  0
 20 21  2  0
 20 22  2  0
 20 23  1  0
 23 24  2  0
 24 25  1  0
 25 26  2  0
 26 27  1  0
 23 28  1  0
 27 28  2  0
  9 29  2  0
 19 29  1  0
  6 30  1  0
 30 31  2  0
 30 32  1  0
 32 33  1  0
 32 34  1  0
 34 35  1  0
 34 36  1  0
  6 37  1  0
  3 38  1  0
 37 38  1  0
M  END
