MAK-UNK-4b073b5c-9
     RDKit          3D

  3  2  0  0  0  0  0  0  0  0999 V2000
    5.2290   -5.0610   24.6670 N   0  0  0  0  0  0  0  0  0  0  0  0
    6.1280   -4.7970   23.9910 C   0  0  0  0  0  0  0  0  0  0  0  0
    7.4870   -4.4230   22.9520 Cl  0  0  0  0  0  0  0  0  0  0  0  0
  1  2  3  0
  2  3  1  0
M  END
