MAK-UNK-6ca90168-27-acrylamide
     RDKit          3D

 12 12  0  0  0  0  0  0  0  0999 V2000
    8.5910   -4.0550   20.6200 C   0  0  0  0  0  0  0  0  0  0  0  0
    7.8010   -2.8270   21.0370 C   0  0  0  0  0  0  0  0  0  0  0  0
    6.3690   -3.1250   21.2590 C   0  0  0  0  0  0  0  0  0  0  0  0
    4.9980   -3.3780   21.5310 O   0  0  0  0  0  0  0  0  0  0  0  0
    6.8960   -2.2780   22.4920 N   0  0  0  0  0  0  0  0  0  0  0  0
    8.4070   -1.5520   22.8230 C   0  0  0  0  0  0  0  0  0  0  0  0
    8.6790   -0.0610   22.8280 C   0  0  0  0  0  0  0  0  0  0  0  0
   10.1640   -0.3300   23.1830 N   0  0  0  0  0  0  0  0  0  0  0  0
   11.0430   -1.4430   23.4460 C   0  0  0  0  0  0  0  0  0  0  0  0
   10.7170   -2.8340   23.4610 C   0  0  0  0  0  0  0  0  0  0  0  0
    9.6800   -2.0410   23.1600 C   0  0  0  0  0  0  0  0  0  0  0  0
    9.1790   -3.3370   23.1580 C   0  0  0  0  0  0  0  0  0  0  0  0
  1  2  1  0
  2  3  1  0
  3  4  2  0
  3  5  1  0
  5  6  1  0
  6  7  2  0
  7  8  1  0
  8  9  2  0
  9 10  1  0
  6 11  1  0
 10 11  2  0
 11 12  1  0
M  END
