MAK-UNK-10dfa458-1-vinylsulfonamide
     RDKit          3D

 17 18  0  0  0  0  0  0  0  0999 V2000
    5.9750   -4.6420   20.3220 C   0  0  0  0  0  0  0  0  0  0  0  0
    6.0970   -4.0870   21.7630 C   0  0  0  0  0  0  0  0  0  0  0  0
    4.6610   -4.3080   22.8140 S   0  0  0  0  0  0  0  0  0  0  0  0
    3.8880   -5.4450   22.3850 O   0  0  0  0  0  0  0  0  0  0  0  0
    4.0460   -3.0240   23.0050 O   0  0  0  0  0  0  0  0  0  0  0  0
    5.2830   -4.6500   24.2800 N   0  0  0  0  0  0  0  0  0  0  0  0
    5.6350   -3.6570   25.2650 C   0  0  0  0  0  0  0  0  0  0  0  0
    6.7900   -2.9330   24.5300 C   0  0  0  0  0  0  0  0  0  0  0  0
    7.5850   -3.7730   23.5710 N   0  0  0  0  0  0  0  0  0  0  0  0
    8.2520   -3.1260   22.4240 C   0  0  0  0  0  0  0  0  0  0  0  0
    9.5400   -2.4440   22.8950 C   0  0  0  0  0  0  0  0  0  0  0  0
   10.4670   -2.5270   21.7510 C   0  0  0  0  0  0  0  0  0  0  0  0
   11.7600   -1.8610   22.2080 C   0  0  0  0  0  0  0  0  0  0  0  0
   11.6720   -1.2820   23.8170 S   0  0  0  0  0  0  0  0  0  0  0  0
   10.0310   -1.8220   24.0160 C   0  0  0  0  0  0  0  0  0  0  0  0
    7.4340   -5.2860   23.6060 C   0  0  0  0  0  0  0  0  0  0  0  0
    6.2420   -5.7130   24.2310 C   0  0  0  0  0  0  0  0  0  0  0  0
  1  2  1  0
  3  2  1  0
  3  4  2  0
  3  5  2  0
  3  6  1  0
  6  7  1  0
  7  8  1  0
  8  9  1  0
  9 10  1  0
 10 11  1  0
 11 12  1  0
 12 13  2  0
 13 14  1  0
 11 15  2  0
 14 15  1  0
  9 16  1  0
  6 17  1  0
 16 17  1  0
M  END
