MAK-UNK-ec98eaf6-37-acrylamide
     RDKit          3D

 23 25  0  0  0  0  0  0  0  0999 V2000
    7.8980   -3.2350   19.0440 C   0  0  0  0  0  0  0  0  0  0  0  0
    6.7060   -2.3290   18.9580 C   0  0  0  0  0  0  0  0  0  0  0  0
    5.7780   -2.7960   20.0170 C   0  0  0  0  0  0  0  0  0  0  0  0
    4.9060   -3.5960   19.6940 O   0  0  0  0  0  0  0  0  0  0  0  0
    6.0240   -2.3740   21.2990 N   0  0  0  0  0  0  0  0  0  0  0  0
    6.0230   -3.3470   22.4090 C   0  0  0  0  0  0  0  0  0  0  0  0
    6.9220   -2.7040   23.4710 C   0  0  2  0  0  0  0  0  0  0  0  0
    6.5880   -1.2010   23.2150 C   0  0  0  0  0  0  0  0  0  0  0  0
    6.9320   -1.2940   21.7360 C   0  0  1  0  0  0  0  0  0  0  0  0
    8.3800   -1.7910   21.9070 C   0  0  0  0  0  0  0  0  0  0  0  0
    8.4140   -2.8110   23.0320 C   0  0  1  0  0  0  0  0  0  0  0  0
    9.4150   -2.5080   24.1240 C   0  0  0  0  0  0  0  0  0  0  0  0
   10.4920   -1.6420   23.9060 C   0  0  0  0  0  0  0  0  0  0  0  0
   11.3380   -1.8840   22.8520 C   0  0  0  0  0  0  0  0  0  0  0  0
   12.3910   -1.0530   22.6240 C   0  0  0  0  0  0  0  0  0  0  0  0
   13.2030   -1.3250   21.5690 C   0  0  0  0  0  0  0  0  0  0  0  0
   13.8030   -1.5340   20.6390 N   0  0  0  0  0  0  0  0  0  0  0  0
   12.5950    0.0290   23.4490 C   0  0  0  0  0  0  0  0  0  0  0  0
   11.7750    0.3000   24.5030 N   0  0  0  0  0  0  0  0  0  0  0  0
   10.6920   -0.5440   24.7620 C   0  0  0  0  0  0  0  0  0  0  0  0
    9.8260   -0.3210   25.8410 N   0  0  0  0  0  0  0  0  0  0  0  0
    8.8830    0.7890   25.7930 C   0  0  0  0  0  0  0  0  0  0  0  0
    8.4030    0.9420   27.0880 C   0  0  0  0  0  0  0  0  0  0  0  0
  1  2  1  0
  2  3  1  0
  3  4  2  0
  3  5  1  0
  5  6  1  0
  7  6  1  6
  7  8  1  0
  5  9  1  0
  8  9  1  0
  9 10  1  1
  7 11  1  0
 10 11  1  0
 11 12  1  1
 12 13  1  0
 13 14  2  0
 14 15  1  0
 15 16  1  0
 16 17  3  0
 15 18  2  0
 18 19  1  0
 13 20  1  0
 19 20  2  0
 20 21  1  0
 21 22  1  0
 22 23  1  0
M  END
