MAK-UNK-987948f6-9-acrylamide
     RDKit          3D

 19 20  0  0  0  0  0  0  0  0999 V2000
    7.4160   -3.0400   18.8830 C   0  0  0  0  0  0  0  0  0  0  0  0
    6.8680   -2.9750   20.2940 C   0  0  0  0  0  0  0  0  0  0  0  0
    6.0410   -4.1950   20.6250 C   0  0  0  0  0  0  0  0  0  0  0  0
    5.1530   -4.5850   19.8680 O   0  0  0  0  0  0  0  0  0  0  0  0
    6.3250   -4.8740   21.7950 N   0  0  0  0  0  0  0  0  0  0  0  0
    5.4460   -5.9700   22.2060 C   0  0  0  0  0  0  0  0  0  0  0  0
    4.5120   -5.6210   23.2890 C   0  0  0  0  0  0  0  0  0  0  0  0
    5.1140   -4.8000   24.3740 N   0  0  0  0  0  0  0  0  0  0  0  0
    4.4970   -4.5150   25.5940 C   0  0  0  0  0  0  0  0  0  0  0  0
    4.9810   -4.9580   26.6410 O   0  0  0  0  0  0  0  0  0  0  0  0
    3.3530   -3.6780   25.5960 C   0  0  0  0  0  0  0  0  0  0  0  0
    3.6320   -2.3380   25.8790 C   0  0  0  0  0  0  0  0  0  0  0  0
    2.3810   -1.6890   25.8270 C   0  0  0  0  0  0  0  0  0  0  0  0
    1.4040   -2.8000   25.4920 C   0  0  0  0  0  0  0  0  0  0  0  0
    2.0190   -3.9900   25.3560 O   0  0  0  0  0  0  0  0  0  0  0  0
    6.0270   -3.7540   23.9360 C   0  0  0  0  0  0  0  0  0  0  0  0
    7.0270   -4.2920   22.9360 C   0  0  1  0  0  0  0  0  0  0  0  0
    7.7650   -5.3440   23.6080 C   0  0  0  0  0  0  0  0  0  0  0  0
    8.3640   -6.1800   24.0840 N   0  0  0  0  0  0  0  0  0  0  0  0
  1  2  1  0
  2  3  1  0
  3  4  2  0
  3  5  1  0
  5  6  1  0
  6  7  1  0
  7  8  1  0
  8  9  1  0
  9 10  2  0
  9 11  1  0
 11 12  2  0
 12 13  1  0
 13 14  2  0
 11 15  1  0
 14 15  1  0
  8 16  1  0
  5 17  1  0
 16 17  1  0
 17 18  1  1
 18 19  3  0
M  END
