MAK-UNK-c7aa8293-10
     RDKit          3D

 23 25  0  0  0  0  0  0  0  0999 V2000
   12.4610   -4.3520   26.3930 N   0  0  0  0  0  0  0  0  0  0  0  0
   11.0250   -4.6740   26.3210 C   0  0  0  0  0  0  0  0  0  0  0  0
   10.2950   -3.6580   25.6460 C   0  0  2  0  0  0  0  0  0  0  0  0
    9.3330   -4.2380   24.8050 O   0  0  0  0  0  0  0  0  0  0  0  0
    9.0490   -3.4530   23.6660 C   0  0  1  0  0  0  0  0  0  0  0  0
    7.6940   -3.8870   23.2140 C   0  0  1  0  0  0  0  0  0  0  0  0
    7.7250   -4.0690   21.7020 C   0  0  0  0  0  0  0  0  0  0  0  0
    6.4570   -4.7500   21.2130 C   0  0  2  0  0  0  0  0  0  0  0  0
    5.8570   -4.0290   20.1150 O   0  0  0  0  0  0  0  0  0  0  0  0
    5.5120   -4.8660   22.3740 C   0  0  1  0  0  0  0  0  0  0  0  0
    4.2560   -5.3250   21.9370 O   0  0  0  0  0  0  0  0  0  0  0  0
    6.1120   -5.8460   23.3490 C   0  0  0  0  0  0  0  0  0  0  0  0
    7.3780   -5.2320   23.9170 C   0  0  2  0  0  0  0  0  0  0  0  0
    7.1570   -5.0040   25.3080 O   0  0  0  0  0  0  0  0  0  0  0  0
    9.2290   -1.9510   23.9810 C   0  0  0  0  0  0  0  0  0  0  0  0
   10.5900   -1.8040   24.0720 C   0  0  0  0  0  0  0  0  0  0  0  0
   11.1890   -2.6990   24.9220 C   0  0  0  0  0  0  0  0  0  0  0  0
   12.5590   -2.7070   25.1000 C   0  0  0  0  0  0  0  0  0  0  0  0
   13.3410   -1.7540   24.3820 C   0  0  0  0  0  0  0  0  0  0  0  0
   12.7260   -0.8380   23.5270 C   0  0  0  0  0  0  0  0  0  0  0  0
   13.4890    0.0590   22.8430 O   0  0  0  0  0  0  0  0  0  0  0  0
   11.3400   -0.8590   23.3720 C   0  0  0  0  0  0  0  0  0  0  0  0
   10.7410    0.0400   22.5310 O   0  0  0  0  0  0  0  0  0  0  0  0
  1  2  1  0
  3  2  1  6
  3  4  1  0
  4  5  1  0
  5  6  1  0
  6  7  1  6
  7  8  1  0
  8  9  1  6
  8 10  1  0
 10 11  1  6
 10 12  1  0
  6 13  1  0
 12 13  1  0
 13 14  1  1
  5 15  1  1
 15 16  1  0
  3 17  1  0
 16 17  2  0
 17 18  1  0
 18 19  2  0
 19 20  1  0
 20 21  1  0
 16 22  1  0
 20 22  2  0
 22 23  1  0
M  END
