MAK-UNK-e4a48a85-24-vinylsulfonamide
     RDKit          3D

 26 28  0  0  0  0  0  0  0  0999 V2000
    7.7050   -3.3650   19.7270 C   0  0  0  0  0  0  0  0  0  0  0  0
    7.0880   -3.8010   21.0060 C   0  0  0  0  0  0  0  0  0  0  0  0
    5.4890   -3.1490   21.0220 S   0  0  0  0  0  0  0  0  0  0  0  0
    4.7710   -3.8570   22.0510 O   0  0  0  0  0  0  0  0  0  0  0  0
    5.0460   -3.1230   19.6410 O   0  0  0  0  0  0  0  0  0  0  0  0
    5.7550   -1.5840   21.5670 N   0  0  0  0  0  0  0  0  0  0  0  0
    5.6300   -1.4360   23.0050 C   0  0  0  0  0  0  0  0  0  0  0  0
    6.7920   -1.9560   23.6400 C   0  0  0  0  0  0  0  0  0  0  0  0
    8.0200   -1.2170   23.1800 N   0  0  0  0  0  0  0  0  0  0  0  0
    9.2340   -1.5650   23.6600 C   0  0  0  0  0  0  0  0  0  0  0  0
    9.8030   -0.4900   24.3370 C   0  0  2  0  0  0  0  0  0  0  0  0
    9.6040    0.7210   23.6640 C   0  0  0  0  0  0  0  0  0  0  0  0
   10.7710    1.7220   23.5960 C   0  0  2  0  0  0  0  0  0  0  0  0
   10.5150    2.8860   22.8850 C   0  0  0  0  0  0  0  0  0  0  0  0
   11.9800    1.1030   23.3190 C   0  0  0  0  0  0  0  0  0  0  0  0
   12.1280   -0.1880   23.7690 C   0  0  0  0  0  0  0  0  0  0  0  0
   11.1520   -0.6080   24.6680 C   0  0  2  0  0  0  0  0  0  0  0  0
   11.3830   -1.7150   25.0870 O   0  0  0  0  0  0  0  0  0  0  0  0
   12.7070   -2.0490   24.8260 C   0  0  0  0  0  0  0  0  0  0  0  0
   12.6630   -2.3590   23.5080 C   0  0  0  0  0  0  0  0  0  0  0  0
   13.6160   -3.0810   22.8950 C   0  0  0  0  0  0  0  0  0  0  0  0
   13.3620   -3.3520   21.4220 C   0  0  0  0  0  0  0  0  0  0  0  0
   11.9480   -2.6340   21.0030 S   0  0  0  0  0  0  0  0  0  0  0  0
   11.6730   -2.0300   22.5820 C   0  0  0  0  0  0  0  0  0  0  0  0
    8.0580   -1.1630   21.8560 C   0  0  0  0  0  0  0  0  0  0  0  0
    6.9600   -0.9480   21.0230 C   0  0  0  0  0  0  0  0  0  0  0  0
  1  2  1  0
  3  2  1  0
  3  4  2  0
  3  5  2  0
  3  6  1  0
  6  7  1  0
  7  8  1  0
  8  9  1  0
  9 10  1  0
 11 10  1  6
 11 12  1  0
 12 13  1  0
 13 14  1  6
 13 15  1  0
 15 16  1  0
 11 17  1  0
 16 17  1  0
 17 18  1  6
 18 19  1  0
 19 20  1  0
 20 21  1  0
 21 22  2  0
 22 23  1  0
 20 24  2  0
 23 24  1  0
  9 25  1  0
  6 26  1  0
 25 26  1  0
M  END
