MAK-UNK-1bb0b7ee-9
     RDKit          3D

 24 27  0  0  0  0  0  0  0  0999 V2000
    5.7730   -3.6730   25.5900 C   0  0  0  0  0  0  0  0  0  0  0  0
    4.2630   -3.5050   25.7650 C   0  0  0  0  0  0  0  0  0  0  0  0
    3.4110   -3.8670   24.5790 C   0  0  0  0  0  0  0  0  0  0  0  0
    4.1100   -4.3080   23.4760 C   0  0  0  0  0  0  0  0  0  0  0  0
    3.6410   -4.7150   22.3060 O   0  0  0  0  0  0  0  0  0  0  0  0
    4.7970   -5.3550   22.2770 C   0  0  0  0  0  0  0  0  0  0  0  0
    4.8810   -6.6340   22.6410 C   0  0  0  0  0  0  0  0  0  0  0  0
    6.2060   -7.2590   22.6570 C   0  0  0  0  0  0  0  0  0  0  0  0
    7.3640   -6.6170   22.3310 C   0  0  0  0  0  0  0  0  0  0  0  0
    7.2490   -5.1750   21.9160 C   0  0  0  0  0  0  0  0  0  0  0  0
    5.8860   -4.6180   21.9150 C   0  0  0  0  0  0  0  0  0  0  0  0
    5.9000   -3.1870   21.4990 C   0  0  0  0  0  0  0  0  0  0  0  0
    5.5530   -3.0960   20.1090 N   0  0  0  0  0  0  0  0  0  0  0  0
    5.3280   -1.8230   19.8600 C   0  0  0  0  0  0  0  0  0  0  0  0
    4.9280   -0.9600   20.7480 N   0  0  0  0  0  0  0  0  0  0  0  0
    4.7890    0.2070   20.0890 C   0  0  0  0  0  0  0  0  0  0  0  0
    4.3290    1.5450   20.6080 C   0  0  0  0  0  0  0  0  0  0  0  0
    4.2660    2.6810   19.6260 C   0  0  0  0  0  0  0  0  0  0  0  0
    4.6380    2.4300   18.3170 C   0  0  0  0  0  0  0  0  0  0  0  0
    5.1070    1.0690   17.8420 C   0  0  0  0  0  0  0  0  0  0  0  0
    5.1420    0.0510   18.7580 C   0  0  0  0  0  0  0  0  0  0  0  0
    5.4910   -1.2640   18.6340 N   0  0  0  0  0  0  0  0  0  0  0  0
    5.4670   -4.4330   23.3860 N   0  0  0  0  0  0  0  0  0  0  0  0
    6.2700   -4.1260   24.4040 C   0  0  0  0  0  0  0  0  0  0  0  0
  1  2  2  0
  2  3  1  0
  3  4  2  0
  4  5  1  0
  5  6  1  0
  6  7  2  0
  7  8  1  0
  8  9  2  0
  9 10  1  0
  6 11  1  0
 10 11  2  0
 11 12  1  0
 12 13  1  0
 13 14  1  0
 14 15  2  0
 15 16  1  0
 16 17  2  0
 17 18  1  0
 18 19  2  0
 19 20  1  0
 16 21  1  0
 20 21  2  0
 14 22  1  0
 21 22  1  0
  4 23  1  0
  1 24  1  0
 23 24  2  0
M  END
