MAK-UNK-5d2caa6f-13-vinylsulfonamide
     RDKit          3D

 26 29  0  0  0  0  0  0  0  0999 V2000
    7.7700   -3.3910   19.2530 C   0  0  0  0  0  0  0  0  0  0  0  0
    6.5110   -2.6590   18.8380 C   0  0  0  0  0  0  0  0  0  0  0  0
    5.6630   -2.0970   20.2600 S   0  0  0  0  0  0  0  0  0  0  0  0
    5.0320   -3.2590   20.8150 O   0  0  0  0  0  0  0  0  0  0  0  0
    4.9390   -0.8900   19.9470 O   0  0  0  0  0  0  0  0  0  0  0  0
    6.9310   -1.7000   21.2810 N   0  0  0  0  0  0  0  0  0  0  0  0
    6.6210   -1.6390   22.7230 C   0  0  0  0  0  0  0  0  0  0  0  0
    7.6190   -2.4060   23.3150 C   0  0  1  0  0  0  0  0  0  0  0  0
    7.9860   -3.3410   22.3860 C   0  0  0  0  0  0  0  0  0  0  0  0
    8.2470   -2.3670   21.2370 C   0  0  2  0  0  0  0  0  0  0  0  0
    9.1150   -1.3120   21.8180 C   0  0  0  0  0  0  0  0  0  0  0  0
    8.9700   -1.5880   23.2970 C   0  0  2  0  0  0  0  0  0  0  0  0
   10.1740   -2.3020   23.8950 C   0  0  0  0  0  0  0  0  0  0  0  0
   10.1700   -3.5270   23.9220 O   0  0  0  0  0  0  0  0  0  0  0  0
   11.1420   -1.5690   24.3860 N   0  0  0  0  0  0  0  0  0  0  0  0
   12.0540   -0.9790   23.3420 C   0  0  0  0  0  0  0  0  0  0  0  0
   12.4600   -2.5320   23.2460 C   0  0  0  0  0  0  0  0  0  0  0  0
   11.9410   -1.3880   23.5390 C   0  0  0  0  0  0  0  0  0  0  0  0
   13.1920   -1.5920   22.3010 Cl  0  0  0  0  0  0  0  0  0  0  0  0
   12.4620   -0.2400   22.8080 N   0  0  0  0  0  0  0  0  0  0  0  0
   11.8670    0.9170   23.1800 C   0  0  0  0  0  0  0  0  0  0  0  0
   12.0060    2.3820   22.7830 C   0  0  0  0  0  0  0  0  0  0  0  0
   11.0540    3.2950   23.5250 C   0  0  0  0  0  0  0  0  0  0  0  0
   11.4910    1.9280   23.3590 C   0  0  0  0  0  0  0  0  0  0  0  0
   10.5890    1.4250   24.3140 C   0  0  0  0  0  0  0  0  0  0  0  0
   11.1170    0.1050   24.0510 C   0  0  0  0  0  0  0  0  0  0  0  0
  1  2  1  0
  3  2  1  0
  3  4  2  0
  3  5  2  0
  3  6  1  0
  6  7  1  0
  8  7  1  6
  8  9  1  0
  6 10  1  0
  9 10  1  0
 10 11  1  1
  8 12  1  0
 11 12  1  0
 12 13  1  6
 13 14  2  0
 13 15  1  0
 15 16  1  0
 16 17  2  0
 17 18  1  0
 18 19  1  0
 18 20  2  0
 20 21  1  0
 21 22  1  0
 22 23  2  0
 23 24  1  0
 24 25  2  0
 16 26  1  0
 21 26  2  0
 25 26  1  0
M  END
