MAK-UNK-af83ef51-27-vinylsulfonamide
     RDKit          3D

 30 32  0  0  0  0  0  0  0  0999 V2000
    7.8380   -3.1310   18.7940 C   0  0  0  0  0  0  0  0  0  0  0  0
    6.4700   -2.6370   18.7200 C   0  0  0  0  0  0  0  0  0  0  0  0
    5.5650   -3.3020   20.0810 S   0  0  0  0  0  0  0  0  0  0  0  0
    4.3750   -2.8770   19.6740 O   0  0  0  0  0  0  0  0  0  0  0  0
    5.4330   -4.7250   20.2490 O   0  0  0  0  0  0  0  0  0  0  0  0
    6.1950   -2.4540   21.3890 N   0  0  0  0  0  0  0  0  0  0  0  0
    7.2220   -1.4510   21.2130 C   0  0  0  0  0  0  0  0  0  0  0  0
    8.4710   -1.6560   21.8140 C   0  0  0  0  0  0  0  0  0  0  0  0
    8.3880   -2.0900   23.2250 N   0  0  0  0  0  0  0  0  0  0  0  0
    9.7240   -2.2520   23.8600 C   0  0  0  0  0  0  0  0  0  0  0  0
   10.6220   -1.2060   23.6820 C   0  0  0  0  0  0  0  0  0  0  0  0
   10.1740    0.0880   23.7920 C   0  0  0  0  0  0  0  0  0  0  0  0
   11.1450    1.2060   23.5900 C   0  0  0  0  0  0  0  0  0  0  0  0
   10.6010    2.6290   23.7130 C   0  0  0  0  0  0  0  0  0  0  0  0
   11.5010    3.5510   23.0220 N   0  0  0  0  0  0  0  0  0  0  0  0
   11.5410    4.8850   23.6070 C   0  0  0  0  0  0  0  0  0  0  0  0
   10.9410    5.0620   24.9800 C   0  0  0  0  0  0  0  0  0  0  0  0
   10.9350    6.2830   25.6070 C   0  0  0  0  0  0  0  0  0  0  0  0
   11.4600    7.4940   25.0910 C   0  0  0  0  0  0  0  0  0  0  0  0
   11.3860    8.6640   25.8240 N   0  0  0  0  0  0  0  0  0  0  0  0
   11.8980    8.7390   27.1730 C   0  0  0  0  0  0  0  0  0  0  0  0
   12.2220    7.3510   27.7270 C   0  0  0  0  0  0  0  0  0  0  0  0
   12.0520    7.3160   23.7370 N   0  0  0  0  0  0  0  0  0  0  0  0
   12.0660    6.0700   23.0860 C   0  0  0  0  0  0  0  0  0  0  0  0
   12.4540    0.9040   23.2980 C   0  0  0  0  0  0  0  0  0  0  0  0
   12.9160   -0.3720   23.1900 N   0  0  0  0  0  0  0  0  0  0  0  0
   11.9900   -1.3750   23.3870 C   0  0  0  0  0  0  0  0  0  0  0  0
   12.6230   -2.7060   23.2560 C   0  0  0  0  0  0  0  0  0  0  0  0
    7.5590   -3.2900   23.3270 C   0  0  0  0  0  0  0  0  0  0  0  0
    6.1590   -3.1140   22.6960 C   0  0  0  0  0  0  0  0  0  0  0  0
  1  2  1  0
  3  2  1  0
  3  4  2  0
  3  5  2  0
  3  6  1  0
  6  7  1  0
  7  8  1  0
  8  9  1  0
  9 10  1  0
 10 11  1  0
 11 12  2  0
 12 13  1  0
 13 14  1  0
 14 15  1  0
 15 16  1  0
 16 17  2  0
 17 18  1  0
 18 19  2  0
 19 20  1  0
 20 21  1  0
 21 22  1  0
 19 23  1  0
 16 24  1  0
 23 24  2  0
 13 25  2  0
 25 26  1  0
 11 27  1  0
 26 27  2  0
 27 28  1  0
  9 29  1  0
  6 30  1  0
 29 30  1  0
M  END
