MAK-UNK-5d2caa6f-12-chloroacetamide
     RDKit          3D

 22 25  0  0  0  0  0  0  0  0999 V2000
    7.4410   -3.0580   18.8190 C   0  0  0  0  0  0  0  0  0  0  0  0
    6.4470   -3.3670   19.9160 C   0  0  0  0  0  0  0  0  0  0  0  0
    5.4410   -4.0540   19.7020 O   0  0  0  0  0  0  0  0  0  0  0  0
    6.7660   -2.8790   21.1600 N   0  0  0  0  0  0  0  0  0  0  0  0
    7.2450   -1.4990   21.4020 C   0  0  0  0  0  0  0  0  0  0  0  0
    8.3980   -1.6590   22.1680 C   0  0  2  0  0  0  0  0  0  0  0  0
    8.8920   -2.9020   21.9210 C   0  0  0  0  0  0  0  0  0  0  0  0
    7.5610   -3.6110   22.1600 C   0  0  1  0  0  0  0  0  0  0  0  0
    7.1250   -3.0120   23.4680 C   0  0  0  0  0  0  0  0  0  0  0  0
    8.1870   -2.0140   23.6300 N   0  0  0  0  0  0  0  0  0  0  0  0
    9.5060   -2.5710   24.1140 C   0  0  0  0  0  0  0  0  0  0  0  0
   10.6860   -1.6530   23.7160 C   0  0  0  0  0  0  0  0  0  0  0  0
   10.7270   -0.3120   24.4550 C   0  0  0  0  0  0  0  0  0  0  0  0
   11.8800    0.6340   24.0730 C   0  0  0  0  0  0  0  0  0  0  0  0
   12.8180    0.2080   23.0910 C   0  0  0  0  0  0  0  0  0  0  0  0
   12.6670   -1.1310   22.4470 C   0  0  0  0  0  0  0  0  0  0  0  0
   11.6390   -2.0010   22.7590 C   0  0  0  0  0  0  0  0  0  0  0  0
    9.8150   -3.9990   23.5640 C   0  0  0  0  0  0  0  0  0  0  0  0
    8.9640   -5.1140   24.1540 C   0  0  0  0  0  0  0  0  0  0  0  0
    9.1050   -5.0580   25.6620 C   0  0  0  0  0  0  0  0  0  0  0  0
    9.9600   -3.9280   26.2090 C   0  0  0  0  0  0  0  0  0  0  0  0
    9.5560   -2.6860   25.6650 C   0  0  0  0  0  0  0  0  0  0  0  0
  1  2  1  0
  2  3  2  0
  2  4  1  0
  4  5  1  0
  6  5  1  6
  6  7  1  0
  4  8  1  0
  7  8  1  0
  8  9  1  1
  6 10  1  0
  9 10  1  0
 10 11  1  0
 11 12  1  0
 12 13  2  0
 13 14  1  0
 14 15  2  0
 15 16  1  0
 12 17  1  0
 16 17  2  0
 11 18  1  0
 18 19  1  0
 19 20  1  0
 20 21  1  0
 11 22  1  0
 21 22  1  0
M  END
