MAK-UNK-60abb798-8
     RDKit          3D

 20 22  0  0  0  0  0  0  0  0999 V2000
    9.2130   -5.8410   26.8680 N   0  0  0  0  0  0  0  0  0  0  0  0
    8.8180   -6.1170   25.5840 C   0  0  0  0  0  0  0  0  0  0  0  0
    8.8900   -4.9440   24.7090 C   0  0  2  0  0  0  0  0  0  0  0  0
    8.6840   -3.8440   25.2610 O   0  0  0  0  0  0  0  0  0  0  0  0
    9.3140   -2.7550   24.5440 C   0  0  1  0  0  0  0  0  0  0  0  0
   10.6630   -2.3230   25.0330 C   0  0  0  0  0  0  0  0  0  0  0  0
   11.2900   -1.3010   24.1630 C   0  0  0  0  0  0  0  0  0  0  0  0
   12.5120   -0.8150   24.5500 C   0  0  0  0  0  0  0  0  0  0  0  0
   13.3810   -1.7900   25.0610 C   0  0  0  0  0  0  0  0  0  0  0  0
   12.9350   -3.0720   25.3210 C   0  0  0  0  0  0  0  0  0  0  0  0
   11.4920   -3.3830   25.2870 C   0  0  0  0  0  0  0  0  0  0  0  0
    9.4460   -3.2460   23.1720 C   0  0  0  0  0  0  0  0  0  0  0  0
    8.4030   -3.9530   22.7590 C   0  0  0  0  0  0  0  0  0  0  0  0
    7.9670   -5.0020   23.4850 C   0  0  0  0  0  0  0  0  0  0  0  0
    6.9270   -5.8480   23.1430 C   0  0  0  0  0  0  0  0  0  0  0  0
    6.2430   -5.5900   21.9470 C   0  0  0  0  0  0  0  0  0  0  0  0
    6.6500   -4.4680   21.1640 C   0  0  0  0  0  0  0  0  0  0  0  0
    6.0810   -4.1670   20.1040 O   0  0  0  0  0  0  0  0  0  0  0  0
    7.7140   -3.6770   21.5890 C   0  0  0  0  0  0  0  0  0  0  0  0
    8.0210   -2.7180   20.8930 O   0  0  0  0  0  0  0  0  0  0  0  0
  1  2  1  0
  3  2  1  1
  3  4  1  0
  4  5  1  0
  5  6  1  1
  6  7  1  0
  7  8  1  0
  8  9  1  0
  9 10  1  0
  6 11  1  0
 10 11  1  0
  5 12  1  0
 12 13  1  0
  3 14  1  0
 13 14  2  0
 14 15  1  0
 15 16  2  0
 16 17  1  0
 17 18  1  0
 13 19  1  0
 17 19  2  0
 19 20  1  0
M  END
