MAK-UNK-198e6d85-11
     RDKit          3D

 21 23  0  0  0  0  0  0  0  0999 V2000
    7.8270   -5.9370   27.0340 N   0  0  0  0  0  0  0  0  0  0  0  0
    9.0760   -5.6700   26.2970 C   0  0  0  0  0  0  0  0  0  0  0  0
    8.8870   -4.8820   25.0220 C   0  0  2  0  0  0  0  0  0  0  0  0
    8.9050   -3.4480   25.4450 O   0  0  0  0  0  0  0  0  0  0  0  0
    9.2870   -2.6840   24.3150 C   0  0  1  0  0  0  0  0  0  0  0  0
   10.5620   -2.1720   24.2760 C   0  0  1  0  0  0  0  0  0  0  0  0
   10.8890   -0.7960   24.8200 C   0  0  0  0  0  0  0  0  0  0  0  0
   12.1700   -0.4930   24.4120 C   0  0  0  0  0  0  0  0  0  0  0  0
   13.2050   -1.4210   25.0030 C   0  0  0  0  0  0  0  0  0  0  0  0
   12.8750   -2.9010   25.1420 C   0  0  0  0  0  0  0  0  0  0  0  0
   11.4390   -3.2630   24.8510 C   0  0  1  0  0  0  0  0  0  0  0  0
   10.8670   -3.8070   26.0330 O   0  0  0  0  0  0  0  0  0  0  0  0
    9.4010   -3.9200   23.5430 C   0  0  0  0  0  0  0  0  0  0  0  0
    8.1770   -4.4860   23.2360 C   0  0  0  0  0  0  0  0  0  0  0  0
    7.6150   -5.3750   24.2660 C   0  0  0  0  0  0  0  0  0  0  0  0
    6.3500   -5.8210   23.4320 C   0  0  0  0  0  0  0  0  0  0  0  0
    5.7960   -5.4660   22.0530 C   0  0  0  0  0  0  0  0  0  0  0  0
    6.5430   -4.4970   21.2520 C   0  0  0  0  0  0  0  0  0  0  0  0
    6.1720   -4.0350   20.0040 O   0  0  0  0  0  0  0  0  0  0  0  0
    7.7770   -4.0650   21.9690 C   0  0  0  0  0  0  0  0  0  0  0  0
    8.5830   -3.1660   21.3410 O   0  0  0  0  0  0  0  0  0  0  0  0
  1  2  1  0
  3  2  1  1
  3  4  1  0
  4  5  1  0
  5  6  1  0
  6  7  1  1
  7  8  1  0
  8  9  1  0
  9 10  1  0
  6 11  1  0
 10 11  1  0
 11 12  1  1
  5 13  1  6
 13 14  1  0
  3 15  1  0
 14 15  2  0
 15 16  1  0
 16 17  2  0
 17 18  1  0
 18 19  1  0
 14 20  1  0
 18 20  2  0
 20 21  1  0
M  END
