MAK-UNK-987948f6-6-vinylsulfonamide
     RDKit          3D

 23 24  0  0  0  0  0  0  0  0999 V2000
    7.5050   -3.1590   19.3050 C   0  0  0  0  0  0  0  0  0  0  0  0
    7.1460   -3.4800   20.7380 C   0  0  0  0  0  0  0  0  0  0  0  0
    5.4210   -3.2430   20.7820 S   0  0  0  0  0  0  0  0  0  0  0  0
    4.8850   -3.9080   21.9280 O   0  0  0  0  0  0  0  0  0  0  0  0
    4.9360   -3.6020   19.4590 O   0  0  0  0  0  0  0  0  0  0  0  0
    5.3330   -1.5680   21.0590 N   0  0  0  0  0  0  0  0  0  0  0  0
    6.6740   -1.0220   21.3170 C   0  0  0  0  0  0  0  0  0  0  0  0
    6.1950   -1.2210   22.9830 C   0  0  0  0  0  0  0  0  0  0  0  0
    6.8570   -0.9710   24.5270 C   0  0  0  0  0  0  0  0  0  0  0  0
    6.3520   -1.1690   25.8160 C   0  0  0  0  0  0  0  0  0  0  0  0
    6.5510    0.0340   26.5370 C   0  0  0  0  0  0  0  0  0  0  0  0
    7.7030   -0.2600   27.2270 C   0  0  0  0  0  0  0  0  0  0  0  0
    8.1440   -0.4760   24.4130 C   0  0  0  0  0  0  0  0  0  0  0  0
    7.6500   -0.6520   23.1940 C   0  0  0  0  0  0  0  0  0  0  0  0
    6.3220   -1.1740   23.6510 C   0  0  0  0  0  0  0  0  0  0  0  0
    5.4500   -0.3140   23.8840 O   0  0  0  0  0  0  0  0  0  0  0  0
    6.1120   -2.5750   23.8150 N   0  0  0  0  0  0  0  0  0  0  0  0
    4.8420   -2.9970   24.4340 C   0  0  0  0  0  0  0  0  0  0  0  0
    5.0350   -3.8260   25.6450 C   0  0  0  0  0  0  0  0  0  0  0  0
    5.6830   -5.4760   25.2420 S   0  0  0  0  0  0  0  0  0  0  0  0
    6.8310   -5.0180   23.8930 C   0  0  0  0  0  0  0  0  0  0  0  0
    7.2320   -3.5370   23.9000 C   0  0  0  0  0  0  0  0  0  0  0  0
    7.6540   -0.6330   22.0010 C   0  0  0  0  0  0  0  0  0  0  0  0
  1  2  1  0
  2  3  1  0
  3  4  2  0
  3  5  2  0
  3  6  1  0
  6  7  1  0
  7  8  2  0
  8  9  1  0
  9 10  1  0
 10 11  1  0
 11 12  1  0
  9 13  2  0
 13 14  1  0
 14 15  1  0
 15 16  2  0
 15 17  1  0
 17 18  1  0
 18 19  1  0
 19 20  1  0
 20 21  1  0
 17 22  1  0
 21 22  1  0
  7 23  1  0
 14 23  2  0
M  END
