MAK-UNK-902cc841-4
     RDKit          3D

 30 33  0  0  0  0  0  0  0  0999 V2000
    6.4500   -2.0380   18.5500 C   0  0  0  0  0  0  0  0  0  0  0  0
    6.1180   -2.8950   19.7290 C   0  0  0  0  0  0  0  0  0  0  0  0
    5.4210   -3.9080   19.6100 O   0  0  0  0  0  0  0  0  0  0  0  0
    6.6480   -2.5050   20.9350 N   0  0  0  0  0  0  0  0  0  0  0  0
    7.6230   -1.4080   21.0650 C   0  0  0  0  0  0  0  0  0  0  0  0
    8.7390   -1.7470   21.8110 C   0  0  0  0  0  0  0  0  0  0  0  0
    8.4230   -2.2910   23.0010 N   0  0  0  0  0  0  0  0  0  0  0  0
    9.3400   -2.0240   24.1440 C   0  0  1  0  0  0  0  0  0  0  0  0
    9.6440   -3.1610   24.9230 C   0  0  0  0  0  0  0  0  0  0  0  0
    9.0850   -4.2540   24.7720 O   0  0  0  0  0  0  0  0  0  0  0  0
   10.6220   -3.0060   25.8890 N   0  0  0  0  0  0  0  0  0  0  0  0
   11.9450   -3.1230   25.3400 C   0  0  0  0  0  0  0  0  0  0  0  0
   11.9530   -2.4450   24.0140 C   0  0  0  0  0  0  0  0  0  0  0  0
   13.1820   -2.4850   23.2460 C   0  0  0  0  0  0  0  0  0  0  0  0
   14.2690   -3.2420   23.9100 C   0  0  0  0  0  0  0  0  0  0  0  0
   14.2720   -3.9200   25.2620 C   0  0  0  0  0  0  0  0  0  0  0  0
   15.4830   -4.6660   25.6570 N   0  0  0  0  0  0  0  0  0  0  0  0
   16.6950   -4.5220   24.9070 C   0  0  0  0  0  0  0  0  0  0  0  0
   17.5950   -5.7020   25.1640 C   0  0  0  0  0  0  0  0  0  0  0  0
   16.7090   -6.7450   25.5120 C   0  0  0  0  0  0  0  0  0  0  0  0
   15.7130   -5.9130   26.3270 C   0  0  0  0  0  0  0  0  0  0  0  0
   15.3430   -6.3120   27.3910 O   0  0  0  0  0  0  0  0  0  0  0  0
   13.0730   -3.7960   25.9360 C   0  0  0  0  0  0  0  0  0  0  0  0
   10.5410   -1.1650   23.7460 C   0  0  0  0  0  0  0  0  0  0  0  0
   11.4290   -1.3360   22.6830 C   0  0  0  0  0  0  0  0  0  0  0  0
   12.3990   -0.3570   22.6290 C   0  0  0  0  0  0  0  0  0  0  0  0
   12.2270    0.7830   23.8620 S   0  0  0  0  0  0  0  0  0  0  0  0
   10.8680   -0.0400   24.4760 C   0  0  0  0  0  0  0  0  0  0  0  0
    7.7350   -3.5770   22.9000 C   0  0  0  0  0  0  0  0  0  0  0  0
    6.4550   -3.3930   22.0780 C   0  0  0  0  0  0  0  0  0  0  0  0
  1  2  1  0
  2  3  2  0
  2  4  1  0
  4  5  1  0
  5  6  1  0
  6  7  1  0
  7  8  1  0
  8  9  1  6
  9 10  2  0
  9 11  1  0
 11 12  1  0
 12 13  2  0
 13 14  1  0
 14 15  2  0
 15 16  1  0
 16 17  1  0
 17 18  1  0
 18 19  1  0
 19 20  1  0
 17 21  1  0
 20 21  1  0
 21 22  2  0
 12 23  1  0
 16 23  2  0
  8 24  1  0
 24 25  1  0
 25 26  2  0
 26 27  1  0
 24 28  2  0
 27 28  1  0
  7 29  1  0
  4 30  1  0
 29 30  1  0
M  END
