MAK-UNK-902cc841-5
     RDKit          3D

 32 35  0  0  0  0  0  0  0  0999 V2000
    6.3190   -2.0230   18.3440 C   0  0  0  0  0  0  0  0  0  0  0  0
    5.9670   -2.5780   19.6800 C   0  0  0  0  0  0  0  0  0  0  0  0
    5.4860   -3.7240   19.7740 O   0  0  0  0  0  0  0  0  0  0  0  0
    6.2600   -1.6970   20.7040 N   0  0  0  0  0  0  0  0  0  0  0  0
    5.9900   -1.8700   22.1200 C   0  0  0  0  0  0  0  0  0  0  0  0
    7.1390   -1.7630   22.8890 C   0  0  0  0  0  0  0  0  0  0  0  0
    7.9940   -0.6970   22.7150 N   0  0  0  0  0  0  0  0  0  0  0  0
    9.1940   -1.0060   23.5300 C   0  0  1  0  0  0  0  0  0  0  0  0
    9.2880   -2.3250   23.3770 C   0  0  0  0  0  0  0  0  0  0  0  0
    9.2820   -2.8540   22.2610 O   0  0  0  0  0  0  0  0  0  0  0  0
    9.4210   -3.0720   24.4690 N   0  0  0  0  0  0  0  0  0  0  0  0
    8.6600   -4.2100   24.0200 C   0  0  0  0  0  0  0  0  0  0  0  0
    9.3730   -5.4800   23.7320 C   0  0  0  0  0  0  0  0  0  0  0  0
    8.5870   -6.6400   23.1830 C   0  0  0  0  0  0  0  0  0  0  0  0
    7.0880   -6.4930   22.9590 C   0  0  0  0  0  0  0  0  0  0  0  0
    6.3500   -7.4670   22.4880 F   0  0  0  0  0  0  0  0  0  0  0  0
    6.4840   -5.1530   23.3210 C   0  0  0  0  0  0  0  0  0  0  0  0
    7.2730   -4.1220   23.8110 C   0  0  0  0  0  0  0  0  0  0  0  0
   10.8630   -2.9440   24.7130 C   0  0  2  0  0  0  0  0  0  0  0  0
   11.6320   -2.8410   23.4810 C   0  0  0  0  0  0  0  0  0  0  0  0
   13.1190   -3.0030   23.8300 C   0  0  0  0  0  0  0  0  0  0  0  0
   13.2950   -3.2860   25.5030 S   0  0  0  0  0  0  0  0  0  0  0  0
   14.1730   -4.3840   25.7870 O   0  0  0  0  0  0  0  0  0  0  0  0
   13.6360   -1.9650   25.9350 O   0  0  0  0  0  0  0  0  0  0  0  0
   11.5460   -3.8190   25.6970 C   0  0  0  0  0  0  0  0  0  0  0  0
   10.5880   -0.4660   23.2190 C   0  0  0  0  0  0  0  0  0  0  0  0
   11.5960   -1.0610   22.4840 C   0  0  0  0  0  0  0  0  0  0  0  0
   12.7430   -0.2960   22.4320 C   0  0  0  0  0  0  0  0  0  0  0  0
   12.6180    0.8830   23.1110 C   0  0  0  0  0  0  0  0  0  0  0  0
   11.0900    1.0380   23.8170 S   0  0  0  0  0  0  0  0  0  0  0  0
    8.3300   -0.4650   21.3130 C   0  0  0  0  0  0  0  0  0  0  0  0
    7.1190   -0.5660   20.3860 C   0  0  0  0  0  0  0  0  0  0  0  0
  1  2  1  0
  2  3  2  0
  2  4  1  0
  4  5  1  0
  5  6  1  0
  6  7  1  0
  7  8  1  0
  8  9  1  6
  9 10  2  0
  9 11  1  0
 11 12  1  0
 12 13  2  0
 13 14  1  0
 14 15  2  0
 15 16  1  0
 15 17  1  0
 12 18  1  0
 17 18  2  0
 19 11  1  6
 19 20  1  0
 20 21  2  0
 22 21  1  0
 22 23  2  0
 22 24  2  0
 19 25  1  0
 22 25  1  0
  8 26  1  0
 26 27  2  0
 27 28  1  0
 28 29  2  0
 26 30  1  0
 29 30  1  0
  7 31  1  0
  4 32  1  0
 31 32  1  0
M  END
