MAK-UNK-704ed37c-1-vinylsulfonamide
     RDKit          3D

 18 19  0  0  0  0  0  0  0  0999 V2000
    8.1260   -3.5560   19.9290 C   0  0  0  0  0  0  0  0  0  0  0  0
    6.8420   -2.9080   19.4700 C   0  0  0  0  0  0  0  0  0  0  0  0
    5.7620   -3.8330   20.4930 S   0  0  0  0  0  0  0  0  0  0  0  0
    4.8000   -3.0140   21.1500 O   0  0  0  0  0  0  0  0  0  0  0  0
    5.3540   -5.0100   19.7810 O   0  0  0  0  0  0  0  0  0  0  0  0
    6.8770   -4.2520   21.6920 N   0  0  0  0  0  0  0  0  0  0  0  0
    7.6100   -3.1140   22.2730 C   0  0  0  0  0  0  0  0  0  0  0  0
    7.4370   -3.0150   23.7810 C   0  0  0  0  0  0  0  0  0  0  0  0
    6.0610   -3.5500   24.1450 C   0  0  0  0  0  0  0  0  0  0  0  0
    5.5810   -3.1920   25.5570 C   0  0  0  0  0  0  0  0  0  0  0  0
    4.4990   -2.6120   25.6760 O   0  0  0  0  0  0  0  0  0  0  0  0
    6.3370   -3.5060   26.6550 N   0  0  0  0  0  0  0  0  0  0  0  0
    5.8040   -3.4940   27.9800 C   0  0  0  0  0  0  0  0  0  0  0  0
    6.4530   -4.7310   28.5430 C   0  0  0  0  0  0  0  0  0  0  0  0
    7.7860   -4.7730   27.8980 N   0  0  0  0  0  0  0  0  0  0  0  0
    7.7150   -3.8940   26.7270 C   0  0  0  0  0  0  0  0  0  0  0  0
    5.8710   -5.0410   23.8230 C   0  0  0  0  0  0  0  0  0  0  0  0
    6.5370   -5.4270   22.5030 C   0  0  0  0  0  0  0  0  0  0  0  0
  1  2  1  0
  3  2  1  0
  3  4  2  0
  3  5  2  0
  3  6  1  0
  6  7  1  0
  7  8  1  0
  8  9  1  0
  9 10  1  0
 10 11  2  0
 10 12  1  0
 12 13  1  0
 13 14  1  0
 14 15  1  0
 12 16  1  0
 15 16  1  0
  9 17  1  0
  6 18  1  0
 17 18  1  0
M  END
