MAK-UNK-b2c98f02-9
     RDKit          3D

 28 30  0  0  0  0  0  0  0  0999 V2000
    9.1700    1.4680   21.3380 O   0  0  0  0  0  0  0  0  0  0  0  0
    8.7530    0.4200   21.8320 C   0  0  0  0  0  0  0  0  0  0  0  0
    9.2530   -0.0710   23.0770 C   0  0  0  0  0  0  0  0  0  0  0  0
   10.2800   -1.2080   23.2840 C   0  0  2  0  0  0  0  0  0  0  0  0
   11.0110   -1.1870   24.6180 C   0  0  0  0  0  0  0  0  0  0  0  0
   12.0890   -0.3070   24.6600 C   0  0  0  0  0  0  0  0  0  0  0  0
   12.9070   -0.4530   23.5850 C   0  0  2  0  0  0  0  0  0  0  0  0
   12.6850    0.9870   22.5720 S   0  0  0  0  0  0  0  0  0  0  0  0
   13.6840    0.9100   21.5640 O   0  0  0  0  0  0  0  0  0  0  0  0
   11.2570    0.9500   22.4360 O   0  0  0  0  0  0  0  0  0  0  0  0
   12.8840    2.4920   23.2260 N   0  0  0  0  0  0  0  0  0  0  0  0
   13.0850    3.6080   22.4400 C   0  0  0  0  0  0  0  0  0  0  0  0
   12.0110    4.3440   21.8940 C   0  0  0  0  0  0  0  0  0  0  0  0
   11.5350    5.4680   22.6200 C   0  0  0  0  0  0  0  0  0  0  0  0
   10.0720    5.9370   22.6480 C   0  0  0  0  0  0  0  0  0  0  0  0
    9.7250    7.1270   23.4960 C   0  0  0  0  0  0  0  0  0  0  0  0
   10.7100    7.7760   24.2400 C   0  0  0  0  0  0  0  0  0  0  0  0
   12.0390    7.3250   24.1710 C   0  0  0  0  0  0  0  0  0  0  0  0
   12.4390    6.2150   23.3900 C   0  0  0  0  0  0  0  0  0  0  0  0
   12.4580   -1.6420   22.7310 C   0  0  0  0  0  0  0  0  0  0  0  0
   11.1470   -1.4200   22.2260 C   0  0  0  0  0  0  0  0  0  0  0  0
    7.7400   -0.3240   21.2620 N   0  0  0  0  0  0  0  0  0  0  0  0
    6.9590    0.1050   20.2320 C   0  0  0  0  0  0  0  0  0  0  0  0
    5.9200    0.9550   20.5190 C   0  0  0  0  0  0  0  0  0  0  0  0
    5.0060    1.5020   19.4780 C   0  0  0  0  0  0  0  0  0  0  0  0
    5.3470    1.0290   18.1090 C   0  0  0  0  0  0  0  0  0  0  0  0
    6.3670    0.1960   17.8640 N   0  0  0  0  0  0  0  0  0  0  0  0
    7.1320   -0.2420   18.8990 C   0  0  0  0  0  0  0  0  0  0  0  0
  1  2  2  0
  2  3  1  0
  4  3  1  6
  4  5  1  0
  5  6  1  0
  6  7  1  0
  7  8  1  6
  8  9  2  0
  8 10  2  0
  8 11  1  0
 11 12  1  0
 12 13  1  0
 13 14  1  0
 14 15  2  0
 15 16  1  0
 16 17  2  0
 17 18  1  0
 14 19  1  0
 18 19  2  0
  7 20  1  0
  4 21  1  0
 20 21  1  0
  2 22  1  0
 22 23  1  0
 23 24  2  0
 24 25  1  0
 25 26  2  0
 26 27  1  0
 23 28  1  0
 27 28  2  0
M  END
