MAK-UNK-10799360-31-nitrile
     RDKit          3D

 29 33  0  0  0  0  0  0  0  0999 V2000
    6.6560   -3.7570   20.0220 C   0  0  0  0  0  0  0  0  0  0  0  0
    5.5510   -3.5720   19.3400 N   0  0  0  0  0  0  0  0  0  0  0  0
    6.6060   -2.8440   21.2500 N   0  0  0  0  0  0  0  0  0  0  0  0
    7.2490   -3.1180   22.6480 C   0  0  0  0  0  0  0  0  0  0  0  0
    8.5050   -2.3980   22.2620 C   0  0  1  0  0  0  0  0  0  0  0  0
    9.6270   -1.3600   22.8140 C   0  0  0  0  0  0  0  0  0  0  0  0
   11.0080   -1.9090   22.5190 C   0  0  0  0  0  0  0  0  0  0  0  0
   12.2590   -1.0150   22.8610 C   0  0  0  0  0  0  0  0  0  0  0  0
   13.7870   -1.7330   22.5030 Cl  0  0  0  0  0  0  0  0  0  0  0  0
   12.1590    0.4610   23.4810 C   0  0  0  0  0  0  0  0  0  0  0  0
   10.7020    0.8030   23.7140 C   0  0  0  0  0  0  0  0  0  0  0  0
   10.0120    2.0470   24.2180 C   0  0  0  0  0  0  0  0  0  0  0  0
   10.5800    3.2670   24.5940 C   0  0  0  0  0  0  0  0  0  0  0  0
   10.7290    4.2750   23.6180 C   0  0  0  0  0  0  0  0  0  0  0  0
    9.8040    5.3830   23.8210 N   0  0  0  0  0  0  0  0  0  0  0  0
    9.3490    5.8550   25.0220 C   0  0  0  0  0  0  0  0  0  0  0  0
    7.9880    5.7360   25.3700 C   0  0  0  0  0  0  0  0  0  0  0  0
   10.1590    6.3690   25.8010 O   0  0  0  0  0  0  0  0  0  0  0  0
    8.6230    1.9140   24.2410 C   0  0  0  0  0  0  0  0  0  0  0  0
    8.3690    0.6920   23.7710 N   0  0  0  0  0  0  0  0  0  0  0  0
    9.5250   -0.0860   23.4120 C   0  0  0  0  0  0  0  0  0  0  0  0
    7.8990   -2.3950   20.8110 C   0  0  0  0  0  0  0  0  0  0  0  0
    6.8670   -1.4150   20.9270 C   0  0  2  0  0  0  0  0  0  0  0  0
    7.8690   -0.5330   21.2470 C   0  0  0  0  0  0  0  0  0  0  0  0
    7.7850    0.9340   20.6800 C   0  0  0  0  0  0  0  0  0  0  0  0
    8.8540    1.6420   21.0780 C   0  0  0  0  0  0  0  0  0  0  0  0
    9.6540    0.7490   21.9010 C   0  0  0  0  0  0  0  0  0  0  0  0
    9.1320   -0.7040   22.0540 C   0  0  0  0  0  0  0  0  0  0  0  0
    7.9150   -1.3380   21.5590 C   0  0  0  0  0  0  0  0  0  0  0  0
  1  2  2  3
  1  3  1  0
  3  4  1  0
  4  5  1  0
  5  6  1  1
  6  7  2  0
  7  8  1  0
  8  9  1  0
  8 10  2  0
 10 11  1  0
 11 12  1  0
 12 13  1  0
 13 14  1  0
 14 15  1  0
 15 16  1  0
 16 17  1  0
 16 18  2  0
 12 19  2  0
 19 20  1  0
  6 21  1  0
 11 21  2  0
 20 21  1  0
  5 22  1  0
 23  3  1  1
 22 23  1  0
 23 24  1  0
 24 25  1  0
 25 26  2  0
 26 27  1  0
 27 28  2  0
  5 29  1  0
 24 29  2  0
 28 29  1  0
M  END
