MAK-UNK-f2409524-26
     RDKit          3D

 22 23  0  0  0  0  0  0  0  0999 V2000
    9.9630   -0.5890   22.4520 C   0  0  0  0  0  0  0  0  0  0  0  0
    8.9590    0.1140   21.5770 C   0  0  0  0  0  0  0  0  0  0  0  0
    9.0770    1.3140   21.2710 O   0  0  0  0  0  0  0  0  0  0  0  0
    7.9120   -0.6840   21.1670 N   0  0  0  0  0  0  0  0  0  0  0  0
    6.8940   -0.1310   20.2970 C   0  0  0  0  0  0  0  0  0  0  0  0
    7.1240   -0.3290   18.8040 C   0  0  0  0  0  0  0  0  0  0  0  0
    6.1340    0.2330   17.9140 N   0  0  0  0  0  0  0  0  0  0  0  0
    5.0350    0.9080   18.3990 C   0  0  0  0  0  0  0  0  0  0  0  0
    4.8980    1.0330   19.7620 C   0  0  0  0  0  0  0  0  0  0  0  0
    5.7580    0.5530   20.7520 C   0  0  0  0  0  0  0  0  0  0  0  0
    5.4580    0.7730   22.1160 C   0  0  0  0  0  0  0  0  0  0  0  0
    4.4550   -0.0850   22.8650 C   0  0  0  0  0  0  0  0  0  0  0  0
    4.0640    0.4630   24.2480 C   0  0  0  0  0  0  0  0  0  0  0  0
    3.2550    1.5300   24.2240 C   0  0  0  0  0  0  0  0  0  0  0  0
    2.7740    2.2470   23.1430 C   0  0  0  0  0  0  0  0  0  0  0  0
    1.8620    3.4340   23.2250 N   0  0  0  0  0  0  0  0  0  0  0  0
    0.6320    3.5350   23.9070 C   0  0  0  0  0  0  0  0  0  0  0  0
    0.3570    4.8130   24.4090 C   0  0  0  0  0  0  0  0  0  0  0  0
   -0.8490    4.8500   25.1340 C   0  0  0  0  0  0  0  0  0  0  0  0
   -1.9400    4.5000   24.3600 C   0  0  0  0  0  0  0  0  0  0  0  0
   -1.7690    3.3350   23.6360 C   0  0  0  0  0  0  0  0  0  0  0  0
   -0.4810    3.0050   23.2150 C   0  0  0  0  0  0  0  0  0  0  0  0
  1  2  1  0
  2  3  2  0
  2  4  1  0
  4  5  1  0
  5  6  2  0
  6  7  1  0
  7  8  2  0
  8  9  1  0
  5 10  1  0
  9 10  2  0
 10 11  1  0
 11 12  1  0
 12 13  1  0
 13 14  1  0
 14 15  2  3
 15 16  1  0
 16 17  1  0
 17 18  1  0
 18 19  1  0
 19 20  1  0
 20 21  1  0
 17 22  1  0
 21 22  1  0
M  END
