MAK-UNK-3e0761f8-4-nitrile
     RDKit          3D

 23 25  0  0  0  0  0  0  0  0999 V2000
    7.8190   -3.5820   19.7760 C   0  0  0  0  0  0  0  0  0  0  0  0
    6.6540   -3.6390   19.2130 N   0  0  0  0  0  0  0  0  0  0  0  0
    7.8410   -3.0310   21.0230 N   0  0  0  0  0  0  0  0  0  0  0  0
    7.9270   -1.7000   21.2620 C   0  0  0  0  0  0  0  0  0  0  0  0
    8.8520   -1.5530   22.4640 C   0  0  2  0  0  0  0  0  0  0  0  0
    9.6100   -2.7850   22.1360 C   0  0  0  0  0  0  0  0  0  0  0  0
    8.3250   -3.5510   22.1780 C   0  0  1  0  0  0  0  0  0  0  0  0
    7.7100   -3.1640   23.3750 C   0  0  0  0  0  0  0  0  0  0  0  0
    8.2820   -1.8880   23.6720 N   0  0  0  0  0  0  0  0  0  0  0  0
    9.2110   -1.8920   24.7490 C   0  0  1  0  0  0  0  0  0  0  0  0
    9.3780   -3.1260   25.3910 C   0  0  0  0  0  0  0  0  0  0  0  0
    8.3940   -3.6070   26.2030 N   0  0  0  0  0  0  0  0  0  0  0  0
    8.6750   -5.0550   27.0420 S   0  0  0  0  0  0  0  0  0  0  0  0
    9.7150   -5.9540   26.0310 C   0  0  0  0  0  0  0  0  0  0  0  0
    9.3820   -4.7230   28.2480 O   0  0  0  0  0  0  0  0  0  0  0  0
    7.3850   -5.7180   27.0910 O   0  0  0  0  0  0  0  0  0  0  0  0
   10.3220   -1.1680   24.2180 C   0  0  0  0  0  0  0  0  0  0  0  0
   10.6590    0.1310   24.5620 C   0  0  0  0  0  0  0  0  0  0  0  0
   11.7560    0.7110   23.9540 C   0  0  0  0  0  0  0  0  0  0  0  0
   12.5420    0.0840   23.0240 C   0  0  0  0  0  0  0  0  0  0  0  0
   12.3170   -1.2060   22.5880 C   0  0  0  0  0  0  0  0  0  0  0  0
   13.1390   -1.7710   21.6410 C   0  0  0  0  0  0  0  0  0  0  0  0
   11.1460   -1.8140   23.2530 C   0  0  0  0  0  0  0  0  0  0  0  0
  1  2  2  3
  1  3  1  0
  3  4  1  0
  5  4  1  6
  5  6  1  0
  3  7  1  0
  6  7  1  0
  7  8  1  1
  5  9  1  0
  8  9  1  0
  9 10  1  0
 10 11  1  6
 11 12  1  0
 13 12  1  0
 13 14  1  0
 13 15  2  0
 13 16  2  0
 10 17  1  0
 17 18  2  0
 18 19  1  0
 19 20  2  0
 20 21  1  0
 21 22  1  0
 17 23  1  0
 21 23  2  0
M  END
