MAK-UNK-516d8086-2-vinylsulfonamide
     RDKit          3D

 23 25  0  0  0  0  0  0  0  0999 V2000
    7.5200   -3.6140   20.1100 C   0  0  0  0  0  0  0  0  0  0  0  0
    6.8270   -4.6250   21.0680 C   0  0  0  0  0  0  0  0  0  0  0  0
    5.9430   -3.9300   22.4530 S   0  0  0  0  0  0  0  0  0  0  0  0
    4.6890   -3.4240   21.9220 O   0  0  0  0  0  0  0  0  0  0  0  0
    5.8690   -4.9870   23.4410 O   0  0  0  0  0  0  0  0  0  0  0  0
    6.9290   -2.5530   23.2540 C   0  0  0  0  0  0  0  0  0  0  0  0
    6.5420   -1.9700   24.6140 C   0  0  0  0  0  0  0  0  0  0  0  0
    7.1780   -0.9800   25.3080 N   0  0  0  0  0  0  0  0  0  0  0  0
    8.2950   -0.4230   24.7530 C   0  0  0  0  0  0  0  0  0  0  0  0
    9.0980    0.6570   25.3810 N   0  0  0  0  0  0  0  0  0  0  0  0
    8.8440   -0.8670   23.3910 C   0  0  0  0  0  0  0  0  0  0  0  0
   10.1010   -0.2240   22.7690 C   0  0  0  0  0  0  0  0  0  0  0  0
   11.3110   -0.2420   23.7350 C   0  0  0  0  0  0  0  0  0  0  0  0
   12.3990   -0.9950   24.5810 C   0  0  0  0  0  0  0  0  0  0  0  0
   12.7640   -2.4100   24.8190 C   0  0  0  0  0  0  0  0  0  0  0  0
   11.6190   -2.9930   23.9310 C   0  0  0  0  0  0  0  0  0  0  0  0
   10.5390   -2.5150   23.1510 C   0  0  0  0  0  0  0  0  0  0  0  0
   11.2990   -1.5820   23.7220 C   0  0  0  0  0  0  0  0  0  0  0  0
   10.2150   -3.7090   22.9510 C   0  0  0  0  0  0  0  0  0  0  0  0
    9.6540   -4.7050   23.3480 O   0  0  0  0  0  0  0  0  0  0  0  0
   10.0120   -2.7830   23.9470 N   0  0  0  0  0  0  0  0  0  0  0  0
   11.1220   -1.8300   23.7680 C   0  0  0  0  0  0  0  0  0  0  0  0
    8.1540   -1.9780   22.5750 C   0  0  0  0  0  0  0  0  0  0  0  0
  1  2  1  0
  3  2  1  0
  3  4  2  0
  3  5  2  0
  3  6  1  0
  6  7  2  0
  7  8  1  0
  8  9  2  0
  9 10  1  0
  9 11  1  0
 11 12  1  0
 12 13  1  0
 13 14  2  0
 14 15  1  0
 15 16  2  0
 16 17  1  0
 13 18  1  0
 17 18  2  0
 17 19  1  0
 19 20  2  0
 19 21  1  0
 16 22  1  0
 21 22  1  0
  6 23  1  0
 11 23  2  0
M  END
