MAK-UNK-b1d4dcd7-4
     RDKit          3D

 29 32  0  0  0  0  0  0  0  0999 V2000
    5.3160   -3.9540   20.0390 O   0  0  0  0  0  0  0  0  0  0  0  0
    5.4490   -2.8750   20.6620 C   0  0  0  0  0  0  0  0  0  0  0  0
    5.1530   -1.4980   20.0490 C   0  0  0  0  0  0  0  0  0  0  0  0
    6.2190   -0.9420   19.1540 C   0  0  2  0  0  0  0  0  0  0  0  0
    7.1440   -1.8760   18.8610 C   0  0  2  0  0  0  0  0  0  0  0  0
    6.7600   -2.8440   18.2220 O   0  0  0  0  0  0  0  0  0  0  0  0
    7.6640   -2.3820   20.0290 C   0  0  0  0  0  0  0  0  0  0  0  0
    8.0380   -1.3720   20.9180 C   0  0  0  0  0  0  0  0  0  0  0  0
    7.4380   -0.1020   20.8180 C   0  0  0  0  0  0  0  0  0  0  0  0
    6.7440    0.2030   19.6480 N   0  0  0  0  0  0  0  0  0  0  0  0
    5.8220    1.3430   19.5980 C   0  0  0  0  0  0  0  0  0  0  0  0
    6.1760    2.4070   20.6690 C   0  0  0  0  0  0  0  0  0  0  0  0
    5.0690    3.4370   20.9080 C   0  0  0  0  0  0  0  0  0  0  0  0
    5.2310    4.5690   21.9180 C   0  0  0  0  0  0  0  0  0  0  0  0
    6.5500    4.6350   22.6850 C   0  0  0  0  0  0  0  0  0  0  0  0
    7.6420    3.5890   22.4260 C   0  0  0  0  0  0  0  0  0  0  0  0
    7.3950    2.4770   21.3860 C   0  0  0  0  0  0  0  0  0  0  0  0
    5.8840   -2.8710   21.9800 N   0  0  0  0  0  0  0  0  0  0  0  0
    6.3430   -4.1080   22.6030 C   0  0  0  0  0  0  0  0  0  0  0  0
    7.1440   -3.9660   23.7460 C   0  0  0  0  0  0  0  0  0  0  0  0
    7.8270   -2.8030   23.8270 N   0  0  0  0  0  0  0  0  0  0  0  0
    9.1130   -2.9260   23.3770 C   0  0  0  0  0  0  0  0  0  0  0  0
    9.9630   -1.8140   23.5050 C   0  0  0  0  0  0  0  0  0  0  0  0
   11.0630   -1.6180   22.6770 C   0  0  0  0  0  0  0  0  0  0  0  0
   11.7870   -0.4870   22.9460 C   0  0  0  0  0  0  0  0  0  0  0  0
   11.2780    0.2560   24.0020 C   0  0  0  0  0  0  0  0  0  0  0  0
    9.8650   -0.5130   24.6480 S   0  0  0  0  0  0  0  0  0  0  0  0
    7.2650   -1.5810   23.5550 C   0  0  0  0  0  0  0  0  0  0  0  0
    6.0280   -1.6820   22.8570 C   0  0  0  0  0  0  0  0  0  0  0  0
  1  2  2  0
  2  3  1  0
  4  3  1  1
  4  5  1  0
  5  6  1  1
  5  7  1  0
  7  8  1  0
  8  9  1  0
  4 10  1  0
  9 10  1  0
 10 11  1  0
 11 12  1  0
 12 13  2  0
 13 14  1  0
 14 15  2  0
 15 16  1  0
 12 17  1  0
 16 17  2  0
  2 18  1  0
 18 19  1  0
 19 20  1  0
 20 21  1  0
 21 22  1  0
 22 23  1  0
 23 24  2  0
 24 25  1  0
 25 26  2  0
 23 27  1  0
 26 27  1  0
 21 28  1  0
 18 29  1  0
 28 29  1  0
M  END
