MAK-UNK-148caf23-8-nitrile
     RDKit          3D

 34 37  0  0  0  0  0  0  0  0999 V2000
    8.2570   -3.2560   19.8260 C   0  0  0  0  0  0  0  0  0  0  0  0
    8.0060   -2.7920   18.5470 N   0  0  0  0  0  0  0  0  0  0  0  0
    8.9810   -2.4240   21.2090 C   0  0  0  0  0  0  0  0  0  0  0  0
    8.0420   -2.0020   22.2220 C   0  0  0  0  0  0  0  0  0  0  0  0
    9.1450   -1.5610   22.7950 C   0  0  0  0  0  0  0  0  0  0  0  0
   10.0950   -1.0430   23.5540 C   0  0  0  0  0  0  0  0  0  0  0  0
   10.0990   -0.3930   24.8260 N   0  0  0  0  0  0  0  0  0  0  0  0
    9.0360   -0.7670   25.7930 C   0  0  0  0  0  0  0  0  0  0  0  0
    8.8700    0.1640   26.9940 C   0  0  0  0  0  0  0  0  0  0  0  0
    7.9320   -0.0640   27.9360 N   0  0  0  0  0  0  0  0  0  0  0  0
    7.3560    1.0450   28.4520 C   0  0  0  0  0  0  0  0  0  0  0  0
    8.1240    1.8630   29.4880 C   0  0  0  0  0  0  0  0  0  0  0  0
    8.1020    3.3720   29.4100 C   0  0  0  0  0  0  0  0  0  0  0  0
    8.9390    3.7960   30.5430 C   0  0  0  0  0  0  0  0  0  0  0  0
    9.2460    5.1150   30.9060 C   0  0  0  0  0  0  0  0  0  0  0  0
   10.5320    5.6390   30.3040 C   0  0  0  0  0  0  0  0  0  0  0  0
   11.0240    6.9940   30.5560 C   0  0  0  0  0  0  0  0  0  0  0  0
   10.1130    7.8410   31.4940 C   0  0  0  0  0  0  0  0  0  0  0  0
    8.8300    7.2060   32.0470 C   0  0  0  0  0  0  0  0  0  0  0  0
    8.4370    5.8730   31.7380 C   0  0  0  0  0  0  0  0  0  0  0  0
    7.2980    5.3830   32.2560 F   0  0  0  0  0  0  0  0  0  0  0  0
    9.4410    2.6920   31.2770 N   0  0  0  0  0  0  0  0  0  0  0  0
   10.4240    2.6050   32.6490 S   0  0  0  0  0  0  0  0  0  0  0  0
   11.0580    1.3030   32.5950 O   0  0  0  0  0  0  0  0  0  0  0  0
    9.5650    2.9460   33.7620 O   0  0  0  0  0  0  0  0  0  0  0  0
   11.6710    3.8450   32.5540 C   0  0  0  0  0  0  0  0  0  0  0  0
   12.2820    4.1760   31.3520 C   0  0  0  0  0  0  0  0  0  0  0  0
   13.2450    5.1540   31.4050 C   0  0  0  0  0  0  0  0  0  0  0  0
   13.5890    5.8130   32.7510 C   0  0  0  0  0  0  0  0  0  0  0  0
   12.9700    5.4590   33.8850 N   0  0  0  0  0  0  0  0  0  0  0  0
   12.0140    4.4700   33.7560 C   0  0  0  0  0  0  0  0  0  0  0  0
    8.9390    1.5450   30.6230 C   0  0  0  0  0  0  0  0  0  0  0  0
   11.0740   -1.3290   22.7520 N   0  0  0  0  0  0  0  0  0  0  0  0
   10.4840   -2.0270   21.5940 C   0  0  0  0  0  0  0  0  0  0  0  0
  1  2  2  3
  1  3  1  0
  3  4  2  0
  4  5  1  0
  5  6  2  0
  6  7  1  0
  7  8  1  0
  8  9  1  0
  9 10  1  0
 10 11  1  0
 11 12  1  0
 12 13  1  0
 13 14  2  0
 14 15  1  0
 15 16  2  0
 16 17  1  0
 17 18  2  0
 18 19  1  0
 15 20  1  0
 19 20  2  0
 20 21  1  0
 14 22  1  0
 22 23  1  0
 23 24  2  0
 23 25  2  0
 23 26  1  0
 26 27  2  0
 27 28  1  0
 28 29  2  0
 29 30  1  0
 26 31  1  0
 30 31  2  0
 12 32  2  0
 22 32  1  0
  6 33  1  0
  3 34  1  0
 33 34  2  0
M  END
