MAK-UNK-148caf23-21-acrylamide
     RDKit          3D

 36 39  0  0  0  0  0  0  0  0999 V2000
    8.9250   -3.0900   20.0570 C   0  0  0  0  0  0  0  0  0  0  0  0
    8.2110   -3.8630   21.0900 C   0  0  0  0  0  0  0  0  0  0  0  0
    6.7440   -3.8180   21.2970 C   0  0  0  0  0  0  0  0  0  0  0  0
    5.2300   -3.7700   21.5120 O   0  0  0  0  0  0  0  0  0  0  0  0
    7.4230   -2.7670   22.4360 C   0  0  0  0  0  0  0  0  0  0  0  0
    6.8650   -1.8990   23.5120 C   0  0  0  0  0  0  0  0  0  0  0  0
    7.4300   -1.1880   24.3480 C   0  0  0  0  0  0  0  0  0  0  0  0
    8.8400   -0.8530   24.6570 C   0  0  0  0  0  0  0  0  0  0  0  0
    8.2600    0.0260   25.8870 N   0  0  0  0  0  0  0  0  0  0  0  0
    6.8910    0.7370   26.0820 C   0  0  0  0  0  0  0  0  0  0  0  0
    6.8310    0.7770   24.6250 C   0  0  0  0  0  0  0  0  0  0  0  0
    5.9190   -0.1000   25.3390 C   0  0  0  0  0  0  0  0  0  0  0  0
    6.0770    0.3460   26.7330 C   0  0  0  0  0  0  0  0  0  0  0  0
    6.8930    1.5010   27.2760 C   0  0  0  0  0  0  0  0  0  0  0  0
    6.7250    1.8580   28.6930 C   0  0  0  0  0  0  0  0  0  0  0  0
    7.2840    3.0790   29.1580 C   0  0  0  0  0  0  0  0  0  0  0  0
    6.9190    3.2000   30.5760 C   0  0  0  0  0  0  0  0  0  0  0  0
    7.1450    4.1910   31.3010 C   0  0  0  0  0  0  0  0  0  0  0  0
    5.9470    4.9230   31.7830 N   0  0  0  0  0  0  0  0  0  0  0  0
    5.2560    4.8380   33.0880 C   0  0  0  0  0  0  0  0  0  0  0  0
    6.2650    1.9180   30.7560 C   0  0  0  0  0  0  0  0  0  0  0  0
    6.2120    1.1810   29.5670 N   0  0  0  0  0  0  0  0  0  0  0  0
    5.3810   -0.2720   29.8150 S   0  0  0  0  0  0  0  0  0  0  0  0
    5.3520   -0.8540   28.6490 O   0  0  0  0  0  0  0  0  0  0  0  0
    5.8750   -1.1190   31.0870 O   0  0  0  0  0  0  0  0  0  0  0  0
    3.7820    0.4370   30.1710 C   0  0  0  0  0  0  0  0  0  0  0  0
    3.5350    1.0660   31.4360 C   0  0  0  0  0  0  0  0  0  0  0  0
    2.3920    1.6450   31.6230 C   0  0  0  0  0  0  0  0  0  0  0  0
    1.3680    1.6230   30.5210 C   0  0  0  0  0  0  0  0  0  0  0  0
    1.5580    1.0300   29.3330 N   0  0  0  0  0  0  0  0  0  0  0  0
    2.7880    0.3930   29.2080 C   0  0  0  0  0  0  0  0  0  0  0  0
    7.8560    2.2490   26.2360 C   0  0  0  0  0  0  0  0  0  0  0  0
    8.4830    3.1290   27.0670 F   0  0  0  0  0  0  0  0  0  0  0  0
    7.3170    1.4910   25.5150 C   0  0  0  0  0  0  0  0  0  0  0  0
    9.2860   -1.5290   23.7120 N   0  0  0  0  0  0  0  0  0  0  0  0
    8.8330   -2.4390   22.7080 C   0  0  0  0  0  0  0  0  0  0  0  0
  1  2  1  0
  2  3  1  0
  3  4  2  0
  3  5  1  0
  5  6  2  0
  6  7  1  0
  7  8  2  0
  8  9  1  0
  9 10  1  0
 10 11  1  0
 11 12  2  0
 12 13  1  0
 13 14  2  0
 14 15  1  0
 15 16  2  0
 16 17  1  0
 17 18  1  0
 18 19  1  0
 19 20  1  0
 17 21  2  0
 15 22  1  0
 21 22  1  0
 22 23  1  0
 23 24  2  0
 23 25  2  0
 23 26  1  0
 26 27  2  0
 27 28  1  0
 28 29  2  0
 29 30  1  0
 26 31  1  0
 30 31  2  0
 14 32  1  0
 32 33  1  0
 11 34  1  0
 32 34  2  0
  8 35  1  0
  5 36  1  0
 35 36  2  0
M  END
