MAK-UNK-c97f7c8f-2-nitrile
     RDKit          3D

 19 20  0  0  0  0  0  0  0  0999 V2000
    6.7680   -4.0470   20.1550 C   0  0  0  0  0  0  0  0  0  0  0  0
    5.6010   -3.9370   19.6540 N   0  0  0  0  0  0  0  0  0  0  0  0
    7.0220   -4.1510   21.4830 N   0  0  0  0  0  0  0  0  0  0  0  0
    6.5710   -5.1980   22.1850 C   0  0  0  0  0  0  0  0  0  0  0  0
    5.9450   -4.8710   23.5410 C   0  0  0  0  0  0  0  0  0  0  0  0
    6.0300   -3.3620   23.7560 C   0  0  0  0  0  0  0  0  0  0  0  0
    5.7730   -3.0280   25.2050 C   0  0  0  0  0  0  0  0  0  0  0  0
    4.6590   -3.2860   25.6310 O   0  0  0  0  0  0  0  0  0  0  0  0
    6.7790   -2.4550   26.0030 N   0  0  0  0  0  0  0  0  0  0  0  0
    6.6990   -1.3650   26.8600 C   0  0  0  0  0  0  0  0  0  0  0  0
    6.0330   -0.2230   26.5030 C   0  0  0  0  0  0  0  0  0  0  0  0
    5.9700    0.8670   27.3610 C   0  0  0  0  0  0  0  0  0  0  0  0
    6.6030    0.8010   28.6180 C   0  0  0  0  0  0  0  0  0  0  0  0
    6.5560    1.8950   29.4820 C   0  0  0  0  0  0  0  0  0  0  0  0
    7.6520    2.7570   29.3500 C   0  0  0  0  0  0  0  0  0  0  0  0
    7.2450   -0.4170   28.8690 C   0  0  0  0  0  0  0  0  0  0  0  0
    7.3140   -1.4480   28.0880 N   0  0  0  0  0  0  0  0  0  0  0  0
    7.2060   -2.7430   23.3070 C   0  0  0  0  0  0  0  0  0  0  0  0
    7.8080   -3.2560   22.1640 C   0  0  0  0  0  0  0  0  0  0  0  0
  1  2  2  3
  1  3  1  0
  3  4  1  0
  4  5  1  0
  5  6  1  0
  6  7  1  0
  7  8  2  0
  7  9  1  0
  9 10  1  0
 10 11  2  0
 11 12  1  0
 12 13  2  0
 13 14  1  0
 14 15  1  0
 13 16  1  0
 10 17  1  0
 16 17  2  0
  6 18  1  0
  3 19  1  0
 18 19  1  0
M  END
