MAK-UNK-ec98eaf6-32-chloroacetamide
     RDKit          3D

 18 20  0  0  0  0  0  0  0  0999 V2000
    7.1260   -3.0130   18.8670 C   0  0  0  0  0  0  0  0  0  0  0  0
    6.1780   -3.3540   19.9870 C   0  0  0  0  0  0  0  0  0  0  0  0
    5.3850   -4.2890   19.8270 O   0  0  0  0  0  0  0  0  0  0  0  0
    6.2380   -2.6040   21.1470 N   0  0  0  0  0  0  0  0  0  0  0  0
    6.7700   -1.2520   21.2160 C   0  0  0  0  0  0  0  0  0  0  0  0
    8.1170   -1.5070   21.9010 C   0  0  1  0  0  0  0  0  0  0  0  0
    6.9770   -1.6180   22.9680 C   0  0  0  0  0  0  0  0  0  0  0  0
    6.2900   -2.9340   22.5580 C   0  0  2  0  0  0  0  0  0  0  0  0
    7.5010   -3.7170   23.0170 C   0  0  0  0  0  0  0  0  0  0  0  0
    8.6480   -2.7030   22.7540 C   0  0  2  0  0  0  0  0  0  0  0  0
    9.2650   -2.3200   24.0540 N   0  0  0  0  0  0  0  0  0  0  0  0
   10.4490   -1.5030   23.7560 C   0  0  0  0  0  0  0  0  0  0  0  0
   10.7340   -0.2390   24.5010 C   0  0  0  0  0  0  0  0  0  0  0  0
   11.8770    0.4840   24.1290 C   0  0  0  0  0  0  0  0  0  0  0  0
   12.7170    0.0300   23.1040 C   0  0  0  0  0  0  0  0  0  0  0  0
   12.4240   -1.1600   22.4280 C   0  0  0  0  0  0  0  0  0  0  0  0
   13.2010   -1.6560   21.4090 C   0  0  0  0  0  0  0  0  0  0  0  0
   11.3090   -1.9010   22.7590 C   0  0  0  0  0  0  0  0  0  0  0  0
  1  2  1  0
  2  3  2  0
  2  4  1  0
  4  5  1  0
  6  5  1  6
  6  7  1  0
  4  8  1  0
  7  8  1  0
  8  9  1  6
  6 10  1  0
  9 10  1  0
 10 11  1  1
 11 12  1  0
 12 13  2  0
 13 14  1  0
 14 15  2  0
 15 16  1  0
 16 17  1  0
 12 18  1  0
 16 18  2  0
M  END
