MAK-UNK-af83ef51-28-nitrile
     RDKit          3D

 29 32  0  0  0  0  0  0  0  0999 V2000
    6.4510   -3.9930   19.8670 C   0  0  0  0  0  0  0  0  0  0  0  0
    5.2140   -3.9550   19.6420 N   0  0  0  0  0  0  0  0  0  0  0  0
    7.2620   -2.9630   20.1810 N   0  0  0  0  0  0  0  0  0  0  0  0
    7.9280   -2.7710   21.3880 C   0  0  0  0  0  0  0  0  0  0  0  0
    7.4140   -1.9130   22.3540 C   0  0  0  0  0  0  0  0  0  0  0  0
    6.5820   -0.8070   21.8370 N   0  0  0  0  0  0  0  0  0  0  0  0
    6.4920    0.3600   22.7970 C   0  0  0  0  0  0  0  0  0  0  0  0
    6.8580   -0.1210   24.0520 C   0  0  0  0  0  0  0  0  0  0  0  0
    7.7870    0.7360   23.6400 C   0  0  0  0  0  0  0  0  0  0  0  0
    8.9890    1.2020   24.1250 C   0  0  0  0  0  0  0  0  0  0  0  0
    9.4710    0.8180   25.1860 O   0  0  0  0  0  0  0  0  0  0  0  0
    9.1050   -0.4750   25.4180 C   0  0  0  0  0  0  0  0  0  0  0  0
    9.3830   -1.5810   24.4150 C   0  0  0  0  0  0  0  0  0  0  0  0
    8.9550   -2.9710   24.6730 C   0  0  0  0  0  0  0  0  0  0  0  0
    8.2310   -3.2390   25.9740 C   0  0  0  0  0  0  0  0  0  0  0  0
    7.8060   -4.6080   26.2230 N   0  0  0  0  0  0  0  0  0  0  0  0
    8.6090   -5.6100   26.6990 C   0  0  0  0  0  0  0  0  0  0  0  0
    8.7210   -5.4640   28.1060 C   0  0  0  0  0  0  0  0  0  0  0  0
    7.9910   -2.1880   26.9050 N   0  0  0  0  0  0  0  0  0  0  0  0
    8.4340   -0.8690   26.5860 C   0  0  0  0  0  0  0  0  0  0  0  0
    9.5390    2.1320   23.2390 N   0  0  0  0  0  0  0  0  0  0  0  0
    8.9030    2.5590   21.9380 N   0  0  0  0  0  0  0  0  0  0  0  0
    7.6930    2.0570   21.4960 C   0  0  0  0  0  0  0  0  0  0  0  0
    7.1350    1.0740   22.4590 C   0  0  0  0  0  0  0  0  0  0  0  0
    5.7820    0.2490   22.3810 C   0  0  0  0  0  0  0  0  0  0  0  0
    5.6820   -0.5680   23.5510 N   0  0  0  0  0  0  0  0  0  0  0  0
    4.6400   -1.4930   23.9550 C   0  0  0  0  0  0  0  0  0  0  0  0
    6.9910   -0.4770   20.4450 C   0  0  0  0  0  0  0  0  0  0  0  0
    7.0450   -1.6890   19.4730 C   0  0  0  0  0  0  0  0  0  0  0  0
  1  2  2  3
  1  3  1  0
  3  4  1  0
  4  5  1  0
  5  6  1  0
  6  7  1  0
  7  8  1  0
  8  9  2  0
  9 10  1  0
 10 11  1  0
 11 12  1  0
 12 13  2  0
 13 14  1  0
 14 15  2  0
 15 16  1  0
 16 17  1  0
 17 18  1  0
 15 19  1  0
 12 20  1  0
 19 20  2  0
 10 21  2  0
 21 22  1  0
 22 23  2  0
  9 24  1  0
 23 24  1  0
 24 25  2  0
  8 26  1  0
 25 26  1  0
 26 27  1  0
  6 28  1  0
  3 29  1  0
 28 29  1  0
M  END
