MAK-UNK-ec98eaf6-12-vinylsulfonamide
     RDKit          3D

 25 28  0  0  0  0  0  0  0  0999 V2000
    7.6010   -3.2300   19.3660 C   0  0  0  0  0  0  0  0  0  0  0  0
    6.2240   -2.5930   19.2340 C   0  0  0  0  0  0  0  0  0  0  0  0
    5.5440   -2.0530   20.7840 S   0  0  0  0  0  0  0  0  0  0  0  0
    4.8690   -3.2090   21.4470 O   0  0  0  0  0  0  0  0  0  0  0  0
    4.7220   -0.9210   20.4240 O   0  0  0  0  0  0  0  0  0  0  0  0
    6.8740   -1.2190   21.5180 N   0  0  0  0  0  0  0  0  0  0  0  0
    7.7790   -0.5100   20.5340 C   0  0  0  0  0  0  0  0  0  0  0  0
    9.0680   -0.7050   21.3110 C   0  0  2  0  0  0  0  0  0  0  0  0
    8.8660   -2.0950   21.9310 C   0  0  0  0  0  0  0  0  0  0  0  0
    7.7010   -1.7150   22.7330 C   0  0  1  0  0  0  0  0  0  0  0  0
    8.6100   -0.7080   23.4610 C   0  0  2  0  0  0  0  0  0  0  0  0
    8.8790    0.3310   22.4480 C   0  0  0  0  0  0  0  0  0  0  0  0
    9.9420   -1.3720   23.5860 C   0  0  0  0  0  0  0  0  0  0  0  0
    9.3940   -2.3310   24.5820 C   0  0  1  0  0  0  0  0  0  0  0  0
   10.3380   -3.4970   24.4730 C   0  0  0  0  0  0  0  0  0  0  0  0
   11.4010   -3.2160   23.6690 N   0  0  0  0  0  0  0  0  0  0  0  0
   10.1370   -4.5820   25.0330 O   0  0  0  0  0  0  0  0  0  0  0  0
    9.1050   -1.4690   25.7650 C   0  0  2  0  0  0  0  0  0  0  0  0
    8.1850   -2.0770   26.7940 C   0  0  0  0  0  0  0  0  0  0  0  0
    7.7200   -3.4900   26.6090 C   0  0  0  0  0  0  0  0  0  0  0  0
    6.7980   -4.1770   27.6010 C   0  0  0  0  0  0  0  0  0  0  0  0
    6.3540   -3.3590   28.8150 C   0  0  0  0  0  0  0  0  0  0  0  0
    6.8390   -1.9070   28.9980 C   0  0  0  0  0  0  0  0  0  0  0  0
    7.7690   -1.3390   27.9190 C   0  0  0  0  0  0  0  0  0  0  0  0
    8.3800   -0.3290   24.9630 C   0  0  0  0  0  0  0  0  0  0  0  0
  1  2  1  0
  3  2  1  0
  3  4  2  0
  3  5  2  0
  3  6  1  0
  6  7  1  0
  8  7  1  6
  8  9  1  0
 10  6  1  6
  9 10  1  0
 10 11  1  0
  8 12  1  0
 11 12  1  6
 11 13  1  0
 13 14  1  0
 14 15  1  1
 15 16  1  0
 15 17  2  0
 14 18  1  0
 18 19  1  1
 19 20  2  0
 20 21  1  0
 21 22  2  0
 22 23  1  0
 19 24  1  0
 23 24  2  0
 11 25  1  0
 18 25  1  0
M  END
