MAK-UNK-148caf23-23-vinylsulfonamide
     RDKit          3D

 37 40  0  0  0  0  0  0  0  0999 V2000
    7.5230   -5.2050   21.3160 C   0  0  0  0  0  0  0  0  0  0  0  0
    6.4030   -4.7310   22.2170 C   0  0  0  0  0  0  0  0  0  0  0  0
    6.2920   -2.9730   22.1820 S   0  0  0  0  0  0  0  0  0  0  0  0
    5.0040   -3.2030   21.2090 O   0  0  0  0  0  0  0  0  0  0  0  0
    6.0170   -2.5460   23.5270 O   0  0  0  0  0  0  0  0  0  0  0  0
    8.1210   -2.2780   21.7630 C   0  0  0  0  0  0  0  0  0  0  0  0
    8.8770   -1.5940   22.9900 C   0  0  0  0  0  0  0  0  0  0  0  0
    7.6620   -1.9380   23.7240 C   0  0  0  0  0  0  0  0  0  0  0  0
    8.9540   -1.2000   24.1530 C   0  0  0  0  0  0  0  0  0  0  0  0
    9.2150   -0.6860   25.4050 N   0  0  0  0  0  0  0  0  0  0  0  0
    8.1310   -0.6670   26.4040 C   0  0  0  0  0  0  0  0  0  0  0  0
    7.7340   -2.0660   26.9430 C   0  0  0  0  0  0  0  0  0  0  0  0
    8.7790   -3.1610   27.1500 C   0  0  0  0  0  0  0  0  0  0  0  0
    8.4350   -4.4250   27.6480 C   0  0  0  0  0  0  0  0  0  0  0  0
    7.1110   -4.6990   27.9600 C   0  0  0  0  0  0  0  0  0  0  0  0
    6.1230   -3.7260   27.7770 C   0  0  0  0  0  0  0  0  0  0  0  0
    4.8610   -4.0640   28.0920 F   0  0  0  0  0  0  0  0  0  0  0  0
    6.4040   -2.4350   27.2820 C   0  0  0  0  0  0  0  0  0  0  0  0
    5.3310   -1.5430   27.1300 C   0  0  0  0  0  0  0  0  0  0  0  0
    4.8940   -0.9650   25.9420 C   0  0  0  0  0  0  0  0  0  0  0  0
    3.7760   -0.1060   26.1180 C   0  0  0  0  0  0  0  0  0  0  0  0
    3.1320    0.6050   25.1060 C   0  0  0  0  0  0  0  0  0  0  0  0
    1.7410    0.8080   25.5020 N   0  0  0  0  0  0  0  0  0  0  0  0
    0.8640    0.7450   24.3420 C   0  0  0  0  0  0  0  0  0  0  0  0
    3.5080   -0.1620   27.5230 C   0  0  0  0  0  0  0  0  0  0  0  0
    4.4820   -1.0650   28.1630 N   0  0  0  0  0  0  0  0  0  0  0  0
    4.4760   -1.3910   29.8440 S   0  0  0  0  0  0  0  0  0  0  0  0
    4.5600   -2.8320   29.9700 O   0  0  0  0  0  0  0  0  0  0  0  0
    3.3760   -0.6420   30.4090 O   0  0  0  0  0  0  0  0  0  0  0  0
    5.9500   -0.6650   30.4490 C   0  0  0  0  0  0  0  0  0  0  0  0
    7.2770   -0.8910   29.8290 C   0  0  0  0  0  0  0  0  0  0  0  0
    8.4460   -0.1920   30.4710 C   0  0  0  0  0  0  0  0  0  0  0  0
    8.2120    0.6060   31.5860 C   0  0  0  0  0  0  0  0  0  0  0  0
    6.9770    0.7890   32.1290 N   0  0  0  0  0  0  0  0  0  0  0  0
    5.8920    0.1670   31.5660 C   0  0  0  0  0  0  0  0  0  0  0  0
    9.8900   -1.0710   23.1580 N   0  0  0  0  0  0  0  0  0  0  0  0
    9.4560   -1.6410   21.9060 C   0  0  0  0  0  0  0  0  0  0  0  0
  1  2  1  0
  3  2  1  0
  3  4  2  0
  3  5  2  0
  3  6  1  0
  6  7  2  0
  7  8  1  0
  8  9  2  0
  9 10  1  0
 10 11  1  0
 11 12  1  0
 12 13  2  0
 13 14  1  0
 14 15  2  0
 15 16  1  0
 16 17  1  0
 12 18  1  0
 16 18  2  0
 18 19  1  0
 19 20  2  0
 20 21  1  0
 21 22  1  0
 22 23  1  0
 23 24  1  0
 21 25  2  0
 19 26  1  0
 25 26  1  0
 26 27  1  0
 27 28  2  0
 27 29  2  0
 27 30  1  0
 30 31  2  0
 31 32  1  0
 32 33  2  0
 33 34  1  0
 30 35  1  0
 34 35  2  0
  9 36  1  0
  6 37  1  0
 36 37  2  0
M  END
