MAK-UNK-ec98eaf6-37-chloroacetamide
     RDKit          3D

 22 24  0  0  0  0  0  0  0  0999 V2000
    7.1290   -2.9810   18.8430 C   0  0  0  0  0  0  0  0  0  0  0  0
    6.2000   -3.3390   19.9750 C   0  0  0  0  0  0  0  0  0  0  0  0
    5.4020   -4.2710   19.8170 O   0  0  0  0  0  0  0  0  0  0  0  0
    6.2740   -2.6140   21.1490 N   0  0  0  0  0  0  0  0  0  0  0  0
    6.8560   -1.2790   21.2620 C   0  0  0  0  0  0  0  0  0  0  0  0
    8.1850   -1.5720   21.9820 C   0  0  1  0  0  0  0  0  0  0  0  0
    7.0280   -1.7150   23.0190 C   0  0  0  0  0  0  0  0  0  0  0  0
    6.3320   -3.0010   22.5360 C   0  0  2  0  0  0  0  0  0  0  0  0
    7.5370   -3.8370   22.9020 C   0  0  0  0  0  0  0  0  0  0  0  0
    8.6950   -2.7960   22.8120 C   0  0  2  0  0  0  0  0  0  0  0  0
    9.4260   -2.4850   24.1220 C   0  0  0  0  0  0  0  0  0  0  0  0
   10.5510   -1.5160   23.8680 C   0  0  0  0  0  0  0  0  0  0  0  0
   11.4880   -1.8220   22.8760 C   0  0  0  0  0  0  0  0  0  0  0  0
   12.5200   -0.9490   22.6220 C   0  0  0  0  0  0  0  0  0  0  0  0
   13.4450   -1.2450   21.6510 C   0  0  0  0  0  0  0  0  0  0  0  0
   13.0510   -2.4390   20.9510 N   0  0  0  0  0  0  0  0  0  0  0  0
   12.5870    0.2090   23.3610 C   0  0  0  0  0  0  0  0  0  0  0  0
   11.6790    0.4960   24.3140 N   0  0  0  0  0  0  0  0  0  0  0  0
   10.6370   -0.3320   24.6190 C   0  0  0  0  0  0  0  0  0  0  0  0
    9.6650   -0.0180   25.6570 N   0  0  0  0  0  0  0  0  0  0  0  0
    8.7290    0.9830   25.5420 C   0  0  0  0  0  0  0  0  0  0  0  0
    9.1960    2.0130   24.6920 C   0  0  0  0  0  0  0  0  0  0  0  0
  1  2  1  0
  2  3  2  0
  2  4  1  0
  4  5  1  0
  6  5  1  6
  6  7  1  0
  4  8  1  0
  7  8  1  0
  8  9  1  6
  6 10  1  0
  9 10  1  0
 10 11  1  1
 11 12  1  0
 12 13  2  0
 13 14  1  0
 14 15  1  0
 15 16  3  0
 14 17  2  0
 17 18  1  0
 12 19  1  0
 18 19  2  0
 19 20  1  0
 20 21  1  0
 21 22  1  0
M  END
