MAK-UNK-8fdbca50-40-vinylsulfonamide
     RDKit          3D

 41 44  0  0  0  0  0  0  0  0999 V2000
    6.5820   -4.9990   20.3550 C   0  0  0  0  0  0  0  0  0  0  0  0
    5.9920   -5.7770   21.5410 C   0  0  0  0  0  0  0  0  0  0  0  0
    5.4310   -4.7560   22.8750 S   0  0  0  0  0  0  0  0  0  0  0  0
    4.0510   -4.4120   22.6450 O   0  0  0  0  0  0  0  0  0  0  0  0
    5.8740   -5.3330   24.1280 O   0  0  0  0  0  0  0  0  0  0  0  0
    6.2700   -3.3360   22.6020 N   0  0  0  0  0  0  0  0  0  0  0  0
    5.7570   -2.5520   21.4900 C   0  0  0  0  0  0  0  0  0  0  0  0
    6.9290   -1.6230   21.2370 C   0  0  0  0  0  0  0  0  0  0  0  0
    6.3970   -0.5130   22.1500 C   0  0  0  0  0  0  0  0  0  0  0  0
    5.1440    0.0180   21.3770 C   0  0  0  0  0  0  0  0  0  0  0  0
    4.0250    0.1850   21.8670 O   0  0  0  0  0  0  0  0  0  0  0  0
    5.6520    0.2870   19.9590 C   0  0  2  0  0  0  0  0  0  0  0  0
    5.3820   -1.0320   19.1810 C   0  0  0  0  0  0  0  0  0  0  0  0
    7.0320    0.6750   20.2020 N   0  0  0  0  0  0  0  0  0  0  0  0
    7.1460    1.8300   21.0970 C   0  0  0  0  0  0  0  0  0  0  0  0
    8.4850    1.9120   21.7180 C   0  0  0  0  0  0  0  0  0  0  0  0
    9.1580    3.0520   22.0210 C   0  0  0  0  0  0  0  0  0  0  0  0
   10.2560    2.6060   22.5350 C   0  0  0  0  0  0  0  0  0  0  0  0
   10.9390    3.8160   22.8460 C   0  0  0  0  0  0  0  0  0  0  0  0
   10.5150    4.5270   23.9630 C   0  0  0  0  0  0  0  0  0  0  0  0
   11.0850    5.7330   24.3640 C   0  0  0  0  0  0  0  0  0  0  0  0
   12.1140    6.2730   23.6420 C   0  0  0  0  0  0  0  0  0  0  0  0
   12.5950    5.6220   22.4990 C   0  0  0  0  0  0  0  0  0  0  0  0
   12.0120    4.4080   22.1040 C   0  0  0  0  0  0  0  0  0  0  0  0
   12.5010    3.8640   21.0180 F   0  0  0  0  0  0  0  0  0  0  0  0
   10.5940    1.5010   22.7060 N   0  0  0  0  0  0  0  0  0  0  0  0
   11.8900    0.5540   23.3280 S   0  0  0  0  0  0  0  0  0  0  0  0
   12.6630    0.0910   22.2020 O   0  0  0  0  0  0  0  0  0  0  0  0
   12.5020    1.2330   24.4040 O   0  0  0  0  0  0  0  0  0  0  0  0
   11.1110   -0.8460   24.0310 C   0  0  0  0  0  0  0  0  0  0  0  0
   12.2000   -1.2930   23.2880 C   0  0  0  0  0  0  0  0  0  0  0  0
   12.8410   -0.1490   22.7730 C   0  0  0  0  0  0  0  0  0  0  0  0
   12.0270    1.0210   23.2770 C   0  0  0  0  0  0  0  0  0  0  0  0
   11.1010    1.4490   23.9000 N   0  0  0  0  0  0  0  0  0  0  0  0
   10.4640    0.3070   24.4170 C   0  0  0  0  0  0  0  0  0  0  0  0
    9.4160    0.8890   22.1600 C   0  0  0  0  0  0  0  0  0  0  0  0
    4.9240    1.4630   19.2280 C   0  0  0  0  0  0  0  0  0  0  0  0
    5.0830    1.4390   17.7430 C   0  0  0  0  0  0  0  0  0  0  0  0
    3.4460    1.6040   19.6210 C   0  0  0  0  0  0  0  0  0  0  0  0
    6.0050   -1.0870   23.5230 C   0  0  0  0  0  0  0  0  0  0  0  0
    6.5590   -2.4900   23.7540 C   0  0  0  0  0  0  0  0  0  0  0  0
  1  2  1  0
  3  2  1  0
  3  4  2  0
  3  5  2  0
  3  6  1  0
  6  7  1  0
  7  8  1  0
  8  9  1  0
  9 10  1  0
 10 11  2  0
 12 10  1  0
 12 13  1  6
 12 14  1  0
 14 15  1  0
 15 16  1  0
 16 17  1  0
 17 18  2  0
 18 19  1  0
 19 20  2  0
 20 21  1  0
 21 22  2  0
 22 23  1  0
 19 24  1  0
 23 24  2  0
 24 25  1  0
 18 26  1  0
 26 27  1  0
 27 28  2  0
 27 29  2  0
 27 30  1  0
 30 31  2  0
 31 32  1  0
 32 33  2  0
 33 34  1  0
 30 35  1  0
 34 35  2  0
 16 36  2  0
 26 36  1  0
 12 37  1  0
 37 38  1  0
 37 39  1  0
  9 40  1  0
  6 41  1  0
 40 41  1  0
M  END
