MAK-UNK-acefcb18-19
     RDKit          3D

 21 23  0  0  0  0  0  0  0  0999 V2000
   15.4580    2.1620   18.9440 C   0  0  0  0  0  0  0  0  0  0  0  0
   14.8660    1.1880   19.9210 C   0  0  0  0  0  0  0  0  0  0  0  0
   14.4360   -0.2430   19.5250 C   0  0  0  0  0  0  0  0  0  0  0  0
   13.7800   -1.2600   20.5670 C   0  0  0  0  0  0  0  0  0  0  0  0
   13.5590   -0.9220   21.9670 C   0  0  0  0  0  0  0  0  0  0  0  0
   13.0330   -1.7690   22.6600 O   0  0  0  0  0  0  0  0  0  0  0  0
   11.6350   -1.4980   22.8190 C   0  0  1  0  0  0  0  0  0  0  0  0
   10.7360   -2.4760   22.4880 C   0  0  0  0  0  0  0  0  0  0  0  0
    9.4360   -2.1430   22.8750 C   0  0  0  0  0  0  0  0  0  0  0  0
    9.2720   -1.7520   24.3180 C   0  0  1  0  0  0  0  0  0  0  0  0
    8.9840   -2.6830   25.2980 N   0  0  0  0  0  0  0  0  0  0  0  0
   10.0550   -3.6900   25.4750 C   0  0  0  0  0  0  0  0  0  0  0  0
    9.8380   -4.9840   26.2530 C   0  0  0  0  0  0  0  0  0  0  0  0
    8.4720   -5.2070   26.4080 C   0  0  0  0  0  0  0  0  0  0  0  0
    7.8990   -4.7010   27.5250 O   0  0  0  0  0  0  0  0  0  0  0  0
    7.6920   -4.6710   25.3780 C   0  0  0  0  0  0  0  0  0  0  0  0
    7.6430   -3.2690   25.3300 C   0  0  0  0  0  0  0  0  0  0  0  0
   10.2560   -0.8390   24.7900 C   0  0  0  0  0  0  0  0  0  0  0  0
   11.4710   -1.1360   24.1660 C   0  0  0  0  0  0  0  0  0  0  0  0
   13.9670    0.3240   22.3570 C   0  0  0  0  0  0  0  0  0  0  0  0
   14.6260    1.4770   21.4220 C   0  0  0  0  0  0  0  0  0  0  0  0
  1  2  1  0
  2  3  2  0
  3  4  1  0
  4  5  2  0
  5  6  1  0
  7  6  1  1
  7  8  1  0
  8  9  1  0
  9 10  1  0
 10 11  1  1
 11 12  1  0
 12 13  1  0
 13 14  1  0
 14 15  1  0
 14 16  1  0
 11 17  1  0
 16 17  1  0
 10 18  1  0
  7 19  1  0
 18 19  1  0
  5 20  1  0
  2 21  1  0
 20 21  2  0
M  END
