MAK-UNK-8fdbca50-30-acrylamide
     RDKit          3D

 40 43  0  0  0  0  0  0  0  0999 V2000
    8.2000   -3.8390   20.2150 C   0  0  0  0  0  0  0  0  0  0  0  0
    6.9450   -4.5730   20.7320 C   0  0  0  0  0  0  0  0  0  0  0  0
    6.0530   -3.7930   21.6550 C   0  0  0  0  0  0  0  0  0  0  0  0
    5.2980   -3.9570   20.7110 O   0  0  0  0  0  0  0  0  0  0  0  0
    7.1570   -3.8360   22.4490 N   0  0  0  0  0  0  0  0  0  0  0  0
    7.2900   -2.7930   23.4400 C   0  0  0  0  0  0  0  0  0  0  0  0
    8.7920   -2.5070   23.2760 C   0  0  0  0  0  0  0  0  0  0  0  0
    9.3460   -3.5870   24.2030 C   0  0  0  0  0  0  0  0  0  0  0  0
    8.7610   -2.9730   25.4830 C   0  0  0  0  0  0  0  0  0  0  0  0
    8.0620   -3.6240   26.2670 O   0  0  0  0  0  0  0  0  0  0  0  0
    9.1540   -1.5260   25.6290 N   0  0  0  0  0  0  0  0  0  0  0  0
   10.1090   -0.9600   24.6970 C   0  0  0  0  0  0  0  0  0  0  0  0
   11.0460   -1.8870   24.0280 C   0  0  0  0  0  0  0  0  0  0  0  0
   12.0540   -1.3330   23.1180 C   0  0  0  0  0  0  0  0  0  0  0  0
   12.1030    0.0350   22.8670 C   0  0  0  0  0  0  0  0  0  0  0  0
   13.0770    0.3210   22.0560 F   0  0  0  0  0  0  0  0  0  0  0  0
   11.1620    0.9750   23.4550 C   0  0  0  0  0  0  0  0  0  0  0  0
   10.9640    2.4310   23.2910 C   0  0  0  0  0  0  0  0  0  0  0  0
   11.6820    3.6130   23.4290 C   0  0  0  0  0  0  0  0  0  0  0  0
   10.9630    4.7240   23.1420 C   0  0  0  0  0  0  0  0  0  0  0  0
   11.4570    6.0330   23.2090 C   0  0  0  0  0  0  0  0  0  0  0  0
   10.5330    7.0290   23.4030 N   0  0  0  0  0  0  0  0  0  0  0  0
    9.2980    7.2340   22.7640 C   0  0  0  0  0  0  0  0  0  0  0  0
    9.7170    4.2370   22.7870 C   0  0  0  0  0  0  0  0  0  0  0  0
    9.7410    3.0480   22.8670 N   0  0  0  0  0  0  0  0  0  0  0  0
    8.2800    2.2640   22.4480 S   0  0  0  0  0  0  0  0  0  0  0  0
    8.3240    2.0290   21.0170 O   0  0  0  0  0  0  0  0  0  0  0  0
    8.0870    1.1880   23.3950 O   0  0  0  0  0  0  0  0  0  0  0  0
    7.0460    3.4780   22.7510 C   0  0  0  0  0  0  0  0  0  0  0  0
    6.9650    4.6780   22.0180 C   0  0  0  0  0  0  0  0  0  0  0  0
    5.8580    5.6320   22.3790 C   0  0  0  0  0  0  0  0  0  0  0  0
    5.0030    5.3340   23.3530 C   0  0  0  0  0  0  0  0  0  0  0  0
    5.0910    4.1670   24.0580 N   0  0  0  0  0  0  0  0  0  0  0  0
    6.0930    3.2780   23.7500 C   0  0  0  0  0  0  0  0  0  0  0  0
   10.1710    0.3830   24.4110 C   0  0  0  0  0  0  0  0  0  0  0  0
    8.2940   -0.5860   26.3550 C   0  0  0  0  0  0  0  0  0  0  0  0
    6.9930   -1.2260   26.8520 C   0  0  0  0  0  0  0  0  0  0  0  0
    9.0210    0.1150   27.5010 C   0  0  0  0  0  0  0  0  0  0  0  0
    8.7810   -5.0080   23.9810 C   0  0  0  0  0  0  0  0  0  0  0  0
    7.7510   -5.1320   22.8210 C   0  0  0  0  0  0  0  0  0  0  0  0
  1  2  1  0
  2  3  1  0
  3  4  2  0
  3  5  1  0
  5  6  1  0
  6  7  1  0
  7  8  1  0
  8  9  1  0
  9 10  2  0
  9 11  1  0
 11 12  1  0
 12 13  2  0
 13 14  1  0
 14 15  2  0
 15 16  1  0
 15 17  1  0
 17 18  1  0
 18 19  2  0
 19 20  1  0
 20 21  1  0
 21 22  1  0
 22 23  1  0
 20 24  2  0
 18 25  1  0
 24 25  1  0
 25 26  1  0
 26 27  2  0
 26 28  2  0
 26 29  1  0
 29 30  2  0
 30 31  1  0
 31 32  2  0
 32 33  1  0
 29 34  1  0
 33 34  2  0
 12 35  1  0
 17 35  2  0
 11 36  1  0
 36 37  1  0
 36 38  1  0
  8 39  1  0
  5 40  1  0
 39 40  1  0
M  END
