MAK-UNK-148caf23-15-acrylamide
     RDKit          3D

 36 39  0  0  0  0  0  0  0  0999 V2000
    7.1630   -3.5230   19.2440 C   0  0  0  0  0  0  0  0  0  0  0  0
    7.7700   -2.7020   20.3130 C   0  0  0  0  0  0  0  0  0  0  0  0
    6.7200   -2.8390   21.4220 C   0  0  0  0  0  0  0  0  0  0  0  0
    5.2120   -3.4780   21.2490 O   0  0  0  0  0  0  0  0  0  0  0  0
    7.5630   -2.1210   22.6570 C   0  0  0  0  0  0  0  0  0  0  0  0
    8.8950   -1.8450   22.0830 C   0  0  0  0  0  0  0  0  0  0  0  0
    8.5040   -1.4290   23.6450 C   0  0  0  0  0  0  0  0  0  0  0  0
    9.7230   -0.7310   24.3050 C   0  0  0  0  0  0  0  0  0  0  0  0
    9.8650   -0.1910   25.6070 N   0  0  0  0  0  0  0  0  0  0  0  0
    8.6590   -0.6610   26.3140 C   0  0  0  0  0  0  0  0  0  0  0  0
    8.5630   -0.1760   27.7660 C   0  0  0  0  0  0  0  0  0  0  0  0
    9.6680    0.3100   28.4470 C   0  0  0  0  0  0  0  0  0  0  0  0
    9.5850    0.7430   29.7570 C   0  0  0  0  0  0  0  0  0  0  0  0
    8.4500    0.7260   30.4610 N   0  0  0  0  0  0  0  0  0  0  0  0
    7.3250    0.2510   29.8320 C   0  0  0  0  0  0  0  0  0  0  0  0
    7.3450   -0.2040   28.5020 C   0  0  0  0  0  0  0  0  0  0  0  0
    5.7970   -0.7760   27.8910 S   0  0  0  0  0  0  0  0  0  0  0  0
    5.5580   -0.1560   26.6060 O   0  0  0  0  0  0  0  0  0  0  0  0
    4.8610   -0.5780   28.9740 O   0  0  0  0  0  0  0  0  0  0  0  0
    5.9950   -2.4230   27.6390 N   0  0  0  0  0  0  0  0  0  0  0  0
    6.9640   -2.9840   26.8140 C   0  0  0  0  0  0  0  0  0  0  0  0
    6.8890   -4.3890   26.8020 C   0  0  0  0  0  0  0  0  0  0  0  0
    7.7680   -5.1980   26.0470 C   0  0  0  0  0  0  0  0  0  0  0  0
    8.3770   -6.1430   26.8420 N   0  0  0  0  0  0  0  0  0  0  0  0
    8.6950   -5.5990   27.9900 C   0  0  0  0  0  0  0  0  0  0  0  0
    5.8100   -4.7810   27.6630 C   0  0  0  0  0  0  0  0  0  0  0  0
    5.2780   -3.5880   28.1630 C   0  0  0  0  0  0  0  0  0  0  0  0
    4.1930   -3.3190   29.0700 C   0  0  0  0  0  0  0  0  0  0  0  0
    3.2250   -2.1920   29.0820 C   0  0  0  0  0  0  0  0  0  0  0  0
    2.1800   -2.1920   30.1900 C   0  0  0  0  0  0  0  0  0  0  0  0
    2.1660   -3.2220   31.1260 C   0  0  0  0  0  0  0  0  0  0  0  0
    3.1910   -4.3290   31.0260 C   0  0  0  0  0  0  0  0  0  0  0  0
    4.1600   -4.3360   30.0070 C   0  0  0  0  0  0  0  0  0  0  0  0
    5.0420   -5.3460   29.9730 F   0  0  0  0  0  0  0  0  0  0  0  0
   10.2440   -0.9390   23.2210 N   0  0  0  0  0  0  0  0  0  0  0  0
    8.8540   -1.3980   23.3860 C   0  0  0  0  0  0  0  0  0  0  0  0
  1  2  1  0
  2  3  1  0
  3  4  2  0
  3  5  1  0
  5  6  2  0
  6  7  1  0
  7  8  2  0
  8  9  1  0
  9 10  1  0
 10 11  1  0
 11 12  2  0
 12 13  1  0
 13 14  2  0
 14 15  1  0
 11 16  1  0
 15 16  2  0
 17 16  1  0
 17 18  2  0
 17 19  2  0
 17 20  1  0
 20 21  1  0
 21 22  2  0
 22 23  1  0
 23 24  1  0
 24 25  1  0
 22 26  1  0
 20 27  1  0
 26 27  2  0
 27 28  1  0
 28 29  2  0
 29 30  1  0
 30 31  2  0
 31 32  1  0
 28 33  1  0
 32 33  2  0
 33 34  1  0
  8 35  1  0
  5 36  1  0
 35 36  2  0
M  END
