MAK-UNK-516d8086-17-acrylamide
     RDKit          3D

 24 26  0  0  0  0  0  0  0  0999 V2000
    6.6110   -4.6370   20.0790 C   0  0  0  0  0  0  0  0  0  0  0  0
    6.8280   -4.4090   21.5760 C   0  0  0  0  0  0  0  0  0  0  0  0
    5.7310   -3.5840   22.2340 C   0  0  0  0  0  0  0  0  0  0  0  0
    5.2130   -3.7840   21.1370 O   0  0  0  0  0  0  0  0  0  0  0  0
    6.7830   -3.6220   23.4240 C   0  0  0  0  0  0  0  0  0  0  0  0
    6.3900   -4.1250   24.7820 C   0  0  0  0  0  0  0  0  0  0  0  0
    7.2260   -4.1910   25.8300 N   0  0  0  0  0  0  0  0  0  0  0  0
    8.5330   -3.7920   25.7170 C   0  0  0  0  0  0  0  0  0  0  0  0
    9.3110   -3.9110   26.8250 N   0  0  0  0  0  0  0  0  0  0  0  0
    8.6650   -4.5680   27.9520 C   0  0  0  0  0  0  0  0  0  0  0  0
    8.4980   -5.9020   27.6200 C   0  0  0  0  0  0  0  0  0  0  0  0
    9.1850   -3.2180   24.3960 C   0  0  0  0  0  0  0  0  0  0  0  0
   10.5430   -2.7570   24.1240 C   0  0  0  0  0  0  0  0  0  0  0  0
   11.5450   -3.1910   25.0210 C   0  0  0  0  0  0  0  0  0  0  0  0
   12.7790   -2.7430   25.1850 C   0  0  0  0  0  0  0  0  0  0  0  0
   12.1910   -2.0560   24.2540 C   0  0  0  0  0  0  0  0  0  0  0  0
   10.9350   -2.8770   24.4050 C   0  0  0  0  0  0  0  0  0  0  0  0
   10.2020   -4.1160   25.1920 C   0  0  0  0  0  0  0  0  0  0  0  0
   11.3890   -4.1110   25.8310 C   0  0  0  0  0  0  0  0  0  0  0  0
    8.8670   -3.8530   24.2020 C   0  0  0  0  0  0  0  0  0  0  0  0
    8.8580   -5.0890   24.2170 O   0  0  0  0  0  0  0  0  0  0  0  0
    9.0160   -2.5450   24.2880 N   0  0  0  0  0  0  0  0  0  0  0  0
   10.0440   -2.3910   23.5760 C   0  0  0  0  0  0  0  0  0  0  0  0
    8.2780   -3.1510   23.2840 C   0  0  0  0  0  0  0  0  0  0  0  0
  1  2  1  0
  2  3  1  0
  3  4  2  0
  3  5  1  0
  5  6  2  0
  6  7  1  0
  7  8  2  0
  8  9  1  0
  9 10  1  0
 10 11  1  0
  8 12  1  0
 12 13  1  0
 13 14  1  0
 14 15  2  0
 15 16  1  0
 16 17  2  0
 17 18  1  0
 14 19  1  0
 18 19  2  0
 18 20  1  0
 20 21  2  0
 20 22  1  0
 17 23  1  0
 22 23  1  0
  5 24  1  0
 12 24  2  0
M  END
