MAK-UNK-f983951f-23-nitrile
     RDKit          3D

 12 12  0  0  0  0  0  0  0  0999 V2000
    6.3100   -4.2750   20.2750 C   0  0  0  0  0  0  0  0  0  0  0  0
    5.9130   -3.4880   19.3410 N   0  0  0  0  0  0  0  0  0  0  0  0
    5.6170   -4.3250   21.4850 N   0  0  0  0  0  0  0  0  0  0  0  0
    5.1940   -3.1840   22.3220 C   0  0  0  0  0  0  0  0  0  0  0  0
    4.4190   -3.5640   23.6140 C   0  0  0  0  0  0  0  0  0  0  0  0
    4.5510   -4.9520   24.0330 C   0  0  0  0  0  0  0  0  0  0  0  0
    4.3550   -4.2650   25.0470 C   0  0  0  0  0  0  0  0  0  0  0  0
    2.9570   -3.9980   24.5870 C   0  0  0  0  0  0  0  0  0  0  0  0
    2.2930   -5.0790   23.9070 C   0  0  0  0  0  0  0  0  0  0  0  0
    1.7430   -5.9460   23.3680 N   0  0  0  0  0  0  0  0  0  0  0  0
    2.5960   -2.9150   25.1190 C   0  0  0  0  0  0  0  0  0  0  0  0
    3.7050   -2.4600   24.4180 C   0  0  0  0  0  0  0  0  0  0  0  0
  1  2  2  3
  1  3  1  0
  3  4  1  0
  4  5  1  0
  5  6  2  0
  6  7  1  0
  7  8  2  0
  8  9  1  0
  9 10  3  0
  8 11  1  0
  5 12  1  0
 11 12  2  0
M  END
