MAK-UNK-902cc841-11
     RDKit          3D

 29 31  0  0  0  0  0  0  0  0999 V2000
    6.3960   -2.1230   18.5400 C   0  0  0  0  0  0  0  0  0  0  0  0
    6.0640   -2.9100   19.7770 C   0  0  0  0  0  0  0  0  0  0  0  0
    5.4690   -3.9990   19.6990 O   0  0  0  0  0  0  0  0  0  0  0  0
    6.4970   -2.3540   20.9490 N   0  0  0  0  0  0  0  0  0  0  0  0
    7.4710   -1.2540   20.9400 C   0  0  0  0  0  0  0  0  0  0  0  0
    8.6330   -1.5930   21.5870 C   0  0  0  0  0  0  0  0  0  0  0  0
    8.3670   -2.1300   22.7720 N   0  0  0  0  0  0  0  0  0  0  0  0
    9.3760   -1.9770   23.8410 C   0  0  2  0  0  0  0  0  0  0  0  0
    8.8330   -1.2530   24.9730 O   0  0  0  0  0  0  0  0  0  0  0  0
    7.5250   -0.8780   25.0890 C   0  0  0  0  0  0  0  0  0  0  0  0
    6.8780   -0.0680   24.4440 O   0  0  0  0  0  0  0  0  0  0  0  0
    6.9520   -1.6700   26.2400 C   0  0  0  0  0  0  0  0  0  0  0  0
    5.8780   -1.0650   27.1380 C   0  0  0  0  0  0  0  0  0  0  0  0
    5.3640   -1.9120   28.2800 C   0  0  0  0  0  0  0  0  0  0  0  0
    5.9660   -3.3090   28.4450 C   0  0  0  0  0  0  0  0  0  0  0  0
    7.0410   -3.7810   27.4590 C   0  0  0  0  0  0  0  0  0  0  0  0
    7.6170   -4.9940   27.5500 N   0  0  0  0  0  0  0  0  0  0  0  0
    9.2920   -4.9180   27.3090 S   0  0  0  0  0  0  0  0  0  0  0  0
    9.5730   -5.9830   25.9340 C   0  0  0  0  0  0  0  0  0  0  0  0
    9.5770   -3.5870   26.8550 O   0  0  0  0  0  0  0  0  0  0  0  0
    9.9630   -5.4450   28.4310 O   0  0  0  0  0  0  0  0  0  0  0  0
    7.4720   -2.9570   26.4240 C   0  0  0  0  0  0  0  0  0  0  0  0
   10.6350   -1.2050   23.5200 C   0  0  0  0  0  0  0  0  0  0  0  0
   11.7800   -1.4460   22.5410 C   0  0  0  0  0  0  0  0  0  0  0  0
   12.8030   -0.3380   22.6150 C   0  0  0  0  0  0  0  0  0  0  0  0
   12.4370    0.6500   23.5720 C   0  0  0  0  0  0  0  0  0  0  0  0
   10.9490    0.2540   24.3500 S   0  0  0  0  0  0  0  0  0  0  0  0
    7.6240   -3.3990   22.7010 C   0  0  0  0  0  0  0  0  0  0  0  0
    6.3780   -3.1430   22.1830 C   0  0  0  0  0  0  0  0  0  0  0  0
  1  2  1  0
  2  3  2  0
  2  4  1  0
  4  5  1  0
  5  6  1  0
  6  7  1  0
  7  8  1  0
  8  9  1  1
  9 10  1  0
 10 11  2  0
 10 12  1  0
 12 13  2  0
 13 14  1  0
 14 15  2  0
 15 16  1  0
 16 17  1  0
 18 17  1  0
 18 19  1  0
 18 20  2  0
 18 21  2  0
 12 22  1  0
 16 22  2  0
  8 23  1  0
 23 24  2  0
 24 25  1  0
 25 26  2  0
 23 27  1  0
 26 27  1  0
  7 28  1  0
  4 29  1  0
 28 29  1  0
M  END
