MAK-UNK-704ed37c-15-nitrile
     RDKit          3D

 11 11  0  0  0  0  0  0  0  0999 V2000
    6.7030   -4.2560   20.3680 C   0  0  0  0  0  0  0  0  0  0  0  0
    5.5470   -4.5030   19.9130 N   0  0  0  0  0  0  0  0  0  0  0  0
    7.1400   -4.2080   21.6440 N   0  0  0  0  0  0  0  0  0  0  0  0
    7.6840   -3.1190   22.3270 C   0  0  0  0  0  0  0  0  0  0  0  0
    7.1660   -2.7720   23.5610 C   0  0  0  0  0  0  0  0  0  0  0  0
    6.7910   -3.8230   24.3810 C   0  0  1  0  0  0  0  0  0  0  0  0
    5.9860   -3.4240   25.4550 C   0  0  0  0  0  0  0  0  0  0  0  0
    6.3800   -3.5730   26.7400 N   0  0  0  0  0  0  0  0  0  0  0  0
    4.8850   -2.9210   25.2180 O   0  0  0  0  0  0  0  0  0  0  0  0
    5.9520   -4.7430   23.4710 C   0  0  0  0  0  0  0  0  0  0  0  0
    6.5650   -5.2080   22.4820 O   0  0  0  0  0  0  0  0  0  0  0  0
  1  2  2  3
  1  3  1  0
  3  4  1  0
  4  5  1  0
  5  6  1  0
  6  7  1  1
  7  8  1  0
  7  9  2  0
  6 10  1  0
  3 11  1  0
 10 11  1  0
M  END
