MAK-UNK-849bee6c-14-nitrile
     RDKit          3D

 25 27  0  0  0  0  0  0  0  0999 V2000
    6.9720   -3.4040   19.6980 C   0  0  0  0  0  0  0  0  0  0  0  0
    5.9510   -3.2150   18.9580 N   0  0  0  0  0  0  0  0  0  0  0  0
    7.1430   -2.7580   20.9170 N   0  0  0  0  0  0  0  0  0  0  0  0
    7.3310   -1.2950   20.9300 C   0  0  0  0  0  0  0  0  0  0  0  0
    8.4540   -1.8090   21.6860 C   0  0  0  0  0  0  0  0  0  0  0  0
    8.1690   -2.1870   23.0740 N   0  0  0  0  0  0  0  0  0  0  0  0
    9.2540   -2.3580   23.9250 C   0  0  0  0  0  0  0  0  0  0  0  0
   10.4010   -1.3640   23.6930 C   0  0  0  0  0  0  0  0  0  0  0  0
   11.7530   -1.8460   23.2360 C   0  0  0  0  0  0  0  0  0  0  0  0
   12.8510   -0.8470   23.0090 C   0  0  0  0  0  0  0  0  0  0  0  0
   12.6150    0.5150   23.2210 C   0  0  0  0  0  0  0  0  0  0  0  0
   11.3320    0.9670   23.6530 C   0  0  0  0  0  0  0  0  0  0  0  0
   11.1380    2.3610   23.8450 N   0  0  0  0  0  0  0  0  0  0  0  0
   11.8560    3.1510   23.0150 C   0  0  0  0  0  0  0  0  0  0  0  0
    9.9170    2.9030   24.2670 C   0  0  0  0  0  0  0  0  0  0  0  0
    9.5160    4.1820   23.9040 C   0  0  0  0  0  0  0  0  0  0  0  0
    8.3550    4.7510   24.2880 N   0  0  0  0  0  0  0  0  0  0  0  0
    7.5550    4.0000   25.0740 C   0  0  0  0  0  0  0  0  0  0  0  0
    6.3500    4.6120   25.4630 C   0  0  0  0  0  0  0  0  0  0  0  0
    5.2080    3.9090   25.5460 N   0  0  0  0  0  0  0  0  0  0  0  0
    7.8270    2.7480   25.4950 N   0  0  0  0  0  0  0  0  0  0  0  0
    9.0070    2.2250   25.0800 C   0  0  0  0  0  0  0  0  0  0  0  0
   10.2770    0.0280   23.8770 C   0  0  0  0  0  0  0  0  0  0  0  0
    7.3040   -3.3650   23.1380 C   0  0  0  0  0  0  0  0  0  0  0  0
    6.3900   -3.2610   22.0950 C   0  0  0  0  0  0  0  0  0  0  0  0
  1  2  2  3
  1  3  1  0
  3  4  1  0
  4  5  1  0
  5  6  1  0
  6  7  1  0
  7  8  1  0
  8  9  2  0
  9 10  1  0
 10 11  2  0
 11 12  1  0
 12 13  1  0
 13 14  1  0
 13 15  1  0
 15 16  2  0
 16 17  1  0
 17 18  2  0
 18 19  1  0
 19 20  3  0
 18 21  1  0
 15 22  1  0
 21 22  2  0
  8 23  1  0
 12 23  2  0
  6 24  1  0
  3 25  1  0
 24 25  1  0
M  END
