MAK-UNK-8fdbca50-38-acrylamide
     RDKit          3D

 40 43  0  0  0  0  0  0  0  0999 V2000
    8.9970   -4.2230   20.5730 C   0  0  0  0  0  0  0  0  0  0  0  0
    7.4140   -4.3790   20.5400 C   0  0  0  0  0  0  0  0  0  0  0  0
    6.5550   -3.4010   21.3420 C   0  0  0  0  0  0  0  0  0  0  0  0
    5.1590   -3.5930   21.3250 O   0  0  0  0  0  0  0  0  0  0  0  0
    7.4590   -2.3960   21.9740 N   0  0  0  0  0  0  0  0  0  0  0  0
    7.5250   -2.0390   23.4030 C   0  0  0  0  0  0  0  0  0  0  0  0
    7.8680   -0.5770   23.2590 C   0  0  0  0  0  0  0  0  0  0  0  0
    9.4030   -0.6980   23.3020 C   0  0  0  0  0  0  0  0  0  0  0  0
    9.8800    0.7230   23.2610 N   0  0  0  0  0  0  0  0  0  0  0  0
    8.8920    1.6780   22.6890 C   0  0  0  0  0  0  0  0  0  0  0  0
    8.2280    1.0440   21.4360 C   0  0  0  0  0  0  0  0  0  0  0  0
    7.2480    2.1740   21.7980 C   0  0  0  0  0  0  0  0  0  0  0  0
    6.0480    2.3680   20.9700 C   0  0  0  0  0  0  0  0  0  0  0  0
    5.0420    3.3310   21.1410 C   0  0  0  0  0  0  0  0  0  0  0  0
    3.6710    2.9840   20.6430 C   0  0  0  0  0  0  0  0  0  0  0  0
    2.4810    3.8260   20.7120 C   0  0  0  0  0  0  0  0  0  0  0  0
    3.4440    4.5100   21.2570 C   0  0  0  0  0  0  0  0  0  0  0  0
    4.2750    5.3430   21.8320 C   0  0  0  0  0  0  0  0  0  0  0  0
    5.3710    4.5960   21.7810 C   0  0  0  0  0  0  0  0  0  0  0  0
    6.5620    5.0380   22.2800 F   0  0  0  0  0  0  0  0  0  0  0  0
    6.2030    1.4220   20.0870 N   0  0  0  0  0  0  0  0  0  0  0  0
    5.1780    1.0340   18.7770 S   0  0  0  0  0  0  0  0  0  0  0  0
    4.2040    0.0980   19.2770 O   0  0  0  0  0  0  0  0  0  0  0  0
    4.7950    2.2850   18.1750 O   0  0  0  0  0  0  0  0  0  0  0  0
    6.3340    0.1690   17.7360 C   0  0  0  0  0  0  0  0  0  0  0  0
    6.7350   -1.0740   17.7240 C   0  0  0  0  0  0  0  0  0  0  0  0
    7.0450   -2.3350   17.8270 C   0  0  0  0  0  0  0  0  0  0  0  0
    7.8590   -1.8570   16.6930 C   0  0  0  0  0  0  0  0  0  0  0  0
    7.8710   -0.4860   16.1790 N   0  0  0  0  0  0  0  0  0  0  0  0
    7.0790    0.5520   16.7240 C   0  0  0  0  0  0  0  0  0  0  0  0
    7.3690    0.6860   20.3100 C   0  0  0  0  0  0  0  0  0  0  0  0
    9.9810   -1.4700   24.5480 C   0  0  0  0  0  0  0  0  0  0  0  0
    9.9490   -2.7070   24.6380 O   0  0  0  0  0  0  0  0  0  0  0  0
   10.5610   -0.7130   25.5250 N   0  0  0  0  0  0  0  0  0  0  0  0
   11.9510   -0.3090   25.1970 C   0  0  0  0  0  0  0  0  0  0  0  0
    9.6420    0.2780   25.9250 C   0  0  0  0  0  0  0  0  0  0  0  0
    8.2590   -0.0440   25.4470 C   0  0  0  0  0  0  0  0  0  0  0  0
    9.3850    0.4830   27.4320 C   0  0  0  0  0  0  0  0  0  0  0  0
    9.9020   -1.3310   22.0360 C   0  0  0  0  0  0  0  0  0  0  0  0
    8.7430   -2.0110   21.2820 C   0  0  0  0  0  0  0  0  0  0  0  0
  1  2  1  0
  2  3  1  0
  3  4  2  0
  3  5  1  0
  5  6  1  0
  6  7  1  0
  7  8  1  0
  8  9  1  0
  9 10  1  0
 10 11  1  0
 11 12  1  0
 12 13  2  0
 13 14  1  0
 14 15  2  0
 15 16  1  0
 16 17  2  0
 17 18  1  0
 14 19  1  0
 18 19  2  0
 19 20  1  0
 13 21  1  0
 21 22  1  0
 22 23  2  0
 22 24  2  0
 22 25  1  0
 25 26  2  0
 26 27  1  0
 27 28  2  0
 28 29  1  0
 25 30  1  0
 29 30  2  0
 11 31  2  0
 21 31  1  0
  8 32  1  0
 32 33  2  0
 32 34  1  0
 34 35  1  0
 34 36  1  0
 36 37  1  0
 36 38  1  0
  8 39  1  0
  5 40  1  0
 39 40  1  0
M  END
