MAK-UNK-7c9d1431-24-vinylsulfonamide
     RDKit          3D

 18 19  0  0  0  0  0  0  0  0999 V2000
    7.6530   -4.2720   20.4490 C   0  0  0  0  0  0  0  0  0  0  0  0
    6.1660   -4.2710   20.3530 C   0  0  0  0  0  0  0  0  0  0  0  0
    5.7350   -2.7050   19.7570 S   0  0  0  0  0  0  0  0  0  0  0  0
    4.4030   -3.0240   19.5450 O   0  0  0  0  0  0  0  0  0  0  0  0
    6.5110   -2.1570   18.6740 O   0  0  0  0  0  0  0  0  0  0  0  0
    6.0860   -1.8550   21.1500 N   0  0  0  0  0  0  0  0  0  0  0  0
    7.2360   -0.9390   21.0590 C   0  0  0  0  0  0  0  0  0  0  0  0
    8.4950   -1.4310   21.7940 C   0  0  0  0  0  0  0  0  0  0  0  0
    8.2630   -1.9070   23.1690 N   0  0  0  0  0  0  0  0  0  0  0  0
    9.5070   -2.3550   23.7970 C   0  0  0  0  0  0  0  0  0  0  0  0
   10.6030   -1.3320   23.6310 C   0  0  0  0  0  0  0  0  0  0  0  0
   11.7990   -1.6630   22.9820 C   0  0  0  0  0  0  0  0  0  0  0  0
   12.7980   -0.7080   22.8220 C   0  0  0  0  0  0  0  0  0  0  0  0
   12.6100    0.5860   23.3080 C   0  0  0  0  0  0  0  0  0  0  0  0
   11.4250    0.9260   23.9590 C   0  0  0  0  0  0  0  0  0  0  0  0
   10.4270   -0.0320   24.1200 C   0  0  0  0  0  0  0  0  0  0  0  0
    7.2510   -2.9730   23.1210 C   0  0  0  0  0  0  0  0  0  0  0  0
    5.9230   -2.5520   22.4460 C   0  0  0  0  0  0  0  0  0  0  0  0
  1  2  1  0
  3  2  1  0
  3  4  2  0
  3  5  2  0
  3  6  1  0
  6  7  1  0
  7  8  1  0
  8  9  1  0
  9 10  1  0
 10 11  1  0
 11 12  2  0
 12 13  1  0
 13 14  2  0
 14 15  1  0
 11 16  1  0
 15 16  2  0
  9 17  1  0
  6 18  1  0
 17 18  1  0
M  END
