MAK-UNK-de9577cf-11
     RDKit          3D

 37 40  0  0  0  0  0  0  0  0999 V2000
   14.0500   -2.8280   24.1120 C   0  0  0  0  0  0  0  0  0  0  0  0
   14.6600   -2.7420   25.5150 C   0  0  1  0  0  0  0  0  0  0  0  0
   16.2370   -2.4690   26.1160 C   0  0  0  0  0  0  0  0  0  0  0  0
   18.1530   -2.3160   25.7150 C   0  0  0  0  0  0  0  0  0  0  0  0
   19.4430   -2.4000   26.6050 C   0  0  0  0  0  0  0  0  0  0  0  0
   20.7920   -2.2400   25.9840 C   0  0  0  0  0  0  0  0  0  0  0  0
   22.0770   -2.3510   26.8160 C   0  0  0  0  0  0  0  0  0  0  0  0
   22.6390   -1.1870   27.5600 C   0  0  0  0  0  0  0  0  0  0  0  0
   23.8000   -1.2440   28.3320 C   0  0  0  0  0  0  0  0  0  0  0  0
   24.4980   -2.5050   28.4140 C   0  0  0  0  0  0  0  0  0  0  0  0
   24.0160   -3.6100   27.7370 C   0  0  0  0  0  0  0  0  0  0  0  0
   22.8280   -3.6890   26.9020 C   0  0  0  0  0  0  0  0  0  0  0  0
   22.4600   -4.8240   26.2910 F   0  0  0  0  0  0  0  0  0  0  0  0
   20.5620   -2.0070   24.6910 N   0  0  0  0  0  0  0  0  0  0  0  0
   21.7970   -1.7530   23.5240 S   0  0  0  0  0  0  0  0  0  0  0  0
   22.6360   -2.9240   23.5990 O   0  0  0  0  0  0  0  0  0  0  0  0
   21.1670   -1.3940   22.2780 O   0  0  0  0  0  0  0  0  0  0  0  0
   22.7890   -0.4170   24.0650 C   0  0  0  0  0  0  0  0  0  0  0  0
   24.1420   -0.3450   23.7200 C   0  0  0  0  0  0  0  0  0  0  0  0
   24.9200    0.7280   24.1520 C   0  0  0  0  0  0  0  0  0  0  0  0
   24.3680    1.7420   24.9310 C   0  0  0  0  0  0  0  0  0  0  0  0
   23.0770    1.7700   25.3200 N   0  0  0  0  0  0  0  0  0  0  0  0
   22.2410    0.5970   24.8460 C   0  0  0  0  0  0  0  0  0  0  0  0
   19.0910   -2.0110   24.4320 C   0  0  0  0  0  0  0  0  0  0  0  0
   13.6590   -1.7710   25.8760 O   0  0  0  0  0  0  0  0  0  0  0  0
   12.5190   -1.9380   25.1030 C   0  0  0  0  0  0  0  0  0  0  0  0
   12.0030   -3.0130   24.8130 O   0  0  0  0  0  0  0  0  0  0  0  0
   11.9050   -0.6280   24.6240 C   0  0  0  0  0  0  0  0  0  0  0  0
   10.4860   -0.2790   25.0220 C   0  0  0  0  0  0  0  0  0  0  0  0
    9.8840    1.0270   24.5560 C   0  0  0  0  0  0  0  0  0  0  0  0
   10.7390    1.9430   23.7030 C   0  0  0  0  0  0  0  0  0  0  0  0
   10.0620    3.4940   23.1670 S   0  0  0  0  0  0  0  0  0  0  0  0
    9.1570    3.0590   21.8270 N   0  0  0  0  0  0  0  0  0  0  0  0
    9.1230    3.9850   24.1730 O   0  0  0  0  0  0  0  0  0  0  0  0
   11.1540    4.3030   22.6800 O   0  0  0  0  0  0  0  0  0  0  0  0
   12.0450    1.5840   23.3390 C   0  0  0  0  0  0  0  0  0  0  0  0
   12.6410    0.2540   23.8160 C   0  0  0  0  0  0  0  0  0  0  0  0
  2  1  1  6
  2  3  1  0
  3  4  1  0
  4  5  1  0
  5  6  2  0
  6  7  1  0
  7  8  2  0
  8  9  1  0
  9 10  2  0
 10 11  1  0
  7 12  1  0
 11 12  2  0
 12 13  1  0
  6 14  1  0
 14 15  1  0
 15 16  2  0
 15 17  2  0
 15 18  1  0
 18 19  2  0
 19 20  1  0
 20 21  2  0
 21 22  1  0
 18 23  1  0
 22 23  2  0
  4 24  2  0
 14 24  1  0
  2 25  1  0
 25 26  1  0
 26 27  2  0
 26 28  1  0
 28 29  2  0
 29 30  1  0
 30 31  2  0
 31 32  1  0
 32 33  1  0
 32 34  2  0
 32 35  2  0
 31 36  1  0
 28 37  1  0
 36 37  2  0
M  END
