MAK-UNK-90d0606b-10-chloroacetamide
     RDKit          3D

 21 23  0  0  0  0  0  0  0  0999 V2000
    7.4010   -3.0370   18.8660 C   0  0  0  0  0  0  0  0  0  0  0  0
    6.4150   -3.3880   19.9650 C   0  0  0  0  0  0  0  0  0  0  0  0
    5.4860   -4.1880   19.7870 O   0  0  0  0  0  0  0  0  0  0  0  0
    6.6120   -2.7680   21.2100 N   0  0  0  0  0  0  0  0  0  0  0  0
    7.5170   -1.6020   21.2750 C   0  0  0  0  0  0  0  0  0  0  0  0
    8.5260   -2.1180   22.2730 C   0  0  2  0  0  0  0  0  0  0  0  0
    8.3320   -3.5780   22.3240 C   0  0  0  0  0  0  0  0  0  0  0  0
    6.9540   -3.5520   22.4480 C   0  0  1  0  0  0  0  0  0  0  0  0
    6.7250   -2.6460   23.4710 C   0  0  0  0  0  0  0  0  0  0  0  0
    7.8910   -1.8580   23.6710 C   0  0  1  0  0  0  0  0  0  0  0  0
    8.7510   -2.3710   24.6420 C   0  0  0  0  0  0  0  0  0  0  0  0
    8.2750   -3.0910   25.5220 O   0  0  0  0  0  0  0  0  0  0  0  0
   10.0740   -2.0310   24.5240 N   0  0  0  0  0  0  0  0  0  0  0  0
   10.6700   -0.6800   24.6090 C   0  0  0  0  0  0  0  0  0  0  0  0
   11.5880    0.3260   24.2880 C   0  0  0  0  0  0  0  0  0  0  0  0
   12.6850    0.2190   23.3530 C   0  0  0  0  0  0  0  0  0  0  0  0
   12.9300   -0.9960   22.6390 C   0  0  0  0  0  0  0  0  0  0  0  0
   13.9180   -0.9900   21.8120 O   0  0  0  0  0  0  0  0  0  0  0  0
   13.4670   -1.5200   20.6360 C   0  0  0  0  0  0  0  0  0  0  0  0
   12.1890   -2.1390   22.7710 N   0  0  0  0  0  0  0  0  0  0  0  0
   11.1770   -1.7390   23.7580 C   0  0  0  0  0  0  0  0  0  0  0  0
  1  2  1  0
  2  3  2  0
  2  4  1  0
  4  5  1  0
  6  5  1  6
  6  7  1  0
  4  8  1  0
  7  8  1  0
  8  9  1  1
  6 10  1  0
  9 10  1  0
 10 11  1  1
 11 12  2  0
 11 13  1  0
 13 14  1  0
 14 15  2  0
 15 16  1  0
 16 17  2  0
 17 18  1  0
 18 19  1  0
 17 20  1  0
 14 21  1  0
 20 21  2  0
M  END
