MAK-UNK-10799360-29-chloroacetamide
     RDKit          3D

 26 29  0  0  0  0  0  0  0  0999 V2000
    7.0350   -3.0600   19.0570 C   0  0  0  0  0  0  0  0  0  0  0  0
    5.9920   -3.5300   20.0830 C   0  0  0  0  0  0  0  0  0  0  0  0
    5.2750   -4.4920   19.8480 O   0  0  0  0  0  0  0  0  0  0  0  0
    5.8400   -2.8940   21.2820 N   0  0  0  0  0  0  0  0  0  0  0  0
    6.7630   -1.8730   21.7690 C   0  0  0  0  0  0  0  0  0  0  0  0
    7.5450   -2.7280   22.8210 C   0  0  1  0  0  0  0  0  0  0  0  0
    6.1190   -2.4890   23.4420 C   0  0  0  0  0  0  0  0  0  0  0  0
    5.4220   -3.4950   22.5350 C   0  0  2  0  0  0  0  0  0  0  0  0
    6.3250   -4.6810   22.8980 C   0  0  0  0  0  0  0  0  0  0  0  0
    7.2360   -3.8760   23.7320 N   0  0  0  0  0  0  0  0  0  0  0  0
    8.3440   -4.6010   24.4010 C   0  0  0  0  0  0  0  0  0  0  0  0
    9.5000   -3.6480   24.5510 C   0  0  0  0  0  0  0  0  0  0  0  0
   10.5850   -3.6110   25.4010 C   0  0  0  0  0  0  0  0  0  0  0  0
   11.4660   -2.5740   25.2960 N   0  0  0  0  0  0  0  0  0  0  0  0
   11.7470   -1.4770   24.6700 C   0  0  0  0  0  0  0  0  0  0  0  0
   10.7480   -0.5690   24.6520 C   0  0  0  0  0  0  0  0  0  0  0  0
   10.9780    0.5290   23.9730 C   0  0  0  0  0  0  0  0  0  0  0  0
   12.1760    0.6850   23.3380 C   0  0  0  0  0  0  0  0  0  0  0  0
   13.3440   -0.1280   23.2410 C   0  0  0  0  0  0  0  0  0  0  0  0
   13.3050    1.3340   22.4410 S   0  0  0  0  0  0  0  0  0  0  0  0
   13.1420    2.7430   23.2530 N   0  0  0  0  0  0  0  0  0  0  0  0
   14.4070    1.4790   21.5500 O   0  0  0  0  0  0  0  0  0  0  0  0
   11.9240    1.2290   22.1630 O   0  0  0  0  0  0  0  0  0  0  0  0
   12.9630   -1.2640   24.0320 C   0  0  0  0  0  0  0  0  0  0  0  0
   10.7070   -2.0550   24.2480 N   0  0  0  0  0  0  0  0  0  0  0  0
    9.6240   -2.6070   23.8020 N   0  0  0  0  0  0  0  0  0  0  0  0
  1  2  1  0
  2  3  2  0
  2  4  1  0
  4  5  1  0
  6  5  1  6
  6  7  1  0
  4  8  1  0
  7  8  1  0
  8  9  1  1
  6 10  1  0
  9 10  1  0
 10 11  1  0
 11 12  1  0
 12 13  2  0
 13 14  1  0
 14 15  1  0
 15 16  2  0
 16 17  1  0
 17 18  2  0
 18 19  1  0
 19 20  1  0
 20 21  1  0
 20 22  2  0
 20 23  2  0
 15 24  1  0
 19 24  2  0
 14 25  1  0
 12 26  1  0
 25 26  2  0
M  END
