MAK-UNK-6c8f5f75-6-acrylamide
     RDKit          3D

 11 11  0  0  0  0  0  0  0  0999 V2000
    7.9480   -3.2980   19.2330 C   0  0  0  0  0  0  0  0  0  0  0  0
    6.8370   -2.2700   19.2470 C   0  0  0  0  0  0  0  0  0  0  0  0
    5.8870   -2.7360   20.2940 C   0  0  0  0  0  0  0  0  0  0  0  0
    4.8950   -3.3340   19.9270 O   0  0  0  0  0  0  0  0  0  0  0  0
    6.2140   -2.5380   21.6260 N   0  0  0  0  0  0  0  0  0  0  0  0
    6.0310   -3.5840   22.6270 C   0  0  0  0  0  0  0  0  0  0  0  0
    7.0760   -3.6380   23.6990 C   0  0  0  0  0  0  0  0  0  0  0  0
    8.1210   -2.5670   23.5140 C   0  0  0  0  0  0  0  0  0  0  0  0
    7.5600   -1.5800   22.1180 S   0  0  0  0  0  0  0  0  0  0  0  0
    8.5760   -1.5730   21.1050 O   0  0  0  0  0  0  0  0  0  0  0  0
    7.0780   -0.3350   22.6750 O   0  0  0  0  0  0  0  0  0  0  0  0
  1  2  1  0
  2  3  1  0
  3  4  2  0
  3  5  1  0
  5  6  1  0
  6  7  2  0
  7  8  1  0
  9  5  1  0
  8  9  1  0
  9 10  2  0
  9 11  2  0
M  END
