MAK-UNK-10799360-8-chloroacetamide
     RDKit          3D

 29 32  0  0  0  0  0  0  0  0999 V2000
    7.3330   -3.0430   18.8080 C   0  0  0  0  0  0  0  0  0  0  0  0
    6.3660   -3.3910   19.9270 C   0  0  0  0  0  0  0  0  0  0  0  0
    5.5480   -4.3110   19.8230 O   0  0  0  0  0  0  0  0  0  0  0  0
    6.4250   -2.6150   21.0600 N   0  0  0  0  0  0  0  0  0  0  0  0
    7.4420   -1.5560   21.2940 C   0  0  0  0  0  0  0  0  0  0  0  0
    8.3630   -2.4890   22.0900 C   0  0  2  0  0  0  0  0  0  0  0  0
    7.5370   -3.7800   22.0370 C   0  0  0  0  0  0  0  0  0  0  0  0
    6.2200   -3.1270   22.4900 C   0  0  1  0  0  0  0  0  0  0  0  0
    7.1580   -3.3480   23.7160 C   0  0  0  0  0  0  0  0  0  0  0  0
    8.1410   -2.2640   23.5000 N   0  0  0  0  0  0  0  0  0  0  0  0
    9.3150   -2.2910   24.3270 C   0  0  0  0  0  0  0  0  0  0  0  0
   10.4270   -1.4020   23.8590 C   0  0  0  0  0  0  0  0  0  0  0  0
   11.3430   -1.8600   22.9150 C   0  0  0  0  0  0  0  0  0  0  0  0
   12.3660   -1.0400   22.4790 C   0  0  0  0  0  0  0  0  0  0  0  0
   13.4210   -1.6380   21.3130 Cl  0  0  0  0  0  0  0  0  0  0  0  0
   12.4800    0.2400   23.0060 C   0  0  0  0  0  0  0  0  0  0  0  0
   11.5770    0.7080   23.9360 C   0  0  0  0  0  0  0  0  0  0  0  0
   10.5270   -0.1010   24.3750 C   0  0  0  0  0  0  0  0  0  0  0  0
    9.5920    0.3660   25.2970 C   0  0  0  0  0  0  0  0  0  0  0  0
    9.1060    1.7280   24.9220 N   0  0  0  0  0  0  0  0  0  0  0  0
    9.7920    2.6420   24.0100 C   0  0  0  0  0  0  0  0  0  0  0  0
   10.1800    2.3070   22.8990 O   0  0  0  0  0  0  0  0  0  0  0  0
    9.9630    3.9450   24.4910 N   0  0  0  0  0  0  0  0  0  0  0  0
    9.2320    4.2870   25.7340 C   0  0  0  0  0  0  0  0  0  0  0  0
    9.8340    5.3660   26.4160 C   0  0  0  0  0  0  0  0  0  0  0  0
    9.7500    6.5550   25.5970 N   0  0  0  0  0  0  0  0  0  0  0  0
    9.7250    6.4070   24.1510 C   0  0  0  0  0  0  0  0  0  0  0  0
    9.3750    7.4580   23.2350 O   0  0  0  0  0  0  0  0  0  0  0  0
   10.0850    5.0530   23.5200 C   0  0  0  0  0  0  0  0  0  0  0  0
  1  2  1  0
  2  3  2  0
  2  4  1  0
  4  5  1  0
  6  5  1  6
  6  7  1  0
  4  8  1  0
  7  8  1  0
  8  9  1  1
  6 10  1  0
  9 10  1  0
 10 11  1  0
 11 12  1  0
 12 13  2  0
 13 14  1  0
 14 15  1  0
 14 16  2  0
 16 17  1  0
 12 18  1  0
 17 18  2  0
 18 19  1  0
 19 20  1  0
 20 21  1  0
 21 22  2  0
 21 23  1  0
 23 24  1  0
 24 25  1  0
 25 26  1  0
 26 27  1  0
 27 28  2  0
 23 29  1  0
 27 29  1  0
M  END
