MAK-UNK-c44f4be0-1
     RDKit          3D

 32 33  0  0  0  0  0  0  0  0999 V2000
    8.3420    2.6180   21.5610 C   0  0  0  0  0  0  0  0  0  0  0  0
    8.0080    1.8780   22.7040 C   0  0  0  0  0  0  0  0  0  0  0  0
    8.8300    1.7820   23.6160 O   0  0  0  0  0  0  0  0  0  0  0  0
    6.8140    1.3150   22.7960 N   0  0  0  0  0  0  0  0  0  0  0  0
    6.6200   -0.1630   22.9600 C   0  0  1  0  0  0  0  0  0  0  0  0
    6.1300   -0.9070   21.7200 C   0  0  0  0  0  0  0  0  0  0  0  0
    6.1710   -0.3090   20.4390 C   0  0  0  0  0  0  0  0  0  0  0  0
    5.7080    0.9790   20.2150 C   0  0  0  0  0  0  0  0  0  0  0  0
    5.7670    1.5240   18.9360 C   0  0  0  0  0  0  0  0  0  0  0  0
    6.2890    0.7970   17.8550 C   0  0  0  0  0  0  0  0  0  0  0  0
    6.3030    1.3700   16.7840 O   0  0  0  0  0  0  0  0  0  0  0  0
    6.7490   -0.5020   18.0550 C   0  0  0  0  0  0  0  0  0  0  0  0
    7.4200   -1.5950   16.7990 S   0  0  0  0  0  0  0  0  0  0  0  0
    6.5210   -1.8080   15.7170 O   0  0  0  0  0  0  0  0  0  0  0  0
    8.0080   -2.6860   17.4770 O   0  0  0  0  0  0  0  0  0  0  0  0
    8.7070   -0.9650   15.9930 N   0  0  0  0  0  0  0  0  0  0  0  0
    8.8870    0.3180   15.3700 C   0  0  0  0  0  0  0  0  0  0  0  0
   10.4350    0.5240   15.1410 C   0  0  0  0  0  0  0  0  0  0  0  0
   12.4880    1.6110   16.7620 C   0  0  0  0  0  0  0  0  0  0  0  0
   13.7930    1.0430   17.1650 C   0  0  0  0  0  0  0  0  0  0  0  0
   14.7480    1.6920   18.0930 C   0  0  0  0  0  0  0  0  0  0  0  0
   14.6250    2.8970   18.7160 C   0  0  0  0  0  0  0  0  0  0  0  0
   13.5170    3.6070   18.4720 C   0  0  0  0  0  0  0  0  0  0  0  0
   12.4910    3.1400   17.6070 C   0  0  0  0  0  0  0  0  0  0  0  0
    6.6840   -1.0280   19.3520 C   0  0  0  0  0  0  0  0  0  0  0  0
    7.9480   -0.7950   23.4260 C   0  0  0  0  0  0  0  0  0  0  0  0
    8.9660   -0.1420   23.6450 O   0  0  0  0  0  0  0  0  0  0  0  0
    7.8900   -2.2310   23.6080 N   0  0  0  0  0  0  0  0  0  0  0  0
    8.8810   -3.0270   23.0930 C   0  0  0  0  0  0  0  0  0  0  0  0
   10.1100   -2.2580   22.6980 C   0  0  0  0  0  0  0  0  0  0  0  0
   11.3690   -2.2720   23.5220 C   0  0  0  0  0  0  0  0  0  0  0  0
   12.9730   -2.2800   24.5480 Br  0  0  0  0  0  0  0  0  0  0  0  0
  1  2  1  0
  2  3  2  0
  2  4  1  0
  4  5  1  0
  5  6  1  6
  6  7  1  0
  7  8  2  0
  8  9  1  0
  9 10  2  0
 10 11  1  0
 10 12  1  0
 12 13  1  0
 13 14  2  0
 13 15  2  0
 13 16  1  0
 16 17  1  0
 17 18  1  0
 18 19  1  0
 19 20  2  0
 20 21  1  0
 21 22  2  0
 22 23  1  0
 19 24  1  0
 23 24  2  0
  7 25  1  0
 12 25  2  0
  5 26  1  0
 26 27  2  0
 26 28  1  0
 28 29  1  0
 29 30  1  0
 30 31  3  0
 31 32  1  0
M  END
