MAK-UNK-c44f4be0-9
     RDKit          3D

 31 32  0  0  0  0  0  0  0  0999 V2000
    8.6310    2.3710   21.2840 O   0  0  0  0  0  0  0  0  0  0  0  0
    7.8520    2.3350   22.2380 C   0  0  0  0  0  0  0  0  0  0  0  0
    7.2120    3.4340   22.8020 N   0  0  0  0  0  0  0  0  0  0  0  0
    7.8550    4.7730   22.7450 C   0  0  0  0  0  0  0  0  0  0  0  0
    7.1350    5.7410   21.8230 C   0  0  0  0  0  0  0  0  0  0  0  0
    7.6010    7.1800   21.8430 C   0  0  0  0  0  0  0  0  0  0  0  0
    8.3090    7.8670   23.4550 Br  0  0  0  0  0  0  0  0  0  0  0  0
    7.5090    0.9830   22.9000 C   0  0  1  0  0  0  0  0  0  0  0  0
    6.2120    0.6450   22.5380 C   0  0  0  0  0  0  0  0  0  0  0  0
    6.0800    0.7060   21.1640 C   0  0  0  0  0  0  0  0  0  0  0  0
    5.1980    1.6170   20.5850 C   0  0  0  0  0  0  0  0  0  0  0  0
    5.0380    1.7350   19.2200 C   0  0  0  0  0  0  0  0  0  0  0  0
    5.8140    0.8790   18.2680 C   0  0  0  0  0  0  0  0  0  0  0  0
    5.7140    0.9540   16.9520 O   0  0  0  0  0  0  0  0  0  0  0  0
    6.7600   -0.1110   18.9050 C   0  0  0  0  0  0  0  0  0  0  0  0
    6.8380   -0.1400   20.3140 C   0  0  0  0  0  0  0  0  0  0  0  0
    8.4110    0.0840   22.3340 N   0  0  0  0  0  0  0  0  0  0  0  0
    8.2940   -1.2810   22.4330 C   0  0  0  0  0  0  0  0  0  0  0  0
    7.2090   -2.0660   22.1310 O   0  0  0  0  0  0  0  0  0  0  0  0
    9.8050   -1.9670   23.0590 S   0  0  0  0  0  0  0  0  0  0  0  0
    9.4240   -2.9570   24.0350 O   0  0  0  0  0  0  0  0  0  0  0  0
   10.6820   -2.2800   21.9530 O   0  0  0  0  0  0  0  0  0  0  0  0
   10.3960   -0.6260   23.8760 N   0  0  0  0  0  0  0  0  0  0  0  0
   11.0970   -0.7190   25.0430 C   0  0  0  0  0  0  0  0  0  0  0  0
   12.3650   -0.2160   24.8050 C   0  0  0  0  0  0  0  0  0  0  0  0
   12.7940   -0.5960   23.6220 C   0  0  0  0  0  0  0  0  0  0  0  0
   13.2700    0.0350   22.4700 C   0  0  0  0  0  0  0  0  0  0  0  0
   13.5340   -0.8560   21.4470 C   0  0  0  0  0  0  0  0  0  0  0  0
   13.3560   -2.2810   21.5090 C   0  0  0  0  0  0  0  0  0  0  0  0
   12.8910   -2.7230   22.7880 C   0  0  0  0  0  0  0  0  0  0  0  0
   12.5950   -1.8820   23.8740 C   0  0  0  0  0  0  0  0  0  0  0  0
  1  2  2  0
  2  3  1  0
  3  4  1  0
  4  5  1  0
  5  6  3  0
  6  7  1  0
  2  8  1  0
  8  9  1  6
  9 10  1  0
 10 11  2  0
 11 12  1  0
 12 13  2  0
 13 14  1  0
 13 15  1  0
 10 16  1  0
 15 16  2  0
  8 17  1  0
 17 18  1  0
 18 19  2  0
 20 18  1  0
 20 21  2  0
 20 22  2  0
 20 23  1  0
 23 24  1  0
 24 25  1  0
 25 26  1  0
 26 27  2  0
 27 28  1  0
 28 29  2  0
 29 30  1  0
 26 31  1  0
 30 31  2  0
M  END
