MAK-UNK-72659d64-6-vinylsulfonamide
     RDKit          3D

 16 16  0  0  0  0  0  0  0  0999 V2000
    7.8410   -3.1460   18.6180 C   0  0  0  0  0  0  0  0  0  0  0  0
    7.2270   -2.5660   19.8750 C   0  0  0  0  0  0  0  0  0  0  0  0
    6.3290   -3.7880   20.8080 S   0  0  0  0  0  0  0  0  0  0  0  0
    5.0220   -3.3600   21.3010 O   0  0  0  0  0  0  0  0  0  0  0  0
    6.1540   -4.9900   20.0580 O   0  0  0  0  0  0  0  0  0  0  0  0
    7.6190   -3.8650   21.9730 N   0  0  0  0  0  0  0  0  0  0  0  0
    8.4340   -2.8770   22.1380 C   0  0  0  0  0  0  0  0  0  0  0  0
    7.9210   -5.0390   22.5150 C   0  0  0  0  0  0  0  0  0  0  0  0
    6.5670   -5.3920   23.0020 C   0  0  0  0  0  0  0  0  0  0  0  0
    6.0730   -4.9450   24.2850 C   0  0  0  0  0  0  0  0  0  0  0  0
    4.7960   -5.3000   24.6520 N   0  0  0  0  0  0  0  0  0  0  0  0
    3.7960   -6.0560   23.9990 C   0  0  0  0  0  0  0  0  0  0  0  0
    3.0360   -6.8320   23.1090 C   0  0  0  0  0  0  0  0  0  0  0  0
    2.3080   -7.9040   23.8190 N   0  0  0  0  0  0  0  0  0  0  0  0
    4.3780   -6.3420   22.9470 N   0  0  0  0  0  0  0  0  0  0  0  0
    5.6170   -6.0990   22.4010 C   0  0  0  0  0  0  0  0  0  0  0  0
  1  2  1  0
  2  3  1  0
  3  4  2  0
  3  5  2  0
  3  6  1  0
  6  7  1  0
  6  8  1  0
  8  9  1  0
  9 10  2  0
 10 11  1  0
 11 12  2  0
 12 13  1  0
 13 14  3  0
 12 15  1  0
  9 16  1  0
 15 16  2  0
M  END
