MAK-UNK-702fb7d3-9-chloroacetamide
     RDKit          3D

 42 47  0  0  0  0  0  0  0  0999 V2000
    7.8360   -3.5800   20.1690 C   0  0  0  0  0  0  0  0  0  0  0  0
    6.7350   -3.2670   21.1770 C   0  0  0  0  0  0  0  0  0  0  0  0
    6.2830   -3.5540   19.9050 O   0  0  0  0  0  0  0  0  0  0  0  0
    7.5260   -2.9880   22.5210 N   0  0  0  0  0  0  0  0  0  0  0  0
    6.8490   -2.5790   23.8340 C   0  0  0  0  0  0  0  0  0  0  0  0
    7.4880   -3.3780   25.0750 C   0  0  0  0  0  0  0  0  0  0  0  0
    6.5540   -3.2190   26.3020 C   0  0  0  0  0  0  0  0  0  0  0  0
    7.1810   -4.0180   27.4680 C   0  0  0  0  0  0  0  0  0  0  0  0
    6.5170   -4.0840   28.6650 N   0  0  0  0  0  0  0  0  0  0  0  0
    6.0170   -5.4200   29.0220 C   0  0  0  0  0  0  0  0  0  0  0  0
    4.4750   -5.4770   28.9150 C   0  0  0  0  0  0  0  0  0  0  0  0
    3.9640   -5.0130   27.6330 C   0  0  0  0  0  0  0  0  0  0  0  0
    2.5270   -5.1850   27.8230 C   0  0  0  0  0  0  0  0  0  0  0  0
    1.6730   -4.8650   26.8510 C   0  0  0  0  0  0  0  0  0  0  0  0
    0.5960   -3.9060   27.0950 C   0  0  0  0  0  0  0  0  0  0  0  0
   -0.3020   -3.5330   26.1700 C   0  0  0  0  0  0  0  0  0  0  0  0
   -0.1950   -4.1200   24.8520 C   0  0  0  0  0  0  0  0  0  0  0  0
    0.8050   -5.0300   24.5690 C   0  0  0  0  0  0  0  0  0  0  0  0
    1.7360   -5.4130   25.5330 C   0  0  0  0  0  0  0  0  0  0  0  0
    2.6860   -6.3010   25.1960 F   0  0  0  0  0  0  0  0  0  0  0  0
    2.2990   -5.7350   29.2000 N   0  0  0  0  0  0  0  0  0  0  0  0
    0.7930   -6.0900   29.8350 S   0  0  0  0  0  0  0  0  0  0  0  0
   -0.0450   -4.9460   29.5570 O   0  0  0  0  0  0  0  0  0  0  0  0
    0.9830   -6.5760   31.1850 O   0  0  0  0  0  0  0  0  0  0  0  0
    0.2210   -7.4310   28.8630 C   0  0  0  0  0  0  0  0  0  0  0  0
   -0.6040   -7.2170   27.7130 C   0  0  0  0  0  0  0  0  0  0  0  0
   -1.0320   -8.3160   26.9710 C   0  0  0  0  0  0  0  0  0  0  0  0
   -0.6330   -9.5920   27.3890 C   0  0  0  0  0  0  0  0  0  0  0  0
    0.1460   -9.8260   28.4750 N   0  0  0  0  0  0  0  0  0  0  0  0
    0.5660   -8.7320   29.2000 C   0  0  0  0  0  0  0  0  0  0  0  0
    3.5240   -5.9040   29.8490 C   0  0  0  0  0  0  0  0  0  0  0  0
    8.3960   -4.7150   27.3830 C   0  0  0  0  0  0  0  0  0  0  0  0
    9.1320   -4.7710   26.2330 C   0  0  0  0  0  0  0  0  0  0  0  0
    8.6590   -4.1190   25.1110 C   0  0  0  0  0  0  0  0  0  0  0  0
    9.2820   -4.2000   23.9380 C   0  0  1  0  0  0  0  0  0  0  0  0
    8.6250   -5.2770   23.4820 C   0  0  0  0  0  0  0  0  0  0  0  0
    7.2420   -5.1210   23.3430 C   0  0  0  0  0  0  0  0  0  0  0  0
    6.4580   -6.1480   22.8900 C   0  0  0  0  0  0  0  0  0  0  0  0
    7.0780   -7.3160   22.5890 C   0  0  0  0  0  0  0  0  0  0  0  0
    8.4610   -7.4680   22.7410 C   0  0  0  0  0  0  0  0  0  0  0  0
    9.2410   -6.4530   23.1870 C   0  0  0  0  0  0  0  0  0  0  0  0
    8.9850   -3.0740   22.8900 C   0  0  0  0  0  0  0  0  0  0  0  0
  1  2  1  0
  2  3  2  0
  2  4  1  0
  4  5  1  0
  5  6  1  0
  6  7  1  0
  7  8  2  0
  8  9  1  0
  9 10  1  0
 10 11  1  0
 11 12  1  0
 12 13  2  0
 13 14  1  0
 14 15  2  0
 15 16  1  0
 16 17  2  0
 17 18  1  0
 14 19  1  0
 18 19  2  0
 19 20  1  0
 13 21  1  0
 21 22  1  0
 22 23  2  0
 22 24  2  0
 22 25  1  0
 25 26  2  0
 26 27  1  0
 27 28  2  0
 28 29  1  0
 25 30  1  0
 29 30  2  0
 11 31  2  0
 21 31  1  0
  8 32  1  0
 32 33  2  0
  6 34  2  0
 33 34  1  0
 34 35  1  0
 35 36  1  6
 36 37  2  0
 37 38  1  0
 38 39  2  0
 39 40  1  0
 36 41  1  0
 40 41  2  0
  4 42  1  0
 35 42  1  0
M  END
