MAK-UNK-148caf23-7-vinylsulfonamide
     RDKit          3D

 37 40  0  0  0  0  0  0  0  0999 V2000
    6.9340   -3.2280   18.7890 C   0  0  0  0  0  0  0  0  0  0  0  0
    6.9830   -2.2610   19.8860 C   0  0  0  0  0  0  0  0  0  0  0  0
    7.0030   -3.1890   21.3730 S   0  0  0  0  0  0  0  0  0  0  0  0
    5.2320   -3.5490   21.2180 O   0  0  0  0  0  0  0  0  0  0  0  0
    8.0830   -4.2030   21.3970 O   0  0  0  0  0  0  0  0  0  0  0  0
    8.3610   -1.8220   21.6700 C   0  0  0  0  0  0  0  0  0  0  0  0
    8.4960   -1.9610   22.9350 C   0  0  0  0  0  0  0  0  0  0  0  0
    9.2630   -1.2650   23.5480 C   0  0  0  0  0  0  0  0  0  0  0  0
    9.8580   -0.8090   24.4930 C   0  0  0  0  0  0  0  0  0  0  0  0
   10.0350   -0.8490   25.8690 N   0  0  0  0  0  0  0  0  0  0  0  0
    8.7500   -0.9240   26.5700 C   0  0  2  0  0  0  0  0  0  0  0  0
    7.8640    0.2230   26.1550 C   0  0  0  0  0  0  0  0  0  0  0  0
    8.7150   -0.9410   27.9820 N   0  0  0  0  0  0  0  0  0  0  0  0
    8.1520   -2.1320   28.6110 C   0  0  0  0  0  0  0  0  0  0  0  0
    7.3700   -3.1670   27.7750 C   0  0  0  0  0  0  0  0  0  0  0  0
    7.8610   -3.7430   26.4620 C   0  0  0  0  0  0  0  0  0  0  0  0
    6.9050   -4.6310   26.0360 C   0  0  0  0  0  0  0  0  0  0  0  0
    7.1740   -5.3560   24.7280 C   0  0  0  0  0  0  0  0  0  0  0  0
    8.4290   -6.0720   24.8960 C   0  0  0  0  0  0  0  0  0  0  0  0
    8.7810   -6.8440   23.6160 C   0  0  0  0  0  0  0  0  0  0  0  0
    7.8730   -6.7930   22.3920 C   0  0  0  0  0  0  0  0  0  0  0  0
    6.6670   -6.0220   22.4230 C   0  0  0  0  0  0  0  0  0  0  0  0
    6.3590   -5.3340   23.5780 C   0  0  0  0  0  0  0  0  0  0  0  0
    5.2270   -4.6180   23.5850 F   0  0  0  0  0  0  0  0  0  0  0  0
    5.8640   -4.6880   26.9110 N   0  0  0  0  0  0  0  0  0  0  0  0
    4.4310   -5.6310   26.8450 S   0  0  0  0  0  0  0  0  0  0  0  0
    4.5440   -6.4560   25.6590 O   0  0  0  0  0  0  0  0  0  0  0  0
    4.2690   -6.2120   28.1590 O   0  0  0  0  0  0  0  0  0  0  0  0
    3.1350   -4.5430   26.5810 C   0  0  0  0  0  0  0  0  0  0  0  0
    2.2400   -4.7060   25.5410 C   0  0  0  0  0  0  0  0  0  0  0  0
    1.1280   -3.6560   25.4310 C   0  0  0  0  0  0  0  0  0  0  0  0
    1.1040   -2.5400   26.4590 C   0  0  0  0  0  0  0  0  0  0  0  0
    2.0330   -2.4800   27.4350 N   0  0  0  0  0  0  0  0  0  0  0  0
    2.9990   -3.4550   27.4720 C   0  0  0  0  0  0  0  0  0  0  0  0
    6.1350   -3.8060   27.9690 C   0  0  0  0  0  0  0  0  0  0  0  0
   10.3020   -0.1510   23.4100 N   0  0  0  0  0  0  0  0  0  0  0  0
    9.5240   -0.7020   22.1450 C   0  0  0  0  0  0  0  0  0  0  0  0
  1  2  1  0
  3  2  1  0
  3  4  2  0
  3  5  2  0
  3  6  1  0
  6  7  2  0
  7  8  1  0
  8  9  2  0
  9 10  1  0
 10 11  1  0
 11 12  1  1
 11 13  1  0
 13 14  1  0
 14 15  1  0
 15 16  1  0
 16 17  2  0
 17 18  1  0
 18 19  2  0
 19 20  1  0
 20 21  2  0
 21 22  1  0
 18 23  1  0
 22 23  2  0
 23 24  1  0
 17 25  1  0
 25 26  1  0
 26 27  2  0
 26 28  2  0
 26 29  1  0
 29 30  2  0
 30 31  1  0
 31 32  2  0
 32 33  1  0
 29 34  1  0
 33 34  2  0
 15 35  2  0
 25 35  1  0
  9 36  1  0
  6 37  1  0
 36 37  2  0
M  END
