MAK-UNK-60abb798-10
     RDKit          3D

 22 24  0  0  0  0  0  0  0  0999 V2000
   13.3030   -2.3990   23.5510 N   0  0  0  0  0  0  0  0  0  0  0  0
   12.4710   -1.5690   22.8100 C   0  0  0  0  0  0  0  0  0  0  0  0
   11.1960   -1.0110   23.4950 C   0  0  2  0  0  0  0  0  0  0  0  0
   10.3750   -1.8110   24.1700 O   0  0  0  0  0  0  0  0  0  0  0  0
    9.7530   -2.9920   23.4690 C   0  0  1  0  0  0  0  0  0  0  0  0
    8.6800   -3.8620   24.1570 C   0  0  1  0  0  0  0  0  0  0  0  0
    7.9780   -3.1380   25.2590 C   0  0  0  0  0  0  0  0  0  0  0  0
    6.7630   -3.6020   25.7160 C   0  0  0  0  0  0  0  0  0  0  0  0
    5.8580   -3.7810   24.6630 C   0  0  0  0  0  0  0  0  0  0  0  0
    6.2580   -4.7860   23.7550 C   0  0  1  0  0  0  0  0  0  0  0  0
    5.3130   -5.1900   22.6430 C   0  0  0  0  0  0  0  0  0  0  0  0
    4.6090   -4.1660   22.0680 O   0  0  0  0  0  0  0  0  0  0  0  0
    7.6370   -4.3960   23.1430 C   0  0  0  0  0  0  0  0  0  0  0  0
    9.5430   -2.3460   22.2930 C   0  0  0  0  0  0  0  0  0  0  0  0
   10.3090   -1.3560   22.7490 C   0  0  0  0  0  0  0  0  0  0  0  0
   10.3850   -0.0950   22.5010 C   0  0  0  0  0  0  0  0  0  0  0  0
   11.0830    1.0110   22.8710 C   0  0  0  0  0  0  0  0  0  0  0  0
   12.0380    0.7360   23.8320 C   0  0  0  0  0  0  0  0  0  0  0  0
   12.1900   -0.5660   24.3150 C   0  0  0  0  0  0  0  0  0  0  0  0
   13.0380   -0.7800   25.1680 O   0  0  0  0  0  0  0  0  0  0  0  0
   11.4000   -1.6650   23.8570 C   0  0  0  0  0  0  0  0  0  0  0  0
   11.6410   -2.9150   24.4070 O   0  0  0  0  0  0  0  0  0  0  0  0
  1  2  1  0
  3  2  1  6
  3  4  1  0
  4  5  1  0
  5  6  1  0
  6  7  1  1
  7  8  1  0
  8  9  1  0
  9 10  1  0
 10 11  1  6
 11 12  2  0
  6 13  1  0
 10 13  1  0
  5 14  1  6
 14 15  1  0
  3 16  1  0
 15 16  2  0
 16 17  1  0
 17 18  2  0
 18 19  1  0
 19 20  1  0
 15 21  1  0
 19 21  2  0
 21 22  1  0
M  END
