MAK-UNK-ec98eaf6-38-vinylsulfonamide
     RDKit          3D

 21 23  0  0  0  0  0  0  0  0999 V2000
    7.2840   -2.8540   18.3420 C   0  0  0  0  0  0  0  0  0  0  0  0
    6.3810   -2.2390   19.3920 C   0  0  0  0  0  0  0  0  0  0  0  0
    5.7160   -3.4180   20.5100 S   0  0  0  0  0  0  0  0  0  0  0  0
    4.6600   -2.9210   21.3080 O   0  0  0  0  0  0  0  0  0  0  0  0
    5.5870   -4.7230   19.9070 O   0  0  0  0  0  0  0  0  0  0  0  0
    6.9560   -3.2440   21.5650 N   0  0  0  0  0  0  0  0  0  0  0  0
    7.6090   -1.9390   21.5030 C   0  0  0  0  0  0  0  0  0  0  0  0
    8.6700   -2.2860   22.4900 C   0  0  2  0  0  0  0  0  0  0  0  0
    8.1290   -3.6930   22.6490 C   0  0  0  0  0  0  0  0  0  0  0  0
    6.6420   -3.3580   22.9740 C   0  0  1  0  0  0  0  0  0  0  0  0
    7.5690   -3.3780   24.1800 C   0  0  0  0  0  0  0  0  0  0  0  0
    8.3180   -2.0320   23.9340 C   0  0  1  0  0  0  0  0  0  0  0  0
    9.5560   -1.8350   24.7610 C   0  0  0  0  0  0  0  0  0  0  0  0
   10.5480   -1.0580   24.0250 C   0  0  0  0  0  0  0  0  0  0  0  0
   10.6050    0.3190   24.1370 C   0  0  0  0  0  0  0  0  0  0  0  0
   11.5140    1.0860   23.4510 C   0  0  0  0  0  0  0  0  0  0  0  0
   11.5730    2.4620   23.5080 C   0  0  0  0  0  0  0  0  0  0  0  0
   12.3990    0.4290   22.6410 C   0  0  0  0  0  0  0  0  0  0  0  0
   12.3460   -0.9420   22.5040 C   0  0  0  0  0  0  0  0  0  0  0  0
   13.4010   -1.7120   21.4530 Cl  0  0  0  0  0  0  0  0  0  0  0  0
   11.4370   -1.6990   23.1880 C   0  0  0  0  0  0  0  0  0  0  0  0
  1  2  1  0
  3  2  1  0
  3  4  2  0
  3  5  2  0
  3  6  1  0
  6  7  1  0
  8  7  1  6
  8  9  1  0
  6 10  1  0
  9 10  1  0
 10 11  1  1
  8 12  1  0
 11 12  1  0
 12 13  1  1
 13 14  1  0
 14 15  2  0
 15 16  1  0
 16 17  1  0
 16 18  2  0
 18 19  1  0
 19 20  1  0
 14 21  1  0
 19 21  2  0
M  END
