MAK-UNK-9a6be56d-30
     RDKit          3D

 38 42  0  0  0  0  0  0  0  0999 V2000
    8.3400   -1.0420   24.9970 C   0  0  0  0  0  0  0  0  0  0  0  0
    9.5910   -0.8680   24.4470 N   0  0  0  0  0  0  0  0  0  0  0  0
   10.6500   -1.5980   24.9270 C   0  0  0  0  0  0  0  0  0  0  0  0
   11.7120   -1.5880   24.0200 C   0  0  2  0  0  0  0  0  0  0  0  0
   12.7020   -2.6070   24.0090 N   0  0  0  0  0  0  0  0  0  0  0  0
   13.7670   -2.3650   23.1580 C   0  0  0  0  0  0  0  0  0  0  0  0
   13.5770   -1.8780   21.8620 C   0  0  0  0  0  0  0  0  0  0  0  0
   12.4360   -1.9380   21.7700 C   0  0  0  0  0  0  0  0  0  0  0  0
   12.0370   -1.5290   20.7470 C   0  0  0  0  0  0  0  0  0  0  0  0
   10.5170   -1.8500   21.4040 C   0  0  0  0  0  0  0  0  0  0  0  0
    9.1820   -1.4030   21.1340 C   0  0  0  0  0  0  0  0  0  0  0  0
    8.0160   -1.8620   21.9090 C   0  0  0  0  0  0  0  0  0  0  0  0
    8.1600   -2.7470   22.9500 C   0  0  0  0  0  0  0  0  0  0  0  0
    9.4250   -3.1640   23.2320 C   0  0  0  0  0  0  0  0  0  0  0  0
   10.5440   -2.7300   22.5020 C   0  0  0  0  0  0  0  0  0  0  0  0
   11.7040   -3.1980   22.9140 F   0  0  0  0  0  0  0  0  0  0  0  0
   13.0920   -0.9480   19.5950 N   0  0  0  0  0  0  0  0  0  0  0  0
   13.2870    0.3340   17.0500 S   0  0  0  0  0  0  0  0  0  0  0  0
   12.9700    1.6960   17.1920 O   0  0  0  0  0  0  0  0  0  0  0  0
   14.6030    0.3170   16.5490 O   0  0  0  0  0  0  0  0  0  0  0  0
   10.5080    0.1110   15.2820 C   0  0  0  0  0  0  0  0  0  0  0  0
    9.0670   -0.0600   15.8170 C   0  0  0  0  0  0  0  0  0  0  0  0
    7.9210   -0.0800   15.0050 C   0  0  0  0  0  0  0  0  0  0  0  0
    8.2460    0.0460   13.7720 C   0  0  0  0  0  0  0  0  0  0  0  0
    9.3380    0.1990   13.2070 N   0  0  0  0  0  0  0  0  0  0  0  0
   10.3980    0.2220   13.8960 C   0  0  0  0  0  0  0  0  0  0  0  0
   14.0490   -1.3150   20.5280 C   0  0  0  0  0  0  0  0  0  0  0  0
   12.3090   -0.1830   24.1220 C   0  0  0  0  0  0  0  0  0  0  0  0
   11.3410    0.7910   23.9640 C   0  0  0  0  0  0  0  0  0  0  0  0
   11.6760    2.1850   23.6310 C   0  0  0  0  0  0  0  0  0  0  0  0
   10.7010    3.1320   23.4900 C   0  0  0  0  0  0  0  0  0  0  0  0
    9.3710    2.7870   23.6610 C   0  0  0  0  0  0  0  0  0  0  0  0
    8.1470    4.0540   23.4910 S   0  0  0  0  0  0  0  0  0  0  0  0
    8.9830    5.3200   22.7620 N   0  0  0  0  0  0  0  0  0  0  0  0
    7.1140    3.6030   22.5790 O   0  0  0  0  0  0  0  0  0  0  0  0
    7.8270    4.5280   24.8300 O   0  0  0  0  0  0  0  0  0  0  0  0
    8.9660    1.4600   23.9760 C   0  0  0  0  0  0  0  0  0  0  0  0
    9.9930    0.4880   24.1190 C   0  0  0  0  0  0  0  0  0  0  0  0
  1  2  1  0
  2  3  1  0
  3  4  1  0
  4  5  1  1
  5  6  1  0
  6  7  1  0
  7  8  1  0
  8  9  2  0
  9 10  1  0
 10 11  2  0
 11 12  1  0
 12 13  2  0
 13 14  1  0
 10 15  1  0
 14 15  2  0
 15 16  1  0
  9 17  1  0
 17 18  1  0
 18 19  2  0
 18 20  2  0
 18 21  1  0
 21 22  2  0
 22 23  1  0
 23 24  2  0
 24 25  1  0
 21 26  1  0
 25 26  2  0
  7 27  2  0
 17 27  1  0
  4 28  1  0
 28 29  1  0
 29 30  1  0
 30 31  2  0
 31 32  1  0
 32 33  1  0
 33 34  1  0
 33 35  2  0
 33 36  2  0
 32 37  2  0
  2 38  1  0
 29 38  2  0
 37 38  1  0
M  END
