MAK-UNK-8fdbca50-37-acrylamide
     RDKit          3D

 40 43  0  0  0  0  0  0  0  0999 V2000
    5.5740   -4.9950   20.3250 C   0  0  0  0  0  0  0  0  0  0  0  0
    5.9100   -3.5580   20.3940 C   0  0  0  0  0  0  0  0  0  0  0  0
    5.5170   -2.8960   19.1300 C   0  0  0  0  0  0  0  0  0  0  0  0
    4.4460   -3.0140   19.6180 O   0  0  0  0  0  0  0  0  0  0  0  0
    6.8540   -3.0190   19.0220 N   0  0  0  0  0  0  0  0  0  0  0  0
    7.3300   -2.9900   17.7440 C   0  0  0  0  0  0  0  0  0  0  0  0
    8.6490   -3.4430   17.6910 C   0  0  0  0  0  0  0  0  0  0  0  0
    9.5390   -4.1520   18.8240 C   0  0  0  0  0  0  0  0  0  0  0  0
   10.5870   -5.2270   17.9570 C   0  0  0  0  0  0  0  0  0  0  0  0
    9.7050   -5.6480   17.1090 O   0  0  0  0  0  0  0  0  0  0  0  0
   12.1430   -5.4530   16.9010 N   0  0  0  0  0  0  0  0  0  0  0  0
   12.2780   -6.3860   15.6900 C   0  0  0  0  0  0  0  0  0  0  0  0
   13.3900   -5.0430   16.2540 C   0  0  0  0  0  0  0  0  0  0  0  0
   13.9960   -6.1610   15.4860 C   0  0  0  0  0  0  0  0  0  0  0  0
   14.7480   -5.7360   16.1720 C   0  0  0  0  0  0  0  0  0  0  0  0
    8.9090   -3.4550   20.1770 C   0  0  2  0  0  0  0  0  0  0  0  0
    8.4470   -3.8130   21.3880 N   0  0  0  0  0  0  0  0  0  0  0  0
    7.2900   -3.1500   22.0980 C   0  0  0  0  0  0  0  0  0  0  0  0
    7.5880   -1.9010   22.6170 C   0  0  0  0  0  0  0  0  0  0  0  0
    7.1400   -0.5950   22.0640 C   0  0  0  0  0  0  0  0  0  0  0  0
    7.5980    0.4470   22.7860 C   0  0  0  0  0  0  0  0  0  0  0  0
    7.3280    1.7910   22.4710 C   0  0  0  0  0  0  0  0  0  0  0  0
    8.3620    2.7320   22.5740 C   0  0  0  0  0  0  0  0  0  0  0  0
    8.2000    4.0970   22.2850 C   0  0  0  0  0  0  0  0  0  0  0  0
    6.9720    4.6190   21.8680 C   0  0  0  0  0  0  0  0  0  0  0  0
    5.7950    3.6610   21.7280 C   0  0  0  0  0  0  0  0  0  0  0  0
    6.0550    2.2020   22.0610 C   0  0  0  0  0  0  0  0  0  0  0  0
    5.0520    1.3220   21.9540 F   0  0  0  0  0  0  0  0  0  0  0  0
    8.3300   -0.0680   23.8040 N   0  0  0  0  0  0  0  0  0  0  0  0
    9.1680    0.7630   25.0210 S   0  0  0  0  0  0  0  0  0  0  0  0
    8.8200    2.1640   24.9550 O   0  0  0  0  0  0  0  0  0  0  0  0
    9.0500   -0.0190   26.2320 O   0  0  0  0  0  0  0  0  0  0  0  0
   10.7230    0.5340   24.2720 C   0  0  0  0  0  0  0  0  0  0  0  0
   11.4530   -0.8000   24.3690 C   0  0  0  0  0  0  0  0  0  0  0  0
   12.7830   -0.8700   23.6470 C   0  0  0  0  0  0  0  0  0  0  0  0
   13.1870    0.2860   22.9800 C   0  0  0  0  0  0  0  0  0  0  0  0
   12.4990    1.4530   22.9340 N   0  0  0  0  0  0  0  0  0  0  0  0
   11.2890    1.5750   23.5670 C   0  0  0  0  0  0  0  0  0  0  0  0
    8.3390   -1.4840   23.7250 C   0  0  0  0  0  0  0  0  0  0  0  0
    7.8090   -2.4080   19.8560 C   0  0  0  0  0  0  0  0  0  0  0  0
  1  2  1  0
  2  3  1  0
  3  4  2  0
  3  5  1  0
  5  6  1  0
  6  7  1  0
  7  8  1  0
  8  9  1  0
  9 10  2  0
  9 11  1  0
 11 12  1  0
 11 13  1  0
 13 14  1  0
 13 15  1  0
  8 16  1  0
 16 17  1  1
 17 18  1  0
 18 19  1  0
 19 20  1  0
 20 21  2  0
 21 22  1  0
 22 23  2  0
 23 24  1  0
 24 25  2  0
 25 26  1  0
 22 27  1  0
 26 27  2  0
 27 28  1  0
 21 29  1  0
 29 30  1  0
 30 31  2  0
 30 32  2  0
 30 33  1  0
 33 34  2  0
 34 35  1  0
 35 36  2  0
 36 37  1  0
 33 38  1  0
 37 38  2  0
 19 39  2  0
 29 39  1  0
  5 40  1  0
 16 40  1  0
M  END
