MAK-UNK-8fdbca50-26-vinylsulfonamide
     RDKit          3D

 41 44  0  0  0  0  0  0  0  0999 V2000
    8.4050   -5.5220   20.3960 C   0  0  0  0  0  0  0  0  0  0  0  0
    7.5370   -4.2530   20.6470 C   0  0  0  0  0  0  0  0  0  0  0  0
    5.7990   -4.5910   20.3180 S   0  0  0  0  0  0  0  0  0  0  0  0
    4.9920   -3.4530   19.9440 O   0  0  0  0  0  0  0  0  0  0  0  0
    5.7890   -5.7820   19.5100 O   0  0  0  0  0  0  0  0  0  0  0  0
    5.1230   -5.0350   21.7300 N   0  0  0  0  0  0  0  0  0  0  0  0
    5.0640   -6.4210   22.0800 C   0  0  0  0  0  0  0  0  0  0  0  0
    6.3110   -6.6550   22.9570 C   0  0  0  0  0  0  0  0  0  0  0  0
    7.1680   -5.3970   22.7400 C   0  0  0  0  0  0  0  0  0  0  0  0
    8.4660   -5.7390   23.4520 C   0  0  0  0  0  0  0  0  0  0  0  0
    9.2500   -6.8310   23.1640 O   0  0  0  0  0  0  0  0  0  0  0  0
    8.7500   -4.7460   24.4680 N   0  0  0  0  0  0  0  0  0  0  0  0
    9.5400   -3.5180   24.1580 C   0  0  0  0  0  0  0  0  0  0  0  0
    8.6500   -2.6780   23.1820 C   0  0  0  0  0  0  0  0  0  0  0  0
    8.9810   -2.6550   21.6990 C   0  0  0  0  0  0  0  0  0  0  0  0
    8.0750   -1.8210   20.7960 C   0  0  0  0  0  0  0  0  0  0  0  0
    6.9990   -1.1210   21.3610 C   0  0  0  0  0  0  0  0  0  0  0  0
    6.7350   -1.1660   22.7200 C   0  0  0  0  0  0  0  0  0  0  0  0
    7.5410   -1.9280   23.6260 C   0  0  0  0  0  0  0  0  0  0  0  0
    7.1910   -1.8890   24.9600 C   0  0  0  0  0  0  0  0  0  0  0  0
    6.1730   -2.4460   25.7180 C   0  0  0  0  0  0  0  0  0  0  0  0
    6.3080   -2.0510   27.0510 C   0  0  0  0  0  0  0  0  0  0  0  0
    5.4170   -2.4550   28.0480 C   0  0  0  0  0  0  0  0  0  0  0  0
    4.2120   -1.6660   27.7800 N   0  0  0  0  0  0  0  0  0  0  0  0
    3.6680   -1.9420   26.4180 C   0  0  0  0  0  0  0  0  0  0  0  0
    7.4470   -1.2230   27.1460 C   0  0  0  0  0  0  0  0  0  0  0  0
    7.9760   -1.1260   25.8720 N   0  0  0  0  0  0  0  0  0  0  0  0
    9.3550   -0.2240   25.4660 S   0  0  0  0  0  0  0  0  0  0  0  0
    8.8390    1.0080   24.9030 O   0  0  0  0  0  0  0  0  0  0  0  0
   10.1030   -0.2430   26.6940 O   0  0  0  0  0  0  0  0  0  0  0  0
   10.2410   -1.0970   24.1980 C   0  0  0  0  0  0  0  0  0  0  0  0
   11.2180   -1.6040   23.0720 C   0  0  0  0  0  0  0  0  0  0  0  0
   12.2810   -1.0600   22.5020 C   0  0  0  0  0  0  0  0  0  0  0  0
   12.6710    0.2880   22.9590 C   0  0  0  0  0  0  0  0  0  0  0  0
   11.9420    0.8590   23.8850 N   0  0  0  0  0  0  0  0  0  0  0  0
   10.8630    0.1770   24.4080 C   0  0  0  0  0  0  0  0  0  0  0  0
    8.4720   -5.2540   25.8280 C   0  0  0  0  0  0  0  0  0  0  0  0
    7.9730   -4.2060   26.8250 C   0  0  0  0  0  0  0  0  0  0  0  0
    9.6580   -5.9910   26.4140 C   0  0  0  0  0  0  0  0  0  0  0  0
    6.4960   -4.2260   23.4650 C   0  0  0  0  0  0  0  0  0  0  0  0
    5.1430   -4.0460   22.7920 C   0  0  0  0  0  0  0  0  0  0  0  0
  1  2  1  0
  3  2  1  0
  3  4  2  0
  3  5  2  0
  3  6  1  0
  6  7  1  0
  7  8  1  0
  8  9  1  0
  9 10  1  0
 10 11  2  0
 10 12  1  0
 12 13  1  0
 13 14  1  0
 14 15  2  0
 15 16  1  0
 16 17  2  0
 17 18  1  0
 14 19  1  0
 18 19  2  0
 19 20  1  0
 20 21  2  0
 21 22  1  0
 22 23  1  0
 23 24  1  0
 24 25  1  0
 22 26  2  0
 20 27  1  0
 26 27  1  0
 27 28  1  0
 28 29  2  0
 28 30  2  0
 28 31  1  0
 31 32  2  0
 32 33  1  0
 33 34  2  0
 34 35  1  0
 31 36  1  0
 35 36  2  0
 12 37  1  0
 37 38  1  0
 37 39  1  0
  9 40  1  0
  6 41  1  0
 40 41  1  0
M  END
