MAK-UNK-d4768348-2-vinylsulfonamide
     RDKit          3D

 19 20  0  0  0  0  0  0  0  0999 V2000
    8.1630   -3.6900   20.1720 C   0  0  0  0  0  0  0  0  0  0  0  0
    6.9510   -2.8770   19.9050 C   0  0  0  0  0  0  0  0  0  0  0  0
    5.6980   -3.8650   20.6300 S   0  0  0  0  0  0  0  0  0  0  0  0
    4.7690   -3.0500   21.3310 O   0  0  0  0  0  0  0  0  0  0  0  0
    5.2590   -4.8170   19.6630 O   0  0  0  0  0  0  0  0  0  0  0  0
    6.5120   -4.7670   21.7960 N   0  0  0  0  0  0  0  0  0  0  0  0
    5.8840   -6.0410   22.1290 C   0  0  0  0  0  0  0  0  0  0  0  0
    4.8100   -5.9160   23.2140 C   0  0  0  0  0  0  0  0  0  0  0  0
    5.2010   -4.9290   24.2570 N   0  0  0  0  0  0  0  0  0  0  0  0
    4.5900   -5.0490   25.8260 S   0  0  0  0  0  0  0  0  0  0  0  0
    5.6070   -4.5900   26.7340 O   0  0  0  0  0  0  0  0  0  0  0  0
    3.9000   -6.3080   25.9530 O   0  0  0  0  0  0  0  0  0  0  0  0
    3.3300   -3.7970   25.7710 C   0  0  0  0  0  0  0  0  0  0  0  0
    3.6440   -2.4180   26.0220 C   0  0  0  0  0  0  0  0  0  0  0  0
    2.4540   -1.5280   25.9350 N   0  0  0  0  0  0  0  0  0  0  0  0
    1.1470   -2.5200   25.5600 S   0  0  0  0  0  0  0  0  0  0  0  0
    1.8440   -4.0570   25.4630 C   0  0  0  0  0  0  0  0  0  0  0  0
    6.4890   -4.5990   24.1450 C   0  0  0  0  0  0  0  0  0  0  0  0
    6.9680   -4.0150   22.8480 C   0  0  0  0  0  0  0  0  0  0  0  0
  1  2  1  0
  3  2  1  0
  3  4  2  0
  3  5  2  0
  3  6  1  0
  6  7  1  0
  7  8  1  0
  8  9  1  0
  9 10  1  0
 10 11  2  0
 10 12  2  0
 10 13  1  0
 13 14  2  0
 14 15  1  0
 15 16  1  0
 13 17  1  0
 16 17  2  0
  9 18  1  0
  6 19  1  0
 18 19  1  0
M  END
