MAK-UNK-987948f6-8-chloroacetamide
     RDKit          3D

 19 20  0  0  0  0  0  0  0  0999 V2000
    7.2520   -3.3990   19.8870 C   0  0  0  0  0  0  0  0  0  0  0  0
    6.2990   -4.4120   20.5050 C   0  0  0  0  0  0  0  0  0  0  0  0
    5.2600   -4.6850   19.9340 O   0  0  0  0  0  0  0  0  0  0  0  0
    6.5490   -5.1200   21.6980 N   0  0  0  0  0  0  0  0  0  0  0  0
    5.7330   -6.2690   22.0700 C   0  0  0  0  0  0  0  0  0  0  0  0
    4.6160   -5.8430   23.0330 C   0  0  0  0  0  0  0  0  0  0  0  0
    5.0830   -5.0660   24.1870 N   0  0  0  0  0  0  0  0  0  0  0  0
    4.2810   -4.9170   25.3410 C   0  0  0  0  0  0  0  0  0  0  0  0
    4.3670   -5.8480   26.3350 O   0  0  0  0  0  0  0  0  0  0  0  0
    3.3700   -3.8560   25.4240 C   0  0  0  0  0  0  0  0  0  0  0  0
    3.8250   -2.5610   25.7440 C   0  0  0  0  0  0  0  0  0  0  0  0
    2.6770   -1.7790   25.7450 C   0  0  0  0  0  0  0  0  0  0  0  0
    1.5940   -2.6540   25.4260 C   0  0  0  0  0  0  0  0  0  0  0  0
    2.0290   -3.9220   25.2280 O   0  0  0  0  0  0  0  0  0  0  0  0
    6.2820   -4.2080   23.9910 C   0  0  0  0  0  0  0  0  0  0  0  0
    7.2350   -4.5180   22.8890 C   0  0  2  0  0  0  0  0  0  0  0  0
    8.0650   -3.2500   22.5950 C   0  0  0  0  0  0  0  0  0  0  0  0
    8.6720   -2.7300   23.8450 C   0  0  0  0  0  0  0  0  0  0  0  0
    9.1180   -2.3350   24.8380 N   0  0  0  0  0  0  0  0  0  0  0  0
  1  2  1  0
  2  3  2  0
  2  4  1  0
  4  5  1  0
  5  6  1  0
  6  7  1  0
  7  8  1  0
  8  9  2  0
  8 10  1  0
 10 11  2  0
 11 12  1  0
 12 13  2  0
 10 14  1  0
 13 14  1  0
  7 15  1  0
  4 16  1  0
 15 16  1  0
 16 17  1  6
 17 18  1  0
 18 19  3  0
M  END
