MAK-UNK-2c1752f0-1
     RDKit          3D

 17 18  0  0  0  0  0  0  0  0999 V2000
   14.8820   -6.0940   20.3200 C   0  0  0  0  0  0  0  0  0  0  0  0
   14.9390   -4.8150   20.6620 C   0  0  0  0  0  0  0  0  0  0  0  0
   13.7450   -4.1240   20.7570 N   0  0  0  0  0  0  0  0  0  0  0  0
   13.2460   -3.0650   21.6540 C   0  0  0  0  0  0  0  0  0  0  0  0
   11.9760   -2.7150   21.3660 C   0  0  0  0  0  0  0  0  0  0  0  0
   11.1400   -1.7590   21.9990 C   0  0  0  0  0  0  0  0  0  0  0  0
    9.8720   -1.6350   21.5140 N   0  0  0  0  0  0  0  0  0  0  0  0
    8.9250   -0.5430   21.9520 C   0  0  0  0  0  0  0  0  0  0  0  0
    8.9090    0.0880   23.1980 O   0  0  0  0  0  0  0  0  0  0  0  0
    7.9110   -0.1770   20.8210 C   0  0  0  0  0  0  0  0  0  0  0  0
    6.9880    0.8810   20.4930 C   0  0  0  0  0  0  0  0  0  0  0  0
    6.5240    2.1120   21.0150 C   0  0  0  0  0  0  0  0  0  0  0  0
    5.9800    1.5320   19.6200 C   0  0  0  0  0  0  0  0  0  0  0  0
    6.4970    0.1700   19.0400 N   0  0  0  0  0  0  0  0  0  0  0  0
    7.4750   -0.7080   19.6460 C   0  0  0  0  0  0  0  0  0  0  0  0
   11.7850   -3.6160   20.2820 C   0  0  0  0  0  0  0  0  0  0  0  0
   12.7990   -4.4240   19.9180 N   0  0  0  0  0  0  0  0  0  0  0  0
  1  2  1  0
  2  3  1  0
  3  4  1  0
  4  5  2  0
  5  6  1  0
  6  7  1  0
  7  8  1  0
  8  9  2  0
  8 10  1  0
 10 11  2  0
 11 12  1  0
 12 13  2  0
 13 14  1  0
 10 15  1  0
 14 15  2  0
  5 16  1  0
  3 17  1  0
 16 17  2  0
M  END
