MAK-UNK-10799360-19-nitrile
     RDKit          3D

 26 29  0  0  0  0  0  0  0  0999 V2000
    6.5850   -4.0880   20.0690 C   0  0  0  0  0  0  0  0  0  0  0  0
    5.8060   -3.4990   19.2320 N   0  0  0  0  0  0  0  0  0  0  0  0
    6.2690   -4.2290   21.3860 N   0  0  0  0  0  0  0  0  0  0  0  0
    6.0070   -5.4860   22.1190 C   0  0  0  0  0  0  0  0  0  0  0  0
    5.7530   -4.9300   23.5850 C   0  0  2  0  0  0  0  0  0  0  0  0
    4.4990   -4.4730   22.7550 C   0  0  0  0  0  0  0  0  0  0  0  0
    5.2180   -3.3960   21.9260 C   0  0  1  0  0  0  0  0  0  0  0  0
    5.6140   -2.6570   23.1830 C   0  0  0  0  0  0  0  0  0  0  0  0
    5.1580   -3.6760   24.1570 N   0  0  0  0  0  0  0  0  0  0  0  0
    5.5790   -3.3110   25.5240 C   0  0  0  0  0  0  0  0  0  0  0  0
    6.0810   -1.8730   25.6860 C   0  0  0  0  0  0  0  0  0  0  0  0
    5.1600   -0.7920   26.2520 C   0  0  0  0  0  0  0  0  0  0  0  0
    5.6470    0.5260   26.4020 C   0  0  0  0  0  0  0  0  0  0  0  0
    6.9620    0.8160   26.0340 C   0  0  0  0  0  0  0  0  0  0  0  0
    7.8780   -0.0900   25.5100 C   0  0  0  0  0  0  0  0  0  0  0  0
    9.1770    0.3250   25.1870 C   0  0  0  0  0  0  0  0  0  0  0  0
    9.4900    0.0090   23.8070 N   0  0  0  0  0  0  0  0  0  0  0  0
    9.7020   -1.2950   23.4460 C   0  0  0  0  0  0  0  0  0  0  0  0
    8.7730   -2.0750   23.3170 O   0  0  0  0  0  0  0  0  0  0  0  0
   11.0140   -1.6600   23.2220 N   0  0  0  0  0  0  0  0  0  0  0  0
   11.4640   -2.2330   21.9490 C   0  0  0  0  0  0  0  0  0  0  0  0
   12.8390   -2.5620   22.0580 C   0  0  0  0  0  0  0  0  0  0  0  0
   13.2270   -1.1740   21.8900 O   0  0  0  0  0  0  0  0  0  0  0  0
   12.7530   -0.3010   22.9330 C   0  0  0  0  0  0  0  0  0  0  0  0
   12.0060   -0.9820   23.8890 C   0  0  0  0  0  0  0  0  0  0  0  0
    7.3920   -1.5140   25.3280 C   0  0  0  0  0  0  0  0  0  0  0  0
  1  2  2  3
  1  3  1  0
  3  4  1  0
  5  4  1  6
  5  6  1  0
  3  7  1  0
  6  7  1  0
  7  8  1  1
  5  9  1  0
  8  9  1  0
  9 10  1  0
 10 11  1  0
 11 12  2  0
 12 13  1  0
 13 14  2  0
 14 15  1  0
 15 16  1  0
 16 17  1  0
 17 18  1  0
 18 19  2  0
 18 20  1  0
 20 21  1  0
 21 22  1  0
 22 23  1  0
 23 24  1  0
 20 25  1  0
 24 25  1  0
 11 26  1  0
 15 26  2  0
M  END
