MAK-UNK-ec98eaf6-27-vinylsulfonamide
     RDKit          3D

 30 34  0  0  0  0  0  0  0  0999 V2000
    7.1750   -5.0360   20.6260 C   0  0  0  0  0  0  0  0  0  0  0  0
    6.3200   -5.7930   21.6450 C   0  0  0  0  0  0  0  0  0  0  0  0
    5.7490   -4.6250   22.8280 S   0  0  0  0  0  0  0  0  0  0  0  0
    4.5620   -3.9550   22.2970 O   0  0  0  0  0  0  0  0  0  0  0  0
    5.7410   -5.2380   24.1410 O   0  0  0  0  0  0  0  0  0  0  0  0
    7.0880   -3.5990   22.7740 N   0  0  0  0  0  0  0  0  0  0  0  0
    7.2430   -2.7960   21.5540 C   0  0  0  0  0  0  0  0  0  0  0  0
    7.2370   -1.3510   22.1100 C   0  0  1  0  0  0  0  0  0  0  0  0
    6.5320   -0.3700   21.1340 C   0  0  0  0  0  0  0  0  0  0  0  0
    5.2940    0.2820   21.7030 C   0  0  0  0  0  0  0  0  0  0  0  0
    4.3910    1.2640   20.9500 C   0  0  0  0  0  0  0  0  0  0  0  0
    4.7090    1.6660   19.4820 C   0  0  0  0  0  0  0  0  0  0  0  0
    5.9220    0.9370   19.1330 C   0  0  0  0  0  0  0  0  0  0  0  0
    6.8720   -0.0530   19.8340 C   0  0  0  0  0  0  0  0  0  0  0  0
    5.2860    0.8790   20.5240 C   0  0  0  0  0  0  0  0  0  0  0  0
    4.7650    2.3090   21.0170 C   0  0  0  0  0  0  0  0  0  0  0  0
    3.7470    3.1720   20.2090 C   0  0  2  0  0  0  0  0  0  0  0  0
    2.0500    3.1610   20.8550 S   0  0  0  0  0  0  0  0  0  0  0  0
    2.2330    2.6550   22.4440 N   0  0  0  0  0  0  0  0  0  0  0  0
    1.2670    2.1270   20.2150 O   0  0  0  0  0  0  0  0  0  0  0  0
    1.5540    4.5140   20.9540 O   0  0  0  0  0  0  0  0  0  0  0  0
    3.7990    2.6020   18.8650 C   0  0  0  0  0  0  0  0  0  0  0  0
    6.4840   -1.6070   23.4810 C   0  0  0  0  0  0  0  0  0  0  0  0
    7.4040   -2.7250   23.9010 C   0  0  2  0  0  0  0  0  0  0  0  0
    8.7760   -2.1070   23.6710 C   0  0  0  0  0  0  0  0  0  0  0  0
   10.0050   -2.4130   24.5250 C   0  0  0  0  0  0  0  0  0  0  0  0
   11.2290   -1.6580   24.0830 C   0  0  0  0  0  0  0  0  0  0  0  0
   11.1630   -0.7160   22.9120 C   0  0  0  0  0  0  0  0  0  0  0  0
    9.8530   -0.5350   22.1820 C   0  0  0  0  0  0  0  0  0  0  0  0
    8.7030   -1.2320   22.5740 C   0  0  0  0  0  0  0  0  0  0  0  0
  1  2  1  0
  3  2  1  0
  3  4  2  0
  3  5  2  0
  3  6  1  0
  6  7  1  0
  7  8  1  0
  8  9  1  6
  9 10  2  0
 10 11  1  0
 11 12  2  0
 12 13  1  0
  9 14  1  0
 13 14  2  0
 13 15  1  0
 15 16  1  0
 16 17  1  0
 17 18  1  1
 18 19  1  0
 18 20  2  0
 18 21  2  0
 12 22  1  0
 17 22  1  0
  8 23  1  0
 24  6  1  6
 23 24  1  0
 24 25  1  0
 25 26  1  0
 26 27  2  0
 27 28  1  0
 28 29  2  0
  8 30  1  0
 25 30  2  0
 29 30  1  0
M  END
