MAK-UNK-e4a48a85-21-vinylsulfonamide
     RDKit          3D

 23 25  0  0  0  0  0  0  0  0999 V2000
    7.5900   -2.9510   18.7680 C   0  0  0  0  0  0  0  0  0  0  0  0
    6.1560   -3.3390   19.0880 C   0  0  0  0  0  0  0  0  0  0  0  0
    5.6910   -2.2280   20.2950 S   0  0  0  0  0  0  0  0  0  0  0  0
    4.7480   -2.9300   21.0250 O   0  0  0  0  0  0  0  0  0  0  0  0
    5.4870   -0.8890   19.7870 O   0  0  0  0  0  0  0  0  0  0  0  0
    6.9070   -2.2930   21.3730 N   0  0  0  0  0  0  0  0  0  0  0  0
    6.4650   -2.5740   22.7350 C   0  0  0  0  0  0  0  0  0  0  0  0
    7.7220   -3.1640   23.3570 C   0  0  0  0  0  0  0  0  0  0  0  0
    8.7560   -2.0910   23.3210 N   0  0  0  0  0  0  0  0  0  0  0  0
    9.8420   -1.9760   24.2920 C   0  0  0  0  0  0  0  0  0  0  0  0
   10.5900   -0.7190   23.9270 C   0  0  0  0  0  0  0  0  0  0  0  0
   12.0200   -1.1050   23.2960 C   0  0  0  0  0  0  0  0  0  0  0  0
   12.2530    0.2830   23.1230 N   0  0  0  0  0  0  0  0  0  0  0  0
   11.4750    1.2660   23.4300 C   0  0  0  0  0  0  0  0  0  0  0  0
   11.8790    2.7330   23.1380 C   0  0  0  0  0  0  0  0  0  0  0  0
   11.0480    3.8820   23.7420 C   0  0  0  0  0  0  0  0  0  0  0  0
   11.7530    5.1780   24.0340 C   0  0  0  0  0  0  0  0  0  0  0  0
   10.7200    6.1270   24.6120 C   0  0  0  0  0  0  0  0  0  0  0  0
    9.1630    5.3730   24.7080 S   0  0  0  0  0  0  0  0  0  0  0  0
    9.6980    3.8690   24.0520 C   0  0  0  0  0  0  0  0  0  0  0  0
   10.0110    0.8610   24.1340 S   0  0  0  0  0  0  0  0  0  0  0  0
    9.1180   -1.6520   21.9650 C   0  0  0  0  0  0  0  0  0  0  0  0
    7.8760   -1.2390   21.2110 C   0  0  0  0  0  0  0  0  0  0  0  0
  1  2  1  0
  3  2  1  0
  3  4  2  0
  3  5  2  0
  3  6  1  0
  6  7  1  0
  7  8  1  0
  8  9  1  0
  9 10  1  0
 10 11  1  0
 11 12  2  0
 12 13  1  0
 13 14  2  0
 14 15  1  0
 15 16  1  0
 16 17  1  0
 17 18  2  0
 18 19  1  0
 16 20  2  0
 19 20  1  0
 11 21  1  0
 14 21  1  0
  9 22  1  0
  6 23  1  0
 22 23  1  0
M  END
