MAK-UNK-8fdbca50-17-nitrile
     RDKit          3D

 38 41  0  0  0  0  0  0  0  0999 V2000
    8.4830   -3.3700   20.1110 C   0  0  0  0  0  0  0  0  0  0  0  0
    7.1690   -3.3620   19.5110 N   0  0  0  0  0  0  0  0  0  0  0  0
    9.2160   -2.3140   21.1770 N   0  0  0  0  0  0  0  0  0  0  0  0
    8.6310   -1.4090   22.2780 C   0  0  0  0  0  0  0  0  0  0  0  0
    8.7990   -2.2520   23.5440 C   0  0  0  0  0  0  0  0  0  0  0  0
    9.9860   -3.0250   22.9910 C   0  0  0  0  0  0  0  0  0  0  0  0
   10.0930   -4.0540   24.0390 C   0  0  0  0  0  0  0  0  0  0  0  0
   11.1750   -4.1120   24.5980 O   0  0  0  0  0  0  0  0  0  0  0  0
    9.0190   -4.8320   24.3420 N   0  0  0  0  0  0  0  0  0  0  0  0
    9.3700   -6.0260   24.6980 C   0  0  0  0  0  0  0  0  0  0  0  0
    8.7150   -6.5890   25.9330 C   0  0  0  0  0  0  0  0  0  0  0  0
    9.2350   -6.9120   23.4530 C   0  0  0  0  0  0  0  0  0  0  0  0
    7.7670   -4.6630   23.8030 C   0  0  1  0  0  0  0  0  0  0  0  0
    7.2090   -5.8160   22.9690 C   0  0  0  0  0  0  0  0  0  0  0  0
    6.9280   -4.1230   24.8020 C   0  0  0  0  0  0  0  0  0  0  0  0
    6.2190   -5.0070   25.6160 C   0  0  0  0  0  0  0  0  0  0  0  0
    5.0360   -5.6700   25.2330 C   0  0  0  0  0  0  0  0  0  0  0  0
    4.5240   -6.4740   26.2000 C   0  0  0  0  0  0  0  0  0  0  0  0
    3.3670   -7.2740   26.1490 C   0  0  0  0  0  0  0  0  0  0  0  0
    3.0280   -7.8400   24.9070 C   0  0  0  0  0  0  0  0  0  0  0  0
    1.9230   -8.6440   24.6820 C   0  0  0  0  0  0  0  0  0  0  0  0
    1.0860   -8.9250   25.7340 C   0  0  0  0  0  0  0  0  0  0  0  0
    1.3860   -8.3830   26.9790 C   0  0  0  0  0  0  0  0  0  0  0  0
    2.5030   -7.5520   27.2550 C   0  0  0  0  0  0  0  0  0  0  0  0
    2.7010   -7.0740   28.4780 F   0  0  0  0  0  0  0  0  0  0  0  0
    5.4290   -6.3550   27.3450 N   0  0  0  0  0  0  0  0  0  0  0  0
    5.4950   -7.0240   28.9280 S   0  0  0  0  0  0  0  0  0  0  0  0
    5.5090   -8.4500   28.8000 O   0  0  0  0  0  0  0  0  0  0  0  0
    6.6050   -6.3290   29.5440 O   0  0  0  0  0  0  0  0  0  0  0  0
    4.0370   -6.4890   29.7510 C   0  0  0  0  0  0  0  0  0  0  0  0
    3.5610   -5.2430   29.5670 C   0  0  0  0  0  0  0  0  0  0  0  0
    2.3020   -4.8110   30.2910 C   0  0  0  0  0  0  0  0  0  0  0  0
    1.6840   -5.8700   31.1860 C   0  0  0  0  0  0  0  0  0  0  0  0
    2.2160   -7.1050   31.3270 N   0  0  0  0  0  0  0  0  0  0  0  0
    3.3690   -7.3920   30.6170 C   0  0  0  0  0  0  0  0  0  0  0  0
    6.4350   -5.4640   26.9390 C   0  0  0  0  0  0  0  0  0  0  0  0
   11.1150   -2.0580   22.7820 C   0  0  0  0  0  0  0  0  0  0  0  0
   10.7050   -1.8760   21.3780 C   0  0  0  0  0  0  0  0  0  0  0  0
  1  2  2  3
  1  3  1  0
  3  4  1  0
  4  5  1  0
  5  6  1  0
  6  7  1  0
  7  8  2  0
  7  9  1  0
  9 10  1  0
 10 11  1  0
 10 12  1  0
  9 13  1  0
 13 14  1  1
 13 15  1  0
 15 16  1  0
 16 17  1  0
 17 18  2  0
 18 19  1  0
 19 20  2  0
 20 21  1  0
 21 22  2  0
 22 23  1  0
 19 24  1  0
 23 24  2  0
 24 25  1  0
 18 26  1  0
 26 27  1  0
 27 28  2  0
 27 29  2  0
 27 30  1  0
 30 31  2  0
 31 32  1  0
 32 33  2  0
 33 34  1  0
 30 35  1  0
 34 35  2  0
 16 36  2  0
 26 36  1  0
  6 37  1  0
  3 38  1  0
 37 38  1  0
M  END
