MAK-UNK-b1d4dcd7-1
     RDKit          3D

 32 36  0  0  0  0  0  0  0  0999 V2000
    4.8530   -3.5370   21.3530 O   0  0  0  0  0  0  0  0  0  0  0  0
    5.4370   -2.4620   21.1840 C   0  0  0  0  0  0  0  0  0  0  0  0
    4.9360   -1.4170   20.1910 C   0  0  1  0  0  0  0  0  0  0  0  0
    4.3120   -0.1520   20.6090 N   0  0  0  0  0  0  0  0  0  0  0  0
    5.1360    0.9980   21.0180 C   0  0  0  0  0  0  0  0  0  0  0  0
    4.6810    2.3910   21.2630 N   0  0  0  0  0  0  0  0  0  0  0  0
    5.8420    3.0380   21.6070 C   0  0  0  0  0  0  0  0  0  0  0  0
    6.1080    4.3590   21.9540 C   0  0  0  0  0  0  0  0  0  0  0  0
    7.4180    4.7410   22.2630 C   0  0  0  0  0  0  0  0  0  0  0  0
    8.5190    3.8860   22.2550 C   0  0  0  0  0  0  0  0  0  0  0  0
    8.4040    2.4040   21.8940 C   0  0  0  0  0  0  0  0  0  0  0  0
    6.9100    2.1330   21.5790 C   0  0  0  0  0  0  0  0  0  0  0  0
    6.4640    0.9030   21.2190 N   0  0  0  0  0  0  0  0  0  0  0  0
    5.8380   -1.1420   19.3970 C   0  0  0  0  0  0  0  0  0  0  0  0
    6.1150    0.2790   19.0000 C   0  0  0  0  0  0  0  0  0  0  0  0
    7.2280    0.3640   18.0800 C   0  0  0  0  0  0  0  0  0  0  0  0
    7.9300   -0.9100   17.6710 C   0  0  0  0  0  0  0  0  0  0  0  0
    7.5130   -2.2360   18.1460 C   0  0  0  0  0  0  0  0  0  0  0  0
    6.4770   -2.2680   18.9840 C   0  0  0  0  0  0  0  0  0  0  0  0
    6.0790   -3.3570   19.4010 O   0  0  0  0  0  0  0  0  0  0  0  0
    6.5750   -2.2810   21.8810 N   0  0  0  0  0  0  0  0  0  0  0  0
    7.5520   -1.2830   21.6250 C   0  0  0  0  0  0  0  0  0  0  0  0
    8.8500   -1.6530   21.9670 C   0  0  0  0  0  0  0  0  0  0  0  0
    8.8830   -2.0960   23.3620 N   0  0  0  0  0  0  0  0  0  0  0  0
   10.2570   -2.3850   23.7660 C   0  0  0  0  0  0  0  0  0  0  0  0
   11.0600   -1.2650   23.5960 C   0  0  0  0  0  0  0  0  0  0  0  0
   12.2400   -1.2470   22.8700 C   0  0  0  0  0  0  0  0  0  0  0  0
   12.8490   -0.0150   22.8510 C   0  0  0  0  0  0  0  0  0  0  0  0
   12.1490    0.9530   23.5640 C   0  0  0  0  0  0  0  0  0  0  0  0
   10.7200    0.2920   24.2630 S   0  0  0  0  0  0  0  0  0  0  0  0
    7.9750   -3.2460   23.5320 C   0  0  0  0  0  0  0  0  0  0  0  0
    6.6570   -2.9540   23.1860 C   0  0  0  0  0  0  0  0  0  0  0  0
  1  2  2  0
  2  3  1  0
  3  4  1  1
  4  5  1  0
  5  6  2  0
  6  7  1  0
  7  8  2  0
  8  9  1  0
  9 10  2  0
 10 11  1  0
  7 12  1  0
 11 12  2  0
  5 13  1  0
 12 13  1  0
  3 14  1  0
 14 15  2  0
 15 16  1  0
 16 17  2  0
 17 18  1  0
 14 19  1  0
 18 19  2  0
 19 20  1  0
  2 21  1  0
 21 22  1  0
 22 23  1  0
 23 24  1  0
 24 25  1  0
 25 26  1  0
 26 27  2  0
 27 28  1  0
 28 29  2  0
 26 30  1  0
 29 30  1  0
 24 31  1  0
 21 32  1  0
 31 32  1  0
M  END
