MAK-UNK-e4a48a85-1-vinylsulfonamide
     RDKit          3D

 22 23  0  0  0  0  0  0  0  0999 V2000
    6.2160   -5.4150   20.5850 C   0  0  0  0  0  0  0  0  0  0  0  0
    6.7430   -5.7960   21.9840 C   0  0  0  0  0  0  0  0  0  0  0  0
    5.7790   -4.9640   23.2310 S   0  0  0  0  0  0  0  0  0  0  0  0
    4.6860   -4.2780   22.2960 O   0  0  0  0  0  0  0  0  0  0  0  0
    5.3110   -6.0190   24.1000 O   0  0  0  0  0  0  0  0  0  0  0  0
    6.9980   -4.0870   24.2260 N   0  0  0  0  0  0  0  0  0  0  0  0
    8.2130   -4.7800   24.8130 C   0  0  0  0  0  0  0  0  0  0  0  0
    9.1750   -3.8000   25.5810 C   0  0  0  0  0  0  0  0  0  0  0  0
    8.9620   -2.3490   25.1980 N   0  0  0  0  0  0  0  0  0  0  0  0
    9.3750   -1.8360   23.8670 C   0  0  0  0  0  0  0  0  0  0  0  0
   10.6310   -0.9250   23.7650 C   0  0  1  0  0  0  0  0  0  0  0  0
   11.6790   -1.1730   24.7870 N   0  0  0  0  0  0  0  0  0  0  0  0
   11.2240   -1.1140   22.3930 C   0  0  0  0  0  0  0  0  0  0  0  0
   12.4350   -1.3180   22.1800 O   0  0  0  0  0  0  0  0  0  0  0  0
   10.0650   -0.9870   21.4810 N   0  0  0  0  0  0  0  0  0  0  0  0
    9.0670    0.0220   21.5520 C   0  0  0  0  0  0  0  0  0  0  0  0
    8.2530   -0.9450   20.8810 C   0  0  0  0  0  0  0  0  0  0  0  0
    6.8730   -0.7370   20.4850 C   0  0  0  0  0  0  0  0  0  0  0  0
    6.1550    0.7520   20.8380 S   0  0  0  0  0  0  0  0  0  0  0  0
    7.7440    0.7250   21.3810 C   0  0  0  0  0  0  0  0  0  0  0  0
    7.5080   -2.0400   25.3670 C   0  0  0  0  0  0  0  0  0  0  0  0
    6.6830   -3.1780   25.3470 C   0  0  0  0  0  0  0  0  0  0  0  0
  1  2  1  0
  3  2  1  0
  3  4  2  0
  3  5  2  0
  3  6  1  0
  6  7  1  0
  7  8  1  0
  8  9  1  0
  9 10  1  0
 10 11  1  0
 11 12  1  1
 11 13  1  0
 13 14  2  0
 13 15  1  0
 15 16  1  0
 16 17  1  0
 17 18  2  0
 18 19  1  0
 16 20  2  0
 19 20  1  0
  9 21  1  0
  6 22  1  0
 21 22  1  0
M  END
