MAK-UNK-10dfa458-14-vinylsulfonamide
     RDKit          3D

 27 29  0  0  0  0  0  0  0  0999 V2000
    6.0020   -4.9250   20.6930 C   0  0  0  0  0  0  0  0  0  0  0  0
    5.4120   -3.7660   21.5970 C   0  0  0  0  0  0  0  0  0  0  0  0
    4.4510   -4.2680   23.0760 S   0  0  0  0  0  0  0  0  0  0  0  0
    3.1920   -4.8810   22.7380 O   0  0  0  0  0  0  0  0  0  0  0  0
    4.4840   -3.1930   24.0450 O   0  0  0  0  0  0  0  0  0  0  0  0
    5.2820   -5.4800   23.7540 N   0  0  0  0  0  0  0  0  0  0  0  0
    5.9910   -6.4250   22.9230 C   0  0  0  0  0  0  0  0  0  0  0  0
    7.4430   -5.8880   23.0260 C   0  0  0  0  0  0  0  0  0  0  0  0
    7.6010   -4.5320   23.6710 N   0  0  0  0  0  0  0  0  0  0  0  0
    7.0520   -3.2900   23.0640 C   0  0  0  0  0  0  0  0  0  0  0  0
    8.0520   -2.1140   23.0310 C   0  0  0  0  0  0  0  0  0  0  0  0
    9.3700   -2.8150   22.8250 C   0  0  0  0  0  0  0  0  0  0  0  0
   10.5380   -1.8180   22.7560 C   0  0  0  0  0  0  0  0  0  0  0  0
   10.3390   -0.3240   22.8890 C   0  0  0  0  0  0  0  0  0  0  0  0
    8.9180    0.1910   23.1000 C   0  0  0  0  0  0  0  0  0  0  0  0
    8.5400    1.5000   23.2550 O   0  0  0  0  0  0  0  0  0  0  0  0
    9.0710    2.5260   22.4040 C   0  0  2  0  0  0  0  0  0  0  0  0
   10.3000    3.1030   22.7490 C   0  0  0  0  0  0  0  0  0  0  0  0
   10.2000    3.9900   23.8740 C   0  0  0  0  0  0  0  0  0  0  0  0
    9.3060    5.0410   23.6840 C   0  0  0  0  0  0  0  0  0  0  0  0
    7.9770    4.6810   23.4600 C   0  0  1  0  0  0  0  0  0  0  0  0
    7.3310    5.8940   23.0060 O   0  0  0  0  0  0  0  0  0  0  0  0
    7.8180    6.4720   21.7870 C   0  0  0  0  0  0  0  0  0  0  0  0
    7.9840    3.6350   22.3180 C   0  0  0  0  0  0  0  0  0  0  0  0
    7.8440   -0.7230   23.1590 C   0  0  0  0  0  0  0  0  0  0  0  0
    7.1060   -4.6510   25.0270 C   0  0  0  0  0  0  0  0  0  0  0  0
    5.8060   -5.1720   25.0890 C   0  0  0  0  0  0  0  0  0  0  0  0
  1  2  1  0
  3  2  1  0
  3  4  2  0
  3  5  2  0
  3  6  1  0
  6  7  1  0
  7  8  1  0
  8  9  1  0
  9 10  1  0
 10 11  1  0
 11 12  2  0
 12 13  1  0
 13 14  2  0
 14 15  1  0
 15 16  1  0
 17 16  1  1
 17 18  1  0
 18 19  1  0
 19 20  1  0
 20 21  1  0
 21 22  1  6
 22 23  1  0
 17 24  1  0
 21 24  1  0
 11 25  1  0
 15 25  2  0
  9 26  1  0
  6 27  1  0
 26 27  1  0
M  END
