MAK-UNK-d4768348-4-vinylsulfonamide
     RDKit          3D

 19 20  0  0  0  0  0  0  0  0999 V2000
    8.2130   -3.7270   20.2220 C   0  0  0  0  0  0  0  0  0  0  0  0
    6.9830   -2.9280   20.0090 C   0  0  0  0  0  0  0  0  0  0  0  0
    5.7090   -3.9230   20.6970 S   0  0  0  0  0  0  0  0  0  0  0  0
    4.7840   -3.1210   21.4300 O   0  0  0  0  0  0  0  0  0  0  0  0
    5.2440   -4.7890   19.6620 O   0  0  0  0  0  0  0  0  0  0  0  0
    6.4560   -4.9660   21.8020 N   0  0  0  0  0  0  0  0  0  0  0  0
    5.6690   -6.1390   22.1250 C   0  0  0  0  0  0  0  0  0  0  0  0
    4.6810   -5.8500   23.2580 C   0  0  0  0  0  0  0  0  0  0  0  0
    5.3740   -5.2040   24.4080 N   0  0  0  0  0  0  0  0  0  0  0  0
    4.6180   -5.0780   25.9140 S   0  0  0  0  0  0  0  0  0  0  0  0
    5.6060   -4.5890   26.8360 O   0  0  0  0  0  0  0  0  0  0  0  0
    3.8490   -6.2810   26.1250 O   0  0  0  0  0  0  0  0  0  0  0  0
    3.4200   -3.7750   25.7010 C   0  0  0  0  0  0  0  0  0  0  0  0
    3.6270   -2.4640   26.1050 C   0  0  0  0  0  0  0  0  0  0  0  0
    2.6210   -1.5220   25.9110 C   0  0  0  0  0  0  0  0  0  0  0  0
    1.1490   -2.5420   25.6150 S   0  0  0  0  0  0  0  0  0  0  0  0
    2.0940   -3.9110   25.1000 N   0  0  0  0  0  0  0  0  0  0  0  0
    6.0780   -4.1430   23.9690 C   0  0  0  0  0  0  0  0  0  0  0  0
    7.0880   -4.4000   22.8830 C   0  0  0  0  0  0  0  0  0  0  0  0
  1  2  1  0
  3  2  1  0
  3  4  2  0
  3  5  2  0
  3  6  1  0
  6  7  1  0
  7  8  1  0
  8  9  1  0
  9 10  1  0
 10 11  2  0
 10 12  2  0
 10 13  1  0
 13 14  2  0
 14 15  1  0
 15 16  1  0
 13 17  1  0
 16 17  2  0
  9 18  1  0
  6 19  1  0
 18 19  1  0
M  END
