MAK-UNK-8fdbca50-1-chloroacetamide
     RDKit          3D

 39 42  0  0  0  0  0  0  0  0999 V2000
    8.1350   -3.6840   16.6650 C   0  0  0  0  0  0  0  0  0  0  0  0
    7.7210   -4.9660   15.2980 C   0  0  0  0  0  0  0  0  0  0  0  0
    7.7650   -5.3970   14.3420 O   0  0  0  0  0  0  0  0  0  0  0  0
    6.4040   -7.4660   15.2640 N   0  0  0  0  0  0  0  0  0  0  0  0
    5.2040   -7.8010   14.3050 C   0  0  0  0  0  0  0  0  0  0  0  0
    4.3430   -7.9550   15.6930 C   0  0  0  0  0  0  0  0  0  0  0  0
    5.2460   -8.0160   17.1920 C   0  0  0  0  0  0  0  0  0  0  0  0
    5.2070   -7.1780   18.9110 C   0  0  0  0  0  0  0  0  0  0  0  0
    4.7430   -7.6680   19.8280 O   0  0  0  0  0  0  0  0  0  0  0  0
    5.6220   -5.7790   19.7010 N   0  0  0  0  0  0  0  0  0  0  0  0
    5.7850   -6.1190   21.1310 C   0  0  0  0  0  0  0  0  0  0  0  0
    5.6060   -4.2060   19.7470 C   0  0  2  0  0  0  0  0  0  0  0  0
    5.9840   -3.1410   18.7110 C   0  0  0  0  0  0  0  0  0  0  0  0
    6.0990   -3.7720   20.9760 C   0  0  0  0  0  0  0  0  0  0  0  0
    5.1740   -4.0180   21.9440 N   0  0  0  0  0  0  0  0  0  0  0  0
    4.9550   -3.0610   22.8580 C   0  0  0  0  0  0  0  0  0  0  0  0
    5.8890   -2.0580   23.0390 C   0  0  0  0  0  0  0  0  0  0  0  0
    5.7330   -0.7550   22.5870 C   0  0  0  0  0  0  0  0  0  0  0  0
    6.8460   -0.0350   22.9330 C   0  0  0  0  0  0  0  0  0  0  0  0
    7.0190    1.3090   22.6250 C   0  0  0  0  0  0  0  0  0  0  0  0
    8.3040    1.7570   22.1530 C   0  0  0  0  0  0  0  0  0  0  0  0
    8.5310    3.0970   21.8370 C   0  0  0  0  0  0  0  0  0  0  0  0
    7.5500    4.0640   21.9520 C   0  0  0  0  0  0  0  0  0  0  0  0
    6.3290    3.6010   22.4050 C   0  0  0  0  0  0  0  0  0  0  0  0
    5.9820    2.2680   22.7580 C   0  0  0  0  0  0  0  0  0  0  0  0
    4.7490    1.9670   23.1880 F   0  0  0  0  0  0  0  0  0  0  0  0
    7.7100   -0.8420   23.5980 N   0  0  0  0  0  0  0  0  0  0  0  0
    9.2380   -0.4490   24.2370 S   0  0  0  0  0  0  0  0  0  0  0  0
    9.3260   -1.1420   25.5070 O   0  0  0  0  0  0  0  0  0  0  0  0
    9.3580    0.9950   24.1370 O   0  0  0  0  0  0  0  0  0  0  0  0
   10.3110   -1.2530   23.1080 C   0  0  0  0  0  0  0  0  0  0  0  0
   11.4370   -1.7960   22.1620 C   0  0  0  0  0  0  0  0  0  0  0  0
   12.7180   -1.3420   21.9340 C   0  0  0  0  0  0  0  0  0  0  0  0
   13.0940   -0.1640   22.6740 C   0  0  0  0  0  0  0  0  0  0  0  0
   12.2690    0.4090   23.5020 N   0  0  0  0  0  0  0  0  0  0  0  0
   11.0030   -0.1230   23.6730 C   0  0  0  0  0  0  0  0  0  0  0  0
    7.1340   -2.1050   23.6760 C   0  0  0  0  0  0  0  0  0  0  0  0
    4.1890   -9.0750   16.8620 C   0  0  0  0  0  0  0  0  0  0  0  0
    5.0070   -7.9240   15.9940 C   0  0  0  0  0  0  0  0  0  0  0  0
  1  2  1  0
  2  3  2  0
  2  4  1  0
  4  5  1  0
  5  6  1  0
  6  7  1  0
  7  8  1  0
  8  9  2  0
  8 10  1  0
 10 11  1  0
 10 12  1  0
 12 13  1  6
 12 14  1  0
 14 15  1  0
 15 16  1  0
 16 17  1  0
 17 18  1  0
 18 19  2  0
 19 20  1  0
 20 21  2  0
 21 22  1  0
 22 23  2  0
 23 24  1  0
 20 25  1  0
 24 25  2  0
 25 26  1  0
 19 27  1  0
 27 28  1  0
 28 29  2  0
 28 30  2  0
 28 31  1  0
 31 32  2  0
 32 33  1  0
 33 34  2  0
 34 35  1  0
 31 36  1  0
 35 36  2  0
 17 37  2  0
 27 37  1  0
  7 38  1  0
  4 39  1  0
 38 39  1  0
M  END
