MAK-UNK-5d2caa6f-15-chloroacetamide
     RDKit          3D

 23 26  0  0  0  0  0  0  0  0999 V2000
    7.2640   -3.0740   18.8930 C   0  0  0  0  0  0  0  0  0  0  0  0
    6.2560   -3.4010   19.9660 C   0  0  0  0  0  0  0  0  0  0  0  0
    5.3830   -4.2530   19.8010 O   0  0  0  0  0  0  0  0  0  0  0  0
    6.4190   -2.6750   21.1120 N   0  0  0  0  0  0  0  0  0  0  0  0
    7.1890   -1.4300   21.1060 C   0  0  0  0  0  0  0  0  0  0  0  0
    7.2530   -0.9470   22.4030 C   0  0  1  0  0  0  0  0  0  0  0  0
    5.8380   -1.0980   22.4910 C   0  0  0  0  0  0  0  0  0  0  0  0
    5.6310   -2.5820   22.3510 C   0  0  2  0  0  0  0  0  0  0  0  0
    6.4990   -3.0430   23.4630 C   0  0  0  0  0  0  0  0  0  0  0  0
    7.2540   -1.7450   23.7850 C   0  0  1  0  0  0  0  0  0  0  0  0
    8.6820   -1.9170   24.2680 C   0  0  0  0  0  0  0  0  0  0  0  0
    8.9120   -2.5090   25.3180 O   0  0  0  0  0  0  0  0  0  0  0  0
    9.6040   -1.3960   23.4930 N   0  0  0  0  0  0  0  0  0  0  0  0
   10.0600   -0.0700   23.9550 C   0  0  0  0  0  0  0  0  0  0  0  0
   10.8230    1.2470   24.2530 C   0  0  0  0  0  0  0  0  0  0  0  0
   12.0410    1.4340   23.7210 N   0  0  0  0  0  0  0  0  0  0  0  0
   12.2180    0.2760   23.0020 C   0  0  0  0  0  0  0  0  0  0  0  0
   13.4400    0.0060   22.2200 C   0  0  0  0  0  0  0  0  0  0  0  0
   13.4740   -1.1730   21.5240 C   0  0  0  0  0  0  0  0  0  0  0  0
   12.4070   -2.1610   21.5280 C   0  0  0  0  0  0  0  0  0  0  0  0
   12.6950   -3.7240   20.5130 Br  0  0  0  0  0  0  0  0  0  0  0  0
   11.2040   -1.8180   22.3440 C   0  0  0  0  0  0  0  0  0  0  0  0
   11.1300   -0.5270   23.1230 C   0  0  0  0  0  0  0  0  0  0  0  0
  1  2  1  0
  2  3  2  0
  2  4  1  0
  4  5  1  0
  6  5  1  6
  6  7  1  0
  4  8  1  0
  7  8  1  0
  8  9  1  1
  6 10  1  0
  9 10  1  0
 10 11  1  6
 11 12  2  0
 11 13  1  0
 13 14  1  0
 14 15  2  0
 15 16  1  0
 16 17  1  0
 17 18  1  0
 18 19  2  0
 19 20  1  0
 20 21  1  0
 20 22  2  0
 14 23  1  0
 17 23  2  0
 22 23  1  0
M  END
