MAK-UNK-8fdbca50-31-chloroacetamide
     RDKit          3D

 39 42  0  0  0  0  0  0  0  0999 V2000
    7.4070   -2.8840   18.7580 C   0  0  0  0  0  0  0  0  0  0  0  0
    6.2190   -2.7690   19.6740 C   0  0  0  0  0  0  0  0  0  0  0  0
    5.3470   -3.6720   19.5640 O   0  0  0  0  0  0  0  0  0  0  0  0
    6.1670   -1.6390   20.5320 N   0  0  0  0  0  0  0  0  0  0  0  0
    6.4460   -0.2460   20.1020 C   0  0  0  0  0  0  0  0  0  0  0  0
    7.6690    0.2390   20.9780 C   0  0  0  0  0  0  0  0  0  0  0  0
    7.0020    0.4420   22.3750 C   0  0  0  0  0  0  0  0  0  0  0  0
    8.0410    1.3910   23.1060 C   0  0  0  0  0  0  0  0  0  0  0  0
    8.2070    2.5290   22.6560 O   0  0  0  0  0  0  0  0  0  0  0  0
    8.8150    0.9360   24.3170 N   0  0  0  0  0  0  0  0  0  0  0  0
   10.0620    0.2070   24.0070 C   0  0  0  0  0  0  0  0  0  0  0  0
   11.2360    1.0930   23.5450 C   0  0  0  0  0  0  0  0  0  0  0  0
   12.3340    0.1860   23.2450 C   0  0  0  0  0  0  0  0  0  0  0  0
   12.6030   -1.2540   23.2710 C   0  0  0  0  0  0  0  0  0  0  0  0
   11.4080   -1.9130   23.7540 C   0  0  0  0  0  0  0  0  0  0  0  0
   11.4280   -3.2380   23.8900 F   0  0  0  0  0  0  0  0  0  0  0  0
   10.1940   -1.2010   24.0960 C   0  0  0  0  0  0  0  0  0  0  0  0
    8.9940   -1.8780   24.5540 C   0  0  0  0  0  0  0  0  0  0  0  0
    7.9400   -1.4170   25.3330 C   0  0  0  0  0  0  0  0  0  0  0  0
    6.9910   -2.4010   25.5140 C   0  0  0  0  0  0  0  0  0  0  0  0
    5.7940   -2.2430   26.2590 C   0  0  0  0  0  0  0  0  0  0  0  0
    4.6880   -1.6840   25.6590 N   0  0  0  0  0  0  0  0  0  0  0  0
    4.1120   -1.9150   24.3980 C   0  0  0  0  0  0  0  0  0  0  0  0
    7.4980   -3.5000   24.8200 C   0  0  0  0  0  0  0  0  0  0  0  0
    8.5450   -3.1750   24.3340 N   0  0  0  0  0  0  0  0  0  0  0  0
    9.3600   -4.3140   23.4200 S   0  0  0  0  0  0  0  0  0  0  0  0
    9.9320   -3.5530   22.3470 O   0  0  0  0  0  0  0  0  0  0  0  0
   10.0970   -5.1510   24.3470 O   0  0  0  0  0  0  0  0  0  0  0  0
    7.9590   -5.1340   22.8660 C   0  0  0  0  0  0  0  0  0  0  0  0
    7.8510   -6.4900   22.9290 C   0  0  0  0  0  0  0  0  0  0  0  0
    6.6080   -7.1460   22.4590 C   0  0  0  0  0  0  0  0  0  0  0  0
    5.6340   -6.3720   21.9800 C   0  0  0  0  0  0  0  0  0  0  0  0
    5.7340   -5.0210   21.9070 N   0  0  0  0  0  0  0  0  0  0  0  0
    6.8840   -4.4350   22.3480 C   0  0  0  0  0  0  0  0  0  0  0  0
    7.9390    0.4330   25.4010 C   0  0  0  0  0  0  0  0  0  0  0  0
    8.5720   -0.0000   26.7510 C   0  0  0  0  0  0  0  0  0  0  0  0
    6.6770    1.2760   25.6270 C   0  0  0  0  0  0  0  0  0  0  0  0
    6.6750   -0.9400   22.9390 C   0  0  0  0  0  0  0  0  0  0  0  0
    5.7280   -1.6950   21.9400 C   0  0  0  0  0  0  0  0  0  0  0  0
  1  2  1  0
  2  3  2  0
  2  4  1  0
  4  5  1  0
  5  6  1  0
  6  7  1  0
  7  8  1  0
  8  9  2  0
  8 10  1  0
 10 11  1  0
 11 12  2  0
 12 13  1  0
 13 14  2  0
 14 15  1  0
 15 16  1  0
 11 17  1  0
 15 17  2  0
 17 18  1  0
 18 19  2  0
 19 20  1  0
 20 21  1  0
 21 22  1  0
 22 23  1  0
 20 24  2  0
 18 25  1  0
 24 25  1  0
 25 26  1  0
 26 27  2  0
 26 28  2  0
 26 29  1  0
 29 30  2  0
 30 31  1  0
 31 32  2  0
 32 33  1  0
 29 34  1  0
 33 34  2  0
 10 35  1  0
 35 36  1  0
 35 37  1  0
  7 38  1  0
  4 39  1  0
 38 39  1  0
M  END
