MAK-UNK-f2409524-19
     RDKit          3D

 24 25  0  0  0  0  0  0  0  0999 V2000
    9.9870   -0.7610   22.2700 C   0  0  0  0  0  0  0  0  0  0  0  0
    8.9220    0.0450   21.5680 C   0  0  0  0  0  0  0  0  0  0  0  0
    9.0930    1.2360   21.2410 O   0  0  0  0  0  0  0  0  0  0  0  0
    7.7560   -0.6590   21.3120 N   0  0  0  0  0  0  0  0  0  0  0  0
    6.7640   -0.1360   20.3880 C   0  0  0  0  0  0  0  0  0  0  0  0
    7.0920   -0.2790   18.9060 C   0  0  0  0  0  0  0  0  0  0  0  0
    6.1260    0.2580   17.9690 N   0  0  0  0  0  0  0  0  0  0  0  0
    4.9580    0.8650   18.3920 C   0  0  0  0  0  0  0  0  0  0  0  0
    4.7160    0.9500   19.7420 C   0  0  0  0  0  0  0  0  0  0  0  0
    5.5550    0.4810   20.7490 C   0  0  0  0  0  0  0  0  0  0  0  0
    5.1040    0.6700   22.0560 N   0  0  0  0  0  0  0  0  0  0  0  0
    5.0590    1.8710   22.8170 C   0  0  2  0  0  0  0  0  0  0  0  0
    5.0900    1.7690   24.3330 C   0  0  0  0  0  0  0  0  0  0  0  0
    5.9720    0.8770   24.8750 O   0  0  0  0  0  0  0  0  0  0  0  0
    3.9850    2.6800   22.6160 N   0  0  0  0  0  0  0  0  0  0  0  0
    2.7840    2.4400   23.2380 C   0  0  0  0  0  0  0  0  0  0  0  0
    2.7100    1.5580   24.0880 O   0  0  0  0  0  0  0  0  0  0  0  0
    1.7120    3.1840   22.8890 N   0  0  0  0  0  0  0  0  0  0  0  0
    0.7270    3.3520   23.8150 C   0  0  0  0  0  0  0  0  0  0  0  0
    0.5780    4.6220   24.4000 C   0  0  0  0  0  0  0  0  0  0  0  0
   -0.6310    4.7590   25.0850 C   0  0  0  0  0  0  0  0  0  0  0  0
   -1.7200    4.5260   24.2570 C   0  0  0  0  0  0  0  0  0  0  0  0
   -1.6750    3.2100   23.7620 C   0  0  0  0  0  0  0  0  0  0  0  0
   -0.4500    2.8950   23.1790 C   0  0  0  0  0  0  0  0  0  0  0  0
  1  2  1  0
  2  3  2  0
  2  4  1  0
  4  5  1  0
  5  6  2  0
  6  7  1  0
  7  8  2  0
  8  9  1  0
  5 10  1  0
  9 10  2  0
 10 11  1  0
 11 12  1  0
 12 13  1  1
 13 14  2  0
 12 15  1  0
 15 16  1  0
 16 17  2  0
 16 18  1  0
 18 19  1  0
 19 20  1  0
 20 21  1  0
 21 22  1  0
 22 23  1  0
 19 24  1  0
 23 24  1  0
M  END
