MAK-UNK-8fdbca50-2-vinylsulfonamide
     RDKit          3D

 41 44  0  0  0  0  0  0  0  0999 V2000
    6.4950   -5.1410   20.3630 C   0  0  0  0  0  0  0  0  0  0  0  0
    5.9970   -5.9990   21.5630 C   0  0  0  0  0  0  0  0  0  0  0  0
    5.2400   -5.2410   23.0050 S   0  0  0  0  0  0  0  0  0  0  0  0
    3.9960   -4.6060   22.6450 O   0  0  0  0  0  0  0  0  0  0  0  0
    5.2370   -6.2420   24.0530 O   0  0  0  0  0  0  0  0  0  0  0  0
    6.2060   -3.9710   23.5840 N   0  0  0  0  0  0  0  0  0  0  0  0
    5.5090   -3.1050   24.5240 C   0  0  0  0  0  0  0  0  0  0  0  0
    4.7110   -1.9870   23.8150 C   0  0  0  0  0  0  0  0  0  0  0  0
    5.5270   -1.2780   22.7770 C   0  0  0  0  0  0  0  0  0  0  0  0
    4.9520   -0.3430   21.9150 C   0  0  0  0  0  0  0  0  0  0  0  0
    4.2220    0.4650   22.4760 O   0  0  0  0  0  0  0  0  0  0  0  0
    5.2690   -0.4370   20.5670 N   0  0  0  0  0  0  0  0  0  0  0  0
    4.3470    0.2910   19.8510 C   0  0  0  0  0  0  0  0  0  0  0  0
    6.4610   -0.1940   20.0160 C   0  0  2  0  0  0  0  0  0  0  0  0
    6.4570    0.8300   18.9020 C   0  0  0  0  0  0  0  0  0  0  0  0
    7.0590   -1.5260   19.4620 C   0  0  2  0  0  0  0  0  0  0  0  0
    6.1090   -2.3380   18.9640 C   0  0  0  0  0  0  0  0  0  0  0  0
    7.8910   -2.2300   20.5040 C   0  0  0  0  0  0  0  0  0  0  0  0
    8.6200   -1.4140   21.3690 C   0  0  0  0  0  0  0  0  0  0  0  0
    8.0750   -0.3200   21.9860 C   0  0  0  0  0  0  0  0  0  0  0  0
    9.0430    0.2220   22.7510 C   0  0  0  0  0  0  0  0  0  0  0  0
    8.7830    1.3480   23.5140 C   0  0  0  0  0  0  0  0  0  0  0  0
    8.2880    1.3070   24.8040 C   0  0  0  0  0  0  0  0  0  0  0  0
    7.9950    2.4290   25.5490 C   0  0  0  0  0  0  0  0  0  0  0  0
    8.2120    3.6680   24.9730 C   0  0  0  0  0  0  0  0  0  0  0  0
    8.7120    3.8380   23.6870 C   0  0  0  0  0  0  0  0  0  0  0  0
    9.0260    2.7380   22.8790 C   0  0  0  0  0  0  0  0  0  0  0  0
    9.4940    2.8970   21.6430 F   0  0  0  0  0  0  0  0  0  0  0  0
   10.2380   -0.4130   22.7100 N   0  0  0  0  0  0  0  0  0  0  0  0
   11.7860   -0.1610   23.4720 S   0  0  0  0  0  0  0  0  0  0  0  0
   11.8210    1.1310   24.1490 O   0  0  0  0  0  0  0  0  0  0  0  0
   12.7600   -0.4760   22.4360 O   0  0  0  0  0  0  0  0  0  0  0  0
   11.8510   -1.4620   24.6390 C   0  0  0  0  0  0  0  0  0  0  0  0
   12.7690   -1.7520   23.7040 C   0  0  0  0  0  0  0  0  0  0  0  0
   12.8040   -0.7300   22.7830 C   0  0  0  0  0  0  0  0  0  0  0  0
   11.9040    0.3820   22.9910 C   0  0  0  0  0  0  0  0  0  0  0  0
   10.9810    0.4930   24.0720 N   0  0  0  0  0  0  0  0  0  0  0  0
   10.9550   -0.5390   24.9870 C   0  0  0  0  0  0  0  0  0  0  0  0
    9.9790   -1.4770   21.8170 C   0  0  0  0  0  0  0  0  0  0  0  0
    6.0440   -2.4110   21.8870 C   0  0  0  0  0  0  0  0  0  0  0  0
    6.9310   -3.2340   22.5800 C   0  0  0  0  0  0  0  0  0  0  0  0
  1  2  1  0
  3  2  1  0
  3  4  2  0
  3  5  2  0
  3  6  1  0
  6  7  1  0
  7  8  1  0
  8  9  1  0
  9 10  1  0
 10 11  2  0
 10 12  1  0
 12 13  1  0
 12 14  1  0
 14 15  1  6
 14 16  1  0
 16 17  1  1
 16 18  1  0
 18 19  1  0
 19 20  1  0
 20 21  2  0
 21 22  1  0
 22 23  2  0
 23 24  1  0
 24 25  2  0
 25 26  1  0
 22 27  1  0
 26 27  2  0
 27 28  1  0
 21 29  1  0
 29 30  1  0
 30 31  2  0
 30 32  2  0
 30 33  1  0
 33 34  2  0
 34 35  1  0
 35 36  2  0
 36 37  1  0
 33 38  1  0
 37 38  2  0
 19 39  2  0
 29 39  1  0
  9 40  1  0
  6 41  1  0
 40 41  1  0
M  END
