MAK-UNK-ec98eaf6-21-chloroacetamide
     RDKit          3D

 22 24  0  0  0  0  0  0  0  0999 V2000
    7.2420   -3.0190   18.8970 C   0  0  0  0  0  0  0  0  0  0  0  0
    6.2880   -3.3930   19.9940 C   0  0  0  0  0  0  0  0  0  0  0  0
    5.3720   -4.2030   19.7880 O   0  0  0  0  0  0  0  0  0  0  0  0
    6.4890   -2.8190   21.2270 N   0  0  0  0  0  0  0  0  0  0  0  0
    6.8630   -3.5620   22.4820 C   0  0  0  0  0  0  0  0  0  0  0  0
    6.9460   -2.3600   23.4690 C   0  0  2  0  0  0  0  0  0  0  0  0
    6.1370   -1.2590   22.7820 C   0  0  0  0  0  0  0  0  0  0  0  0
    6.8830   -1.4060   21.4890 C   0  0  1  0  0  0  0  0  0  0  0  0
    8.3210   -1.4240   21.9340 C   0  0  0  0  0  0  0  0  0  0  0  0
    8.2770   -1.6560   23.2860 N   0  0  0  0  0  0  0  0  0  0  0  0
    9.5000   -2.1970   23.8970 C   0  0  0  0  0  0  0  0  0  0  0  0
   10.6590   -1.2430   23.5700 C   0  0  0  0  0  0  0  0  0  0  0  0
   10.2180    0.1780   23.9630 C   0  0  0  0  0  0  0  0  0  0  0  0
   11.1940    1.3250   23.7010 C   0  0  0  0  0  0  0  0  0  0  0  0
   10.7820    2.7360   24.0340 C   0  0  0  0  0  0  0  0  0  0  0  0
   10.4450    3.8220   24.2540 N   0  0  0  0  0  0  0  0  0  0  0  0
   12.4450    1.0560   23.1410 C   0  0  0  0  0  0  0  0  0  0  0  0
   12.8740   -0.3270   22.7640 C   0  0  0  0  0  0  0  0  0  0  0  0
   12.0020   -1.5330   22.9580 C   0  0  0  0  0  0  0  0  0  0  0  0
   12.4480   -2.7590   22.5640 N   0  0  0  0  0  0  0  0  0  0  0  0
   12.5040   -2.6990   21.1270 C   0  0  0  0  0  0  0  0  0  0  0  0
   13.5800   -3.5910   20.5880 C   0  0  0  0  0  0  0  0  0  0  0  0
  1  2  1  0
  2  3  2  0
  2  4  1  0
  4  5  1  0
  6  5  1  6
  6  7  1  0
  4  8  1  0
  7  8  1  0
  8  9  1  1
  6 10  1  0
  9 10  1  0
 10 11  1  0
 11 12  1  0
 12 13  2  0
 13 14  1  0
 14 15  1  0
 15 16  3  0
 14 17  2  0
 17 18  1  0
 12 19  1  0
 18 19  2  0
 19 20  1  0
 20 21  1  0
 21 22  1  0
M  END
