MAK-UNK-e05327b2-3-nitrile
     RDKit          3D

 49 55  0  0  0  0  0  0  0  0999 V2000
    6.4160   -4.4380   20.3950 C   0  0  0  0  0  0  0  0  0  0  0  0
    5.3220   -4.2120   19.8380 N   0  0  0  0  0  0  0  0  0  0  0  0
    6.4440   -4.8960   21.7280 N   0  0  0  0  0  0  0  0  0  0  0  0
    7.5430   -4.6540   22.7000 C   0  0  0  0  0  0  0  0  0  0  0  0
    6.3680   -4.2480   23.4430 C   0  0  0  0  0  0  0  0  0  0  0  0
    5.6740   -5.3660   24.1050 N   0  0  0  0  0  0  0  0  0  0  0  0
    4.9830   -5.3010   25.6530 S   0  0  0  0  0  0  0  0  0  0  0  0
    6.0270   -5.2410   26.6380 O   0  0  0  0  0  0  0  0  0  0  0  0
    3.9420   -6.2970   25.7370 O   0  0  0  0  0  0  0  0  0  0  0  0
    4.1600   -3.7280   25.7840 C   0  0  0  0  0  0  0  0  0  0  0  0
    4.6790   -2.2920   25.8670 C   0  0  0  0  0  0  0  0  0  0  0  0
    3.5580   -1.3190   25.9770 C   0  0  0  0  0  0  0  0  0  0  0  0
    2.1970   -1.9740   25.9800 C   0  0  0  0  0  0  0  0  0  0  0  0
    0.9540   -1.3100   26.0870 C   0  0  0  0  0  0  0  0  0  0  0  0
    0.6370   -0.7320   24.9100 N   0  0  0  0  0  0  0  0  0  0  0  0
    1.1560    0.5150   24.7820 C   0  0  0  0  0  0  0  0  0  0  0  0
    0.3080    1.4310   25.4210 C   0  0  0  0  0  0  0  0  0  0  0  0
   -0.9590    1.5470   24.6220 N   0  0  0  0  0  0  0  0  0  0  0  0
   -2.1400    2.6110   25.2810 S   0  0  0  0  0  0  0  0  0  0  0  0
   -1.7810    2.8870   26.6540 O   0  0  0  0  0  0  0  0  0  0  0  0
   -3.4280    2.0380   24.9620 O   0  0  0  0  0  0  0  0  0  0  0  0
   -1.9740    4.1410   24.3680 C   0  0  0  0  0  0  0  0  0  0  0  0
   -2.0090    5.3470   25.0700 C   0  0  0  0  0  0  0  0  0  0  0  0
   -1.8830    6.5610   24.3800 C   0  0  0  0  0  0  0  0  0  0  0  0
   -1.7230    6.5720   22.9890 C   0  0  0  0  0  0  0  0  0  0  0  0
   -1.6850    5.3750   22.2680 C   0  0  0  0  0  0  0  0  0  0  0  0
   -1.5190    5.4330   20.8770 C   0  0  0  0  0  0  0  0  0  0  0  0
   -1.4660    4.2830   20.0800 C   0  0  0  0  0  0  0  0  0  0  0  0
   -1.2930    4.4340   18.7020 C   0  0  0  0  0  0  0  0  0  0  0  0
   -2.5740    4.7110   17.8980 C   0  0  0  0  0  0  0  0  0  0  0  0
   -2.7540    4.3680   16.4230 C   0  0  0  0  0  0  0  0  0  0  0  0
   -4.0840    4.7370   15.8790 C   0  0  0  0  0  0  0  0  0  0  0  0
   -4.9300    5.3790   16.9840 C   0  0  0  0  0  0  0  0  0  0  0  0
   -6.5370    5.9790   16.8760 Cl  0  0  0  0  0  0  0  0  0  0  0  0
   -4.0340    5.4550   18.5060 S   0  0  0  0  0  0  0  0  0  0  0  0
   -1.5840    3.0130   20.6700 C   0  0  0  0  0  0  0  0  0  0  0  0
   -1.5390    1.8220   19.9610 C   0  0  0  0  0  0  0  0  0  0  0  0
   -2.7790    1.5800   19.0860 C   0  0  0  0  0  0  0  0  0  0  0  0
   -3.9520    0.8850   19.7450 C   0  0  0  0  0  0  0  0  0  0  0  0
   -5.0700    0.7300   18.7170 C   0  0  0  0  0  0  0  0  0  0  0  0
   -4.5940    1.3910   17.2100 S   0  0  0  0  0  0  0  0  0  0  0  0
   -3.0360    1.8820   17.7560 C   0  0  0  0  0  0  0  0  0  0  0  0
   -1.7530    2.9250   22.0660 C   0  0  0  0  0  0  0  0  0  0  0  0
   -1.8100    4.1340   22.9430 C   0  0  0  0  0  0  0  0  0  0  0  0
   -1.3700    0.2950   23.9740 C   0  0  0  0  0  0  0  0  0  0  0  0
   -0.8310   -0.7710   24.6580 C   0  0  0  0  0  0  0  0  0  0  0  0
    2.4150   -3.7020   25.8450 S   0  0  0  0  0  0  0  0  0  0  0  0
    4.9440   -6.1290   23.0800 C   0  0  0  0  0  0  0  0  0  0  0  0
    5.7710   -6.1980   21.9830 C   0  0  0  0  0  0  0  0  0  0  0  0
  1  2  2  3
  1  3  1  0
  3  4  1  0
  4  5  1  0
  5  6  1  0
  6  7  1  0
  7  8  2  0
  7  9  2  0
  7 10  1  0
 10 11  2  0
 11 12  1  0
 12 13  2  0
 13 14  1  0
 14 15  1  0
 15 16  1  0
 16 17  1  0
 17 18  1  0
 18 19  1  0
 19 20  2  0
 19 21  2  0
 19 22  1  0
 22 23  2  0
 23 24  1  0
 24 25  2  0
 25 26  1  0
 26 27  1  0
 27 28  2  0
 28 29  1  0
 29 30  1  0
 30 31  2  0
 31 32  1  0
 32 33  2  0
 33 34  1  0
 30 35  1  0
 33 35  1  0
 28 36  1  0
 36 37  1  0
 37 38  1  0
 38 39  1  0
 39 40  2  0
 40 41  1  0
 38 42  2  0
 41 42  1  0
 36 43  2  0
 22 44  1  0
 26 44  2  0
 43 44  1  0
 18 45  1  0
 15 46  1  0
 45 46  1  0
 10 47  1  0
 13 47  1  0
  6 48  1  0
  3 49  1  0
 48 49  1  0
M  END
