MAK-UNK-60abb798-3
     RDKit          3D

 21 23  0  0  0  0  0  0  0  0999 V2000
   13.5620   -2.9560   25.5700 N   0  0  0  0  0  0  0  0  0  0  0  0
   12.9370   -2.5330   24.4090 C   0  0  0  0  0  0  0  0  0  0  0  0
   11.4040   -2.3090   24.3680 C   0  0  2  0  0  0  0  0  0  0  0  0
   10.5250   -3.3040   24.1560 O   0  0  0  0  0  0  0  0  0  0  0  0
    9.0040   -3.0490   24.1520 C   0  0  2  0  0  0  0  0  0  0  0  0
    8.1010   -3.7190   23.0980 C   0  0  1  0  0  0  0  0  0  0  0  0
    7.6980   -5.0800   23.5360 C   0  0  0  0  0  0  0  0  0  0  0  0
    7.0980   -5.8750   22.5810 C   0  0  0  0  0  0  0  0  0  0  0  0
    5.9470   -5.2860   22.0270 C   0  0  0  0  0  0  0  0  0  0  0  0
    5.7660   -3.8850   22.2410 C   0  0  1  0  0  0  0  0  0  0  0  0
    4.7040   -3.4360   22.9910 N   0  0  0  0  0  0  0  0  0  0  0  0
    6.9870   -3.0360   22.5930 C   0  0  0  0  0  0  0  0  0  0  0  0
    9.0030   -1.5850   24.0950 C   0  0  0  0  0  0  0  0  0  0  0  0
   10.2540   -1.7420   24.0600 C   0  0  0  0  0  0  0  0  0  0  0  0
   11.2110   -1.2100   23.3140 C   0  0  0  0  0  0  0  0  0  0  0  0
   12.5590   -1.3400   23.1910 C   0  0  0  0  0  0  0  0  0  0  0  0
   13.0430   -2.2830   24.1000 C   0  0  0  0  0  0  0  0  0  0  0  0
   12.1650   -2.9790   25.0210 C   0  0  0  0  0  0  0  0  0  0  0  0
   12.5540   -3.8190   25.8450 O   0  0  0  0  0  0  0  0  0  0  0  0
   10.7940   -2.6950   24.9810 C   0  0  0  0  0  0  0  0  0  0  0  0
   10.0890   -3.3210   25.7880 O   0  0  0  0  0  0  0  0  0  0  0  0
  1  2  1  0
  3  2  1  6
  3  4  1  0
  4  5  1  0
  5  6  1  0
  6  7  1  1
  7  8  1  0
  8  9  1  0
  9 10  1  0
 10 11  1  1
  6 12  1  0
 10 12  1  0
  5 13  1  6
 13 14  1  0
  3 15  1  0
 14 15  2  0
 15 16  1  0
 16 17  2  0
 17 18  1  0
 18 19  1  0
 14 20  1  0
 18 20  2  0
 20 21  1  0
M  END
