MAK-UNK-10799360-18-acrylamide
     RDKit          3D

 28 31  0  0  0  0  0  0  0  0999 V2000
    7.8160   -3.1280   18.8980 C   0  0  0  0  0  0  0  0  0  0  0  0
    6.3290   -3.1870   19.2550 C   0  0  0  0  0  0  0  0  0  0  0  0
    6.1000   -2.9110   20.7020 C   0  0  0  0  0  0  0  0  0  0  0  0
    5.0520   -3.3890   21.2190 O   0  0  0  0  0  0  0  0  0  0  0  0
    7.1070   -2.1700   21.3700 N   0  0  0  0  0  0  0  0  0  0  0  0
    7.1960   -0.7230   21.6680 C   0  0  0  0  0  0  0  0  0  0  0  0
    8.2010   -0.9280   22.8210 C   0  0  1  0  0  0  0  0  0  0  0  0
    8.0370    0.0710   23.8650 C   0  0  0  0  0  0  0  0  0  0  0  0
    8.3790   -0.7150   25.1410 C   0  0  0  0  0  0  0  0  0  0  0  0
    8.3120    0.2460   26.3050 C   0  0  0  0  0  0  0  0  0  0  0  0
    8.6320   -0.2930   27.9070 S   0  0  0  0  0  0  0  0  0  0  0  0
    9.8480    0.3390   28.3590 O   0  0  0  0  0  0  0  0  0  0  0  0
    8.4570   -1.7300   27.9720 O   0  0  0  0  0  0  0  0  0  0  0  0
    7.3880    0.4410   28.7590 N   0  0  0  0  0  0  0  0  0  0  0  0
    7.5700    1.8510   29.1820 C   0  0  0  0  0  0  0  0  0  0  0  0
    7.9940    1.5770   26.1210 C   0  0  0  0  0  0  0  0  0  0  0  0
    7.6980    2.1380   24.8770 C   0  0  0  0  0  0  0  0  0  0  0  0
    7.7100    1.4070   23.7430 C   0  0  0  0  0  0  0  0  0  0  0  0
    7.4210    2.0190   22.5230 C   0  0  0  0  0  0  0  0  0  0  0  0
    6.1570    2.5640   22.1780 N   0  0  0  0  0  0  0  0  0  0  0  0
    8.0990   -2.4730   22.8970 C   0  0  0  0  0  0  0  0  0  0  0  0
    8.5250   -2.5730   21.5230 C   0  0  2  0  0  0  0  0  0  0  0  0
    9.8010   -1.8880   21.7920 C   0  0  0  0  0  0  0  0  0  0  0  0
   11.1420   -2.1520   21.3460 C   0  0  0  0  0  0  0  0  0  0  0  0
   12.2870   -1.4220   21.7540 C   0  0  0  0  0  0  0  0  0  0  0  0
   12.0870   -0.3560   22.6280 C   0  0  0  0  0  0  0  0  0  0  0  0
   10.8000   -0.0290   23.0780 C   0  0  0  0  0  0  0  0  0  0  0  0
    9.6620   -0.8670   22.6070 C   0  0  0  0  0  0  0  0  0  0  0  0
  1  2  1  0
  2  3  1  0
  3  4  2  0
  3  5  1  0
  5  6  1  0
  6  7  1  0
  7  8  1  1
  8  9  2  0
  9 10  1  0
 10 11  1  0
 11 12  2  0
 11 13  2  0
 11 14  1  0
 14 15  1  0
 10 16  2  0
 16 17  1  0
  8 18  1  0
 17 18  2  0
 18 19  1  0
 19 20  3  0
  7 21  1  0
 22  5  1  6
 21 22  1  0
 22 23  1  0
 23 24  1  0
 24 25  2  0
 25 26  1  0
 26 27  2  0
  7 28  1  0
 23 28  2  0
 27 28  1  0
M  END
