MAK-UNK-e05327b2-8-acrylamide
     RDKit          3D

 29 32  0  0  0  0  0  0  0  0999 V2000
    7.4690   -3.0680   19.0410 C   0  0  0  0  0  0  0  0  0  0  0  0
    7.0230   -3.1220   20.4840 C   0  0  0  0  0  0  0  0  0  0  0  0
    6.1410   -4.3260   20.7210 C   0  0  0  0  0  0  0  0  0  0  0  0
    5.1950   -4.5710   19.9620 O   0  0  0  0  0  0  0  0  0  0  0  0
    6.4570   -5.1230   21.8080 N   0  0  0  0  0  0  0  0  0  0  0  0
    7.2240   -4.6820   22.8320 C   0  0  0  0  0  0  0  0  0  0  0  0
    6.3900   -4.1960   24.0230 C   0  0  0  0  0  0  0  0  0  0  0  0
    5.5740   -5.3170   24.5090 N   0  0  0  0  0  0  0  0  0  0  0  0
    4.8870   -5.3640   26.0140 S   0  0  0  0  0  0  0  0  0  0  0  0
    3.9140   -6.4290   26.0590 O   0  0  0  0  0  0  0  0  0  0  0  0
    5.9740   -5.2900   26.9570 O   0  0  0  0  0  0  0  0  0  0  0  0
    3.9820   -3.8360   26.1300 C   0  0  0  0  0  0  0  0  0  0  0  0
    4.5050   -2.4320   25.9870 C   0  0  0  0  0  0  0  0  0  0  0  0
    3.5530   -1.4500   26.1360 C   0  0  0  0  0  0  0  0  0  0  0  0
    2.2740   -1.9770   26.3910 C   0  0  0  0  0  0  0  0  0  0  0  0
    1.1200   -1.2110   26.6040 C   0  0  0  0  0  0  0  0  0  0  0  0
    0.5020   -0.6460   25.4850 C   0  0  0  0  0  0  0  0  0  0  0  0
   -0.7560   -1.1050   25.0870 C   0  0  0  0  0  0  0  0  0  0  0  0
   -1.3890   -0.5330   23.9790 C   0  0  0  0  0  0  0  0  0  0  0  0
   -0.7930    0.4990   23.2450 C   0  0  0  0  0  0  0  0  0  0  0  0
    0.4680    0.9730   23.6210 C   0  0  0  0  0  0  0  0  0  0  0  0
    1.0410    2.0130   22.8510 C   0  0  0  0  0  0  0  0  0  0  0  0
    2.3030    2.5750   23.1280 C   0  0  0  0  0  0  0  0  0  0  0  0
    3.0450    2.1110   24.2030 C   0  0  0  0  0  0  0  0  0  0  0  0
    2.4910    0.9990   25.0690 C   0  0  0  0  0  0  0  0  0  0  0  0
    1.1230    0.3890   24.7610 C   0  0  0  0  0  0  0  0  0  0  0  0
    2.2930   -3.7340   26.4400 S   0  0  0  0  0  0  0  0  0  0  0  0
    4.7840   -5.9590   23.4400 C   0  0  0  0  0  0  0  0  0  0  0  0
    5.6540   -6.2690   22.2080 C   0  0  0  0  0  0  0  0  0  0  0  0
  1  2  1  0
  2  3  1  0
  3  4  2  0
  3  5  1  0
  5  6  1  0
  6  7  1  0
  7  8  1  0
  8  9  1  0
  9 10  2  0
  9 11  2  0
  9 12  1  0
 12 13  2  0
 13 14  1  0
 14 15  2  0
 15 16  1  0
 16 17  1  0
 17 18  2  0
 18 19  1  0
 19 20  2  0
 20 21  1  0
 21 22  1  0
 22 23  2  0
 23 24  1  0
 24 25  2  0
 17 26  1  0
 21 26  2  0
 25 26  1  0
 12 27  1  0
 15 27  1  0
  8 28  1  0
  5 29  1  0
 28 29  1  0
M  END
