MAK-UNK-69e28b36-1-acrylamide
     RDKit          3D

 34 37  0  0  0  0  0  0  0  0999 V2000
    8.0050   -3.4260   19.7680 C   0  0  0  0  0  0  0  0  0  0  0  0
    6.9260   -2.6650   19.0760 C   0  0  0  0  0  0  0  0  0  0  0  0
    5.8560   -2.9950   20.0270 C   0  0  0  0  0  0  0  0  0  0  0  0
    5.0600   -3.8960   19.7650 O   0  0  0  0  0  0  0  0  0  0  0  0
    5.9400   -2.2590   21.2040 N   0  0  0  0  0  0  0  0  0  0  0  0
    5.8660   -2.9700   22.4820 C   0  0  0  0  0  0  0  0  0  0  0  0
    7.2490   -3.2820   23.0830 C   0  0  0  0  0  0  0  0  0  0  0  0
    8.1250   -2.0930   23.1780 N   0  0  0  0  0  0  0  0  0  0  0  0
    9.3820   -2.2720   23.7580 C   0  0  0  0  0  0  0  0  0  0  0  0
   10.3220   -1.1040   23.6380 C   0  0  0  0  0  0  0  0  0  0  0  0
   11.6820   -1.6660   23.2550 C   0  0  0  0  0  0  0  0  0  0  0  0
   12.7810   -0.6350   23.0770 C   0  0  0  0  0  0  0  0  0  0  0  0
   12.3410    0.8070   23.3100 C   0  0  0  0  0  0  0  0  0  0  0  0
   10.9370    1.2470   23.6920 C   0  0  0  0  0  0  0  0  0  0  0  0
   10.5780    2.7300   23.8950 C   0  0  0  0  0  0  0  0  0  0  0  0
    9.2680    3.0210   24.3400 C   0  0  2  0  0  0  0  0  0  0  0  0
    8.8410    2.1770   25.5260 C   0  0  0  0  0  0  0  0  0  0  0  0
    8.5460    2.9930   23.0630 C   0  0  0  0  0  0  0  0  0  0  0  0
    7.2260    3.2950   23.2480 O   0  0  0  0  0  0  0  0  0  0  0  0
    8.8650    4.3740   24.8440 C   0  0  0  0  0  0  0  0  0  0  0  0
    9.8060    4.9910   25.3100 O   0  0  0  0  0  0  0  0  0  0  0  0
    9.7940    5.0830   26.7340 C   0  0  0  0  0  0  0  0  0  0  0  0
    8.9570    4.3500   27.7610 C   0  0  0  0  0  0  0  0  0  0  0  0
    9.2860    4.7420   28.9860 N   0  0  0  0  0  0  0  0  0  0  0  0
   10.2660    5.6720   28.8860 C   0  0  0  0  0  0  0  0  0  0  0  0
   10.8480    6.3020   30.1050 C   0  0  0  0  0  0  0  0  0  0  0  0
   11.9550    7.3600   29.9680 C   0  0  0  0  0  0  0  0  0  0  0  0
   12.3370    7.6470   28.5650 C   0  0  0  0  0  0  0  0  0  0  0  0
   13.2940    8.5650   28.3790 F   0  0  0  0  0  0  0  0  0  0  0  0
   11.7150    6.9680   27.2990 C   0  0  0  0  0  0  0  0  0  0  0  0
   10.6230    5.9330   27.5500 C   0  0  0  0  0  0  0  0  0  0  0  0
    9.9880    0.2410   23.8390 C   0  0  0  0  0  0  0  0  0  0  0  0
    8.2410   -1.4310   21.8630 C   0  0  0  0  0  0  0  0  0  0  0  0
    6.8770   -1.1150   21.2070 C   0  0  0  0  0  0  0  0  0  0  0  0
  1  2  1  0
  2  3  1  0
  3  4  2  0
  3  5  1  0
  5  6  1  0
  6  7  1  0
  7  8  1  0
  8  9  1  0
  9 10  1  0
 10 11  2  0
 11 12  1  0
 12 13  2  0
 13 14  1  0
 14 15  1  0
 16 15  1  0
 16 17  1  1
 16 18  1  0
 18 19  1  0
 16 20  1  0
 20 21  1  0
 21 22  1  0
 22 23  2  0
 23 24  1  0
 24 25  1  0
 25 26  1  0
 26 27  2  0
 27 28  1  0
 28 29  1  0
 28 30  2  0
 22 31  1  0
 25 31  2  0
 30 31  1  0
 10 32  1  0
 14 32  2  0
  8 33  1  0
  5 34  1  0
 33 34  1  0
M  END
