MAK-UNK-0d6072ac-24
     RDKit          3D

 20 22  0  0  0  0  0  0  0  0999 V2000
    4.3040   -3.0880   23.4100 C   0  0  0  0  0  0  0  0  0  0  0  0
    5.1260   -3.8500   23.9100 O   0  0  0  0  0  0  0  0  0  0  0  0
    5.7790   -4.6910   22.9550 C   0  0  0  0  0  0  0  0  0  0  0  0
    5.2370   -4.8060   21.7050 O   0  0  0  0  0  0  0  0  0  0  0  0
    7.0550   -5.3880   23.4940 C   0  0  1  0  0  0  0  0  0  0  0  0
    7.3940   -6.5670   22.5880 C   0  0  0  0  0  0  0  0  0  0  0  0
    8.2250   -4.4010   23.5900 C   0  0  0  0  0  0  0  0  0  0  0  0
    9.3940   -4.6210   24.3810 C   0  0  0  0  0  0  0  0  0  0  0  0
   10.5230   -3.7020   24.4800 C   0  0  0  0  0  0  0  0  0  0  0  0
   10.4980   -2.4640   23.7390 C   0  0  0  0  0  0  0  0  0  0  0  0
    9.2120   -2.1820   22.8640 C   0  0  0  0  0  0  0  0  0  0  0  0
    8.1170   -3.2210   22.8490 C   0  0  0  0  0  0  0  0  0  0  0  0
    9.5220   -1.0280   22.3750 N   0  0  0  0  0  0  0  0  0  0  0  0
   10.4090   -1.5730   23.1740 C   0  0  0  0  0  0  0  0  0  0  0  0
   10.1830   -2.8360   23.7870 C   0  0  0  0  0  0  0  0  0  0  0  0
   11.1200   -3.4780   24.6670 C   0  0  0  0  0  0  0  0  0  0  0  0
   12.3450   -2.8980   24.9840 C   0  0  0  0  0  0  0  0  0  0  0  0
   13.5090   -3.6130   26.0050 Cl  0  0  0  0  0  0  0  0  0  0  0  0
   12.5390   -1.7000   24.4020 C   0  0  0  0  0  0  0  0  0  0  0  0
   11.5270   -1.2690   23.6050 C   0  0  0  0  0  0  0  0  0  0  0  0
  1  2  1  0
  2  3  1  0
  3  4  2  0
  3  5  1  0
  5  6  1  6
  5  7  1  0
  7  8  2  0
  8  9  1  0
  9 10  2  0
 10 11  1  0
  7 12  1  0
 11 12  2  0
 11 13  1  0
 13 14  1  0
 14 15  1  0
 15 16  2  0
 16 17  1  0
 17 18  1  0
 17 19  2  0
 10 20  1  0
 14 20  2  0
 19 20  1  0
M  END
