MAK-UNK-10dfa458-11-vinylsulfonamide
     RDKit          3D

 21 23  0  0  0  0  0  0  0  0999 V2000
    6.6420   -3.7850   20.0520 C   0  0  0  0  0  0  0  0  0  0  0  0
    6.9190   -3.1910   21.4870 C   0  0  0  0  0  0  0  0  0  0  0  0
    5.5490   -3.1520   22.7500 S   0  0  0  0  0  0  0  0  0  0  0  0
    4.2670   -3.1080   22.0710 O   0  0  0  0  0  0  0  0  0  0  0  0
    5.8710   -2.2550   23.8490 O   0  0  0  0  0  0  0  0  0  0  0  0
    5.4760   -4.6800   23.3330 N   0  0  0  0  0  0  0  0  0  0  0  0
    6.6980   -5.4390   23.5170 C   0  0  1  0  0  0  0  0  0  0  0  0
    6.3600   -6.8060   22.8600 C   0  0  0  0  0  0  0  0  0  0  0  0
    5.8090   -6.2390   21.5630 C   0  0  0  0  0  0  0  0  0  0  0  0
    4.8830   -5.2240   22.1750 C   0  0  2  0  0  0  0  0  0  0  0  0
    5.4290   -4.1240   21.2410 C   0  0  0  0  0  0  0  0  0  0  0  0
    6.6260   -3.5670   22.1520 C   0  0  2  0  0  0  0  0  0  0  0  0
    7.2260   -2.1390   21.8560 C   0  0  0  0  0  0  0  0  0  0  0  0
    6.5530   -1.0980   20.9240 C   0  0  0  0  0  0  0  0  0  0  0  0
    7.2710   -0.6810   19.7840 C   0  0  0  0  0  0  0  0  0  0  0  0
    6.7490    0.2530   18.9160 C   0  0  0  0  0  0  0  0  0  0  0  0
    5.4920    0.8710   19.0550 C   0  0  0  0  0  0  0  0  0  0  0  0
    4.6190    0.6110   20.1020 C   0  0  0  0  0  0  0  0  0  0  0  0
    3.3890    1.2620   20.1890 C   0  0  0  0  0  0  0  0  0  0  0  0
    5.1550   -0.4320   21.1080 C   0  0  0  0  0  0  0  0  0  0  0  0
    7.5620   -4.5510   22.6500 C   0  0  0  0  0  0  0  0  0  0  0  0
  1  2  1  0
  3  2  1  0
  3  4  2  0
  3  5  2  0
  3  6  1  0
  6  7  1  0
  7  8  1  6
  8  9  1  0
  6 10  1  0
 10  9  1  6
 10 11  1  0
 11 12  1  0
 12 13  1  6
 13 14  1  0
 14 15  2  0
 15 16  1  0
 16 17  2  0
 17 18  1  0
 18 19  1  0
 14 20  1  0
 18 20  2  0
  7 21  1  0
 12 21  1  0
M  END
