MAK-UNK-c97f7c8f-1-chloroacetamide
     RDKit          3D

 19 20  0  0  0  0  0  0  0  0999 V2000
    7.2110   -3.1430   19.0760 C   0  0  0  0  0  0  0  0  0  0  0  0
    6.2910   -3.8230   20.0910 C   0  0  0  0  0  0  0  0  0  0  0  0
    5.2060   -4.2730   19.7500 O   0  0  0  0  0  0  0  0  0  0  0  0
    6.7350   -3.9680   21.3910 N   0  0  0  0  0  0  0  0  0  0  0  0
    6.3960   -5.2010   22.0930 C   0  0  0  0  0  0  0  0  0  0  0  0
    6.0250   -4.8910   23.5340 C   0  0  0  0  0  0  0  0  0  0  0  0
    6.1190   -3.3870   23.8490 C   0  0  0  0  0  0  0  0  0  0  0  0
    5.8570   -3.0620   25.3110 C   0  0  0  0  0  0  0  0  0  0  0  0
    4.8530   -3.4970   25.8640 O   0  0  0  0  0  0  0  0  0  0  0  0
    6.8270   -2.2710   25.8650 N   0  0  0  0  0  0  0  0  0  0  0  0
    6.6540   -1.2380   26.7840 C   0  0  0  0  0  0  0  0  0  0  0  0
    5.9430   -0.0870   26.5100 C   0  0  0  0  0  0  0  0  0  0  0  0
    5.8420    0.8890   27.5030 C   0  0  0  0  0  0  0  0  0  0  0  0
    6.4540    0.6890   28.7420 C   0  0  0  0  0  0  0  0  0  0  0  0
    6.3710    1.7100   29.8310 C   0  0  0  0  0  0  0  0  0  0  0  0
    7.1440   -0.5010   28.9220 C   0  0  0  0  0  0  0  0  0  0  0  0
    7.2500   -1.4560   27.9750 N   0  0  0  0  0  0  0  0  0  0  0  0
    7.4220   -2.7240   23.3960 C   0  0  0  0  0  0  0  0  0  0  0  0
    7.7780   -3.1340   21.9840 C   0  0  0  0  0  0  0  0  0  0  0  0
  1  2  1  0
  2  3  2  0
  2  4  1  0
  4  5  1  0
  5  6  1  0
  6  7  1  0
  7  8  1  0
  8  9  2  0
  8 10  1  0
 10 11  1  0
 11 12  2  0
 12 13  1  0
 13 14  2  0
 14 15  1  0
 14 16  1  0
 11 17  1  0
 16 17  2  0
  7 18  1  0
  4 19  1  0
 18 19  1  0
M  END
