MAK-UNK-704ed37c-10-nitrile
     RDKit          3D

 15 16  0  0  0  0  0  0  0  0999 V2000
    6.6480   -4.2530   20.2600 C   0  0  0  0  0  0  0  0  0  0  0  0
    5.4870   -4.1830   19.7620 N   0  0  0  0  0  0  0  0  0  0  0  0
    7.0350   -4.2940   21.5510 N   0  0  0  0  0  0  0  0  0  0  0  0
    7.7210   -3.3070   22.2680 C   0  0  0  0  0  0  0  0  0  0  0  0
    7.2920   -2.8830   23.5190 C   0  0  0  0  0  0  0  0  0  0  0  0
    6.5180   -3.8750   24.2960 N   0  0  0  0  0  0  0  0  0  0  0  0
    5.7910   -3.2630   25.4230 C   0  0  0  0  0  0  0  0  0  0  0  0
    4.6930   -2.7410   25.2450 O   0  0  0  0  0  0  0  0  0  0  0  0
    6.4120   -3.3050   26.7550 N   0  0  0  0  0  0  0  0  0  0  0  0
    5.4740   -3.5350   27.8590 C   0  0  0  0  0  0  0  0  0  0  0  0
    5.9570   -4.5820   28.6260 C   0  0  0  0  0  0  0  0  0  0  0  0
    7.2250   -4.9100   28.1910 C   0  0  0  0  0  0  0  0  0  0  0  0
    7.6670   -3.9400   27.1330 C   0  0  0  0  0  0  0  0  0  0  0  0
    5.8470   -4.8960   23.4950 C   0  0  0  0  0  0  0  0  0  0  0  0
    6.6450   -5.4490   22.3420 C   0  0  0  0  0  0  0  0  0  0  0  0
  1  2  2  3
  1  3  1  0
  3  4  1  0
  4  5  1  0
  5  6  1  0
  6  7  1  0
  7  8  2  0
  7  9  1  0
  9 10  1  0
 10 11  1  0
 11 12  1  0
  9 13  1  0
 12 13  1  0
  6 14  1  0
  3 15  1  0
 14 15  1  0
M  END
