MAK-UNK-10dfa458-39-acrylamide
     RDKit          3D

 21 22  0  0  0  0  0  0  0  0999 V2000
    8.0680   -3.6980   20.2050 C   0  0  0  0  0  0  0  0  0  0  0  0
    6.7400   -3.1090   19.9700 C   0  0  0  0  0  0  0  0  0  0  0  0
    5.8710   -4.2040   20.4930 C   0  0  0  0  0  0  0  0  0  0  0  0
    5.0730   -4.7140   19.7540 O   0  0  0  0  0  0  0  0  0  0  0  0
    6.0290   -4.6540   21.7960 N   0  0  0  0  0  0  0  0  0  0  0  0
    6.9740   -4.1340   22.7880 C   0  0  0  0  0  0  0  0  0  0  0  0
    6.0270   -3.7940   23.9800 C   0  0  0  0  0  0  0  0  0  0  0  0
    5.2900   -5.0390   24.3880 N   0  0  0  0  0  0  0  0  0  0  0  0
    4.5730   -5.0110   25.7020 C   0  0  1  0  0  0  0  0  0  0  0  0
    5.4950   -4.6240   26.8560 C   0  0  0  0  0  0  0  0  0  0  0  0
    6.1710   -4.3290   27.7540 N   0  0  0  0  0  0  0  0  0  0  0  0
    3.3230   -4.0720   25.6900 C   0  0  0  0  0  0  0  0  0  0  0  0
    3.6750   -2.5930   25.8070 C   0  0  0  0  0  0  0  0  0  0  0  0
    2.3690   -1.8110   25.8900 C   0  0  0  0  0  0  0  0  0  0  0  0
    1.1780   -2.5000   25.5630 C   0  0  0  0  0  0  0  0  0  0  0  0
   -0.0480   -1.8480   25.6200 C   0  0  0  0  0  0  0  0  0  0  0  0
   -0.0950   -0.4750   26.0130 C   0  0  0  0  0  0  0  0  0  0  0  0
    1.0870    0.2090   26.3370 C   0  0  0  0  0  0  0  0  0  0  0  0
    2.3190   -0.4620   26.2740 C   0  0  0  0  0  0  0  0  0  0  0  0
    4.5610   -5.7080   23.2830 C   0  0  0  0  0  0  0  0  0  0  0  0
    5.4190   -5.9110   22.2040 C   0  0  0  0  0  0  0  0  0  0  0  0
  1  2  1  0
  2  3  1  0
  3  4  2  0
  3  5  1  0
  5  6  1  0
  6  7  1  0
  7  8  1  0
  8  9  1  0
  9 10  1  1
 10 11  3  0
  9 12  1  0
 12 13  1  0
 13 14  1  0
 14 15  2  0
 15 16  1  0
 16 17  2  0
 17 18  1  0
 14 19  1  0
 18 19  2  0
  8 20  1  0
  5 21  1  0
 20 21  1  0
M  END
