MAK-UNK-10799360-35-vinylsulfonamide
     RDKit          3D

 32 36  0  0  0  0  0  0  0  0999 V2000
    7.5890   -3.5610   19.8680 C   0  0  0  0  0  0  0  0  0  0  0  0
    6.6900   -2.5360   19.1810 C   0  0  0  0  0  0  0  0  0  0  0  0
    5.5830   -1.9610   20.4310 S   0  0  0  0  0  0  0  0  0  0  0  0
    4.9300   -3.1340   21.0360 O   0  0  0  0  0  0  0  0  0  0  0  0
    4.8070   -0.8740   19.8840 O   0  0  0  0  0  0  0  0  0  0  0  0
    6.6530   -1.2750   21.5580 N   0  0  0  0  0  0  0  0  0  0  0  0
    6.5200   -1.6770   22.9490 C   0  0  0  0  0  0  0  0  0  0  0  0
    7.9700   -2.1670   23.3210 C   0  0  1  0  0  0  0  0  0  0  0  0
    8.4170   -2.6910   21.9550 C   0  0  0  0  0  0  0  0  0  0  0  0
    8.0900   -1.3600   21.2700 C   0  0  2  0  0  0  0  0  0  0  0  0
    8.8800   -0.3640   22.1720 C   0  0  0  0  0  0  0  0  0  0  0  0
    9.0610   -1.1520   23.4200 N   0  0  0  0  0  0  0  0  0  0  0  0
   10.6370   -1.5530   23.9710 S   0  0  0  0  0  0  0  0  0  0  0  0
   11.2330   -2.3790   22.9280 O   0  0  0  0  0  0  0  0  0  0  0  0
   10.6500   -1.9190   25.3840 O   0  0  0  0  0  0  0  0  0  0  0  0
   11.4190   -0.0010   23.8400 C   0  0  0  0  0  0  0  0  0  0  0  0
   10.1820    0.0660   24.6390 C   0  0  0  0  0  0  0  0  0  0  0  0
    9.5630   -1.1970   24.8280 C   0  0  0  0  0  0  0  0  0  0  0  0
   10.1890   -2.3860   24.2400 C   0  0  0  0  0  0  0  0  0  0  0  0
    9.5960   -3.6680   24.4200 C   0  0  0  0  0  0  0  0  0  0  0  0
    9.0700   -3.9800   25.6850 C   0  0  0  0  0  0  0  0  0  0  0  0
    9.7630   -4.9590   26.3930 C   0  0  0  0  0  0  0  0  0  0  0  0
    9.3410   -5.3560   27.6440 C   0  0  0  0  0  0  0  0  0  0  0  0
    8.2080   -4.7820   28.2190 C   0  0  0  0  0  0  0  0  0  0  0  0
    7.4810   -3.8110   27.5810 C   0  0  0  0  0  0  0  0  0  0  0  0
    6.3510   -3.2750   28.2320 C   0  0  0  0  0  0  0  0  0  0  0  0
    5.5890   -2.2790   27.6080 C   0  0  0  0  0  0  0  0  0  0  0  0
    5.8750   -1.7520   26.3310 C   0  0  0  0  0  0  0  0  0  0  0  0
    7.0470   -2.2800   25.6040 C   0  0  0  0  0  0  0  0  0  0  0  0
    7.8890   -3.3710   26.2800 C   0  0  0  0  0  0  0  0  0  0  0  0
   11.4450   -2.2970   23.4460 C   0  0  0  0  0  0  0  0  0  0  0  0
   12.1410   -0.9480   23.2170 C   0  0  0  0  0  0  0  0  0  0  0  0
  1  2  1  0
  3  2  1  0
  3  4  2  0
  3  5  2  0
  3  6  1  0
  6  7  1  0
  8  7  1  6
  8  9  1  0
  6 10  1  0
  9 10  1  0
 10 11  1  1
  8 12  1  0
 11 12  1  0
 12 13  1  0
 13 14  2  0
 13 15  2  0
 13 16  1  0
 16 17  2  0
 17 18  1  0
 18 19  2  0
 19 20  1  0
 20 21  1  0
 21 22  2  0
 22 23  1  0
 23 24  2  0
 24 25  1  0
 25 26  1  0
 26 27  2  0
 27 28  1  0
 28 29  2  0
 21 30  1  0
 25 30  2  0
 29 30  1  0
 19 31  1  0
 16 32  1  0
 31 32  2  0
M  END
