MAK-UNK-849bee6c-13-acrylamide
     RDKit          3D

 26 28  0  0  0  0  0  0  0  0999 V2000
    8.0080   -3.3690   19.7040 C   0  0  0  0  0  0  0  0  0  0  0  0
    6.9030   -2.6580   19.0000 C   0  0  0  0  0  0  0  0  0  0  0  0
    5.8450   -3.0090   19.9560 C   0  0  0  0  0  0  0  0  0  0  0  0
    5.0140   -3.8790   19.6890 O   0  0  0  0  0  0  0  0  0  0  0  0
    5.9770   -2.3340   21.1530 N   0  0  0  0  0  0  0  0  0  0  0  0
    6.7730   -1.2090   21.2410 C   0  0  0  0  0  0  0  0  0  0  0  0
    8.1880   -1.4240   21.8410 C   0  0  0  0  0  0  0  0  0  0  0  0
    8.0490   -1.9590   23.1970 N   0  0  0  0  0  0  0  0  0  0  0  0
    9.3270   -2.2040   23.9190 C   0  0  0  0  0  0  0  0  0  0  0  0
   10.4560   -1.2050   23.6570 C   0  0  0  0  0  0  0  0  0  0  0  0
   11.6710   -1.5780   23.0490 C   0  0  0  0  0  0  0  0  0  0  0  0
   12.6700   -0.6190   22.8390 C   0  0  0  0  0  0  0  0  0  0  0  0
   12.4670    0.7100   23.2290 C   0  0  0  0  0  0  0  0  0  0  0  0
   11.2600    1.0790   23.8300 C   0  0  0  0  0  0  0  0  0  0  0  0
   11.0150    2.2330   24.2070 O   0  0  0  0  0  0  0  0  0  0  0  0
   11.3240    3.3940   23.4920 C   0  0  0  0  0  0  0  0  0  0  0  0
   12.5040    3.4830   22.7430 C   0  0  0  0  0  0  0  0  0  0  0  0
   12.6380    4.7070   22.1420 C   0  0  0  0  0  0  0  0  0  0  0  0
   12.1900    5.7290   21.9760 N   0  0  0  0  0  0  0  0  0  0  0  0
   10.9280    5.6700   22.7470 C   0  0  0  0  0  0  0  0  0  0  0  0
   10.1260    6.8110   22.7290 C   0  0  0  0  0  0  0  0  0  0  0  0
    9.8170    7.3130   24.0720 N   0  0  0  0  0  0  0  0  0  0  0  0
   10.4800    4.4760   23.5270 N   0  0  0  0  0  0  0  0  0  0  0  0
   10.2710    0.1180   24.0380 C   0  0  0  0  0  0  0  0  0  0  0  0
    7.2010   -3.1720   23.1860 C   0  0  0  0  0  0  0  0  0  0  0  0
    5.8540   -3.0050   22.4520 C   0  0  0  0  0  0  0  0  0  0  0  0
  1  2  1  0
  2  3  1  0
  3  4  2  0
  3  5  1  0
  5  6  1  0
  6  7  1  0
  7  8  1  0
  8  9  1  0
  9 10  1  0
 10 11  2  0
 11 12  1  0
 12 13  2  0
 13 14  1  0
 14 15  1  0
 15 16  1  0
 16 17  2  0
 17 18  1  0
 18 19  2  0
 19 20  1  0
 20 21  1  0
 21 22  3  0
 16 23  1  0
 20 23  2  0
 10 24  1  0
 14 24  2  0
  8 25  1  0
  5 26  1  0
 25 26  1  0
M  END
