MAK-UNK-3e0761f8-6-acrylamide
     RDKit          3D

 22 25  0  0  0  0  0  0  0  0999 V2000
    7.3700   -2.9820   18.4570 C   0  0  0  0  0  0  0  0  0  0  0  0
    6.6700   -1.9440   19.2880 C   0  0  0  0  0  0  0  0  0  0  0  0
    6.0520   -2.6210   20.4720 C   0  0  0  0  0  0  0  0  0  0  0  0
    4.9950   -3.2500   20.3560 O   0  0  0  0  0  0  0  0  0  0  0  0
    6.7910   -2.5410   21.6210 N   0  0  0  0  0  0  0  0  0  0  0  0
    7.9420   -1.6250   21.6990 C   0  0  0  0  0  0  0  0  0  0  0  0
    7.8410   -1.2760   23.1310 C   0  0  1  0  0  0  0  0  0  0  0  0
    6.4650   -1.3320   23.2990 C   0  0  0  0  0  0  0  0  0  0  0  0
    6.2750   -2.6740   22.9950 C   0  0  2  0  0  0  0  0  0  0  0  0
    7.3380   -3.2970   23.6640 C   0  0  0  0  0  0  0  0  0  0  0  0
    8.2690   -2.2820   24.0080 C   0  0  1  0  0  0  0  0  0  0  0  0
    9.5880   -2.7290   23.9510 C   0  0  0  0  0  0  0  0  0  0  0  0
   10.4930   -1.7140   23.6780 C   0  0  0  0  0  0  0  0  0  0  0  0
   11.4270   -1.8840   22.7710 N   0  0  0  0  0  0  0  0  0  0  0  0
   12.1100   -0.8080   22.6690 C   0  0  0  0  0  0  0  0  0  0  0  0
   13.1370   -0.5550   21.8570 C   0  0  0  0  0  0  0  0  0  0  0  0
   13.4110   -1.6490   21.0830 C   0  0  0  0  0  0  0  0  0  0  0  0
   13.6770    0.8360   21.9880 C   0  0  0  0  0  0  0  0  0  0  0  0
   13.0200    1.6160   22.9330 C   0  0  0  0  0  0  0  0  0  0  0  0
   11.9970    1.2720   23.7240 N   0  0  0  0  0  0  0  0  0  0  0  0
   11.5520    0.0320   23.5650 C   0  0  0  0  0  0  0  0  0  0  0  0
   10.4570   -0.5030   24.3100 N   0  0  0  0  0  0  0  0  0  0  0  0
  1  2  1  0
  2  3  1  0
  3  4  2  0
  3  5  1  0
  5  6  1  0
  7  6  1  6
  7  8  1  0
  5  9  1  0
  8  9  1  0
  9 10  1  1
  7 11  1  0
 10 11  1  0
 11 12  1  6
 12 13  1  0
 13 14  2  0
 14 15  1  0
 15 16  2  0
 16 17  1  0
 16 18  1  0
 18 19  2  0
 19 20  1  0
 15 21  1  0
 20 21  2  0
 13 22  1  0
 21 22  1  0
M  END
