MAK-UNK-8fdbca50-19-acrylamide
     RDKit          3D

 40 43  0  0  0  0  0  0  0  0999 V2000
    6.9200   -3.3000   19.2120 C   0  0  0  0  0  0  0  0  0  0  0  0
    6.8330   -2.2000   20.2480 C   0  0  0  0  0  0  0  0  0  0  0  0
    6.4200   -2.7350   21.5960 C   0  0  0  0  0  0  0  0  0  0  0  0
    5.0700   -3.4630   21.5320 O   0  0  0  0  0  0  0  0  0  0  0  0
    7.7240   -2.2560   22.5440 N   0  0  0  0  0  0  0  0  0  0  0  0
    7.9080   -1.5300   23.8030 C   0  0  0  0  0  0  0  0  0  0  0  0
    8.6770   -0.1920   23.8170 C   0  0  0  0  0  0  0  0  0  0  0  0
    8.9880    0.0030   22.3660 C   0  0  0  0  0  0  0  0  0  0  0  0
    8.9790    1.4770   21.8910 C   0  0  0  0  0  0  0  0  0  0  0  0
    8.6060    1.6110   20.7400 O   0  0  0  0  0  0  0  0  0  0  0  0
    9.2480    2.5700   22.5630 N   0  0  0  0  0  0  0  0  0  0  0  0
   10.4370    2.5080   23.3000 C   0  0  0  0  0  0  0  0  0  0  0  0
   11.7650    2.8460   22.8380 C   0  0  0  0  0  0  0  0  0  0  0  0
   11.4560    1.4080   23.1760 C   0  0  0  0  0  0  0  0  0  0  0  0
    8.1630    3.2160   23.0830 C   0  0  2  0  0  0  0  0  0  0  0  0
    7.4410    2.6300   24.4730 S   0  0  0  0  0  0  0  0  0  0  0  0
    8.4850    2.2610   25.3560 O   0  0  0  0  0  0  0  0  0  0  0  0
    6.3620    1.7360   24.1460 O   0  0  0  0  0  0  0  0  0  0  0  0
    6.6540    4.0900   25.0070 C   0  0  0  0  0  0  0  0  0  0  0  0
    7.4530    5.2820   25.3090 C   0  0  0  0  0  0  0  0  0  0  0  0
    6.7860    6.4320   25.7400 C   0  0  0  0  0  0  0  0  0  0  0  0
    5.4080    6.3960   25.8620 C   0  0  0  0  0  0  0  0  0  0  0  0
    4.5940    5.3020   25.5930 N   0  0  0  0  0  0  0  0  0  0  0  0
    5.2840    4.1150   25.1480 C   0  0  0  0  0  0  0  0  0  0  0  0
    6.9050    2.9850   22.2390 C   0  0  0  0  0  0  0  0  0  0  0  0
    6.2800    4.1680   21.8850 C   0  0  0  0  0  0  0  0  0  0  0  0
    5.0870    4.2400   21.1870 C   0  0  0  0  0  0  0  0  0  0  0  0
    4.9220    3.1880   20.2900 N   0  0  0  0  0  0  0  0  0  0  0  0
    5.5590    1.9310   20.2570 C   0  0  0  0  0  0  0  0  0  0  0  0
    7.0800    5.2690   22.3690 C   0  0  0  0  0  0  0  0  0  0  0  0
    8.2090    4.7880   23.0660 C   0  0  0  0  0  0  0  0  0  0  0  0
    9.2350    5.7830   23.6680 C   0  0  0  0  0  0  0  0  0  0  0  0
   10.4810    4.9960   23.6350 C   0  0  0  0  0  0  0  0  0  0  0  0
   11.5510    5.6590   24.1260 C   0  0  0  0  0  0  0  0  0  0  0  0
   11.4710    6.9710   24.6210 C   0  0  0  0  0  0  0  0  0  0  0  0
   10.3980    7.9260   24.7550 C   0  0  0  0  0  0  0  0  0  0  0  0
    9.2280    7.0830   24.1660 C   0  0  0  0  0  0  0  0  0  0  0  0
    8.0740    7.7640   24.1690 F   0  0  0  0  0  0  0  0  0  0  0  0
    9.9680   -0.9870   21.8710 C   0  0  0  0  0  0  0  0  0  0  0  0
    9.2230   -2.2880   22.0990 C   0  0  0  0  0  0  0  0  0  0  0  0
  1  2  1  0
  2  3  1  0
  3  4  2  0
  3  5  1  0
  5  6  1  0
  6  7  1  0
  7  8  1  0
  8  9  1  0
  9 10  2  0
  9 11  1  0
 11 12  1  0
 12 13  1  0
 12 14  1  0
 15 11  1  6
 15 16  1  0
 16 17  2  0
 16 18  2  0
 16 19  1  0
 19 20  2  0
 20 21  1  0
 21 22  2  0
 22 23  1  0
 19 24  1  0
 23 24  2  0
 15 25  1  0
 25 26  2  0
 26 27  1  0
 27 28  1  0
 28 29  1  0
 26 30  1  0
 15 31  1  0
 30 31  2  0
 31 32  1  0
 32 33  2  0
 33 34  1  0
 34 35  2  0
 35 36  1  0
 32 37  1  0
 36 37  2  0
 37 38  1  0
  8 39  1  0
  5 40  1  0
 39 40  1  0
M  END
