MAK-UNK-8fdbca50-36-chloroacetamide
     RDKit          3D

 39 42  0  0  0  0  0  0  0  0999 V2000
    8.2990   -3.6320   20.9490 C   0  0  0  0  0  0  0  0  0  0  0  0
    7.6990   -2.3670   20.5860 C   0  0  0  0  0  0  0  0  0  0  0  0
    6.8320   -2.6880   19.3900 O   0  0  0  0  0  0  0  0  0  0  0  0
    8.2490   -1.1810   21.6490 N   0  0  0  0  0  0  0  0  0  0  0  0
    9.4670   -0.2890   21.4250 C   0  0  0  0  0  0  0  0  0  0  0  0
   10.5500   -0.2160   22.5680 C   0  0  0  0  0  0  0  0  0  0  0  0
   10.6120   -1.7000   22.7800 C   0  0  1  0  0  0  0  0  0  0  0  0
   11.5670   -1.7550   23.9060 C   0  0  0  0  0  0  0  0  0  0  0  0
   11.5130   -1.1190   24.9630 O   0  0  0  0  0  0  0  0  0  0  0  0
   12.5520   -2.6800   23.5130 N   0  0  0  0  0  0  0  0  0  0  0  0
   13.7100   -2.7710   24.3790 C   0  0  0  0  0  0  0  0  0  0  0  0
   12.9500   -2.7910   22.1110 C   0  0  0  0  0  0  0  0  0  0  0  0
   11.9730   -3.3670   21.1240 C   0  0  0  0  0  0  0  0  0  0  0  0
   13.3290   -1.5580   21.6710 C   0  0  0  0  0  0  0  0  0  0  0  0
    9.4320   -2.2630   23.0280 C   0  0  0  0  0  0  0  0  0  0  0  0
    8.5250   -1.3420   23.1930 C   0  0  2  0  0  0  0  0  0  0  0  0
    7.7280   -0.7660   23.8030 N   0  0  0  0  0  0  0  0  0  0  0  0
    7.4280   -1.2420   25.1320 C   0  0  0  0  0  0  0  0  0  0  0  0
    7.4040   -0.5480   26.3710 C   0  0  0  0  0  0  0  0  0  0  0  0
    6.2940   -0.6500   27.1760 C   0  0  0  0  0  0  0  0  0  0  0  0
    6.3480    0.0230   28.3410 C   0  0  0  0  0  0  0  0  0  0  0  0
    5.3150    0.0240   29.2710 C   0  0  0  0  0  0  0  0  0  0  0  0
    5.4630   -0.7540   30.4220 C   0  0  0  0  0  0  0  0  0  0  0  0
    4.4520   -0.7780   31.3670 C   0  0  0  0  0  0  0  0  0  0  0  0
    3.2850   -0.0410   31.1930 C   0  0  0  0  0  0  0  0  0  0  0  0
    3.1380    0.7990   29.9370 C   0  0  0  0  0  0  0  0  0  0  0  0
    4.1440    0.8020   29.0330 C   0  0  0  0  0  0  0  0  0  0  0  0
    4.0180    1.5420   27.9180 F   0  0  0  0  0  0  0  0  0  0  0  0
    7.5980    0.6430   28.3450 N   0  0  0  0  0  0  0  0  0  0  0  0
    8.2700    1.6440   29.5610 S   0  0  0  0  0  0  0  0  0  0  0  0
    7.9190    2.9970   29.1890 O   0  0  0  0  0  0  0  0  0  0  0  0
    9.6520    1.2230   29.6910 O   0  0  0  0  0  0  0  0  0  0  0  0
    7.5250    1.2470   31.1000 C   0  0  0  0  0  0  0  0  0  0  0  0
    8.3240    0.4760   32.1590 C   0  0  0  0  0  0  0  0  0  0  0  0
    7.6170    0.1670   33.4670 C   0  0  0  0  0  0  0  0  0  0  0  0
    6.1890    0.6700   33.5650 C   0  0  0  0  0  0  0  0  0  0  0  0
    5.5430    1.3530   32.5840 N   0  0  0  0  0  0  0  0  0  0  0  0
    6.2050    1.6240   31.3960 C   0  0  0  0  0  0  0  0  0  0  0  0
    8.2590    0.2960   27.1240 C   0  0  0  0  0  0  0  0  0  0  0  0
  1  2  1  0
  2  3  2  0
  2  4  1  0
  4  5  1  0
  5  6  1  0
  6  7  1  0
  7  8  1  1
  8  9  2  0
  8 10  1  0
 10 11  1  0
 10 12  1  0
 12 13  1  0
 12 14  1  0
  7 15  1  0
  4 16  1  0
 15 16  1  0
 16 17  1  1
 17 18  1  0
 18 19  1  0
 19 20  1  0
 20 21  2  0
 21 22  1  0
 22 23  2  0
 23 24  1  0
 24 25  2  0
 25 26  1  0
 22 27  1  0
 26 27  2  0
 27 28  1  0
 21 29  1  0
 29 30  1  0
 30 31  2  0
 30 32  2  0
 30 33  1  0
 33 34  2  0
 34 35  1  0
 35 36  2  0
 36 37  1  0
 33 38  1  0
 37 38  2  0
 19 39  2  0
 29 39  1  0
M  END
