MAK-UNK-1cb0e944-7
     RDKit          3D

 20 20  0  0  0  0  0  0  0  0999 V2000
   13.4250    1.1710   22.2590 N   0  0  0  0  0  0  0  0  0  0  0  0
   12.0980    1.1430   23.2750 S   0  0  0  0  0  0  0  0  0  0  0  0
   11.6180    2.5040   23.3460 O   0  0  0  0  0  0  0  0  0  0  0  0
   12.5280    0.4350   24.4530 O   0  0  0  0  0  0  0  0  0  0  0  0
   10.8640    0.1110   22.4700 C   0  0  0  0  0  0  0  0  0  0  0  0
    9.7930    0.6230   22.1480 O   0  0  0  0  0  0  0  0  0  0  0  0
   11.2620   -1.3160   22.2470 N   0  0  0  0  0  0  0  0  0  0  0  0
   12.6250   -1.6530   22.6650 C   0  0  0  0  0  0  0  0  0  0  0  0
   12.6000   -2.0990   23.9840 C   0  0  0  0  0  0  0  0  0  0  0  0
   11.3700   -2.0000   24.6900 C   0  0  0  0  0  0  0  0  0  0  0  0
   11.0440   -1.0170   25.3430 O   0  0  0  0  0  0  0  0  0  0  0  0
   10.5890   -3.1010   24.5580 N   0  0  0  0  0  0  0  0  0  0  0  0
    9.1680   -2.9280   24.5630 C   0  0  0  0  0  0  0  0  0  0  0  0
    8.5930   -4.0770   25.2610 N   0  0  0  0  0  0  0  0  0  0  0  0
    9.5180   -4.6150   26.2980 C   0  0  0  0  0  0  0  0  0  0  0  0
    8.9340   -5.5880   27.1180 C   0  0  0  0  0  0  0  0  0  0  0  0
    7.4480   -5.4640   27.4850 C   0  0  0  0  0  0  0  0  0  0  0  0
    7.3470   -4.7230   28.6950 O   0  0  0  0  0  0  0  0  0  0  0  0
    6.6270   -4.8390   26.5690 C   0  0  0  0  0  0  0  0  0  0  0  0
    7.2460   -3.7640   25.7860 C   0  0  0  0  0  0  0  0  0  0  0  0
  1  2  1  0
  2  3  2  0
  2  4  2  0
  2  5  1  0
  5  6  2  0
  5  7  1  0
  7  8  1  0
  8  9  1  0
  9 10  1  0
 10 11  2  0
 10 12  1  0
 12 13  1  0
 13 14  1  0
 14 15  1  0
 15 16  1  0
 16 17  1  0
 17 18  1  0
 17 19  1  0
 14 20  1  0
 19 20  1  0
M  END
