MAK-UNK-987948f6-1-vinylsulfonamide
     RDKit          3D

 28 30  0  0  0  0  0  0  0  0999 V2000
    7.5030   -3.1340   18.7440 C   0  0  0  0  0  0  0  0  0  0  0  0
    7.3810   -2.0670   19.7940 C   0  0  0  0  0  0  0  0  0  0  0  0
    5.7790   -2.1940   20.5540 S   0  0  0  0  0  0  0  0  0  0  0  0
    5.1390   -3.5070   20.3680 O   0  0  0  0  0  0  0  0  0  0  0  0
    5.0660   -0.9670   20.2790 O   0  0  0  0  0  0  0  0  0  0  0  0
    6.3610   -2.1230   22.1350 N   0  0  0  0  0  0  0  0  0  0  0  0
    7.7770   -2.4890   22.2680 C   0  0  0  0  0  0  0  0  0  0  0  0
    7.8430   -3.9970   22.5200 C   0  0  0  0  0  0  0  0  0  0  0  0
    6.8160   -4.9190   22.3420 C   0  0  0  0  0  0  0  0  0  0  0  0
    7.2520   -6.1110   22.6670 C   0  0  0  0  0  0  0  0  0  0  0  0
    6.3710   -7.1780   22.5650 C   0  0  0  0  0  0  0  0  0  0  0  0
    8.5650   -6.1550   23.0820 O   0  0  0  0  0  0  0  0  0  0  0  0
    9.0170   -4.7860   23.0140 N   0  0  0  0  0  0  0  0  0  0  0  0
    5.8490   -1.1100   23.0640 C   0  0  0  0  0  0  0  0  0  0  0  0
    5.8400   -1.5380   24.4150 C   0  0  1  0  0  0  0  0  0  0  0  0
    4.6590   -2.5780   24.5150 C   0  0  2  0  0  0  0  0  0  0  0  0
    3.4450   -1.9610   24.1460 O   0  0  0  0  0  0  0  0  0  0  0  0
    4.3900   -3.1260   25.8910 C   0  0  0  0  0  0  0  0  0  0  0  0
    5.7050   -3.6390   26.4890 C   0  0  0  0  0  0  0  0  0  0  0  0
    6.6690   -2.8180   25.7910 C   0  0  0  0  0  0  0  0  0  0  0  0
    6.9900   -2.0870   25.0030 N   0  0  0  0  0  0  0  0  0  0  0  0
    7.9910   -2.7260   24.1130 C   0  0  0  0  0  0  0  0  0  0  0  0
    9.4600   -2.2080   23.9820 C   0  0  0  0  0  0  0  0  0  0  0  0
   10.6480   -3.0890   24.3660 C   0  0  0  0  0  0  0  0  0  0  0  0
   11.9500   -2.6060   24.2360 C   0  0  0  0  0  0  0  0  0  0  0  0
   12.1780   -1.3200   23.7510 C   0  0  0  0  0  0  0  0  0  0  0  0
   11.1070   -0.4910   23.3870 C   0  0  0  0  0  0  0  0  0  0  0  0
    9.7760   -0.9210   23.4990 C   0  0  0  0  0  0  0  0  0  0  0  0
  1  2  1  0
  2  3  1  0
  3  4  2  0
  3  5  2  0
  3  6  1  0
  6  7  1  0
  7  8  1  0
  8  9  1  0
  9 10  2  0
 10 11  1  0
 10 12  1  0
  8 13  2  0
 12 13  1  0
  6 14  1  0
 15 14  1  6
 15 16  1  0
 16 17  1  1
 16 18  1  0
 18 19  1  0
 19 20  1  0
 15 21  1  0
 20 21  1  0
 21 22  1  0
 22 23  1  0
 23 24  2  0
 24 25  1  0
 25 26  2  0
 26 27  1  0
 23 28  1  0
 27 28  2  0
M  END
