MAK-UNK-ec98eaf6-34-nitrile
     RDKit          3D

 26 29  0  0  0  0  0  0  0  0999 V2000
    6.6220   -4.5820   20.3510 C   0  0  0  0  0  0  0  0  0  0  0  0
    5.9680   -3.7840   19.5860 N   0  0  0  0  0  0  0  0  0  0  0  0
    6.4840   -4.6180   21.7280 N   0  0  0  0  0  0  0  0  0  0  0  0
    6.1420   -3.4060   22.4810 C   0  0  0  0  0  0  0  0  0  0  0  0
    7.5510   -3.0220   23.0910 C   0  0  2  0  0  0  0  0  0  0  0  0
    8.4710   -3.9080   22.3240 C   0  0  0  0  0  0  0  0  0  0  0  0
    7.5510   -5.1170   22.6080 C   0  0  1  0  0  0  0  0  0  0  0  0
    7.1130   -5.0020   24.1210 C   0  0  0  0  0  0  0  0  0  0  0  0
    7.9610   -3.7830   24.3560 C   0  0  2  0  0  0  0  0  0  0  0  0
    7.8710   -3.0280   25.4680 N   0  0  0  0  0  0  0  0  0  0  0  0
    8.5890   -1.8610   25.2420 C   0  0  0  0  0  0  0  0  0  0  0  0
    9.4210   -1.7750   23.9890 C   0  0  0  0  0  0  0  0  0  0  0  0
   10.1510   -0.5300   23.7730 C   0  0  0  0  0  0  0  0  0  0  0  0
   10.9180   -0.3560   22.6890 F   0  0  0  0  0  0  0  0  0  0  0  0
   10.0330    0.4690   24.7170 C   0  0  0  0  0  0  0  0  0  0  0  0
    9.2740    0.4750   25.9320 C   0  0  0  0  0  0  0  0  0  0  0  0
    8.4590   -0.1070   26.7910 C   0  0  0  0  0  0  0  0  0  0  0  0
    8.1050    0.6510   27.9190 C   0  0  0  0  0  0  0  0  0  0  0  0
    6.9950    1.4920   27.7040 C   0  0  0  0  0  0  0  0  0  0  0  0
    7.3130    2.8520   27.2740 N   0  0  0  0  0  0  0  0  0  0  0  0
    7.4210    3.8940   28.1630 C   0  0  0  0  0  0  0  0  0  0  0  0
    7.8170    3.5040   29.4630 C   0  0  0  0  0  0  0  0  0  0  0  0
    7.1970    5.0660   27.8770 O   0  0  0  0  0  0  0  0  0  0  0  0
    7.9170   -1.4970   26.6130 C   0  0  0  0  0  0  0  0  0  0  0  0
    7.8240   -0.6350   27.4110 N   0  0  0  0  0  0  0  0  0  0  0  0
    8.5990   -0.7250   26.0980 C   0  0  0  0  0  0  0  0  0  0  0  0
  1  2  2  3
  1  3  1  0
  3  4  1  0
  5  4  1  6
  5  6  1  0
  3  7  1  0
  6  7  1  0
  7  8  1  1
  5  9  1  0
  8  9  1  0
  9 10  1  1
 10 11  1  0
 11 12  1  0
 12 13  2  0
 13 14  1  0
 13 15  1  0
 15 16  2  0
 16 17  1  0
 17 18  1  0
 18 19  1  0
 19 20  1  0
 20 21  1  0
 21 22  1  0
 21 23  2  0
 17 24  2  0
 24 25  1  0
 11 26  2  0
 16 26  1  0
 25 26  1  0
M  END
