MAK-UNK-ec98eaf6-31-chloroacetamide
     RDKit          3D

 20 21  0  0  0  0  0  0  0  0999 V2000
    7.4910   -3.0280   18.7540 C   0  0  0  0  0  0  0  0  0  0  0  0
    6.5490   -3.3210   19.8970 C   0  0  0  0  0  0  0  0  0  0  0  0
    5.5460   -4.0470   19.7270 O   0  0  0  0  0  0  0  0  0  0  0  0
    6.8470   -2.7910   21.1450 N   0  0  0  0  0  0  0  0  0  0  0  0
    6.8640   -1.4160   21.6470 C   0  0  0  0  0  0  0  0  0  0  0  0
    8.2460   -1.4980   22.3650 C   0  0  2  0  0  0  0  0  0  0  0  0
    9.3150   -0.3750   22.1320 C   0  0  0  0  0  0  0  0  0  0  0  0
    8.7270    0.9220   21.5610 C   0  0  0  0  0  0  0  0  0  0  0  0
    9.3340    2.0930   21.9130 N   0  0  0  0  0  0  0  0  0  0  0  0
    7.7540    0.9380   20.8130 O   0  0  0  0  0  0  0  0  0  0  0  0
    8.5970   -2.9030   21.8760 C   0  0  0  0  0  0  0  0  0  0  0  0
    7.2460   -3.6590   22.2430 C   0  0  1  0  0  0  0  0  0  0  0  0
    7.8220   -3.4070   23.6480 C   0  0  1  0  0  0  0  0  0  0  0  0
    8.9570   -4.4660   23.6910 C   0  0  0  0  0  0  0  0  0  0  0  0
    8.4610   -5.8330   23.2330 C   0  0  0  0  0  0  0  0  0  0  0  0
   10.1140   -4.2490   24.0440 O   0  0  0  0  0  0  0  0  0  0  0  0
    8.2310   -1.9880   23.7440 N   0  0  0  0  0  0  0  0  0  0  0  0
    9.3120   -1.6430   24.5160 C   0  0  0  0  0  0  0  0  0  0  0  0
   10.6890   -2.0480   24.0700 C   0  0  0  0  0  0  0  0  0  0  0  0
    9.1900   -0.9970   25.5350 O   0  0  0  0  0  0  0  0  0  0  0  0
  1  2  1  0
  2  3  2  0
  2  4  1  0
  4  5  1  0
  5  6  1  0
  6  7  1  1
  7  8  1  0
  8  9  1  0
  8 10  2  0
  6 11  1  0
 12  4  1  1
 11 12  1  0
 12 13  1  0
 13 14  1  6
 14 15  1  0
 14 16  2  0
  6 17  1  0
 13 17  1  0
 17 18  1  0
 18 19  1  0
 18 20  2  0
M  END
