MAK-UNK-8fdbca50-23-vinylsulfonamide
     RDKit          3D

 41 44  0  0  0  0  0  0  0  0999 V2000
    6.4910   -4.0550   19.9550 C   0  0  0  0  0  0  0  0  0  0  0  0
    6.5340   -3.6460   21.4230 C   0  0  0  0  0  0  0  0  0  0  0  0
    5.8980   -4.9390   22.4790 S   0  0  0  0  0  0  0  0  0  0  0  0
    4.5840   -5.3100   22.0050 O   0  0  0  0  0  0  0  0  0  0  0  0
    6.9730   -5.9010   22.6710 O   0  0  0  0  0  0  0  0  0  0  0  0
    5.6530   -4.2140   23.9340 N   0  0  0  0  0  0  0  0  0  0  0  0
    4.6880   -3.1100   24.0990 C   0  0  0  0  0  0  0  0  0  0  0  0
    5.4760   -2.0240   24.8990 C   0  0  0  0  0  0  0  0  0  0  0  0
    6.7610   -1.8570   24.0300 C   0  0  0  0  0  0  0  0  0  0  0  0
    7.2400   -0.5090   24.5630 C   0  0  0  0  0  0  0  0  0  0  0  0
    6.4290    0.6020   24.5840 O   0  0  0  0  0  0  0  0  0  0  0  0
    8.6220   -0.5320   25.0370 N   0  0  0  0  0  0  0  0  0  0  0  0
    9.7920   -0.6170   24.1250 C   0  0  0  0  0  0  0  0  0  0  0  0
    9.5670   -1.4130   22.8250 C   0  0  0  0  0  0  0  0  0  0  0  0
   10.7630   -1.5220   21.8880 C   0  0  0  0  0  0  0  0  0  0  0  0
   12.0370   -0.8290   22.3240 C   0  0  0  0  0  0  0  0  0  0  0  0
   13.5820   -0.8140   21.4090 S   0  0  0  0  0  0  0  0  0  0  0  0
   13.6160   -2.1790   20.9580 O   0  0  0  0  0  0  0  0  0  0  0  0
   14.0950   -0.2840   22.6260 O   0  0  0  0  0  0  0  0  0  0  0  0
   14.3740    0.2720   19.9470 N   0  0  0  0  0  0  0  0  0  0  0  0
   14.9440   -0.3510   18.9120 C   0  0  0  0  0  0  0  0  0  0  0  0
   15.4530    0.3180   17.8390 C   0  0  0  0  0  0  0  0  0  0  0  0
   16.0160   -0.0760   16.6810 C   0  0  0  0  0  0  0  0  0  0  0  0
   17.1280    0.6440   16.7320 N   0  0  0  0  0  0  0  0  0  0  0  0
   17.5050    0.6250   18.1180 C   0  0  0  0  0  0  0  0  0  0  0  0
   15.3140    1.5650   18.1120 C   0  0  0  0  0  0  0  0  0  0  0  0
   14.7260    1.7360   19.2870 C   0  0  0  0  0  0  0  0  0  0  0  0
   14.5800    3.1140   19.5340 C   0  0  0  0  0  0  0  0  0  0  0  0
   13.3850    3.8110   19.5030 C   0  0  0  0  0  0  0  0  0  0  0  0
   13.2480    4.9890   19.7940 C   0  0  0  0  0  0  0  0  0  0  0  0
   14.2270    5.7070   20.0690 C   0  0  0  0  0  0  0  0  0  0  0  0
   15.5250    5.0610   20.0020 C   0  0  0  0  0  0  0  0  0  0  0  0
   15.6620    3.8630   19.7860 C   0  0  0  0  0  0  0  0  0  0  0  0
   16.8590    3.4960   19.8250 F   0  0  0  0  0  0  0  0  0  0  0  0
   12.0070   -0.1620   23.5750 C   0  0  0  0  0  0  0  0  0  0  0  0
   10.9620   -0.0580   24.4150 N   0  0  0  0  0  0  0  0  0  0  0  0
    8.8310   -0.8120   26.4730 C   0  0  0  0  0  0  0  0  0  0  0  0
    8.8340    0.4180   27.3940 C   0  0  0  0  0  0  0  0  0  0  0  0
    7.9530   -1.9110   27.0800 C   0  0  0  0  0  0  0  0  0  0  0  0
    7.7370   -3.0020   24.3070 C   0  0  0  0  0  0  0  0  0  0  0  0
    6.8800   -4.2040   24.7240 C   0  0  0  0  0  0  0  0  0  0  0  0
  1  2  1  0
  3  2  1  0
  3  4  2  0
  3  5  2  0
  3  6  1  0
  6  7  1  0
  7  8  1  0
  8  9  1  0
  9 10  1  0
 10 11  2  0
 10 12  1  0
 12 13  1  0
 13 14  2  0
 14 15  1  0
 15 16  2  0
 17 16  1  0
 17 18  2  0
 17 19  2  0
 17 20  1  0
 20 21  1  0
 21 22  2  0
 22 23  1  0
 23 24  1  0
 24 25  1  0
 22 26  1  0
 20 27  1  0
 26 27  2  0
 27 28  1  0
 28 29  2  0
 29 30  1  0
 30 31  2  0
 31 32  1  0
 28 33  1  0
 32 33  2  0
 33 34  1  0
 16 35  1  0
 13 36  1  0
 35 36  2  0
 12 37  1  0
 37 38  1  0
 37 39  1  0
  9 40  1  0
  6 41  1  0
 40 41  1  0
M  END
