MAK-UNK-ec98eaf6-50-chloroacetamide
     RDKit          3D

 27 30  0  0  0  0  0  0  0  0999 V2000
    7.3650   -3.0180   18.8230 C   0  0  0  0  0  0  0  0  0  0  0  0
    6.3400   -3.3440   19.9260 C   0  0  0  0  0  0  0  0  0  0  0  0
    5.5350   -4.2740   19.8020 O   0  0  0  0  0  0  0  0  0  0  0  0
    6.3150   -2.5600   21.0600 N   0  0  0  0  0  0  0  0  0  0  0  0
    7.3120   -1.5250   21.2220 C   0  0  0  0  0  0  0  0  0  0  0  0
    8.3080   -2.4150   21.9220 C   0  0  2  0  0  0  0  0  0  0  0  0
    7.3930   -3.6330   21.9410 C   0  0  0  0  0  0  0  0  0  0  0  0
    6.1120   -2.9480   22.4730 C   0  0  1  0  0  0  0  0  0  0  0  0
    7.1430   -3.3350   23.5520 C   0  0  0  0  0  0  0  0  0  0  0  0
    8.2400   -2.3300   23.3670 N   0  0  0  0  0  0  0  0  0  0  0  0
    9.5200   -2.7150   23.9210 C   0  0  2  0  0  0  0  0  0  0  0  0
    9.4820   -3.0340   25.3980 C   0  0  0  0  0  0  0  0  0  0  0  0
    9.2600   -4.4780   25.7120 C   0  0  0  0  0  0  0  0  0  0  0  0
    8.2530   -4.7660   26.6310 C   0  0  0  0  0  0  0  0  0  0  0  0
    8.3370   -5.8940   27.4240 C   0  0  0  0  0  0  0  0  0  0  0  0
    7.3290   -6.1850   28.3330 C   0  0  0  0  0  0  0  0  0  0  0  0
    6.2250   -5.3660   28.4680 C   0  0  0  0  0  0  0  0  0  0  0  0
    5.2390   -5.7110   29.3850 C   0  0  0  0  0  0  0  0  0  0  0  0
    6.1240   -4.2190   27.6840 C   0  0  0  0  0  0  0  0  0  0  0  0
    7.1450   -3.9170   26.7610 C   0  0  0  0  0  0  0  0  0  0  0  0
   10.5460   -1.6330   23.6300 C   0  0  0  0  0  0  0  0  0  0  0  0
   10.6260   -0.3690   24.2290 C   0  0  0  0  0  0  0  0  0  0  0  0
   11.6490    0.5210   23.8710 C   0  0  0  0  0  0  0  0  0  0  0  0
   12.6260    0.2500   22.9080 C   0  0  0  0  0  0  0  0  0  0  0  0
   12.5570   -1.0570   22.2300 C   0  0  0  0  0  0  0  0  0  0  0  0
   13.5600   -1.6050   21.0200 Cl  0  0  0  0  0  0  0  0  0  0  0  0
   11.4630   -1.9640   22.6700 C   0  0  0  0  0  0  0  0  0  0  0  0
  1  2  1  0
  2  3  2  0
  2  4  1  0
  4  5  1  0
  6  5  1  6
  6  7  1  0
  4  8  1  0
  7  8  1  0
  8  9  1  1
  6 10  1  0
  9 10  1  0
 10 11  1  0
 11 12  1  1
 12 13  1  0
 13 14  1  0
 14 15  2  0
 15 16  1  0
 16 17  2  0
 17 18  1  0
 17 19  1  0
 14 20  1  0
 19 20  2  0
 11 21  1  0
 21 22  2  0
 22 23  1  0
 23 24  2  0
 24 25  1  0
 25 26  1  0
 21 27  1  0
 25 27  2  0
M  END
