MAK-UNK-10dfa458-12-nitrile
     RDKit          3D

 20 21  0  0  0  0  0  0  0  0999 V2000
    6.9270   -3.8100   20.1260 C   0  0  0  0  0  0  0  0  0  0  0  0
    5.7650   -3.8150   19.5770 N   0  0  0  0  0  0  0  0  0  0  0  0
    7.1900   -3.5410   21.4400 N   0  0  0  0  0  0  0  0  0  0  0  0
    7.8740   -2.3070   21.8990 C   0  0  0  0  0  0  0  0  0  0  0  0
    7.8080   -2.3960   23.4650 C   0  0  0  0  0  0  0  0  0  0  0  0
    6.2830   -2.1790   23.7140 C   0  0  2  0  0  0  0  0  0  0  0  0
    6.2200   -2.5250   25.2320 C   0  0  0  0  0  0  0  0  0  0  0  0
    4.7170   -2.7540   25.4200 C   0  0  0  0  0  0  0  0  0  0  0  0
    4.1540   -1.3000   25.5920 C   0  0  0  0  0  0  0  0  0  0  0  0
    2.5720   -1.1830   25.8170 C   0  0  0  0  0  0  0  0  0  0  0  0
    1.7200   -2.4620   25.8490 C   0  0  0  0  0  0  0  0  0  0  0  0
    2.6350   -3.5980   25.6500 C   0  0  0  0  0  0  0  0  0  0  0  0
    3.3230   -2.3810   25.6260 C   0  0  0  0  0  0  0  0  0  0  0  0
    3.9380   -3.9300   25.4510 C   0  0  0  0  0  0  0  0  0  0  0  0
    5.4790   -3.1690   22.8480 C   0  0  0  0  0  0  0  0  0  0  0  0
    6.3850   -4.1760   22.5120 C   0  0  1  0  0  0  0  0  0  0  0  0
    5.7810   -5.3200   22.0030 C   0  0  0  0  0  0  0  0  0  0  0  0
    6.4050   -6.2630   21.5380 O   0  0  0  0  0  0  0  0  0  0  0  0
    4.3590   -5.2300   22.1140 O   0  0  0  0  0  0  0  0  0  0  0  0
    3.8250   -6.1340   23.0860 C   0  0  0  0  0  0  0  0  0  0  0  0
  1  2  2  3
  1  3  1  0
  3  4  1  0
  4  5  1  0
  5  6  1  0
  6  7  1  1
  7  8  1  0
  8  9  2  0
  9 10  1  0
 10 11  2  0
 11 12  1  0
 12 13  1  0
  8 14  1  0
 12 14  2  0
  6 15  1  0
  3 16  1  0
 15 16  1  0
 16 17  1  6
 17 18  2  0
 17 19  1  0
 19 20  1  0
M  END
