MAK-UNK-f983951f-10
     RDKit          3D

 15 16  0  0  0  0  0  0  0  0999 V2000
   11.4860   -1.9450   21.9960 C   0  0  0  0  0  0  0  0  0  0  0  0
    9.9840   -1.7260   22.1450 C   0  0  2  0  0  0  0  0  0  0  0  0
    9.6750   -0.0590   22.7090 Cl  0  0  0  0  0  0  0  0  0  0  0  0
    9.3820   -2.7510   23.0840 C   0  0  0  0  0  0  0  0  0  0  0  0
   10.2470   -3.1100   24.1660 O   0  0  0  0  0  0  0  0  0  0  0  0
    8.0850   -3.1970   22.7710 N   0  0  0  0  0  0  0  0  0  0  0  0
    7.1180   -3.9080   23.6430 C   0  0  0  0  0  0  0  0  0  0  0  0
    6.6820   -3.1860   24.7590 N   0  0  0  0  0  0  0  0  0  0  0  0
    5.7870   -4.0140   25.4460 C   0  0  0  0  0  0  0  0  0  0  0  0
    5.2290   -5.1500   25.4500 N   0  0  0  0  0  0  0  0  0  0  0  0
    5.8920   -5.4660   24.2950 C   0  0  0  0  0  0  0  0  0  0  0  0
    6.5430   -4.2100   24.2240 N   0  0  0  0  0  0  0  0  0  0  0  0
    7.4360   -3.9830   23.1120 C   0  0  0  0  0  0  0  0  0  0  0  0
    7.5200   -5.0010   22.3060 N   0  0  0  0  0  0  0  0  0  0  0  0
    6.6910   -5.4560   23.1710 C   0  0  0  0  0  0  0  0  0  0  0  0
  2  1  1  1
  2  3  1  0
  2  4  1  0
  4  5  2  0
  4  6  1  0
  6  7  1  0
  7  8  2  0
  8  9  1  0
  9 10  2  0
 10 11  1  0
 11 12  1  0
 12 13  1  0
 13 14  2  0
  7 15  1  0
 11 15  2  0
 14 15  1  0
M  END
