MAK-UNK-af83ef51-26-chloroacetamide
     RDKit          3D

 30 32  0  0  0  0  0  0  0  0999 V2000
    6.8060   -3.0800   19.0260 C   0  0  0  0  0  0  0  0  0  0  0  0
    5.8120   -3.5770   20.0540 C   0  0  0  0  0  0  0  0  0  0  0  0
    5.3250   -4.6910   19.9270 O   0  0  0  0  0  0  0  0  0  0  0  0
    5.5420   -2.7020   21.0870 N   0  0  0  0  0  0  0  0  0  0  0  0
    5.8920   -2.9190   22.4450 C   0  0  0  0  0  0  0  0  0  0  0  0
    7.2190   -2.6230   22.7460 C   0  0  0  0  0  0  0  0  0  0  0  0
    7.6590   -1.2670   22.3090 N   0  0  0  0  0  0  0  0  0  0  0  0
    9.1370   -1.2310   22.1930 C   0  0  0  0  0  0  0  0  0  0  0  0
    9.7770   -1.2870   23.4210 C   0  0  1  0  0  0  0  0  0  0  0  0
   10.7030   -2.3310   23.5070 C   0  0  0  0  0  0  0  0  0  0  0  0
   11.7360   -1.8540   24.4180 N   0  0  0  0  0  0  0  0  0  0  0  0
   12.9220   -2.0140   23.5930 C   0  0  0  0  0  0  0  0  0  0  0  0
   13.6530   -2.9840   23.6660 O   0  0  0  0  0  0  0  0  0  0  0  0
   13.1660   -0.8430   22.6570 C   0  0  0  0  0  0  0  0  0  0  0  0
   13.6410   -0.9930   21.2270 C   0  0  0  0  0  0  0  0  0  0  0  0
   14.1980   -1.2270   20.2100 N   0  0  0  0  0  0  0  0  0  0  0  0
   14.9030   -0.4450   19.1450 C   0  0  0  0  0  0  0  0  0  0  0  0
   16.2330   -0.1920   18.8690 C   0  0  0  0  0  0  0  0  0  0  0  0
   16.7680    0.4440   17.8950 C   0  0  0  0  0  0  0  0  0  0  0  0
   15.9930    0.9270   16.9400 C   0  0  0  0  0  0  0  0  0  0  0  0
   16.8330    1.5020   15.9260 C   0  0  0  0  0  0  0  0  0  0  0  0
   17.0560    0.9060   14.6870 N   0  0  0  0  0  0  0  0  0  0  0  0
   14.6850    0.7450   17.1790 C   0  0  0  0  0  0  0  0  0  0  0  0
   14.1990    0.1030   18.2310 N   0  0  0  0  0  0  0  0  0  0  0  0
   11.3750   -0.5990   24.8240 C   0  0  0  0  0  0  0  0  0  0  0  0
   10.2850   -0.0860   23.9420 C   0  0  2  0  0  0  0  0  0  0  0  0
    9.4000    0.5020   24.5710 O   0  0  0  0  0  0  0  0  0  0  0  0
    8.9620    0.0010   25.7670 C   0  0  0  0  0  0  0  0  0  0  0  0
    7.0390   -0.7480   21.0710 C   0  0  0  0  0  0  0  0  0  0  0  0
    5.6190   -1.2800   20.7640 C   0  0  0  0  0  0  0  0  0  0  0  0
  1  2  1  0
  2  3  2  0
  2  4  1  0
  4  5  1  0
  5  6  1  0
  6  7  1  0
  7  8  1  0
  9  8  1  6
  9 10  1  0
 10 11  1  0
 11 12  1  0
 12 13  2  0
 12 14  1  0
 14 15  1  0
 15 16  1  0
 16 17  1  0
 17 18  2  0
 18 19  1  0
 19 20  2  0
 20 21  1  0
 21 22  3  0
 20 23  1  0
 17 24  1  0
 23 24  2  0
 11 25  1  0
  9 26  1  0
 25 26  1  0
 26 27  1  1
 27 28  1  0
  7 29  1  0
  4 30  1  0
 29 30  1  0
M  END
