MAK-UNK-849bee6c-8-nitrile
     RDKit          3D

 25 27  0  0  0  0  0  0  0  0999 V2000
    7.0330   -3.3090   19.5380 C   0  0  0  0  0  0  0  0  0  0  0  0
    6.0400   -3.1370   18.7480 N   0  0  0  0  0  0  0  0  0  0  0  0
    7.0860   -2.8290   20.8440 N   0  0  0  0  0  0  0  0  0  0  0  0
    7.2590   -1.3770   21.0510 C   0  0  0  0  0  0  0  0  0  0  0  0
    8.3800   -1.9950   21.7200 C   0  0  0  0  0  0  0  0  0  0  0  0
    8.2060   -2.2680   23.1460 N   0  0  0  0  0  0  0  0  0  0  0  0
    9.3810   -2.5070   23.8650 C   0  0  0  0  0  0  0  0  0  0  0  0
   10.4430   -1.4230   23.6320 C   0  0  0  0  0  0  0  0  0  0  0  0
   11.8600   -1.7330   23.2060 C   0  0  0  0  0  0  0  0  0  0  0  0
   12.8330   -0.5990   22.9920 C   0  0  0  0  0  0  0  0  0  0  0  0
   12.4200    0.7270   23.1900 C   0  0  0  0  0  0  0  0  0  0  0  0
   11.0740    0.9650   23.5900 C   0  0  0  0  0  0  0  0  0  0  0  0
   10.5290    2.2170   23.8150 C   0  0  0  0  0  0  0  0  0  0  0  0
   11.2420    3.2940   23.3170 C   0  0  0  0  0  0  0  0  0  0  0  0
   10.8100    4.4030   24.0510 C   0  0  0  0  0  0  0  0  0  0  0  0
    9.6310    4.3290   24.8330 C   0  0  0  0  0  0  0  0  0  0  0  0
    9.2300    5.4450   25.5540 C   0  0  0  0  0  0  0  0  0  0  0  0
   10.0660    6.5260   25.4090 N   0  0  0  0  0  0  0  0  0  0  0  0
   11.1790    6.5010   24.6350 C   0  0  0  0  0  0  0  0  0  0  0  0
   11.9870    7.6200   24.5280 C   0  0  0  0  0  0  0  0  0  0  0  0
   12.8520    7.7110   23.5190 N   0  0  0  0  0  0  0  0  0  0  0  0
   11.5330    5.5600   24.0160 N   0  0  0  0  0  0  0  0  0  0  0  0
   10.1440   -0.0760   23.7990 C   0  0  0  0  0  0  0  0  0  0  0  0
    7.2870   -3.3930   23.2520 C   0  0  0  0  0  0  0  0  0  0  0  0
    6.4440   -3.5530   21.9760 C   0  0  0  0  0  0  0  0  0  0  0  0
  1  2  2  3
  1  3  1  0
  3  4  1  0
  4  5  1  0
  5  6  1  0
  6  7  1  0
  7  8  1  0
  8  9  2  0
  9 10  1  0
 10 11  2  0
 11 12  1  0
 12 13  1  0
 13 14  1  0
 14 15  1  0
 15 16  2  0
 16 17  1  0
 17 18  2  0
 18 19  1  0
 19 20  1  0
 20 21  3  0
 15 22  1  0
 19 22  2  0
  8 23  1  0
 12 23  2  0
  6 24  1  0
  3 25  1  0
 24 25  1  0
M  END
