MAK-UNK-0d6072ac-8
     RDKit          3D

 19 21  0  0  0  0  0  0  0  0999 V2000
   13.6200   -0.2030   22.2250 C   0  0  0  0  0  0  0  0  0  0  0  0
   13.5630   -0.5060   23.7200 C   0  0  1  0  0  0  0  0  0  0  0  0
   12.8640    0.4710   24.6260 C   0  0  0  0  0  0  0  0  0  0  0  0
   12.9690    0.1200   26.0050 O   0  0  0  0  0  0  0  0  0  0  0  0
   12.2230    1.5620   24.0890 O   0  0  0  0  0  0  0  0  0  0  0  0
   12.6050   -1.6080   23.9220 C   0  0  0  0  0  0  0  0  0  0  0  0
   12.6940   -2.7120   24.9100 C   0  0  0  0  0  0  0  0  0  0  0  0
   11.6600   -3.6740   24.9170 C   0  0  0  0  0  0  0  0  0  0  0  0
   10.5380   -3.6350   24.0430 C   0  0  0  0  0  0  0  0  0  0  0  0
   10.4870   -2.6050   23.2030 C   0  0  0  0  0  0  0  0  0  0  0  0
   11.5140   -1.5920   23.1230 C   0  0  0  0  0  0  0  0  0  0  0  0
    9.3880   -2.6000   22.3910 N   0  0  0  0  0  0  0  0  0  0  0  0
    8.7690   -3.8890   22.9340 C   0  0  0  0  0  0  0  0  0  0  0  0
    7.5620   -4.1620   22.2530 N   0  0  0  0  0  0  0  0  0  0  0  0
    6.8040   -5.2010   22.5220 C   0  0  0  0  0  0  0  0  0  0  0  0
    7.3320   -5.9630   23.5200 C   0  0  0  0  0  0  0  0  0  0  0  0
    6.4960   -7.3640   23.9760 Cl  0  0  0  0  0  0  0  0  0  0  0  0
    8.5380   -5.7030   24.2080 C   0  0  0  0  0  0  0  0  0  0  0  0
    9.5490   -4.6250   24.1000 C   0  0  0  0  0  0  0  0  0  0  0  0
  2  1  1  6
  2  3  1  0
  3  4  2  0
  3  5  1  0
  2  6  1  0
  6  7  2  0
  7  8  1  0
  8  9  2  0
  9 10  1  0
  6 11  1  0
 10 11  2  0
 10 12  1  0
 12 13  1  0
 13 14  1  0
 14 15  2  0
 15 16  1  0
 16 17  1  0
 16 18  2  0
  9 19  1  0
 13 19  2  0
 18 19  1  0
M  END
