MAK-UNK-acefcb18-4
     RDKit          3D

 21 23  0  0  0  0  0  0  0  0999 V2000
   13.8930   -3.8840   20.4740 C   0  0  0  0  0  0  0  0  0  0  0  0
   13.0610   -3.1940   21.5290 C   0  0  0  0  0  0  0  0  0  0  0  0
   13.4720   -2.8690   22.9820 C   0  0  0  0  0  0  0  0  0  0  0  0
   12.4340   -2.2210   23.8740 C   0  0  0  0  0  0  0  0  0  0  0  0
   11.1120   -1.9580   23.2450 C   0  0  0  0  0  0  0  0  0  0  0  0
   10.2640   -1.4390   23.9500 O   0  0  0  0  0  0  0  0  0  0  0  0
    9.8500   -1.8720   25.2490 C   0  0  1  0  0  0  0  0  0  0  0  0
    8.6230   -1.5390   25.5930 O   0  0  0  0  0  0  0  0  0  0  0  0
    7.6760   -2.4550   25.0660 C   0  0  0  0  0  0  0  0  0  0  0  0
    7.6130   -3.7780   25.5690 C   0  0  1  0  0  0  0  0  0  0  0  0
    7.0060   -4.6820   24.5090 C   0  0  0  0  0  0  0  0  0  0  0  0
    6.0390   -5.7880   24.8550 C   0  0  0  0  0  0  0  0  0  0  0  0
    5.5820   -6.5130   23.6220 C   0  0  0  0  0  0  0  0  0  0  0  0
    6.3040   -5.8630   22.2210 S   0  0  0  0  0  0  0  0  0  0  0  0
    7.1910   -4.6620   23.1190 C   0  0  0  0  0  0  0  0  0  0  0  0
    8.9330   -4.1230   25.9790 C   0  0  2  0  0  0  0  0  0  0  0  0
    8.9440   -4.1100   27.3440 O   0  0  0  0  0  0  0  0  0  0  0  0
    9.8430   -3.2390   25.3580 C   0  0  2  0  0  0  0  0  0  0  0  0
   11.1560   -3.5350   25.5860 O   0  0  0  0  0  0  0  0  0  0  0  0
   10.8270   -2.2690   21.8970 C   0  0  0  0  0  0  0  0  0  0  0  0
   11.8160   -2.8650   21.1400 C   0  0  0  0  0  0  0  0  0  0  0  0
  1  2  1  0
  2  3  2  0
  3  4  1  0
  4  5  2  0
  5  6  1  0
  7  6  1  6
  7  8  1  0
  8  9  1  0
  9 10  1  0
 10 11  1  6
 11 12  1  0
 12 13  2  0
 13 14  1  0
 11 15  2  0
 14 15  1  0
 10 16  1  0
 16 17  1  1
  7 18  1  0
 16 18  1  0
 18 19  1  1
  5 20  1  0
  2 21  1  0
 20 21  2  0
M  END
