MAK-UNK-a7992eb3-3-nitrile
     RDKit          3D

 37 39  0  0  0  0  0  0  0  0999 V2000
    6.4550   -4.3810   20.2570 C   0  0  0  0  0  0  0  0  0  0  0  0
    5.3510   -4.0190   19.7120 N   0  0  0  0  0  0  0  0  0  0  0  0
    6.5760   -4.8570   21.5560 N   0  0  0  0  0  0  0  0  0  0  0  0
    7.1050   -4.0460   22.6610 C   0  0  0  0  0  0  0  0  0  0  0  0
    6.4900   -4.5570   23.9530 C   0  0  0  0  0  0  0  0  0  0  0  0
    5.1180   -4.7800   23.8830 C   0  0  0  0  0  0  0  0  0  0  0  0
    4.4600   -4.7520   25.1270 C   0  0  0  0  0  0  0  0  0  0  0  0
    4.6000   -5.6510   25.9500 O   0  0  0  0  0  0  0  0  0  0  0  0
    3.6370   -3.6600   25.3280 N   0  0  0  0  0  0  0  0  0  0  0  0
    4.2080   -2.2780   25.2640 C   0  0  0  0  0  0  0  0  0  0  0  0
    4.0360   -0.8920   25.3640 C   0  0  0  0  0  0  0  0  0  0  0  0
    2.6560   -0.2170   25.6970 C   0  0  0  0  0  0  0  0  0  0  0  0
    1.3910   -1.1330   25.9240 C   0  0  0  0  0  0  0  0  0  0  0  0
    1.6130   -2.6380   25.8050 C   0  0  0  0  0  0  0  0  0  0  0  0
    2.9070   -1.8760   25.5500 C   0  0  0  0  0  0  0  0  0  0  0  0
    2.7920   -0.6510   25.5940 O   0  0  0  0  0  0  0  0  0  0  0  0
    2.4490    0.0590   24.3620 C   0  0  0  0  0  0  0  0  0  0  0  0
    3.4530    0.1820   23.2070 C   0  0  0  0  0  0  0  0  0  0  0  0
    2.9910    0.9350   21.9580 C   0  0  0  0  0  0  0  0  0  0  0  0
    1.6930    1.4540   21.9650 C   0  0  0  0  0  0  0  0  0  0  0  0
    1.1140    2.1650   20.9000 C   0  0  0  0  0  0  0  0  0  0  0  0
    0.8660    3.5090   21.2070 C   0  0  2  0  0  0  0  0  0  0  0  0
    1.2920    3.8120   22.4510 N   0  0  0  0  0  0  0  0  0  0  0  0
    2.5130    4.3700   22.5640 C   0  0  0  0  0  0  0  0  0  0  0  0
    3.6550    3.5650   22.6230 C   0  0  0  0  0  0  0  0  0  0  0  0
    2.6370    5.5890   22.6200 O   0  0  0  0  0  0  0  0  0  0  0  0
   -0.4380    3.9810   21.2050 C   0  0  0  0  0  0  0  0  0  0  0  0
   -0.8500    4.7860   22.0430 O   0  0  0  0  0  0  0  0  0  0  0  0
   -1.2150    3.4910   20.2220 N   0  0  0  0  0  0  0  0  0  0  0  0
   -2.5480    3.5840   20.4070 C   0  0  0  0  0  0  0  0  0  0  0  0
   -3.4030    2.5390   20.0240 C   0  0  0  0  0  0  0  0  0  0  0  0
   -4.1970    2.6850   18.8850 C   0  0  0  0  0  0  0  0  0  0  0  0
   -5.2690    2.8960   17.3230 Br  0  0  0  0  0  0  0  0  0  0  0  0
    0.8160    1.3170   23.0500 C   0  0  0  0  0  0  0  0  0  0  0  0
    1.1620    0.6430   24.2280 C   0  0  0  0  0  0  0  0  0  0  0  0
    4.9820   -5.9100   23.0550 C   0  0  0  0  0  0  0  0  0  0  0  0
    5.9140   -6.0850   21.9960 C   0  0  0  0  0  0  0  0  0  0  0  0
  1  2  2  3
  1  3  1  0
  3  4  1  0
  4  5  1  0
  5  6  1  0
  6  7  1  0
  7  8  2  0
  7  9  1  0
  9 10  1  0
 10 11  2  0
 11 12  1  0
 12 13  2  0
 13 14  1  0
 10 15  1  0
 14 15  2  0
 15 16  1  0
 16 17  1  0
 17 18  2  0
 18 19  1  0
 19 20  2  0
 20 21  1  0
 22 21  1  1
 22 23  1  0
 23 24  1  0
 24 25  1  0
 24 26  2  0
 22 27  1  0
 27 28  2  0
 27 29  1  0
 29 30  1  0
 30 31  1  0
 31 32  3  0
 32 33  1  0
 20 34  1  0
 17 35  1  0
 34 35  2  0
  6 36  1  0
  3 37  1  0
 36 37  1  0
M  END
