MAK-UNK-ec98eaf6-4-vinylsulfonamide
     RDKit          3D

 22 25  0  0  0  0  0  0  0  0999 V2000
    8.0650   -3.5240   19.5950 C   0  0  0  0  0  0  0  0  0  0  0  0
    6.8850   -2.8220   18.9740 C   0  0  0  0  0  0  0  0  0  0  0  0
    5.7180   -3.5580   20.0160 S   0  0  0  0  0  0  0  0  0  0  0  0
    4.5380   -2.8660   19.9370 O   0  0  0  0  0  0  0  0  0  0  0  0
    5.6260   -4.9590   19.8000 O   0  0  0  0  0  0  0  0  0  0  0  0
    6.5040   -3.2200   21.4530 N   0  0  0  0  0  0  0  0  0  0  0  0
    5.9050   -3.5550   22.7150 C   0  0  0  0  0  0  0  0  0  0  0  0
    7.1540   -3.2110   23.5900 C   0  0  2  0  0  0  0  0  0  0  0  0
    6.4910   -1.8400   23.1580 C   0  0  0  0  0  0  0  0  0  0  0  0
    7.0230   -1.8900   21.7250 C   0  0  1  0  0  0  0  0  0  0  0  0
    8.4920   -1.9430   22.1450 C   0  0  0  0  0  0  0  0  0  0  0  0
    8.2260   -2.1780   23.5910 N   0  0  0  0  0  0  0  0  0  0  0  0
    9.4400   -2.3760   24.4000 C   0  0  0  0  0  0  0  0  0  0  0  0
   10.5820   -1.4580   24.0020 C   0  0  0  0  0  0  0  0  0  0  0  0
   10.8460   -0.2400   24.6370 C   0  0  0  0  0  0  0  0  0  0  0  0
   11.9130    0.5150   24.1620 C   0  0  0  0  0  0  0  0  0  0  0  0
   12.6990    0.1110   23.1300 C   0  0  0  0  0  0  0  0  0  0  0  0
   12.4570   -1.0770   22.5030 C   0  0  0  0  0  0  0  0  0  0  0  0
   13.3930   -1.6360   21.2080 Cl  0  0  0  0  0  0  0  0  0  0  0  0
   11.3990   -1.8490   22.9430 C   0  0  0  0  0  0  0  0  0  0  0  0
    9.8520   -3.7520   24.4610 C   0  0  0  0  0  0  0  0  0  0  0  0
    9.5230   -3.4250   25.7060 C   0  0  0  0  0  0  0  0  0  0  0  0
  1  2  1  0
  3  2  1  0
  3  4  2  0
  3  5  2  0
  3  6  1  0
  6  7  1  0
  8  7  1  6
  8  9  1  0
  6 10  1  0
  9 10  1  0
 10 11  1  1
  8 12  1  0
 11 12  1  0
 12 13  1  0
 13 14  1  0
 14 15  2  0
 15 16  1  0
 16 17  2  0
 17 18  1  0
 18 19  1  0
 14 20  1  0
 18 20  2  0
 13 21  1  0
 13 22  1  0
 21 22  1  0
M  END
