MAK-UNK-60abb798-11
     RDKit          3D

 24 26  0  0  0  0  0  0  0  0999 V2000
    8.9290   -3.8600   27.1790 N   0  0  0  0  0  0  0  0  0  0  0  0
    9.9280   -4.7110   26.8100 C   0  0  0  0  0  0  0  0  0  0  0  0
   10.4910   -4.5810   25.4170 C   0  0  1  0  0  0  0  0  0  0  0  0
    9.7830   -4.7740   24.4690 O   0  0  0  0  0  0  0  0  0  0  0  0
    8.7880   -3.7490   24.3390 C   0  0  2  0  0  0  0  0  0  0  0  0
    7.5520   -4.1400   23.5400 C   0  0  2  0  0  0  0  0  0  0  0  0
    7.3300   -5.5760   23.8180 C   0  0  0  0  0  0  0  0  0  0  0  0
    6.7410   -6.3060   22.8250 C   0  0  0  0  0  0  0  0  0  0  0  0
    6.0300   -5.4520   21.9940 C   0  0  0  0  0  0  0  0  0  0  0  0
    6.8170   -4.4530   21.3700 C   0  0  1  0  0  0  0  0  0  0  0  0
    6.0750   -3.6340   20.3370 C   0  0  0  0  0  0  0  0  0  0  0  0
    6.8230   -2.3790   19.8470 C   0  0  0  0  0  0  0  0  0  0  0  0
    6.6100   -1.2180   20.4880 C   0  0  0  0  0  0  0  0  0  0  0  0
    5.5790   -0.5590   20.4340 O   0  0  0  0  0  0  0  0  0  0  0  0
    7.5970   -3.6960   22.2790 C   0  0  0  0  0  0  0  0  0  0  0  0
    9.3880   -2.5660   23.8460 C   0  0  0  0  0  0  0  0  0  0  0  0
   10.6980   -2.4370   24.2590 C   0  0  0  0  0  0  0  0  0  0  0  0
   11.2790   -3.4530   25.0590 C   0  0  0  0  0  0  0  0  0  0  0  0
   12.6060   -3.2770   25.4230 C   0  0  0  0  0  0  0  0  0  0  0  0
   13.3130   -2.1710   25.0320 C   0  0  0  0  0  0  0  0  0  0  0  0
   12.7320   -1.1760   24.2540 C   0  0  0  0  0  0  0  0  0  0  0  0
   13.4890   -0.0520   23.8670 O   0  0  0  0  0  0  0  0  0  0  0  0
   11.4260   -1.3030   23.8650 C   0  0  0  0  0  0  0  0  0  0  0  0
   10.8770   -0.3140   23.0940 O   0  0  0  0  0  0  0  0  0  0  0  0
  1  2  1  0
  3  2  1  1
  3  4  1  0
  4  5  1  0
  5  6  1  0
  6  7  1  6
  7  8  1  0
  8  9  1  0
  9 10  1  0
 10 11  1  1
 11 12  1  0
 12 13  1  0
 13 14  2  0
  6 15  1  0
 10 15  1  0
  5 16  1  6
 16 17  1  0
  3 18  1  0
 17 18  2  0
 18 19  1  0
 19 20  2  0
 20 21  1  0
 21 22  1  0
 17 23  1  0
 21 23  2  0
 23 24  1  0
M  END
