MAK-UNK-6ca90168-17-acrylamide
     RDKit          3D

 14 14  0  0  0  0  0  0  0  0999 V2000
    8.2970   -3.9050   20.6040 C   0  0  0  0  0  0  0  0  0  0  0  0
    7.6840   -5.0840   21.4090 C   0  0  0  0  0  0  0  0  0  0  0  0
    6.1740   -4.9660   21.4360 C   0  0  0  0  0  0  0  0  0  0  0  0
    5.0100   -4.7010   21.7860 O   0  0  0  0  0  0  0  0  0  0  0  0
    6.4810   -4.3380   22.6630 N   0  0  0  0  0  0  0  0  0  0  0  0
    5.3250   -3.8400   23.4040 C   0  0  0  0  0  0  0  0  0  0  0  0
    4.7810   -2.7370   22.6500 C   0  0  0  0  0  0  0  0  0  0  0  0
    5.7530   -2.3790   21.5940 N   0  0  0  0  0  0  0  0  0  0  0  0
    5.5630   -2.5980   20.2010 C   0  0  0  0  0  0  0  0  0  0  0  0
    5.2890   -3.7480   19.7840 O   0  0  0  0  0  0  0  0  0  0  0  0
    5.7130   -1.5120   19.3000 C   0  0  0  0  0  0  0  0  0  0  0  0
    5.8760   -0.6140   18.5750 N   0  0  0  0  0  0  0  0  0  0  0  0
    7.1530   -2.1600   22.0200 C   0  0  0  0  0  0  0  0  0  0  0  0
    7.5750   -3.3440   22.6990 C   0  0  0  0  0  0  0  0  0  0  0  0
  1  2  1  0
  2  3  1  0
  3  4  2  0
  3  5  1  0
  5  6  1  0
  6  7  1  0
  7  8  1  0
  8  9  1  0
  9 10  2  0
  9 11  1  0
 11 12  3  0
  8 13  1  0
  5 14  1  0
 13 14  1  0
M  END
