MAK-UNK-6c8f5f75-6-chloroacetamide
     RDKit          3D

 10 10  0  0  0  0  0  0  0  0999 V2000
    7.2500   -3.0150   18.9360 C   0  0  0  0  0  0  0  0  0  0  0  0
    6.4050   -3.4930   20.1090 C   0  0  0  0  0  0  0  0  0  0  0  0
    5.4960   -4.3100   19.8650 O   0  0  0  0  0  0  0  0  0  0  0  0
    6.7040   -2.9960   21.4090 N   0  0  0  0  0  0  0  0  0  0  0  0
    6.2760   -3.6640   22.6310 C   0  0  0  0  0  0  0  0  0  0  0  0
    6.6920   -2.9760   23.8980 C   0  0  0  0  0  0  0  0  0  0  0  0
    7.4840   -1.7290   23.5570 C   0  0  0  0  0  0  0  0  0  0  0  0
    7.8970   -1.8300   21.8160 S   0  0  0  0  0  0  0  0  0  0  0  0
    7.6060   -0.5840   21.1470 O   0  0  0  0  0  0  0  0  0  0  0  0
    9.2150   -2.4280   21.7540 O   0  0  0  0  0  0  0  0  0  0  0  0
  1  2  1  0
  2  3  2  0
  2  4  1  0
  4  5  1  0
  5  6  2  0
  6  7  1  0
  8  4  1  0
  7  8  1  0
  8  9  2  0
  8 10  2  0
M  END
