MAK-UNK-702fb7d3-11-chloroacetamide
     RDKit          3D

 42 47  0  0  0  0  0  0  0  0999 V2000
    8.8040   -4.4750   20.5930 C   0  0  0  0  0  0  0  0  0  0  0  0
    7.5880   -3.9730   21.4070 C   0  0  0  0  0  0  0  0  0  0  0  0
    7.1640   -4.1110   20.1120 O   0  0  0  0  0  0  0  0  0  0  0  0
    8.3410   -3.9020   22.8200 N   0  0  0  0  0  0  0  0  0  0  0  0
    7.7640   -3.4550   24.1610 C   0  0  0  0  0  0  0  0  0  0  0  0
    7.8190   -4.3920   25.2670 C   0  0  0  0  0  0  0  0  0  0  0  0
    6.8430   -4.2450   26.2580 C   0  0  0  0  0  0  0  0  0  0  0  0
    6.7910   -5.1170   27.3540 C   0  0  0  0  0  0  0  0  0  0  0  0
    7.7770   -6.2570   27.5210 C   0  0  0  0  0  0  0  0  0  0  0  0
    8.8560   -6.4700   26.4780 C   0  0  0  0  0  0  0  0  0  0  0  0
    9.8980   -7.6920   26.6080 N   0  0  0  0  0  0  0  0  0  0  0  0
    9.8230   -9.3090   26.7960 C   0  0  0  0  0  0  0  0  0  0  0  0
    9.5880  -10.3520   28.1940 C   0  0  0  0  0  0  0  0  0  0  0  0
   10.6850  -10.6110   29.2280 C   0  0  0  0  0  0  0  0  0  0  0  0
   10.4940  -11.3610   30.2600 C   0  0  0  0  0  0  0  0  0  0  0  0
   11.6960  -11.5460   31.2470 C   0  0  0  0  0  0  0  0  0  0  0  0
   12.4350  -10.3140   31.2720 C   0  0  0  0  0  0  0  0  0  0  0  0
   13.6850  -10.1780   32.1490 C   0  0  0  0  0  0  0  0  0  0  0  0
   14.0460  -11.4330   32.9610 C   0  0  0  0  0  0  0  0  0  0  0  0
   13.2060  -12.6090   32.8420 C   0  0  0  0  0  0  0  0  0  0  0  0
   12.0930  -12.6380   32.0190 C   0  0  0  0  0  0  0  0  0  0  0  0
   11.4100  -13.7800   31.9990 F   0  0  0  0  0  0  0  0  0  0  0  0
    9.2660  -11.7340   30.1500 N   0  0  0  0  0  0  0  0  0  0  0  0
    8.9460  -12.6820   31.5130 S   0  0  0  0  0  0  0  0  0  0  0  0
    9.5960  -12.0450   32.6370 O   0  0  0  0  0  0  0  0  0  0  0  0
    7.5190  -12.8780   31.5460 O   0  0  0  0  0  0  0  0  0  0  0  0
    9.8140  -14.1520   31.0690 C   0  0  0  0  0  0  0  0  0  0  0  0
   10.4120  -14.2390   29.8230 C   0  0  0  0  0  0  0  0  0  0  0  0
   11.1430  -15.5310   29.4480 C   0  0  0  0  0  0  0  0  0  0  0  0
   11.1390  -16.6090   30.5230 C   0  0  0  0  0  0  0  0  0  0  0  0
   10.5310  -16.4110   31.7150 N   0  0  0  0  0  0  0  0  0  0  0  0
    9.8870  -15.2270   31.9730 C   0  0  0  0  0  0  0  0  0  0  0  0
    8.6250  -11.2010   28.9210 C   0  0  0  0  0  0  0  0  0  0  0  0
    8.8070   -5.4550   25.3600 C   0  0  0  0  0  0  0  0  0  0  0  0
    9.6790   -5.4750   24.2820 C   0  0  1  0  0  0  0  0  0  0  0  0
    9.1170   -6.4430   23.5770 C   0  0  0  0  0  0  0  0  0  0  0  0
    9.8630   -7.3670   22.9160 C   0  0  0  0  0  0  0  0  0  0  0  0
    9.2410   -8.3630   22.2550 C   0  0  0  0  0  0  0  0  0  0  0  0
    7.8530   -8.4290   22.2450 C   0  0  0  0  0  0  0  0  0  0  0  0
    7.0850   -7.4980   22.8670 C   0  0  0  0  0  0  0  0  0  0  0  0
    7.7180   -6.5010   23.5400 C   0  0  0  0  0  0  0  0  0  0  0  0
    9.7430   -4.2890   23.2650 C   0  0  0  0  0  0  0  0  0  0  0  0
  1  2  1  0
  2  3  2  0
  2  4  1  0
  4  5  1  0
  5  6  1  0
  6  7  1  0
  7  8  2  0
  8  9  1  0
  9 10  2  0
 10 11  1  0
 11 12  1  0
 12 13  1  0
 13 14  1  0
 14 15  2  0
 15 16  1  0
 16 17  2  0
 17 18  1  0
 18 19  2  0
 19 20  1  0
 16 21  1  0
 20 21  2  0
 21 22  1  0
 15 23  1  0
 23 24  1  0
 24 25  2  0
 24 26  2  0
 24 27  1  0
 27 28  2  0
 28 29  1  0
 29 30  2  0
 30 31  1  0
 27 32  1  0
 31 32  2  0
 13 33  2  0
 23 33  1  0
  6 34  2  0
 10 34  1  0
 34 35  1  0
 35 36  1  6
 36 37  2  0
 37 38  1  0
 38 39  2  0
 39 40  1  0
 36 41  1  0
 40 41  2  0
  4 42  1  0
 35 42  1  0
M  END
