MAK-UNK-72659d64-7-vinylsulfonamide
     RDKit          3D

 15 15  0  0  0  0  0  0  0  0999 V2000
    6.9320   -3.1520   19.2380 C   0  0  0  0  0  0  0  0  0  0  0  0
    6.8230   -2.6650   20.6950 C   0  0  0  0  0  0  0  0  0  0  0  0
    5.6760   -3.7820   21.4520 S   0  0  0  0  0  0  0  0  0  0  0  0
    4.4890   -3.1210   21.8850 O   0  0  0  0  0  0  0  0  0  0  0  0
    5.4530   -4.7470   20.3790 O   0  0  0  0  0  0  0  0  0  0  0  0
    6.4530   -4.5350   22.8770 N   0  0  0  0  0  0  0  0  0  0  0  0
    6.9570   -5.7630   22.8430 C   0  0  0  0  0  0  0  0  0  0  0  0
    6.5110   -3.8290   24.0890 C   0  0  0  0  0  0  0  0  0  0  0  0
    7.6970   -3.7830   23.2250 C   0  0  0  0  0  0  0  0  0  0  0  0
    7.3890   -4.6140   22.0710 N   0  0  0  0  0  0  0  0  0  0  0  0
    5.9530   -5.2250   22.1590 C   0  0  0  0  0  0  0  0  0  0  0  0
    5.6550   -6.0360   20.9220 C   0  0  0  0  0  0  0  0  0  0  0  0
    5.4270   -6.5160   19.9210 N   0  0  0  0  0  0  0  0  0  0  0  0
    4.9420   -5.1360   23.1220 N   0  0  0  0  0  0  0  0  0  0  0  0
    5.2790   -4.3640   24.1660 C   0  0  0  0  0  0  0  0  0  0  0  0
  1  2  1  0
  2  3  1  0
  3  4  2  0
  3  5  2  0
  3  6  1  0
  6  7  1  0
  6  8  1  0
  8  9  2  0
  9 10  1  0
 10 11  2  0
 11 12  1  0
 12 13  3  0
 11 14  1  0
  8 15  1  0
 14 15  2  0
M  END
