MAK-UNK-f2409524-27
     RDKit          3D

 23 24  0  0  0  0  0  0  0  0999 V2000
    7.6840   -2.3310   18.3630 C   0  0  0  0  0  0  0  0  0  0  0  0
    7.2950   -2.1580   19.7630 C   0  0  0  0  0  0  0  0  0  0  0  0
    8.0250   -2.2720   20.7430 O   0  0  0  0  0  0  0  0  0  0  0  0
    5.9960   -1.8670   19.7760 N   0  0  0  0  0  0  0  0  0  0  0  0
    5.6840   -0.5400   19.3630 C   0  0  0  0  0  0  0  0  0  0  0  0
    5.5980   -0.2780   17.8870 C   0  0  0  0  0  0  0  0  0  0  0  0
    5.2840    1.0300   17.4780 N   0  0  0  0  0  0  0  0  0  0  0  0
    5.0780    1.9030   18.4490 C   0  0  0  0  0  0  0  0  0  0  0  0
    5.2060    1.4820   19.7400 C   0  0  0  0  0  0  0  0  0  0  0  0
    5.5130    0.2800   20.4370 C   0  0  0  0  0  0  0  0  0  0  0  0
    5.3070    1.2350   21.3420 C   0  0  0  0  0  0  0  0  0  0  0  0
    5.1740    0.8150   22.7640 C   0  0  0  0  0  0  0  0  0  0  0  0
    4.9820    2.0320   23.6290 C   0  0  0  0  0  0  0  0  0  0  0  0
    4.0100    2.7960   23.1580 C   0  0  0  0  0  0  0  0  0  0  0  0
    2.6420    2.6270   23.2320 C   0  0  0  0  0  0  0  0  0  0  0  0
    2.0500    1.5460   23.8730 C   0  0  0  0  0  0  0  0  0  0  0  0
    1.6460    3.5660   22.6150 N   0  0  0  0  0  0  0  0  0  0  0  0
    0.3470    3.9250   23.3100 C   0  0  0  0  0  0  0  0  0  0  0  0
    0.5610    4.4220   24.6040 C   0  0  0  0  0  0  0  0  0  0  0  0
   -0.6430    4.8210   25.1900 C   0  0  0  0  0  0  0  0  0  0  0  0
   -1.8110    4.3430   24.5870 C   0  0  0  0  0  0  0  0  0  0  0  0
   -1.7570    3.1390   23.8730 C   0  0  0  0  0  0  0  0  0  0  0  0
   -0.5420    2.8520   23.2690 C   0  0  0  0  0  0  0  0  0  0  0  0
  1  2  1  0
  2  3  2  0
  2  4  1  0
  4  5  1  0
  5  6  2  0
  6  7  1  0
  7  8  2  0
  8  9  1  0
  5 10  1  0
  9 10  2  0
 10 11  1  0
 11 12  1  0
 12 13  1  0
 13 14  1  0
 14 15  2  3
 15 16  1  0
 15 17  1  0
 17 18  1  0
 18 19  1  0
 19 20  1  0
 20 21  1  0
 21 22  1  0
 18 23  1  0
 22 23  1  0
M  END
