MAK-UNK-10dfa458-18-chloroacetamide
     RDKit          3D

 17 18  0  0  0  0  0  0  0  0999 V2000
    7.1750   -3.3780   19.8730 C   0  0  0  0  0  0  0  0  0  0  0  0
    6.2490   -4.4050   20.5030 C   0  0  0  0  0  0  0  0  0  0  0  0
    5.2230   -4.6870   19.9140 O   0  0  0  0  0  0  0  0  0  0  0  0
    6.5010   -5.0490   21.6880 N   0  0  0  0  0  0  0  0  0  0  0  0
    5.7800   -6.2600   22.0860 C   0  0  0  0  0  0  0  0  0  0  0  0
    4.7910   -5.7050   23.1450 C   0  0  0  0  0  0  0  0  0  0  0  0
    5.5740   -5.1460   24.2800 N   0  0  0  0  0  0  0  0  0  0  0  0
    4.7540   -5.0590   25.7690 S   0  0  0  0  0  0  0  0  0  0  0  0
    5.7040   -4.6680   26.7810 O   0  0  0  0  0  0  0  0  0  0  0  0
    3.9370   -6.2460   25.8960 O   0  0  0  0  0  0  0  0  0  0  0  0
    3.5840   -3.7780   25.7560 C   0  0  0  0  0  0  0  0  0  0  0  0
    2.1160   -3.9700   25.4320 C   0  0  0  0  0  0  0  0  0  0  0  0
    1.2370   -2.6740   25.4990 C   0  0  0  0  0  0  0  0  0  0  0  0
    2.5170   -1.5710   25.9460 S   0  0  0  0  0  0  0  0  0  0  0  0
    3.8970   -2.5220   26.0410 C   0  0  0  0  0  0  0  0  0  0  0  0
    6.4830   -4.0550   23.9160 C   0  0  0  0  0  0  0  0  0  0  0  0
    7.3670   -4.5270   22.7660 C   0  0  0  0  0  0  0  0  0  0  0  0
  1  2  1  0
  2  3  2  0
  2  4  1  0
  4  5  1  0
  5  6  1  0
  6  7  1  0
  7  8  1  0
  8  9  2  0
  8 10  2  0
  8 11  1  0
 11 12  1  0
 12 13  2  0
 13 14  1  0
 11 15  2  0
 14 15  1  0
  7 16  1  0
  4 17  1  0
 16 17  1  0
M  END
