MAK-UNK-b1d4dcd7-5
     RDKit          3D

 28 31  0  0  0  0  0  0  0  0999 V2000
    5.4060   -3.6220   19.4520 O   0  0  0  0  0  0  0  0  0  0  0  0
    6.1110   -2.6800   19.8400 C   0  0  0  0  0  0  0  0  0  0  0  0
    6.1550   -1.2550   19.3450 C   0  0  1  0  0  0  0  0  0  0  0  0
    6.5850   -0.8630   17.9890 C   0  0  2  0  0  0  0  0  0  0  0  0
    7.7580   -1.5930   17.6570 O   0  0  0  0  0  0  0  0  0  0  0  0
    6.9620    0.4720   18.0450 C   0  0  0  0  0  0  0  0  0  0  0  0
    6.8600    1.0960   19.3440 C   0  0  0  0  0  0  0  0  0  0  0  0
    5.9810    0.5740   20.2940 C   0  0  0  0  0  0  0  0  0  0  0  0
    5.1320   -0.2760   19.7240 N   0  0  0  0  0  0  0  0  0  0  0  0
    4.6160    0.4830   18.5500 C   0  0  0  0  0  0  0  0  0  0  0  0
    3.6930    1.6920   18.8940 C   0  0  0  0  0  0  0  0  0  0  0  0
    2.6760    1.4050   19.9960 C   0  0  0  0  0  0  0  0  0  0  0  0
    1.6650    2.4450   20.4550 C   0  0  0  0  0  0  0  0  0  0  0  0
    1.6770    3.8110   19.7920 C   0  0  0  0  0  0  0  0  0  0  0  0
    2.7130    4.0670   18.6960 C   0  0  0  0  0  0  0  0  0  0  0  0
    3.7080    2.9530   18.2950 C   0  0  0  0  0  0  0  0  0  0  0  0
    7.0340   -2.7510   20.8340 N   0  0  0  0  0  0  0  0  0  0  0  0
    6.7300   -3.3680   22.1050 C   0  0  0  0  0  0  0  0  0  0  0  0
    7.8000   -3.5080   23.0270 C   0  0  0  0  0  0  0  0  0  0  0  0
    8.7970   -2.5490   23.0060 N   0  0  0  0  0  0  0  0  0  0  0  0
   10.0370   -2.6130   23.6720 C   0  0  0  0  0  0  0  0  0  0  0  0
   10.8980   -1.5200   23.6060 C   0  0  0  0  0  0  0  0  0  0  0  0
   12.0100   -1.4310   22.7750 C   0  0  0  0  0  0  0  0  0  0  0  0
   12.6910   -0.2370   22.9020 C   0  0  0  0  0  0  0  0  0  0  0  0
   12.1160    0.6110   23.8270 C   0  0  0  0  0  0  0  0  0  0  0  0
   10.7240   -0.0870   24.5500 S   0  0  0  0  0  0  0  0  0  0  0  0
    9.0470   -1.9410   21.6990 C   0  0  0  0  0  0  0  0  0  0  0  0
    7.8980   -1.6010   21.0340 C   0  0  0  0  0  0  0  0  0  0  0  0
  1  2  2  0
  3  2  1  6
  3  4  1  0
  4  5  1  1
  4  6  1  0
  6  7  1  0
  7  8  1  0
  3  9  1  0
  8  9  1  0
  9 10  1  0
 10 11  1  0
 11 12  2  0
 12 13  1  0
 13 14  2  0
 14 15  1  0
 11 16  1  0
 15 16  2  0
  2 17  1  0
 17 18  1  0
 18 19  1  0
 19 20  1  0
 20 21  1  0
 21 22  1  0
 22 23  2  0
 23 24  1  0
 24 25  2  0
 22 26  1  0
 25 26  1  0
 20 27  1  0
 17 28  1  0
 27 28  1  0
M  END
