MAK-UNK-148caf23-4-acrylamide
     RDKit          3D

 36 39  0  0  0  0  0  0  0  0999 V2000
    8.8740   -3.4470   19.9940 C   0  0  0  0  0  0  0  0  0  0  0  0
    7.8400   -4.1780   20.7780 C   0  0  0  0  0  0  0  0  0  0  0  0
    6.7980   -3.2030   21.3160 C   0  0  0  0  0  0  0  0  0  0  0  0
    5.2450   -3.5320   21.1400 O   0  0  0  0  0  0  0  0  0  0  0  0
    7.8850   -2.0570   21.9750 C   0  0  0  0  0  0  0  0  0  0  0  0
    8.4630   -0.7530   21.6160 C   0  0  0  0  0  0  0  0  0  0  0  0
    9.0460   -1.0650   22.8840 N   0  0  0  0  0  0  0  0  0  0  0  0
    9.9370   -0.5730   23.9170 C   0  0  0  0  0  0  0  0  0  0  0  0
   10.6270   -0.6590   25.1610 N   0  0  0  0  0  0  0  0  0  0  0  0
    9.8410   -0.5330   26.4320 C   0  0  0  0  0  0  0  0  0  0  0  0
    8.5290    0.2050   26.2760 C   0  0  0  0  0  0  0  0  0  0  0  0
    9.4340   -1.8530   24.2070 C   0  0  0  0  0  0  0  0  0  0  0  0
    9.6440   -2.7230   25.3170 N   0  0  0  0  0  0  0  0  0  0  0  0
    9.5480   -4.0680   25.2790 C   0  0  0  0  0  0  0  0  0  0  0  0
    8.0640   -4.3060   25.5820 C   0  0  0  0  0  0  0  0  0  0  0  0
    7.6480   -4.5390   26.8910 C   0  0  0  0  0  0  0  0  0  0  0  0
    6.1900   -4.7210   26.7890 C   0  0  0  0  0  0  0  0  0  0  0  0
    5.4750   -4.9830   28.0280 C   0  0  0  0  0  0  0  0  0  0  0  0
    4.1610   -4.2060   28.0360 C   0  0  0  0  0  0  0  0  0  0  0  0
    3.3380   -4.4310   29.3040 C   0  0  0  0  0  0  0  0  0  0  0  0
    3.8070   -5.3020   30.3590 C   0  0  0  0  0  0  0  0  0  0  0  0
    5.0340   -5.9380   30.1960 C   0  0  0  0  0  0  0  0  0  0  0  0
    5.8470   -5.7950   29.0830 C   0  0  0  0  0  0  0  0  0  0  0  0
    7.0030   -6.4660   29.0510 F   0  0  0  0  0  0  0  0  0  0  0  0
    5.7730   -4.6060   25.5030 N   0  0  0  0  0  0  0  0  0  0  0  0
    4.2380   -4.7270   24.8360 S   0  0  0  0  0  0  0  0  0  0  0  0
    3.5920   -3.4530   25.0770 O   0  0  0  0  0  0  0  0  0  0  0  0
    3.6160   -5.9570   25.2860 O   0  0  0  0  0  0  0  0  0  0  0  0
    4.6170   -4.9040   23.1840 C   0  0  0  0  0  0  0  0  0  0  0  0
    4.9600   -6.2680   22.5570 C   0  0  0  0  0  0  0  0  0  0  0  0
    5.2860   -6.2140   21.0620 C   0  0  0  0  0  0  0  0  0  0  0  0
    5.2460   -5.0270   20.4340 C   0  0  0  0  0  0  0  0  0  0  0  0
    4.9340   -3.8370   21.0190 N   0  0  0  0  0  0  0  0  0  0  0  0
    4.6270   -3.7890   22.3680 C   0  0  0  0  0  0  0  0  0  0  0  0
    6.9170   -4.3510   24.7520 C   0  0  0  0  0  0  0  0  0  0  0  0
    8.6550   -1.9560   23.0840 C   0  0  0  0  0  0  0  0  0  0  0  0
  1  2  1  0
  2  3  1  0
  3  4  2  0
  3  5  1  0
  5  6  2  0
  6  7  1  0
  7  8  2  0
  8  9  1  0
  9 10  1  0
 10 11  1  0
  8 12  1  0
 12 13  1  0
 13 14  1  0
 14 15  1  0
 15 16  1  0
 16 17  2  0
 17 18  1  0
 18 19  2  0
 19 20  1  0
 20 21  2  0
 21 22  1  0
 18 23  1  0
 22 23  2  0
 23 24  1  0
 17 25  1  0
 25 26  1  0
 26 27  2  0
 26 28  2  0
 26 29  1  0
 29 30  2  0
 30 31  1  0
 31 32  2  0
 32 33  1  0
 29 34  1  0
 33 34  2  0
 15 35  2  0
 25 35  1  0
  5 36  1  0
 12 36  2  0
M  END
