MAK-UNK-6ca90168-22-chloroacetamide
     RDKit          3D

 17 18  0  0  0  0  0  0  0  0999 V2000
    7.1590   -2.9760   18.7540 C   0  0  0  0  0  0  0  0  0  0  0  0
    6.2170   -3.2920   19.8700 C   0  0  0  0  0  0  0  0  0  0  0  0
    5.3300   -4.1400   19.7480 O   0  0  0  0  0  0  0  0  0  0  0  0
    6.4210   -2.6000   21.0650 N   0  0  0  0  0  0  0  0  0  0  0  0
    7.0500   -1.2730   21.1270 C   0  0  0  0  0  0  0  0  0  0  0  0
    8.4010   -1.3260   21.8620 C   0  0  0  0  0  0  0  0  0  0  0  0
    8.7180   -2.4740   22.6970 C   0  0  0  0  0  0  0  0  0  0  0  0
    9.6490   -2.3620   23.7340 C   0  0  2  0  0  0  0  0  0  0  0  0
    8.8790   -2.4250   24.9200 C   0  0  0  0  0  0  0  0  0  0  0  0
    8.2540   -2.5020   25.8970 N   0  0  0  0  0  0  0  0  0  0  0  0
   10.5730   -1.3020   23.6390 C   0  0  0  0  0  0  0  0  0  0  0  0
   10.1200   -0.0770   24.2410 C   0  0  0  0  0  0  0  0  0  0  0  0
   11.1580    0.9770   24.0810 C   0  0  0  0  0  0  0  0  0  0  0  0
   12.5040    0.2420   23.2190 S   0  0  0  0  0  0  0  0  0  0  0  0
   11.8600   -1.4810   22.9760 C   0  0  0  0  0  0  0  0  0  0  0  0
    7.3620   -2.8680   23.3410 C   0  0  0  0  0  0  0  0  0  0  0  0
    6.3140   -3.2630   22.3620 C   0  0  0  0  0  0  0  0  0  0  0  0
  1  2  1  0
  2  3  2  0
  2  4  1  0
  4  5  1  0
  5  6  1  0
  6  7  1  0
  7  8  1  0
  8  9  1  1
  9 10  3  0
  8 11  1  0
 11 12  1  0
 12 13  2  0
 13 14  1  0
 11 15  2  0
 14 15  1  0
  7 16  1  0
  4 17  1  0
 16 17  1  0
M  END
