MAK-UNK-704ed37c-6-chloroacetamide
     RDKit          3D

 16 17  0  0  0  0  0  0  0  0999 V2000
    6.9770   -3.3370   19.5230 C   0  0  0  0  0  0  0  0  0  0  0  0
    6.2530   -4.2630   20.4550 C   0  0  0  0  0  0  0  0  0  0  0  0
    5.3450   -4.9390   20.0000 O   0  0  0  0  0  0  0  0  0  0  0  0
    6.7060   -4.3190   21.7700 N   0  0  0  0  0  0  0  0  0  0  0  0
    6.4650   -5.3640   22.7170 C   0  0  0  0  0  0  0  0  0  0  0  0
    6.0500   -4.9720   24.0060 C   0  0  0  0  0  0  0  0  0  0  0  0
    5.8190   -3.5970   24.1640 C   0  0  0  0  0  0  0  0  0  0  0  0
    5.4600   -3.1690   25.4720 C   0  0  0  0  0  0  0  0  0  0  0  0
    4.8800   -2.0870   25.5060 O   0  0  0  0  0  0  0  0  0  0  0  0
    5.6660   -3.8280   26.6560 N   0  0  0  0  0  0  0  0  0  0  0  0
    4.8340   -3.6630   27.7290 C   0  0  0  0  0  0  0  0  0  0  0  0
    5.3920   -4.6000   28.7490 N   0  0  0  0  0  0  0  0  0  0  0  0
    6.7250   -4.8130   28.2640 C   0  0  0  0  0  0  0  0  0  0  0  0
    6.8930   -3.7940   27.2830 O   0  0  0  0  0  0  0  0  0  0  0  0
    7.1580   -2.9460   23.7720 C   0  0  0  0  0  0  0  0  0  0  0  0
    7.4490   -3.1710   22.3050 C   0  0  0  0  0  0  0  0  0  0  0  0
  1  2  1  0
  2  3  2  0
  2  4  1  0
  4  5  1  0
  5  6  1  0
  6  7  1  0
  7  8  1  0
  8  9  2  0
  8 10  1  0
 10 11  1  0
 11 12  1  0
 12 13  1  0
 10 14  1  0
 13 14  1  0
  7 15  1  0
  4 16  1  0
 15 16  1  0
M  END
