MAK-UNK-702fb7d3-8-chloroacetamide
     RDKit          3D

 42 47  0  0  0  0  0  0  0  0999 V2000
    8.4600   -3.3850   20.1790 C   0  0  0  0  0  0  0  0  0  0  0  0
    7.4430   -4.1080   20.9530 C   0  0  0  0  0  0  0  0  0  0  0  0
    6.3950   -4.4740   20.2210 O   0  0  0  0  0  0  0  0  0  0  0  0
    7.8400   -4.2250   22.3730 N   0  0  0  0  0  0  0  0  0  0  0  0
    7.1910   -4.8520   23.5870 C   0  0  0  0  0  0  0  0  0  0  0  0
    7.1590   -3.5840   24.4470 C   0  0  0  0  0  0  0  0  0  0  0  0
    5.7480   -3.2400   24.9540 C   0  0  0  0  0  0  0  0  0  0  0  0
    4.7040   -4.2050   24.5760 N   0  0  0  0  0  0  0  0  0  0  0  0
    3.4260   -3.7480   24.0430 C   0  0  0  0  0  0  0  0  0  0  0  0
    2.3670   -4.7520   24.4630 C   0  0  0  0  0  0  0  0  0  0  0  0
    1.6280   -4.2860   25.7210 C   0  0  0  0  0  0  0  0  0  0  0  0
    0.7030   -5.4240   25.8620 C   0  0  0  0  0  0  0  0  0  0  0  0
   -0.2580   -5.4120   26.9950 C   0  0  0  0  0  0  0  0  0  0  0  0
   -1.5550   -5.5460   26.6640 C   0  0  0  0  0  0  0  0  0  0  0  0
   -2.6100   -5.5510   27.6520 C   0  0  0  0  0  0  0  0  0  0  0  0
   -2.3230   -5.4200   28.9530 C   0  0  0  0  0  0  0  0  0  0  0  0
   -0.9160   -5.2760   29.3040 C   0  0  0  0  0  0  0  0  0  0  0  0
    0.1120   -5.2710   28.3560 C   0  0  0  0  0  0  0  0  0  0  0  0
    1.3890   -5.1350   28.7430 F   0  0  0  0  0  0  0  0  0  0  0  0
    0.9610   -6.4000   24.7470 N   0  0  0  0  0  0  0  0  0  0  0  0
    0.1120   -7.8190   24.5520 S   0  0  0  0  0  0  0  0  0  0  0  0
    1.0540   -8.8890   24.7950 O   0  0  0  0  0  0  0  0  0  0  0  0
   -1.1340   -7.7250   25.2740 O   0  0  0  0  0  0  0  0  0  0  0  0
   -0.2650   -7.7450   22.8480 C   0  0  0  0  0  0  0  0  0  0  0  0
    0.4850   -8.4130   21.8800 C   0  0  0  0  0  0  0  0  0  0  0  0
    0.1310   -8.3130   20.4870 C   0  0  0  0  0  0  0  0  0  0  0  0
   -0.9640   -7.5520   20.0190 C   0  0  0  0  0  0  0  0  0  0  0  0
   -1.6650   -6.9180   21.0200 N   0  0  0  0  0  0  0  0  0  0  0  0
   -1.3370   -6.9970   22.4320 C   0  0  0  0  0  0  0  0  0  0  0  0
    1.9820   -5.9600   23.9150 C   0  0  0  0  0  0  0  0  0  0  0  0
    5.6140   -2.0770   25.6870 C   0  0  0  0  0  0  0  0  0  0  0  0
    6.8730   -1.2200   25.9150 C   0  0  0  0  0  0  0  0  0  0  0  0
    8.1080   -1.6490   25.4020 C   0  0  0  0  0  0  0  0  0  0  0  0
    8.2450   -2.8110   24.7070 C   0  0  0  0  0  0  0  0  0  0  0  0
    9.4100   -3.2650   24.1850 C   0  0  2  0  0  0  0  0  0  0  0  0
   10.5740   -2.5280   24.1880 C   0  0  0  0  0  0  0  0  0  0  0  0
   10.5660   -1.3120   23.5020 C   0  0  0  0  0  0  0  0  0  0  0  0
   11.7130   -0.5320   23.4550 C   0  0  0  0  0  0  0  0  0  0  0  0
   12.8610   -0.9660   24.0880 C   0  0  0  0  0  0  0  0  0  0  0  0
   12.8820   -2.1820   24.7830 C   0  0  0  0  0  0  0  0  0  0  0  0
   11.7300   -2.9680   24.8340 C   0  0  0  0  0  0  0  0  0  0  0  0
    8.9500   -3.2790   22.7370 C   0  0  0  0  0  0  0  0  0  0  0  0
  1  2  1  0
  2  3  2  0
  2  4  1  0
  4  5  1  0
  5  6  1  0
  6  7  1  0
  7  8  1  0
  8  9  1  0
  9 10  1  0
 10 11  1  0
 11 12  2  0
 12 13  1  0
 13 14  2  0
 14 15  1  0
 15 16  2  0
 16 17  1  0
 13 18  1  0
 17 18  2  0
 18 19  1  0
 12 20  1  0
 20 21  1  0
 21 22  2  0
 21 23  2  0
 21 24  1  0
 24 25  2  0
 25 26  1  0
 26 27  2  0
 27 28  1  0
 24 29  1  0
 28 29  2  0
 10 30  2  0
 20 30  1  0
  7 31  2  0
 31 32  1  0
 32 33  2  0
  6 34  2  0
 33 34  1  0
 34 35  1  0
 35 36  1  6
 36 37  2  0
 37 38  1  0
 38 39  2  0
 39 40  1  0
 36 41  1  0
 40 41  2  0
  4 42  1  0
 35 42  1  0
M  END
