MAK-UNK-6c8f5f75-1-nitrile
     RDKit          3D

 10 10  0  0  0  0  0  0  0  0999 V2000
    6.9140   -3.8950   20.2320 C   0  0  0  0  0  0  0  0  0  0  0  0
    5.7640   -4.4100   19.9320 N   0  0  0  0  0  0  0  0  0  0  0  0
    7.1500   -3.0510   21.3270 N   0  0  0  0  0  0  0  0  0  0  0  0
    7.9990   -3.4060   22.4760 C   0  0  0  0  0  0  0  0  0  0  0  0
    9.2140   -2.6540   22.4470 C   0  0  0  0  0  0  0  0  0  0  0  0
    9.1610   -1.2420   22.3620 C   0  0  0  0  0  0  0  0  0  0  0  0
    9.9100   -0.4690   23.2600 C   0  0  0  0  0  0  0  0  0  0  0  0
   10.6880   -1.3020   24.2200 N   0  0  0  0  0  0  0  0  0  0  0  0
    7.6190   -1.2360   22.5170 C   0  0  0  0  0  0  0  0  0  0  0  0
    7.0100   -1.7180   21.2710 C   0  0  0  0  0  0  0  0  0  0  0  0
  1  2  2  3
  1  3  1  0
  3  4  1  0
  4  5  1  0
  5  6  1  0
  6  7  1  0
  7  8  3  0
  6  9  1  0
  3 10  1  0
  9 10  1  0
M  END
