MAK-UNK-e4a48a85-14-chloroacetamide
     RDKit          3D

 20 21  0  0  0  0  0  0  0  0999 V2000
    7.2310   -2.9570   18.7180 C   0  0  0  0  0  0  0  0  0  0  0  0
    6.2550   -3.2280   19.8500 C   0  0  0  0  0  0  0  0  0  0  0  0
    5.3920   -4.1130   19.7490 O   0  0  0  0  0  0  0  0  0  0  0  0
    6.4220   -2.4360   20.9930 N   0  0  0  0  0  0  0  0  0  0  0  0
    6.1370   -3.0040   22.3140 C   0  0  0  0  0  0  0  0  0  0  0  0
    7.5280   -3.4030   22.8650 C   0  0  0  0  0  0  0  0  0  0  0  0
    8.3190   -2.1400   23.0620 N   0  0  0  0  0  0  0  0  0  0  0  0
    9.5270   -2.1690   23.9270 C   0  0  0  0  0  0  0  0  0  0  0  0
   10.4760   -1.2160   23.5320 N   0  0  0  0  0  0  0  0  0  0  0  0
   11.6890   -1.6900   22.8460 C   0  0  0  0  0  0  0  0  0  0  0  0
   10.7810   -0.1250   24.4840 C   0  0  0  0  0  0  0  0  0  0  0  0
   11.1540    1.1840   24.0210 N   0  0  0  0  0  0  0  0  0  0  0  0
   12.1540    1.4550   23.0930 C   0  0  0  0  0  0  0  0  0  0  0  0
   12.3510    2.9560   22.6710 C   0  0  0  0  0  0  0  0  0  0  0  0
   11.0760    3.7460   22.4590 C   0  0  0  0  0  0  0  0  0  0  0  0
   11.2760    5.0770   22.2250 O   0  0  0  0  0  0  0  0  0  0  0  0
   10.2250    3.5220   23.6640 C   0  0  0  0  0  0  0  0  0  0  0  0
   10.0430    2.0300   23.9710 C   0  0  0  0  0  0  0  0  0  0  0  0
    8.5810   -1.4820   21.7810 C   0  0  0  0  0  0  0  0  0  0  0  0
    7.2840   -1.2470   21.0180 C   0  0  0  0  0  0  0  0  0  0  0  0
  1  2  1  0
  2  3  2  0
  2  4  1  0
  4  5  1  0
  5  6  1  0
  6  7  1  0
  7  8  1  0
  8  9  1  0
  9 10  1  0
  9 11  1  0
 11 12  1  0
 12 13  1  0
 13 14  1  0
 14 15  1  0
 15 16  1  0
 15 17  1  0
 12 18  1  0
 17 18  1  0
  7 19  1  0
  4 20  1  0
 19 20  1  0
M  END
