MAK-UNK-a7992eb3-6-chloroacetamide
     RDKit          3D

 33 34  0  0  0  0  0  0  0  0999 V2000
    7.2670   -3.3910   19.6620 C   0  0  0  0  0  0  0  0  0  0  0  0
    6.4010   -4.3720   20.4280 C   0  0  0  0  0  0  0  0  0  0  0  0
    5.3470   -4.8010   19.9830 O   0  0  0  0  0  0  0  0  0  0  0  0
    6.8410   -4.8540   21.6600 N   0  0  0  0  0  0  0  0  0  0  0  0
    6.2110   -6.0020   22.2950 C   0  0  0  0  0  0  0  0  0  0  0  0
    5.5660   -5.7780   23.4950 C   0  0  0  0  0  0  0  0  0  0  0  0
    6.3240   -4.9700   24.3350 C   0  0  0  0  0  0  0  0  0  0  0  0
    5.6770   -4.7020   25.5530 C   0  0  0  0  0  0  0  0  0  0  0  0
    5.3010   -5.6420   26.2560 O   0  0  0  0  0  0  0  0  0  0  0  0
    5.4240   -3.4100   26.0480 N   0  0  0  0  0  0  0  0  0  0  0  0
    5.3960   -2.2780   25.0820 C   0  0  0  0  0  0  0  0  0  0  0  0
    4.6150   -1.1600   24.3600 C   0  0  0  0  0  0  0  0  0  0  0  0
    3.0820   -0.9820   24.6880 C   0  0  0  0  0  0  0  0  0  0  0  0
    2.4050   -1.9170   25.7310 C   0  0  0  0  0  0  0  0  0  0  0  0
    3.2080   -3.0210   26.4360 C   0  0  0  0  0  0  0  0  0  0  0  0
    4.0550   -2.2020   25.4670 C   0  0  0  0  0  0  0  0  0  0  0  0
    3.4430   -1.2750   24.9150 O   0  0  0  0  0  0  0  0  0  0  0  0
    3.1330   -0.0480   25.6760 C   0  0  1  0  0  0  0  0  0  0  0  0
    3.8690   -0.2490   27.0120 C   0  0  0  0  0  0  0  0  0  0  0  0
    3.4330    1.1370   24.9650 C   0  0  2  0  0  0  0  0  0  0  0  0
    3.6690    2.1730   25.8220 N   0  0  0  0  0  0  0  0  0  0  0  0
    4.9060    2.4760   26.4380 C   0  0  0  0  0  0  0  0  0  0  0  0
    6.0040    1.6310   26.3070 C   0  0  0  0  0  0  0  0  0  0  0  0
    5.0430    3.6780   27.2150 O   0  0  0  0  0  0  0  0  0  0  0  0
    2.1960    1.5720   24.1270 C   0  0  0  0  0  0  0  0  0  0  0  0
    2.1730    1.6000   22.8970 O   0  0  0  0  0  0  0  0  0  0  0  0
    1.0740    1.9360   24.9020 N   0  0  0  0  0  0  0  0  0  0  0  0
   -0.1740    1.3350   24.8760 C   0  0  0  0  0  0  0  0  0  0  0  0
   -0.0450   -0.0380   24.6620 C   0  0  0  0  0  0  0  0  0  0  0  0
   -0.7590   -0.9490   25.4480 C   0  0  0  0  0  0  0  0  0  0  0  0
   -1.7400   -2.1840   26.5300 Br  0  0  0  0  0  0  0  0  0  0  0  0
    6.8970   -3.8130   23.7740 C   0  0  0  0  0  0  0  0  0  0  0  0
    7.6260   -4.0790   22.6120 C   0  0  0  0  0  0  0  0  0  0  0  0
  1  2  1  0
  2  3  2  0
  2  4  1  0
  4  5  1  0
  5  6  1  0
  6  7  1  0
  7  8  1  0
  8  9  2  0
  8 10  1  0
 10 11  1  0
 11 12  2  0
 12 13  1  0
 13 14  2  0
 14 15  1  0
 11 16  1  0
 15 16  2  0
 16 17  1  0
 17 18  1  0
 18 19  1  1
 18 20  1  0
 20 21  1  1
 21 22  1  0
 22 23  1  0
 22 24  2  0
 20 25  1  0
 25 26  2  0
 25 27  1  0
 27 28  1  0
 28 29  1  0
 29 30  3  0
 30 31  1  0
  7 32  1  0
  4 33  1  0
 32 33  1  0
M  END
