MAK-UNK-0d6072ac-9
     RDKit          3D

 19 21  0  0  0  0  0  0  0  0999 V2000
   10.6290    2.9470   22.5880 C   0  0  0  0  0  0  0  0  0  0  0  0
   11.5960    2.0350   23.3120 C   0  0  2  0  0  0  0  0  0  0  0  0
   12.9890    1.9720   22.7730 C   0  0  0  0  0  0  0  0  0  0  0  0
   13.5730    3.2080   22.3660 O   0  0  0  0  0  0  0  0  0  0  0  0
   13.5340    0.7250   22.7210 O   0  0  0  0  0  0  0  0  0  0  0  0
   11.0830    0.6330   23.4780 C   0  0  0  0  0  0  0  0  0  0  0  0
   11.6750   -0.3620   24.4600 C   0  0  0  0  0  0  0  0  0  0  0  0
   11.1450   -1.6430   24.5840 C   0  0  0  0  0  0  0  0  0  0  0  0
   10.0550   -2.0650   23.8100 C   0  0  0  0  0  0  0  0  0  0  0  0
    9.5080   -1.1690   22.8930 C   0  0  0  0  0  0  0  0  0  0  0  0
   10.0220    0.1980   22.7200 C   0  0  0  0  0  0  0  0  0  0  0  0
    8.4370   -1.8600   22.2500 N   0  0  0  0  0  0  0  0  0  0  0  0
    8.3630   -3.1920   22.8300 C   0  0  0  0  0  0  0  0  0  0  0  0
    7.4970   -4.4230   22.6470 C   0  0  0  0  0  0  0  0  0  0  0  0
    7.8040   -5.4820   23.4580 C   0  0  0  0  0  0  0  0  0  0  0  0
    8.8400   -5.3900   24.3580 C   0  0  0  0  0  0  0  0  0  0  0  0
    9.1330   -6.7200   25.3160 Cl  0  0  0  0  0  0  0  0  0  0  0  0
    9.6840   -4.3950   24.6180 N   0  0  0  0  0  0  0  0  0  0  0  0
    9.4490   -3.3240   23.8770 C   0  0  0  0  0  0  0  0  0  0  0  0
  2  1  1  6
  2  3  1  0
  3  4  2  0
  3  5  1  0
  2  6  1  0
  6  7  2  0
  7  8  1  0
  8  9  2  0
  9 10  1  0
  6 11  1  0
 10 11  2  0
 10 12  1  0
 12 13  1  0
 13 14  1  0
 14 15  2  0
 15 16  1  0
 16 17  1  0
 16 18  2  0
  9 19  1  0
 13 19  2  0
 18 19  1  0
M  END
