MAK-UNK-2084232d-6
     RDKit          3D

 20 22  0  0  0  0  0  0  0  0999 V2000
    9.5840   -6.5310   23.6280 N   0  0  0  0  0  0  0  0  0  0  0  0
    9.5600   -5.8030   24.8190 C   0  0  0  0  0  0  0  0  0  0  0  0
    8.4570   -4.8340   24.9980 C   0  0  1  0  0  0  0  0  0  0  0  0
    8.7470   -3.6480   25.3570 O   0  0  0  0  0  0  0  0  0  0  0  0
    9.3880   -2.7260   24.4030 C   0  0  1  0  0  0  0  0  0  0  0  0
   10.5550   -2.2220   24.9380 C   0  0  0  0  0  0  0  0  0  0  0  0
   10.9760   -1.0320   24.3610 C   0  0  0  0  0  0  0  0  0  0  0  0
   12.3250   -0.7350   24.3440 C   0  0  0  0  0  0  0  0  0  0  0  0
   13.2140   -1.5220   25.0440 C   0  0  0  0  0  0  0  0  0  0  0  0
   12.9510   -2.9800   25.3700 C   0  0  0  0  0  0  0  0  0  0  0  0
   11.4870   -3.2620   24.9990 C   0  0  0  0  0  0  0  0  0  0  0  0
    9.5970   -3.3880   23.2170 C   0  0  0  0  0  0  0  0  0  0  0  0
    8.2750   -3.9720   22.7770 C   0  0  0  0  0  0  0  0  0  0  0  0
    7.6830   -4.8310   23.8500 C   0  0  0  0  0  0  0  0  0  0  0  0
    6.3660   -5.5200   23.4930 C   0  0  0  0  0  0  0  0  0  0  0  0
    5.7750   -5.2430   22.1100 C   0  0  0  0  0  0  0  0  0  0  0  0
    6.4480   -4.3780   21.2380 C   0  0  0  0  0  0  0  0  0  0  0  0
    5.9890   -4.1020   20.1200 O   0  0  0  0  0  0  0  0  0  0  0  0
    7.6720   -3.7550   21.5470 C   0  0  0  0  0  0  0  0  0  0  0  0
    8.1950   -3.0140   20.7250 O   0  0  0  0  0  0  0  0  0  0  0  0
  1  2  1  0
  3  2  1  6
  3  4  1  0
  4  5  1  0
  5  6  1  1
  6  7  1  0
  7  8  1  0
  8  9  1  0
  9 10  1  0
  6 11  1  0
 10 11  1  0
  5 12  1  0
 12 13  1  0
  3 14  1  0
 13 14  2  0
 14 15  1  0
 15 16  2  0
 16 17  1  0
 17 18  1  0
 13 19  1  0
 17 19  2  0
 19 20  1  0
M  END
