MAK-UNK-176ca439-2-nitrile
     RDKit          3D

 27 28  0  0  0  0  0  0  0  0999 V2000
    6.6650   -3.5950   19.7150 C   0  0  0  0  0  0  0  0  0  0  0  0
    6.3360   -3.1290   18.5630 N   0  0  0  0  0  0  0  0  0  0  0  0
    6.7490   -2.7970   20.8510 N   0  0  0  0  0  0  0  0  0  0  0  0
    7.5890   -1.5900   20.8130 C   0  0  0  0  0  0  0  0  0  0  0  0
    8.6850   -1.7750   21.6480 C   0  0  0  0  0  0  0  0  0  0  0  0
    8.3370   -2.1710   23.0320 N   0  0  0  0  0  0  0  0  0  0  0  0
    9.4940   -2.3880   23.8840 C   0  0  0  0  0  0  0  0  0  0  0  0
   10.4570   -1.4020   23.6910 C   0  0  0  0  0  0  0  0  0  0  0  0
   11.7790   -1.7590   23.3860 C   0  0  0  0  0  0  0  0  0  0  0  0
   12.8200   -0.6650   23.1730 C   0  0  0  0  0  0  0  0  0  0  0  0
   12.3240    0.7580   23.3120 C   0  0  0  0  0  0  0  0  0  0  0  0
   10.8840    1.0640   23.6400 C   0  0  0  0  0  0  0  0  0  0  0  0
   10.2610    2.4560   23.7880 C   0  0  2  0  0  0  0  0  0  0  0  0
   11.2880    3.5110   23.6270 N   0  0  0  0  0  0  0  0  0  0  0  0
   10.7890    4.9050   23.6440 C   0  0  0  0  0  0  0  0  0  0  0  0
   11.4400    5.6120   24.6520 C   0  0  0  0  0  0  0  0  0  0  0  0
   11.1110    7.0270   24.6330 N   0  0  0  0  0  0  0  0  0  0  0  0
   11.5940    7.8980   25.5870 C   0  0  0  0  0  0  0  0  0  0  0  0
   11.9660    7.3070   26.7900 C   0  0  0  0  0  0  0  0  0  0  0  0
   11.7070    9.1200   25.4340 O   0  0  0  0  0  0  0  0  0  0  0  0
    9.3710    2.7550   24.8740 C   0  0  0  0  0  0  0  0  0  0  0  0
    9.3480    3.8250   25.4770 O   0  0  0  0  0  0  0  0  0  0  0  0
    8.5020    1.7210   25.2220 N   0  0  0  0  0  0  0  0  0  0  0  0
    8.8500    0.7600   26.2470 C   0  0  0  0  0  0  0  0  0  0  0  0
   10.0410   -0.0520   23.8110 C   0  0  0  0  0  0  0  0  0  0  0  0
    7.4550   -3.2390   23.0710 C   0  0  0  0  0  0  0  0  0  0  0  0
    6.2930   -3.1700   22.1100 C   0  0  0  0  0  0  0  0  0  0  0  0
  1  2  2  3
  1  3  1  0
  3  4  1  0
  4  5  1  0
  5  6  1  0
  6  7  1  0
  7  8  1  0
  8  9  2  0
  9 10  1  0
 10 11  2  0
 11 12  1  0
 12 13  1  0
 13 14  1  1
 14 15  1  0
 15 16  1  0
 16 17  1  0
 17 18  1  0
 18 19  1  0
 18 20  2  0
 13 21  1  0
 21 22  2  0
 21 23  1  0
 23 24  1  0
  8 25  1  0
 12 25  2  0
  6 26  1  0
  3 27  1  0
 26 27  1  0
M  END
