MAK-UNK-10799360-26-acrylamide
     RDKit          3D

 35 38  0  0  0  0  0  0  0  0999 V2000
    7.9020   -3.5040   20.0360 C   0  0  0  0  0  0  0  0  0  0  0  0
    6.6530   -2.7770   19.5720 C   0  0  0  0  0  0  0  0  0  0  0  0
    5.6020   -3.5310   20.3100 C   0  0  0  0  0  0  0  0  0  0  0  0
    5.1350   -4.5560   19.8370 O   0  0  0  0  0  0  0  0  0  0  0  0
    5.2320   -3.0410   21.5370 N   0  0  0  0  0  0  0  0  0  0  0  0
    4.9160   -1.6650   21.9540 C   0  0  0  0  0  0  0  0  0  0  0  0
    6.1610   -1.2340   22.7610 C   0  0  1  0  0  0  0  0  0  0  0  0
    5.2500   -2.2370   23.5350 C   0  0  0  0  0  0  0  0  0  0  0  0
    5.6970   -3.5220   22.8170 C   0  0  2  0  0  0  0  0  0  0  0  0
    7.1680   -3.3140   23.0900 C   0  0  0  0  0  0  0  0  0  0  0  0
    7.0710   -1.9510   23.7130 N   0  0  0  0  0  0  0  0  0  0  0  0
    8.3800   -1.2740   23.8000 C   0  0  0  0  0  0  0  0  0  0  0  0
    8.8200   -0.6940   22.5820 C   0  0  1  0  0  0  0  0  0  0  0  0
    8.5470    0.6450   22.4450 N   0  0  0  0  0  0  0  0  0  0  0  0
    9.0210    1.5910   23.2990 C   0  0  0  0  0  0  0  0  0  0  0  0
    8.3820    1.8540   24.4760 O   0  0  0  0  0  0  0  0  0  0  0  0
   10.1570    2.3300   22.9760 C   0  0  2  0  0  0  0  0  0  0  0  0
   11.3210    2.0070   23.6470 C   0  0  0  0  0  0  0  0  0  0  0  0
   11.5870    0.6870   24.0150 C   0  0  0  0  0  0  0  0  0  0  0  0
   10.5950   -0.0930   24.5940 C   0  0  0  0  0  0  0  0  0  0  0  0
   10.8750   -1.4290   24.9490 C   0  0  0  0  0  0  0  0  0  0  0  0
   12.1260   -1.9760   24.7470 C   0  0  0  0  0  0  0  0  0  0  0  0
   12.5510   -3.2330   25.0460 O   0  0  0  0  0  0  0  0  0  0  0  0
   13.1100   -1.2240   24.1820 C   0  0  0  0  0  0  0  0  0  0  0  0
   12.8460    0.1070   23.8100 C   0  0  0  0  0  0  0  0  0  0  0  0
   10.0330    3.7340   23.0480 N   0  0  0  0  0  0  0  0  0  0  0  0
   11.1460    4.5590   23.0650 C   0  0  0  0  0  0  0  0  0  0  0  0
   12.2470    4.1540   22.1240 C   0  0  0  0  0  0  0  0  0  0  0  0
   11.2440    5.5470   23.7880 O   0  0  0  0  0  0  0  0  0  0  0  0
   10.1930   -0.8890   22.3300 C   0  0  0  0  0  0  0  0  0  0  0  0
   11.1760    0.0500   22.6900 C   0  0  0  0  0  0  0  0  0  0  0  0
   12.6570   -0.1560   22.4270 C   0  0  0  0  0  0  0  0  0  0  0  0
   13.0960   -1.3090   21.8000 C   0  0  0  0  0  0  0  0  0  0  0  0
   12.0750   -2.3180   21.4060 C   0  0  0  0  0  0  0  0  0  0  0  0
   10.6240   -2.0560   21.7000 C   0  0  0  0  0  0  0  0  0  0  0  0
  1  2  1  0
  2  3  1  0
  3  4  2  0
  3  5  1  0
  5  6  1  0
  7  6  1  6
  7  8  1  0
  5  9  1  0
  8  9  1  0
  9 10  1  6
  7 11  1  0
 10 11  1  0
 11 12  1  0
 13 12  1  1
 13 14  1  0
 14 15  1  0
 15 16  2  0
 15 17  1  0
 17 18  1  1
 18 19  1  0
 19 20  2  0
 20 21  1  0
 21 22  2  0
 22 23  1  0
 22 24  1  0
 19 25  1  0
 24 25  2  0
 17 26  1  0
 26 27  1  0
 27 28  1  0
 27 29  2  0
 13 30  1  0
 30 31  2  0
 31 32  1  0
 32 33  2  0
 33 34  1  0
 30 35  1  0
 34 35  2  0
M  END
