MAK-UNK-f983951f-5-vinylsulfonamide
     RDKit          3D

 16 16  0  0  0  0  0  0  0  0999 V2000
    7.3360   -3.0530   18.8710 C   0  0  0  0  0  0  0  0  0  0  0  0
    7.1340   -2.0270   19.9570 C   0  0  0  0  0  0  0  0  0  0  0  0
    5.5620   -2.3690   20.7000 S   0  0  0  0  0  0  0  0  0  0  0  0
    4.7490   -3.1800   19.8260 O   0  0  0  0  0  0  0  0  0  0  0  0
    5.0790   -1.1590   21.3140 O   0  0  0  0  0  0  0  0  0  0  0  0
    5.9790   -3.4090   21.9180 N   0  0  0  0  0  0  0  0  0  0  0  0
    5.2770   -3.3180   23.1570 C   0  0  0  0  0  0  0  0  0  0  0  0
    5.2500   -2.2960   23.8200 O   0  0  0  0  0  0  0  0  0  0  0  0
    4.6820   -4.4930   23.4570 O   0  0  0  0  0  0  0  0  0  0  0  0
    4.4400   -4.7210   24.8490 C   0  0  0  0  0  0  0  0  0  0  0  0
    3.6480   -3.6610   25.3270 C   0  0  0  0  0  0  0  0  0  0  0  0
    4.2920   -2.5850   26.0520 C   0  0  0  0  0  0  0  0  0  0  0  0
    3.4930   -1.4910   26.5330 C   0  0  0  0  0  0  0  0  0  0  0  0
    2.2260   -1.7470   26.1680 C   0  0  0  0  0  0  0  0  0  0  0  0
    1.4280   -2.6320   25.5300 C   0  0  0  0  0  0  0  0  0  0  0  0
    2.2240   -3.6870   25.0690 C   0  0  0  0  0  0  0  0  0  0  0  0
  1  2  1  0
  2  3  1  0
  3  4  2  0
  3  5  2  0
  3  6  1  0
  6  7  1  0
  7  8  2  0
  7  9  1  0
  9 10  1  0
 10 11  1  0
 11 12  2  0
 12 13  1  0
 13 14  2  0
 14 15  1  0
 11 16  1  0
 15 16  2  0
M  END
