MAK-UNK-bae89c02-3-vinylsulfonamide
     RDKit          3D

 27 30  0  0  0  0  0  0  0  0999 V2000
    7.8070   -3.5970   20.2580 C   0  0  0  0  0  0  0  0  0  0  0  0
    7.1610   -2.6170   19.3030 C   0  0  0  0  0  0  0  0  0  0  0  0
    5.4460   -2.4570   19.7140 S   0  0  0  0  0  0  0  0  0  0  0  0
    4.8080   -3.7330   19.4530 O   0  0  0  0  0  0  0  0  0  0  0  0
    4.9990   -1.2630   19.0460 O   0  0  0  0  0  0  0  0  0  0  0  0
    5.3450   -2.1370   21.3880 N   0  0  0  0  0  0  0  0  0  0  0  0
    5.5430   -3.1880   22.4310 C   0  0  0  0  0  0  0  0  0  0  0  0
    6.0660   -2.3900   23.6030 C   0  0  2  0  0  0  0  0  0  0  0  0
    5.4060   -1.0480   23.3760 C   0  0  0  0  0  0  0  0  0  0  0  0
    5.8990   -0.8900   21.9620 C   0  0  1  0  0  0  0  0  0  0  0  0
    7.3700   -1.1860   22.1740 C   0  0  0  0  0  0  0  0  0  0  0  0
    7.4980   -2.0500   23.2640 N   0  0  0  0  0  0  0  0  0  0  0  0
    8.2500   -1.6870   24.4340 C   0  0  0  0  0  0  0  0  0  0  0  0
    8.7630   -0.4120   24.3520 C   0  0  0  0  0  0  0  0  0  0  0  0
    7.9590    0.6270   24.8800 C   0  0  0  0  0  0  0  0  0  0  0  0
    8.4280    1.9110   24.8170 C   0  0  0  0  0  0  0  0  0  0  0  0
    9.7220    2.2520   24.2450 C   0  0  0  0  0  0  0  0  0  0  0  0
   10.5040    1.2220   23.7340 C   0  0  0  0  0  0  0  0  0  0  0  0
   11.7580    1.4500   23.1740 C   0  0  0  0  0  0  0  0  0  0  0  0
   12.4850    0.4070   22.6610 C   0  0  0  0  0  0  0  0  0  0  0  0
   12.0120   -0.8830   22.6710 C   0  0  0  0  0  0  0  0  0  0  0  0
   13.0400   -2.1040   21.9200 S   0  0  0  0  0  0  0  0  0  0  0  0
   11.9570   -3.0890   21.1070 N   0  0  0  0  0  0  0  0  0  0  0  0
   13.6210   -2.9310   22.9470 O   0  0  0  0  0  0  0  0  0  0  0  0
   13.7840   -1.4890   20.8440 O   0  0  0  0  0  0  0  0  0  0  0  0
   10.7840   -1.1340   23.2420 C   0  0  0  0  0  0  0  0  0  0  0  0
   10.0060   -0.1130   23.7830 C   0  0  0  0  0  0  0  0  0  0  0  0
  1  2  1  0
  3  2  1  0
  3  4  2  0
  3  5  2  0
  3  6  1  0
  6  7  1  0
  8  7  1  6
  8  9  1  0
  6 10  1  0
  9 10  1  0
 10 11  1  1
  8 12  1  0
 11 12  1  0
 12 13  1  0
 13 14  1  0
 14 15  2  0
 15 16  1  0
 16 17  2  0
 17 18  1  0
 18 19  1  0
 19 20  2  0
 20 21  1  0
 21 22  1  0
 22 23  1  0
 22 24  2  0
 22 25  2  0
 21 26  2  0
 14 27  1  0
 18 27  2  0
 26 27  1  0
M  END
