MAK-UNK-ec98eaf6-47-acrylamide
     RDKit          3D

 27 30  0  0  0  0  0  0  0  0999 V2000
    8.0740   -3.6540   20.1690 C   0  0  0  0  0  0  0  0  0  0  0  0
    6.9940   -2.6420   19.8690 C   0  0  0  0  0  0  0  0  0  0  0  0
    5.7760   -3.1900   20.5170 C   0  0  0  0  0  0  0  0  0  0  0  0
    5.1700   -4.0980   19.9530 O   0  0  0  0  0  0  0  0  0  0  0  0
    5.4020   -2.6690   21.7510 N   0  0  0  0  0  0  0  0  0  0  0  0
    5.3960   -1.2140   22.0020 C   0  0  0  0  0  0  0  0  0  0  0  0
    5.4730   -1.1270   23.5370 C   0  0  1  0  0  0  0  0  0  0  0  0
    4.6040   -2.3520   23.9280 C   0  0  0  0  0  0  0  0  0  0  0  0
    5.4570   -3.2930   23.0930 C   0  0  2  0  0  0  0  0  0  0  0  0
    6.8130   -3.0430   23.8150 C   0  0  0  0  0  0  0  0  0  0  0  0
    6.8770   -1.5480   23.8950 N   0  0  0  0  0  0  0  0  0  0  0  0
    7.6060   -0.9210   25.0450 C   0  0  0  0  0  0  0  0  0  0  0  0
    9.0960   -0.9240   24.7660 C   0  0  0  0  0  0  0  0  0  0  0  0
   10.1110   -0.4760   25.6320 C   0  0  0  0  0  0  0  0  0  0  0  0
   11.4780   -0.5460   25.2500 C   0  0  0  0  0  0  0  0  0  0  0  0
   11.8670   -1.0310   24.0400 C   0  0  0  0  0  0  0  0  0  0  0  0
   10.8820   -1.4550   23.2100 C   0  0  0  0  0  0  0  0  0  0  0  0
   11.0280   -1.9720   21.9570 C   0  0  0  0  0  0  0  0  0  0  0  0
   12.2740   -2.1160   21.3520 C   0  0  0  0  0  0  0  0  0  0  0  0
   13.2340   -1.3510   22.0170 C   0  0  0  0  0  0  0  0  0  0  0  0
   13.7680   -0.1610   21.3250 N   0  0  0  0  0  0  0  0  0  0  0  0
   14.2930    0.1200   19.9880 C   0  0  0  0  0  0  0  0  0  0  0  0
   15.0060    1.3380   19.7510 C   0  0  0  0  0  0  0  0  0  0  0  0
   14.1710   -0.5500   19.0980 O   0  0  0  0  0  0  0  0  0  0  0  0
    9.7490   -2.2550   21.5550 C   0  0  0  0  0  0  0  0  0  0  0  0
    8.8790   -1.9120   22.5170 N   0  0  0  0  0  0  0  0  0  0  0  0
    9.5590   -1.4060   23.5640 C   0  0  0  0  0  0  0  0  0  0  0  0
  1  2  1  0
  2  3  1  0
  3  4  2  0
  3  5  1  0
  5  6  1  0
  7  6  1  6
  7  8  1  0
  5  9  1  0
  8  9  1  0
  9 10  1  1
  7 11  1  0
 10 11  1  0
 11 12  1  0
 12 13  1  0
 13 14  1  0
 14 15  2  0
 15 16  1  0
 16 17  2  0
 17 18  1  0
 18 19  1  0
 19 20  1  0
 20 21  1  0
 21 22  1  0
 22 23  1  0
 22 24  2  0
 18 25  2  0
 25 26  1  0
 13 27  2  0
 17 27  1  0
 26 27  1  0
M  END
