MAK-UNK-8fdbca50-26-chloroacetamide
     RDKit          3D

 39 42  0  0  0  0  0  0  0  0999 V2000
    6.0000   -6.1530   19.7130 C   0  0  0  0  0  0  0  0  0  0  0  0
    5.7240   -4.9130   20.4420 C   0  0  0  0  0  0  0  0  0  0  0  0
    5.4790   -3.9300   19.7370 O   0  0  0  0  0  0  0  0  0  0  0  0
    5.7330   -5.0380   21.8470 N   0  0  0  0  0  0  0  0  0  0  0  0
    6.5310   -6.0630   22.5610 C   0  0  0  0  0  0  0  0  0  0  0  0
    7.2040   -5.2870   23.7240 C   0  0  0  0  0  0  0  0  0  0  0  0
    6.0080   -5.1510   24.7140 C   0  0  0  0  0  0  0  0  0  0  0  0
    6.1400   -3.6870   25.1200 C   0  0  0  0  0  0  0  0  0  0  0  0
    6.1060   -3.3570   26.3100 O   0  0  0  0  0  0  0  0  0  0  0  0
    6.2820   -2.7430   24.0010 N   0  0  0  0  0  0  0  0  0  0  0  0
    7.3830   -2.8850   22.9880 C   0  0  0  0  0  0  0  0  0  0  0  0
    7.3600   -1.5780   22.1780 C   0  0  0  0  0  0  0  0  0  0  0  0
    7.4130   -1.6690   20.6560 C   0  0  0  0  0  0  0  0  0  0  0  0
    7.3740   -0.4000   19.8440 C   0  0  0  0  0  0  0  0  0  0  0  0
    7.2990    0.8040   20.5440 C   0  0  0  0  0  0  0  0  0  0  0  0
    7.2560    0.8560   21.9310 C   0  0  0  0  0  0  0  0  0  0  0  0
    7.2810   -0.3090   22.7900 C   0  0  0  0  0  0  0  0  0  0  0  0
    7.2110   -0.1640   24.1860 C   0  0  0  0  0  0  0  0  0  0  0  0
    6.3300    0.5830   24.9410 C   0  0  0  0  0  0  0  0  0  0  0  0
    6.5250    0.4960   26.3090 C   0  0  0  0  0  0  0  0  0  0  0  0
    5.7420    1.1610   27.2480 C   0  0  0  0  0  0  0  0  0  0  0  0
    5.0930    2.3030   26.6080 N   0  0  0  0  0  0  0  0  0  0  0  0
    3.6530    2.0150   26.3740 C   0  0  0  0  0  0  0  0  0  0  0  0
    7.6190   -0.3700   26.4850 C   0  0  0  0  0  0  0  0  0  0  0  0
    8.0590   -0.7860   25.2210 N   0  0  0  0  0  0  0  0  0  0  0  0
    9.3860   -1.8570   25.1260 S   0  0  0  0  0  0  0  0  0  0  0  0
    8.9880   -3.0950   24.5090 O   0  0  0  0  0  0  0  0  0  0  0  0
    9.8150   -1.8050   26.4850 O   0  0  0  0  0  0  0  0  0  0  0  0
   10.6810   -1.1380   24.1950 C   0  0  0  0  0  0  0  0  0  0  0  0
   11.5020   -1.8600   23.1370 C   0  0  0  0  0  0  0  0  0  0  0  0
   12.4910   -1.2430   22.4850 C   0  0  0  0  0  0  0  0  0  0  0  0
   12.6950    0.2230   22.9080 C   0  0  0  0  0  0  0  0  0  0  0  0
   11.9580    0.8680   23.8390 N   0  0  0  0  0  0  0  0  0  0  0  0
   10.9720    0.1680   24.4590 C   0  0  0  0  0  0  0  0  0  0  0  0
    4.9600   -2.2690   23.5500 C   0  0  0  0  0  0  0  0  0  0  0  0
    4.9570   -1.7720   22.0990 C   0  0  0  0  0  0  0  0  0  0  0  0
    4.2780   -1.2700   24.4890 C   0  0  0  0  0  0  0  0  0  0  0  0
    4.6250   -5.3990   24.0810 C   0  0  0  0  0  0  0  0  0  0  0  0
    4.4940   -4.9080   22.6170 C   0  0  0  0  0  0  0  0  0  0  0  0
  1  2  1  0
  2  3  2  0
  2  4  1  0
  4  5  1  0
  5  6  1  0
  6  7  1  0
  7  8  1  0
  8  9  2  0
  8 10  1  0
 10 11  1  0
 11 12  1  0
 12 13  2  0
 13 14  1  0
 14 15  2  0
 15 16  1  0
 12 17  1  0
 16 17  2  0
 17 18  1  0
 18 19  2  0
 19 20  1  0
 20 21  1  0
 21 22  1  0
 22 23  1  0
 20 24  2  0
 18 25  1  0
 24 25  1  0
 25 26  1  0
 26 27  2  0
 26 28  2  0
 26 29  1  0
 29 30  2  0
 30 31  1  0
 31 32  2  0
 32 33  1  0
 29 34  1  0
 33 34  2  0
 10 35  1  0
 35 36  1  0
 35 37  1  0
  7 38  1  0
  4 39  1  0
 38 39  1  0
M  END
