MAK-UNK-de9577cf-3
     RDKit          3D

 37 40  0  0  0  0  0  0  0  0999 V2000
    7.2220    3.6910   21.8040 C   0  0  0  0  0  0  0  0  0  0  0  0
    8.5670    4.1420   22.1160 N   0  0  0  0  0  0  0  0  0  0  0  0
    8.5990    5.1140   23.0650 N   0  0  0  0  0  0  0  0  0  0  0  0
    7.7170    6.2790   23.0080 C   0  0  0  0  0  0  0  0  0  0  0  0
    6.9490    6.6140   24.2550 C   0  0  0  0  0  0  0  0  0  0  0  0
    6.0910    7.8250   24.0720 C   0  0  0  0  0  0  0  0  0  0  0  0
    5.2180    8.3560   25.2280 C   0  0  0  0  0  0  0  0  0  0  0  0
    3.7540    8.5660   24.8410 C   0  0  0  0  0  0  0  0  0  0  0  0
    2.8630    9.0940   25.9650 C   0  0  0  0  0  0  0  0  0  0  0  0
    3.5360    9.3330   27.2810 C   0  0  0  0  0  0  0  0  0  0  0  0
    4.8710    9.1190   27.5570 C   0  0  0  0  0  0  0  0  0  0  0  0
    5.7100    8.6280   26.5200 C   0  0  0  0  0  0  0  0  0  0  0  0
    7.0060    8.4230   26.8010 F   0  0  0  0  0  0  0  0  0  0  0  0
    6.3230    8.2140   22.7640 N   0  0  0  0  0  0  0  0  0  0  0  0
    5.6090    9.5580   21.9880 S   0  0  0  0  0  0  0  0  0  0  0  0
    4.2070    9.4930   22.3310 O   0  0  0  0  0  0  0  0  0  0  0  0
    6.0580    9.5250   20.6150 O   0  0  0  0  0  0  0  0  0  0  0  0
    6.3470   10.8890   22.7780 C   0  0  0  0  0  0  0  0  0  0  0  0
    7.2740   10.6830   23.8900 C   0  0  0  0  0  0  0  0  0  0  0  0
    7.8380   11.8070   24.4880 C   0  0  0  0  0  0  0  0  0  0  0  0
    7.5020   13.0740   24.0060 C   0  0  0  0  0  0  0  0  0  0  0  0
    6.6430   13.2840   22.9740 N   0  0  0  0  0  0  0  0  0  0  0  0
    6.0820   12.1940   22.3780 C   0  0  0  0  0  0  0  0  0  0  0  0
    7.3390    7.2580   22.0800 C   0  0  0  0  0  0  0  0  0  0  0  0
   10.2330    5.2860   23.7080 S   0  0  0  0  0  0  0  0  0  0  0  0
   10.0610    5.6510   25.0920 O   0  0  0  0  0  0  0  0  0  0  0  0
   11.0600    6.1100   22.8460 O   0  0  0  0  0  0  0  0  0  0  0  0
   10.9230    3.6640   23.6200 C   0  0  0  0  0  0  0  0  0  0  0  0
   10.2210    2.5680   24.1430 C   0  0  0  0  0  0  0  0  0  0  0  0
   10.8570    1.1810   24.0670 C   0  0  0  0  0  0  0  0  0  0  0  0
   12.2200    1.0670   23.4310 C   0  0  0  0  0  0  0  0  0  0  0  0
   12.9230   -0.2900   23.3390 C   0  0  0  0  0  0  0  0  0  0  0  0
   13.5140   -0.6650   22.3450 O   0  0  0  0  0  0  0  0  0  0  0  0
   12.8000   -0.9880   24.5060 O   0  0  0  0  0  0  0  0  0  0  0  0
   13.3410   -2.3200   24.4830 C   0  0  0  0  0  0  0  0  0  0  0  0
   12.8060    2.2380   22.9440 C   0  0  0  0  0  0  0  0  0  0  0  0
   12.1850    3.5030   23.0270 C   0  0  0  0  0  0  0  0  0  0  0  0
  1  2  1  0
  2  3  1  0
  3  4  1  0
  4  5  1  0
  5  6  2  0
  6  7  1  0
  7  8  2  0
  8  9  1  0
  9 10  2  0
 10 11  1  0
  7 12  1  0
 11 12  2  0
 12 13  1  0
  6 14  1  0
 14 15  1  0
 15 16  2  0
 15 17  2  0
 15 18  1  0
 18 19  2  0
 19 20  1  0
 20 21  2  0
 21 22  1  0
 18 23  1  0
 22 23  2  0
  4 24  2  0
 14 24  1  0
 25  3  1  0
 25 26  2  0
 25 27  2  0
 25 28  1  0
 28 29  2  0
 29 30  1  0
 30 31  2  0
 31 32  1  0
 32 33  2  0
 32 34  1  0
 34 35  1  0
 31 36  1  0
 28 37  1  0
 36 37  2  0
M  END
