MAK-UNK-b1d4dcd7-6
     RDKit          3D

 29 32  0  0  0  0  0  0  0  0999 V2000
    6.5610   -2.1390   18.4420 C   0  0  0  0  0  0  0  0  0  0  0  0
    5.9820   -2.7370   19.6840 C   0  0  0  0  0  0  0  0  0  0  0  0
    5.4640   -3.8720   19.7050 O   0  0  0  0  0  0  0  0  0  0  0  0
    6.0970   -1.8310   20.8260 N   0  0  0  0  0  0  0  0  0  0  0  0
    7.2420   -0.9310   20.7310 C   0  0  0  0  0  0  0  0  0  0  0  0
    8.4330   -1.3700   21.2580 C   0  0  0  0  0  0  0  0  0  0  0  0
    8.2450   -1.8550   22.6170 N   0  0  0  0  0  0  0  0  0  0  0  0
    9.3220   -2.3470   23.2870 C   0  0  2  0  0  0  0  0  0  0  0  0
   10.4490   -1.4920   23.3150 C   0  0  0  0  0  0  0  0  0  0  0  0
   11.5450   -1.4790   22.4440 C   0  0  0  0  0  0  0  0  0  0  0  0
   12.5880   -0.4290   22.7230 C   0  0  0  0  0  0  0  0  0  0  0  0
   12.1430    0.3720   23.9300 C   0  0  0  0  0  0  0  0  0  0  0  0
   10.6360   -0.2260   24.5310 S   0  0  0  0  0  0  0  0  0  0  0  0
    9.4950   -3.7110   23.0730 C   0  0  1  0  0  0  0  0  0  0  0  0
    9.9600   -4.4440   24.2650 C   0  0  2  0  0  0  0  0  0  0  0  0
   11.0850   -4.1390   24.6200 O   0  0  0  0  0  0  0  0  0  0  0  0
    9.4360   -5.8790   24.2620 C   0  0  0  0  0  0  0  0  0  0  0  0
    9.2300   -6.4390   22.8790 C   0  0  0  0  0  0  0  0  0  0  0  0
    8.3770   -5.4170   22.1560 C   0  0  0  0  0  0  0  0  0  0  0  0
    8.2510   -4.2620   22.8590 N   0  0  0  0  0  0  0  0  0  0  0  0
    7.4980   -4.1080   24.0640 C   0  0  0  0  0  0  0  0  0  0  0  0
    6.5180   -5.0930   24.2490 C   0  0  0  0  0  0  0  0  0  0  0  0
    6.7100   -6.3800   23.7550 C   0  0  0  0  0  0  0  0  0  0  0  0
    5.7580   -7.3600   23.9210 C   0  0  0  0  0  0  0  0  0  0  0  0
    4.5830   -7.0500   24.6010 C   0  0  0  0  0  0  0  0  0  0  0  0
    4.3730   -5.7780   25.1040 C   0  0  0  0  0  0  0  0  0  0  0  0
    5.3410   -4.7840   24.9330 C   0  0  0  0  0  0  0  0  0  0  0  0
    7.1190   -2.8130   22.6730 C   0  0  0  0  0  0  0  0  0  0  0  0
    5.9220   -2.3670   22.1500 C   0  0  0  0  0  0  0  0  0  0  0  0
  1  2  1  0
  2  3  2  0
  2  4  1  0
  4  5  1  0
  5  6  1  0
  6  7  1  0
  7  8  1  0
  8  9  1  6
  9 10  2  0
 10 11  1  0
 11 12  2  0
  9 13  1  0
 12 13  1  0
  8 14  1  0
 14 15  1  0
 15 16  1  6
 15 17  1  0
 17 18  1  0
 18 19  1  0
 14 20  1  1
 19 20  1  0
 20 21  1  0
 21 22  1  0
 22 23  2  0
 23 24  1  0
 24 25  2  0
 25 26  1  0
 22 27  1  0
 26 27  2  0
  7 28  1  0
  4 29  1  0
 28 29  1  0
M  END
