MAK-UNK-8fdbca50-27-vinylsulfonamide
     RDKit          3D

 41 44  0  0  0  0  0  0  0  0999 V2000
    6.4550   -3.7770   19.7490 C   0  0  0  0  0  0  0  0  0  0  0  0
    6.8380   -2.8410   20.9030 C   0  0  0  0  0  0  0  0  0  0  0  0
    5.9030   -3.1340   22.4070 S   0  0  0  0  0  0  0  0  0  0  0  0
    4.7020   -3.8790   22.1330 O   0  0  0  0  0  0  0  0  0  0  0  0
    6.8480   -3.6900   23.3450 O   0  0  0  0  0  0  0  0  0  0  0  0
    5.3990   -1.6570   23.0250 N   0  0  0  0  0  0  0  0  0  0  0  0
    4.5300   -1.5460   24.2170 C   0  0  0  0  0  0  0  0  0  0  0  0
    5.0010   -0.2330   24.9350 C   0  0  0  0  0  0  0  0  0  0  0  0
    4.4290    0.8330   23.9610 C   0  0  0  0  0  0  0  0  0  0  0  0
    4.4820    2.1530   24.7750 C   0  0  0  0  0  0  0  0  0  0  0  0
    3.4220    3.0310   24.7370 O   0  0  0  0  0  0  0  0  0  0  0  0
    5.6910    2.4190   25.5810 N   0  0  0  0  0  0  0  0  0  0  0  0
    7.0270    2.6090   24.9510 C   0  0  0  0  0  0  0  0  0  0  0  0
    7.3560    4.0740   24.6820 C   0  0  0  0  0  0  0  0  0  0  0  0
    8.6440    4.6770   24.0390 C   0  0  0  0  0  0  0  0  0  0  0  0
    9.4290    3.3350   23.7770 C   0  0  0  0  0  0  0  0  0  0  0  0
    9.1350    1.9610   24.0230 C   0  0  0  0  0  0  0  0  0  0  0  0
   10.0950    1.0240   23.6390 C   0  0  0  0  0  0  0  0  0  0  0  0
   11.4740    1.1530   23.3220 C   0  0  0  0  0  0  0  0  0  0  0  0
   12.0260   -0.0810   22.9840 C   0  0  0  0  0  0  0  0  0  0  0  0
   13.3290   -0.2710   22.6520 C   0  0  0  0  0  0  0  0  0  0  0  0
   13.5030   -1.1280   21.5730 N   0  0  0  0  0  0  0  0  0  0  0  0
   12.7340   -2.3490   21.3420 C   0  0  0  0  0  0  0  0  0  0  0  0
   11.0720   -1.0740   23.0420 C   0  0  0  0  0  0  0  0  0  0  0  0
    9.8550   -0.4370   23.4680 N   0  0  0  0  0  0  0  0  0  0  0  0
    8.4970   -1.4310   23.6750 S   0  0  0  0  0  0  0  0  0  0  0  0
    8.8870   -2.6840   23.0720 O   0  0  0  0  0  0  0  0  0  0  0  0
    7.3670   -0.6760   23.1790 O   0  0  0  0  0  0  0  0  0  0  0  0
    8.3270   -1.6810   25.4120 C   0  0  0  0  0  0  0  0  0  0  0  0
    8.8620   -0.7410   26.3520 C   0  0  0  0  0  0  0  0  0  0  0  0
    8.6810   -1.0050   27.6950 C   0  0  0  0  0  0  0  0  0  0  0  0
    7.9410   -2.2710   27.7770 C   0  0  0  0  0  0  0  0  0  0  0  0
    7.4480   -3.1350   27.2610 N   0  0  0  0  0  0  0  0  0  0  0  0
    7.6370   -2.8520   25.9110 C   0  0  0  0  0  0  0  0  0  0  0  0
    7.8590    1.6020   24.6490 C   0  0  0  0  0  0  0  0  0  0  0  0
    7.5250    0.3500   24.9100 F   0  0  0  0  0  0  0  0  0  0  0  0
    5.6490    1.9590   26.9760 C   0  0  0  0  0  0  0  0  0  0  0  0
    6.7830    0.9790   27.3320 C   0  0  0  0  0  0  0  0  0  0  0  0
    4.2990    1.4020   27.4390 C   0  0  0  0  0  0  0  0  0  0  0  0
    5.2410    0.8580   22.6650 C   0  0  0  0  0  0  0  0  0  0  0  0
    5.3230   -0.5660   22.0350 C   0  0  0  0  0  0  0  0  0  0  0  0
  1  2  1  0
  3  2  1  0
  3  4  2  0
  3  5  2  0
  3  6  1  0
  6  7  1  0
  7  8  1  0
  8  9  1  0
  9 10  1  0
 10 11  2  0
 10 12  1  0
 12 13  1  0
 13 14  2  0
 14 15  1  0
 15 16  2  0
 16 17  1  0
 17 18  1  0
 18 19  2  0
 19 20  1  0
 20 21  1  0
 21 22  1  0
 22 23  1  0
 20 24  2  0
 18 25  1  0
 24 25  1  0
 25 26  1  0
 26 27  2  0
 26 28  2  0
 26 29  1  0
 29 30  2  0
 30 31  1  0
 31 32  2  0
 32 33  1  0
 29 34  1  0
 33 34  2  0
 13 35  1  0
 17 35  2  0
 35 36  1  0
 12 37  1  0
 37 38  1  0
 37 39  1  0
  9 40  1  0
  6 41  1  0
 40 41  1  0
M  END
