MAK-UNK-516d8086-17-vinylsulfonamide
     RDKit          3D

 25 27  0  0  0  0  0  0  0  0999 V2000
    7.2700   -3.6430   20.0230 C   0  0  0  0  0  0  0  0  0  0  0  0
    5.9390   -3.2100   20.6320 C   0  0  0  0  0  0  0  0  0  0  0  0
    5.6140   -3.8500   22.2640 S   0  0  0  0  0  0  0  0  0  0  0  0
    4.1990   -3.6140   22.4330 O   0  0  0  0  0  0  0  0  0  0  0  0
    6.0070   -5.2430   22.3330 O   0  0  0  0  0  0  0  0  0  0  0  0
    6.6600   -2.9160   23.4840 C   0  0  0  0  0  0  0  0  0  0  0  0
    6.3530   -1.5480   24.0710 C   0  0  0  0  0  0  0  0  0  0  0  0
    7.0820   -0.9590   24.9000 N   0  0  0  0  0  0  0  0  0  0  0  0
    7.3520   -2.1850   24.3370 C   0  0  0  0  0  0  0  0  0  0  0  0
    7.8280   -3.4420   23.8890 N   0  0  0  0  0  0  0  0  0  0  0  0
    8.6810   -3.2740   22.6950 C   0  0  0  0  0  0  0  0  0  0  0  0
    8.6820   -1.9550   22.2260 C   0  0  0  0  0  0  0  0  0  0  0  0
    8.4800   -2.5230   24.9160 C   0  0  0  0  0  0  0  0  0  0  0  0
    9.6290   -3.2840   25.2620 C   0  0  0  0  0  0  0  0  0  0  0  0
   10.8870   -2.7140   24.9710 C   0  0  0  0  0  0  0  0  0  0  0  0
   10.8780   -2.8580   23.7730 C   0  0  0  0  0  0  0  0  0  0  0  0
   11.2560   -1.8640   24.5840 C   0  0  0  0  0  0  0  0  0  0  0  0
   11.5680   -1.0940   23.8830 C   0  0  0  0  0  0  0  0  0  0  0  0
   12.0910   -0.8950   22.9260 C   0  0  0  0  0  0  0  0  0  0  0  0
   12.2590   -1.9950   24.1260 C   0  0  0  0  0  0  0  0  0  0  0  0
   13.0450   -1.2430   21.8130 C   0  0  0  0  0  0  0  0  0  0  0  0
   13.6220   -1.8460   20.9230 O   0  0  0  0  0  0  0  0  0  0  0  0
   12.2900   -2.2750   22.0240 N   0  0  0  0  0  0  0  0  0  0  0  0
   12.0060   -2.2990   23.3150 C   0  0  0  0  0  0  0  0  0  0  0  0
    8.0930   -3.6610   24.0110 C   0  0  0  0  0  0  0  0  0  0  0  0
  1  2  1  0
  3  2  1  0
  3  4  2  0
  3  5  2  0
  3  6  1  0
  6  7  2  0
  7  8  1  0
  8  9  2  0
  9 10  1  0
 10 11  1  0
 11 12  1  0
  9 13  1  0
 13 14  1  0
 14 15  1  0
 15 16  2  0
 16 17  1  0
 17 18  2  0
 18 19  1  0
 15 20  1  0
 19 20  2  0
 19 21  1  0
 21 22  2  0
 21 23  1  0
 18 24  1  0
 23 24  1  0
  6 25  1  0
 13 25  2  0
M  END
