MAK-UNK-9a6be56d-19
     RDKit          3D

 38 42  0  0  0  0  0  0  0  0999 V2000
    1.0760   -5.3080   24.0750 C   0  0  0  0  0  0  0  0  0  0  0  0
    2.3550   -4.8180   24.2480 N   0  0  0  0  0  0  0  0  0  0  0  0
    2.6390   -3.6440   24.9060 C   0  0  0  0  0  0  0  0  0  0  0  0
    3.9740   -3.3490   24.6490 C   0  0  0  0  0  0  0  0  0  0  0  0
    4.9820   -4.1840   25.1100 C   0  0  0  0  0  0  0  0  0  0  0  0
    6.1620   -3.7080   24.7530 C   0  0  0  0  0  0  0  0  0  0  0  0
    7.2990   -4.3810   25.1120 C   0  0  0  0  0  0  0  0  0  0  0  0
    8.1920   -4.8120   24.1330 C   0  0  0  0  0  0  0  0  0  0  0  0
    9.4510   -5.5670   24.4960 C   0  0  0  0  0  0  0  0  0  0  0  0
    9.6540   -5.7950   25.8350 C   0  0  0  0  0  0  0  0  0  0  0  0
    8.7050   -5.3340   26.8420 C   0  0  0  0  0  0  0  0  0  0  0  0
    7.5650   -4.6490   26.4760 C   0  0  0  0  0  0  0  0  0  0  0  0
    6.7130   -4.2430   27.4260 F   0  0  0  0  0  0  0  0  0  0  0  0
    6.0530   -2.5320   24.0310 N   0  0  0  0  0  0  0  0  0  0  0  0
    7.3420   -1.5840   23.3830 S   0  0  0  0  0  0  0  0  0  0  0  0
    8.1510   -2.5080   22.6170 O   0  0  0  0  0  0  0  0  0  0  0  0
    6.7790   -0.4020   22.7620 O   0  0  0  0  0  0  0  0  0  0  0  0
    8.1850   -1.0830   24.8530 C   0  0  0  0  0  0  0  0  0  0  0  0
    7.3780   -1.2200   25.9920 C   0  0  0  0  0  0  0  0  0  0  0  0
    7.8430   -0.8860   27.2490 C   0  0  0  0  0  0  0  0  0  0  0  0
    9.1430   -0.4040   27.3760 C   0  0  0  0  0  0  0  0  0  0  0  0
   10.0530   -0.2290   26.2570 N   0  0  0  0  0  0  0  0  0  0  0  0
    9.5140   -0.5920   24.9540 C   0  0  0  0  0  0  0  0  0  0  0  0
   10.4890   -0.3760   23.9460 N   0  0  0  0  0  0  0  0  0  0  0  0
   11.3400   -1.5540   23.6240 C   0  0  0  0  0  0  0  0  0  0  0  0
   12.3340   -1.3390   22.6670 C   0  0  0  0  0  0  0  0  0  0  0  0
   13.1170   -0.2550   22.9210 C   0  0  0  0  0  0  0  0  0  0  0  0
   12.4600    0.9270   23.0720 C   0  0  0  0  0  0  0  0  0  0  0  0
   13.0540    2.1140   22.7330 C   0  0  0  0  0  0  0  0  0  0  0  0
   12.3510    3.4110   22.8980 C   0  0  0  0  0  0  0  0  0  0  0  0
   11.0680    3.4080   23.4110 C   0  0  0  0  0  0  0  0  0  0  0  0
   10.1820    4.9270   23.6500 S   0  0  0  0  0  0  0  0  0  0  0  0
   11.2990    6.0910   23.1720 N   0  0  0  0  0  0  0  0  0  0  0  0
    9.0640    4.9680   22.7430 O   0  0  0  0  0  0  0  0  0  0  0  0
    9.9540    5.1640   25.0550 O   0  0  0  0  0  0  0  0  0  0  0  0
   10.4710    2.1630   23.7500 C   0  0  0  0  0  0  0  0  0  0  0  0
   11.1330    0.9080   23.5910 C   0  0  0  0  0  0  0  0  0  0  0  0
    4.6530   -2.2920   23.9570 C   0  0  0  0  0  0  0  0  0  0  0  0
  1  2  1  0
  2  3  1  0
  3  4  1  0
  4  5  1  0
  5  6  2  0
  6  7  1  0
  7  8  2  0
  8  9  1  0
  9 10  2  0
 10 11  1  0
  7 12  1  0
 11 12  2  0
 12 13  1  0
  6 14  1  0
 14 15  1  0
 15 16  2  0
 15 17  2  0
 15 18  1  0
 18 19  2  0
 19 20  1  0
 20 21  2  0
 21 22  1  0
 18 23  1  0
 22 23  2  0
 23 24  1  0
 24 25  1  0
 25 26  1  0
 26 27  1  0
 27 28  1  0
 28 29  2  0
 29 30  1  0
 30 31  2  0
 31 32  1  0
 32 33  1  0
 32 34  2  0
 32 35  2  0
 31 36  1  0
 24 37  1  0
 28 37  1  0
 36 37  2  0
  4 38  2  0
 14 38  1  0
M  END
