MAK-UNK-849bee6c-3-chloroacetamide
     RDKit          3D

 25 27  0  0  0  0  0  0  0  0999 V2000
    7.1280   -2.9460   18.7100 C   0  0  0  0  0  0  0  0  0  0  0  0
    6.1960   -3.2570   19.8440 C   0  0  0  0  0  0  0  0  0  0  0  0
    5.3670   -4.1700   19.7570 O   0  0  0  0  0  0  0  0  0  0  0  0
    6.3240   -2.4750   21.0080 N   0  0  0  0  0  0  0  0  0  0  0  0
    6.0310   -3.1050   22.2860 C   0  0  0  0  0  0  0  0  0  0  0  0
    7.3290   -3.4230   23.0390 C   0  0  0  0  0  0  0  0  0  0  0  0
    8.2960   -2.3230   23.0700 N   0  0  0  0  0  0  0  0  0  0  0  0
    9.4260   -2.4280   23.8630 C   0  0  0  0  0  0  0  0  0  0  0  0
   10.4740   -1.3270   23.6540 C   0  0  0  0  0  0  0  0  0  0  0  0
   11.7790   -1.8350   23.1310 C   0  0  0  0  0  0  0  0  0  0  0  0
   12.8630   -0.7970   22.8990 C   0  0  0  0  0  0  0  0  0  0  0  0
   12.5800    0.6750   23.2020 C   0  0  0  0  0  0  0  0  0  0  0  0
   11.1790    1.0040   23.7320 C   0  0  0  0  0  0  0  0  0  0  0  0
   10.8190    2.3370   24.0330 N   0  0  0  0  0  0  0  0  0  0  0  0
    9.6860    2.6710   24.8310 C   0  0  0  0  0  0  0  0  0  0  0  0
    8.9510    1.6140   25.6500 C   0  0  0  0  0  0  0  0  0  0  0  0
    7.8450    1.9280   26.4420 C   0  0  0  0  0  0  0  0  0  0  0  0
    7.5120    3.3280   26.3770 N   0  0  0  0  0  0  0  0  0  0  0  0
    8.1880    4.2710   25.6300 C   0  0  0  0  0  0  0  0  0  0  0  0
    7.8380    5.7430   25.5610 C   0  0  0  0  0  0  0  0  0  0  0  0
    8.5780    6.8440   25.9350 N   0  0  0  0  0  0  0  0  0  0  0  0
    9.2590    3.9520   24.8660 N   0  0  0  0  0  0  0  0  0  0  0  0
   10.2270    0.0060   23.9240 C   0  0  0  0  0  0  0  0  0  0  0  0
    8.5980   -1.8410   21.8320 C   0  0  0  0  0  0  0  0  0  0  0  0
    7.3430   -1.4130   21.0500 C   0  0  0  0  0  0  0  0  0  0  0  0
  1  2  1  0
  2  3  2  0
  2  4  1  0
  4  5  1  0
  5  6  1  0
  6  7  1  0
  7  8  1  0
  8  9  1  0
  9 10  2  0
 10 11  1  0
 11 12  2  0
 12 13  1  0
 13 14  1  0
 14 15  1  0
 15 16  2  0
 16 17  1  0
 17 18  2  0
 18 19  1  0
 19 20  1  0
 20 21  3  0
 15 22  1  0
 19 22  2  0
  9 23  1  0
 13 23  2  0
  7 24  1  0
  4 25  1  0
 24 25  1  0
M  END
