MAK-UNK-27459e11-10
     RDKit          3D

 17 17  0  0  0  0  0  0  0  0999 V2000
    6.5150   -5.2490   26.3520 C   0  0  0  0  0  0  0  0  0  0  0  0
    8.1200   -4.4860   26.2110 S   0  0  0  0  0  0  0  0  0  0  0  0
    9.0950   -5.5230   26.0240 O   0  0  0  0  0  0  0  0  0  0  0  0
    8.2170   -3.4810   27.2280 O   0  0  0  0  0  0  0  0  0  0  0  0
    8.0340   -3.6960   24.7200 N   0  0  0  0  0  0  0  0  0  0  0  0
    9.1560   -2.9770   24.2910 C   0  0  0  0  0  0  0  0  0  0  0  0
    9.1200   -2.0670   23.0590 C   0  0  0  0  0  0  0  0  0  0  0  0
   10.3940   -1.2130   22.9710 C   0  0  0  0  0  0  0  0  0  0  0  0
   11.6230   -2.0470   22.6580 C   0  0  0  0  0  0  0  0  0  0  0  0
   12.9680   -1.3410   22.5580 C   0  0  0  0  0  0  0  0  0  0  0  0
   13.0090    0.1620   22.7550 C   0  0  0  0  0  0  0  0  0  0  0  0
   11.7460    0.9350   23.0390 C   0  0  0  0  0  0  0  0  0  0  0  0
   11.6690    2.3680   23.1930 C   0  0  0  0  0  0  0  0  0  0  0  0
   10.4630    2.8150   23.6800 C   0  0  0  0  0  0  0  0  0  0  0  0
    9.6230    2.0680   24.3150 N   0  0  0  0  0  0  0  0  0  0  0  0
   10.2600    4.1620   23.4130 N   0  0  0  0  0  0  0  0  0  0  0  0
   10.5220    0.2940   23.1510 C   0  0  0  0  0  0  0  0  0  0  0  0
  1  2  1  0
  2  3  2  0
  2  4  2  0
  2  5  1  0
  5  6  1  0
  6  7  1  0
  7  8  1  0
  8  9  2  0
  9 10  1  0
 10 11  2  0
 11 12  1  0
 12 13  1  0
 13 14  1  0
 14 15  2  3
 14 16  1  0
  8 17  1  0
 12 17  2  0
M  END
