MAK-UNK-516d8086-7-chloroacetamide
     RDKit          3D

 22 24  0  0  0  0  0  0  0  0999 V2000
    8.3650   -5.2440   20.4560 C   0  0  0  0  0  0  0  0  0  0  0  0
    8.0720   -3.8760   20.5940 C   0  0  0  0  0  0  0  0  0  0  0  0
    7.1050   -3.5930   19.6040 O   0  0  0  0  0  0  0  0  0  0  0  0
    9.0830   -3.3790   21.8760 C   0  0  0  0  0  0  0  0  0  0  0  0
    9.0060   -4.5780   22.8280 C   0  0  0  0  0  0  0  0  0  0  0  0
    9.6530   -4.6970   24.0370 N   0  0  0  0  0  0  0  0  0  0  0  0
   10.4670   -3.7130   24.5340 C   0  0  0  0  0  0  0  0  0  0  0  0
   11.0940   -3.8720   25.8740 N   0  0  0  0  0  0  0  0  0  0  0  0
   10.0820   -3.9690   26.7570 C   0  0  0  0  0  0  0  0  0  0  0  0
   10.3160   -5.0370   27.8110 C   0  0  0  0  0  0  0  0  0  0  0  0
   10.7490   -2.3600   23.7400 C   0  0  0  0  0  0  0  0  0  0  0  0
   11.6990   -1.0400   24.1690 C   0  0  0  0  0  0  0  0  0  0  0  0
   12.6540   -1.8540   24.0540 C   0  0  0  0  0  0  0  0  0  0  0  0
   12.2060   -3.2050   23.8540 C   0  0  0  0  0  0  0  0  0  0  0  0
   10.7860   -3.5620   23.8180 C   0  0  0  0  0  0  0  0  0  0  0  0
    9.9600   -2.1730   24.0000 C   0  0  0  0  0  0  0  0  0  0  0  0
   10.4680   -0.8800   24.1710 C   0  0  0  0  0  0  0  0  0  0  0  0
    8.5760   -2.1380   24.0430 C   0  0  0  0  0  0  0  0  0  0  0  0
    8.6790   -1.1300   23.4410 O   0  0  0  0  0  0  0  0  0  0  0  0
    8.8120   -3.2080   24.6680 N   0  0  0  0  0  0  0  0  0  0  0  0
    9.4560   -3.8960   23.7830 C   0  0  0  0  0  0  0  0  0  0  0  0
    9.9840   -2.2980   22.3840 C   0  0  0  0  0  0  0  0  0  0  0  0
  1  2  1  0
  2  3  2  0
  2  4  1  0
  4  5  2  0
  5  6  1  0
  6  7  2  0
  7  8  1  0
  8  9  1  0
  9 10  1  0
  7 11  1  0
 11 12  1  0
 12 13  2  0
 13 14  1  0
 14 15  2  0
 15 16  1  0
 12 17  1  0
 16 17  2  0
 16 18  1  0
 18 19  2  0
 18 20  1  0
 15 21  1  0
 20 21  1  0
  4 22  1  0
 11 22  2  0
M  END
