MAK-UNK-6ca90168-18-vinylsulfonamide
     RDKit          3D

 16 16  0  0  0  0  0  0  0  0999 V2000
    8.4010   -4.1890   20.7650 C   0  0  0  0  0  0  0  0  0  0  0  0
    7.1180   -4.9710   21.0730 C   0  0  0  0  0  0  0  0  0  0  0  0
    6.2620   -4.4010   22.5150 S   0  0  0  0  0  0  0  0  0  0  0  0
    4.8580   -4.1250   22.0570 O   0  0  0  0  0  0  0  0  0  0  0  0
    6.4870   -5.4000   23.5350 O   0  0  0  0  0  0  0  0  0  0  0  0
    7.0160   -2.9690   23.0820 N   0  0  0  0  0  0  0  0  0  0  0  0
    6.0200   -1.9630   23.3430 C   0  0  0  0  0  0  0  0  0  0  0  0
    5.3790   -1.6870   21.9820 C   0  0  0  0  0  0  0  0  0  0  0  0
    6.3580   -1.9110   20.9150 N   0  0  0  0  0  0  0  0  0  0  0  0
    6.0510   -2.5350   19.6870 C   0  0  0  0  0  0  0  0  0  0  0  0
    5.4540   -3.6370   19.6350 O   0  0  0  0  0  0  0  0  0  0  0  0
    6.4650   -1.8710   18.5490 C   0  0  0  0  0  0  0  0  0  0  0  0
    5.7770   -0.6370   18.4080 C   0  0  0  0  0  0  0  0  0  0  0  0
    5.2500    0.3870   18.2570 N   0  0  0  0  0  0  0  0  0  0  0  0
    7.7350   -1.5520   21.3060 C   0  0  0  0  0  0  0  0  0  0  0  0
    8.1640   -2.4160   22.3460 C   0  0  0  0  0  0  0  0  0  0  0  0
  1  2  1  0
  3  2  1  0
  3  4  2  0
  3  5  2  0
  3  6  1  0
  6  7  1  0
  7  8  1  0
  8  9  1  0
  9 10  1  0
 10 11  2  0
 10 12  1  0
 12 13  1  0
 13 14  3  0
  9 15  1  0
  6 16  1  0
 15 16  1  0
M  END
