MAK-UNK-ec98eaf6-41-nitrile
     RDKit          3D

 29 33  0  0  0  0  0  0  0  0999 V2000
    6.7290   -3.4220   19.6940 C   0  0  0  0  0  0  0  0  0  0  0  0
    5.7490   -4.2410   19.8290 N   0  0  0  0  0  0  0  0  0  0  0  0
    6.8150   -2.2190   20.3970 N   0  0  0  0  0  0  0  0  0  0  0  0
    8.0510   -1.4990   20.7810 C   0  0  0  0  0  0  0  0  0  0  0  0
    7.4790   -0.5370   21.8830 C   0  0  2  0  0  0  0  0  0  0  0  0
    8.7040    0.1020   22.6490 C   0  0  0  0  0  0  0  0  0  0  0  0
    7.7750    0.1840   21.6780 C   0  0  0  0  0  0  0  0  0  0  0  0
    7.9120   -0.8410   22.5060 F   0  0  0  0  0  0  0  0  0  0  0  0
    6.8580   -1.0320   21.5770 C   0  0  0  0  0  0  0  0  0  0  0  0
    7.2840   -2.1690   22.7550 C   0  0  0  0  0  0  0  0  0  0  0  0
    8.4930   -2.1450   23.9460 C   0  0  0  0  0  0  0  0  0  0  0  0
    7.6640   -3.2880   23.8870 C   0  0  0  0  0  0  0  0  0  0  0  0
    7.6780   -4.5190   24.7490 C   0  0  0  0  0  0  0  0  0  0  0  0
    6.7700   -5.5380   24.5270 C   0  0  0  0  0  0  0  0  0  0  0  0
    5.4720   -5.1010   24.0570 N   0  0  0  0  0  0  0  0  0  0  0  0
    5.1240   -5.1550   22.7290 C   0  0  0  0  0  0  0  0  0  0  0  0
    5.9220   -5.9920   21.9370 C   0  0  0  0  0  0  0  0  0  0  0  0
    4.1780   -4.5130   22.2750 O   0  0  0  0  0  0  0  0  0  0  0  0
    6.9630   -2.8670   22.8900 C   0  0  0  0  0  0  0  0  0  0  0  0
    7.5950   -1.5730   22.6600 N   0  0  0  0  0  0  0  0  0  0  0  0
    8.7580   -0.9970   23.4400 C   0  0  0  0  0  0  0  0  0  0  0  0
    6.3030   -1.4520   22.4630 C   0  0  0  0  0  0  0  0  0  0  0  0
    5.6960   -1.6070   21.1630 C   0  0  1  0  0  0  0  0  0  0  0  0
    5.5100   -0.3400   20.6560 C   0  0  0  0  0  0  0  0  0  0  0  0
    4.4590    0.1200   19.8840 C   0  0  0  0  0  0  0  0  0  0  0  0
    4.4620    1.4550   19.5160 C   0  0  0  0  0  0  0  0  0  0  0  0
    5.4670    2.3720   19.8790 C   0  0  0  0  0  0  0  0  0  0  0  0
    6.6480    1.9510   20.7030 C   0  0  0  0  0  0  0  0  0  0  0  0
    6.5870    0.4580   21.0780 C   0  0  0  0  0  0  0  0  0  0  0  0
  1  2  2  3
  1  3  1  0
  3  4  1  0
  4  5  1  0
  5  6  1  1
  6  7  2  0
  7  8  1  0
  7  9  1  0
  9 10  2  0
 10 11  1  0
 11 12  1  0
 12 13  1  0
 13 14  1  0
 14 15  1  0
 15 16  1  0
 16 17  1  0
 16 18  2  0
 12 19  2  0
 19 20  1  0
  6 21  1  0
 11 21  2  0
 20 21  1  0
  5 22  1  0
 23  3  1  6
 22 23  1  0
 23 24  1  0
 24 25  1  0
 25 26  2  0
 26 27  1  0
 27 28  2  0
  5 29  1  0
 24 29  2  0
 28 29  1  0
M  END
