MAK-UNK-f2409524-12
     RDKit          3D

 28 31  0  0  0  0  0  0  0  0999 V2000
    5.6040    0.4220   18.0450 C   0  0  0  0  0  0  0  0  0  0  0  0
    5.4020   -0.0210   19.4680 C   0  0  2  0  0  0  0  0  0  0  0  0
    4.7350    0.6810   20.2240 O   0  0  0  0  0  0  0  0  0  0  0  0
    5.6270    1.6670   20.7700 C   0  0  1  0  0  0  0  0  0  0  0  0
    5.1530    2.1760   21.9670 N   0  0  0  0  0  0  0  0  0  0  0  0
    3.8760    1.9180   21.9840 C   0  0  0  0  0  0  0  0  0  0  0  0
    2.8380    2.9660   22.0480 N   0  0  0  0  0  0  0  0  0  0  0  0
    2.2420    3.3680   23.2620 C   0  0  0  0  0  0  0  0  0  0  0  0
    2.0940    2.3330   24.1730 C   0  0  0  0  0  0  0  0  0  0  0  0
    1.4390    2.7250   25.3470 C   0  0  0  0  0  0  0  0  0  0  0  0
    0.1090    3.1080   25.0690 C   0  0  0  0  0  0  0  0  0  0  0  0
   -0.2040    3.7480   23.7370 C   0  0  0  0  0  0  0  0  0  0  0  0
    1.0630    4.0960   22.9470 C   0  0  0  0  0  0  0  0  0  0  0  0
    3.2800    0.7200   21.9650 C   0  0  0  0  0  0  0  0  0  0  0  0
    2.6050    1.9860   21.9500 C   0  0  0  0  0  0  0  0  0  0  0  0
    3.3560    3.3820   21.9170 N   0  0  0  0  0  0  0  0  0  0  0  0
    4.7920    3.4730   21.9240 C   0  0  0  0  0  0  0  0  0  0  0  0
    5.4860    4.4830   21.9000 O   0  0  0  0  0  0  0  0  0  0  0  0
    7.0410    1.0200   20.7650 C   0  0  1  0  0  0  0  0  0  0  0  0
    7.5760    0.8400   21.9990 N   0  0  0  0  0  0  0  0  0  0  0  0
    8.8200    1.3490   22.2450 C   0  0  0  0  0  0  0  0  0  0  0  0
    9.7910    0.4050   22.4910 C   0  0  0  0  0  0  0  0  0  0  0  0
   11.0870    0.7350   22.7620 N   0  0  0  0  0  0  0  0  0  0  0  0
   11.3860    2.1670   22.7750 C   0  0  0  0  0  0  0  0  0  0  0  0
   10.4890    3.1470   22.5450 N   0  0  0  0  0  0  0  0  0  0  0  0
    9.2170    2.7420   22.2820 C   0  0  0  0  0  0  0  0  0  0  0  0
    6.7250   -0.2420   20.2110 C   0  0  1  0  0  0  0  0  0  0  0  0
    6.6510   -1.2430   21.2430 O   0  0  0  0  0  0  0  0  0  0  0  0
  2  1  1  6
  2  3  1  0
  3  4  1  0
  4  5  1  1
  5  6  1  0
  6  7  1  0
  7  8  1  0
  8  9  1  0
  9 10  1  0
 10 11  1  0
 11 12  1  0
  8 13  1  0
 12 13  1  0
  6 14  2  0
 14 15  1  0
 15 16  2  0
  5 17  1  0
 16 17  1  0
 17 18  2  0
  4 19  1  0
 19 20  1  1
 20 21  1  0
 21 22  2  0
 22 23  1  0
 23 24  2  0
 24 25  1  0
 21 26  1  0
 25 26  2  0
  2 27  1  0
 19 27  1  0
 27 28  1  1
M  END
