MAK-UNK-5d2caa6f-1-chloroacetamide
     RDKit          3D

 19 21  0  0  0  0  0  0  0  0999 V2000
    7.3630   -3.0300   18.8440 C   0  0  0  0  0  0  0  0  0  0  0  0
    6.3740   -3.4170   19.9780 C   0  0  0  0  0  0  0  0  0  0  0  0
    5.5490   -4.3290   19.8470 O   0  0  0  0  0  0  0  0  0  0  0  0
    6.4360   -2.6560   21.1590 N   0  0  0  0  0  0  0  0  0  0  0  0
    6.0700   -3.1540   22.5050 C   0  0  0  0  0  0  0  0  0  0  0  0
    7.4970   -3.3110   23.0610 C   0  0  1  0  0  0  0  0  0  0  0  0
    8.0100   -3.0970   21.6850 C   0  0  0  0  0  0  0  0  0  0  0  0
    7.4120   -1.6400   21.4960 C   0  0  2  0  0  0  0  0  0  0  0  0
    8.8140   -1.5710   22.1810 C   0  0  0  0  0  0  0  0  0  0  0  0
    8.3330   -2.1040   23.5630 C   0  0  2  0  0  0  0  0  0  0  0  0
    9.5400   -2.5160   24.4390 C   0  0  0  0  0  0  0  0  0  0  0  0
    9.3140   -3.1950   25.6010 O   0  0  0  0  0  0  0  0  0  0  0  0
   10.7560   -2.1250   23.8990 N   0  0  0  0  0  0  0  0  0  0  0  0
   11.2910   -0.8390   23.9590 C   0  0  0  0  0  0  0  0  0  0  0  0
   12.0260    0.6330   23.9180 C   0  0  0  0  0  0  0  0  0  0  0  0
   13.1490    0.7810   22.9790 C   0  0  0  0  0  0  0  0  0  0  0  0
   12.8340   -0.5050   22.7220 C   0  0  0  0  0  0  0  0  0  0  0  0
   13.0990   -1.4540   22.0910 N   0  0  0  0  0  0  0  0  0  0  0  0
   12.0340   -1.7370   22.9220 C   0  0  0  0  0  0  0  0  0  0  0  0
  1  2  1  0
  2  3  2  0
  2  4  1  0
  4  5  1  0
  6  5  1  6
  6  7  1  0
  4  8  1  0
  7  8  1  0
  8  9  1  1
  6 10  1  0
  9 10  1  0
 10 11  1  1
 11 12  2  0
 11 13  1  0
 13 14  1  0
 14 15  2  0
 15 16  1  0
 16 17  2  0
 17 18  1  0
 14 19  1  0
 18 19  2  0
M  END
