MAK-UNK-a7992eb3-4-nitrile
     RDKit          3D

 35 39  0  0  0  0  0  0  0  0999 V2000
    6.4040   -4.4560   20.2920 C   0  0  0  0  0  0  0  0  0  0  0  0
    5.2730   -4.1550   19.7750 N   0  0  0  0  0  0  0  0  0  0  0  0
    6.5430   -4.9680   21.5770 N   0  0  0  0  0  0  0  0  0  0  0  0
    5.8360   -6.1830   21.9910 C   0  0  0  0  0  0  0  0  0  0  0  0
    4.9050   -5.9030   23.1680 C   0  0  0  0  0  0  0  0  0  0  0  0
    5.2200   -4.8360   24.0140 C   0  0  0  0  0  0  0  0  0  0  0  0
    4.5590   -4.9180   25.2540 C   0  0  0  0  0  0  0  0  0  0  0  0
    4.9810   -5.5680   26.1970 O   0  0  0  0  0  0  0  0  0  0  0  0
    3.3660   -4.2500   25.2690 N   0  0  0  0  0  0  0  0  0  0  0  0
    3.1220   -2.9790   25.9950 C   0  0  0  0  0  0  0  0  0  0  0  0
    3.4910   -2.3710   24.8010 C   0  0  0  0  0  0  0  0  0  0  0  0
    3.4110   -0.7730   24.6050 C   0  0  0  0  0  0  0  0  0  0  0  0
    2.3750    0.2560   25.1960 C   0  0  0  0  0  0  0  0  0  0  0  0
    1.6680   -0.9640   25.1810 C   0  0  0  0  0  0  0  0  0  0  0  0
    2.7270   -1.7220   26.1200 C   0  0  0  0  0  0  0  0  0  0  0  0
    3.0380   -1.0610   27.0950 O   0  0  0  0  0  0  0  0  0  0  0  0
    2.0260   -0.4330   27.9020 C   0  0  0  0  0  0  0  0  0  0  0  0
    2.4560    0.5800   28.9630 C   0  0  0  0  0  0  0  0  0  0  0  0
    1.3550    1.2250   29.7970 C   0  0  0  0  0  0  0  0  0  0  0  0
    0.0370    0.8500   29.5380 C   0  0  0  0  0  0  0  0  0  0  0  0
   -0.3020   -0.0870   28.5490 C   0  0  0  0  0  0  0  0  0  0  0  0
    0.6450   -0.7220   27.7410 C   0  0  0  0  0  0  0  0  0  0  0  0
    0.1450   -1.6330   26.7990 C   0  0  0  0  0  0  0  0  0  0  0  0
   -1.1680   -1.3830   26.3250 N   0  0  0  0  0  0  0  0  0  0  0  0
   -1.5590   -1.1560   25.0090 C   0  0  0  0  0  0  0  0  0  0  0  0
   -2.3330   -1.9090   24.2450 N   0  0  0  0  0  0  0  0  0  0  0  0
   -2.3610   -1.1530   22.9910 C   0  0  0  0  0  0  0  0  0  0  0  0
   -3.0520   -1.5370   21.8410 C   0  0  0  0  0  0  0  0  0  0  0  0
   -2.9730   -0.6970   20.7160 C   0  0  0  0  0  0  0  0  0  0  0  0
   -2.2130    0.4820   20.7890 C   0  0  0  0  0  0  0  0  0  0  0  0
   -1.5320    0.8380   21.9580 C   0  0  0  0  0  0  0  0  0  0  0  0
   -1.6150    0.0000   23.0670 C   0  0  0  0  0  0  0  0  0  0  0  0
   -1.1170   -0.0150   24.3480 N   0  0  0  0  0  0  0  0  0  0  0  0
    6.6090   -4.7270   23.9340 C   0  0  0  0  0  0  0  0  0  0  0  0
    6.8700   -4.0920   22.6970 C   0  0  0  0  0  0  0  0  0  0  0  0
  1  2  2  3
  1  3  1  0
  3  4  1  0
  4  5  1  0
  5  6  1  0
  6  7  1  0
  7  8  2  0
  7  9  1  0
  9 10  1  0
 10 11  2  0
 11 12  1  0
 12 13  2  0
 13 14  1  0
 10 15  1  0
 14 15  2  0
 15 16  1  0
 16 17  1  0
 17 18  2  0
 18 19  1  0
 19 20  2  0
 20 21  1  0
 17 22  1  0
 21 22  2  0
 22 23  1  0
 23 24  1  0
 24 25  1  0
 25 26  2  0
 26 27  1  0
 27 28  2  0
 28 29  1  0
 29 30  2  0
 30 31  1  0
 27 32  1  0
 31 32  2  0
 25 33  1  0
 32 33  1  0
  6 34  1  0
  3 35  1  0
 34 35  1  0
M  END
