MAK-UNK-8fdbca50-12-acrylamide
     RDKit          3D

 40 43  0  0  0  0  0  0  0  0999 V2000
    7.2940   -3.3130   19.6060 C   0  0  0  0  0  0  0  0  0  0  0  0
    5.9240   -2.7870   20.0120 C   0  0  0  0  0  0  0  0  0  0  0  0
    5.7290   -2.9500   21.4960 C   0  0  0  0  0  0  0  0  0  0  0  0
    4.7660   -3.5870   21.9430 O   0  0  0  0  0  0  0  0  0  0  0  0
    6.6890   -2.3460   22.2970 N   0  0  0  0  0  0  0  0  0  0  0  0
    7.5780   -3.1300   23.1760 C   0  0  0  0  0  0  0  0  0  0  0  0
    8.8970   -2.2850   23.3850 C   0  0  0  0  0  0  0  0  0  0  0  0
    9.3900   -2.0070   21.9570 C   0  0  0  0  0  0  0  0  0  0  0  0
   10.7600   -1.3930   22.3450 C   0  0  0  0  0  0  0  0  0  0  0  0
   10.9410   -0.1700   22.3940 O   0  0  0  0  0  0  0  0  0  0  0  0
   11.7530   -2.4890   22.6730 N   0  0  0  0  0  0  0  0  0  0  0  0
   11.5660   -2.8020   24.0970 C   0  0  0  0  0  0  0  0  0  0  0  0
   13.2260   -2.3970   22.2970 C   0  0  1  0  0  0  0  0  0  0  0  0
   13.4100   -0.9660   21.8940 C   0  0  0  0  0  0  0  0  0  0  0  0
   13.9220   -2.8970   23.4310 C   0  0  0  0  0  0  0  0  0  0  0  0
   13.3450   -2.3200   24.4430 C   0  0  0  0  0  0  0  0  0  0  0  0
   13.7180   -2.6140   25.6520 C   0  0  0  0  0  0  0  0  0  0  0  0
   14.6540   -3.4920   25.9590 C   0  0  0  0  0  0  0  0  0  0  0  0
   15.4580   -4.2080   25.0510 C   0  0  0  0  0  0  0  0  0  0  0  0
   16.5280   -5.2640   25.2050 C   0  0  0  0  0  0  0  0  0  0  0  0
   16.6360   -6.6860   24.8860 C   0  0  0  0  0  0  0  0  0  0  0  0
   17.5370   -7.7840   25.3350 C   0  0  0  0  0  0  0  0  0  0  0  0
   17.8290   -9.1320   25.1680 C   0  0  0  0  0  0  0  0  0  0  0  0
   18.5930   -9.9390   24.2270 N   0  0  0  0  0  0  0  0  0  0  0  0
   18.9800  -11.2690   24.5250 C   0  0  0  0  0  0  0  0  0  0  0  0
   17.2330   -6.8060   26.0010 C   0  0  0  0  0  0  0  0  0  0  0  0
   17.6830   -5.7090   25.1340 N   0  0  0  0  0  0  0  0  0  0  0  0
   17.8570   -4.1960   24.5960 S   0  0  0  0  0  0  0  0  0  0  0  0
   17.7590   -4.4840   23.1980 O   0  0  0  0  0  0  0  0  0  0  0  0
   16.7800   -3.7420   25.3940 O   0  0  0  0  0  0  0  0  0  0  0  0
   19.3310   -3.1780   24.8010 C   0  0  0  0  0  0  0  0  0  0  0  0
   19.8130   -2.3340   23.6140 C   0  0  0  0  0  0  0  0  0  0  0  0
   21.0610   -1.4770   23.7450 C   0  0  0  0  0  0  0  0  0  0  0  0
   21.7170   -1.5330   25.0990 C   0  0  0  0  0  0  0  0  0  0  0  0
   21.2600   -2.2790   26.1200 N   0  0  0  0  0  0  0  0  0  0  0  0
   20.1230   -3.0570   25.9500 C   0  0  0  0  0  0  0  0  0  0  0  0
   15.0740   -3.8650   23.7800 C   0  0  0  0  0  0  0  0  0  0  0  0
   15.8880   -4.5720   22.9320 F   0  0  0  0  0  0  0  0  0  0  0  0
    8.4800   -0.9680   21.2920 C   0  0  0  0  0  0  0  0  0  0  0  0
    7.0860   -0.9790   21.9590 C   0  0  0  0  0  0  0  0  0  0  0  0
  1  2  1  0
  2  3  1  0
  3  4  2  0
  3  5  1  0
  5  6  1  0
  6  7  1  0
  7  8  1  0
  8  9  1  0
  9 10  2  0
  9 11  1  0
 11 12  1  0
 11 13  1  0
 13 14  1  1
 13 15  1  0
 15 16  2  0
 16 17  1  0
 17 18  2  0
 18 19  1  0
 19 20  1  0
 20 21  2  0
 21 22  1  0
 22 23  1  0
 23 24  1  0
 24 25  1  0
 22 26  2  0
 20 27  1  0
 26 27  1  0
 27 28  1  0
 28 29  2  0
 28 30  2  0
 28 31  1  0
 31 32  2  0
 32 33  1  0
 33 34  2  0
 34 35  1  0
 31 36  1  0
 35 36  2  0
 15 37  1  0
 19 37  2  0
 37 38  1  0
  8 39  1  0
  5 40  1  0
 39 40  1  0
M  END
