MAK-UNK-148caf23-16-vinylsulfonamide
     RDKit          3D

 37 40  0  0  0  0  0  0  0  0999 V2000
    7.8300   -3.5230   19.5580 C   0  0  0  0  0  0  0  0  0  0  0  0
    6.6750   -2.7950   20.1530 C   0  0  0  0  0  0  0  0  0  0  0  0
    6.3880   -3.3590   21.8000 S   0  0  0  0  0  0  0  0  0  0  0  0
    4.8330   -3.4330   21.8050 O   0  0  0  0  0  0  0  0  0  0  0  0
    7.0560   -4.6030   22.1720 O   0  0  0  0  0  0  0  0  0  0  0  0
    7.5890   -2.2570   22.7360 C   0  0  0  0  0  0  0  0  0  0  0  0
    9.2000   -1.8440   22.3580 C   0  0  0  0  0  0  0  0  0  0  0  0
    9.9550   -1.0350   23.2090 C   0  0  0  0  0  0  0  0  0  0  0  0
    9.5320   -0.6400   24.1620 C   0  0  0  0  0  0  0  0  0  0  0  0
    9.5700    0.0630   25.3330 N   0  0  0  0  0  0  0  0  0  0  0  0
    9.0630   -0.5400   26.4710 C   0  0  0  0  0  0  0  0  0  0  0  0
    8.4700   -1.8270   26.4550 C   0  0  0  0  0  0  0  0  0  0  0  0
    8.8990   -2.9440   25.5440 C   0  0  0  0  0  0  0  0  0  0  0  0
    8.2820   -4.1920   25.5830 N   0  0  0  0  0  0  0  0  0  0  0  0
    7.2550   -4.4060   26.4730 C   0  0  0  0  0  0  0  0  0  0  0  0
    6.8170   -3.4440   27.3190 C   0  0  0  0  0  0  0  0  0  0  0  0
    5.4950   -3.8660   28.3960 S   0  0  0  0  0  0  0  0  0  0  0  0
    6.0900   -4.5770   29.5060 O   0  0  0  0  0  0  0  0  0  0  0  0
    4.4480   -4.5110   27.6250 O   0  0  0  0  0  0  0  0  0  0  0  0
    4.8060   -2.4270   28.8650 N   0  0  0  0  0  0  0  0  0  0  0  0
    4.3970   -2.1060   30.1530 C   0  0  0  0  0  0  0  0  0  0  0  0
    3.8520   -0.8670   30.3250 C   0  0  0  0  0  0  0  0  0  0  0  0
    3.3710   -0.3100   31.5100 C   0  0  0  0  0  0  0  0  0  0  0  0
    2.3050   -0.8920   32.0990 N   0  0  0  0  0  0  0  0  0  0  0  0
    1.8910   -2.0710   31.5770 C   0  0  0  0  0  0  0  0  0  0  0  0
    3.9300   -0.3560   28.9900 C   0  0  0  0  0  0  0  0  0  0  0  0
    4.5070   -1.3130   28.1240 C   0  0  0  0  0  0  0  0  0  0  0  0
    4.7040   -1.0820   26.7600 C   0  0  0  0  0  0  0  0  0  0  0  0
    4.4560   -2.0570   25.8000 C   0  0  0  0  0  0  0  0  0  0  0  0
    4.6520   -1.8330   24.4550 C   0  0  0  0  0  0  0  0  0  0  0  0
    5.1080   -0.6180   23.9790 C   0  0  0  0  0  0  0  0  0  0  0  0
    5.3700    0.3990   24.9110 C   0  0  0  0  0  0  0  0  0  0  0  0
    5.1680    0.1710   26.2890 C   0  0  0  0  0  0  0  0  0  0  0  0
    5.4270    1.1710   27.1490 F   0  0  0  0  0  0  0  0  0  0  0  0
    7.4050   -2.1460   27.3360 C   0  0  0  0  0  0  0  0  0  0  0  0
    8.5370   -1.4080   23.5260 N   0  0  0  0  0  0  0  0  0  0  0  0
    8.6600   -2.1980   22.1350 C   0  0  0  0  0  0  0  0  0  0  0  0
  1  2  1  0
  3  2  1  0
  3  4  2  0
  3  5  2  0
  3  6  1  0
  6  7  2  0
  7  8  1  0
  8  9  2  0
  9 10  1  0
 10 11  1  0
 11 12  1  0
 12 13  2  0
 13 14  1  0
 14 15  2  0
 15 16  1  0
 17 16  1  0
 17 18  2  0
 17 19  2  0
 17 20  1  0
 20 21  1  0
 21 22  2  0
 22 23  1  0
 23 24  1  0
 24 25  1  0
 22 26  1  0
 20 27  1  0
 26 27  2  0
 27 28  1  0
 28 29  2  0
 29 30  1  0
 30 31  2  0
 31 32  1  0
 28 33  1  0
 32 33  2  0
 33 34  1  0
 12 35  1  0
 16 35  2  0
  9 36  1  0
  6 37  1  0
 36 37  2  0
M  END
