MAK-UNK-902cc841-17
     RDKit          3D

 25 27  0  0  0  0  0  0  0  0999 V2000
    6.5340   -2.0860   18.5920 C   0  0  0  0  0  0  0  0  0  0  0  0
    6.1380   -2.8700   19.8210 C   0  0  0  0  0  0  0  0  0  0  0  0
    5.5080   -3.9390   19.7150 O   0  0  0  0  0  0  0  0  0  0  0  0
    6.5360   -2.3480   21.0370 N   0  0  0  0  0  0  0  0  0  0  0  0
    6.4440   -3.1010   22.2830 C   0  0  0  0  0  0  0  0  0  0  0  0
    7.6920   -3.3570   22.8150 C   0  0  0  0  0  0  0  0  0  0  0  0
    8.4400   -2.2590   23.0680 N   0  0  0  0  0  0  0  0  0  0  0  0
    9.7360   -2.6030   23.7460 C   0  0  2  0  0  0  0  0  0  0  0  0
    9.5620   -2.9780   25.0900 C   0  0  0  0  0  0  0  0  0  0  0  0
   10.5120   -3.3460   25.7960 O   0  0  0  0  0  0  0  0  0  0  0  0
    8.2570   -2.9300   25.5970 N   0  0  0  0  0  0  0  0  0  0  0  0
    7.6340   -4.0290   26.3600 C   0  0  0  0  0  0  0  0  0  0  0  0
    8.3240   -4.4510   27.6600 C   0  0  0  0  0  0  0  0  0  0  0  0
    7.8120   -5.5160   28.5340 N   0  0  0  0  0  0  0  0  0  0  0  0
    6.5860   -6.1940   28.1170 C   0  0  0  0  0  0  0  0  0  0  0  0
    5.8800   -5.8010   26.8250 C   0  0  0  0  0  0  0  0  0  0  0  0
    6.4540   -4.6860   25.9560 C   0  0  0  0  0  0  0  0  0  0  0  0
    5.7150   -4.4190   24.7980 C   0  0  0  0  0  0  0  0  0  0  0  0
   10.7690   -1.4830   23.6080 C   0  0  0  0  0  0  0  0  0  0  0  0
   11.9110   -1.4910   22.6840 C   0  0  0  0  0  0  0  0  0  0  0  0
   12.7300   -0.2060   22.8010 C   0  0  0  0  0  0  0  0  0  0  0  0
   12.0810    0.8590   23.9540 S   0  0  0  0  0  0  0  0  0  0  0  0
   10.7160   -0.1890   24.4330 C   0  0  0  0  0  0  0  0  0  0  0  0
    8.6680   -1.6220   21.7390 C   0  0  0  0  0  0  0  0  0  0  0  0
    7.5310   -1.2710   21.0350 C   0  0  0  0  0  0  0  0  0  0  0  0
  1  2  1  0
  2  3  2  0
  2  4  1  0
  4  5  1  0
  5  6  1  0
  6  7  1  0
  7  8  1  0
  8  9  1  1
  9 10  2  0
  9 11  1  0
 11 12  1  0
 12 13  2  0
 13 14  1  0
 14 15  2  0
 15 16  1  0
 12 17  1  0
 16 17  2  0
 17 18  1  0
  8 19  1  0
 19 20  1  0
 20 21  2  0
 21 22  1  0
 19 23  2  0
 22 23  1  0
  7 24  1  0
  4 25  1  0
 24 25  1  0
M  END
