MAK-UNK-704ed37c-1-chloroacetamide
     RDKit          3D

 16 17  0  0  0  0  0  0  0  0999 V2000
    7.0550   -3.2520   19.3480 C   0  0  0  0  0  0  0  0  0  0  0  0
    6.2710   -4.1170   20.3050 C   0  0  0  0  0  0  0  0  0  0  0  0
    5.2820   -4.7350   19.9460 O   0  0  0  0  0  0  0  0  0  0  0  0
    6.7490   -4.2320   21.6130 N   0  0  0  0  0  0  0  0  0  0  0  0
    7.6420   -3.1800   22.1270 C   0  0  0  0  0  0  0  0  0  0  0  0
    7.4130   -2.9520   23.6230 C   0  0  0  0  0  0  0  0  0  0  0  0
    6.0580   -3.5230   24.0230 C   0  0  0  0  0  0  0  0  0  0  0  0
    5.6180   -3.1530   25.4580 C   0  0  0  0  0  0  0  0  0  0  0  0
    4.6140   -2.4700   25.6170 O   0  0  0  0  0  0  0  0  0  0  0  0
    6.3400   -3.5820   26.5450 N   0  0  0  0  0  0  0  0  0  0  0  0
    5.8140   -3.5110   27.8760 C   0  0  0  0  0  0  0  0  0  0  0  0
    6.4860   -4.7130   28.4990 C   0  0  0  0  0  0  0  0  0  0  0  0
    7.7990   -4.8030   27.8140 N   0  0  0  0  0  0  0  0  0  0  0  0
    7.7270   -3.9120   26.6510 C   0  0  0  0  0  0  0  0  0  0  0  0
    6.0090   -5.0450   23.8260 C   0  0  0  0  0  0  0  0  0  0  0  0
    6.5500   -5.4200   22.4490 C   0  0  0  0  0  0  0  0  0  0  0  0
  1  2  1  0
  2  3  2  0
  2  4  1  0
  4  5  1  0
  5  6  1  0
  6  7  1  0
  7  8  1  0
  8  9  2  0
  8 10  1  0
 10 11  1  0
 11 12  1  0
 12 13  1  0
 10 14  1  0
 13 14  1  0
  7 15  1  0
  4 16  1  0
 15 16  1  0
M  END
