MAK-UNK-e05327b2-5-acrylamide
     RDKit          3D

 58 65  0  0  0  0  0  0  0  0999 V2000
    8.0500   -3.5890   19.6750 C   0  0  0  0  0  0  0  0  0  0  0  0
    7.3440   -2.9570   20.8450 C   0  0  0  0  0  0  0  0  0  0  0  0
    6.0630   -3.6870   21.1120 C   0  0  0  0  0  0  0  0  0  0  0  0
    5.1040   -3.4470   20.4180 O   0  0  0  0  0  0  0  0  0  0  0  0
    6.0930   -4.6360   22.1110 N   0  0  0  0  0  0  0  0  0  0  0  0
    5.3660   -5.7650   22.0930 C   0  0  0  0  0  0  0  0  0  0  0  0
    4.7120   -6.0590   23.4440 C   0  0  0  0  0  0  0  0  0  0  0  0
    5.4090   -5.3460   24.5330 N   0  0  0  0  0  0  0  0  0  0  0  0
    4.8640   -5.3570   26.0830 S   0  0  0  0  0  0  0  0  0  0  0  0
    5.9460   -5.1180   26.9990 O   0  0  0  0  0  0  0  0  0  0  0  0
    3.9960   -6.5020   26.1970 O   0  0  0  0  0  0  0  0  0  0  0  0
    3.8700   -3.8950   26.0880 C   0  0  0  0  0  0  0  0  0  0  0  0
    4.3190   -2.4710   26.2790 C   0  0  0  0  0  0  0  0  0  0  0  0
    3.2990   -1.5460   26.2340 C   0  0  0  0  0  0  0  0  0  0  0  0
    2.0470   -2.1520   26.0170 C   0  0  0  0  0  0  0  0  0  0  0  0
    0.8380   -1.4520   25.9380 C   0  0  0  0  0  0  0  0  0  0  0  0
   -0.3650   -2.1620   26.2900 N   0  0  0  0  0  0  0  0  0  0  0  0
   -1.3100   -2.2260   25.1690 C   0  0  0  0  0  0  0  0  0  0  0  0
   -1.0440   -3.4750   24.6580 C   0  0  0  0  0  0  0  0  0  0  0  0
   -0.8040   -4.5800   24.7780 N   0  0  0  0  0  0  0  0  0  0  0  0
   -1.8430   -5.7450   24.0200 S   0  0  0  0  0  0  0  0  0  0  0  0
   -2.0210   -6.8280   24.9600 O   0  0  0  0  0  0  0  0  0  0  0  0
   -1.2920   -6.0230   22.7070 O   0  0  0  0  0  0  0  0  0  0  0  0
   -3.4590   -4.9880   23.8700 C   0  0  0  0  0  0  0  0  0  0  0  0
   -4.2870   -5.1170   24.9960 C   0  0  0  0  0  0  0  0  0  0  0  0
   -5.5560   -4.5910   25.0380 C   0  0  0  0  0  0  0  0  0  0  0  0
   -6.0410   -3.9150   23.9490 C   0  0  0  0  0  0  0  0  0  0  0  0
   -5.2920   -3.7360   22.7880 C   0  0  0  0  0  0  0  0  0  0  0  0
   -5.8430   -3.0390   21.7240 C   0  0  0  0  0  0  0  0  0  0  0  0
   -5.1220   -2.7750   20.4010 C   0  0  0  0  0  0  0  0  0  0  0  0
   -5.8590   -1.9740   19.2980 C   0  0  0  0  0  0  0  0  0  0  0  0
   -6.5600   -1.2230   18.7570 N   0  0  0  0  0  0  0  0  0  0  0  0
   -6.2850    0.2020   18.9220 C   0  0  0  0  0  0  0  0  0  0  0  0
   -7.4680    0.9560   19.5540 C   0  0  0  0  0  0  0  0  0  0  0  0
   -8.7320    0.7250   18.8120 N   0  0  0  0  0  0  0  0  0  0  0  0
   -9.6320    1.7580   18.6320 C   0  0  0  0  0  0  0  0  0  0  0  0
  -10.4830    2.3220   19.5830 C   0  0  0  0  0  0  0  0  0  0  0  0
  -11.3450    3.4390   19.0650 C   0  0  0  0  0  0  0  0  0  0  0  0
  -11.0740    3.6860   17.6040 C   0  0  0  0  0  0  0  0  0  0  0  0
  -11.7860    4.8390   16.5470 Cl  0  0  0  0  0  0  0  0  0  0  0  0
   -9.8770    2.5930   17.0800 S   0  0  0  0  0  0  0  0  0  0  0  0
   -8.6920   -0.4140   17.8550 C   0  0  0  0  0  0  0  0  0  0  0  0
   -7.9180   -1.6040   18.3970 C   0  0  0  0  0  0  0  0  0  0  0  0
   -3.8160   -3.2790   20.2660 C   0  0  0  0  0  0  0  0  0  0  0  0
   -3.0020   -3.0820   19.0130 C   0  0  0  0  0  0  0  0  0  0  0  0
   -2.5770   -4.1340   18.1570 C   0  0  0  0  0  0  0  0  0  0  0  0
   -2.1370   -3.7350   16.9050 C   0  0  0  0  0  0  0  0  0  0  0  0
   -2.9490   -3.0670   15.9280 C   0  0  0  0  0  0  0  0  0  0  0  0
   -2.2630   -2.7850   14.7640 C   0  0  0  0  0  0  0  0  0  0  0  0
   -0.6340   -3.3200   14.8240 S   0  0  0  0  0  0  0  0  0  0  0  0
   -0.8540   -3.9240   16.4110 C   0  0  0  0  0  0  0  0  0  0  0  0
   -3.2270   -4.0030   21.3510 C   0  0  0  0  0  0  0  0  0  0  0  0
   -3.9590   -4.2710   22.7030 C   0  0  0  0  0  0  0  0  0  0  0  0
   -0.5450   -4.7860   26.2480 C   0  0  0  0  0  0  0  0  0  0  0  0
   -0.2370   -3.4560   27.0280 C   0  0  0  0  0  0  0  0  0  0  0  0
    2.1760   -3.8860   25.8630 S   0  0  0  0  0  0  0  0  0  0  0  0
    6.8300   -4.9980   24.3510 C   0  0  0  0  0  0  0  0  0  0  0  0
    7.2510   -4.8410   22.9270 C   0  0  0  0  0  0  0  0  0  0  0  0
  1  2  1  0
  2  3  1  0
  3  4  2  0
  3  5  1  0
  5  6  1  0
  6  7  1  0
  7  8  1  0
  8  9  1  0
  9 10  2  0
  9 11  2  0
  9 12  1  0
 12 13  2  0
 13 14  1  0
 14 15  2  0
 15 16  1  0
 16 17  1  0
 17 18  1  0
 18 19  1  0
 19 20  1  0
 20 21  1  0
 21 22  2  0
 21 23  2  0
 21 24  1  0
 24 25  2  0
 25 26  1  0
 26 27  2  0
 27 28  1  0
 28 29  1  0
 29 30  2  0
 30 31  1  0
 31 32  1  0
 32 33  1  0
 33 34  1  0
 34 35  1  0
 35 36  1  0
 36 37  2  0
 37 38  1  0
 38 39  2  0
 39 40  1  0
 36 41  1  0
 39 41  1  0
 35 42  1  0
 32 43  1  0
 42 43  1  0
 30 44  1  0
 44 45  1  0
 45 46  1  0
 46 47  1  0
 47 48  1  0
 48 49  2  0
 49 50  1  0
 47 51  2  0
 50 51  1  0
 44 52  2  0
 24 53  1  0
 28 53  2  0
 52 53  1  0
 20 54  1  0
 17 55  1  0
 54 55  1  0
 12 56  1  0
 15 56  1  0
  8 57  1  0
  5 58  1  0
 57 58  1  0
M  END
