MAK-UNK-6ca90168-28-chloroacetamide
     RDKit          3D

 12 12  0  0  0  0  0  0  0  0999 V2000
    7.7980   -4.6050   20.7480 C   0  0  0  0  0  0  0  0  0  0  0  0
    6.4310   -3.7390   20.6900 C   0  0  0  0  0  0  0  0  0  0  0  0
    5.8620   -4.5980   19.9990 O   0  0  0  0  0  0  0  0  0  0  0  0
    7.2810   -2.8910   21.4900 N   0  0  0  0  0  0  0  0  0  0  0  0
    8.6300   -2.4830   21.1470 C   0  0  0  0  0  0  0  0  0  0  0  0
    7.5290   -2.2310   20.2730 C   0  0  0  0  0  0  0  0  0  0  0  0
    6.3890   -2.7420   21.0740 N   0  0  0  0  0  0  0  0  0  0  0  0
    6.1800   -3.3870   22.4140 C   0  0  0  0  0  0  0  0  0  0  0  0
    7.5520   -3.4850   23.0040 C   0  0  0  0  0  0  0  0  0  0  0  0
    8.7410   -3.0220   22.3500 C   0  0  0  0  0  0  0  0  0  0  0  0
    9.8690   -3.2010   23.1080 C   0  0  0  0  0  0  0  0  0  0  0  0
   10.8230   -3.3200   23.7650 N   0  0  0  0  0  0  0  0  0  0  0  0
  1  2  1  0
  2  3  2  0
  2  4  1  0
  4  5  1  0
  5  6  2  0
  6  7  1  0
  7  8  2  0
  8  9  1  0
  5 10  1  0
  9 10  2  0
 10 11  1  0
 11 12  3  0
M  END
