MAK-UNK-ec98eaf6-20-acrylamide
     RDKit          3D

 22 24  0  0  0  0  0  0  0  0999 V2000
    8.0250   -3.3980   19.8290 C   0  0  0  0  0  0  0  0  0  0  0  0
    6.8620   -2.6540   19.2380 C   0  0  0  0  0  0  0  0  0  0  0  0
    5.7760   -3.2010   20.0710 C   0  0  0  0  0  0  0  0  0  0  0  0
    5.0470   -4.0930   19.6740 O   0  0  0  0  0  0  0  0  0  0  0  0
    5.7280   -2.6700   21.3290 N   0  0  0  0  0  0  0  0  0  0  0  0
    5.9850   -3.5750   22.4940 C   0  0  0  0  0  0  0  0  0  0  0  0
    6.3250   -2.5260   23.5900 C   0  0  2  0  0  0  0  0  0  0  0  0
    5.6940   -1.2730   23.1140 C   0  0  0  0  0  0  0  0  0  0  0  0
    6.2290   -1.3100   21.7300 C   0  0  1  0  0  0  0  0  0  0  0  0
    7.7330   -1.4080   22.0610 C   0  0  0  0  0  0  0  0  0  0  0  0
    7.6960   -1.9630   23.4670 N   0  0  0  0  0  0  0  0  0  0  0  0
    8.7350   -2.9440   23.7120 C   0  0  0  0  0  0  0  0  0  0  0  0
   10.0900   -2.2830   24.0540 C   0  0  0  0  0  0  0  0  0  0  0  0
    9.6530   -1.1710   24.9200 N   0  0  0  0  0  0  0  0  0  0  0  0
    9.9460    0.0950   24.5900 C   0  0  0  0  0  0  0  0  0  0  0  0
    9.1410    1.1710   24.8470 O   0  0  0  0  0  0  0  0  0  0  0  0
   11.2370    0.2460   23.8930 C   0  0  0  0  0  0  0  0  0  0  0  0
   12.1130   -0.9180   23.4810 C   0  0  0  0  0  0  0  0  0  0  0  0
   13.2460   -0.3400   22.8560 C   0  0  0  0  0  0  0  0  0  0  0  0
   13.7390    0.9850   22.5400 C   0  0  0  0  0  0  0  0  0  0  0  0
   12.8790    2.0250   22.9410 N   0  0  0  0  0  0  0  0  0  0  0  0
   11.6480    1.5700   23.6090 C   0  0  0  0  0  0  0  0  0  0  0  0
  1  2  1  0
  2  3  1  0
  3  4  2  0
  3  5  1  0
  5  6  1  0
  7  6  1  6
  7  8  1  0
  5  9  1  0
  8  9  1  0
  9 10  1  1
  7 11  1  0
 10 11  1  0
 11 12  1  0
 12 13  1  0
 13 14  1  0
 14 15  1  0
 15 16  2  0
 15 17  1  0
 17 18  2  0
 18 19  1  0
 19 20  2  0
 20 21  1  0
 17 22  1  0
 21 22  2  0
M  END
