MAK-UNK-10799360-1-chloroacetamide
     RDKit          3D

 22 25  0  0  0  0  0  0  0  0999 V2000
    7.1520   -2.9980   18.8960 C   0  0  0  0  0  0  0  0  0  0  0  0
    6.1650   -3.3440   19.9600 C   0  0  0  0  0  0  0  0  0  0  0  0
    5.3560   -4.2560   19.7830 O   0  0  0  0  0  0  0  0  0  0  0  0
    6.1800   -2.6440   21.1420 N   0  0  0  0  0  0  0  0  0  0  0  0
    5.8830   -3.1230   22.5300 C   0  0  0  0  0  0  0  0  0  0  0  0
    7.3170   -3.0230   23.1430 C   0  0  2  0  0  0  0  0  0  0  0  0
    6.6800   -1.5990   22.9750 C   0  0  0  0  0  0  0  0  0  0  0  0
    7.0540   -1.4790   21.5010 C   0  0  1  0  0  0  0  0  0  0  0  0
    8.5500   -1.6940   21.7770 C   0  0  0  0  0  0  0  0  0  0  0  0
    8.3850   -2.0000   23.2110 N   0  0  0  0  0  0  0  0  0  0  0  0
    9.5960   -2.3350   23.9520 C   0  0  0  0  0  0  0  0  0  0  0  0
   10.6020   -1.1850   24.0560 C   0  0  0  0  0  0  0  0  0  0  0  0
   11.6370   -0.1710   24.0140 C   0  0  0  0  0  0  0  0  0  0  0  0
   11.7620   -1.0270   23.1570 N   0  0  0  0  0  0  0  0  0  0  0  0
   12.7810   -0.9670   22.2940 C   0  0  0  0  0  0  0  0  0  0  0  0
   13.2540    0.2110   22.8780 C   0  0  0  0  0  0  0  0  0  0  0  0
   11.4100   -2.0570   22.5770 S   0  0  0  0  0  0  0  0  0  0  0  0
    9.9690   -3.6210   23.5700 C   0  0  0  0  0  0  0  0  0  0  0  0
    9.0840   -4.6250   24.0160 C   0  0  0  0  0  0  0  0  0  0  0  0
    9.4600   -5.0210   25.2900 C   0  0  0  0  0  0  0  0  0  0  0  0
    9.7450   -3.8730   26.0070 C   0  0  0  0  0  0  0  0  0  0  0  0
    9.1620   -2.5760   25.4190 C   0  0  0  0  0  0  0  0  0  0  0  0
  1  2  1  0
  2  3  2  0
  2  4  1  0
  4  5  1  0
  6  5  1  6
  6  7  1  0
  4  8  1  0
  7  8  1  0
  8  9  1  1
  6 10  1  0
  9 10  1  0
 10 11  1  0
 11 12  1  0
 12 13  2  0
 13 14  1  0
 14 15  2  0
 15 16  1  0
 12 17  1  0
 15 17  1  0
 11 18  1  0
 18 19  1  0
 19 20  1  0
 20 21  1  0
 11 22  1  0
 21 22  1  0
M  END
