MAK-UNK-176ca439-1-chloroacetamide
     RDKit          3D

 24 24  0  0  0  0  0  0  0  0999 V2000
    6.9970   -3.0210   18.9100 C   0  0  0  0  0  0  0  0  0  0  0  0
    5.9450   -3.3920   19.9190 C   0  0  0  0  0  0  0  0  0  0  0  0
    5.1970   -4.3450   19.7780 O   0  0  0  0  0  0  0  0  0  0  0  0
    5.8390   -2.6200   21.0620 N   0  0  0  0  0  0  0  0  0  0  0  0
    5.5470   -3.2010   22.3710 C   0  0  0  0  0  0  0  0  0  0  0  0
    6.7160   -3.3230   23.1100 C   0  0  0  0  0  0  0  0  0  0  0  0
    7.3880   -2.0180   23.2880 N   0  0  0  0  0  0  0  0  0  0  0  0
    8.5630   -2.1230   24.1320 C   0  0  0  0  0  0  0  0  0  0  0  0
    9.4670   -1.1040   23.7310 N   0  0  0  0  0  0  0  0  0  0  0  0
    9.3520    0.1740   24.2270 C   0  0  0  0  0  0  0  0  0  0  0  0
    8.3380    0.7210   24.6610 O   0  0  0  0  0  0  0  0  0  0  0  0
   10.6100    1.0240   24.2500 C   0  0  0  0  0  0  0  0  0  0  0  0
   11.2410    0.9610   22.9660 N   0  0  0  0  0  0  0  0  0  0  0  0
   12.6040    1.0330   22.8670 C   0  0  0  0  0  0  0  0  0  0  0  0
   13.7730    0.7110   22.8540 O   0  0  0  0  0  0  0  0  0  0  0  0
   12.3510   -0.4290   23.1570 C   0  0  0  0  0  0  0  0  0  0  0  0
   12.4540   -1.0570   24.5590 C   0  0  0  0  0  0  0  0  0  0  0  0
   13.1260   -2.2950   24.6350 C   0  0  0  0  0  0  0  0  0  0  0  0
   13.5130   -2.7210   23.3260 N   0  0  0  0  0  0  0  0  0  0  0  0
   12.6020   -2.6400   22.3110 C   0  0  0  0  0  0  0  0  0  0  0  0
   13.0250   -2.5890   21.0100 C   0  0  0  0  0  0  0  0  0  0  0  0
   11.1620   -2.5960   22.4400 O   0  0  0  0  0  0  0  0  0  0  0  0
    7.6910   -1.5020   22.0340 C   0  0  0  0  0  0  0  0  0  0  0  0
    6.5900   -1.3650   21.1660 C   0  0  0  0  0  0  0  0  0  0  0  0
  1  2  1  0
  2  3  2  0
  2  4  1  0
  4  5  1  0
  5  6  1  0
  6  7  1  0
  7  8  1  0
  8  9  1  0
  9 10  1  0
 10 11  2  0
 10 12  1  0
 12 13  1  0
 13 14  1  0
 14 15  2  0
 14 16  1  0
 16 17  1  0
 17 18  1  0
 18 19  1  0
 19 20  1  0
 20 21  1  0
 20 22  2  0
  7 23  1  0
  4 24  1  0
 23 24  1  0
M  END
