MAK-UNK-d4768348-1-acrylamide
     RDKit          3D

 18 19  0  0  0  0  0  0  0  0999 V2000
    7.4230   -3.0620   19.0340 C   0  0  0  0  0  0  0  0  0  0  0  0
    6.9340   -3.0300   20.4620 C   0  0  0  0  0  0  0  0  0  0  0  0
    6.0850   -4.2470   20.6860 C   0  0  0  0  0  0  0  0  0  0  0  0
    5.1790   -4.5580   19.9200 O   0  0  0  0  0  0  0  0  0  0  0  0
    6.4230   -4.9760   21.8050 N   0  0  0  0  0  0  0  0  0  0  0  0
    5.6630   -6.1760   22.1020 C   0  0  0  0  0  0  0  0  0  0  0  0
    4.8590   -5.9210   23.3290 C   0  0  0  0  0  0  0  0  0  0  0  0
    5.3240   -5.1020   24.3260 N   0  0  0  0  0  0  0  0  0  0  0  0
    4.6430   -5.1030   25.8800 S   0  0  0  0  0  0  0  0  0  0  0  0
    3.9830   -6.3820   26.0210 O   0  0  0  0  0  0  0  0  0  0  0  0
    5.6480   -4.6390   26.8090 O   0  0  0  0  0  0  0  0  0  0  0  0
    3.3760   -3.8720   25.7910 C   0  0  0  0  0  0  0  0  0  0  0  0
    3.6400   -2.4780   26.0130 C   0  0  0  0  0  0  0  0  0  0  0  0
    2.5800   -1.5030   25.9470 C   0  0  0  0  0  0  0  0  0  0  0  0
    1.1580   -2.5430   25.5730 S   0  0  0  0  0  0  0  0  0  0  0  0
    1.9020   -4.1230   25.4950 C   0  0  0  0  0  0  0  0  0  0  0  0
    6.1940   -3.9820   23.9500 C   0  0  0  0  0  0  0  0  0  0  0  0
    7.1490   -4.4810   22.8700 C   0  0  0  0  0  0  0  0  0  0  0  0
  1  2  1  0
  2  3  1  0
  3  4  2  0
  3  5  1  0
  5  6  1  0
  6  7  1  0
  7  8  1  0
  8  9  1  0
  9 10  2  0
  9 11  2  0
  9 12  1  0
 12 13  2  0
 13 14  1  0
 14 15  1  0
 12 16  1  0
 15 16  2  0
  8 17  1  0
  5 18  1  0
 17 18  1  0
M  END
