MAK-UNK-f2409524-21
     RDKit          3D

 26 27  0  0  0  0  0  0  0  0999 V2000
    9.8100   -0.6850   22.5060 C   0  0  0  0  0  0  0  0  0  0  0  0
    8.8950    0.0440   21.5570 C   0  0  0  0  0  0  0  0  0  0  0  0
    9.0940    1.2280   21.2320 O   0  0  0  0  0  0  0  0  0  0  0  0
    7.8310   -0.7270   21.1120 N   0  0  0  0  0  0  0  0  0  0  0  0
    6.8010   -0.1600   20.2590 C   0  0  0  0  0  0  0  0  0  0  0  0
    7.0700   -0.2310   18.7660 C   0  0  0  0  0  0  0  0  0  0  0  0
    6.0660    0.3440   17.8970 N   0  0  0  0  0  0  0  0  0  0  0  0
    4.9220    0.9220   18.4110 C   0  0  0  0  0  0  0  0  0  0  0  0
    4.7490    0.9350   19.7760 C   0  0  0  0  0  0  0  0  0  0  0  0
    5.6230    0.4250   20.7360 C   0  0  0  0  0  0  0  0  0  0  0  0
    5.3050    0.5070   22.1100 C   0  0  0  0  0  0  0  0  0  0  0  0
    5.1250    1.8110   22.8550 C   0  0  1  0  0  0  0  0  0  0  0  0
    6.2990    2.7980   22.7500 C   0  0  0  0  0  0  0  0  0  0  0  0
    7.3560    2.3910   23.5150 O   0  0  0  0  0  0  0  0  0  0  0  0
    7.3630    3.1490   24.7340 C   0  0  0  0  0  0  0  0  0  0  0  0
    7.3970    4.3520   24.9670 O   0  0  0  0  0  0  0  0  0  0  0  0
    3.8970    2.4220   22.4160 O   0  0  0  0  0  0  0  0  0  0  0  0
    2.8540    2.3680   23.2770 C   0  0  0  0  0  0  0  0  0  0  0  0
    2.8240    1.5250   24.1670 O   0  0  0  0  0  0  0  0  0  0  0  0
    1.7380    3.3570   23.1160 N   0  0  0  0  0  0  0  0  0  0  0  0
    0.5340    3.4240   23.8480 C   0  0  0  0  0  0  0  0  0  0  0  0
   -0.6210    3.1260   23.1110 C   0  0  0  0  0  0  0  0  0  0  0  0
   -1.7720    3.2210   23.9220 C   0  0  0  0  0  0  0  0  0  0  0  0
   -1.9800    4.5400   24.2860 C   0  0  0  0  0  0  0  0  0  0  0  0
   -0.8940    5.0010   25.0060 C   0  0  0  0  0  0  0  0  0  0  0  0
    0.3760    4.6160   24.5830 C   0  0  0  0  0  0  0  0  0  0  0  0
  1  2  1  0
  2  3  2  0
  2  4  1  0
  4  5  1  0
  5  6  2  0
  6  7  1  0
  7  8  2  0
  8  9  1  0
  5 10  1  0
  9 10  2  0
 10 11  1  0
 12 11  1  6
 12 13  1  0
 13 14  1  0
 14 15  1  0
 15 16  2  0
 12 17  1  0
 17 18  1  0
 18 19  2  0
 18 20  1  0
 20 21  1  0
 21 22  1  0
 22 23  1  0
 23 24  1  0
 24 25  1  0
 21 26  1  0
 25 26  1  0
M  END
