MAK-UNK-c97f7c8f-1-nitrile
     RDKit          3D

 18 19  0  0  0  0  0  0  0  0999 V2000
    6.6750   -4.1790   20.1480 C   0  0  0  0  0  0  0  0  0  0  0  0
    5.5180   -3.9550   19.6680 N   0  0  0  0  0  0  0  0  0  0  0  0
    6.9540   -4.0710   21.4700 N   0  0  0  0  0  0  0  0  0  0  0  0
    7.7750   -3.1460   22.0030 C   0  0  0  0  0  0  0  0  0  0  0  0
    7.3830   -2.6180   23.3740 C   0  0  0  0  0  0  0  0  0  0  0  0
    6.0560   -3.2560   23.7730 C   0  0  0  0  0  0  0  0  0  0  0  0
    5.8160   -3.0450   25.2430 C   0  0  0  0  0  0  0  0  0  0  0  0
    4.7310   -3.4010   25.6750 O   0  0  0  0  0  0  0  0  0  0  0  0
    6.8090   -2.4620   26.0520 N   0  0  0  0  0  0  0  0  0  0  0  0
    6.6950   -1.3890   26.9240 C   0  0  0  0  0  0  0  0  0  0  0  0
    6.0160   -0.2380   26.5260 C   0  0  0  0  0  0  0  0  0  0  0  0
    5.8670    0.8840   27.3460 C   0  0  0  0  0  0  0  0  0  0  0  0
    6.4350    0.8330   28.6170 C   0  0  0  0  0  0  0  0  0  0  0  0
    6.4040    1.8390   29.5820 C   0  0  0  0  0  0  0  0  0  0  0  0
    7.1500   -0.4830   28.9340 C   0  0  0  0  0  0  0  0  0  0  0  0
    7.2820   -1.5140   28.1780 N   0  0  0  0  0  0  0  0  0  0  0  0
    5.9050   -4.6260   23.4800 C   0  0  0  0  0  0  0  0  0  0  0  0
    6.6400   -5.1070   22.3830 C   0  0  0  0  0  0  0  0  0  0  0  0
  1  2  2  3
  1  3  1  0
  3  4  1  0
  4  5  1  0
  5  6  1  0
  6  7  1  0
  7  8  2  0
  7  9  1  0
  9 10  1  0
 10 11  2  0
 11 12  1  0
 12 13  2  0
 13 14  1  0
 13 15  1  0
 10 16  1  0
 15 16  2  0
  6 17  1  0
  3 18  1  0
 17 18  1  0
M  END
