MAK-UNK-ec98eaf6-31-nitrile
     RDKit          3D

 19 20  0  0  0  0  0  0  0  0999 V2000
    7.2060   -4.0030   20.1830 C   0  0  0  0  0  0  0  0  0  0  0  0
    6.1970   -4.7720   20.0300 N   0  0  0  0  0  0  0  0  0  0  0  0
    7.6880   -3.5750   21.4000 N   0  0  0  0  0  0  0  0  0  0  0  0
    7.4710   -4.3500   22.6290 C   0  0  0  0  0  0  0  0  0  0  0  0
    6.7340   -3.2230   23.3800 C   0  0  1  0  0  0  0  0  0  0  0  0
    6.0970   -3.8240   24.6390 C   0  0  0  0  0  0  0  0  0  0  0  0
    6.1990   -2.5910   25.5400 C   0  0  0  0  0  0  0  0  0  0  0  0
    5.8630   -1.2700   24.9080 N   0  0  0  0  0  0  0  0  0  0  0  0
    6.5020   -2.6540   26.7250 O   0  0  0  0  0  0  0  0  0  0  0  0
    7.9230   -2.2420   23.3720 C   0  0  0  0  0  0  0  0  0  0  0  0
    7.7250   -2.1320   21.8440 C   0  0  2  0  0  0  0  0  0  0  0  0
    6.2890   -1.5420   21.9200 C   0  0  1  0  0  0  0  0  0  0  0  0
    5.6220   -0.9080   20.6680 C   0  0  0  0  0  0  0  0  0  0  0  0
    6.0640   -1.4440   19.3260 C   0  0  0  0  0  0  0  0  0  0  0  0
    4.7810   -0.0120   20.7430 O   0  0  0  0  0  0  0  0  0  0  0  0
    5.7360   -2.6390   22.4510 N   0  0  0  0  0  0  0  0  0  0  0  0
    5.1140   -3.5480   21.6360 C   0  0  0  0  0  0  0  0  0  0  0  0
    4.8940   -4.8140   22.2000 C   0  0  0  0  0  0  0  0  0  0  0  0
    4.7770   -3.3100   20.4880 O   0  0  0  0  0  0  0  0  0  0  0  0
  1  2  2  3
  1  3  1  0
  3  4  1  0
  4  5  1  0
  5  6  1  1
  6  7  1  0
  7  8  1  0
  7  9  2  0
  5 10  1  0
 11  3  1  6
 10 11  1  0
 11 12  1  0
 12 13  1  6
 13 14  1  0
 13 15  2  0
  5 16  1  0
 12 16  1  0
 16 17  1  0
 17 18  1  0
 17 19  2  0
M  END
