MAK-UNK-e4a48a85-11
     RDKit          3D

 20 21  0  0  0  0  0  0  0  0999 V2000
   10.7690    2.4990   23.7660 C   0  0  0  0  0  0  0  0  0  0  0  0
   11.1220    1.0520   23.6530 C   0  0  0  0  0  0  0  0  0  0  0  0
   12.5630    0.6300   23.2560 C   0  0  0  0  0  0  0  0  0  0  0  0
   12.8640   -0.8840   23.1510 C   0  0  0  0  0  0  0  0  0  0  0  0
   11.7360   -1.8980   23.4400 C   0  0  0  0  0  0  0  0  0  0  0  0
   10.4060   -1.2390   23.8050 C   0  0  0  0  0  0  0  0  0  0  0  0
    9.3750   -2.4230   24.0540 C   0  0  0  0  0  0  0  0  0  0  0  0
    8.3370   -2.4670   23.0100 N   0  0  0  0  0  0  0  0  0  0  0  0
    7.2480   -3.3820   23.4360 C   0  0  2  0  0  0  0  0  0  0  0  0
    7.6690   -4.8700   23.4750 C   0  0  0  0  0  0  0  0  0  0  0  0
    7.0880   -5.5940   24.2700 O   0  0  0  0  0  0  0  0  0  0  0  0
    5.9900   -3.1670   22.5920 C   0  0  0  0  0  0  0  0  0  0  0  0
    6.0950   -2.3210   21.5200 N   0  0  0  0  0  0  0  0  0  0  0  0
    6.8610   -1.0950   21.4200 C   0  0  0  0  0  0  0  0  0  0  0  0
    7.9950   -1.4020   20.4940 C   0  0  0  0  0  0  0  0  0  0  0  0
    7.3940   -1.3160   19.0820 C   0  0  0  0  0  0  0  0  0  0  0  0
    7.1310   -0.0610   18.5810 O   0  0  0  0  0  0  0  0  0  0  0  0
    6.1160   -2.1250   18.9810 C   0  0  0  0  0  0  0  0  0  0  0  0
    5.9290   -3.0360   20.2030 C   0  0  0  0  0  0  0  0  0  0  0  0
   10.1390    0.1120   23.9030 C   0  0  0  0  0  0  0  0  0  0  0  0
  1  2  1  0
  2  3  2  0
  3  4  1  0
  4  5  2  0
  5  6  1  0
  6  7  1  0
  7  8  1  0
  8  9  1  0
  9 10  1  6
 10 11  1  0
  9 12  1  0
 12 13  1  0
 13 14  1  0
 14 15  1  0
 15 16  1  0
 16 17  1  0
 16 18  1  0
 13 19  1  0
 18 19  1  0
  2 20  1  0
  6 20  2  0
M  END
