MAK-UNK-10dfa458-11-acrylamide
     RDKit          3D

 20 22  0  0  0  0  0  0  0  0999 V2000
    8.0530   -3.6810   20.1970 C   0  0  0  0  0  0  0  0  0  0  0  0
    6.7320   -3.0680   19.9880 C   0  0  0  0  0  0  0  0  0  0  0  0
    5.8340   -4.1610   20.4620 C   0  0  0  0  0  0  0  0  0  0  0  0
    5.0540   -4.6530   19.6930 O   0  0  0  0  0  0  0  0  0  0  0  0
    5.9320   -4.6330   21.7580 N   0  0  0  0  0  0  0  0  0  0  0  0
    5.1480   -5.7620   22.2280 C   0  0  1  0  0  0  0  0  0  0  0  0
    6.1040   -6.6080   23.0660 C   0  0  0  0  0  0  0  0  0  0  0  0
    7.4420   -6.0240   22.7000 C   0  0  0  0  0  0  0  0  0  0  0  0
    6.9990   -4.5690   22.7560 C   0  0  2  0  0  0  0  0  0  0  0  0
    6.3770   -4.5390   24.1690 C   0  0  0  0  0  0  0  0  0  0  0  0
    4.8620   -4.4570   24.1950 C   0  0  2  0  0  0  0  0  0  0  0  0
    4.3460   -4.6940   25.5930 C   0  0  0  0  0  0  0  0  0  0  0  0
    3.2970   -3.7620   25.6510 C   0  0  0  0  0  0  0  0  0  0  0  0
    1.9630   -4.1220   25.5320 C   0  0  0  0  0  0  0  0  0  0  0  0
    1.1600   -3.0070   25.6130 C   0  0  0  0  0  0  0  0  0  0  0  0
    1.0860   -1.6750   25.7600 C   0  0  0  0  0  0  0  0  0  0  0  0
    2.3750   -1.1470   25.8900 C   0  0  0  0  0  0  0  0  0  0  0  0
    2.5870    0.2280   26.0500 C   0  0  0  0  0  0  0  0  0  0  0  0
    3.5540   -2.2070   25.8390 C   0  0  0  0  0  0  0  0  0  0  0  0
    4.1420   -5.2010   23.2150 C   0  0  0  0  0  0  0  0  0  0  0  0
  1  2  1  0
  2  3  1  0
  3  4  2  0
  3  5  1  0
  5  6  1  0
  6  7  1  1
  7  8  1  0
  5  9  1  0
  9  8  1  1
  9 10  1  0
 10 11  1  0
 11 12  1  1
 12 13  1  0
 13 14  2  0
 14 15  1  0
 15 16  2  0
 16 17  1  0
 17 18  1  0
 13 19  1  0
 17 19  2  0
  6 20  1  0
 11 20  1  0
M  END
