MAK-UNK-8fdbca50-17-vinylsulfonamide
     RDKit          3D

 41 44  0  0  0  0  0  0  0  0999 V2000
    7.6030   -3.8170   20.3100 C   0  0  0  0  0  0  0  0  0  0  0  0
    7.3900   -2.7830   19.2220 C   0  0  0  0  0  0  0  0  0  0  0  0
    5.6840   -2.4170   18.8890 S   0  0  0  0  0  0  0  0  0  0  0  0
    4.7290   -3.1940   19.7340 O   0  0  0  0  0  0  0  0  0  0  0  0
    5.6110   -2.4440   17.4540 O   0  0  0  0  0  0  0  0  0  0  0  0
    5.6630   -0.7590   19.1950 N   0  0  0  0  0  0  0  0  0  0  0  0
    6.7040   -0.1140   19.8200 C   0  0  0  0  0  0  0  0  0  0  0  0
    6.3860    1.2980   20.3460 C   0  0  0  0  0  0  0  0  0  0  0  0
    4.9470    1.6820   20.0190 C   0  0  0  0  0  0  0  0  0  0  0  0
    4.1230    0.9550   21.0780 C   0  0  0  0  0  0  0  0  0  0  0  0
    2.9020    1.1720   21.2400 O   0  0  0  0  0  0  0  0  0  0  0  0
    4.8620    0.0260   21.8390 N   0  0  0  0  0  0  0  0  0  0  0  0
    4.7460    0.2180   23.3100 C   0  0  0  0  0  0  0  0  0  0  0  0
    5.9900    0.9090   23.8720 C   0  0  0  0  0  0  0  0  0  0  0  0
    3.5250    0.7180   23.7680 C   0  0  0  0  0  0  0  0  0  0  0  0
    4.9040   -1.2470   21.3360 C   0  0  2  0  0  0  0  0  0  0  0  0
    5.0590   -2.4540   22.1100 C   0  0  0  0  0  0  0  0  0  0  0  0
    6.1840   -1.9730   21.4970 C   0  0  0  0  0  0  0  0  0  0  0  0
    6.9870   -1.7700   22.6630 C   0  0  0  0  0  0  0  0  0  0  0  0
    6.8880   -2.6790   23.7020 C   0  0  0  0  0  0  0  0  0  0  0  0
    7.7360   -2.1950   24.6100 C   0  0  0  0  0  0  0  0  0  0  0  0
    7.8860   -2.8430   25.7790 C   0  0  0  0  0  0  0  0  0  0  0  0
    8.0350   -4.2290   25.7980 C   0  0  0  0  0  0  0  0  0  0  0  0
    8.1880   -4.8860   27.0070 C   0  0  0  0  0  0  0  0  0  0  0  0
    8.1860   -4.1290   28.1560 C   0  0  0  0  0  0  0  0  0  0  0  0
    8.0430   -2.7380   28.1880 C   0  0  0  0  0  0  0  0  0  0  0  0
    7.8920   -2.0940   26.9640 C   0  0  0  0  0  0  0  0  0  0  0  0
    7.7490   -0.7430   26.9190 F   0  0  0  0  0  0  0  0  0  0  0  0
    8.3600   -1.0670   24.2320 N   0  0  0  0  0  0  0  0  0  0  0  0
    9.4720   -0.1780   25.0800 S   0  0  0  0  0  0  0  0  0  0  0  0
    9.0160    1.1950   25.0430 O   0  0  0  0  0  0  0  0  0  0  0  0
    9.7330   -0.8320   26.3330 O   0  0  0  0  0  0  0  0  0  0  0  0
   10.8420   -0.3080   24.0550 C   0  0  0  0  0  0  0  0  0  0  0  0
   11.1380   -1.4960   22.9230 C   0  0  0  0  0  0  0  0  0  0  0  0
   12.5580   -1.2200   22.2030 C   0  0  0  0  0  0  0  0  0  0  0  0
   13.0670   -0.1350   22.7140 C   0  0  0  0  0  0  0  0  0  0  0  0
   12.1150    0.0240   23.4670 N   0  0  0  0  0  0  0  0  0  0  0  0
   11.6900    0.7500   24.3120 C   0  0  0  0  0  0  0  0  0  0  0  0
    7.8980   -0.7720   22.9810 C   0  0  0  0  0  0  0  0  0  0  0  0
    4.5280    1.3510   18.5860 C   0  0  0  0  0  0  0  0  0  0  0  0
    5.1450    0.0470   18.1000 C   0  0  0  0  0  0  0  0  0  0  0  0
  1  2  1  0
  3  2  1  0
  3  4  2  0
  3  5  2  0
  3  6  1  0
  6  7  1  0
  7  8  1  0
  8  9  1  0
  9 10  1  0
 10 11  2  0
 10 12  1  0
 12 13  1  0
 13 14  1  0
 13 15  1  0
 12 16  1  0
 16 17  1  1
 16 18  1  0
 18 19  1  0
 19 20  1  0
 20 21  2  0
 21 22  1  0
 22 23  2  0
 23 24  1  0
 24 25  2  0
 25 26  1  0
 22 27  1  0
 26 27  2  0
 27 28  1  0
 21 29  1  0
 29 30  1  0
 30 31  2  0
 30 32  2  0
 30 33  1  0
 33 34  2  0
 34 35  1  0
 35 36  2  0
 36 37  1  0
 33 38  1  0
 37 38  2  0
 19 39  2  0
 29 39  1  0
  9 40  1  0
  6 41  1  0
 40 41  1  0
M  END
