MAK-UNK-f983951f-20-vinylsulfonamide
     RDKit          3D

 16 16  0  0  0  0  0  0  0  0999 V2000
    6.3100   -3.8600   20.0690 C   0  0  0  0  0  0  0  0  0  0  0  0
    6.1960   -4.4190   21.5010 C   0  0  0  0  0  0  0  0  0  0  0  0
    5.4990   -3.0990   22.4600 S   0  0  0  0  0  0  0  0  0  0  0  0
    4.1280   -3.0910   22.1380 O   0  0  0  0  0  0  0  0  0  0  0  0
    6.3690   -1.9840   22.2400 O   0  0  0  0  0  0  0  0  0  0  0  0
    5.5150   -3.3540   24.1210 N   0  0  0  0  0  0  0  0  0  0  0  0
    4.7060   -2.4240   24.9430 C   0  0  0  0  0  0  0  0  0  0  0  0
    4.8990   -1.0740   24.5820 C   0  0  0  0  0  0  0  0  0  0  0  0
    5.1470   -0.7910   23.2000 O   0  0  0  0  0  0  0  0  0  0  0  0
    4.8230   -0.1800   25.6010 O   0  0  0  0  0  0  0  0  0  0  0  0
    6.0950    0.1500   26.1610 C   0  0  0  0  0  0  0  0  0  0  0  0
    3.1830   -2.7020   24.7880 C   0  0  0  0  0  0  0  0  0  0  0  0
    2.7110   -3.6670   25.7180 C   0  0  0  0  0  0  0  0  0  0  0  0
    3.6920   -4.3390   26.4190 C   0  0  0  0  0  0  0  0  0  0  0  0
    4.6240   -3.5720   27.1070 C   0  0  0  0  0  0  0  0  0  0  0  0
    5.1880   -2.5200   26.4100 C   0  0  0  0  0  0  0  0  0  0  0  0
  1  2  1  0
  2  3  1  0
  3  4  2  0
  3  5  2  0
  3  6  1  0
  6  7  1  0
  7  8  1  0
  8  9  2  0
  8 10  1  0
 10 11  1  0
  7 12  1  0
 12 13  1  0
 13 14  1  0
 14 15  1  0
  7 16  1  0
 15 16  1  0
M  END
