MAK-UNK-10799360-32-vinylsulfonamide
     RDKit          3D

 34 38  0  0  0  0  0  0  0  0999 V2000
    7.0070   -3.0730   19.0420 C   0  0  0  0  0  0  0  0  0  0  0  0
    5.8160   -3.6070   19.8750 C   0  0  0  0  0  0  0  0  0  0  0  0
    6.1020   -3.9490   21.5900 S   0  0  0  0  0  0  0  0  0  0  0  0
    4.7620   -4.0840   22.1350 O   0  0  0  0  0  0  0  0  0  0  0  0
    7.0540   -5.0310   21.7350 O   0  0  0  0  0  0  0  0  0  0  0  0
    6.8190   -2.5790   22.2720 N   0  0  0  0  0  0  0  0  0  0  0  0
    6.9970   -1.3340   21.5490 C   0  0  0  0  0  0  0  0  0  0  0  0
    7.7640   -0.5270   22.6660 C   0  0  1  0  0  0  0  0  0  0  0  0
    6.2660   -0.6190   23.1590 C   0  0  0  0  0  0  0  0  0  0  0  0
    6.3310   -2.0960   23.5440 C   0  0  2  0  0  0  0  0  0  0  0  0
    7.4910   -1.9500   24.5260 C   0  0  0  0  0  0  0  0  0  0  0  0
    7.8170   -0.5540   24.1660 N   0  0  0  0  0  0  0  0  0  0  0  0
    8.9520    0.0360   24.9200 C   0  0  0  0  0  0  0  0  0  0  0  0
   10.3250    0.1110   24.2430 C   0  0  0  0  0  0  0  0  0  0  0  0
   10.9290    1.3730   24.0750 C   0  0  0  0  0  0  0  0  0  0  0  0
   12.1770    1.4700   23.4740 C   0  0  0  0  0  0  0  0  0  0  0  0
   12.7920    0.3150   23.0460 C   0  0  0  0  0  0  0  0  0  0  0  0
   12.2570   -0.9480   23.1720 C   0  0  0  0  0  0  0  0  0  0  0  0
   12.8820   -2.1260   22.7200 N   0  0  0  0  0  0  0  0  0  0  0  0
   12.6150   -2.6860   21.4790 C   0  0  0  0  0  0  0  0  0  0  0  0
   11.5400   -3.1280   21.1930 O   0  0  0  0  0  0  0  0  0  0  0  0
   13.6370   -2.6110   20.5580 C   0  0  0  0  0  0  0  0  0  0  0  0
   14.1190   -1.2680   20.1200 C   0  0  0  0  0  0  0  0  0  0  0  0
   15.1870   -1.1920   19.0970 N   0  0  0  0  0  0  0  0  0  0  0  0
   15.7000   -2.4820   18.7050 C   0  0  0  0  0  0  0  0  0  0  0  0
   16.9690   -2.6430   17.8110 C   0  0  0  0  0  0  0  0  0  0  0  0
   18.4530   -2.5320   18.1680 C   0  0  0  0  0  0  0  0  0  0  0  0
   19.2760   -2.3170   19.3320 C   0  0  0  0  0  0  0  0  0  0  0  0
   20.7450   -2.2640   19.4930 C   0  0  0  0  0  0  0  0  0  0  0  0
   21.5850   -2.4650   18.2990 C   0  0  0  0  0  0  0  0  0  0  0  0
   20.9290   -2.6690   17.1290 C   0  0  0  0  0  0  0  0  0  0  0  0
   19.3880   -2.6810   17.0690 C   0  0  0  0  0  0  0  0  0  0  0  0
   14.6910   -3.9000   19.6480 S   0  0  0  0  0  0  0  0  0  0  0  0
   10.9920   -1.0460   23.7900 C   0  0  0  0  0  0  0  0  0  0  0  0
  1  2  1  0
  3  2  1  0
  3  4  2  0
  3  5  2  0
  3  6  1  0
  6  7  1  0
  8  7  1  6
  8  9  1  0
  6 10  1  0
  9 10  1  0
 10 11  1  1
  8 12  1  0
 11 12  1  0
 12 13  1  0
 13 14  1  0
 14 15  2  0
 15 16  1  0
 16 17  2  0
 17 18  1  0
 18 19  1  0
 19 20  1  0
 20 21  2  0
 20 22  1  0
 22 23  2  0
 23 24  1  0
 24 25  2  0
 25 26  1  0
 26 27  1  0
 27 28  2  0
 28 29  1  0
 29 30  2  0
 30 31  1  0
 27 32  1  0
 31 32  2  0
 22 33  1  0
 25 33  1  0
 14 34  1  0
 18 34  2  0
M  END
