MAK-UNK-ec98eaf6-27-nitrile
     RDKit          3D

 27 31  0  0  0  0  0  0  0  0999 V2000
    6.6270   -4.1970   20.2020 C   0  0  0  0  0  0  0  0  0  0  0  0
    5.5070   -3.9500   19.6680 N   0  0  0  0  0  0  0  0  0  0  0  0
    7.0100   -3.5340   21.3050 N   0  0  0  0  0  0  0  0  0  0  0  0
    5.9620   -3.0440   22.2270 C   0  0  0  0  0  0  0  0  0  0  0  0
    6.1840   -1.5060   22.2270 C   0  0  2  0  0  0  0  0  0  0  0  0
    4.9190   -0.6220   22.5010 C   0  0  0  0  0  0  0  0  0  0  0  0
    4.1240    0.0680   21.3450 C   0  0  0  0  0  0  0  0  0  0  0  0
    2.8510    0.9270   21.6190 C   0  0  0  0  0  0  0  0  0  0  0  0
    2.2710    1.1750   23.0300 C   0  0  0  0  0  0  0  0  0  0  0  0
    3.1670    0.4530   23.8800 C   0  0  0  0  0  0  0  0  0  0  0  0
    4.4110   -0.4060   23.7690 C   0  0  0  0  0  0  0  0  0  0  0  0
    3.4130    0.5120   22.3530 C   0  0  0  0  0  0  0  0  0  0  0  0
    2.7440    1.7190   21.4740 C   0  0  0  0  0  0  0  0  0  0  0  0
    1.4400    2.4700   21.8810 C   0  0  1  0  0  0  0  0  0  0  0  0
    0.0300    2.2900   20.7580 S   0  0  0  0  0  0  0  0  0  0  0  0
   -1.2440    2.8120   21.7250 N   0  0  0  0  0  0  0  0  0  0  0  0
   -0.2950    0.9080   20.4390 O   0  0  0  0  0  0  0  0  0  0  0  0
    0.1320    3.3010   19.7280 O   0  0  0  0  0  0  0  0  0  0  0  0
    1.0780    1.9910   23.2020 C   0  0  0  0  0  0  0  0  0  0  0  0
    6.9310   -1.3860   20.8450 C   0  0  0  0  0  0  0  0  0  0  0  0
    7.9590   -2.4450   21.1940 C   0  0  1  0  0  0  0  0  0  0  0  0
    8.4180   -2.0170   22.5540 C   0  0  0  0  0  0  0  0  0  0  0  0
    9.8250   -2.2190   23.0820 C   0  0  0  0  0  0  0  0  0  0  0  0
   10.0780   -1.6860   24.4830 C   0  0  0  0  0  0  0  0  0  0  0  0
    8.9240   -1.0200   25.2000 C   0  0  0  0  0  0  0  0  0  0  0  0
    7.5590   -0.8700   24.5960 C   0  0  0  0  0  0  0  0  0  0  0  0
    7.3530   -1.4110   23.2140 C   0  0  0  0  0  0  0  0  0  0  0  0
  1  2  2  3
  1  3  1  0
  3  4  1  0
  4  5  1  0
  5  6  1  1
  6  7  2  0
  7  8  1  0
  8  9  2  0
  9 10  1  0
  6 11  1  0
 10 11  2  0
 10 12  1  0
 12 13  1  0
 13 14  1  0
 14 15  1  6
 15 16  1  0
 15 17  2  0
 15 18  2  0
  9 19  1  0
 14 19  1  0
  5 20  1  0
 21  3  1  1
 20 21  1  0
 21 22  1  0
 22 23  1  0
 23 24  2  0
 24 25  1  0
 25 26  2  0
  5 27  1  0
 22 27  2  0
 26 27  1  0
M  END
