MAK-UNK-5d2caa6f-14-chloroacetamide
     RDKit          3D

 26 30  0  0  0  0  0  0  0  0999 V2000
    8.3880   -3.7250   19.9130 C   0  0  0  0  0  0  0  0  0  0  0  0
    7.0790   -4.2500   20.5270 C   0  0  0  0  0  0  0  0  0  0  0  0
    6.0150   -4.3250   19.8910 O   0  0  0  0  0  0  0  0  0  0  0  0
    7.1230   -4.6560   21.8340 N   0  0  0  0  0  0  0  0  0  0  0  0
    6.0530   -4.1990   22.7330 C   0  0  0  0  0  0  0  0  0  0  0  0
    6.6990   -3.9730   23.9190 C   0  0  1  0  0  0  0  0  0  0  0  0
    7.6520   -4.9720   24.0400 C   0  0  0  0  0  0  0  0  0  0  0  0
    8.3300   -4.7210   22.7120 C   0  0  2  0  0  0  0  0  0  0  0  0
    8.6980   -3.2640   22.7820 C   0  0  0  0  0  0  0  0  0  0  0  0
    7.6060   -2.6920   23.6840 C   0  0  2  0  0  0  0  0  0  0  0  0
    8.1180   -2.0220   24.9470 C   0  0  0  0  0  0  0  0  0  0  0  0
    7.3040   -1.5240   25.7270 O   0  0  0  0  0  0  0  0  0  0  0  0
    9.4290   -2.0220   25.1330 N   0  0  0  0  0  0  0  0  0  0  0  0
   10.1310   -0.8750   24.4180 C   0  0  0  0  0  0  0  0  0  0  0  0
   11.8970   -0.7490   24.1080 C   0  0  0  0  0  0  0  0  0  0  0  0
   12.6500    0.4600   23.3570 C   0  0  0  0  0  0  0  0  0  0  0  0
   11.4850    0.1450   23.6870 C   0  0  0  0  0  0  0  0  0  0  0  0
   10.2910    0.6670   23.5730 C   0  0  0  0  0  0  0  0  0  0  0  0
    9.1700    0.1830   23.9840 C   0  0  0  0  0  0  0  0  0  0  0  0
    9.8060   -0.5520   24.2830 N   0  0  0  0  0  0  0  0  0  0  0  0
   10.7110   -1.5890   24.7030 C   0  0  0  0  0  0  0  0  0  0  0  0
   10.4520   -2.9070   25.4210 C   0  0  0  0  0  0  0  0  0  0  0  0
   11.6790   -3.7390   25.7050 C   0  0  0  0  0  0  0  0  0  0  0  0
   12.9620   -3.2980   25.3240 C   0  0  0  0  0  0  0  0  0  0  0  0
   13.1160   -1.9400   24.5820 C   0  0  0  0  0  0  0  0  0  0  0  0
   11.8660   -1.0790   24.2860 C   0  0  0  0  0  0  0  0  0  0  0  0
  1  2  1  0
  2  3  2  0
  2  4  1  0
  4  5  1  0
  6  5  1  6
  6  7  1  0
  4  8  1  0
  7  8  1  0
  8  9  1  1
  6 10  1  0
  9 10  1  0
 10 11  1  1
 11 12  2  0
 11 13  1  0
 13 14  1  0
 14 15  1  0
 15 16  2  0
 16 17  1  0
 17 18  2  0
 14 19  2  0
 18 19  1  0
 18 20  1  0
 20 21  1  0
 21 22  2  0
 22 23  1  0
 23 24  2  0
 24 25  1  0
 17 26  1  0
 21 26  1  0
 25 26  2  0
M  END
