MAK-UNK-f2409524-36
     RDKit          3D

 36 39  0  0  0  0  0  0  0  0999 V2000
   -0.0780    5.2490   17.6610 C   0  0  0  0  0  0  0  0  0  0  0  0
    0.2040    4.9010   16.2250 C   0  0  0  0  0  0  0  0  0  0  0  0
   -0.5970    5.1550   15.3220 O   0  0  0  0  0  0  0  0  0  0  0  0
    1.4140    4.2780   16.0400 N   0  0  0  0  0  0  0  0  0  0  0  0
    2.4040    4.8650   15.1720 C   0  0  0  0  0  0  0  0  0  0  0  0
    1.8210    5.8010   14.1060 C   0  0  0  0  0  0  0  0  0  0  0  0
    2.7680    6.4210   13.1990 N   0  0  0  0  0  0  0  0  0  0  0  0
    4.1250    6.1680   13.2980 C   0  0  0  0  0  0  0  0  0  0  0  0
    4.5570    5.3140   14.2890 C   0  0  0  0  0  0  0  0  0  0  0  0
    3.7970    4.6420   15.2390 C   0  0  0  0  0  0  0  0  0  0  0  0
    4.5370    3.8250   16.1380 C   0  0  0  0  0  0  0  0  0  0  0  0
    4.1340    3.2400   17.5190 C   0  0  0  0  0  0  0  0  0  0  0  0
    5.0210    2.1510   18.1510 C   0  0  0  0  0  0  0  0  0  0  0  0
    4.6500    1.6240   19.3250 C   0  0  0  0  0  0  0  0  0  0  0  0
    3.4870    1.9910   20.0140 C   0  0  0  0  0  0  0  0  0  0  0  0
    3.1920    1.3620   21.2270 C   0  0  0  0  0  0  0  0  0  0  0  0
    4.2750    1.3420   22.1080 C   0  0  0  0  0  0  0  0  0  0  0  0
    4.2160    2.2130   23.1660 N   0  0  0  0  0  0  0  0  0  0  0  0
    3.0380    2.2000   23.8300 C   0  0  0  0  0  0  0  0  0  0  0  0
    2.5700    1.1370   24.2080 O   0  0  0  0  0  0  0  0  0  0  0  0
    2.4010    3.3690   24.0770 N   0  0  0  0  0  0  0  0  0  0  0  0
    1.1800    3.3500   24.6820 C   0  0  0  0  0  0  0  0  0  0  0  0
    0.6980    4.5330   25.2260 C   0  0  0  0  0  0  0  0  0  0  0  0
   -0.6370    4.5250   25.6280 C   0  0  0  0  0  0  0  0  0  0  0  0
   -1.4670    4.0990   24.5940 C   0  0  0  0  0  0  0  0  0  0  0  0
   -1.1070    2.8680   24.0630 C   0  0  0  0  0  0  0  0  0  0  0  0
    0.1990    2.9200   23.5700 C   0  0  0  0  0  0  0  0  0  0  0  0
    2.6330    2.9910   19.4460 C   0  0  0  0  0  0  0  0  0  0  0  0
    1.4210    3.4030   20.0230 C   0  0  0  0  0  0  0  0  0  0  0  0
    0.5120    2.3930   20.3250 C   0  0  0  0  0  0  0  0  0  0  0  0
   -0.7400    2.6230   20.8810 C   0  0  0  0  0  0  0  0  0  0  0  0
   -1.1250    3.9270   21.1620 C   0  0  0  0  0  0  0  0  0  0  0  0
   -0.2450    4.9800   20.8820 C   0  0  0  0  0  0  0  0  0  0  0  0
    1.0160    4.7350   20.3180 C   0  0  0  0  0  0  0  0  0  0  0  0
    1.9910    6.1330   20.0220 Cl  0  0  0  0  0  0  0  0  0  0  0  0
    2.9800    3.6020   18.2210 C   0  0  0  0  0  0  0  0  0  0  0  0
  1  2  1  0
  2  3  2  0
  2  4  1  0
  4  5  1  0
  5  6  2  0
  6  7  1  0
  7  8  2  0
  8  9  1  0
  5 10  1  0
  9 10  2  0
 10 11  1  0
 11 12  1  0
 12 13  2  0
 13 14  1  0
 14 15  2  0
 15 16  1  0
 16 17  1  0
 17 18  1  0
 18 19  1  0
 19 20  2  0
 19 21  1  0
 21 22  1  0
 22 23  1  0
 23 24  1  0
 24 25  1  0
 25 26  1  0
 22 27  1  0
 26 27  1  0
 15 28  1  0
 28 29  1  0
 29 30  2  0
 30 31  1  0
 31 32  2  0
 32 33  1  0
 29 34  1  0
 33 34  2  0
 34 35  1  0
 12 36  1  0
 28 36  2  0
M  END
