MAK-UNK-5d2caa6f-18-acrylamide
     RDKit          3D

 29 33  0  0  0  0  0  0  0  0999 V2000
    7.2970   -2.9470   18.5160 C   0  0  0  0  0  0  0  0  0  0  0  0
    6.6690   -1.8840   19.3890 C   0  0  0  0  0  0  0  0  0  0  0  0
    5.9650   -2.4740   20.5780 C   0  0  0  0  0  0  0  0  0  0  0  0
    4.9430   -3.1420   20.4640 O   0  0  0  0  0  0  0  0  0  0  0  0
    6.6140   -2.2020   21.7380 N   0  0  0  0  0  0  0  0  0  0  0  0
    7.4610   -1.0320   21.8950 C   0  0  0  0  0  0  0  0  0  0  0  0
    8.0300   -1.0540   23.1860 C   0  0  1  0  0  0  0  0  0  0  0  0
    6.5140   -1.1310   23.5390 C   0  0  0  0  0  0  0  0  0  0  0  0
    6.1480   -2.5060   23.0690 C   0  0  2  0  0  0  0  0  0  0  0  0
    7.2220   -3.3390   23.6670 C   0  0  0  0  0  0  0  0  0  0  0  0
    8.0770   -2.2170   24.2690 C   0  0  1  0  0  0  0  0  0  0  0  0
    9.4900   -2.7150   24.5700 C   0  0  0  0  0  0  0  0  0  0  0  0
    9.7290   -3.9210   24.6810 O   0  0  0  0  0  0  0  0  0  0  0  0
   10.5190   -1.8580   24.7470 N   0  0  0  0  0  0  0  0  0  0  0  0
   11.3240   -1.1410   23.9090 C   0  0  0  0  0  0  0  0  0  0  0  0
   12.3870   -1.8090   23.0010 C   0  0  0  0  0  0  0  0  0  0  0  0
   13.2480   -0.8710   22.1200 C   0  0  0  0  0  0  0  0  0  0  0  0
   12.3940   -0.2510   22.8300 C   0  0  0  0  0  0  0  0  0  0  0  0
   11.8530    1.0240   23.1950 C   0  0  0  0  0  0  0  0  0  0  0  0
   12.1820    2.4770   22.7690 C   0  0  0  0  0  0  0  0  0  0  0  0
   13.5660    2.6360   22.8930 N   0  0  0  0  0  0  0  0  0  0  0  0
   13.9350    3.8700   22.5380 N   0  0  0  0  0  0  0  0  0  0  0  0
   12.8080    4.4530   22.1610 C   0  0  0  0  0  0  0  0  0  0  0  0
   12.8510    5.8710   21.7460 C   0  0  0  0  0  0  0  0  0  0  0  0
   12.5560    6.6280   22.8530 C   0  0  0  0  0  0  0  0  0  0  0  0
   11.8870    5.6850   23.7690 C   0  0  0  0  0  0  0  0  0  0  0  0
   10.8490    4.9130   22.9120 C   0  0  0  0  0  0  0  0  0  0  0  0
   11.5210    3.7360   22.2050 C   0  0  2  0  0  0  0  0  0  0  0  0
   11.0360    0.3220   24.0130 C   0  0  0  0  0  0  0  0  0  0  0  0
  1  2  1  0
  2  3  1  0
  3  4  2  0
  3  5  1  0
  5  6  1  0
  7  6  1  6
  7  8  1  0
  5  9  1  0
  8  9  1  0
  9 10  1  1
  7 11  1  0
 10 11  1  0
 11 12  1  6
 12 13  2  0
 12 14  1  0
 14 15  1  0
 15 16  2  0
 16 17  1  0
 17 18  2  0
 18 19  1  0
 19 20  1  0
 20 21  2  0
 21 22  1  0
 22 23  2  0
 23 24  1  0
 24 25  1  0
 25 26  1  0
 26 27  1  0
 20 28  1  0
 23 28  1  0
 28 27  1  1
 15 29  1  0
 19 29  2  0
M  END
