MAK-UNK-6ca90168-16-vinylsulfonamide
     RDKit          3D

 15 15  0  0  0  0  0  0  0  0999 V2000
    8.0520   -4.1400   20.1960 C   0  0  0  0  0  0  0  0  0  0  0  0
    7.5030   -5.0800   21.2660 C   0  0  0  0  0  0  0  0  0  0  0  0
    6.3380   -4.6400   22.5100 S   0  0  0  0  0  0  0  0  0  0  0  0
    5.0060   -4.3680   21.8710 O   0  0  0  0  0  0  0  0  0  0  0  0
    6.4500   -5.6180   23.5680 O   0  0  0  0  0  0  0  0  0  0  0  0
    7.0460   -3.1820   23.1030 N   0  0  0  0  0  0  0  0  0  0  0  0
    8.2550   -2.6470   22.4380 C   0  0  0  0  0  0  0  0  0  0  0  0
    7.7730   -1.7520   21.2910 C   0  0  0  0  0  0  0  0  0  0  0  0
    6.4010   -2.1270   20.9520 N   0  0  0  0  0  0  0  0  0  0  0  0
    6.0900   -2.7510   19.7290 C   0  0  0  0  0  0  0  0  0  0  0  0
    5.4830   -3.8440   19.6670 O   0  0  0  0  0  0  0  0  0  0  0  0
    6.5250   -2.0820   18.6070 C   0  0  0  0  0  0  0  0  0  0  0  0
    6.0160   -0.3750   18.5850 Cl  0  0  0  0  0  0  0  0  0  0  0  0
    5.4210   -1.9740   22.0450 C   0  0  0  0  0  0  0  0  0  0  0  0
    6.0440   -2.1610   23.2540 C   0  0  0  0  0  0  0  0  0  0  0  0
  1  2  1  0
  3  2  1  0
  3  4  2  0
  3  5  2  0
  3  6  1  0
  6  7  1  0
  7  8  1  0
  8  9  1  0
  9 10  1  0
 10 11  2  0
 10 12  1  0
 12 13  1  0
  9 14  1  0
  6 15  1  0
 14 15  1  0
M  END
