MAK-UNK-acefcb18-13
     RDKit          3D

 10 10  0  0  0  0  0  0  0  0999 V2000
    9.2520   -4.8320   26.5460 C   0  0  0  0  0  0  0  0  0  0  0  0
   10.2080   -4.7970   25.7670 O   0  0  0  0  0  0  0  0  0  0  0  0
   10.5320   -3.5110   25.2210 C   0  0  0  0  0  0  0  0  0  0  0  0
    9.3420   -2.8000   24.5720 C   0  0  0  0  0  0  0  0  0  0  0  0
    9.7160   -1.4220   24.2660 N   0  0  0  0  0  0  0  0  0  0  0  0
   10.9920   -1.0860   23.6450 C   0  0  0  0  0  0  0  0  0  0  0  0
   11.8240    0.0910   23.8600 C   0  0  0  0  0  0  0  0  0  0  0  0
   12.9360    0.0280   23.0910 C   0  0  0  0  0  0  0  0  0  0  0  0
   13.1340   -1.3640   22.0650 S   0  0  0  0  0  0  0  0  0  0  0  0
   11.6180   -2.0170   22.6300 C   0  0  0  0  0  0  0  0  0  0  0  0
  1  2  1  0
  2  3  1  0
  3  4  1  0
  4  5  1  0
  5  6  1  0
  6  7  1  0
  7  8  2  0
  8  9  1  0
  6 10  2  0
  9 10  1  0
M  END
