MAK-UNK-90d0606b-6-acrylamide
     RDKit          3D

 26 29  0  0  0  0  0  0  0  0999 V2000
    7.3820   -3.1210   19.4200 C   0  0  0  0  0  0  0  0  0  0  0  0
    6.0730   -2.4240   19.8050 C   0  0  0  0  0  0  0  0  0  0  0  0
    5.8390   -2.3760   21.3140 C   0  0  0  0  0  0  0  0  0  0  0  0
    4.9390   -3.1610   21.0230 O   0  0  0  0  0  0  0  0  0  0  0  0
    6.9190   -1.5060   21.2250 N   0  0  0  0  0  0  0  0  0  0  0  0
    6.8100   -0.0250   21.2870 C   0  0  0  0  0  0  0  0  0  0  0  0
    7.6100    0.2640   22.5160 C   0  0  1  0  0  0  0  0  0  0  0  0
    7.6020   -0.9410   23.1530 C   0  0  0  0  0  0  0  0  0  0  0  0
    8.0640   -1.7390   22.1370 C   0  0  2  0  0  0  0  0  0  0  0  0
    9.0790   -1.0410   21.5310 C   0  0  0  0  0  0  0  0  0  0  0  0
    9.1280    0.2340   22.1200 C   0  0  2  0  0  0  0  0  0  0  0  0
    9.9550    0.3160   23.2610 C   0  0  0  0  0  0  0  0  0  0  0  0
    9.7510   -0.7700   24.1000 N   0  0  0  0  0  0  0  0  0  0  0  0
   10.2120   -2.2070   23.9970 C   0  0  0  0  0  0  0  0  0  0  0  0
    9.0510   -3.2280   24.0980 C   0  0  0  0  0  0  0  0  0  0  0  0
    7.7530   -2.7670   24.7880 C   0  0  0  0  0  0  0  0  0  0  0  0
    6.4770   -3.6110   24.8960 C   0  0  0  0  0  0  0  0  0  0  0  0
    5.2300   -3.0840   25.6040 C   0  0  0  0  0  0  0  0  0  0  0  0
    5.2030   -1.6870   26.2370 C   0  0  0  0  0  0  0  0  0  0  0  0
    3.7550   -1.0640   27.0600 S   0  0  0  0  0  0  0  0  0  0  0  0
    4.4280   -0.2050   28.3630 N   0  0  0  0  0  0  0  0  0  0  0  0
    3.1250   -0.0680   26.2210 O   0  0  0  0  0  0  0  0  0  0  0  0
    3.0130   -2.1810   27.6010 O   0  0  0  0  0  0  0  0  0  0  0  0
    6.5010   -0.8480   26.1210 C   0  0  0  0  0  0  0  0  0  0  0  0
    7.7630   -1.3540   25.4160 C   0  0  0  0  0  0  0  0  0  0  0  0
    9.0050   -0.4780   25.3350 C   0  0  0  0  0  0  0  0  0  0  0  0
  1  2  1  0
  2  3  1  0
  3  4  2  0
  3  5  1  0
  5  6  1  0
  7  6  1  6
  7  8  1  0
  5  9  1  0
  8  9  1  0
  9 10  1  6
  7 11  1  0
 10 11  1  0
 11 12  1  1
 12 13  1  0
 13 14  1  0
 14 15  1  0
 15 16  1  0
 16 17  2  0
 17 18  1  0
 18 19  2  0
 19 20  1  0
 20 21  1  0
 20 22  2  0
 20 23  2  0
 19 24  1  0
 16 25  1  0
 24 25  2  0
 13 26  1  0
 25 26  1  0
M  END
