MAK-UNK-f983951f-9
     RDKit          3D

  9  9  0  0  0  0  0  0  0  0999 V2000
    6.7390   -2.0770   19.2980 C   0  0  0  0  0  0  0  0  0  0  0  0
    7.1330   -2.8290   20.5700 C   0  0  1  0  0  0  0  0  0  0  0  0
    7.0590   -1.6880   21.9340 Cl  0  0  0  0  0  0  0  0  0  0  0  0
    6.2320   -4.0440   20.7480 C   0  0  0  0  0  0  0  0  0  0  0  0
    5.3180   -4.2470   19.6640 O   0  0  0  0  0  0  0  0  0  0  0  0
    6.3570   -4.8330   21.8850 N   0  0  0  0  0  0  0  0  0  0  0  0
    7.0250   -4.5480   23.1360 C   0  0  0  0  0  0  0  0  0  0  0  0
    6.2220   -4.5640   24.0960 C   0  0  0  0  0  0  0  0  0  0  0  0
    6.7700   -3.2150   23.9680 C   0  0  0  0  0  0  0  0  0  0  0  0
  2  1  1  6
  2  3  1  0
  2  4  1  0
  4  5  2  0
  4  6  1  0
  6  7  1  0
  7  8  1  0
  7  9  1  0
  8  9  1  0
M  END
