MAK-UNK-212f693e-30
     RDKit          3D

 16 17  0  0  0  0  0  0  0  0999 V2000
    8.6740   -2.3160   21.5260 O   0  0  0  0  0  0  0  0  0  0  0  0
    7.5710   -2.7700   21.2660 C   0  0  0  0  0  0  0  0  0  0  0  0
    6.4780   -3.8080   21.0780 C   0  0  0  0  0  0  0  0  0  0  0  0
    5.4190   -3.5730   19.7710 S   0  0  0  0  0  0  0  0  0  0  0  0
    6.4850   -4.8160   22.0280 N   0  0  0  0  0  0  0  0  0  0  0  0
    5.5550   -5.9080   21.9560 C   0  0  0  0  0  0  0  0  0  0  0  0
    4.5590   -5.8230   23.1070 C   0  0  0  0  0  0  0  0  0  0  0  0
    5.0220   -4.7750   24.0890 C   0  0  0  0  0  0  0  0  0  0  0  0
    4.4270   -4.7920   25.1810 O   0  0  0  0  0  0  0  0  0  0  0  0
    3.4560   -3.8550   25.3690 C   0  0  0  0  0  0  0  0  0  0  0  0
    3.6690   -2.5070   25.6660 C   0  0  0  0  0  0  0  0  0  0  0  0
    2.5360   -1.6990   25.8240 C   0  0  0  0  0  0  0  0  0  0  0  0
    1.0620   -2.5530   25.6160 S   0  0  0  0  0  0  0  0  0  0  0  0
    1.9390   -3.9850   25.3160 C   0  0  0  0  0  0  0  0  0  0  0  0
    6.4080   -4.7300   24.3300 C   0  0  0  0  0  0  0  0  0  0  0  0
    7.2370   -4.7680   23.1910 C   0  0  0  0  0  0  0  0  0  0  0  0
  1  2  2  0
  2  3  1  0
  3  4  2  0
  3  5  1  0
  5  6  1  0
  6  7  1  0
  7  8  1  0
  8  9  1  0
  9 10  1  0
 10 11  1  0
 11 12  2  0
 12 13  1  0
 10 14  2  0
 13 14  1  0
  8 15  1  0
  5 16  1  0
 15 16  1  0
M  END
