MAK-UNK-f983951f-16-chloroacetamide
     RDKit          3D

  9  9  0  0  0  0  0  0  0  0999 V2000
    7.1760   -3.4330   19.8750 C   0  0  0  0  0  0  0  0  0  0  0  0
    6.1720   -4.3640   20.5160 C   0  0  0  0  0  0  0  0  0  0  0  0
    5.1720   -4.6540   19.9030 O   0  0  0  0  0  0  0  0  0  0  0  0
    6.3750   -4.9110   21.7690 N   0  0  0  0  0  0  0  0  0  0  0  0
    7.3740   -4.5260   22.7310 C   0  0  2  0  0  0  0  0  0  0  0  0
    6.8120   -4.7560   23.9910 C   0  0  0  0  0  0  0  0  0  0  0  0
    7.8910   -3.0670   22.6510 C   0  0  0  0  0  0  0  0  0  0  0  0
    8.7550   -2.7810   23.5360 C   0  0  0  0  0  0  0  0  0  0  0  0
    9.3960   -2.7030   22.2120 C   0  0  0  0  0  0  0  0  0  0  0  0
  1  2  1  0
  2  3  2  0
  2  4  1  0
  4  5  1  0
  5  6  1  1
  5  7  1  0
  7  8  1  0
  7  9  1  0
  8  9  1  0
M  END
