MAK-UNK-0d6072ac-29
     RDKit          3D

 19 21  0  0  0  0  0  0  0  0999 V2000
   13.7210    0.2750   22.5450 C   0  0  0  0  0  0  0  0  0  0  0  0
   12.3620    0.5930   22.7470 C   0  0  2  0  0  0  0  0  0  0  0  0
   11.8490    1.7420   23.5140 C   0  0  0  0  0  0  0  0  0  0  0  0
   10.9270    1.3040   24.4780 O   0  0  0  0  0  0  0  0  0  0  0  0
   12.2490    3.0010   23.2060 O   0  0  0  0  0  0  0  0  0  0  0  0
   11.7740   -0.5940   23.2700 C   0  0  0  0  0  0  0  0  0  0  0  0
   12.2240   -1.2030   24.5470 C   0  0  0  0  0  0  0  0  0  0  0  0
   11.5510   -2.2850   24.9720 C   0  0  0  0  0  0  0  0  0  0  0  0
   10.5110   -2.7890   24.2850 C   0  0  0  0  0  0  0  0  0  0  0  0
   10.0840   -2.3160   23.0830 C   0  0  0  0  0  0  0  0  0  0  0  0
   10.7520   -1.1530   22.5370 C   0  0  0  0  0  0  0  0  0  0  0  0
    9.0100   -3.1470   22.6670 N   0  0  0  0  0  0  0  0  0  0  0  0
    8.8190   -4.0930   23.7610 C   0  0  0  0  0  0  0  0  0  0  0  0
    7.8800   -5.1290   23.9260 N   0  0  0  0  0  0  0  0  0  0  0  0
    7.9640   -5.7480   25.1490 C   0  0  0  0  0  0  0  0  0  0  0  0
    8.9760   -5.2800   26.0430 C   0  0  0  0  0  0  0  0  0  0  0  0
    9.2300   -5.7790   27.6330 Cl  0  0  0  0  0  0  0  0  0  0  0  0
    9.8730   -4.3710   25.8390 N   0  0  0  0  0  0  0  0  0  0  0  0
    9.7550   -3.7920   24.7000 C   0  0  0  0  0  0  0  0  0  0  0  0
  2  1  1  1
  2  3  1  0
  3  4  2  0
  3  5  1  0
  2  6  1  0
  6  7  2  0
  7  8  1  0
  8  9  2  0
  9 10  1  0
  6 11  1  0
 10 11  2  0
 10 12  1  0
 12 13  1  0
 13 14  1  0
 14 15  2  0
 15 16  1  0
 16 17  1  0
 16 18  2  0
  9 19  1  0
 13 19  2  0
 18 19  1  0
M  END
