MAK-UNK-8fdbca50-23-nitrile
     RDKit          3D

 38 41  0  0  0  0  0  0  0  0999 V2000
    6.9170   -4.0010   20.3580 C   0  0  0  0  0  0  0  0  0  0  0  0
    5.7970   -4.4490   19.9220 N   0  0  0  0  0  0  0  0  0  0  0  0
    6.9940   -2.7620   20.8820 N   0  0  0  0  0  0  0  0  0  0  0  0
    6.2570   -1.6030   20.3640 C   0  0  0  0  0  0  0  0  0  0  0  0
    7.3880   -0.5380   20.3650 C   0  0  0  0  0  0  0  0  0  0  0  0
    7.2290   -0.0000   21.8070 C   0  0  0  0  0  0  0  0  0  0  0  0
    8.4760    0.9310   21.9390 C   0  0  0  0  0  0  0  0  0  0  0  0
    8.7650    1.6470   20.9780 O   0  0  0  0  0  0  0  0  0  0  0  0
    9.1790    0.9990   23.0940 N   0  0  0  0  0  0  0  0  0  0  0  0
   10.1910    0.1190   23.2790 C   0  0  0  0  0  0  0  0  0  0  0  0
   10.4040   -1.0560   22.3220 C   0  0  0  0  0  0  0  0  0  0  0  0
   11.5820   -1.9490   22.7550 C   0  0  0  0  0  0  0  0  0  0  0  0
   12.3700   -1.6040   24.0020 C   0  0  0  0  0  0  0  0  0  0  0  0
   13.6300   -2.6600   24.4840 S   0  0  0  0  0  0  0  0  0  0  0  0
   12.7720   -3.5650   25.1180 O   0  0  0  0  0  0  0  0  0  0  0  0
   14.5360   -2.2650   25.4780 O   0  0  0  0  0  0  0  0  0  0  0  0
   14.3620   -3.5630   23.1740 N   0  0  0  0  0  0  0  0  0  0  0  0
   13.6820   -3.6400   21.8680 C   0  0  0  0  0  0  0  0  0  0  0  0
   14.5400   -4.5600   20.9920 C   0  0  0  0  0  0  0  0  0  0  0  0
   14.2920   -4.8830   19.8280 C   0  0  0  0  0  0  0  0  0  0  0  0
   13.0840   -4.4020   19.4560 N   0  0  0  0  0  0  0  0  0  0  0  0
   11.9450   -4.8300   20.0850 C   0  0  0  0  0  0  0  0  0  0  0  0
   15.7220   -5.0090   21.7480 C   0  0  0  0  0  0  0  0  0  0  0  0
   15.7050   -4.4450   23.0700 C   0  0  0  0  0  0  0  0  0  0  0  0
   16.7890   -4.7000   24.0360 C   0  0  0  0  0  0  0  0  0  0  0  0
   18.0920   -4.0420   23.9640 C   0  0  0  0  0  0  0  0  0  0  0  0
   19.0790   -4.2260   24.8190 C   0  0  0  0  0  0  0  0  0  0  0  0
   18.8460   -5.0830   25.7750 C   0  0  0  0  0  0  0  0  0  0  0  0
   17.7110   -5.8080   25.9810 C   0  0  0  0  0  0  0  0  0  0  0  0
   16.6410   -5.5740   25.0620 C   0  0  0  0  0  0  0  0  0  0  0  0
   15.6380   -6.2200   25.3160 F   0  0  0  0  0  0  0  0  0  0  0  0
   12.0260   -0.4820   24.7170 C   0  0  0  0  0  0  0  0  0  0  0  0
   10.9910    0.3320   24.3670 N   0  0  0  0  0  0  0  0  0  0  0  0
    8.3260    1.1810   24.2860 C   0  0  0  0  0  0  0  0  0  0  0  0
    8.7490    0.3910   25.5570 C   0  0  0  0  0  0  0  0  0  0  0  0
    8.0740    2.6550   24.5830 C   0  0  0  0  0  0  0  0  0  0  0  0
    7.2380   -1.1720   22.8040 C   0  0  0  0  0  0  0  0  0  0  0  0
    7.6230   -2.5460   22.2020 C   0  0  0  0  0  0  0  0  0  0  0  0
  1  2  2  3
  1  3  1  0
  3  4  1  0
  4  5  1  0
  5  6  1  0
  6  7  1  0
  7  8  2  0
  7  9  1  0
  9 10  1  0
 10 11  2  0
 11 12  1  0
 12 13  2  0
 14 13  1  0
 14 15  2  0
 14 16  2  0
 14 17  1  0
 17 18  1  0
 18 19  2  0
 19 20  1  0
 20 21  1  0
 21 22  1  0
 19 23  1  0
 17 24  1  0
 23 24  2  0
 24 25  1  0
 25 26  2  0
 26 27  1  0
 27 28  2  0
 28 29  1  0
 25 30  1  0
 29 30  2  0
 30 31  1  0
 13 32  1  0
 10 33  1  0
 32 33  2  0
  9 34  1  0
 34 35  1  0
 34 36  1  0
  6 37  1  0
  3 38  1  0
 37 38  1  0
M  END
