MAK-UNK-a7992eb3-20
     RDKit          3D

 29 32  0  0  0  0  0  0  0  0999 V2000
    7.8090   -5.5130   23.5970 C   0  0  0  0  0  0  0  0  0  0  0  0
    6.8900   -4.3760   23.2760 C   0  0  2  0  0  0  0  0  0  0  0  0
    5.9290   -4.3100   24.4350 C   0  0  1  0  0  0  0  0  0  0  0  0
    5.9240   -2.9930   24.9860 O   0  0  0  0  0  0  0  0  0  0  0  0
    4.6470   -2.5410   25.0440 C   0  0  0  0  0  0  0  0  0  0  0  0
    4.4400   -1.1740   24.8630 C   0  0  1  0  0  0  0  0  0  0  0  0
    3.1300   -0.8190   24.6210 C   0  0  0  0  0  0  0  0  0  0  0  0
    2.8890    0.5060   24.2860 N   0  0  0  0  0  0  0  0  0  0  0  0
    3.0730    0.9420   22.8840 C   0  0  0  0  0  0  0  0  0  0  0  0
    1.7740    1.3490   22.1560 C   0  0  0  0  0  0  0  0  0  0  0  0
    0.4460    1.0740   22.9300 C   0  0  0  0  0  0  0  0  0  0  0  0
   -0.8770    1.4410   22.2680 C   0  0  0  0  0  0  0  0  0  0  0  0
   -0.9070    2.0710   20.8750 C   0  0  0  0  0  0  0  0  0  0  0  0
    0.4400    2.3120   20.1870 C   0  0  0  0  0  0  0  0  0  0  0  0
    1.7470    1.9240   20.8840 C   0  0  0  0  0  0  0  0  0  0  0  0
    3.6630    1.2540   25.1950 C   0  0  0  0  0  0  0  0  0  0  0  0
    4.9680    0.7590   25.3510 C   0  0  0  0  0  0  0  0  0  0  0  0
    4.9990   -0.4390   25.6830 O   0  0  0  0  0  0  0  0  0  0  0  0
    4.5310   -4.7150   23.9780 C   0  0  0  0  0  0  0  0  0  0  0  0
    4.6310   -5.9860   23.4140 C   0  0  0  0  0  0  0  0  0  0  0  0
    5.4740   -6.0120   22.3180 C   0  0  0  0  0  0  0  0  0  0  0  0
    6.1440   -4.6990   22.1850 N   0  0  0  0  0  0  0  0  0  0  0  0
    6.7030   -4.3230   21.0070 C   0  0  0  0  0  0  0  0  0  0  0  0
    7.2760   -3.0530   21.0720 C   0  0  0  0  0  0  0  0  0  0  0  0
    6.7510   -2.0170   20.2920 C   0  0  0  0  0  0  0  0  0  0  0  0
    7.3120   -0.7340   20.3560 C   0  0  0  0  0  0  0  0  0  0  0  0
    8.4000   -0.4930   21.2030 C   0  0  0  0  0  0  0  0  0  0  0  0
    8.9290   -1.5210   21.9750 C   0  0  0  0  0  0  0  0  0  0  0  0
    8.3730   -2.7950   21.9130 C   0  0  0  0  0  0  0  0  0  0  0  0
  2  1  1  1
  2  3  1  0
  3  4  1  6
  4  5  1  0
  6  5  1  1
  6  7  1  0
  7  8  1  0
  8  9  1  0
  9 10  1  0
 10 11  2  0
 11 12  1  0
 12 13  2  0
 13 14  1  0
 10 15  1  0
 14 15  2  0
  8 16  1  0
 16 17  1  0
  6 18  1  0
 17 18  1  0
  3 19  1  0
 19 20  1  0
 20 21  1  0
  2 22  1  0
 21 22  1  0
 22 23  1  0
 23 24  1  0
 24 25  2  0
 25 26  1  0
 26 27  2  0
 27 28  1  0
 24 29  1  0
 28 29  2  0
M  END
