MAK-UNK-8fdbca50-21-vinylsulfonamide
     RDKit          3D

 41 44  0  0  0  0  0  0  0  0999 V2000
    7.4920   -4.8610   21.2940 C   0  0  0  0  0  0  0  0  0  0  0  0
    6.3540   -5.6720   22.0350 C   0  0  0  0  0  0  0  0  0  0  0  0
    4.7790   -4.7360   22.4460 S   0  0  0  0  0  0  0  0  0  0  0  0
    3.6310   -5.6110   22.3560 O   0  0  0  0  0  0  0  0  0  0  0  0
    4.6840   -3.5790   21.5930 O   0  0  0  0  0  0  0  0  0  0  0  0
    4.7750   -4.1160   23.9970 N   0  0  0  0  0  0  0  0  0  0  0  0
    4.2800   -2.8040   24.3620 C   0  0  0  0  0  0  0  0  0  0  0  0
    5.5930   -2.1510   24.8650 C   0  0  0  0  0  0  0  0  0  0  0  0
    6.0170   -2.9790   26.1370 C   0  0  0  0  0  0  0  0  0  0  0  0
    7.5380   -2.7930   25.9700 C   0  0  0  0  0  0  0  0  0  0  0  0
    8.2470   -1.9990   26.8440 O   0  0  0  0  0  0  0  0  0  0  0  0
    8.1480   -3.5130   24.8340 N   0  0  0  0  0  0  0  0  0  0  0  0
    7.3360   -3.9080   23.6380 C   0  0  0  0  0  0  0  0  0  0  0  0
    6.7810   -5.2980   23.9940 C   0  0  0  0  0  0  0  0  0  0  0  0
    5.9180   -5.9700   22.9470 C   0  0  0  0  0  0  0  0  0  0  0  0
    5.6010   -5.4410   21.7390 N   0  0  0  0  0  0  0  0  0  0  0  0
    6.1810   -4.0520   21.4380 C   0  0  0  0  0  0  0  0  0  0  0  0
    7.0220   -3.3220   22.3550 C   0  0  0  0  0  0  0  0  0  0  0  0
    7.5870   -1.7670   21.7040 S   0  0  0  0  0  0  0  0  0  0  0  0
    6.5270   -0.7860   21.6230 O   0  0  0  0  0  0  0  0  0  0  0  0
    8.9020   -1.4650   22.2510 O   0  0  0  0  0  0  0  0  0  0  0  0
    7.8420   -2.3720   20.1050 N   0  0  0  0  0  0  0  0  0  0  0  0
    8.7640   -3.2700   19.9090 C   0  0  0  0  0  0  0  0  0  0  0  0
    8.9830   -3.8860   18.4290 C   0  0  0  0  0  0  0  0  0  0  0  0
   10.0530   -5.1330   17.8850 C   0  0  0  0  0  0  0  0  0  0  0  0
   11.4680   -5.5180   17.1020 N   0  0  0  0  0  0  0  0  0  0  0  0
   12.0630   -6.4530   15.7400 C   0  0  0  0  0  0  0  0  0  0  0  0
    7.9250   -3.0150   17.8880 C   0  0  0  0  0  0  0  0  0  0  0  0
    7.2740   -2.1670   18.8520 C   0  0  0  0  0  0  0  0  0  0  0  0
    6.2460   -1.2420   18.8690 C   0  0  0  0  0  0  0  0  0  0  0  0
    5.0780   -1.6700   19.3800 C   0  0  0  0  0  0  0  0  0  0  0  0
    5.0220   -0.3710   18.9900 C   0  0  0  0  0  0  0  0  0  0  0  0
    4.2980    0.8720   18.8380 C   0  0  0  0  0  0  0  0  0  0  0  0
    5.4060    1.4210   18.2940 C   0  0  0  0  0  0  0  0  0  0  0  0
    6.3480    0.1150   18.4080 C   0  0  0  0  0  0  0  0  0  0  0  0
    7.5430    0.4040   17.9470 F   0  0  0  0  0  0  0  0  0  0  0  0
    9.0480   -4.6070   25.2510 C   0  0  0  0  0  0  0  0  0  0  0  0
    9.2040   -5.6510   24.1480 C   0  0  0  0  0  0  0  0  0  0  0  0
    8.7670   -5.2960   26.5970 C   0  0  0  0  0  0  0  0  0  0  0  0
    5.6180   -4.4780   26.2720 C   0  0  0  0  0  0  0  0  0  0  0  0
    4.7900   -5.0520   25.0970 C   0  0  0  0  0  0  0  0  0  0  0  0
  1  2  1  0
  3  2  1  0
  3  4  2  0
  3  5  2  0
  3  6  1  0
  6  7  1  0
  7  8  1  0
  8  9  1  0
  9 10  1  0
 10 11  2  0
 10 12  1  0
 12 13  1  0
 13 14  2  0
 14 15  1  0
 15 16  2  0
 16 17  1  0
 13 18  1  0
 17 18  2  0
 19 18  1  0
 19 20  2  0
 19 21  2  0
 19 22  1  0
 22 23  1  0
 23 24  2  0
 24 25  1  0
 25 26  1  0
 26 27  1  0
 24 28  1  0
 22 29  1  0
 28 29  2  0
 29 30  1  0
 30 31  2  0
 31 32  1  0
 32 33  2  0
 33 34  1  0
 30 35  1  0
 34 35  2  0
 35 36  1  0
 12 37  1  0
 37 38  1  0
 37 39  1  0
  9 40  1  0
  6 41  1  0
 40 41  1  0
M  END
