MAK-UNK-3e0761f8-2-vinylsulfonamide
     RDKit          3D

 22 25  0  0  0  0  0  0  0  0999 V2000
    8.1440   -4.9780   20.7710 C   0  0  0  0  0  0  0  0  0  0  0  0
    6.9840   -4.1670   20.4440 C   0  0  0  0  0  0  0  0  0  0  0  0
    6.4680   -3.6500   22.0240 S   0  0  0  0  0  0  0  0  0  0  0  0
    4.9240   -3.5270   21.7480 O   0  0  0  0  0  0  0  0  0  0  0  0
    6.8730   -4.7080   22.9290 O   0  0  0  0  0  0  0  0  0  0  0  0
    7.7030   -2.3100   22.3120 N   0  0  0  0  0  0  0  0  0  0  0  0
    9.1100   -2.7180   22.4940 C   0  0  2  0  0  0  0  0  0  0  0  0
    8.9040   -3.2090   23.9300 C   0  0  0  0  0  0  0  0  0  0  0  0
    8.5390   -1.7870   24.2600 C   0  0  1  0  0  0  0  0  0  0  0  0
    9.8760   -1.2810   23.6900 C   0  0  0  0  0  0  0  0  0  0  0  0
   10.2340   -0.2460   24.7350 C   0  0  0  0  0  0  0  0  0  0  0  0
   11.5410    0.4950   24.4760 C   0  0  0  0  0  0  0  0  0  0  0  0
   12.1840    0.0280   23.2670 C   0  0  0  0  0  0  0  0  0  0  0  0
   11.6150   -1.0380   22.3990 C   0  0  0  0  0  0  0  0  0  0  0  0
   10.4400   -1.8270   22.4430 C   0  0  0  0  0  0  0  0  0  0  0  0
    7.3410   -1.2840   23.3110 C   0  0  2  0  0  0  0  0  0  0  0  0
    6.5100   -1.8050   22.4630 C   0  0  0  0  0  0  0  0  0  0  0  0
    7.4510   -1.1750   21.7850 N   0  0  0  0  0  0  0  0  0  0  0  0
    7.4420   -1.1660   20.4570 N   0  0  0  0  0  0  0  0  0  0  0  0
    6.4640   -1.8670   19.8800 C   0  0  0  0  0  0  0  0  0  0  0  0
    5.3780   -2.6450   19.5200 C   0  0  0  0  0  0  0  0  0  0  0  0
    5.9620   -2.1600   21.2000 O   0  0  0  0  0  0  0  0  0  0  0  0
  1  2  1  0
  3  2  1  0
  3  4  2  0
  3  5  2  0
  3  6  1  0
  7  6  1  1
  7  8  1  0
  8  9  1  0
  9 10  1  6
 10 11  1  0
 11 12  2  0
 12 13  1  0
 13 14  2  0
  7 15  1  0
 10 15  2  0
 14 15  1  0
  6 16  1  0
  9 16  1  0
 16 17  1  1
 17 18  2  0
 18 19  1  0
 19 20  2  0
 20 21  1  0
 17 22  1  0
 20 22  1  0
M  END
