MAK-UNK-702fb7d3-7-acrylamide
     RDKit          3D

 43 48  0  0  0  0  0  0  0  0999 V2000
    7.2360   -4.5340   20.3810 C   0  0  0  0  0  0  0  0  0  0  0  0
    7.5450   -3.8260   21.6600 C   0  0  0  0  0  0  0  0  0  0  0  0
    6.2440   -3.5500   22.3740 C   0  0  0  0  0  0  0  0  0  0  0  0
    5.0090   -3.6600   21.7420 O   0  0  0  0  0  0  0  0  0  0  0  0
    6.5570   -3.2940   23.7320 N   0  0  0  0  0  0  0  0  0  0  0  0
    7.1300   -2.1800   24.1450 C   0  0  0  0  0  0  0  0  0  0  0  0
    8.4890   -2.3150   24.4620 C   0  0  0  0  0  0  0  0  0  0  0  0
    9.5330   -1.5690   24.8550 C   0  0  0  0  0  0  0  0  0  0  0  0
   10.7450   -2.4510   24.9750 C   0  0  0  0  0  0  0  0  0  0  0  0
   12.0500   -3.1900   25.1420 C   0  0  0  0  0  0  0  0  0  0  0  0
   10.7890   -4.1250   24.6830 C   0  0  0  0  0  0  0  0  0  0  0  0
    9.5910   -3.1820   24.5680 C   0  0  0  0  0  0  0  0  0  0  0  0
    8.8000   -4.4470   24.1350 C   0  0  1  0  0  0  0  0  0  0  0  0
    9.2020   -5.6230   24.6180 C   0  0  0  0  0  0  0  0  0  0  0  0
    9.4990   -4.3120   25.3350 C   0  0  0  0  0  0  0  0  0  0  0  0
   10.1570   -3.9420   26.5280 C   0  0  0  0  0  0  0  0  0  0  0  0
   10.6860   -5.1370   27.2490 C   0  0  0  0  0  0  0  0  0  0  0  0
   10.4360   -6.4630   26.6250 C   0  0  0  0  0  0  0  0  0  0  0  0
    9.7580   -6.5450   25.4190 C   0  0  0  0  0  0  0  0  0  0  0  0
    7.2710   -4.4340   24.3040 C   0  0  1  0  0  0  0  0  0  0  0  0
    6.7570   -4.6190   25.6790 N   0  0  0  0  0  0  0  0  0  0  0  0
    5.9670   -3.5410   26.2760 C   0  0  0  0  0  0  0  0  0  0  0  0
    6.8250   -2.4990   26.2250 C   0  0  0  0  0  0  0  0  0  0  0  0
    6.6510   -1.1770   26.9040 C   0  0  0  0  0  0  0  0  0  0  0  0
    7.8210   -0.3060   26.5900 C   0  0  0  0  0  0  0  0  0  0  0  0
    7.9430    0.9510   27.0920 C   0  0  0  0  0  0  0  0  0  0  0  0
    8.7000    1.2000   28.3030 C   0  0  0  0  0  0  0  0  0  0  0  0
    8.8380    2.4510   28.7750 C   0  0  0  0  0  0  0  0  0  0  0  0
    8.2400    3.5380   28.1330 C   0  0  0  0  0  0  0  0  0  0  0  0
    7.4690    3.3400   26.9580 C   0  0  0  0  0  0  0  0  0  0  0  0
    7.3440    2.0490   26.4610 C   0  0  0  0  0  0  0  0  0  0  0  0
    6.6230    1.8770   25.3440 F   0  0  0  0  0  0  0  0  0  0  0  0
    8.6370   -1.1510   25.7630 N   0  0  0  0  0  0  0  0  0  0  0  0
   10.1260   -0.9880   24.9710 S   0  0  0  0  0  0  0  0  0  0  0  0
   11.1270   -0.7650   25.9690 O   0  0  0  0  0  0  0  0  0  0  0  0
   10.2170   -2.1790   24.1650 O   0  0  0  0  0  0  0  0  0  0  0  0
   10.3190    0.3690   23.8650 C   0  0  0  0  0  0  0  0  0  0  0  0
   11.5670    0.5150   23.2340 C   0  0  0  0  0  0  0  0  0  0  0  0
   11.7720    1.5750   22.3590 C   0  0  0  0  0  0  0  0  0  0  0  0
   10.7080    2.4640   22.1680 C   0  0  0  0  0  0  0  0  0  0  0  0
    9.4800    2.3570   22.7560 N   0  0  0  0  0  0  0  0  0  0  0  0
    9.3080    1.3020   23.6110 C   0  0  0  0  0  0  0  0  0  0  0  0
    8.0370   -2.3880   25.5750 C   0  0  0  0  0  0  0  0  0  0  0  0
  1  2  1  0
  2  3  1  0
  3  4  2  0
  3  5  1  0
  5  6  1  0
  6  7  1  0
  7  8  1  0
  8  9  2  0
  9 10  1  0
 10 11  2  0
  7 12  2  0
 11 12  1  0
 12 13  1  0
 13 14  1  1
 14 15  2  0
 15 16  1  0
 16 17  2  0
 17 18  1  0
 14 19  1  0
 18 19  2  0
  5 20  1  0
 13 20  1  0
 20 21  1  1
 21 22  1  0
 22 23  1  0
 23 24  1  0
 24 25  2  0
 25 26  1  0
 26 27  2  0
 27 28  1  0
 28 29  2  0
 29 30  1  0
 26 31  1  0
 30 31  2  0
 31 32  1  0
 25 33  1  0
 33 34  1  0
 34 35  2  0
 34 36  2  0
 34 37  1  0
 37 38  2  0
 38 39  1  0
 39 40  2  0
 40 41  1  0
 37 42  1  0
 41 42  2  0
 23 43  2  0
 33 43  1  0
M  END
