MAK-UNK-148caf23-11-vinylsulfonamide
     RDKit          3D

 37 40  0  0  0  0  0  0  0  0999 V2000
    7.4610   -5.9220   20.3250 C   0  0  0  0  0  0  0  0  0  0  0  0
    7.7380   -4.8190   21.3450 C   0  0  0  0  0  0  0  0  0  0  0  0
    6.8820   -3.3230   20.9490 S   0  0  0  0  0  0  0  0  0  0  0  0
    5.2260   -3.6010   21.1110 O   0  0  0  0  0  0  0  0  0  0  0  0
    7.2570   -2.9500   19.6180 O   0  0  0  0  0  0  0  0  0  0  0  0
    7.8800   -1.9770   21.9460 C   0  0  0  0  0  0  0  0  0  0  0  0
    8.2210   -0.5390   21.4180 C   0  0  0  0  0  0  0  0  0  0  0  0
    8.8150   -0.4120   22.8470 C   0  0  0  0  0  0  0  0  0  0  0  0
    9.2490   -0.6740   24.1900 C   0  0  0  0  0  0  0  0  0  0  0  0
    9.7780   -0.0820   25.2670 N   0  0  0  0  0  0  0  0  0  0  0  0
    9.0770   -0.3430   26.4640 C   0  0  0  0  0  0  0  0  0  0  0  0
    8.4630    0.5910   27.3830 C   0  0  0  0  0  0  0  0  0  0  0  0
    9.3170    0.9500   28.5110 C   0  0  0  0  0  0  0  0  0  0  0  0
   10.6220    0.2740   28.3810 C   0  0  0  0  0  0  0  0  0  0  0  0
   10.4870   -0.3060   27.0870 N   0  0  0  0  0  0  0  0  0  0  0  0
   11.6370   -0.2940   26.2650 C   0  0  0  0  0  0  0  0  0  0  0  0
    8.7740    1.7360   29.3440 C   0  0  0  0  0  0  0  0  0  0  0  0
    7.4400    1.9300   28.6940 N   0  0  0  0  0  0  0  0  0  0  0  0
    6.4980    2.9610   29.5940 S   0  0  0  0  0  0  0  0  0  0  0  0
    7.3500    3.8720   30.3580 O   0  0  0  0  0  0  0  0  0  0  0  0
    5.3520    3.4780   28.7830 O   0  0  0  0  0  0  0  0  0  0  0  0
    5.8320    1.7450   30.6800 C   0  0  0  0  0  0  0  0  0  0  0  0
    6.2400    0.9060   31.5490 C   0  0  0  0  0  0  0  0  0  0  0  0
    6.6500    0.0670   32.4180 C   0  0  0  0  0  0  0  0  0  0  0  0
    5.3410   -0.4110   32.6190 C   0  0  0  0  0  0  0  0  0  0  0  0
    4.3120    0.2490   31.8330 N   0  0  0  0  0  0  0  0  0  0  0  0
    4.5280    1.3110   30.8860 C   0  0  0  0  0  0  0  0  0  0  0  0
    7.0330    1.3120   27.4400 C   0  0  0  0  0  0  0  0  0  0  0  0
    6.8000    0.6450   26.2470 C   0  0  0  0  0  0  0  0  0  0  0  0
    6.8440    1.2990   24.9900 C   0  0  0  0  0  0  0  0  0  0  0  0
    6.6370    0.7030   23.7710 C   0  0  0  0  0  0  0  0  0  0  0  0
    6.3340   -0.6650   23.7500 C   0  0  0  0  0  0  0  0  0  0  0  0
    6.2610   -1.3830   25.0020 C   0  0  0  0  0  0  0  0  0  0  0  0
    6.4920   -0.7470   26.2400 C   0  0  0  0  0  0  0  0  0  0  0  0
    6.3700   -1.4860   27.3790 F   0  0  0  0  0  0  0  0  0  0  0  0
    8.9680   -1.9560   24.3810 N   0  0  0  0  0  0  0  0  0  0  0  0
    8.4400   -1.9490   23.1860 C   0  0  0  0  0  0  0  0  0  0  0  0
  1  2  1  0
  3  2  1  0
  3  4  2  0
  3  5  2  0
  3  6  1  0
  6  7  2  0
  7  8  1  0
  8  9  2  0
  9 10  1  0
 10 11  1  0
 11 12  1  0
 12 13  1  0
 13 14  1  0
 14 15  1  0
 15 16  1  0
 13 17  2  0
 17 18  1  0
 18 19  1  0
 19 20  2  0
 19 21  2  0
 19 22  1  0
 22 23  2  0
 23 24  1  0
 24 25  2  0
 25 26  1  0
 22 27  1  0
 26 27  2  0
 12 28  2  0
 18 28  1  0
 28 29  1  0
 29 30  2  0
 30 31  1  0
 31 32  2  0
 32 33  1  0
 29 34  1  0
 33 34  2  0
 34 35  1  0
  9 36  1  0
  6 37  1  0
 36 37  2  0
M  END
