MAK-UNK-af83ef51-28-vinylsulfonamide
     RDKit          3D

 32 35  0  0  0  0  0  0  0  0999 V2000
    8.1870   -3.2070   18.9190 C   0  0  0  0  0  0  0  0  0  0  0  0
    7.6480   -3.3930   20.2590 C   0  0  0  0  0  0  0  0  0  0  0  0
    6.0160   -2.9030   20.0660 S   0  0  0  0  0  0  0  0  0  0  0  0
    5.3280   -4.0760   20.4590 O   0  0  0  0  0  0  0  0  0  0  0  0
    5.8480   -2.1580   18.8040 O   0  0  0  0  0  0  0  0  0  0  0  0
    6.0840   -1.7990   21.3090 N   0  0  0  0  0  0  0  0  0  0  0  0
    6.0740   -2.3720   22.6830 C   0  0  0  0  0  0  0  0  0  0  0  0
    7.3490   -2.5510   23.2000 C   0  0  0  0  0  0  0  0  0  0  0  0
    8.0050   -1.2320   23.1460 N   0  0  0  0  0  0  0  0  0  0  0  0
    9.0670   -0.9140   24.1510 C   0  0  0  0  0  0  0  0  0  0  0  0
   10.2970   -0.4990   23.5730 C   0  0  0  0  0  0  0  0  0  0  0  0
   11.1460   -1.3540   23.0010 C   0  0  0  0  0  0  0  0  0  0  0  0
   12.1430   -2.1630   22.3530 C   0  0  0  0  0  0  0  0  0  0  0  0
   11.5580   -3.2720   22.7240 O   0  0  0  0  0  0  0  0  0  0  0  0
   11.7040   -2.2120   23.4320 C   0  0  0  0  0  0  0  0  0  0  0  0
   10.6340   -2.7110   24.2600 C   0  0  0  0  0  0  0  0  0  0  0  0
   10.3190   -2.0590   25.1230 C   0  0  0  0  0  0  0  0  0  0  0  0
   10.3840   -0.9250   25.9640 C   0  0  0  0  0  0  0  0  0  0  0  0
    9.6610   -0.5890   27.0490 N   0  0  0  0  0  0  0  0  0  0  0  0
    8.2790   -0.9200   27.0760 C   0  0  0  0  0  0  0  0  0  0  0  0
    7.6290    0.1530   27.6120 C   0  0  0  0  0  0  0  0  0  0  0  0
   11.3260   -0.2160   25.4920 N   0  0  0  0  0  0  0  0  0  0  0  0
   11.8850   -0.8850   24.3180 C   0  0  0  0  0  0  0  0  0  0  0  0
   13.3510   -1.7750   21.6520 N   0  0  0  0  0  0  0  0  0  0  0  0
   13.8260   -0.5690   21.5310 N   0  0  0  0  0  0  0  0  0  0  0  0
   13.1180    0.3050   22.1810 C   0  0  0  0  0  0  0  0  0  0  0  0
   12.1990   -0.4000   22.5740 C   0  0  0  0  0  0  0  0  0  0  0  0
   11.9420    1.0150   23.0070 C   0  0  0  0  0  0  0  0  0  0  0  0
   10.7550    0.7420   23.5870 N   0  0  0  0  0  0  0  0  0  0  0  0
    9.9100    1.7430   24.2180 C   0  0  0  0  0  0  0  0  0  0  0  0
    8.4140   -0.9050   21.8150 C   0  0  0  0  0  0  0  0  0  0  0  0
    7.1340   -0.8160   20.9790 C   0  0  0  0  0  0  0  0  0  0  0  0
  1  2  1  0
  3  2  1  0
  3  4  2  0
  3  5  2  0
  3  6  1  0
  6  7  1  0
  7  8  1  0
  8  9  1  0
  9 10  1  0
 10 11  1  0
 11 12  2  0
 12 13  1  0
 13 14  1  0
 14 15  1  0
 15 16  2  0
 16 17  1  0
 17 18  2  0
 18 19  1  0
 19 20  1  0
 20 21  1  0
 18 22  1  0
 15 23  1  0
 22 23  2  0
 13 24  2  0
 24 25  1  0
 25 26  2  0
 12 27  1  0
 26 27  1  0
 27 28  2  0
 11 29  1  0
 28 29  1  0
 29 30  1  0
  9 31  1  0
  6 32  1  0
 31 32  1  0
M  END
