MAK-UNK-ec98eaf6-20-nitrile
     RDKit          3D

 20 22  0  0  0  0  0  0  0  0999 V2000
    7.1550   -4.1630   20.3350 C   0  0  0  0  0  0  0  0  0  0  0  0
    6.0090   -4.7020   20.0350 N   0  0  0  0  0  0  0  0  0  0  0  0
    7.4760   -3.7440   21.6090 N   0  0  0  0  0  0  0  0  0  0  0  0
    6.3580   -3.7030   22.6020 C   0  0  0  0  0  0  0  0  0  0  0  0
    6.5090   -2.2350   22.9300 C   0  0  1  0  0  0  0  0  0  0  0  0
    7.9730   -2.1690   23.3200 C   0  0  0  0  0  0  0  0  0  0  0  0
    8.4730   -2.5970   21.9570 C   0  0  2  0  0  0  0  0  0  0  0  0
    8.0220   -1.3920   21.2000 C   0  0  0  0  0  0  0  0  0  0  0  0
    6.5860   -1.3980   21.6350 N   0  0  0  0  0  0  0  0  0  0  0  0
    5.7800   -1.8550   20.4860 C   0  0  0  0  0  0  0  0  0  0  0  0
    6.3010   -1.2580   19.1660 C   0  0  0  0  0  0  0  0  0  0  0  0
    5.3980   -0.0830   18.9590 N   0  0  0  0  0  0  0  0  0  0  0  0
    5.5580    1.1070   19.6370 C   0  0  0  0  0  0  0  0  0  0  0  0
    6.6300    1.5180   20.0600 O   0  0  0  0  0  0  0  0  0  0  0  0
    4.2500    1.9220   19.8480 C   0  0  0  0  0  0  0  0  0  0  0  0
    3.7720    2.7310   18.6700 C   0  0  0  0  0  0  0  0  0  0  0  0
    2.5270    3.5310   18.7920 C   0  0  0  0  0  0  0  0  0  0  0  0
    1.8110    3.4820   20.1040 C   0  0  0  0  0  0  0  0  0  0  0  0
    2.2490    2.7310   21.2250 N   0  0  0  0  0  0  0  0  0  0  0  0
    3.5000    1.9590   21.0240 C   0  0  0  0  0  0  0  0  0  0  0  0
  1  2  2  3
  1  3  1  0
  3  4  1  0
  5  4  1  6
  5  6  1  0
  3  7  1  0
  6  7  1  0
  7  8  1  6
  5  9  1  0
  8  9  1  0
  9 10  1  0
 10 11  1  0
 11 12  1  0
 12 13  1  0
 13 14  2  0
 13 15  1  0
 15 16  2  0
 16 17  1  0
 17 18  2  0
 18 19  1  0
 15 20  1  0
 19 20  2  0
M  END
