MAK-UNK-ec98eaf6-33-nitrile
     RDKit          3D

 26 29  0  0  0  0  0  0  0  0999 V2000
    6.2880   -4.2310   19.9820 C   0  0  0  0  0  0  0  0  0  0  0  0
    5.6890   -5.3660   20.0160 N   0  0  0  0  0  0  0  0  0  0  0  0
    5.8820   -3.2210   20.8170 N   0  0  0  0  0  0  0  0  0  0  0  0
    6.2570   -1.7980   20.7600 C   0  0  0  0  0  0  0  0  0  0  0  0
    6.6870   -1.6670   22.2380 C   0  0  1  0  0  0  0  0  0  0  0  0
    5.3810   -2.0840   22.8650 C   0  0  0  0  0  0  0  0  0  0  0  0
    5.4680   -3.4720   22.2270 C   0  0  2  0  0  0  0  0  0  0  0  0
    6.6790   -4.0350   23.0040 C   0  0  0  0  0  0  0  0  0  0  0  0
    7.5880   -2.8530   22.6810 C   0  0  2  0  0  0  0  0  0  0  0  0
    8.2860   -2.6630   24.0210 C   0  0  0  0  0  0  0  0  0  0  0  0
    9.2740   -1.5280   23.9460 C   0  0  0  0  0  0  0  0  0  0  0  0
    8.8630   -0.2360   24.5580 C   0  0  0  0  0  0  0  0  0  0  0  0
    9.7440    0.8400   24.5090 C   0  0  0  0  0  0  0  0  0  0  0  0
    9.3500    1.9850   25.0330 F   0  0  0  0  0  0  0  0  0  0  0  0
   11.0030    0.7230   23.9160 C   0  0  0  0  0  0  0  0  0  0  0  0
   11.3500   -0.4900   23.3420 C   0  0  0  0  0  0  0  0  0  0  0  0
   12.4970   -0.8600   22.6900 C   0  0  0  0  0  0  0  0  0  0  0  0
   13.6270   -0.1570   22.4620 C   0  0  0  0  0  0  0  0  0  0  0  0
   13.9330    1.1880   22.0800 C   0  0  0  0  0  0  0  0  0  0  0  0
   14.3180    1.2500   20.6630 N   0  0  0  0  0  0  0  0  0  0  0  0
   14.8690    2.3380   19.9980 C   0  0  0  0  0  0  0  0  0  0  0  0
   15.3370    2.0370   18.7420 C   0  0  0  0  0  0  0  0  0  0  0  0
   14.9530    3.4730   20.4230 O   0  0  0  0  0  0  0  0  0  0  0  0
   12.3510   -2.1670   22.2940 C   0  0  0  0  0  0  0  0  0  0  0  0
   11.1370   -2.5810   22.7090 N   0  0  0  0  0  0  0  0  0  0  0  0
   10.5090   -1.5670   23.3560 C   0  0  0  0  0  0  0  0  0  0  0  0
  1  2  2  3
  1  3  1  0
  3  4  1  0
  5  4  1  6
  5  6  1  0
  3  7  1  0
  6  7  1  0
  7  8  1  1
  5  9  1  0
  8  9  1  0
  9 10  1  1
 10 11  1  0
 11 12  1  0
 12 13  2  0
 13 14  1  0
 13 15  1  0
 15 16  2  0
 16 17  1  0
 17 18  1  0
 18 19  1  0
 19 20  1  0
 20 21  1  0
 21 22  1  0
 21 23  2  0
 17 24  2  0
 24 25  1  0
 11 26  2  0
 16 26  1  0
 25 26  1  0
M  END
