MAK-UNK-ec98eaf6-40-vinylsulfonamide
     RDKit          3D

 24 27  0  0  0  0  0  0  0  0999 V2000
    6.6030   -3.6030   19.4890 C   0  0  0  0  0  0  0  0  0  0  0  0
    6.5790   -2.5000   20.5040 C   0  0  0  0  0  0  0  0  0  0  0  0
    6.0840   -3.1070   22.0890 S   0  0  0  0  0  0  0  0  0  0  0  0
    4.7000   -3.5650   22.0060 O   0  0  0  0  0  0  0  0  0  0  0  0
    7.1080   -3.9920   22.6310 O   0  0  0  0  0  0  0  0  0  0  0  0
    6.1390   -1.5980   22.8670 N   0  0  0  0  0  0  0  0  0  0  0  0
    6.0460   -1.4220   24.3260 C   0  0  0  0  0  0  0  0  0  0  0  0
    7.0230   -0.2300   24.4990 C   0  0  2  0  0  0  0  0  0  0  0  0
    6.5030    0.3330   25.8430 C   0  0  0  0  0  0  0  0  0  0  0  0
    7.0920    1.1790   24.7510 C   0  0  0  0  0  0  0  0  0  0  0  0
    7.5760    0.1690   23.6790 C   0  0  0  0  0  0  0  0  0  0  0  0
    7.3590   -1.4240   23.9360 C   0  0  0  0  0  0  0  0  0  0  0  0
    6.6680   -1.9860   25.2180 C   0  0  0  0  0  0  0  0  0  0  0  0
    6.4310   -3.4740   25.4990 C   0  0  0  0  0  0  0  0  0  0  0  0
    7.3950   -4.3580   24.8130 N   0  0  0  0  0  0  0  0  0  0  0  0
    6.2280   -0.9510   26.2270 C   0  0  0  0  0  0  0  0  0  0  0  0
    6.5530    0.4620   23.1430 C   0  0  0  0  0  0  0  0  0  0  0  0
    7.0700   -0.5750   22.3690 C   0  0  1  0  0  0  0  0  0  0  0  0
    8.3910   -0.8600   22.7700 C   0  0  0  0  0  0  0  0  0  0  0  0
    9.4500   -1.2700   21.9790 C   0  0  0  0  0  0  0  0  0  0  0  0
   10.6860   -1.4640   22.5950 C   0  0  0  0  0  0  0  0  0  0  0  0
   10.7970   -1.2210   23.9970 C   0  0  0  0  0  0  0  0  0  0  0  0
    9.6930   -0.8070   24.7650 C   0  0  0  0  0  0  0  0  0  0  0  0
    8.4650   -0.6320   24.1230 C   0  0  0  0  0  0  0  0  0  0  0  0
  1  2  1  0
  3  2  1  0
  3  4  2  0
  3  5  2  0
  3  6  1  0
  6  7  1  0
  7  8  1  0
  8  9  1  1
  9 10  2  0
 10 11  1  0
 11 12  2  0
 12 13  1  0
 13 14  1  0
 14 15  3  0
  9 16  1  0
 13 16  2  0
  8 17  1  0
 18  6  1  1
 17 18  1  0
 18 19  1  0
 19 20  1  0
 20 21  2  0
 21 22  1  0
 22 23  2  0
  8 24  1  0
 19 24  2  0
 23 24  1  0
M  END
