MAK-UNK-8fdbca50-14-chloroacetamide
     RDKit          3D

 39 42  0  0  0  0  0  0  0  0999 V2000
    8.1730   -5.6950   20.7760 C   0  0  0  0  0  0  0  0  0  0  0  0
    8.3500   -6.2040   19.5870 C   0  0  0  0  0  0  0  0  0  0  0  0
    7.2780   -6.5160   19.0180 O   0  0  0  0  0  0  0  0  0  0  0  0
    9.7770   -6.1780   19.3250 N   0  0  0  0  0  0  0  0  0  0  0  0
   10.6640   -6.0730   20.3750 C   0  0  0  0  0  0  0  0  0  0  0  0
   11.8150   -5.0420   20.3460 C   0  0  0  0  0  0  0  0  0  0  0  0
   10.7080   -4.2120   20.7260 C   0  0  0  0  0  0  0  0  0  0  0  0
   10.8750   -2.7180   21.2330 C   0  0  0  0  0  0  0  0  0  0  0  0
   12.0420   -2.3630   21.2890 O   0  0  0  0  0  0  0  0  0  0  0  0
    9.7550   -1.7600   21.5780 N   0  0  0  0  0  0  0  0  0  0  0  0
    8.9510   -1.9580   22.7980 C   0  0  0  0  0  0  0  0  0  0  0  0
   10.2310   -0.4680   21.7890 C   0  0  1  0  0  0  0  0  0  0  0  0
   11.3540    0.0180   22.5450 C   0  0  0  0  0  0  0  0  0  0  0  0
   11.4990   -1.0900   22.0030 C   0  0  0  0  0  0  0  0  0  0  0  0
   12.3610   -1.7480   21.0410 C   0  0  0  0  0  0  0  0  0  0  0  0
   13.4590   -2.4670   21.3290 C   0  0  0  0  0  0  0  0  0  0  0  0
   13.6150   -2.5470   22.7120 C   0  0  0  0  0  0  0  0  0  0  0  0
   14.5150   -3.3280   23.3780 F   0  0  0  0  0  0  0  0  0  0  0  0
   12.8010   -1.9060   23.4390 C   0  0  0  0  0  0  0  0  0  0  0  0
   13.0260   -2.3740   24.4560 C   0  0  0  0  0  0  0  0  0  0  0  0
   14.0490   -3.0990   24.6700 C   0  0  0  0  0  0  0  0  0  0  0  0
   13.8480   -3.7370   25.7390 C   0  0  0  0  0  0  0  0  0  0  0  0
   14.5150   -4.7280   26.3740 C   0  0  0  0  0  0  0  0  0  0  0  0
   14.5550   -4.9780   27.6980 N   0  0  0  0  0  0  0  0  0  0  0  0
   15.4310   -6.2200   27.6760 C   0  0  0  0  0  0  0  0  0  0  0  0
   12.7470   -3.4000   26.1520 C   0  0  0  0  0  0  0  0  0  0  0  0
   12.1380   -2.4050   25.3650 N   0  0  0  0  0  0  0  0  0  0  0  0
   10.5910   -1.4970   25.3610 S   0  0  0  0  0  0  0  0  0  0  0  0
    9.5440   -2.3430   24.8580 O   0  0  0  0  0  0  0  0  0  0  0  0
   10.3960   -0.6950   26.4880 O   0  0  0  0  0  0  0  0  0  0  0  0
   10.7390    0.0040   24.4360 C   0  0  0  0  0  0  0  0  0  0  0  0
   11.9960    0.5360   24.0640 C   0  0  0  0  0  0  0  0  0  0  0  0
   12.1670    1.8670   23.2710 C   0  0  0  0  0  0  0  0  0  0  0  0
   10.7250    2.3970   23.0350 C   0  0  0  0  0  0  0  0  0  0  0  0
    9.5570    1.8430   23.4210 N   0  0  0  0  0  0  0  0  0  0  0  0
    9.5800    0.6800   24.1000 C   0  0  0  0  0  0  0  0  0  0  0  0
   11.8040   -1.1430   23.2490 C   0  0  0  0  0  0  0  0  0  0  0  0
   10.5460   -4.2250   19.4880 C   0  0  0  0  0  0  0  0  0  0  0  0
   10.4270   -5.2810   18.6340 C   0  0  0  0  0  0  0  0  0  0  0  0
  1  2  1  0
  2  3  2  0
  2  4  1  0
  4  5  1  0
  5  6  1  0
  6  7  1  0
  7  8  1  0
  8  9  2  0
  8 10  1  0
 10 11  1  0
 10 12  1  0
 12 13  1  1
 12 14  1  0
 14 15  2  0
 15 16  1  0
 16 17  2  0
 17 18  1  0
 17 19  1  0
 19 20  1  0
 20 21  2  0
 21 22  1  0
 22 23  1  0
 23 24  1  0
 24 25  1  0
 22 26  2  0
 20 27  1  0
 26 27  1  0
 27 28  1  0
 28 29  2  0
 28 30  2  0
 28 31  1  0
 31 32  2  0
 32 33  1  0
 33 34  2  0
 34 35  1  0
 31 36  1  0
 35 36  2  0
 14 37  1  0
 19 37  2  0
  7 38  1  0
  4 39  1  0
 38 39  1  0
M  END
