MAK-UNK-10dfa458-9-chloroacetamide
     RDKit          3D

 19 20  0  0  0  0  0  0  0  0999 V2000
    7.7780   -3.6260   20.3790 C   0  0  0  0  0  0  0  0  0  0  0  0
    6.5360   -4.4480   20.6930 C   0  0  0  0  0  0  0  0  0  0  0  0
    5.5660   -4.5230   19.9250 O   0  0  0  0  0  0  0  0  0  0  0  0
    6.5210   -5.1050   21.8970 N   0  0  0  0  0  0  0  0  0  0  0  0
    7.3560   -4.7750   23.0540 C   0  0  0  0  0  0  0  0  0  0  0  0
    6.3050   -4.1330   24.0120 C   0  0  0  0  0  0  0  0  0  0  0  0
    5.2640   -5.1400   24.3810 N   0  0  0  0  0  0  0  0  0  0  0  0
    4.5380   -5.1120   25.6740 C   0  0  1  0  0  0  0  0  0  0  0  0
    5.5370   -4.6600   26.7420 C   0  0  0  0  0  0  0  0  0  0  0  0
    3.3260   -4.1360   25.6700 C   0  0  0  0  0  0  0  0  0  0  0  0
    3.6790   -2.6330   25.7890 C   0  0  0  0  0  0  0  0  0  0  0  0
    2.4300   -1.7750   25.8730 C   0  0  0  0  0  0  0  0  0  0  0  0
    2.5480   -0.2890   26.2430 C   0  0  0  0  0  0  0  0  0  0  0  0
    1.3530    0.4780   26.3110 C   0  0  0  0  0  0  0  0  0  0  0  0
    0.1400   -0.1430   26.0430 C   0  0  0  0  0  0  0  0  0  0  0  0
    0.0340   -1.5170   25.7000 C   0  0  0  0  0  0  0  0  0  0  0  0
    1.1630   -2.3210   25.6160 C   0  0  0  0  0  0  0  0  0  0  0  0
    4.6270   -5.7360   23.2060 C   0  0  0  0  0  0  0  0  0  0  0  0
    5.5300   -6.1350   22.1990 C   0  0  0  0  0  0  0  0  0  0  0  0
  1  2  1  0
  2  3  2  0
  2  4  1  0
  4  5  1  0
  5  6  1  0
  6  7  1  0
  7  8  1  0
  8  9  1  1
  8 10  1  0
 10 11  1  0
 11 12  1  0
 12 13  2  0
 13 14  1  0
 14 15  2  0
 15 16  1  0
 12 17  1  0
 16 17  2  0
  7 18  1  0
  4 19  1  0
 18 19  1  0
M  END
