MAK-UNK-704ed37c-9-nitrile
     RDKit          3D

 15 16  0  0  0  0  0  0  0  0999 V2000
    6.6660   -4.3470   20.3690 C   0  0  0  0  0  0  0  0  0  0  0  0
    5.4930   -4.4730   19.9090 N   0  0  0  0  0  0  0  0  0  0  0  0
    7.0950   -4.3700   21.6410 N   0  0  0  0  0  0  0  0  0  0  0  0
    7.7740   -3.3750   22.3530 C   0  0  0  0  0  0  0  0  0  0  0  0
    7.3670   -3.0570   23.6340 C   0  0  0  0  0  0  0  0  0  0  0  0
    6.1820   -3.6460   24.0530 C   0  0  0  0  0  0  0  0  0  0  0  0
    5.7770   -3.2230   25.3310 C   0  0  0  0  0  0  0  0  0  0  0  0
    5.0070   -2.2670   25.3690 O   0  0  0  0  0  0  0  0  0  0  0  0
    6.1290   -3.7930   26.5080 N   0  0  0  0  0  0  0  0  0  0  0  0
    5.4330   -3.3400   27.5680 C   0  0  0  0  0  0  0  0  0  0  0  0
    6.0380   -4.3990   28.9100 S   0  0  0  0  0  0  0  0  0  0  0  0
    7.6210   -4.4020   28.0520 C   0  0  0  0  0  0  0  0  0  0  0  0
    7.5120   -4.0350   26.8440 O   0  0  0  0  0  0  0  0  0  0  0  0
    6.4250   -5.0190   23.9730 C   0  0  0  0  0  0  0  0  0  0  0  0
    6.6730   -5.4760   22.5190 C   0  0  0  0  0  0  0  0  0  0  0  0
  1  2  2  3
  1  3  1  0
  3  4  1  0
  4  5  1  0
  5  6  1  0
  6  7  1  0
  7  8  2  0
  7  9  1  0
  9 10  1  0
 10 11  1  0
 11 12  1  0
  9 13  1  0
 12 13  1  0
  6 14  1  0
  3 15  1  0
 14 15  1  0
M  END
