MAK-UNK-e4a48a85-25-acrylamide
     RDKit          3D

 27 29  0  0  0  0  0  0  0  0999 V2000
    8.0110   -3.3880   19.7060 C   0  0  0  0  0  0  0  0  0  0  0  0
    6.8980   -2.6570   18.9920 C   0  0  0  0  0  0  0  0  0  0  0  0
    5.8440   -3.0350   19.9360 C   0  0  0  0  0  0  0  0  0  0  0  0
    5.0040   -3.8920   19.6660 O   0  0  0  0  0  0  0  0  0  0  0  0
    5.9750   -2.4050   21.1450 N   0  0  0  0  0  0  0  0  0  0  0  0
    6.8470   -1.2030   21.2410 C   0  0  0  0  0  0  0  0  0  0  0  0
    8.1770   -1.7120   21.8540 C   0  0  0  0  0  0  0  0  0  0  0  0
    7.8690   -2.1060   23.2570 N   0  0  0  0  0  0  0  0  0  0  0  0
    9.0230   -2.2210   24.1560 C   0  0  0  0  0  0  0  0  0  0  0  0
   10.1550   -1.1780   23.8290 C   0  0  0  0  0  0  0  0  0  0  0  0
   11.1600   -1.6490   23.0250 N   0  0  0  0  0  0  0  0  0  0  0  0
   12.1640   -0.8900   22.8090 C   0  0  0  0  0  0  0  0  0  0  0  0
   13.2890   -1.3840   21.9050 C   0  0  0  0  0  0  0  0  0  0  0  0
   12.3420    0.3280   23.2920 N   0  0  0  0  0  0  0  0  0  0  0  0
   11.2850    0.9570   23.8690 C   0  0  0  0  0  0  0  0  0  0  0  0
   11.1660    2.3010   24.0720 O   0  0  0  0  0  0  0  0  0  0  0  0
   10.1200    0.0780   24.3020 C   0  0  0  0  0  0  0  0  0  0  0  0
    9.0780    0.7420   25.2000 C   0  0  0  0  0  0  0  0  0  0  0  0
    8.6380    1.9690   24.4080 C   0  0  0  0  0  0  0  0  0  0  0  0
    7.1920    2.1810   24.8490 C   0  0  0  0  0  0  0  0  0  0  0  0
    7.1880    3.2880   25.9100 C   0  0  0  0  0  0  0  0  0  0  0  0
    6.7170    3.0180   27.3300 C   0  0  0  0  0  0  0  0  0  0  0  0
    6.8080    4.2560   28.1620 C   0  0  0  0  0  0  0  0  0  0  0  0
    7.4150    5.5710   27.2410 S   0  0  0  0  0  0  0  0  0  0  0  0
    7.5840    4.6410   25.7720 C   0  0  0  0  0  0  0  0  0  0  0  0
    7.1180   -3.3450   23.2060 C   0  0  0  0  0  0  0  0  0  0  0  0
    5.8080   -3.1200   22.4600 C   0  0  0  0  0  0  0  0  0  0  0  0
  1  2  1  0
  2  3  1  0
  3  4  2  0
  3  5  1  0
  5  6  1  0
  6  7  1  0
  7  8  1  0
  8  9  1  0
  9 10  1  0
 10 11  1  0
 11 12  2  0
 12 13  1  0
 12 14  1  0
 14 15  1  0
 15 16  2  0
 10 17  2  0
 15 17  1  0
 17 18  1  0
 18 19  1  0
 19 20  1  0
 20 21  1  0
 21 22  1  0
 22 23  2  0
 23 24  1  0
 21 25  2  0
 24 25  1  0
  8 26  1  0
  5 27  1  0
 26 27  1  0
M  END
