MAK-UNK-0d6072ac-32
     RDKit          3D

 19 21  0  0  0  0  0  0  0  0999 V2000
    7.1390   -5.8610   21.1230 C   0  0  0  0  0  0  0  0  0  0  0  0
    6.9360   -4.6750   21.9760 C   0  0  2  0  0  0  0  0  0  0  0  0
    6.7110   -3.4670   21.0380 C   0  0  0  0  0  0  0  0  0  0  0  0
    5.3920   -3.3700   20.5300 O   0  0  0  0  0  0  0  0  0  0  0  0
    7.7480   -2.6810   20.6540 O   0  0  0  0  0  0  0  0  0  0  0  0
    7.9580   -4.9010   23.1290 C   0  0  0  0  0  0  0  0  0  0  0  0
    7.3650   -5.7070   23.1250 N   0  0  0  0  0  0  0  0  0  0  0  0
    8.6310   -5.0830   23.7920 C   0  0  0  0  0  0  0  0  0  0  0  0
    9.7530   -3.7090   23.8960 C   0  0  0  0  0  0  0  0  0  0  0  0
    9.5350   -4.6460   24.2460 C   0  0  0  0  0  0  0  0  0  0  0  0
    8.6550   -3.9780   23.1500 N   0  0  0  0  0  0  0  0  0  0  0  0
   10.2240   -3.5720   24.1670 N   0  0  0  0  0  0  0  0  0  0  0  0
   11.1580   -2.7520   24.4030 C   0  0  0  0  0  0  0  0  0  0  0  0
   11.7420   -3.7310   25.3490 C   0  0  0  0  0  0  0  0  0  0  0  0
   12.6120   -2.4790   25.3370 C   0  0  0  0  0  0  0  0  0  0  0  0
   12.1900   -1.3340   24.3730 C   0  0  0  0  0  0  0  0  0  0  0  0
   13.1090    0.0760   24.2790 Cl  0  0  0  0  0  0  0  0  0  0  0  0
   11.0220   -1.3250   23.5430 C   0  0  0  0  0  0  0  0  0  0  0  0
   10.0640   -2.3650   23.3950 C   0  0  0  0  0  0  0  0  0  0  0  0
  2  1  1  6
  2  3  1  0
  3  4  2  0
  3  5  1  0
  2  6  1  0
  6  7  2  0
  7  8  1  0
  8  9  2  0
  9 10  1  0
  6 11  1  0
 10 11  2  0
 10 12  1  0
 12 13  1  0
 13 14  1  0
 14 15  2  0
 15 16  1  0
 16 17  1  0
 16 18  2  0
  9 19  1  0
 13 19  2  0
 18 19  1  0
M  END
