MAK-UNK-849bee6c-25-vinylsulfonamide
     RDKit          3D

 33 35  0  0  0  0  0  0  0  0999 V2000
    7.1980   -3.3460   19.4790 C   0  0  0  0  0  0  0  0  0  0  0  0
    7.2430   -3.0010   20.9590 C   0  0  0  0  0  0  0  0  0  0  0  0
    6.4790   -4.2660   21.9620 S   0  0  0  0  0  0  0  0  0  0  0  0
    4.9870   -4.0900   21.8780 O   0  0  0  0  0  0  0  0  0  0  0  0
    7.0380   -5.5340   21.5480 O   0  0  0  0  0  0  0  0  0  0  0  0
    7.2660   -3.8950   23.4860 N   0  0  0  0  0  0  0  0  0  0  0  0
    8.4400   -3.2980   23.3760 C   0  0  0  0  0  0  0  0  0  0  0  0
    9.1320   -3.0250   24.7610 C   0  0  0  0  0  0  0  0  0  0  0  0
    9.4560   -4.2430   25.5620 N   0  0  0  0  0  0  0  0  0  0  0  0
   10.8990   -4.5720   26.0440 C   0  0  0  0  0  0  0  0  0  0  0  0
   12.1260   -3.6480   25.6190 C   0  0  0  0  0  0  0  0  0  0  0  0
   11.6960   -2.7120   24.5570 C   0  0  0  0  0  0  0  0  0  0  0  0
   12.6110   -1.8730   24.0880 C   0  0  0  0  0  0  0  0  0  0  0  0
   12.2890   -0.9560   23.0820 C   0  0  0  0  0  0  0  0  0  0  0  0
   13.8980   -1.8790   24.5710 C   0  0  0  0  0  0  0  0  0  0  0  0
   14.6300   -2.6720   25.6010 C   0  0  0  0  0  0  0  0  0  0  0  0
   16.3140   -2.5510   26.0880 N   0  0  0  0  0  0  0  0  0  0  0  0
   18.1620   -2.2610   25.7500 C   0  0  0  0  0  0  0  0  0  0  0  0
   19.3790   -2.1020   26.6290 C   0  0  0  0  0  0  0  0  0  0  0  0
   20.6070   -1.8670   26.1200 C   0  0  0  0  0  0  0  0  0  0  0  0
   21.4260   -1.7660   27.2570 N   0  0  0  0  0  0  0  0  0  0  0  0
   22.6540   -2.3190   27.5030 C   0  0  0  0  0  0  0  0  0  0  0  0
   23.1690   -2.9450   26.5660 O   0  0  0  0  0  0  0  0  0  0  0  0
   23.2730   -2.1690   28.7450 C   0  0  0  0  0  0  0  0  0  0  0  0
   24.5990   -3.3370   28.9270 Cl  0  0  0  0  0  0  0  0  0  0  0  0
   21.2640   -1.7160   25.2770 N   0  0  0  0  0  0  0  0  0  0  0  0
   20.3760   -1.8180   24.3250 C   0  0  0  0  0  0  0  0  0  0  0  0
   20.9560   -1.6750   23.0660 C   0  0  0  0  0  0  0  0  0  0  0  0
   21.4970   -1.5620   22.0360 N   0  0  0  0  0  0  0  0  0  0  0  0
   18.9230   -2.0650   24.5120 N   0  0  0  0  0  0  0  0  0  0  0  0
   13.5690   -3.6010   26.1020 C   0  0  0  0  0  0  0  0  0  0  0  0
    8.7150   -5.3880   24.9790 C   0  0  0  0  0  0  0  0  0  0  0  0
    7.3060   -5.0230   24.4420 C   0  0  0  0  0  0  0  0  0  0  0  0
  1  2  1  0
  3  2  1  0
  3  4  2  0
  3  5  2  0
  3  6  1  0
  6  7  1  0
  7  8  1  0
  8  9  1  0
  9 10  1  0
 10 11  1  0
 11 12  2  0
 12 13  1  0
 13 14  1  0
 13 15  2  0
 15 16  1  0
 16 17  1  0
 17 18  1  0
 18 19  2  0
 19 20  1  0
 20 21  1  0
 21 22  1  0
 22 23  2  0
 22 24  1  0
 24 25  1  0
 20 26  2  0
 26 27  1  0
 27 28  1  0
 28 29  3  0
 18 30  1  0
 27 30  2  0
 11 31  1  0
 16 31  2  0
  9 32  1  0
  6 33  1  0
 32 33  1  0
M  END
