MAK-UNK-3e0761f8-9-vinylsulfonamide
     RDKit          3D

 26 29  0  0  0  0  0  0  0  0999 V2000
    7.8710   -3.7350   19.8640 C   0  0  0  0  0  0  0  0  0  0  0  0
    7.1780   -2.7110   18.9770 C   0  0  0  0  0  0  0  0  0  0  0  0
    5.6900   -2.4040   19.8290 S   0  0  0  0  0  0  0  0  0  0  0  0
    4.9930   -3.6720   19.7790 O   0  0  0  0  0  0  0  0  0  0  0  0
    5.1050   -1.1930   19.2980 O   0  0  0  0  0  0  0  0  0  0  0  0
    6.2750   -2.0270   21.3790 N   0  0  0  0  0  0  0  0  0  0  0  0
    7.1440   -0.8720   21.6870 C   0  0  0  0  0  0  0  0  0  0  0  0
    8.4070   -1.6430   22.1470 C   0  0  2  0  0  0  0  0  0  0  0  0
    7.8470   -2.9510   21.6240 C   0  0  0  0  0  0  0  0  0  0  0  0
    6.4860   -3.0540   22.3950 C   0  0  1  0  0  0  0  0  0  0  0  0
    7.7180   -3.4460   23.2140 C   0  0  0  0  0  0  0  0  0  0  0  0
    8.3910   -2.1350   23.5380 N   0  0  0  0  0  0  0  0  0  0  0  0
    9.7230   -2.4640   24.0510 C   0  0  1  0  0  0  0  0  0  0  0  0
   10.7660   -1.4430   23.7740 C   0  0  0  0  0  0  0  0  0  0  0  0
   11.7780   -1.8490   22.7540 C   0  0  0  0  0  0  0  0  0  0  0  0
   12.7270   -0.9420   22.4920 C   0  0  0  0  0  0  0  0  0  0  0  0
   12.8060    0.3320   23.1090 C   0  0  0  0  0  0  0  0  0  0  0  0
   11.9200    0.7130   24.0100 C   0  0  0  0  0  0  0  0  0  0  0  0
   10.8390   -0.1910   24.3890 C   0  0  0  0  0  0  0  0  0  0  0  0
    9.6040   -2.8720   25.5560 C   0  0  0  0  0  0  0  0  0  0  0  0
    8.2850   -2.8190   26.0200 C   0  0  0  0  0  0  0  0  0  0  0  0
    7.9630   -4.0210   26.5790 C   0  0  0  0  0  0  0  0  0  0  0  0
    8.1850   -5.1020   26.7910 N   0  0  0  0  0  0  0  0  0  0  0  0
    8.4560   -5.5270   28.1370 C   0  0  0  0  0  0  0  0  0  0  0  0
    9.3310   -5.3950   25.9370 C   0  0  0  0  0  0  0  0  0  0  0  0
   10.2320   -4.2920   25.8470 C   0  0  0  0  0  0  0  0  0  0  0  0
  1  2  1  0
  3  2  1  0
  3  4  2  0
  3  5  2  0
  3  6  1  0
  6  7  1  0
  8  7  1  1
  8  9  1  0
  6 10  1  0
  9 10  1  0
 10 11  1  1
  8 12  1  0
 11 12  1  0
 12 13  1  0
 13 14  1  1
 14 15  2  0
 15 16  1  0
 16 17  2  0
 17 18  1  0
 14 19  1  0
 18 19  2  0
 13 20  1  0
 20 21  1  0
 21 22  1  0
 22 23  1  0
 23 24  1  0
 23 25  1  0
 20 26  1  0
 25 26  1  0
M  END
