MAK-UNK-10dfa458-2-chloroacetamide
     RDKit          3D

 15 16  0  0  0  0  0  0  0  0999 V2000
    7.1540   -3.4160   19.9080 C   0  0  0  0  0  0  0  0  0  0  0  0
    6.2690   -4.4640   20.5700 C   0  0  0  0  0  0  0  0  0  0  0  0
    5.2860   -4.8480   19.9610 O   0  0  0  0  0  0  0  0  0  0  0  0
    6.5170   -4.9980   21.8170 N   0  0  0  0  0  0  0  0  0  0  0  0
    7.4190   -4.5370   22.8760 C   0  0  0  0  0  0  0  0  0  0  0  0
    6.4060   -3.9960   23.9410 C   0  0  0  0  0  0  0  0  0  0  0  0
    5.4400   -5.0600   24.3620 N   0  0  0  0  0  0  0  0  0  0  0  0
    4.7370   -4.9620   25.6690 C   0  0  0  0  0  0  0  0  0  0  0  0
    3.5190   -4.0230   25.5930 C   0  0  0  0  0  0  0  0  0  0  0  0
    3.9730   -2.6150   25.9420 C   0  0  0  0  0  0  0  0  0  0  0  0
    2.6840   -1.7860   25.8530 C   0  0  0  0  0  0  0  0  0  0  0  0
    1.4770   -2.6250   25.4670 C   0  0  0  0  0  0  0  0  0  0  0  0
    1.8610   -4.2830   25.2230 S   0  0  0  0  0  0  0  0  0  0  0  0
    4.6560   -5.5310   23.1750 C   0  0  0  0  0  0  0  0  0  0  0  0
    5.5870   -6.0580   22.2400 C   0  0  0  0  0  0  0  0  0  0  0  0
  1  2  1  0
  2  3  2  0
  2  4  1  0
  4  5  1  0
  5  6  1  0
  6  7  1  0
  7  8  1  0
  8  9  1  0
  9 10  2  0
 10 11  1  0
 11 12  2  0
  9 13  1  0
 12 13  1  0
  7 14  1  0
  4 15  1  0
 14 15  1  0
M  END
