MAK-UNK-72659d64-2-nitrile
     RDKit          3D

 12 12  0  0  0  0  0  0  0  0999 V2000
    6.4760   -5.0360   20.4820 C   0  0  0  0  0  0  0  0  0  0  0  0
    5.6590   -5.8430   19.9240 N   0  0  0  0  0  0  0  0  0  0  0  0
    6.2180   -4.4290   21.6870 N   0  0  0  0  0  0  0  0  0  0  0  0
    6.5540   -5.0760   22.9810 C   0  0  0  0  0  0  0  0  0  0  0  0
    5.3100   -5.4660   22.4780 C   0  0  0  0  0  0  0  0  0  0  0  0
    6.4340   -6.3530   22.5640 C   0  0  0  0  0  0  0  0  0  0  0  0
    7.5340   -5.7520   23.0920 N   0  0  0  0  0  0  0  0  0  0  0  0
    7.6860   -4.3880   23.5500 C   0  0  0  0  0  0  0  0  0  0  0  0
    7.6160   -2.9110   23.9720 C   0  0  0  0  0  0  0  0  0  0  0  0
    7.5510   -1.6260   24.3460 N   0  0  0  0  0  0  0  0  0  0  0  0
    6.4020   -3.7380   23.3480 N   0  0  0  0  0  0  0  0  0  0  0  0
    5.2200   -4.2200   22.8300 C   0  0  0  0  0  0  0  0  0  0  0  0
  1  2  2  3
  1  3  1  0
  3  4  1  0
  4  5  1  0
  5  6  2  0
  6  7  1  0
  7  8  2  0
  8  9  1  0
  9 10  3  0
  8 11  1  0
  5 12  1  0
 11 12  2  0
M  END
