MAK-UNK-516d8086-24-chloroacetamide
     RDKit          3D

 23 25  0  0  0  0  0  0  0  0999 V2000
    7.9740   -4.2220   20.6110 C   0  0  0  0  0  0  0  0  0  0  0  0
    6.6170   -3.5450   20.5180 C   0  0  0  0  0  0  0  0  0  0  0  0
    5.6920   -3.9630   19.7690 O   0  0  0  0  0  0  0  0  0  0  0  0
    6.5170   -2.3230   21.3880 C   0  0  0  0  0  0  0  0  0  0  0  0
    5.4520   -2.0960   22.2540 N   0  0  0  0  0  0  0  0  0  0  0  0
    5.4770   -0.9450   23.0330 N   0  0  0  0  0  0  0  0  0  0  0  0
    6.5340   -0.0400   22.9510 C   0  0  0  0  0  0  0  0  0  0  0  0
    6.5340    1.1150   23.7560 N   0  0  0  0  0  0  0  0  0  0  0  0
    7.2340    2.3100   23.2800 C   0  0  0  0  0  0  0  0  0  0  0  0
    8.3250    2.6560   24.2990 C   0  0  0  0  0  0  0  0  0  0  0  0
    7.5770   -0.3140   22.0560 C   0  0  0  0  0  0  0  0  0  0  0  0
    8.8730    0.5150   21.7380 C   0  0  0  0  0  0  0  0  0  0  0  0
    9.6230    0.7990   22.8690 C   0  0  0  0  0  0  0  0  0  0  0  0
   10.5340    0.8420   24.1750 C   0  0  0  0  0  0  0  0  0  0  0  0
   11.1780   -0.4780   24.8100 C   0  0  0  0  0  0  0  0  0  0  0  0
   10.8760   -1.7250   24.1310 C   0  0  0  0  0  0  0  0  0  0  0  0
   10.2060   -1.9920   23.1260 C   0  0  0  0  0  0  0  0  0  0  0  0
    9.7810   -0.6410   22.7980 C   0  0  0  0  0  0  0  0  0  0  0  0
    9.9720   -3.2040   22.5500 C   0  0  0  0  0  0  0  0  0  0  0  0
   10.2100   -3.9480   23.4960 O   0  0  0  0  0  0  0  0  0  0  0  0
    9.8600   -1.9530   21.9920 N   0  0  0  0  0  0  0  0  0  0  0  0
   10.0820   -0.8670   23.1090 C   0  0  0  0  0  0  0  0  0  0  0  0
    7.5610   -1.5040   21.2470 N   0  0  0  0  0  0  0  0  0  0  0  0
  1  2  1  0
  2  3  2  0
  2  4  1  0
  4  5  2  0
  5  6  1  0
  6  7  2  0
  7  8  1  0
  8  9  1  0
  9 10  1  0
  7 11  1  0
 11 12  1  0
 12 13  1  0
 13 14  2  0
 14 15  1  0
 15 16  2  0
 16 17  1  0
 13 18  1  0
 17 18  2  0
 17 19  1  0
 19 20  2  0
 19 21  1  0
 16 22  1  0
 21 22  1  0
  4 23  1  0
 11 23  2  0
M  END
