MAK-UNK-ec98eaf6-44-vinylsulfonamide
     RDKit          3D

 23 25  0  0  0  0  0  0  0  0999 V2000
    7.6630   -2.9840   18.3160 C   0  0  0  0  0  0  0  0  0  0  0  0
    7.1970   -2.3570   19.5580 C   0  0  0  0  0  0  0  0  0  0  0  0
    6.1510   -3.4460   20.4600 S   0  0  0  0  0  0  0  0  0  0  0  0
    4.9110   -3.5130   19.7650 O   0  0  0  0  0  0  0  0  0  0  0  0
    6.7950   -4.6490   20.9510 O   0  0  0  0  0  0  0  0  0  0  0  0
    6.0470   -2.4290   21.7640 N   0  0  0  0  0  0  0  0  0  0  0  0
    6.2440   -3.0520   23.0660 C   0  0  0  0  0  0  0  0  0  0  0  0
    7.7600   -3.1090   23.1060 C   0  0  1  0  0  0  0  0  0  0  0  0
    7.8960   -2.6730   21.6820 C   0  0  0  0  0  0  0  0  0  0  0  0
    7.0390   -1.3340   21.7020 C   0  0  2  0  0  0  0  0  0  0  0  0
    8.2020   -1.1370   22.6800 C   0  0  1  0  0  0  0  0  0  0  0  0
    7.9400    0.3600   23.0400 C   0  0  0  0  0  0  0  0  0  0  0  0
    8.6720    1.2330   22.0740 N   0  0  0  0  0  0  0  0  0  0  0  0
    7.2410    0.7720   23.9650 O   0  0  0  0  0  0  0  0  0  0  0  0
    8.1010   -1.8940   23.8150 N   0  0  0  0  0  0  0  0  0  0  0  0
    9.3940   -2.0550   24.5250 C   0  0  0  0  0  0  0  0  0  0  0  0
   10.5520   -1.3060   23.9710 C   0  0  0  0  0  0  0  0  0  0  0  0
   10.8590   -0.0510   24.4630 C   0  0  0  0  0  0  0  0  0  0  0  0
   11.9090    0.7140   24.0080 C   0  0  0  0  0  0  0  0  0  0  0  0
   12.7080    0.2050   23.0060 C   0  0  0  0  0  0  0  0  0  0  0  0
   12.4170   -1.0600   22.4890 C   0  0  0  0  0  0  0  0  0  0  0  0
   13.3550   -1.7210   21.2500 Cl  0  0  0  0  0  0  0  0  0  0  0  0
   11.3530   -1.8150   22.9630 C   0  0  0  0  0  0  0  0  0  0  0  0
  1  2  1  0
  3  2  1  0
  3  4  2  0
  3  5  2  0
  3  6  1  0
  6  7  1  0
  8  7  1  6
  8  9  1  0
 10  6  1  1
  9 10  1  0
 10 11  1  0
 11 12  1  1
 12 13  1  0
 12 14  2  0
  8 15  1  0
 11 15  1  0
 15 16  1  0
 16 17  1  0
 17 18  2  0
 18 19  1  0
 19 20  2  0
 20 21  1  0
 21 22  1  0
 17 23  1  0
 21 23  2  0
M  END
