MAK-UNK-5d2caa6f-10-nitrile
     RDKit          3D

 19 22  0  0  0  0  0  0  0  0999 V2000
    6.6710   -3.4410   19.7310 C   0  0  0  0  0  0  0  0  0  0  0  0
    5.7400   -3.2390   18.8790 N   0  0  0  0  0  0  0  0  0  0  0  0
    6.4280   -3.3570   21.0740 N   0  0  0  0  0  0  0  0  0  0  0  0
    5.7400   -4.3960   21.8070 C   0  0  0  0  0  0  0  0  0  0  0  0
    6.1440   -4.3290   23.1400 C   0  0  2  0  0  0  0  0  0  0  0  0
    5.7480   -3.1970   23.8100 C   0  0  0  0  0  0  0  0  0  0  0  0
    6.3560   -2.1000   23.2430 C   0  0  1  0  0  0  0  0  0  0  0  0
    7.3680   -1.4690   24.1870 C   0  0  0  0  0  0  0  0  0  0  0  0
    8.5610   -1.5010   23.3750 N   0  0  0  0  0  0  0  0  0  0  0  0
    9.6960   -2.0190   23.9810 C   0  0  0  0  0  0  0  0  0  0  0  0
    9.6910   -2.9620   24.7580 O   0  0  0  0  0  0  0  0  0  0  0  0
   10.9450   -1.2960   23.5960 C   0  0  0  0  0  0  0  0  0  0  0  0
   11.8950   -1.8220   22.5430 C   0  0  0  0  0  0  0  0  0  0  0  0
   13.0280   -0.8570   22.3780 C   0  0  0  0  0  0  0  0  0  0  0  0
   12.6970    0.2370   23.3680 C   0  0  0  0  0  0  0  0  0  0  0  0
   11.4430   -0.0900   24.0670 N   0  0  0  0  0  0  0  0  0  0  0  0
    8.3310   -1.7350   21.9440 C   0  0  0  0  0  0  0  0  0  0  0  0
    7.2690   -2.7910   22.1460 C   0  0  2  0  0  0  0  0  0  0  0  0
    7.6100   -3.9550   22.8550 C   0  0  0  0  0  0  0  0  0  0  0  0
  1  2  2  3
  1  3  1  0
  3  4  1  0
  5  4  1  6
  5  6  1  0
  7  6  1  1
  7  8  1  0
  8  9  1  0
  9 10  1  0
 10 11  2  0
 10 12  1  0
 12 13  2  0
 13 14  1  0
 14 15  2  0
 12 16  1  0
 15 16  1  0
  9 17  1  0
 18  3  1  0
  7 18  1  0
 18 17  1  6
  5 19  1  0
 18 19  1  0
M  END
