MAK-UNK-516d8086-21-acrylamide
     RDKit          3D

 24 26  0  0  0  0  0  0  0  0999 V2000
    8.9890   -4.0160   20.3940 C   0  0  0  0  0  0  0  0  0  0  0  0
    7.5820   -3.4160   20.0190 C   0  0  0  0  0  0  0  0  0  0  0  0
    6.6030   -3.9010   21.0880 C   0  0  0  0  0  0  0  0  0  0  0  0
    5.3170   -4.0060   20.9220 O   0  0  0  0  0  0  0  0  0  0  0  0
    7.4610   -4.2170   22.3860 C   0  0  0  0  0  0  0  0  0  0  0  0
    7.3580   -5.5480   23.0520 C   0  0  0  0  0  0  0  0  0  0  0  0
    8.0920   -5.8440   24.1320 N   0  0  0  0  0  0  0  0  0  0  0  0
    8.9530   -4.9090   24.6340 C   0  0  0  0  0  0  0  0  0  0  0  0
    9.7080   -5.2150   25.7320 N   0  0  0  0  0  0  0  0  0  0  0  0
    8.9980   -5.9120   26.7890 C   0  0  0  0  0  0  0  0  0  0  0  0
    9.0790   -5.1580   27.9560 C   0  0  0  0  0  0  0  0  0  0  0  0
    9.1430   -3.4910   24.0310 C   0  0  0  0  0  0  0  0  0  0  0  0
   10.0250   -2.4210   24.4760 C   0  0  0  0  0  0  0  0  0  0  0  0
   11.2520   -2.4550   23.7670 C   0  0  0  0  0  0  0  0  0  0  0  0
   10.6320   -1.3460   23.0510 C   0  0  0  0  0  0  0  0  0  0  0  0
    9.4900   -1.2380   23.7160 N   0  0  0  0  0  0  0  0  0  0  0  0
   10.3590   -2.1910   24.1080 C   0  0  0  0  0  0  0  0  0  0  0  0
    9.6460   -2.6490   25.0730 C   0  0  0  0  0  0  0  0  0  0  0  0
   10.8950   -3.2830   24.8530 C   0  0  0  0  0  0  0  0  0  0  0  0
    8.6900   -1.5540   24.6280 C   0  0  0  0  0  0  0  0  0  0  0  0
    7.6150   -1.3490   25.1940 O   0  0  0  0  0  0  0  0  0  0  0  0
    9.1700   -0.7110   23.3880 N   0  0  0  0  0  0  0  0  0  0  0  0
   10.5300   -1.3250   23.1000 C   0  0  0  0  0  0  0  0  0  0  0  0
    8.3350   -3.2390   22.8850 C   0  0  0  0  0  0  0  0  0  0  0  0
  1  2  1  0
  2  3  1  0
  3  4  2  0
  3  5  1  0
  5  6  2  0
  6  7  1  0
  7  8  2  0
  8  9  1  0
  9 10  1  0
 10 11  1  0
  8 12  1  0
 12 13  1  0
 13 14  1  0
 14 15  2  0
 15 16  1  0
 16 17  2  0
 17 18  1  0
 14 19  1  0
 18 19  2  0
 18 20  1  0
 20 21  2  0
 20 22  1  0
 17 23  1  0
 22 23  1  0
  5 24  1  0
 12 24  2  0
M  END
