MAK-UNK-ec98eaf6-45-nitrile
     RDKit          3D

 21 23  0  0  0  0  0  0  0  0999 V2000
    6.7060   -3.7370   20.0480 C   0  0  0  0  0  0  0  0  0  0  0  0
    5.6980   -4.5010   19.9030 N   0  0  0  0  0  0  0  0  0  0  0  0
    6.9610   -3.2310   21.2670 N   0  0  0  0  0  0  0  0  0  0  0  0
    6.3230   -3.7320   22.4540 C   0  0  0  0  0  0  0  0  0  0  0  0
    7.2220   -3.0840   23.5600 C   0  0  2  0  0  0  0  0  0  0  0  0
    6.2730   -1.9790   23.0020 C   0  0  0  0  0  0  0  0  0  0  0  0
    6.9380   -1.8380   21.6190 C   0  0  1  0  0  0  0  0  0  0  0  0
    8.2780   -1.3850   22.1560 C   0  0  1  0  0  0  0  0  0  0  0  0
    7.7800    0.0530   21.9410 C   0  0  0  0  0  0  0  0  0  0  0  0
    8.8820    0.9060   22.5860 C   0  0  0  0  0  0  0  0  0  0  0  0
   10.2580    0.3070   22.3860 C   0  0  0  0  0  0  0  0  0  0  0  0
    8.8850    2.3430   22.0690 C   0  0  0  0  0  0  0  0  0  0  0  0
    8.1760   -1.9100   23.5810 N   0  0  0  0  0  0  0  0  0  0  0  0
    9.4460   -2.3020   24.2390 C   0  0  0  0  0  0  0  0  0  0  0  0
   10.5440   -1.5300   23.8800 C   0  0  0  0  0  0  0  0  0  0  0  0
   10.8470   -0.3390   24.5470 C   0  0  0  0  0  0  0  0  0  0  0  0
   11.9500    0.4200   24.1530 C   0  0  0  0  0  0  0  0  0  0  0  0
   12.7480   -0.0060   23.1090 C   0  0  0  0  0  0  0  0  0  0  0  0
   12.4530   -1.1810   22.4520 C   0  0  0  0  0  0  0  0  0  0  0  0
   13.3890   -1.7390   21.1630 Cl  0  0  0  0  0  0  0  0  0  0  0  0
   11.3550   -1.9500   22.8300 C   0  0  0  0  0  0  0  0  0  0  0  0
  1  2  2  3
  1  3  1  0
  3  4  1  0
  5  4  1  6
  5  6  1  0
  7  3  1  1
  6  7  1  0
  7  8  1  0
  8  9  1  1
  9 10  1  0
 10 11  1  0
 10 12  1  0
  5 13  1  0
  8 13  1  0
 13 14  1  0
 14 15  1  0
 15 16  2  0
 16 17  1  0
 17 18  2  0
 18 19  1  0
 19 20  1  0
 15 21  1  0
 19 21  2  0
M  END
