MAK-UNK-8fdbca50-4-acrylamide
     RDKit          3D

 40 43  0  0  0  0  0  0  0  0999 V2000
    7.3050   -3.6240   19.8570 C   0  0  0  0  0  0  0  0  0  0  0  0
    6.6750   -4.2920   21.0880 C   0  0  0  0  0  0  0  0  0  0  0  0
    5.9390   -3.2710   21.9140 C   0  0  0  0  0  0  0  0  0  0  0  0
    4.6680   -3.2990   21.8650 O   0  0  0  0  0  0  0  0  0  0  0  0
    6.7500   -2.3730   22.6900 N   0  0  0  0  0  0  0  0  0  0  0  0
    8.1670   -2.4080   23.1060 C   0  0  0  0  0  0  0  0  0  0  0  0
    8.9110   -1.8860   21.8550 C   0  0  0  0  0  0  0  0  0  0  0  0
    8.5950   -0.4000   22.0930 C   0  0  0  0  0  0  0  0  0  0  0  0
    7.8380    0.1030   20.8320 C   0  0  0  0  0  0  0  0  0  0  0  0
    7.2880   -0.9910   20.7710 O   0  0  0  0  0  0  0  0  0  0  0  0
    8.7460    1.1120   21.4200 N   0  0  0  0  0  0  0  0  0  0  0  0
    9.9210    0.5470   22.1110 C   0  0  0  0  0  0  0  0  0  0  0  0
    8.4120    2.5010   21.8290 C   0  0  1  0  0  0  0  0  0  0  0  0
    7.0710    2.8080   21.5470 C   0  0  0  0  0  0  0  0  0  0  0  0
    8.8470    2.9810   23.2090 C   0  0  1  0  0  0  0  0  0  0  0  0
    9.3180    4.5920   23.5970 S   0  0  0  0  0  0  0  0  0  0  0  0
   10.6660    4.6310   23.0660 O   0  0  0  0  0  0  0  0  0  0  0  0
    8.9990    4.8930   24.9840 O   0  0  0  0  0  0  0  0  0  0  0  0
    8.4500    5.7590   22.6560 C   0  0  0  0  0  0  0  0  0  0  0  0
    8.5000    6.4000   23.9620 C   0  0  0  0  0  0  0  0  0  0  0  0
    7.7760    7.6890   23.7710 C   0  0  0  0  0  0  0  0  0  0  0  0
    7.1220    8.3430   22.6850 C   0  0  0  0  0  0  0  0  0  0  0  0
    7.1350    7.6970   21.5630 N   0  0  0  0  0  0  0  0  0  0  0  0
    7.7960    6.8120   22.2730 C   0  0  0  0  0  0  0  0  0  0  0  0
    7.6550    2.9500   23.9940 C   0  0  0  0  0  0  0  0  0  0  0  0
    7.5850    2.1230   25.1080 C   0  0  0  0  0  0  0  0  0  0  0  0
    6.4220    2.0380   25.9090 C   0  0  0  0  0  0  0  0  0  0  0  0
    6.3600    1.0250   26.8750 N   0  0  0  0  0  0  0  0  0  0  0  0
    7.1890   -0.0500   26.6440 C   0  0  0  0  0  0  0  0  0  0  0  0
    8.8380    1.4590   25.1890 C   0  0  0  0  0  0  0  0  0  0  0  0
    9.6830    1.9480   24.0130 C   0  0  0  0  0  0  0  0  0  0  0  0
   10.9700    1.4200   23.7880 C   0  0  0  0  0  0  0  0  0  0  0  0
   10.0540    0.3790   24.3350 C   0  0  0  0  0  0  0  0  0  0  0  0
   10.2810   -0.9060   24.6170 C   0  0  0  0  0  0  0  0  0  0  0  0
   11.6060   -1.4680   24.3890 C   0  0  0  0  0  0  0  0  0  0  0  0
   12.8410   -0.8220   23.8590 C   0  0  0  0  0  0  0  0  0  0  0  0
   12.1920    0.6150   23.6550 C   0  0  0  0  0  0  0  0  0  0  0  0
   13.1520    1.3710   23.1660 F   0  0  0  0  0  0  0  0  0  0  0  0
    7.6430   -0.2520   23.2590 C   0  0  0  0  0  0  0  0  0  0  0  0
    6.3530   -1.0160   22.9670 C   0  0  0  0  0  0  0  0  0  0  0  0
  1  2  1  0
  2  3  1  0
  3  4  2  0
  3  5  1  0
  5  6  1  0
  6  7  1  0
  7  8  1  0
  8  9  1  0
  9 10  2  0
  9 11  1  0
 11 12  1  0
 11 13  1  0
 13 14  1  1
 13 15  1  0
 15 16  1  6
 16 17  2  0
 16 18  2  0
 16 19  1  0
 19 20  2  0
 20 21  1  0
 21 22  2  0
 22 23  1  0
 19 24  1  0
 23 24  2  0
 15 25  1  0
 25 26  2  0
 26 27  1  0
 27 28  1  0
 28 29  1  0
 26 30  1  0
 15 31  1  0
 30 31  2  0
 31 32  1  0
 32 33  2  0
 33 34  1  0
 34 35  2  0
 35 36  1  0
 32 37  1  0
 36 37  2  0
 37 38  1  0
  8 39  1  0
  5 40  1  0
 39 40  1  0
M  END
