MAK-UNK-ec98eaf6-32-nitrile
     RDKit          3D

 17 19  0  0  0  0  0  0  0  0999 V2000
    6.5070   -4.2360   20.2080 C   0  0  0  0  0  0  0  0  0  0  0  0
    5.4330   -3.8950   19.6160 N   0  0  0  0  0  0  0  0  0  0  0  0
    7.2100   -3.4410   21.0450 N   0  0  0  0  0  0  0  0  0  0  0  0
    6.7160   -2.5910   22.1290 C   0  0  0  0  0  0  0  0  0  0  0  0
    7.4140   -1.2020   21.8770 C   0  0  2  0  0  0  0  0  0  0  0  0
    7.5220   -1.3050   20.3990 C   0  0  0  0  0  0  0  0  0  0  0  0
    8.2520   -2.6420   20.5370 C   0  0  1  0  0  0  0  0  0  0  0  0
    9.2920   -2.5520   21.6950 C   0  0  0  0  0  0  0  0  0  0  0  0
    8.9210   -1.1800   22.2160 C   0  0  1  0  0  0  0  0  0  0  0  0
    9.6680   -0.1890   21.6290 N   0  0  0  0  0  0  0  0  0  0  0  0
   10.7720    0.2930   22.3770 C   0  0  0  0  0  0  0  0  0  0  0  0
   11.9540    0.4980   23.3780 C   0  0  0  0  0  0  0  0  0  0  0  0
   12.4540   -0.4210   24.4470 C   0  0  0  0  0  0  0  0  0  0  0  0
   11.8530   -1.6080   24.6300 C   0  0  0  0  0  0  0  0  0  0  0  0
   10.8240   -1.8680   23.8060 C   0  0  0  0  0  0  0  0  0  0  0  0
   10.1300   -3.0450   23.8910 C   0  0  0  0  0  0  0  0  0  0  0  0
   10.3870   -0.9960   22.8270 C   0  0  0  0  0  0  0  0  0  0  0  0
  1  2  2  3
  1  3  1  0
  3  4  1  0
  5  4  1  1
  5  6  1  0
  3  7  1  0
  6  7  1  0
  7  8  1  1
  5  9  1  0
  8  9  1  0
  9 10  1  6
 10 11  1  0
 11 12  2  0
 12 13  1  0
 13 14  2  0
 14 15  1  0
 15 16  1  0
 11 17  1  0
 15 17  2  0
M  END
