MAK-UNK-516d8086-25-acrylamide
     RDKit          3D

 25 27  0  0  0  0  0  0  0  0999 V2000
    7.2810   -2.9480   18.7770 C   0  0  0  0  0  0  0  0  0  0  0  0
    6.7420   -1.9440   19.7810 C   0  0  0  0  0  0  0  0  0  0  0  0
    5.6320   -2.6350   20.5240 C   0  0  0  0  0  0  0  0  0  0  0  0
    4.6740   -3.0450   19.9090 O   0  0  0  0  0  0  0  0  0  0  0  0
    5.7040   -2.8790   21.9810 C   0  0  0  0  0  0  0  0  0  0  0  0
    4.5040   -3.2710   22.8670 C   0  0  0  0  0  0  0  0  0  0  0  0
    4.6360   -3.4930   24.2310 N   0  0  0  0  0  0  0  0  0  0  0  0
    5.8640   -3.3690   24.8400 C   0  0  0  0  0  0  0  0  0  0  0  0
    5.9420   -3.6020   26.1800 N   0  0  0  0  0  0  0  0  0  0  0  0
    5.1270   -4.6620   26.5310 C   0  0  0  0  0  0  0  0  0  0  0  0
    4.4650   -5.7080   25.5730 C   0  0  0  0  0  0  0  0  0  0  0  0
    6.9980   -3.0270   24.1590 C   0  0  0  0  0  0  0  0  0  0  0  0
    8.3860   -2.8640   24.7330 C   0  0  0  0  0  0  0  0  0  0  0  0
    9.3710   -2.0160   23.8120 C   0  0  0  0  0  0  0  0  0  0  0  0
   10.8620   -2.0520   24.1600 C   0  0  0  0  0  0  0  0  0  0  0  0
   10.4950   -3.2220   24.7190 C   0  0  0  0  0  0  0  0  0  0  0  0
    9.9800   -2.1700   24.0420 C   0  0  0  0  0  0  0  0  0  0  0  0
   11.4440   -2.1810   24.3410 C   0  0  0  0  0  0  0  0  0  0  0  0
   11.9300   -0.9170   23.7700 C   0  0  0  0  0  0  0  0  0  0  0  0
   10.5480   -0.8550   23.4430 C   0  0  0  0  0  0  0  0  0  0  0  0
   12.0770    0.3290   23.1400 C   0  0  0  0  0  0  0  0  0  0  0  0
   12.6780    1.2040   22.5780 O   0  0  0  0  0  0  0  0  0  0  0  0
   13.1320   -0.5820   23.3290 N   0  0  0  0  0  0  0  0  0  0  0  0
   12.9160   -1.6910   24.3700 C   0  0  0  0  0  0  0  0  0  0  0  0
    6.9200   -2.7730   22.6890 C   0  0  0  0  0  0  0  0  0  0  0  0
  1  2  1  0
  2  3  1  0
  3  4  2  0
  3  5  1  0
  5  6  2  0
  6  7  1  0
  7  8  2  0
  8  9  1  0
  9 10  1  0
 10 11  1  0
  8 12  1  0
 12 13  1  0
 13 14  1  0
 14 15  1  0
 15 16  2  0
 16 17  1  0
 17 18  2  0
 18 19  1  0
 15 20  1  0
 19 20  2  0
 19 21  1  0
 21 22  2  0
 21 23  1  0
 18 24  1  0
 23 24  1  0
  5 25  1  0
 12 25  2  0
M  END
