MAK-UNK-d4768348-6-nitrile
     RDKit          3D

 16 17  0  0  0  0  0  0  0  0999 V2000
    6.4110   -4.3300   20.2840 C   0  0  0  0  0  0  0  0  0  0  0  0
    5.2900   -4.0910   19.7440 N   0  0  0  0  0  0  0  0  0  0  0  0
    6.5740   -4.9840   21.4790 N   0  0  0  0  0  0  0  0  0  0  0  0
    7.3070   -4.3980   22.6000 C   0  0  0  0  0  0  0  0  0  0  0  0
    6.3760   -4.0590   23.7740 C   0  0  0  0  0  0  0  0  0  0  0  0
    5.4920   -5.2530   24.0970 C   0  0  0  0  0  0  0  0  0  0  0  0
    4.7410   -5.1190   25.7360 S   0  0  0  0  0  0  0  0  0  0  0  0
    4.1080   -6.3900   26.0030 O   0  0  0  0  0  0  0  0  0  0  0  0
    5.7480   -4.5860   26.6160 O   0  0  0  0  0  0  0  0  0  0  0  0
    3.4690   -3.8920   25.6540 C   0  0  0  0  0  0  0  0  0  0  0  0
    3.6910   -2.5110   25.8880 C   0  0  0  0  0  0  0  0  0  0  0  0
    2.6670   -1.5100   25.8510 C   0  0  0  0  0  0  0  0  0  0  0  0
    1.2280   -2.5490   25.4860 S   0  0  0  0  0  0  0  0  0  0  0  0
    1.9740   -4.1300   25.3640 C   0  0  0  0  0  0  0  0  0  0  0  0
    4.7190   -5.6170   22.9840 C   0  0  0  0  0  0  0  0  0  0  0  0
    5.6590   -6.0820   21.8520 C   0  0  0  0  0  0  0  0  0  0  0  0
  1  2  2  3
  1  3  1  0
  3  4  1  0
  4  5  1  0
  5  6  1  0
  6  7  1  0
  7  8  2  0
  7  9  2  0
  7 10  1  0
 10 11  2  0
 11 12  1  0
 12 13  1  0
 10 14  1  0
 13 14  2  0
  6 15  1  0
  3 16  1  0
 15 16  1  0
M  END
