MAK-UNK-10dfa458-8-vinylsulfonamide
     RDKit          3D

 24 26  0  0  0  0  0  0  0  0999 V2000
    5.9610   -5.2610   20.6850 C   0  0  0  0  0  0  0  0  0  0  0  0
    6.2070   -5.4340   22.2180 C   0  0  0  0  0  0  0  0  0  0  0  0
    4.7510   -5.9860   23.1160 S   0  0  0  0  0  0  0  0  0  0  0  0
    3.5640   -5.5580   22.4040 O   0  0  0  0  0  0  0  0  0  0  0  0
    4.9560   -7.3310   23.5800 O   0  0  0  0  0  0  0  0  0  0  0  0
    4.7250   -5.1600   24.5240 N   0  0  0  0  0  0  0  0  0  0  0  0
    5.9620   -4.7380   25.1330 C   0  0  0  0  0  0  0  0  0  0  0  0
    6.1490   -3.4080   24.3730 C   0  0  0  0  0  0  0  0  0  0  0  0
    5.2870   -3.3850   23.1440 N   0  0  0  0  0  0  0  0  0  0  0  0
    5.6730   -2.5020   22.0520 C   0  0  0  0  0  0  0  0  0  0  0  0
    7.1430   -2.2910   22.2980 C   0  0  0  0  0  0  0  0  0  0  0  0
    7.5510   -0.9160   22.0210 C   0  0  0  0  0  0  0  0  0  0  0  0
    8.3630   -0.1650   21.9960 N   0  0  0  0  0  0  0  0  0  0  0  0
    9.5040   -1.0610   22.4820 C   0  0  0  0  0  0  0  0  0  0  0  0
   10.8200   -0.4140   22.5950 C   0  0  0  0  0  0  0  0  0  0  0  0
   10.9050    1.0740   22.8350 C   0  0  0  0  0  0  0  0  0  0  0  0
   12.1940    1.6060   22.9250 C   0  0  0  0  0  0  0  0  0  0  0  0
   13.2950    0.7740   22.7930 C   0  0  0  0  0  0  0  0  0  0  0  0
   13.1740   -0.6270   22.5720 C   0  0  0  0  0  0  0  0  0  0  0  0
   11.9420   -1.2100   22.4740 C   0  0  0  0  0  0  0  0  0  0  0  0
    9.4690   -2.4030   22.8280 N   0  0  0  0  0  0  0  0  0  0  0  0
    8.1780   -3.0860   22.7280 C   0  0  0  0  0  0  0  0  0  0  0  0
    3.8760   -3.3260   23.4890 C   0  0  0  0  0  0  0  0  0  0  0  0
    3.6780   -4.1610   24.5660 C   0  0  0  0  0  0  0  0  0  0  0  0
  1  2  1  0
  3  2  1  0
  3  4  2  0
  3  5  2  0
  3  6  1  0
  6  7  1  0
  7  8  1  0
  8  9  1  0
  9 10  1  0
 10 11  1  0
 11 12  2  0
 12 13  1  0
 13 14  2  0
 14 15  1  0
 15 16  2  0
 16 17  1  0
 17 18  2  0
 18 19  1  0
 15 20  1  0
 19 20  2  0
 14 21  1  0
 11 22  1  0
 21 22  2  0
  9 23  1  0
  6 24  1  0
 23 24  1  0
M  END
