MAK-UNK-cd94b63c-1-nitrile
     RDKit          3D

 22 23  0  0  0  0  0  0  0  0999 V2000
    6.6760   -3.4540   19.6110 C   0  0  0  0  0  0  0  0  0  0  0  0
    5.8270   -3.1620   18.7250 N   0  0  0  0  0  0  0  0  0  0  0  0
    6.7000   -2.7220   20.7600 N   0  0  0  0  0  0  0  0  0  0  0  0
    7.4000   -1.4380   20.8370 C   0  0  0  0  0  0  0  0  0  0  0  0
    8.5430   -1.6020   21.8340 C   0  0  0  0  0  0  0  0  0  0  0  0
    8.1120   -2.2630   23.0840 N   0  0  0  0  0  0  0  0  0  0  0  0
    9.2430   -2.4600   23.9630 C   0  0  0  0  0  0  0  0  0  0  0  0
   10.4410   -1.5740   23.6300 C   0  0  0  0  0  0  0  0  0  0  0  0
   11.8310   -2.1420   23.4810 C   0  0  0  0  0  0  0  0  0  0  0  0
   12.9520   -1.1770   23.1510 C   0  0  0  0  0  0  0  0  0  0  0  0
   12.6470    0.1920   23.0020 C   0  0  0  0  0  0  0  0  0  0  0  0
   11.3460    0.6620   23.1470 C   0  0  0  0  0  0  0  0  0  0  0  0
   11.0670    2.0050   22.9960 C   0  0  0  0  0  0  0  0  0  0  0  0
    9.9320    2.4360   22.9950 O   0  0  0  0  0  0  0  0  0  0  0  0
   12.4110    2.9680   22.8240 S   0  0  0  0  0  0  0  0  0  0  0  0
   11.6240    4.3620   22.0000 C   0  0  0  0  0  0  0  0  0  0  0  0
   11.6190    5.5840   22.6750 C   0  0  0  0  0  0  0  0  0  0  0  0
   12.9900    5.9320   22.9540 N   0  0  0  0  0  0  0  0  0  0  0  0
   13.9950    5.0860   22.5310 C   0  0  0  0  0  0  0  0  0  0  0  0
   10.2600   -0.1850   23.4550 C   0  0  0  0  0  0  0  0  0  0  0  0
    7.4270   -3.4400   22.8920 C   0  0  0  0  0  0  0  0  0  0  0  0
    6.3010   -3.2930   22.0590 C   0  0  0  0  0  0  0  0  0  0  0  0
  1  2  2  3
  1  3  1  0
  3  4  1  0
  4  5  1  0
  5  6  1  0
  6  7  1  0
  7  8  1  0
  8  9  2  0
  9 10  1  0
 10 11  2  0
 11 12  1  0
 12 13  1  0
 13 14  2  0
 13 15  1  0
 15 16  1  0
 16 17  1  0
 17 18  1  0
 18 19  1  0
  8 20  1  0
 12 20  2  0
  6 21  1  0
  3 22  1  0
 21 22  1  0
M  END
