MAK-UNK-e4a48a85-2-chloroacetamide
     RDKit          3D

 22 23  0  0  0  0  0  0  0  0999 V2000
    7.1070   -2.9450   18.7290 C   0  0  0  0  0  0  0  0  0  0  0  0
    6.1540   -3.2640   19.8330 C   0  0  0  0  0  0  0  0  0  0  0  0
    5.3410   -4.1850   19.7420 O   0  0  0  0  0  0  0  0  0  0  0  0
    6.2350   -2.4790   20.9890 N   0  0  0  0  0  0  0  0  0  0  0  0
    5.9670   -3.1300   22.2890 C   0  0  0  0  0  0  0  0  0  0  0  0
    7.2740   -3.4580   22.9940 C   0  0  0  0  0  0  0  0  0  0  0  0
    8.0040   -2.1700   23.1260 N   0  0  0  0  0  0  0  0  0  0  0  0
    9.2080   -2.2850   23.9510 C   0  0  0  0  0  0  0  0  0  0  0  0
   10.1600   -1.1860   23.5460 C   0  0  0  0  0  0  0  0  0  0  0  0
   10.3430   -0.1650   24.6740 C   0  0  1  0  0  0  0  0  0  0  0  0
   11.5950    0.5610   24.5250 N   0  0  0  0  0  0  0  0  0  0  0  0
   12.3190   -0.3280   23.6620 C   0  0  0  0  0  0  0  0  0  0  0  0
   12.4870   -1.5960   24.2610 C   0  0  0  0  0  0  0  0  0  0  0  0
   13.1650   -2.1600   23.0960 C   0  0  0  0  0  0  0  0  0  0  0  0
   13.4780   -1.3030   21.6490 S   0  0  0  0  0  0  0  0  0  0  0  0
   12.7900    0.0160   22.3470 C   0  0  0  0  0  0  0  0  0  0  0  0
    9.1520    0.8150   24.7810 C   0  0  0  0  0  0  0  0  0  0  0  0
    8.9510    1.8000   24.0650 O   0  0  0  0  0  0  0  0  0  0  0  0
    8.2260    0.5590   25.8050 N   0  0  0  0  0  0  0  0  0  0  0  0
    7.3080   -0.4460   25.8410 C   0  0  0  0  0  0  0  0  0  0  0  0
    8.3170   -1.6950   21.7670 C   0  0  0  0  0  0  0  0  0  0  0  0
    7.1990   -1.3670   21.0050 C   0  0  0  0  0  0  0  0  0  0  0  0
  1  2  1  0
  2  3  2  0
  2  4  1  0
  4  5  1  0
  5  6  1  0
  6  7  1  0
  7  8  1  0
  8  9  1  0
 10  9  1  6
 10 11  1  0
 11 12  1  0
 12 13  1  0
 13 14  2  0
 14 15  1  0
 12 16  2  0
 15 16  1  0
 10 17  1  0
 17 18  2  0
 17 19  1  0
 19 20  1  0
  7 21  1  0
  4 22  1  0
 21 22  1  0
M  END
