MAK-UNK-ec98eaf6-9-nitrile
     RDKit          3D

 24 27  0  0  0  0  0  0  0  0999 V2000
    6.7110   -3.7800   19.8830 C   0  0  0  0  0  0  0  0  0  0  0  0
    5.8600   -4.7270   19.9520 N   0  0  0  0  0  0  0  0  0  0  0  0
    6.7170   -2.9110   20.9280 N   0  0  0  0  0  0  0  0  0  0  0  0
    7.5830   -1.7170   21.0570 C   0  0  0  0  0  0  0  0  0  0  0  0
    8.5020   -2.5130   21.9570 C   0  0  2  0  0  0  0  0  0  0  0  0
    7.8050   -3.8240   22.2990 C   0  0  0  0  0  0  0  0  0  0  0  0
    6.3310   -3.3750   22.3410 C   0  0  1  0  0  0  0  0  0  0  0  0
    6.9520   -2.8740   23.6610 C   0  0  0  0  0  0  0  0  0  0  0  0
    8.2690   -2.1940   23.3360 N   0  0  0  0  0  0  0  0  0  0  0  0
    9.3740   -2.6640   24.1210 C   0  0  1  0  0  0  0  0  0  0  0  0
   10.3520   -1.5410   23.8950 C   0  0  0  0  0  0  0  0  0  0  0  0
   11.4030   -1.9750   22.8700 C   0  0  0  0  0  0  0  0  0  0  0  0
   12.3990   -0.8350   22.5320 C   0  0  0  0  0  0  0  0  0  0  0  0
   12.2220    0.5310   23.2190 C   0  0  0  0  0  0  0  0  0  0  0  0
   13.0920    1.6570   22.8900 C   0  0  0  0  0  0  0  0  0  0  0  0
   11.2490    0.8130   24.1540 C   0  0  0  0  0  0  0  0  0  0  0  0
   10.2700   -0.2170   24.5370 C   0  0  0  0  0  0  0  0  0  0  0  0
    8.7950   -2.8750   25.4990 C   0  0  0  0  0  0  0  0  0  0  0  0
    8.3520   -1.7190   26.3930 C   0  0  0  0  0  0  0  0  0  0  0  0
    7.7780   -2.0430   27.7580 C   0  0  0  0  0  0  0  0  0  0  0  0
    7.6810   -3.5030   28.1490 C   0  0  0  0  0  0  0  0  0  0  0  0
    8.1510   -4.5600   27.1980 C   0  0  0  0  0  0  0  0  0  0  0  0
    8.0740   -6.0030   27.5710 C   0  0  0  0  0  0  0  0  0  0  0  0
    8.6720   -4.2130   25.9410 C   0  0  0  0  0  0  0  0  0  0  0  0
  1  2  2  3
  1  3  1  0
  3  4  1  0
  5  4  1  6
  5  6  1  0
  3  7  1  0
  6  7  1  0
  7  8  1  1
  5  9  1  0
  8  9  1  0
  9 10  1  0
 10 11  1  1
 11 12  2  0
 12 13  1  0
 13 14  2  0
 14 15  1  0
 14 16  1  0
 11 17  1  0
 16 17  2  0
 10 18  1  0
 18 19  2  0
 19 20  1  0
 20 21  2  0
 21 22  1  0
 22 23  1  0
 18 24  1  0
 22 24  2  0
M  END
