MAK-UNK-0d6072ac-27
     RDKit          3D

 19 21  0  0  0  0  0  0  0  0999 V2000
   10.5760    2.8060   22.5160 C   0  0  0  0  0  0  0  0  0  0  0  0
   11.5890    2.0270   23.3170 C   0  0  2  0  0  0  0  0  0  0  0  0
   12.9840    2.0540   22.8110 C   0  0  0  0  0  0  0  0  0  0  0  0
   13.4840    3.3380   22.4450 O   0  0  0  0  0  0  0  0  0  0  0  0
   13.6220    0.8520   22.7540 O   0  0  0  0  0  0  0  0  0  0  0  0
   11.1640    0.6110   23.5380 C   0  0  0  0  0  0  0  0  0  0  0  0
   11.9310   -0.4110   24.3580 C   0  0  0  0  0  0  0  0  0  0  0  0
   11.4490   -1.7080   24.5090 C   0  0  0  0  0  0  0  0  0  0  0  0
   10.2440   -2.1030   23.9100 C   0  0  0  0  0  0  0  0  0  0  0  0
    9.5280   -1.1730   23.1510 C   0  0  0  0  0  0  0  0  0  0  0  0
    9.9940    0.2000   22.9620 C   0  0  0  0  0  0  0  0  0  0  0  0
    8.3720   -1.8010   22.6590 N   0  0  0  0  0  0  0  0  0  0  0  0
    8.3880   -3.1590   23.1380 C   0  0  0  0  0  0  0  0  0  0  0  0
    7.3710   -4.1170   22.8440 N   0  0  0  0  0  0  0  0  0  0  0  0
    7.5850   -5.3390   23.3910 N   0  0  0  0  0  0  0  0  0  0  0  0
    8.7030   -5.5570   24.1510 C   0  0  0  0  0  0  0  0  0  0  0  0
    8.8340   -7.1120   24.7440 Cl  0  0  0  0  0  0  0  0  0  0  0  0
    9.6670   -4.5890   24.4160 C   0  0  0  0  0  0  0  0  0  0  0  0
    9.5420   -3.3260   23.9040 C   0  0  0  0  0  0  0  0  0  0  0  0
  2  1  1  6
  2  3  1  0
  3  4  2  0
  3  5  1  0
  2  6  1  0
  6  7  2  0
  7  8  1  0
  8  9  2  0
  9 10  1  0
  6 11  1  0
 10 11  2  0
 10 12  1  0
 12 13  1  0
 13 14  1  0
 14 15  2  0
 15 16  1  0
 16 17  1  0
 16 18  2  0
  9 19  1  0
 13 19  2  0
 18 19  1  0
M  END
