MAK-UNK-8fdbca50-15-vinylsulfonamide
     RDKit          3D

 41 44  0  0  0  0  0  0  0  0999 V2000
    6.1210   -5.5110   20.3110 C   0  0  0  0  0  0  0  0  0  0  0  0
    6.3510   -5.9530   21.7590 C   0  0  0  0  0  0  0  0  0  0  0  0
    5.3300   -5.0390   22.8890 S   0  0  0  0  0  0  0  0  0  0  0  0
    3.9300   -5.1630   22.5250 O   0  0  0  0  0  0  0  0  0  0  0  0
    5.7970   -5.2530   24.2450 O   0  0  0  0  0  0  0  0  0  0  0  0
    5.7170   -3.4690   22.5480 N   0  0  0  0  0  0  0  0  0  0  0  0
    5.0010   -2.9190   21.5520 C   0  0  0  0  0  0  0  0  0  0  0  0
    5.5490   -1.6920   20.8310 C   0  0  0  0  0  0  0  0  0  0  0  0
    6.5450   -1.1600   21.7900 C   0  0  0  0  0  0  0  0  0  0  0  0
    6.9090    0.1820   21.1870 C   0  0  0  0  0  0  0  0  0  0  0  0
    6.1110    0.9720   20.6430 O   0  0  0  0  0  0  0  0  0  0  0  0
    8.2710    0.3820   21.3370 N   0  0  0  0  0  0  0  0  0  0  0  0
    8.5870    1.7490   21.7920 C   0  0  0  0  0  0  0  0  0  0  0  0
    8.9150   -0.5780   22.1010 C   0  0  1  0  0  0  0  0  0  0  0  0
    9.2930   -1.9090   21.7240 C   0  0  0  0  0  0  0  0  0  0  0  0
   10.3800   -0.8940   22.1700 C   0  0  0  0  0  0  0  0  0  0  0  0
   10.8840   -2.1230   21.6390 C   0  0  0  0  0  0  0  0  0  0  0  0
   12.3160   -2.3850   21.7230 C   0  0  0  0  0  0  0  0  0  0  0  0
   13.1090   -1.3370   22.3600 C   0  0  0  0  0  0  0  0  0  0  0  0
   12.5460   -0.1790   22.8470 C   0  0  0  0  0  0  0  0  0  0  0  0
   13.3240    0.7650   23.4180 F   0  0  0  0  0  0  0  0  0  0  0  0
   11.2200    0.0170   22.7520 C   0  0  0  0  0  0  0  0  0  0  0  0
   10.7470    1.1930   23.2670 C   0  0  0  0  0  0  0  0  0  0  0  0
   11.0340    2.4880   22.7720 C   0  0  0  0  0  0  0  0  0  0  0  0
   10.2060    3.1230   23.7380 C   0  0  0  0  0  0  0  0  0  0  0  0
   10.0980    4.5190   23.7090 C   0  0  0  0  0  0  0  0  0  0  0  0
   11.0290    5.0250   22.6800 N   0  0  0  0  0  0  0  0  0  0  0  0
   12.2260    4.3290   22.5510 C   0  0  0  0  0  0  0  0  0  0  0  0
    9.5150    2.2890   24.7020 C   0  0  0  0  0  0  0  0  0  0  0  0
    9.8710    1.0320   24.4130 N   0  0  0  0  0  0  0  0  0  0  0  0
    9.3810   -0.4040   25.2440 S   0  0  0  0  0  0  0  0  0  0  0  0
   10.1000   -1.5050   24.6150 O   0  0  0  0  0  0  0  0  0  0  0  0
    9.5970   -0.1640   26.6690 O   0  0  0  0  0  0  0  0  0  0  0  0
    7.6750   -0.6650   24.9920 C   0  0  0  0  0  0  0  0  0  0  0  0
    8.2970   -1.7390   24.1420 C   0  0  0  0  0  0  0  0  0  0  0  0
    9.7470   -1.3710   24.5410 C   0  0  0  0  0  0  0  0  0  0  0  0
   10.0510   -0.3110   25.4430 C   0  0  0  0  0  0  0  0  0  0  0  0
    9.1590    0.5560   26.1030 N   0  0  0  0  0  0  0  0  0  0  0  0
    7.8600    0.3520   25.8450 C   0  0  0  0  0  0  0  0  0  0  0  0
    5.9140   -1.1020   23.1940 C   0  0  0  0  0  0  0  0  0  0  0  0
    5.7610   -2.5530   23.6880 C   0  0  0  0  0  0  0  0  0  0  0  0
  1  2  1  0
  3  2  1  0
  3  4  2  0
  3  5  2  0
  3  6  1  0
  6  7  1  0
  7  8  1  0
  8  9  1  0
  9 10  1  0
 10 11  2  0
 10 12  1  0
 12 13  1  0
 12 14  1  0
 14 15  1  6
 14 16  1  0
 16 17  2  0
 17 18  1  0
 18 19  2  0
 19 20  1  0
 20 21  1  0
 16 22  1  0
 20 22  2  0
 22 23  1  0
 23 24  2  0
 24 25  1  0
 25 26  1  0
 26 27  1  0
 27 28  1  0
 25 29  2  0
 23 30  1  0
 29 30  1  0
 30 31  1  0
 31 32  2  0
 31 33  2  0
 31 34  1  0
 34 35  2  0
 35 36  1  0
 36 37  2  0
 37 38  1  0
 34 39  1  0
 38 39  2  0
  9 40  1  0
  6 41  1  0
 40 41  1  0
M  END
