MAK-UNK-90d0606b-3-vinylsulfonamide
     RDKit          3D

 25 27  0  0  0  0  0  0  0  0999 V2000
    9.1860   -4.1920   20.3570 C   0  0  0  0  0  0  0  0  0  0  0  0
    7.9130   -3.4380   19.7940 C   0  0  0  0  0  0  0  0  0  0  0  0
    6.3740   -3.7060   20.7410 S   0  0  0  0  0  0  0  0  0  0  0  0
    5.2060   -4.1590   19.9580 O   0  0  0  0  0  0  0  0  0  0  0  0
    6.7170   -4.4780   21.9200 O   0  0  0  0  0  0  0  0  0  0  0  0
    6.0970   -2.1080   21.2470 N   0  0  0  0  0  0  0  0  0  0  0  0
    5.8650   -1.8750   22.6660 C   0  0  0  0  0  0  0  0  0  0  0  0
    7.3230   -2.1980   23.0460 C   0  0  1  0  0  0  0  0  0  0  0  0
    7.8460   -2.3730   21.6120 C   0  0  0  0  0  0  0  0  0  0  0  0
    7.1710   -1.1330   20.9790 C   0  0  2  0  0  0  0  0  0  0  0  0
    8.4870   -0.8060   21.7470 C   0  0  0  0  0  0  0  0  0  0  0  0
    8.1870   -1.0220   23.2230 N   0  0  0  0  0  0  0  0  0  0  0  0
    9.4050   -1.4490   23.9280 C   0  0  1  0  0  0  0  0  0  0  0  0
    9.7910   -2.8700   23.6060 C   0  0  0  0  0  0  0  0  0  0  0  0
    8.7210   -3.8010   24.0720 N   0  0  0  0  0  0  0  0  0  0  0  0
    8.9980   -5.3990   24.5060 S   0  0  0  0  0  0  0  0  0  0  0  0
    9.1920   -6.2270   22.9580 C   0  0  0  0  0  0  0  0  0  0  0  0
   10.2590   -5.4640   25.1860 O   0  0  0  0  0  0  0  0  0  0  0  0
    7.7840   -5.8320   25.1540 O   0  0  0  0  0  0  0  0  0  0  0  0
   10.5460   -0.4770   23.6120 C   0  0  0  0  0  0  0  0  0  0  0  0
   11.8200   -0.9090   23.0920 C   0  0  0  0  0  0  0  0  0  0  0  0
   12.8000   -0.0490   22.8240 C   0  0  0  0  0  0  0  0  0  0  0  0
   12.5940    1.3790   23.0570 C   0  0  0  0  0  0  0  0  0  0  0  0
   11.3680    1.8270   23.5610 C   0  0  0  0  0  0  0  0  0  0  0  0
   10.3520    0.9020   23.8370 C   0  0  0  0  0  0  0  0  0  0  0  0
  1  2  1  0
  3  2  1  0
  3  4  2  0
  3  5  2  0
  3  6  1  0
  6  7  1  0
  8  7  1  6
  8  9  1  0
  6 10  1  0
  9 10  1  0
 10 11  1  1
  8 12  1  0
 11 12  1  0
 12 13  1  0
 13 14  1  6
 14 15  1  0
 16 15  1  0
 16 17  1  0
 16 18  2  0
 16 19  2  0
 13 20  1  0
 20 21  2  0
 21 22  1  0
 22 23  2  0
 23 24  1  0
 20 25  1  0
 24 25  2  0
M  END
