MAK-UNK-df1a028e-3
     RDKit          3D

 26 30  0  0  0  0  0  0  0  0999 V2000
    8.4790   -1.9270   25.2280 O   0  0  0  0  0  0  0  0  0  0  0  0
    9.1480   -2.2780   24.2690 C   0  0  0  0  0  0  0  0  0  0  0  0
   10.6000   -2.0820   24.2040 C   0  0  0  0  0  0  0  0  0  0  0  0
   11.5300   -3.2710   24.5190 C   0  0  0  0  0  0  0  0  0  0  0  0
   12.9640   -2.7380   24.3240 C   0  0  0  0  0  0  0  0  0  0  0  0
   13.8710   -3.0930   25.0600 O   0  0  0  0  0  0  0  0  0  0  0  0
   13.1230   -1.8330   23.3040 N   0  0  0  0  0  0  0  0  0  0  0  0
   12.4020   -0.6670   23.3910 C   0  0  0  0  0  0  0  0  0  0  0  0
   13.0750    0.6240   22.9930 C   0  0  0  0  0  0  0  0  0  0  0  0
   12.1420    1.8390   23.1720 C   0  0  0  0  0  0  0  0  0  0  0  0
   10.7020    1.6630   23.6950 C   0  0  0  0  0  0  0  0  0  0  0  0
   10.2860    0.2580   24.0120 C   0  0  0  0  0  0  0  0  0  0  0  0
   11.1170   -0.7970   23.8540 C   0  0  0  0  0  0  0  0  0  0  0  0
    8.5960   -2.7960   23.1690 N   0  0  0  0  0  0  0  0  0  0  0  0
    7.3760   -3.6330   23.2950 C   0  0  0  0  0  0  0  0  0  0  0  0
    6.8910   -3.5250   21.9970 C   0  0  2  0  0  0  0  0  0  0  0  0
    7.8810   -3.1100   21.1520 C   0  0  0  0  0  0  0  0  0  0  0  0
    8.3830   -2.0040   21.9480 C   0  0  1  0  0  0  0  0  0  0  0  0
    7.3070   -1.2360   22.3300 C   0  0  0  0  0  0  0  0  0  0  0  0
    6.2610   -2.1900   21.8240 N   0  0  0  0  0  0  0  0  0  0  0  0
    5.9630   -1.8900   20.5620 C   0  0  0  0  0  0  0  0  0  0  0  0
    5.5930   -2.8320   19.6560 C   0  0  0  0  0  0  0  0  0  0  0  0
    5.3470   -2.4170   18.3830 C   0  0  0  0  0  0  0  0  0  0  0  0
    5.4440   -1.1010   17.9940 C   0  0  0  0  0  0  0  0  0  0  0  0
    5.8020   -0.1500   18.8820 C   0  0  0  0  0  0  0  0  0  0  0  0
    6.0590   -0.5630   20.1580 C   0  0  0  0  0  0  0  0  0  0  0  0
  1  2  2  0
  2  3  1  0
  3  4  2  0
  4  5  1  0
  5  6  2  0
  5  7  1  0
  7  8  1  0
  8  9  1  0
  9 10  2  0
 10 11  1  0
 11 12  2  0
  3 13  1  0
  8 13  2  0
 12 13  1  0
  2 14  1  0
 14 15  1  0
 16 15  1  1
 16 17  1  0
 14 18  1  0
 17 18  1  0
 18 19  1  1
 16 20  1  0
 19 20  1  0
 20 21  1  0
 21 22  2  0
 22 23  1  0
 23 24  2  0
 24 25  1  0
 21 26  1  0
 25 26  2  0
M  END
