MAK-UNK-d1e89583-6
     RDKit          3D

 18 19  0  0  0  0  0  0  0  0999 V2000
    8.6820    1.0760   21.0400 O   0  0  0  0  0  0  0  0  0  0  0  0
    8.1390   -0.2280   21.3580 C   0  0  0  0  0  0  0  0  0  0  0  0
    8.6800   -1.1460   22.2750 N   0  0  0  0  0  0  0  0  0  0  0  0
    9.5560   -0.3130   23.0200 C   0  0  0  0  0  0  0  0  0  0  0  0
   10.8240   -0.6660   22.7000 C   0  0  0  0  0  0  0  0  0  0  0  0
   10.5950    0.5390   23.3880 N   0  0  0  0  0  0  0  0  0  0  0  0
   11.4260    1.5830   23.8870 C   0  0  0  0  0  0  0  0  0  0  0  0
   12.5910    1.2060   23.5710 C   0  0  0  0  0  0  0  0  0  0  0  0
   13.2240    0.1900   22.9440 C   0  0  0  0  0  0  0  0  0  0  0  0
   12.2520   -0.7740   22.5010 C   0  0  0  0  0  0  0  0  0  0  0  0
   12.8680   -2.1370   21.6750 Cl  0  0  0  0  0  0  0  0  0  0  0  0
    6.9910   -0.7290   20.8220 N   0  0  0  0  0  0  0  0  0  0  0  0
    6.2630    0.0170   19.9160 C   0  0  0  0  0  0  0  0  0  0  0  0
    5.0490    0.6620   20.1860 C   0  0  0  0  0  0  0  0  0  0  0  0
    4.4260    1.4400   19.0810 C   0  0  0  0  0  0  0  0  0  0  0  0
    5.1810    1.4470   17.7800 C   0  0  0  0  0  0  0  0  0  0  0  0
    6.3340    0.7990   17.5970 N   0  0  0  0  0  0  0  0  0  0  0  0
    6.8260    0.1170   18.6490 C   0  0  0  0  0  0  0  0  0  0  0  0
  1  2  2  0
  2  3  1  0
  3  4  1  0
  4  5  1  0
  5  6  2  0
  6  7  1  0
  7  8  2  0
  8  9  1  0
  5 10  1  0
  9 10  2  0
 10 11  1  0
  2 12  1  0
 12 13  1  0
 13 14  2  0
 14 15  1  0
 15 16  2  0
 16 17  1  0
 13 18  1  0
 17 18  2  0
M  END
