MAK-UNK-af83ef51-26-acrylamide
     RDKit          3D

 31 33  0  0  0  0  0  0  0  0999 V2000
    7.1730   -3.2440   19.3870 C   0  0  0  0  0  0  0  0  0  0  0  0
    5.8860   -2.6630   19.9130 C   0  0  0  0  0  0  0  0  0  0  0  0
    5.7880   -2.9160   21.4020 C   0  0  0  0  0  0  0  0  0  0  0  0
    4.8300   -3.5660   21.8420 O   0  0  0  0  0  0  0  0  0  0  0  0
    6.8510   -2.3700   22.1270 N   0  0  0  0  0  0  0  0  0  0  0  0
    7.7540   -3.0300   23.0040 C   0  0  0  0  0  0  0  0  0  0  0  0
    9.1300   -2.7420   22.9660 C   0  0  0  0  0  0  0  0  0  0  0  0
    9.4340   -1.2890   23.0380 N   0  0  0  0  0  0  0  0  0  0  0  0
   10.8940   -0.9680   22.9650 C   0  0  0  0  0  0  0  0  0  0  0  0
   11.1500    0.4040   22.8260 C   0  0  2  0  0  0  0  0  0  0  0  0
   12.6360    0.8340   22.7750 C   0  0  0  0  0  0  0  0  0  0  0  0
   12.5660    2.2640   23.1190 N   0  0  0  0  0  0  0  0  0  0  0  0
   13.2770    3.1110   22.1160 C   0  0  0  0  0  0  0  0  0  0  0  0
   12.6090    4.1040   21.4640 O   0  0  0  0  0  0  0  0  0  0  0  0
   14.7530    2.8750   21.8000 C   0  0  0  0  0  0  0  0  0  0  0  0
   15.7420    4.0930   22.0430 C   0  0  0  0  0  0  0  0  0  0  0  0
   16.5530    4.3830   23.3510 N   0  0  0  0  0  0  0  0  0  0  0  0
   17.9210    4.3680   23.9010 C   0  0  0  0  0  0  0  0  0  0  0  0
   18.3450    3.1660   24.2780 C   0  0  0  0  0  0  0  0  0  0  0  0
   19.6860    2.9590   24.9140 C   0  0  0  0  0  0  0  0  0  0  0  0
   20.6550    4.0840   25.1470 C   0  0  0  0  0  0  0  0  0  0  0  0
   22.0170    3.9710   25.7600 C   0  0  0  0  0  0  0  0  0  0  0  0
   22.8220    2.9320   25.4750 N   0  0  0  0  0  0  0  0  0  0  0  0
   20.1720    5.2800   24.7280 C   0  0  0  0  0  0  0  0  0  0  0  0
   18.9320    5.4480   24.1650 N   0  0  0  0  0  0  0  0  0  0  0  0
   11.2510    2.5050   23.4290 C   0  0  0  0  0  0  0  0  0  0  0  0
   10.5910    1.2140   23.8040 C   0  0  1  0  0  0  0  0  0  0  0  0
    9.1700    1.2740   23.7250 O   0  0  0  0  0  0  0  0  0  0  0  0
    8.5670    0.8250   24.9340 C   0  0  0  0  0  0  0  0  0  0  0  0
    8.7010   -0.6660   21.9210 C   0  0  0  0  0  0  0  0  0  0  0  0
    7.1770   -0.9500   21.8940 C   0  0  0  0  0  0  0  0  0  0  0  0
  1  2  1  0
  2  3  1  0
  3  4  2  0
  3  5  1  0
  5  6  1  0
  6  7  1  0
  7  8  1  0
  8  9  1  0
 10  9  1  1
 10 11  1  0
 11 12  1  0
 12 13  1  0
 13 14  2  0
 13 15  1  0
 15 16  1  0
 16 17  1  0
 17 18  1  0
 18 19  2  0
 19 20  1  0
 20 21  2  0
 21 22  1  0
 22 23  3  0
 21 24  1  0
 18 25  1  0
 24 25  2  0
 12 26  1  0
 10 27  1  0
 26 27  1  0
 27 28  1  6
 28 29  1  0
  8 30  1  0
  5 31  1  0
 30 31  1  0
M  END
