MAK-UNK-8fdbca50-24-vinylsulfonamide
     RDKit          3D

 41 44  0  0  0  0  0  0  0  0999 V2000
    6.0320   -5.4610   20.2870 C   0  0  0  0  0  0  0  0  0  0  0  0
    6.0240   -5.6420   21.8050 C   0  0  0  0  0  0  0  0  0  0  0  0
    4.6300   -4.7580   22.4690 S   0  0  0  0  0  0  0  0  0  0  0  0
    3.4210   -5.5310   22.4480 O   0  0  0  0  0  0  0  0  0  0  0  0
    4.5860   -3.5370   21.7230 O   0  0  0  0  0  0  0  0  0  0  0  0
    4.9530   -4.2730   24.0080 N   0  0  0  0  0  0  0  0  0  0  0  0
    4.5320   -4.8860   25.1910 C   0  0  0  0  0  0  0  0  0  0  0  0
    4.3150   -3.9540   26.4210 C   0  0  0  0  0  0  0  0  0  0  0  0
    5.3870   -2.8680   26.4170 C   0  0  0  0  0  0  0  0  0  0  0  0
    5.7860   -2.6910   27.8910 C   0  0  0  0  0  0  0  0  0  0  0  0
    5.7690   -3.6150   28.7400 O   0  0  0  0  0  0  0  0  0  0  0  0
    6.1810   -1.3700   28.2080 N   0  0  0  0  0  0  0  0  0  0  0  0
    6.9850   -0.7230   27.1470 C   0  0  0  0  0  0  0  0  0  0  0  0
    7.3290    0.7060   27.2720 C   0  0  0  0  0  0  0  0  0  0  0  0
    7.7580   -0.0400   26.1890 C   0  0  0  0  0  0  0  0  0  0  0  0
    8.4590    0.5060   25.2900 C   0  0  0  0  0  0  0  0  0  0  0  0
    8.3350   -0.8770   24.8100 C   0  0  0  0  0  0  0  0  0  0  0  0
    9.2460    0.0490   23.7570 S   0  0  0  0  0  0  0  0  0  0  0  0
    9.9260    1.0880   24.5080 O   0  0  0  0  0  0  0  0  0  0  0  0
    8.4100    0.4390   22.6410 O   0  0  0  0  0  0  0  0  0  0  0  0
   10.4540   -0.9420   23.0510 N   0  0  0  0  0  0  0  0  0  0  0  0
   10.6870   -1.1510   21.6500 C   0  0  0  0  0  0  0  0  0  0  0  0
   11.7890   -1.9860   21.0390 C   0  0  0  0  0  0  0  0  0  0  0  0
   12.9100   -2.7980   21.2330 C   0  0  0  0  0  0  0  0  0  0  0  0
   13.1800   -3.8940   20.3850 N   0  0  0  0  0  0  0  0  0  0  0  0
   14.4610   -4.6210   20.4770 C   0  0  0  0  0  0  0  0  0  0  0  0
   12.1570   -2.2800   22.4470 C   0  0  0  0  0  0  0  0  0  0  0  0
   11.4820   -1.7740   23.4930 C   0  0  0  0  0  0  0  0  0  0  0  0
   12.1360   -2.3240   24.4480 C   0  0  0  0  0  0  0  0  0  0  0  0
   11.5840   -3.3320   25.0480 C   0  0  0  0  0  0  0  0  0  0  0  0
   12.2860   -4.0100   25.9500 C   0  0  0  0  0  0  0  0  0  0  0  0
   13.5770   -3.6780   26.2940 C   0  0  0  0  0  0  0  0  0  0  0  0
   14.1840   -2.6040   25.7110 C   0  0  0  0  0  0  0  0  0  0  0  0
   13.3650   -1.8520   24.6750 C   0  0  0  0  0  0  0  0  0  0  0  0
   13.7200   -0.8050   23.9520 F   0  0  0  0  0  0  0  0  0  0  0  0
    7.5070   -1.3610   25.9480 C   0  0  0  0  0  0  0  0  0  0  0  0
    6.5970   -1.0510   29.5940 C   0  0  0  0  0  0  0  0  0  0  0  0
    5.7370   -0.2070   30.2720 C   0  0  0  0  0  0  0  0  0  0  0  0
    8.0630   -0.6100   29.7010 C   0  0  0  0  0  0  0  0  0  0  0  0
    6.5100   -3.2890   25.4740 C   0  0  0  0  0  0  0  0  0  0  0  0
    5.9670   -3.2420   24.0880 C   0  0  0  0  0  0  0  0  0  0  0  0
  1  2  1  0
  3  2  1  0
  3  4  2  0
  3  5  2  0
  3  6  1  0
  6  7  1  0
  7  8  1  0
  8  9  1  0
  9 10  1  0
 10 11  2  0
 10 12  1  0
 12 13  1  0
 13 14  2  0
 14 15  1  0
 15 16  2  0
 16 17  1  0
 18 17  1  0
 18 19  2  0
 18 20  2  0
 18 21  1  0
 21 22  1  0
 22 23  2  0
 23 24  1  0
 24 25  1  0
 25 26  1  0
 23 27  1  0
 21 28  1  0
 27 28  2  0
 28 29  1  0
 29 30  2  0
 30 31  1  0
 31 32  2  0
 32 33  1  0
 29 34  1  0
 33 34  2  0
 34 35  1  0
 13 36  1  0
 17 36  2  0
 12 37  1  0
 37 38  1  0
 37 39  1  0
  9 40  1  0
  6 41  1  0
 40 41  1  0
M  END
