MAK-UNK-0cb6a3ad-4
     RDKit          3D

 11 12  0  0  0  0  0  0  0  0999 V2000
   13.5060   -3.6450   26.0510 C   0  0  0  0  0  0  0  0  0  0  0  0
   12.8490   -2.9360   24.8980 C   0  0  2  0  0  0  0  0  0  0  0  0
   13.1890   -1.5050   25.0460 C   0  0  0  0  0  0  0  0  0  0  0  0
   12.1900   -0.5890   24.9230 C   0  0  0  0  0  0  0  0  0  0  0  0
   11.2000   -0.9180   24.0470 C   0  0  1  0  0  0  0  0  0  0  0  0
   10.7090   -2.2050   24.2140 C   0  0  0  0  0  0  0  0  0  0  0  0
   11.4650   -3.1320   24.9220 C   0  0  0  0  0  0  0  0  0  0  0  0
   10.1790   -0.1370   23.9430 O   0  0  0  0  0  0  0  0  0  0  0  0
   10.7200    0.3120   22.7400 C   0  0  0  0  0  0  0  0  0  0  0  0
   11.7410   -0.7400   22.5560 C   0  0  1  0  0  0  0  0  0  0  0  0
   13.1750   -0.2900   22.2920 C   0  0  0  0  0  0  0  0  0  0  0  0
  2  1  1  1
  2  3  1  0
  3  4  1  0
  5  4  1  1
  5  6  1  0
  2  7  1  0
  6  7  1  0
  5  8  1  0
  8  9  1  0
  5 10  1  0
  9 10  1  0
 10 11  1  1
M  END
