MAK-UNK-ec98eaf6-17-chloroacetamide
     RDKit          3D

 22 24  0  0  0  0  0  0  0  0999 V2000
    7.3670   -3.0260   18.8110 C   0  0  0  0  0  0  0  0  0  0  0  0
    6.3580   -3.3700   19.9050 C   0  0  0  0  0  0  0  0  0  0  0  0
    5.4740   -4.2190   19.7630 O   0  0  0  0  0  0  0  0  0  0  0  0
    6.4560   -2.7000   21.0860 N   0  0  0  0  0  0  0  0  0  0  0  0
    7.3950   -1.5550   21.2230 C   0  0  0  0  0  0  0  0  0  0  0  0
    8.3550   -2.4560   21.9770 C   0  0  2  0  0  0  0  0  0  0  0  0
    7.6300   -3.7850   22.1110 C   0  0  0  0  0  0  0  0  0  0  0  0
    6.2500   -3.2780   22.4720 C   0  0  1  0  0  0  0  0  0  0  0  0
    7.0710   -2.9310   23.7040 C   0  0  0  0  0  0  0  0  0  0  0  0
    8.1610   -2.1390   23.3920 N   0  0  0  0  0  0  0  0  0  0  0  0
    9.3290   -2.5390   24.1380 C   0  0  0  0  0  0  0  0  0  0  0  0
   10.3990   -1.4980   23.9310 C   0  0  0  0  0  0  0  0  0  0  0  0
   11.3010   -1.9990   22.8030 C   0  0  0  0  0  0  0  0  0  0  0  0
   12.4480   -1.1270   22.3890 C   0  0  0  0  0  0  0  0  0  0  0  0
   13.4360   -1.6610   21.1410 Cl  0  0  0  0  0  0  0  0  0  0  0  0
   12.6740    0.1770   23.0790 C   0  0  0  0  0  0  0  0  0  0  0  0
   11.7310    0.5760   24.1710 C   0  0  0  0  0  0  0  0  0  0  0  0
   10.5730   -0.3050   24.5910 C   0  0  0  0  0  0  0  0  0  0  0  0
    9.5950    0.0840   25.7040 C   0  0  0  0  0  0  0  0  0  0  0  0
    8.8870    1.3960   25.3840 C   0  0  0  0  0  0  0  0  0  0  0  0
    8.2460    1.8540   26.5750 O   0  0  0  0  0  0  0  0  0  0  0  0
    7.9880    3.2490   26.5380 C   0  0  0  0  0  0  0  0  0  0  0  0
  1  2  1  0
  2  3  2  0
  2  4  1  0
  4  5  1  0
  6  5  1  6
  6  7  1  0
  4  8  1  0
  7  8  1  0
  8  9  1  1
  6 10  1  0
  9 10  1  0
 10 11  1  0
 11 12  1  0
 12 13  2  0
 13 14  1  0
 14 15  1  0
 14 16  2  0
 16 17  1  0
 12 18  1  0
 17 18  2  0
 18 19  1  0
 19 20  1  0
 20 21  1  0
 21 22  1  0
M  END
