MAK-UNK-ec98eaf6-1-chloroacetamide
     RDKit          3D

 25 28  0  0  0  0  0  0  0  0999 V2000
    7.1320   -2.9760   18.7970 C   0  0  0  0  0  0  0  0  0  0  0  0
    6.1550   -3.2970   19.9130 C   0  0  0  0  0  0  0  0  0  0  0  0
    5.3640   -4.2330   19.7830 O   0  0  0  0  0  0  0  0  0  0  0  0
    6.2020   -2.5180   21.0420 N   0  0  0  0  0  0  0  0  0  0  0  0
    6.9090   -1.2370   21.0890 C   0  0  0  0  0  0  0  0  0  0  0  0
    7.9790   -1.5570   22.1790 C   0  0  1  0  0  0  0  0  0  0  0  0
    6.5880   -1.4980   22.9280 C   0  0  0  0  0  0  0  0  0  0  0  0
    6.1160   -2.8680   22.4500 C   0  0  2  0  0  0  0  0  0  0  0  0
    7.3560   -3.6000   22.9700 C   0  0  0  0  0  0  0  0  0  0  0  0
    8.0370   -2.3670   23.4160 N   0  0  0  0  0  0  0  0  0  0  0  0
    9.3190   -2.5880   24.0730 C   0  0  2  0  0  0  0  0  0  0  0  0
    9.1380   -3.0930   25.4980 C   0  0  0  0  0  0  0  0  0  0  0  0
    9.5540   -4.3910   25.8530 C   0  0  0  0  0  0  0  0  0  0  0  0
    9.3950   -4.8690   27.1440 C   0  0  0  0  0  0  0  0  0  0  0  0
    8.8190   -4.0570   28.1060 C   0  0  0  0  0  0  0  0  0  0  0  0
    8.3980   -2.7640   27.7880 C   0  0  0  0  0  0  0  0  0  0  0  0
    7.8220   -1.9370   28.7560 C   0  0  0  0  0  0  0  0  0  0  0  0
    8.5570   -2.2900   26.4870 C   0  0  0  0  0  0  0  0  0  0  0  0
   10.3950   -1.5760   23.7670 C   0  0  0  0  0  0  0  0  0  0  0  0
   10.4940   -0.2930   24.3750 C   0  0  0  0  0  0  0  0  0  0  0  0
   11.5280    0.6180   24.0410 C   0  0  0  0  0  0  0  0  0  0  0  0
   12.4660    0.2320   23.0840 C   0  0  0  0  0  0  0  0  0  0  0  0
   12.3920   -1.0260   22.4580 C   0  0  0  0  0  0  0  0  0  0  0  0
   13.4560   -1.5710   21.2780 Cl  0  0  0  0  0  0  0  0  0  0  0  0
   11.3310   -1.9340   22.8210 C   0  0  0  0  0  0  0  0  0  0  0  0
  1  2  1  0
  2  3  2  0
  2  4  1  0
  4  5  1  0
  6  5  1  6
  6  7  1  0
  4  8  1  0
  7  8  1  0
  8  9  1  6
  6 10  1  0
  9 10  1  0
 10 11  1  0
 11 12  1  1
 12 13  2  0
 13 14  1  0
 14 15  2  0
 15 16  1  0
 16 17  1  0
 12 18  1  0
 16 18  2  0
 11 19  1  0
 19 20  2  0
 20 21  1  0
 21 22  2  0
 22 23  1  0
 23 24  1  0
 19 25  1  0
 23 25  2  0
M  END
