MAK-UNK-5e88aa6a-13
     RDKit          3D

 12 13  0  0  0  0  0  0  0  0999 V2000
    9.2960   -5.2170   26.8150 C   0  0  0  0  0  0  0  0  0  0  0  0
    8.5640   -4.0850   26.1100 C   0  0  0  0  0  0  0  0  0  0  0  0
    8.4240   -3.0100   25.3450 C   0  0  0  0  0  0  0  0  0  0  0  0
    9.5080   -2.6820   24.9140 N   0  0  0  0  0  0  0  0  0  0  0  0
    9.9670   -1.8080   24.1920 C   0  0  0  0  0  0  0  0  0  0  0  0
   11.1180   -1.3060   23.6060 C   0  0  0  0  0  0  0  0  0  0  0  0
   11.7140   -0.0960   23.9090 C   0  0  0  0  0  0  0  0  0  0  0  0
   12.8600    0.1760   23.1830 C   0  0  0  0  0  0  0  0  0  0  0  0
   13.2140   -1.1000   22.1050 S   0  0  0  0  0  0  0  0  0  0  0  0
   11.8330   -1.9680   22.6230 C   0  0  0  0  0  0  0  0  0  0  0  0
   10.7440   -2.7610   24.7550 N   0  0  0  0  0  0  0  0  0  0  0  0
    9.9890   -3.8290   25.6720 C   0  0  0  0  0  0  0  0  0  0  0  0
  1  2  1  0
  2  3  2  0
  3  4  1  0
  4  5  2  0
  5  6  1  0
  6  7  1  0
  7  8  2  0
  8  9  1  0
  6 10  2  0
  9 10  1  0
  5 11  1  0
  2 12  1  0
 11 12  2  0
M  END
