MAK-UNK-704ed37c-1-acrylamide
     RDKit          3D

 17 18  0  0  0  0  0  0  0  0999 V2000
    7.3080   -2.9080   18.5410 C   0  0  0  0  0  0  0  0  0  0  0  0
    6.4190   -2.6360   19.7260 C   0  0  0  0  0  0  0  0  0  0  0  0
    6.0020   -3.8920   20.4490 C   0  0  0  0  0  0  0  0  0  0  0  0
    5.1810   -4.6750   19.9590 O   0  0  0  0  0  0  0  0  0  0  0  0
    6.6280   -4.0920   21.6640 N   0  0  0  0  0  0  0  0  0  0  0  0
    6.4440   -5.3530   22.3820 C   0  0  0  0  0  0  0  0  0  0  0  0
    5.9930   -5.0850   23.8170 C   0  0  0  0  0  0  0  0  0  0  0  0
    6.0660   -3.5860   24.1390 C   0  0  0  0  0  0  0  0  0  0  0  0
    5.6380   -3.2370   25.5430 C   0  0  0  0  0  0  0  0  0  0  0  0
    4.3530   -2.6180   25.4650 O   0  0  0  0  0  0  0  0  0  0  0  0
    6.3400   -3.4550   26.7020 N   0  0  0  0  0  0  0  0  0  0  0  0
    7.6030   -4.0850   26.9440 C   0  0  0  0  0  0  0  0  0  0  0  0
    7.3090   -4.9790   28.1430 C   0  0  0  0  0  0  0  0  0  0  0  0
    5.9710   -4.5690   28.6450 N   0  0  0  0  0  0  0  0  0  0  0  0
    5.6820   -3.3000   27.9830 C   0  0  0  0  0  0  0  0  0  0  0  0
    7.4170   -2.9990   23.7470 C   0  0  0  0  0  0  0  0  0  0  0  0
    7.5320   -3.0850   22.2420 C   0  0  0  0  0  0  0  0  0  0  0  0
  1  2  1  0
  2  3  1  0
  3  4  2  0
  3  5  1  0
  5  6  1  0
  6  7  1  0
  7  8  1  0
  8  9  1  0
  9 10  2  0
  9 11  1  0
 11 12  1  0
 12 13  1  0
 13 14  1  0
 11 15  1  0
 14 15  1  0
  8 16  1  0
  5 17  1  0
 16 17  1  0
M  END
