MAK-UNK-e4a48a85-20-nitrile
     RDKit          3D

 20 22  0  0  0  0  0  0  0  0999 V2000
    6.8150   -3.3280   19.5430 C   0  0  0  0  0  0  0  0  0  0  0  0
    5.9380   -3.0750   18.6500 N   0  0  0  0  0  0  0  0  0  0  0  0
    6.7840   -2.8000   20.8280 N   0  0  0  0  0  0  0  0  0  0  0  0
    6.3240   -3.4880   22.0310 C   0  0  0  0  0  0  0  0  0  0  0  0
    7.2220   -3.2470   23.0760 C   0  0  0  0  0  0  0  0  0  0  0  0
    8.4720   -2.7270   22.7450 N   0  0  0  0  0  0  0  0  0  0  0  0
    9.3070   -2.5790   23.8400 C   0  0  0  0  0  0  0  0  0  0  0  0
   10.2930   -1.6440   23.6320 C   0  0  0  0  0  0  0  0  0  0  0  0
   11.6510   -1.7960   23.1840 N   0  0  0  0  0  0  0  0  0  0  0  0
   12.5210   -0.5870   23.0160 C   0  0  0  0  0  0  0  0  0  0  0  0
   11.4400    0.2540   23.4400 C   0  0  0  0  0  0  0  0  0  0  0  0
   11.6700    1.7500   23.4840 C   0  0  0  0  0  0  0  0  0  0  0  0
   10.5230    2.5330   23.5250 C   0  0  0  0  0  0  0  0  0  0  0  0
   10.2550    3.6590   22.6230 C   0  0  0  0  0  0  0  0  0  0  0  0
    9.0640    4.3230   22.8110 C   0  0  0  0  0  0  0  0  0  0  0  0
    8.1600    3.5640   24.1690 S   0  0  0  0  0  0  0  0  0  0  0  0
    9.4450    2.3740   24.4260 C   0  0  0  0  0  0  0  0  0  0  0  0
    9.8510   -0.0820   23.9380 S   0  0  0  0  0  0  0  0  0  0  0  0
    8.4140   -1.6120   21.9570 C   0  0  0  0  0  0  0  0  0  0  0  0
    7.3610   -1.4860   21.0440 C   0  0  0  0  0  0  0  0  0  0  0  0
  1  2  2  3
  1  3  1  0
  3  4  1  0
  4  5  1  0
  5  6  1  0
  6  7  1  0
  7  8  1  0
  8  9  2  0
  9 10  1  0
 10 11  2  0
 11 12  1  0
 12 13  1  0
 13 14  1  0
 14 15  2  0
 15 16  1  0
 13 17  2  0
 16 17  1  0
  8 18  1  0
 11 18  1  0
  6 19  1  0
  3 20  1  0
 19 20  1  0
M  END
