MAK-UNK-148caf23-4-vinylsulfonamide
     RDKit          3D

 37 40  0  0  0  0  0  0  0  0999 V2000
    6.5410   -5.2360   20.1530 C   0  0  0  0  0  0  0  0  0  0  0  0
    7.0610   -4.6270   21.4130 C   0  0  0  0  0  0  0  0  0  0  0  0
    6.4510   -3.0110   21.3020 S   0  0  0  0  0  0  0  0  0  0  0  0
    4.9320   -3.2810   21.4440 O   0  0  0  0  0  0  0  0  0  0  0  0
    6.9210   -2.4750   20.0380 O   0  0  0  0  0  0  0  0  0  0  0  0
    7.4450   -2.1680   22.6330 C   0  0  0  0  0  0  0  0  0  0  0  0
    8.4910   -1.4520   23.1730 C   0  0  0  0  0  0  0  0  0  0  0  0
    8.8510   -0.9940   24.3950 N   0  0  0  0  0  0  0  0  0  0  0  0
    9.8550   -0.5040   23.7820 C   0  0  0  0  0  0  0  0  0  0  0  0
   10.2790    0.0030   25.0020 N   0  0  0  0  0  0  0  0  0  0  0  0
    9.5180   -0.5500   26.1390 C   0  0  0  0  0  0  0  0  0  0  0  0
    9.0220    0.4160   27.1950 C   0  0  0  0  0  0  0  0  0  0  0  0
    8.8060   -1.2750   23.1260 C   0  0  0  0  0  0  0  0  0  0  0  0
    7.7530   -1.7170   24.1220 N   0  0  0  0  0  0  0  0  0  0  0  0
    6.7750   -0.7670   24.7450 C   0  0  0  0  0  0  0  0  0  0  0  0
    6.4640   -1.0830   26.2210 C   0  0  0  0  0  0  0  0  0  0  0  0
    6.4200    0.1320   27.1350 C   0  0  0  0  0  0  0  0  0  0  0  0
    6.1390   -0.8700   28.0970 C   0  0  0  0  0  0  0  0  0  0  0  0
    5.8990   -0.5930   29.5750 C   0  0  0  0  0  0  0  0  0  0  0  0
    4.6420   -1.1610   29.9050 C   0  0  0  0  0  0  0  0  0  0  0  0
    4.4330   -0.8700   31.3650 C   0  0  0  0  0  0  0  0  0  0  0  0
    5.4760   -0.1000   32.1850 C   0  0  0  0  0  0  0  0  0  0  0  0
    6.7740    0.4660   31.7780 C   0  0  0  0  0  0  0  0  0  0  0  0
    6.7930    0.1040   30.4150 C   0  0  0  0  0  0  0  0  0  0  0  0
    7.9090    0.5220   29.8030 F   0  0  0  0  0  0  0  0  0  0  0  0
    5.9780   -2.3550   28.1160 N   0  0  0  0  0  0  0  0  0  0  0  0
    5.8500   -4.0490   27.8360 S   0  0  0  0  0  0  0  0  0  0  0  0
    5.4380   -4.6090   29.1100 O   0  0  0  0  0  0  0  0  0  0  0  0
    7.0540   -4.5100   27.1730 O   0  0  0  0  0  0  0  0  0  0  0  0
    4.5310   -4.2130   26.7560 C   0  0  0  0  0  0  0  0  0  0  0  0
    3.7760   -3.1250   26.3550 C   0  0  0  0  0  0  0  0  0  0  0  0
    2.6230   -3.4110   25.3840 C   0  0  0  0  0  0  0  0  0  0  0  0
    2.4020   -4.8460   24.9430 C   0  0  0  0  0  0  0  0  0  0  0  0
    3.1990   -5.8380   25.3960 N   0  0  0  0  0  0  0  0  0  0  0  0
    4.2280   -5.5060   26.2760 C   0  0  0  0  0  0  0  0  0  0  0  0
    6.2310   -2.3130   26.7810 C   0  0  0  0  0  0  0  0  0  0  0  0
    8.5300   -1.7150   21.7840 C   0  0  0  0  0  0  0  0  0  0  0  0
  1  2  1  0
  3  2  1  0
  3  4  2  0
  3  5  2  0
  3  6  1  0
  6  7  2  0
  7  8  1  0
  8  9  2  0
  9 10  1  0
 10 11  1  0
 11 12  1  0
  9 13  1  0
 13 14  1  0
 14 15  1  0
 15 16  1  0
 16 17  1  0
 17 18  2  0
 18 19  1  0
 19 20  2  0
 20 21  1  0
 21 22  2  0
 22 23  1  0
 19 24  1  0
 23 24  2  0
 24 25  1  0
 18 26  1  0
 26 27  1  0
 27 28  2  0
 27 29  2  0
 27 30  1  0
 30 31  2  0
 31 32  1  0
 32 33  2  0
 33 34  1  0
 30 35  1  0
 34 35  2  0
 16 36  2  0
 26 36  1  0
  6 37  1  0
 13 37  2  0
M  END
