MAK-UNK-516d8086-8-acrylamide
     RDKit          3D

 24 26  0  0  0  0  0  0  0  0999 V2000
    9.1190   -4.2480   20.3680 C   0  0  0  0  0  0  0  0  0  0  0  0
    7.6970   -3.6450   19.8820 C   0  0  0  0  0  0  0  0  0  0  0  0
    6.5890   -3.5570   20.9750 C   0  0  0  0  0  0  0  0  0  0  0  0
    5.3230   -3.9770   20.9070 O   0  0  0  0  0  0  0  0  0  0  0  0
    7.3000   -2.8070   22.1530 C   0  0  0  0  0  0  0  0  0  0  0  0
    7.4390   -4.3520   22.2490 C   0  0  0  0  0  0  0  0  0  0  0  0
    8.0450   -5.1880   23.1230 N   0  0  0  0  0  0  0  0  0  0  0  0
    8.7050   -4.6960   24.1500 C   0  0  0  0  0  0  0  0  0  0  0  0
    9.3890   -5.4050   25.1380 C   0  0  0  0  0  0  0  0  0  0  0  0
    8.6970   -5.4250   26.3620 C   0  0  0  0  0  0  0  0  0  0  0  0
    9.5170   -5.0730   27.4370 C   0  0  0  0  0  0  0  0  0  0  0  0
    8.7560   -3.2050   24.3260 C   0  0  0  0  0  0  0  0  0  0  0  0
    9.4230   -2.5050   25.3350 C   0  0  0  0  0  0  0  0  0  0  0  0
   10.7780   -2.1410   24.9770 C   0  0  0  0  0  0  0  0  0  0  0  0
   11.9770   -3.0010   25.1040 C   0  0  0  0  0  0  0  0  0  0  0  0
   13.2130   -2.4040   24.6540 C   0  0  0  0  0  0  0  0  0  0  0  0
   12.8830   -1.1590   24.2200 C   0  0  0  0  0  0  0  0  0  0  0  0
   11.9610   -1.9200   24.6950 C   0  0  0  0  0  0  0  0  0  0  0  0
   11.1820   -0.8830   24.4270 C   0  0  0  0  0  0  0  0  0  0  0  0
   10.6110   -1.9490   24.9700 C   0  0  0  0  0  0  0  0  0  0  0  0
    9.8680   -2.7800   25.4570 O   0  0  0  0  0  0  0  0  0  0  0  0
   10.5260   -0.6570   24.4750 N   0  0  0  0  0  0  0  0  0  0  0  0
   11.8130   -0.2270   24.0410 C   0  0  0  0  0  0  0  0  0  0  0  0
    8.0870   -2.4070   23.4000 C   0  0  0  0  0  0  0  0  0  0  0  0
  1  2  1  0
  2  3  1  0
  3  4  2  0
  3  5  1  0
  5  6  2  0
  6  7  1  0
  7  8  2  0
  8  9  1  0
  9 10  1  0
 10 11  1  0
  8 12  1  0
 12 13  1  0
 13 14  1  0
 14 15  2  0
 15 16  1  0
 16 17  2  0
 17 18  1  0
 14 19  1  0
 18 19  2  0
 18 20  1  0
 20 21  2  0
 20 22  1  0
 17 23  1  0
 22 23  1  0
  5 24  1  0
 12 24  2  0
M  END
