MAK-UNK-5d2caa6f-15-acrylamide
     RDKit          3D

 24 27  0  0  0  0  0  0  0  0999 V2000
    7.8650   -3.1770   19.1950 C   0  0  0  0  0  0  0  0  0  0  0  0
    6.5800   -2.3890   19.0890 C   0  0  0  0  0  0  0  0  0  0  0  0
    5.5240   -3.0330   19.9140 C   0  0  0  0  0  0  0  0  0  0  0  0
    4.8300   -3.8980   19.4210 O   0  0  0  0  0  0  0  0  0  0  0  0
    5.4460   -2.6380   21.2160 N   0  0  0  0  0  0  0  0  0  0  0  0
    5.4010   -3.5620   22.3480 C   0  0  0  0  0  0  0  0  0  0  0  0
    6.2340   -3.0970   23.3970 C   0  0  2  0  0  0  0  0  0  0  0  0
    5.3850   -1.8200   23.1130 C   0  0  0  0  0  0  0  0  0  0  0  0
    5.9180   -1.3910   21.7710 C   0  0  1  0  0  0  0  0  0  0  0  0
    7.3800   -1.4870   22.0050 C   0  0  0  0  0  0  0  0  0  0  0  0
    7.2600   -1.9060   23.4730 C   0  0  2  0  0  0  0  0  0  0  0  0
    8.6020   -2.2200   24.0770 C   0  0  0  0  0  0  0  0  0  0  0  0
    8.7740   -3.1520   24.8690 O   0  0  0  0  0  0  0  0  0  0  0  0
    9.6170   -1.4250   23.7430 N   0  0  0  0  0  0  0  0  0  0  0  0
    9.9620   -0.1770   24.1140 C   0  0  0  0  0  0  0  0  0  0  0  0
   10.4910    1.1640   24.4210 C   0  0  0  0  0  0  0  0  0  0  0  0
   11.6710    1.4150   23.8690 N   0  0  0  0  0  0  0  0  0  0  0  0
   12.0770    0.3240   23.1280 C   0  0  0  0  0  0  0  0  0  0  0  0
   13.3070    0.4600   22.5000 C   0  0  0  0  0  0  0  0  0  0  0  0
   13.3020   -0.9210   21.8220 C   0  0  0  0  0  0  0  0  0  0  0  0
   12.4190   -2.0850   21.7480 C   0  0  0  0  0  0  0  0  0  0  0  0
   12.9370   -3.5750   20.7300 Br  0  0  0  0  0  0  0  0  0  0  0  0
   11.2040   -1.8870   22.5260 C   0  0  0  0  0  0  0  0  0  0  0  0
   11.0830   -0.6000   23.2440 C   0  0  0  0  0  0  0  0  0  0  0  0
  1  2  1  0
  2  3  1  0
  3  4  2  0
  3  5  1  0
  5  6  1  0
  7  6  1  6
  7  8  1  0
  5  9  1  0
  8  9  1  0
  9 10  1  1
  7 11  1  0
 10 11  1  0
 11 12  1  6
 12 13  2  0
 12 14  1  0
 14 15  1  0
 15 16  2  0
 16 17  1  0
 17 18  1  0
 18 19  1  0
 19 20  2  0
 20 21  1  0
 21 22  1  0
 21 23  2  0
 15 24  1  0
 18 24  2  0
 23 24  1  0
M  END
