MAK-UNK-a7992eb3-11
     RDKit          3D

 32 34  0  0  0  0  0  0  0  0999 V2000
   -1.4580   -5.1960   31.8650 C   0  0  0  0  0  0  0  0  0  0  0  0
   -1.4180   -5.2970   30.3560 C   0  0  0  0  0  0  0  0  0  0  0  0
   -1.2330   -6.3670   29.7720 O   0  0  0  0  0  0  0  0  0  0  0  0
   -1.6310   -4.0120   29.6770 N   0  0  0  0  0  0  0  0  0  0  0  0
   -0.5480   -3.6310   28.7640 C   0  0  1  0  0  0  0  0  0  0  0  0
   -0.4660   -4.2370   27.5210 C   0  0  0  0  0  0  0  0  0  0  0  0
    0.7970   -4.5640   27.0470 C   0  0  0  0  0  0  0  0  0  0  0  0
    1.3170   -3.8610   25.9720 C   0  0  0  0  0  0  0  0  0  0  0  0
    2.5610   -4.1290   25.4370 C   0  0  0  0  0  0  0  0  0  0  0  0
    3.4430   -5.2400   26.0160 C   0  0  0  0  0  0  0  0  0  0  0  0
    4.7270   -5.4860   25.4190 O   0  0  0  0  0  0  0  0  0  0  0  0
    5.0810   -4.7840   24.2190 C   0  0  0  0  0  0  0  0  0  0  0  0
    6.5590   -4.4050   24.2290 C   0  0  0  0  0  0  0  0  0  0  0  0
    7.1950   -4.0460   22.8980 C   0  0  0  0  0  0  0  0  0  0  0  0
    6.5780   -4.8630   21.9070 N   0  0  0  0  0  0  0  0  0  0  0  0
    5.8350   -4.1850   20.8420 C   0  0  0  0  0  0  0  0  0  0  0  0
    6.2360   -2.8210   20.2820 C   0  0  0  0  0  0  0  0  0  0  0  0
    5.4410   -2.2420   19.1660 C   0  0  0  0  0  0  0  0  0  0  0  0
    5.7710   -1.0030   18.6380 C   0  0  0  0  0  0  0  0  0  0  0  0
    7.1970   -0.4640   19.5830 S   0  0  0  0  0  0  0  0  0  0  0  0
    7.2200   -1.9490   20.5890 C   0  0  0  0  0  0  0  0  0  0  0  0
    5.8960   -6.0020   22.2470 C   0  0  0  0  0  0  0  0  0  0  0  0
    4.7480   -5.7010   22.9970 C   0  0  0  0  0  0  0  0  0  0  0  0
    2.9050   -5.9370   27.1050 C   0  0  0  0  0  0  0  0  0  0  0  0
    1.6250   -5.6210   27.6150 C   0  0  0  0  0  0  0  0  0  0  0  0
   -0.6700   -2.0990   28.6100 C   0  0  0  0  0  0  0  0  0  0  0  0
   -1.7170   -1.5000   28.8600 O   0  0  0  0  0  0  0  0  0  0  0  0
    0.4630   -1.4580   28.1760 N   0  0  0  0  0  0  0  0  0  0  0  0
    0.6220   -0.9250   26.9240 C   0  0  0  0  0  0  0  0  0  0  0  0
    1.8470   -1.2710   26.3470 C   0  0  0  0  0  0  0  0  0  0  0  0
    2.4230   -0.4410   25.3840 C   0  0  0  0  0  0  0  0  0  0  0  0
    3.2050    0.6970   24.0660 Br  0  0  0  0  0  0  0  0  0  0  0  0
  1  2  1  0
  2  3  2  0
  2  4  1  0
  4  5  1  0
  5  6  1  6
  6  7  1  0
  7  8  2  0
  8  9  1  0
  9 10  2  0
 10 11  1  0
 11 12  1  0
 12 13  1  0
 13 14  1  0
 14 15  1  0
 15 16  1  0
 16 17  1  0
 17 18  1  0
 18 19  2  0
 19 20  1  0
 17 21  2  0
 20 21  1  0
 15 22  1  0
 12 23  1  0
 22 23  1  0
 10 24  1  0
  7 25  1  0
 24 25  2  0
  5 26  1  0
 26 27  2  0
 26 28  1  0
 28 29  1  0
 29 30  1  0
 30 31  3  0
 31 32  1  0
M  END
