MAK-UNK-8fdbca50-41-acrylamide
     RDKit          3D

 40 43  0  0  0  0  0  0  0  0999 V2000
    6.8450   -4.1790   20.1540 C   0  0  0  0  0  0  0  0  0  0  0  0
    6.9740   -3.3550   21.4060 C   0  0  0  0  0  0  0  0  0  0  0  0
    5.8100   -3.6840   22.3290 C   0  0  0  0  0  0  0  0  0  0  0  0
    5.1810   -3.7770   21.2700 O   0  0  0  0  0  0  0  0  0  0  0  0
    6.8420   -3.4830   23.1970 N   0  0  0  0  0  0  0  0  0  0  0  0
    7.3980   -4.5490   24.0400 C   0  0  0  0  0  0  0  0  0  0  0  0
    8.7850   -4.8060   23.4240 C   0  0  0  0  0  0  0  0  0  0  0  0
    9.5350   -3.4370   23.5790 C   0  0  0  0  0  0  0  0  0  0  0  0
   10.6450   -3.9890   24.4700 C   0  0  0  0  0  0  0  0  0  0  0  0
   10.5040   -5.0100   25.1240 O   0  0  0  0  0  0  0  0  0  0  0  0
   11.8760   -3.1310   24.3590 N   0  0  0  0  0  0  0  0  0  0  0  0
   13.0830   -3.2900   25.1990 C   0  0  0  0  0  0  0  0  0  0  0  0
   11.8010   -1.7800   23.8500 C   0  0  0  0  0  0  0  0  0  0  0  0
   12.9620   -1.0190   24.4130 C   0  0  0  0  0  0  0  0  0  0  0  0
   10.4980   -1.0830   24.1980 C   0  0  0  0  0  0  0  0  0  0  0  0
   12.0310   -1.5990   22.5690 N   0  0  0  0  0  0  0  0  0  0  0  0
   12.7640   -0.4560   22.4290 C   0  0  0  0  0  0  0  0  0  0  0  0
   11.9980    0.7100   22.6400 C   0  0  0  0  0  0  0  0  0  0  0  0
   12.6010    1.9360   22.8430 C   0  0  0  0  0  0  0  0  0  0  0  0
   11.6550    2.8880   23.0300 C   0  0  0  0  0  0  0  0  0  0  0  0
   11.7880    4.2560   23.2850 C   0  0  0  0  0  0  0  0  0  0  0  0
   11.0830    4.8380   24.3790 C   0  0  0  0  0  0  0  0  0  0  0  0
   11.1990    6.1980   24.6830 C   0  0  0  0  0  0  0  0  0  0  0  0
   12.0020    7.0470   23.9390 C   0  0  0  0  0  0  0  0  0  0  0  0
   12.6860    6.4660   22.8690 C   0  0  0  0  0  0  0  0  0  0  0  0
   12.6090    5.0940   22.5080 C   0  0  0  0  0  0  0  0  0  0  0  0
   13.3090    4.6480   21.4640 F   0  0  0  0  0  0  0  0  0  0  0  0
   10.3560    2.2990   22.9500 N   0  0  0  0  0  0  0  0  0  0  0  0
    8.8850    3.1060   23.1430 S   0  0  0  0  0  0  0  0  0  0  0  0
    8.6710    3.0970   24.5680 O   0  0  0  0  0  0  0  0  0  0  0  0
    8.9880    4.3500   22.4220 O   0  0  0  0  0  0  0  0  0  0  0  0
    7.5340    2.1770   22.5470 C   0  0  0  0  0  0  0  0  0  0  0  0
    7.4680    0.6700   22.5490 C   0  0  0  0  0  0  0  0  0  0  0  0
    6.2980   -0.0590   22.0550 C   0  0  0  0  0  0  0  0  0  0  0  0
    5.2220    0.8520   21.5700 C   0  0  0  0  0  0  0  0  0  0  0  0
    5.2830    2.2150   21.5640 N   0  0  0  0  0  0  0  0  0  0  0  0
    6.4130    2.8420   22.0420 C   0  0  0  0  0  0  0  0  0  0  0  0
   10.5850    0.9350   22.6990 C   0  0  0  0  0  0  0  0  0  0  0  0
    8.6330   -2.4170   24.2880 C   0  0  0  0  0  0  0  0  0  0  0  0
    7.4180   -2.1830   23.4510 C   0  0  0  0  0  0  0  0  0  0  0  0
  1  2  1  0
  2  3  1  0
  3  4  2  0
  3  5  1  0
  5  6  1  0
  6  7  1  0
  7  8  1  0
  8  9  1  0
  9 10  2  0
  9 11  1  0
 11 12  1  0
 13 11  1  0
 13 14  1  0
 13 15  1  0
 13 16  1  0
 16 17  1  0
 17 18  1  0
 18 19  1  0
 19 20  2  0
 20 21  1  0
 21 22  2  0
 22 23  1  0
 23 24  2  0
 24 25  1  0
 21 26  1  0
 25 26  2  0
 26 27  1  0
 20 28  1  0
 28 29  1  0
 29 30  2  0
 29 31  2  0
 29 32  1  0
 32 33  2  0
 33 34  1  0
 34 35  2  0
 35 36  1  0
 32 37  1  0
 36 37  2  0
 18 38  2  0
 28 38  1  0
  8 39  1  0
  5 40  1  0
 39 40  1  0
M  END
