MAK-UNK-f2409524-28
     RDKit          3D

 26 28  0  0  0  0  0  0  0  0999 V2000
    4.8730    3.0530   20.1440 C   0  0  0  0  0  0  0  0  0  0  0  0
    3.9630    2.8970   18.9570 C   0  0  0  0  0  0  0  0  0  0  0  0
    2.7820    3.2470   19.0090 O   0  0  0  0  0  0  0  0  0  0  0  0
    4.5430    2.3480   17.8310 N   0  0  0  0  0  0  0  0  0  0  0  0
    5.4800    1.2360   17.9090 C   0  0  0  0  0  0  0  0  0  0  0  0
    6.6360    1.1940   16.9160 C   0  0  0  0  0  0  0  0  0  0  0  0
    7.5320    0.0770   17.0380 N   0  0  0  0  0  0  0  0  0  0  0  0
    7.3700   -0.8990   17.9750 C   0  0  0  0  0  0  0  0  0  0  0  0
    6.3130   -0.7890   18.8190 C   0  0  0  0  0  0  0  0  0  0  0  0
    5.3720    0.2150   18.8360 C   0  0  0  0  0  0  0  0  0  0  0  0
    4.3720    0.1510   19.7770 C   0  0  0  0  0  0  0  0  0  0  0  0
    4.4880    0.8620   21.0780 C   0  0  2  0  0  0  0  0  0  0  0  0
    5.8640    0.6810   21.6910 C   0  0  0  0  0  0  0  0  0  0  0  0
    5.8720    0.5230   23.0150 C   0  0  0  0  0  0  0  0  0  0  0  0
    4.9870    1.2920   23.7720 C   0  0  0  0  0  0  0  0  0  0  0  0
    3.5860    1.3660   23.2310 N   0  0  0  0  0  0  0  0  0  0  0  0
    2.5270    2.1020   23.8250 C   0  0  0  0  0  0  0  0  0  0  0  0
    1.9540    1.5700   24.7630 O   0  0  0  0  0  0  0  0  0  0  0  0
    2.1700    3.3580   23.3860 N   0  0  0  0  0  0  0  0  0  0  0  0
    0.7410    3.6980   23.4780 C   0  0  0  0  0  0  0  0  0  0  0  0
   -0.1330    2.6000   23.5410 C   0  0  0  0  0  0  0  0  0  0  0  0
   -1.4600    3.0260   23.5830 C   0  0  0  0  0  0  0  0  0  0  0  0
   -1.7140    4.1720   24.3340 C   0  0  0  0  0  0  0  0  0  0  0  0
   -0.6830    4.7880   25.0480 C   0  0  0  0  0  0  0  0  0  0  0  0
    0.6070    4.5750   24.5620 C   0  0  0  0  0  0  0  0  0  0  0  0
    3.4020    0.5890   22.1190 C   0  0  0  0  0  0  0  0  0  0  0  0
  1  2  1  0
  2  3  2  0
  2  4  1  0
  4  5  1  0
  5  6  2  0
  6  7  1  0
  7  8  2  0
  8  9  1  0
  5 10  1  0
  9 10  2  0
 10 11  1  0
 12 11  1  6
 12 13  1  0
 13 14  1  0
 14 15  1  0
 15 16  1  0
 16 17  1  0
 17 18  2  0
 17 19  1  0
 19 20  1  0
 20 21  1  0
 21 22  1  0
 22 23  1  0
 23 24  1  0
 20 25  1  0
 24 25  1  0
 12 26  1  0
 16 26  1  0
M  END
