MAK-UNK-10dfa458-38-acrylamide
     RDKit          3D

 28 30  0  0  0  0  0  0  0  0999 V2000
    7.2010   -2.9540   18.8600 C   0  0  0  0  0  0  0  0  0  0  0  0
    6.5370   -2.7780   20.2140 C   0  0  0  0  0  0  0  0  0  0  0  0
    5.9420   -4.0880   20.6540 C   0  0  0  0  0  0  0  0  0  0  0  0
    5.1630   -4.7120   19.9410 O   0  0  0  0  0  0  0  0  0  0  0  0
    6.3390   -4.5760   21.8710 N   0  0  0  0  0  0  0  0  0  0  0  0
    6.9350   -3.7340   22.9170 C   0  0  0  0  0  0  0  0  0  0  0  0
    5.8160   -3.6960   24.0030 C   0  0  0  0  0  0  0  0  0  0  0  0
    5.6560   -5.0830   24.5560 N   0  0  0  0  0  0  0  0  0  0  0  0
    4.8200   -5.2100   25.7790 C   0  0  0  0  0  0  0  0  0  0  0  0
    3.7060   -4.1620   25.8770 C   0  0  0  0  0  0  0  0  0  0  0  0
    4.3050   -2.7930   26.3770 C   0  0  0  0  0  0  0  0  0  0  0  0
    3.3920   -1.5290   26.5780 C   0  0  0  0  0  0  0  0  0  0  0  0
    1.9090   -1.7370   26.2550 C   0  0  0  0  0  0  0  0  0  0  0  0
    1.7420   -3.0430   25.8480 C   0  0  0  0  0  0  0  0  0  0  0  0
    3.0740   -2.8270   26.1560 C   0  0  0  0  0  0  0  0  0  0  0  0
    4.1760   -2.5940   26.4420 N   0  0  0  0  0  0  0  0  0  0  0  0
    2.3320   -4.2560   25.6040 C   0  0  0  0  0  0  0  0  0  0  0  0
    1.6700   -5.4180   25.1550 C   0  0  0  0  0  0  0  0  0  0  0  0
    2.0390   -6.5090   25.5730 O   0  0  0  0  0  0  0  0  0  0  0  0
    0.5740   -5.1740   24.2200 N   0  0  0  0  0  0  0  0  0  0  0  0
   -0.6880   -4.5470   24.6120 C   0  0  0  0  0  0  0  0  0  0  0  0
   -1.7560   -5.4210   24.3430 C   0  0  0  0  0  0  0  0  0  0  0  0
   -1.8700   -5.7000   22.9800 C   0  0  0  0  0  0  0  0  0  0  0  0
   -2.4930   -4.5430   22.4330 O   0  0  0  0  0  0  0  0  0  0  0  0
   -0.6640   -5.8020   22.3010 C   0  0  0  0  0  0  0  0  0  0  0  0
    0.4590   -6.0930   23.0880 C   0  0  0  0  0  0  0  0  0  0  0  0
    5.2590   -6.0380   23.4980 C   0  0  0  0  0  0  0  0  0  0  0  0
    6.1400   -5.9640   22.2640 C   0  0  0  0  0  0  0  0  0  0  0  0
  1  2  1  0
  2  3  1  0
  3  4  2  0
  3  5  1  0
  5  6  1  0
  6  7  1  0
  7  8  1  0
  8  9  1  0
  9 10  1  0
 10 11  2  0
 11 12  1  0
 12 13  2  0
 13 14  1  0
 14 15  1  0
 15 16  3  0
 10 17  1  0
 14 17  2  0
 17 18  1  0
 18 19  2  0
 18 20  1  0
 20 21  1  0
 21 22  1  0
 22 23  1  0
 23 24  1  0
 23 25  1  0
 20 26  1  0
 25 26  1  0
  8 27  1  0
  5 28  1  0
 27 28  1  0
M  END
