MAK-UNK-516d8086-9-acrylamide
     RDKit          3D

 24 26  0  0  0  0  0  0  0  0999 V2000
    7.1400   -3.0940   18.9000 C   0  0  0  0  0  0  0  0  0  0  0  0
    6.4910   -2.1790   19.9540 C   0  0  0  0  0  0  0  0  0  0  0  0
    5.4700   -2.9120   20.7930 C   0  0  0  0  0  0  0  0  0  0  0  0
    4.8500   -3.4320   21.7210 O   0  0  0  0  0  0  0  0  0  0  0  0
    6.5620   -2.4520   21.7400 C   0  0  0  0  0  0  0  0  0  0  0  0
    7.0260   -1.1560   22.1410 C   0  0  0  0  0  0  0  0  0  0  0  0
    7.4170    0.0210   22.4810 N   0  0  0  0  0  0  0  0  0  0  0  0
    8.4280   -0.6030   23.2630 C   0  0  0  0  0  0  0  0  0  0  0  0
    9.4300    0.0840   24.0300 N   0  0  0  0  0  0  0  0  0  0  0  0
   10.4880    0.7800   23.2340 C   0  0  0  0  0  0  0  0  0  0  0  0
   11.8270    0.4180   23.8630 C   0  0  0  0  0  0  0  0  0  0  0  0
    8.4870   -2.2180   23.3030 C   0  0  0  0  0  0  0  0  0  0  0  0
    9.5100   -2.8080   24.1040 C   0  0  0  0  0  0  0  0  0  0  0  0
   10.9240   -2.4040   23.7620 C   0  0  0  0  0  0  0  0  0  0  0  0
   12.1460   -2.2930   23.7960 C   0  0  0  0  0  0  0  0  0  0  0  0
   11.5260   -3.0400   24.7430 C   0  0  0  0  0  0  0  0  0  0  0  0
   10.0520   -3.3570   24.9620 C   0  0  0  0  0  0  0  0  0  0  0  0
   10.4540   -3.9340   25.8200 C   0  0  0  0  0  0  0  0  0  0  0  0
   11.5270   -3.2390   25.0120 C   0  0  0  0  0  0  0  0  0  0  0  0
    9.7140   -4.7200   26.8050 C   0  0  0  0  0  0  0  0  0  0  0  0
    8.6200   -5.5760   27.6950 S   0  0  0  0  0  0  0  0  0  0  0  0
    8.6850   -4.5830   25.8890 N   0  0  0  0  0  0  0  0  0  0  0  0
    8.6340   -3.4860   24.9300 C   0  0  0  0  0  0  0  0  0  0  0  0
    7.5340   -3.1060   22.5320 C   0  0  0  0  0  0  0  0  0  0  0  0
  1  2  1  0
  2  3  1  0
  3  4  2  0
  3  5  1  0
  5  6  2  0
  6  7  1  0
  7  8  2  0
  8  9  1  0
  9 10  1  0
 10 11  1  0
  8 12  1  0
 12 13  1  0
 13 14  1  0
 14 15  2  0
 15 16  1  0
 16 17  2  0
 17 18  1  0
 14 19  1  0
 18 19  2  0
 18 20  1  0
 20 21  2  0
 20 22  1  0
 17 23  1  0
 22 23  1  0
  5 24  1  0
 12 24  2  0
M  END
