MAK-UNK-702fb7d3-8-acrylamide
     RDKit          3D

 43 48  0  0  0  0  0  0  0  0999 V2000
    6.9790   -3.5910   19.7610 C   0  0  0  0  0  0  0  0  0  0  0  0
    6.2820   -4.6100   20.6810 C   0  0  0  0  0  0  0  0  0  0  0  0
    5.8150   -3.9690   21.9640 C   0  0  0  0  0  0  0  0  0  0  0  0
    4.6340   -3.6830   22.1260 O   0  0  0  0  0  0  0  0  0  0  0  0
    6.7590   -3.7560   22.9020 N   0  0  0  0  0  0  0  0  0  0  0  0
    8.0350   -3.3800   22.3490 C   0  0  0  0  0  0  0  0  0  0  0  0
    8.8730   -3.0190   23.5530 C   0  0  0  0  0  0  0  0  0  0  0  0
    9.5940   -1.7750   22.9630 C   0  0  0  0  0  0  0  0  0  0  0  0
   10.4250   -0.6800   22.8620 N   0  0  0  0  0  0  0  0  0  0  0  0
   11.8420   -0.8200   22.5530 C   0  0  0  0  0  0  0  0  0  0  0  0
   12.6360   -1.6960   23.5500 C   0  0  0  0  0  0  0  0  0  0  0  0
   13.6250   -2.3840   22.9220 C   0  0  0  0  0  0  0  0  0  0  0  0
   14.5100   -3.2970   23.7580 C   0  0  0  0  0  0  0  0  0  0  0  0
   15.3240   -4.1760   24.7070 C   0  0  0  0  0  0  0  0  0  0  0  0
   16.7640   -4.5180   24.4640 C   0  0  0  0  0  0  0  0  0  0  0  0
   17.5750   -5.3610   25.1070 C   0  0  0  0  0  0  0  0  0  0  0  0
   17.0460   -6.1000   26.2020 C   0  0  0  0  0  0  0  0  0  0  0  0
   15.7210   -5.8670   26.5530 C   0  0  0  0  0  0  0  0  0  0  0  0
   14.8690   -4.9220   25.8580 C   0  0  0  0  0  0  0  0  0  0  0  0
   13.6280   -4.7570   26.2700 F   0  0  0  0  0  0  0  0  0  0  0  0
   13.7040   -2.8510   24.8800 N   0  0  0  0  0  0  0  0  0  0  0  0
   14.2880   -3.5420   26.1390 S   0  0  0  0  0  0  0  0  0  0  0  0
   15.0370   -2.4090   26.5980 O   0  0  0  0  0  0  0  0  0  0  0  0
   13.1930   -4.0610   26.8130 O   0  0  0  0  0  0  0  0  0  0  0  0
   15.4150   -4.8950   25.7180 C   0  0  0  0  0  0  0  0  0  0  0  0
   16.2410   -4.9170   24.5750 C   0  0  0  0  0  0  0  0  0  0  0  0
   17.0600   -5.9870   24.3660 C   0  0  0  0  0  0  0  0  0  0  0  0
   17.0860   -7.0740   25.2460 C   0  0  0  0  0  0  0  0  0  0  0  0
   16.3440   -7.1140   26.3470 N   0  0  0  0  0  0  0  0  0  0  0  0
   15.5420   -6.0150   26.5590 C   0  0  0  0  0  0  0  0  0  0  0  0
   12.6270   -1.9560   24.8110 C   0  0  0  0  0  0  0  0  0  0  0  0
   10.2410   -1.6730   24.1730 C   0  0  0  0  0  0  0  0  0  0  0  0
   10.0490   -2.5180   25.1920 C   0  0  0  0  0  0  0  0  0  0  0  0
    9.5770   -3.5420   25.9230 C   0  0  0  0  0  0  0  0  0  0  0  0
    8.8530   -3.7560   24.7770 C   0  0  0  0  0  0  0  0  0  0  0  0
    8.0190   -4.8420   24.9070 C   0  0  1  0  0  0  0  0  0  0  0  0
    7.5050   -4.7700   26.1970 C   0  0  0  0  0  0  0  0  0  0  0  0
    7.7550   -5.8070   27.0840 C   0  0  0  0  0  0  0  0  0  0  0  0
    7.2570   -5.7570   28.3780 C   0  0  0  0  0  0  0  0  0  0  0  0
    6.4990   -4.6590   28.8010 C   0  0  0  0  0  0  0  0  0  0  0  0
    6.2470   -3.6160   27.9190 C   0  0  0  0  0  0  0  0  0  0  0  0
    6.7470   -3.6700   26.6220 C   0  0  0  0  0  0  0  0  0  0  0  0
    6.7860   -4.7840   23.9590 C   0  0  0  0  0  0  0  0  0  0  0  0
  1  2  1  0
  2  3  1  0
  3  4  2  0
  3  5  1  0
  5  6  1  0
  6  7  1  0
  7  8  1  0
  8  9  1  0
  9 10  1  0
 10 11  1  0
 11 12  1  0
 12 13  2  0
 13 14  1  0
 14 15  2  0
 15 16  1  0
 16 17  2  0
 17 18  1  0
 14 19  1  0
 18 19  2  0
 19 20  1  0
 13 21  1  0
 21 22  1  0
 22 23  2  0
 22 24  2  0
 22 25  1  0
 25 26  2  0
 26 27  1  0
 27 28  2  0
 28 29  1  0
 25 30  1  0
 29 30  2  0
 11 31  2  0
 21 31  1  0
  8 32  2  0
 32 33  1  0
 33 34  2  0
  7 35  2  0
 34 35  1  0
 35 36  1  0
 36 37  1  1
 37 38  2  0
 38 39  1  0
 39 40  2  0
 40 41  1  0
 37 42  1  0
 41 42  2  0
  5 43  1  0
 36 43  1  0
M  END
