MAK-UNK-10799360-20-acrylamide
     RDKit          3D

 26 29  0  0  0  0  0  0  0  0999 V2000
    7.3780   -2.7860   18.3660 C   0  0  0  0  0  0  0  0  0  0  0  0
    6.1730   -2.1610   19.0670 C   0  0  0  0  0  0  0  0  0  0  0  0
    5.7280   -2.9880   20.2430 C   0  0  0  0  0  0  0  0  0  0  0  0
    5.2360   -4.1230   20.1050 O   0  0  0  0  0  0  0  0  0  0  0  0
    5.9670   -2.3370   21.4230 N   0  0  0  0  0  0  0  0  0  0  0  0
    6.2140   -0.9070   21.6260 C   0  0  0  0  0  0  0  0  0  0  0  0
    7.3390   -0.9690   22.6950 C   0  0  1  0  0  0  0  0  0  0  0  0
    5.9130   -1.2790   23.2640 C   0  0  0  0  0  0  0  0  0  0  0  0
    5.8070   -2.7450   22.7970 C   0  0  2  0  0  0  0  0  0  0  0  0
    7.0700   -3.1650   23.5210 C   0  0  0  0  0  0  0  0  0  0  0  0
    7.5360   -1.7860   23.9350 N   0  0  0  0  0  0  0  0  0  0  0  0
    8.8620   -1.7140   24.6320 C   0  0  0  0  0  0  0  0  0  0  0  0
    9.8210   -0.7210   24.2780 C   0  0  0  0  0  0  0  0  0  0  0  0
    9.5700    0.6450   24.3980 C   0  0  0  0  0  0  0  0  0  0  0  0
   10.5400    1.5840   24.0310 C   0  0  0  0  0  0  0  0  0  0  0  0
   11.7710    1.1820   23.5400 C   0  0  0  0  0  0  0  0  0  0  0  0
   12.0240   -0.1680   23.4240 C   0  0  0  0  0  0  0  0  0  0  0  0
   11.0790   -1.0920   23.7890 C   0  0  0  0  0  0  0  0  0  0  0  0
   11.4340   -2.4120   23.6320 C   0  0  0  0  0  0  0  0  0  0  0  0
   11.1450   -2.7250   22.3690 N   0  0  0  0  0  0  0  0  0  0  0  0
    9.8260   -2.3950   22.1920 C   0  0  0  0  0  0  0  0  0  0  0  0
    9.5480   -1.1680   21.6080 C   0  0  0  0  0  0  0  0  0  0  0  0
    8.7610   -3.2660   22.6140 O   0  0  0  0  0  0  0  0  0  0  0  0
   12.1580   -2.3610   21.4030 C   0  0  0  0  0  0  0  0  0  0  0  0
   13.2920   -1.7360   21.9510 C   0  0  0  0  0  0  0  0  0  0  0  0
   13.3410   -0.5890   22.8980 C   0  0  0  0  0  0  0  0  0  0  0  0
  1  2  1  0
  2  3  1  0
  3  4  2  0
  3  5  1  0
  5  6  1  0
  7  6  1  6
  7  8  1  0
  5  9  1  0
  8  9  1  0
  9 10  1  1
  7 11  1  0
 10 11  1  0
 11 12  1  0
 12 13  1  0
 13 14  2  0
 14 15  1  0
 15 16  2  0
 16 17  1  0
 13 18  1  0
 17 18  2  0
 18 19  1  0
 19 20  1  0
 20 21  1  0
 21 22  1  0
 21 23  2  0
 20 24  1  0
 24 25  1  0
 17 26  1  0
 25 26  1  0
M  END
