MAK-UNK-ec98eaf6-12-acrylamide
     RDKit          3D

 24 27  0  0  0  0  0  0  0  0999 V2000
    7.9580   -3.3480   19.7120 C   0  0  0  0  0  0  0  0  0  0  0  0
    6.7400   -2.6730   19.1680 C   0  0  0  0  0  0  0  0  0  0  0  0
    5.6900   -3.2900   20.0050 C   0  0  0  0  0  0  0  0  0  0  0  0
    5.0030   -4.2010   19.5820 O   0  0  0  0  0  0  0  0  0  0  0  0
    5.6050   -2.8330   21.2950 N   0  0  0  0  0  0  0  0  0  0  0  0
    5.0240   -3.7470   22.3780 C   0  0  0  0  0  0  0  0  0  0  0  0
    5.9890   -3.4240   23.5490 C   0  0  2  0  0  0  0  0  0  0  0  0
    6.7440   -3.2590   22.3540 C   0  0  0  0  0  0  0  0  0  0  0  0
    6.5850   -1.9040   21.9980 C   0  0  1  0  0  0  0  0  0  0  0  0
    7.9330   -2.2780   22.6890 C   0  0  1  0  0  0  0  0  0  0  0  0
    7.5170   -3.5100   23.6180 C   0  0  0  0  0  0  0  0  0  0  0  0
    9.1870   -2.4470   21.9100 C   0  0  0  0  0  0  0  0  0  0  0  0
   10.2410   -2.5460   22.9730 C   0  0  1  0  0  0  0  0  0  0  0  0
   11.6880   -2.5710   22.5360 C   0  0  0  0  0  0  0  0  0  0  0  0
   11.9390   -2.1920   21.2480 N   0  0  0  0  0  0  0  0  0  0  0  0
   12.7520   -2.9370   23.3240 O   0  0  0  0  0  0  0  0  0  0  0  0
    9.9710   -1.6040   23.9120 C   0  0  1  0  0  0  0  0  0  0  0  0
   10.8230   -0.4450   23.6830 C   0  0  0  0  0  0  0  0  0  0  0  0
   12.1630   -0.7260   23.0590 C   0  0  0  0  0  0  0  0  0  0  0  0
   13.1060    0.3790   22.7520 C   0  0  0  0  0  0  0  0  0  0  0  0
   12.6700    1.7910   23.0920 C   0  0  0  0  0  0  0  0  0  0  0  0
   11.3020    2.0210   23.7340 C   0  0  0  0  0  0  0  0  0  0  0  0
   10.4180    0.8510   24.0070 C   0  0  0  0  0  0  0  0  0  0  0  0
    8.4820   -1.2100   23.6480 C   0  0  0  0  0  0  0  0  0  0  0  0
  1  2  1  0
  2  3  1  0
  3  4  2  0
  3  5  1  0
  5  6  1  0
  7  6  1  6
  7  8  1  0
  9  5  1  6
  8  9  1  0
  9 10  1  0
  7 11  1  0
 10 11  1  1
 10 12  1  0
 12 13  1  0
 13 14  1  6
 14 15  1  0
 14 16  2  0
 13 17  1  0
 17 18  1  6
 18 19  2  0
 19 20  1  0
 20 21  2  0
 21 22  1  0
 18 23  1  0
 22 23  2  0
 10 24  1  0
 17 24  1  0
M  END
