MAK-UNK-9e4a73aa-35
     RDKit          3D

 27 30  0  0  0  0  0  0  0  0999 V2000
    7.5740    1.6390   24.9540 C   0  0  0  0  0  0  0  0  0  0  0  0
    8.9320    1.4660   24.2680 C   0  0  0  0  0  0  0  0  0  0  0  0
    9.7360    2.7710   23.9400 C   0  0  0  0  0  0  0  0  0  0  0  0
    9.2520    3.9830   24.2520 F   0  0  0  0  0  0  0  0  0  0  0  0
   11.1050    2.6210   23.2420 C   0  0  0  0  0  0  0  0  0  0  0  0
   12.0170    4.0370   22.8600 Cl  0  0  0  0  0  0  0  0  0  0  0  0
   11.5610    1.1980   22.9180 C   0  0  0  0  0  0  0  0  0  0  0  0
   10.6010    0.0920   23.3200 C   0  0  0  0  0  0  0  0  0  0  0  0
    9.4010    0.2150   23.9560 C   0  0  0  0  0  0  0  0  0  0  0  0
    8.6510   -1.1230   24.2690 C   0  0  0  0  0  0  0  0  0  0  0  0
    7.7880   -1.1450   25.3880 O   0  0  0  0  0  0  0  0  0  0  0  0
    8.8950   -2.1790   23.4260 N   0  0  0  0  0  0  0  0  0  0  0  0
    7.7050   -2.7830   22.8440 C   0  0  0  0  0  0  0  0  0  0  0  0
    8.2980   -1.5120   22.1790 C   0  0  0  0  0  0  0  0  0  0  0  0
    7.7070   -0.8300   20.9320 C   0  0  0  0  0  0  0  0  0  0  0  0
    6.5210   -1.4860   20.4160 C   0  0  0  0  0  0  0  0  0  0  0  0
    5.9760   -2.5800   20.9540 N   0  0  0  0  0  0  0  0  0  0  0  0
    6.5680   -3.0940   22.0330 C   0  0  0  0  0  0  0  0  0  0  0  0
   10.0880   -2.1070   22.5730 C   0  0  0  0  0  0  0  0  0  0  0  0
   10.2430   -2.9380   21.5140 O   0  0  0  0  0  0  0  0  0  0  0  0
   11.0970   -1.1150   22.9330 N   0  0  0  0  0  0  0  0  0  0  0  0
   11.9690   -1.7780   23.7860 C   0  0  0  0  0  0  0  0  0  0  0  0
   13.3370   -1.3930   24.1810 C   0  0  0  0  0  0  0  0  0  0  0  0
   14.0880   -2.3150   25.1540 C   0  0  0  0  0  0  0  0  0  0  0  0
   13.4770   -3.3690   25.5550 C   0  0  0  0  0  0  0  0  0  0  0  0
   12.2350   -3.5960   25.1110 C   0  0  0  0  0  0  0  0  0  0  0  0
   11.4690   -2.8910   24.2790 C   0  0  0  0  0  0  0  0  0  0  0  0
  1  2  1  0
  2  3  2  0
  3  4  1  0
  3  5  1  0
  5  6  1  0
  5  7  2  0
  7  8  1  0
  2  9  1  0
  8  9  2  0
  9 10  1  0
 10 11  2  0
 10 12  1  0
 12 13  1  0
 13 14  2  0
 14 15  1  0
 15 16  2  0
 16 17  1  0
 13 18  1  0
 17 18  2  0
 12 19  1  0
 19 20  2  0
  8 21  1  0
 19 21  1  0
 21 22  1  0
 22 23  2  0
 23 24  1  0
 24 25  2  0
 25 26  1  0
 22 27  1  0
 26 27  2  0
M  END
