MAK-UNK-148caf23-7-acrylamide
     RDKit          3D

 36 39  0  0  0  0  0  0  0  0999 V2000
    8.7810   -5.0020   20.7480 C   0  0  0  0  0  0  0  0  0  0  0  0
    8.4380   -3.9410   21.6930 C   0  0  0  0  0  0  0  0  0  0  0  0
    6.8850   -3.9100   21.3850 C   0  0  0  0  0  0  0  0  0  0  0  0
    5.2910   -3.6650   21.0610 O   0  0  0  0  0  0  0  0  0  0  0  0
    7.9700   -2.5860   21.4590 C   0  0  0  0  0  0  0  0  0  0  0  0
    7.8630   -2.3370   22.7290 C   0  0  0  0  0  0  0  0  0  0  0  0
    8.3210   -1.5430   23.1720 C   0  0  0  0  0  0  0  0  0  0  0  0
    9.0590   -0.2640   23.8860 C   0  0  0  0  0  0  0  0  0  0  0  0
    9.1380    0.3580   25.1830 N   0  0  0  0  0  0  0  0  0  0  0  0
    8.2410    0.3680   26.3400 C   0  0  1  0  0  0  0  0  0  0  0  0
    6.8210    0.0660   25.9090 C   0  0  0  0  0  0  0  0  0  0  0  0
    8.6720   -0.3590   27.6890 N   0  0  0  0  0  0  0  0  0  0  0  0
    9.0890   -1.7190   27.4290 C   0  0  0  0  0  0  0  0  0  0  0  0
    8.3240   -2.6150   26.3870 C   0  0  0  0  0  0  0  0  0  0  0  0
    6.9810   -2.8880   26.3160 C   0  0  0  0  0  0  0  0  0  0  0  0
    6.9860   -3.8300   25.1540 C   0  0  0  0  0  0  0  0  0  0  0  0
    5.6020   -4.3040   24.7940 C   0  0  0  0  0  0  0  0  0  0  0  0
    5.3660   -5.2290   25.8990 C   0  0  0  0  0  0  0  0  0  0  0  0
    4.1300   -6.1010   25.9320 C   0  0  0  0  0  0  0  0  0  0  0  0
    3.1500   -5.9610   24.8680 C   0  0  0  0  0  0  0  0  0  0  0  0
    3.4480   -5.0500   23.8420 C   0  0  0  0  0  0  0  0  0  0  0  0
    4.5740   -4.2930   23.8060 C   0  0  0  0  0  0  0  0  0  0  0  0
    4.4880   -3.6120   22.5940 F   0  0  0  0  0  0  0  0  0  0  0  0
    8.1840   -3.9820   24.7730 N   0  0  0  0  0  0  0  0  0  0  0  0
    8.9720   -4.9260   23.6260 S   0  0  0  0  0  0  0  0  0  0  0  0
   10.0570   -5.5210   24.2130 O   0  0  0  0  0  0  0  0  0  0  0  0
    9.0010   -4.0590   22.4500 O   0  0  0  0  0  0  0  0  0  0  0  0
    7.5930   -5.9730   23.4290 C   0  0  0  0  0  0  0  0  0  0  0  0
    7.7230   -7.3630   23.8620 C   0  0  0  0  0  0  0  0  0  0  0  0
    6.4190   -8.0830   23.5730 C   0  0  0  0  0  0  0  0  0  0  0  0
    5.3340   -7.3010   22.9750 C   0  0  0  0  0  0  0  0  0  0  0  0
    5.3630   -6.0250   22.6320 N   0  0  0  0  0  0  0  0  0  0  0  0
    6.5450   -5.2340   22.8890 C   0  0  0  0  0  0  0  0  0  0  0  0
    8.9730   -3.2220   25.5010 C   0  0  0  0  0  0  0  0  0  0  0  0
    9.4570   -0.2380   22.5240 N   0  0  0  0  0  0  0  0  0  0  0  0
    8.9260   -1.3630   21.6360 C   0  0  0  0  0  0  0  0  0  0  0  0
  1  2  1  0
  2  3  1  0
  3  4  2  0
  3  5  1  0
  5  6  2  0
  6  7  1  0
  7  8  2  0
  8  9  1  0
  9 10  1  0
 10 11  1  6
 10 12  1  0
 12 13  1  0
 13 14  1  0
 14 15  1  0
 15 16  2  0
 16 17  1  0
 17 18  2  0
 18 19  1  0
 19 20  2  0
 20 21  1  0
 17 22  1  0
 21 22  2  0
 22 23  1  0
 16 24  1  0
 24 25  1  0
 25 26  2  0
 25 27  2  0
 25 28  1  0
 28 29  2  0
 29 30  1  0
 30 31  2  0
 31 32  1  0
 28 33  1  0
 32 33  2  0
 14 34  2  0
 24 34  1  0
  8 35  1  0
  5 36  1  0
 35 36  2  0
M  END
