MAK-UNK-10dfa458-7-acrylamide
     RDKit          3D

 27 29  0  0  0  0  0  0  0  0999 V2000
    6.9830   -3.6950   19.8970 C   0  0  0  0  0  0  0  0  0  0  0  0
    6.9970   -3.3020   21.3660 C   0  0  0  0  0  0  0  0  0  0  0  0
    5.8470   -3.9840   22.0630 C   0  0  0  0  0  0  0  0  0  0  0  0
    4.7080   -3.5490   21.9780 O   0  0  0  0  0  0  0  0  0  0  0  0
    6.1460   -5.1160   22.7760 N   0  0  0  0  0  0  0  0  0  0  0  0
    5.4280   -6.3630   22.5410 C   0  0  0  0  0  0  0  0  0  0  0  0
    4.1800   -6.1510   23.4370 C   0  0  0  0  0  0  0  0  0  0  0  0
    4.6170   -6.2310   24.8690 N   0  0  0  0  0  0  0  0  0  0  0  0
    3.5350   -6.0870   25.8760 C   0  0  0  0  0  0  0  0  0  0  0  0
    3.0800   -4.6360   26.0430 C   0  0  0  0  0  0  0  0  0  0  0  0
    1.8470   -4.3450   25.1080 C   0  0  0  0  0  0  0  0  0  0  0  0
    1.4060   -2.9120   25.2880 C   0  0  0  0  0  0  0  0  0  0  0  0
    1.8210   -1.7310   26.0880 C   0  0  0  0  0  0  0  0  0  0  0  0
    2.8810   -2.3660   26.7470 C   0  0  0  0  0  0  0  0  0  0  0  0
    2.3100   -3.2920   25.8880 C   0  0  0  0  0  0  0  0  0  0  0  0
    3.5930   -3.5730   26.8880 C   0  0  0  0  0  0  0  0  0  0  0  0
    4.6820   -3.7490   27.7560 C   0  0  0  0  0  0  0  0  0  0  0  0
    4.6910   -4.7830   28.4230 O   0  0  0  0  0  0  0  0  0  0  0  0
    5.6750   -2.7730   27.8460 N   0  0  0  0  0  0  0  0  0  0  0  0
    6.5100   -2.8160   29.0540 C   0  0  0  0  0  0  0  0  0  0  0  0
    7.0890   -1.5610   29.2930 C   0  0  0  0  0  0  0  0  0  0  0  0
    6.3170   -0.4830   28.9010 C   0  0  0  0  0  0  0  0  0  0  0  0
    7.0560    0.6950   29.2240 O   0  0  0  0  0  0  0  0  0  0  0  0
    5.9400   -0.4190   27.5670 C   0  0  0  0  0  0  0  0  0  0  0  0
    5.8970   -1.6570   26.9110 C   0  0  0  0  0  0  0  0  0  0  0  0
    5.7710   -5.3510   25.1830 C   0  0  0  0  0  0  0  0  0  0  0  0
    6.7850   -5.0930   24.0710 C   0  0  0  0  0  0  0  0  0  0  0  0
  1  2  1  0
  2  3  1  0
  3  4  2  0
  3  5  1  0
  5  6  1  0
  6  7  1  0
  7  8  1  0
  8  9  1  0
  9 10  1  0
 10 11  2  0
 11 12  1  0
 12 13  2  0
 13 14  1  0
 14 15  1  0
 10 16  1  0
 14 16  2  0
 16 17  1  0
 17 18  2  0
 17 19  1  0
 19 20  1  0
 20 21  1  0
 21 22  1  0
 22 23  1  0
 22 24  1  0
 19 25  1  0
 24 25  1  0
  8 26  1  0
  5 27  1  0
 26 27  1  0
M  END
