MAK-UNK-8fdbca50-6-acrylamide
     RDKit          3D

 40 43  0  0  0  0  0  0  0  0999 V2000
    6.6140   -5.4040   20.0030 C   0  0  0  0  0  0  0  0  0  0  0  0
    6.5190   -3.8700   20.0280 C   0  0  0  0  0  0  0  0  0  0  0  0
    5.5860   -3.4750   21.1420 C   0  0  0  0  0  0  0  0  0  0  0  0
    5.0060   -4.3010   21.8330 O   0  0  0  0  0  0  0  0  0  0  0  0
    5.4050   -2.1430   21.3470 N   0  0  0  0  0  0  0  0  0  0  0  0
    5.2310   -1.1080   20.3240 C   0  0  0  0  0  0  0  0  0  0  0  0
    6.6860   -0.6840   20.1010 C   0  0  0  0  0  0  0  0  0  0  0  0
    6.7630    0.2640   21.3110 C   0  0  0  0  0  0  0  0  0  0  0  0
    8.2970    0.4580   21.4460 C   0  0  0  0  0  0  0  0  0  0  0  0
    8.8110    1.5710   21.3050 O   0  0  0  0  0  0  0  0  0  0  0  0
    8.9950   -0.8640   21.7330 N   0  0  0  0  0  0  0  0  0  0  0  0
    8.4250   -2.0170   21.0220 C   0  0  0  0  0  0  0  0  0  0  0  0
    9.5860   -1.4400   23.0190 C   0  0  2  0  0  0  0  0  0  0  0  0
    9.8650   -0.5390   24.0860 C   0  0  0  0  0  0  0  0  0  0  0  0
   10.4980   -2.6920   22.8400 C   0  0  0  0  0  0  0  0  0  0  0  0
    9.4290   -2.9360   23.6160 C   0  0  0  0  0  0  0  0  0  0  0  0
    8.7290   -1.7860   23.7470 C   0  0  0  0  0  0  0  0  0  0  0  0
    9.2720   -0.6370   23.0650 N   0  0  0  0  0  0  0  0  0  0  0  0
   10.4840   -0.5830   22.2470 C   0  0  0  0  0  0  0  0  0  0  0  0
   11.2370   -1.8050   22.0900 C   0  0  0  0  0  0  0  0  0  0  0  0
   12.7610   -2.3210   21.2240 S   0  0  0  0  0  0  0  0  0  0  0  0
   13.5120   -2.9870   22.2500 O   0  0  0  0  0  0  0  0  0  0  0  0
   12.2790   -3.0840   20.1290 O   0  0  0  0  0  0  0  0  0  0  0  0
   13.7700   -1.0630   20.5500 N   0  0  0  0  0  0  0  0  0  0  0  0
   14.7510   -0.7730   19.3700 C   0  0  0  0  0  0  0  0  0  0  0  0
   15.2800    0.3990   19.1660 C   0  0  0  0  0  0  0  0  0  0  0  0
   16.1360    0.7220   18.1340 C   0  0  0  0  0  0  0  0  0  0  0  0
   15.6150    1.8590   17.5790 N   0  0  0  0  0  0  0  0  0  0  0  0
   15.2020    2.8020   18.4990 C   0  0  0  0  0  0  0  0  0  0  0  0
   14.7590    1.0580   20.2500 C   0  0  0  0  0  0  0  0  0  0  0  0
   13.7530    0.0290   21.2140 C   0  0  0  0  0  0  0  0  0  0  0  0
   12.8460   -0.0470   22.6100 C   0  0  0  0  0  0  0  0  0  0  0  0
   11.7800    0.7810   23.1710 C   0  0  0  0  0  0  0  0  0  0  0  0
   11.0550    0.5270   24.4520 C   0  0  0  0  0  0  0  0  0  0  0  0
   11.3130   -0.5430   25.2460 C   0  0  0  0  0  0  0  0  0  0  0  0
   12.3780   -1.4400   24.7430 C   0  0  0  0  0  0  0  0  0  0  0  0
   13.1050   -1.1790   23.4550 C   0  0  0  0  0  0  0  0  0  0  0  0
   13.9900   -2.0970   23.1620 F   0  0  0  0  0  0  0  0  0  0  0  0
    6.1660   -0.2000   22.6640 C   0  0  0  0  0  0  0  0  0  0  0  0
    5.5690   -1.6000   22.6780 C   0  0  0  0  0  0  0  0  0  0  0  0
  1  2  1  0
  2  3  1  0
  3  4  2  0
  3  5  1  0
  5  6  1  0
  6  7  1  0
  7  8  1  0
  8  9  1  0
  9 10  2  0
  9 11  1  0
 11 12  1  0
 11 13  1  0
 13 14  1  6
 13 15  1  0
 15 16  2  0
 16 17  1  0
 17 18  2  0
 18 19  1  0
 15 20  1  0
 19 20  2  0
 21 20  1  0
 21 22  2  0
 21 23  2  0
 21 24  1  0
 24 25  1  0
 25 26  2  0
 26 27  1  0
 27 28  1  0
 28 29  1  0
 26 30  1  0
 24 31  1  0
 30 31  2  0
 31 32  1  0
 32 33  2  0
 33 34  1  0
 34 35  2  0
 35 36  1  0
 32 37  1  0
 36 37  2  0
 37 38  1  0
  8 39  1  0
  5 40  1  0
 39 40  1  0
M  END
