MAK-UNK-902cc841-9
     RDKit          3D

 34 37  0  0  0  0  0  0  0  0999 V2000
    6.1960   -1.8610   18.5740 C   0  0  0  0  0  0  0  0  0  0  0  0
    5.8540   -2.5860   19.8420 C   0  0  0  0  0  0  0  0  0  0  0  0
    5.4080   -3.7460   19.7900 O   0  0  0  0  0  0  0  0  0  0  0  0
    6.0680   -1.8650   21.0210 N   0  0  0  0  0  0  0  0  0  0  0  0
    6.4000   -2.4700   22.3170 C   0  0  0  0  0  0  0  0  0  0  0  0
    7.6830   -2.1490   22.7790 C   0  0  0  0  0  0  0  0  0  0  0  0
    7.9920   -0.8250   22.8300 N   0  0  0  0  0  0  0  0  0  0  0  0
    9.2860   -0.5480   23.5740 C   0  0  1  0  0  0  0  0  0  0  0  0
   10.2360   -1.5650   23.3450 C   0  0  0  0  0  0  0  0  0  0  0  0
    9.9350   -2.7460   23.5210 O   0  0  0  0  0  0  0  0  0  0  0  0
   11.5380   -1.2380   22.9350 N   0  0  0  0  0  0  0  0  0  0  0  0
   12.3060   -2.2930   22.2990 C   0  0  0  0  0  0  0  0  0  0  0  0
   13.5030   -2.6950   23.1820 C   0  0  0  0  0  0  0  0  0  0  0  0
   13.2430   -2.8320   24.6330 N   0  0  0  0  0  0  0  0  0  0  0  0
   14.2250   -3.5250   25.8930 S   0  0  0  0  0  0  0  0  0  0  0  0
   15.0300   -2.4480   26.3580 O   0  0  0  0  0  0  0  0  0  0  0  0
   13.2870   -4.0900   26.7610 O   0  0  0  0  0  0  0  0  0  0  0  0
   15.3700   -4.9260   25.6620 C   0  0  0  0  0  0  0  0  0  0  0  0
   15.7620   -6.0710   26.6780 C   0  0  0  0  0  0  0  0  0  0  0  0
   15.3320   -6.1680   27.9120 F   0  0  0  0  0  0  0  0  0  0  0  0
   16.7240   -7.1280   26.2300 C   0  0  0  0  0  0  0  0  0  0  0  0
   17.2470   -7.0320   25.0200 C   0  0  0  0  0  0  0  0  0  0  0  0
   16.8780   -5.9010   24.1370 C   0  0  0  0  0  0  0  0  0  0  0  0
   15.9700   -4.9780   24.5200 C   0  0  0  0  0  0  0  0  0  0  0  0
   15.7610   -4.1300   23.5340 F   0  0  0  0  0  0  0  0  0  0  0  0
   12.6010   -1.6630   25.0650 C   0  0  0  0  0  0  0  0  0  0  0  0
   12.3620   -0.6460   23.9650 C   0  0  0  0  0  0  0  0  0  0  0  0
    9.8340    0.8770   23.3980 C   0  0  0  0  0  0  0  0  0  0  0  0
   11.0550    1.2850   22.8910 C   0  0  0  0  0  0  0  0  0  0  0  0
   11.2140    2.6550   22.8860 C   0  0  0  0  0  0  0  0  0  0  0  0
   10.1200    3.3120   23.3850 C   0  0  0  0  0  0  0  0  0  0  0  0
    8.8900    2.2330   23.8660 S   0  0  0  0  0  0  0  0  0  0  0  0
    7.8450   -0.1790   21.5170 C   0  0  0  0  0  0  0  0  0  0  0  0
    6.4580   -0.4600   20.8990 C   0  0  0  0  0  0  0  0  0  0  0  0
  1  2  1  0
  2  3  2  0
  2  4  1  0
  4  5  1  0
  5  6  1  0
  6  7  1  0
  7  8  1  0
  8  9  1  6
  9 10  2  0
  9 11  1  0
 11 12  1  0
 12 13  1  0
 13 14  1  0
 14 15  1  0
 15 16  2  0
 15 17  2  0
 15 18  1  0
 18 19  2  0
 19 20  1  0
 19 21  1  0
 21 22  2  0
 22 23  1  0
 18 24  1  0
 23 24  2  0
 24 25  1  0
 14 26  1  0
 11 27  1  0
 26 27  1  0
  8 28  1  0
 28 29  2  0
 29 30  1  0
 30 31  2  0
 28 32  1  0
 31 32  1  0
  7 33  1  0
  4 34  1  0
 33 34  1  0
M  END
