MAK-UNK-704ed37c-8-acrylamide
     RDKit          3D

 17 18  0  0  0  0  0  0  0  0999 V2000
    7.3330   -2.9140   18.6000 C   0  0  0  0  0  0  0  0  0  0  0  0
    6.4730   -2.6470   19.7970 C   0  0  0  0  0  0  0  0  0  0  0  0
    6.0080   -3.9130   20.4770 C   0  0  0  0  0  0  0  0  0  0  0  0
    5.1780   -4.6460   19.9400 O   0  0  0  0  0  0  0  0  0  0  0  0
    6.6250   -4.1080   21.6950 N   0  0  0  0  0  0  0  0  0  0  0  0
    7.4220   -3.1370   22.3570 C   0  0  0  0  0  0  0  0  0  0  0  0
    7.3860   -3.0550   23.7520 C   0  0  0  0  0  0  0  0  0  0  0  0
    6.2100   -3.5890   24.2420 C   0  0  0  0  0  0  0  0  0  0  0  0
    5.7680   -3.2970   25.5350 C   0  0  0  0  0  0  0  0  0  0  0  0
    4.5480   -3.1240   25.6200 O   0  0  0  0  0  0  0  0  0  0  0  0
    6.5200   -3.1620   26.6670 N   0  0  0  0  0  0  0  0  0  0  0  0
    5.8290   -3.0050   27.8360 C   0  0  0  0  0  0  0  0  0  0  0  0
    6.1310   -4.0870   28.7400 O   0  0  0  0  0  0  0  0  0  0  0  0
    7.1470   -4.9000   28.0740 N   0  0  0  0  0  0  0  0  0  0  0  0
    7.4810   -4.2050   26.8420 O   0  0  0  0  0  0  0  0  0  0  0  0
    6.0810   -5.0780   23.9020 C   0  0  0  0  0  0  0  0  0  0  0  0
    6.4200   -5.3460   22.4520 C   0  0  0  0  0  0  0  0  0  0  0  0
  1  2  1  0
  2  3  1  0
  3  4  2  0
  3  5  1  0
  5  6  1  0
  6  7  1  0
  7  8  1  0
  8  9  1  0
  9 10  2  0
  9 11  1  0
 11 12  1  0
 12 13  1  0
 13 14  1  0
 11 15  1  0
 14 15  1  0
  8 16  1  0
  5 17  1  0
 16 17  1  0
M  END
