MAK-UNK-c7aa8293-17
     RDKit          3D

 21 23  0  0  0  0  0  0  0  0999 V2000
    5.9450   -3.8960   20.2470 C   0  0  0  0  0  0  0  0  0  0  0  0
    6.6200   -4.7480   21.2230 C   0  0  2  0  0  0  0  0  0  0  0  0
    5.8680   -5.3950   22.1150 C   0  0  0  0  0  0  0  0  0  0  0  0
    6.5000   -6.1780   23.2360 C   0  0  0  0  0  0  0  0  0  0  0  0
    7.6770   -5.4380   23.8860 C   0  0  0  0  0  0  0  0  0  0  0  0
    7.5560   -3.9930   23.4350 C   0  0  1  0  0  0  0  0  0  0  0  0
    8.4040   -3.0160   24.2150 C   0  0  2  0  0  0  0  0  0  0  0  0
    9.4060   -2.2960   23.3220 C   0  0  0  0  0  0  0  0  0  0  0  0
   10.7880   -2.1980   23.8920 C   0  0  0  0  0  0  0  0  0  0  0  0
   11.2410   -3.2630   24.8600 C   0  0  0  0  0  0  0  0  0  0  0  0
   12.5350   -3.1600   25.3630 C   0  0  0  0  0  0  0  0  0  0  0  0
   13.3310   -2.0920   24.9490 C   0  0  0  0  0  0  0  0  0  0  0  0
   12.9510   -1.0670   24.0490 C   0  0  0  0  0  0  0  0  0  0  0  0
   13.7400   -0.0550   23.6630 O   0  0  0  0  0  0  0  0  0  0  0  0
   11.6510   -1.0520   23.4620 C   0  0  0  0  0  0  0  0  0  0  0  0
   11.3090   -0.0550   22.5930 O   0  0  0  0  0  0  0  0  0  0  0  0
   10.2110   -4.3170   25.1650 C   0  0  1  0  0  0  0  0  0  0  0  0
   10.3440   -4.9740   26.3470 C   0  0  0  0  0  0  0  0  0  0  0  0
    9.2700   -4.6760   27.3110 N   0  0  0  0  0  0  0  0  0  0  0  0
    8.9560   -3.6940   25.3390 O   0  0  0  0  0  0  0  0  0  0  0  0
    7.7310   -3.9520   21.9160 C   0  0  0  0  0  0  0  0  0  0  0  0
  2  1  1  1
  2  3  1  0
  3  4  1  0
  4  5  1  0
  6  5  1  1
  6  7  1  0
  7  8  1  6
  8  9  1  0
  9 10  2  0
 10 11  1  0
 11 12  2  0
 12 13  1  0
 13 14  1  0
  9 15  1  0
 13 15  2  0
 15 16  1  0
 10 17  1  0
 17 18  1  1
 18 19  1  0
  7 20  1  0
 17 20  1  0
  2 21  1  0
  6 21  1  0
M  END
