MAK-UNK-148caf23-23-chloroacetamide
     RDKit          3D

 35 38  0  0  0  0  0  0  0  0999 V2000
    8.1130   -3.1120   19.3060 C   0  0  0  0  0  0  0  0  0  0  0  0
    7.8960   -3.3000   20.7570 C   0  0  0  0  0  0  0  0  0  0  0  0
    6.9030   -3.9140   19.8920 O   0  0  0  0  0  0  0  0  0  0  0  0
    9.2520   -2.4330   21.2410 C   0  0  0  0  0  0  0  0  0  0  0  0
    8.2060   -2.2010   22.4000 C   0  0  0  0  0  0  0  0  0  0  0  0
    8.3620   -1.3540   23.7000 C   0  0  0  0  0  0  0  0  0  0  0  0
    9.6430   -0.6750   23.8950 C   0  0  0  0  0  0  0  0  0  0  0  0
    9.7710    0.0850   25.0570 N   0  0  0  0  0  0  0  0  0  0  0  0
    8.8840   -0.2380   26.2220 C   0  0  0  0  0  0  0  0  0  0  0  0
    7.4350    0.1610   26.1100 C   0  0  0  0  0  0  0  0  0  0  0  0
    7.0190    1.6280   26.2500 C   0  0  0  0  0  0  0  0  0  0  0  0
    5.6630    1.9640   26.1440 C   0  0  0  0  0  0  0  0  0  0  0  0
    4.7520    0.9370   25.9170 C   0  0  0  0  0  0  0  0  0  0  0  0
    5.0820   -0.4090   25.7840 C   0  0  0  0  0  0  0  0  0  0  0  0
    4.0960   -1.2980   25.5640 F   0  0  0  0  0  0  0  0  0  0  0  0
    6.4200   -0.8100   25.8790 C   0  0  0  0  0  0  0  0  0  0  0  0
    6.7430   -2.1750   25.7320 C   0  0  0  0  0  0  0  0  0  0  0  0
    6.6990   -2.8930   24.5470 C   0  0  0  0  0  0  0  0  0  0  0  0
    7.0960   -4.2440   24.6930 C   0  0  0  0  0  0  0  0  0  0  0  0
    7.1610   -5.1850   23.6780 C   0  0  0  0  0  0  0  0  0  0  0  0
    5.8410   -5.7410   23.4580 N   0  0  0  0  0  0  0  0  0  0  0  0
    5.8850   -6.5080   22.2290 C   0  0  0  0  0  0  0  0  0  0  0  0
    7.4050   -4.3990   26.0710 C   0  0  0  0  0  0  0  0  0  0  0  0
    7.1810   -3.0960   26.7230 N   0  0  0  0  0  0  0  0  0  0  0  0
    7.4630   -2.9390   28.3760 S   0  0  0  0  0  0  0  0  0  0  0  0
    8.8630   -3.2400   28.5490 O   0  0  0  0  0  0  0  0  0  0  0  0
    6.4590   -3.7710   29.0100 O   0  0  0  0  0  0  0  0  0  0  0  0
    7.1730   -1.2950   28.9250 C   0  0  0  0  0  0  0  0  0  0  0  0
    8.2170   -0.2400   28.7950 C   0  0  0  0  0  0  0  0  0  0  0  0
    7.7840    1.1210   29.3350 C   0  0  0  0  0  0  0  0  0  0  0  0
    6.5090    1.2550   29.8820 C   0  0  0  0  0  0  0  0  0  0  0  0
    5.6060    0.2470   29.9730 N   0  0  0  0  0  0  0  0  0  0  0  0
    5.9480   -0.9850   29.5010 C   0  0  0  0  0  0  0  0  0  0  0  0
   10.5890   -0.8030   23.0050 N   0  0  0  0  0  0  0  0  0  0  0  0
   10.3510   -1.5970   21.8590 C   0  0  0  0  0  0  0  0  0  0  0  0
  1  2  1  0
  2  3  2  0
  2  4  1  0
  4  5  2  0
  5  6  1  0
  6  7  2  0
  7  8  1  0
  8  9  1  0
  9 10  1  0
 10 11  2  0
 11 12  1  0
 12 13  2  0
 13 14  1  0
 14 15  1  0
 10 16  1  0
 14 16  2  0
 16 17  1  0
 17 18  2  0
 18 19  1  0
 19 20  1  0
 20 21  1  0
 21 22  1  0
 19 23  2  0
 17 24  1  0
 23 24  1  0
 24 25  1  0
 25 26  2  0
 25 27  2  0
 25 28  1  0
 28 29  2  0
 29 30  1  0
 30 31  2  0
 31 32  1  0
 28 33  1  0
 32 33  2  0
  7 34  1  0
  4 35  1  0
 34 35  2  0
M  END
