MAK-UNK-176ca439-4-vinylsulfonamide
     RDKit          3D

 27 29  0  0  0  0  0  0  0  0999 V2000
    7.8380   -2.8090   18.6200 C   0  0  0  0  0  0  0  0  0  0  0  0
    6.4620   -3.0160   19.0540 C   0  0  0  0  0  0  0  0  0  0  0  0
    6.3040   -3.8170   20.5850 S   0  0  0  0  0  0  0  0  0  0  0  0
    5.2440   -4.6970   20.2260 O   0  0  0  0  0  0  0  0  0  0  0  0
    7.4740   -4.3790   21.2280 O   0  0  0  0  0  0  0  0  0  0  0  0
    5.9700   -2.4550   21.5050 N   0  0  0  0  0  0  0  0  0  0  0  0
    5.8770   -2.7470   22.9260 C   0  0  0  0  0  0  0  0  0  0  0  0
    7.1480   -2.9260   23.4720 C   0  0  0  0  0  0  0  0  0  0  0  0
    8.1050   -1.8070   23.2460 N   0  0  0  0  0  0  0  0  0  0  0  0
    9.4220   -2.1500   23.7640 C   0  0  0  0  0  0  0  0  0  0  0  0
   10.4260   -1.2080   23.5650 C   0  0  0  0  0  0  0  0  0  0  0  0
   11.7640   -1.6820   22.9740 C   0  0  0  0  0  0  0  0  0  0  0  0
   12.8420   -0.6600   22.7640 C   0  0  0  0  0  0  0  0  0  0  0  0
   12.5630    0.7530   23.1330 C   0  0  0  0  0  0  0  0  0  0  0  0
   11.2320    1.1810   23.7120 C   0  0  0  0  0  0  0  0  0  0  0  0
   10.8660    2.4460   24.0900 O   0  0  0  0  0  0  0  0  0  0  0  0
    9.4980    2.8630   23.9790 C   0  0  2  0  0  0  0  0  0  0  0  0
    9.4250    3.6350   22.8250 C   0  0  0  0  0  0  0  0  0  0  0  0
    8.1840    4.2010   22.6190 C   0  0  0  0  0  0  0  0  0  0  0  0
    7.2940    4.2450   23.6940 C   0  0  0  0  0  0  0  0  0  0  0  0
    7.8110    4.4750   24.9880 C   0  0  1  0  0  0  0  0  0  0  0  0
    6.8590    3.9630   25.9360 O   0  0  0  0  0  0  0  0  0  0  0  0
    7.4510    3.3470   27.0760 C   0  0  0  0  0  0  0  0  0  0  0  0
    9.1530    3.7660   25.1720 C   0  0  0  0  0  0  0  0  0  0  0  0
   10.2330    0.1680   23.8980 C   0  0  0  0  0  0  0  0  0  0  0  0
    8.1580   -1.5540   21.8800 C   0  0  0  0  0  0  0  0  0  0  0  0
    6.9170   -1.3420   21.2690 C   0  0  0  0  0  0  0  0  0  0  0  0
  1  2  1  0
  3  2  1  0
  3  4  2  0
  3  5  2  0
  3  6  1  0
  6  7  1  0
  7  8  1  0
  8  9  1  0
  9 10  1  0
 10 11  1  0
 11 12  2  0
 12 13  1  0
 13 14  2  0
 14 15  1  0
 15 16  1  0
 17 16  1  1
 17 18  1  0
 18 19  1  0
 19 20  1  0
 20 21  1  0
 21 22  1  1
 22 23  1  0
 17 24  1  0
 21 24  1  0
 11 25  1  0
 15 25  2  0
  9 26  1  0
  6 27  1  0
 26 27  1  0
M  END
