MAK-UNK-7c9d1431-24-chloroacetamide
     RDKit          3D

 16 17  0  0  0  0  0  0  0  0999 V2000
    7.0450   -3.4510   19.8070 C   0  0  0  0  0  0  0  0  0  0  0  0
    6.3290   -4.5780   20.5490 C   0  0  0  0  0  0  0  0  0  0  0  0
    5.3480   -5.0930   20.0180 O   0  0  0  0  0  0  0  0  0  0  0  0
    6.8120   -5.0420   21.7750 N   0  0  0  0  0  0  0  0  0  0  0  0
    7.3310   -4.0390   22.7290 C   0  0  0  0  0  0  0  0  0  0  0  0
    6.4330   -3.8410   23.9660 C   0  0  0  0  0  0  0  0  0  0  0  0
    5.9810   -5.1030   24.5830 N   0  0  0  0  0  0  0  0  0  0  0  0
    5.2070   -4.9740   25.8320 C   0  0  0  0  0  0  0  0  0  0  0  0
    4.0700   -3.9640   25.8000 C   0  0  0  0  0  0  0  0  0  0  0  0
    2.7430   -4.3850   25.6140 C   0  0  0  0  0  0  0  0  0  0  0  0
    1.6950   -3.4580   25.5940 C   0  0  0  0  0  0  0  0  0  0  0  0
    1.9610   -2.1010   25.7590 C   0  0  0  0  0  0  0  0  0  0  0  0
    3.2690   -1.6710   25.9390 C   0  0  0  0  0  0  0  0  0  0  0  0
    4.3230   -2.5930   25.9610 C   0  0  0  0  0  0  0  0  0  0  0  0
    5.3230   -5.9180   23.5480 C   0  0  0  0  0  0  0  0  0  0  0  0
    6.2580   -6.2530   22.3830 C   0  0  0  0  0  0  0  0  0  0  0  0
  1  2  1  0
  2  3  2  0
  2  4  1  0
  4  5  1  0
  5  6  1  0
  6  7  1  0
  7  8  1  0
  8  9  1  0
  9 10  2  0
 10 11  1  0
 11 12  2  0
 12 13  1  0
  9 14  1  0
 13 14  2  0
  7 15  1  0
  4 16  1  0
 15 16  1  0
M  END
