MAK-UNK-e4a48a85-26-nitrile
     RDKit          3D

 25 27  0  0  0  0  0  0  0  0999 V2000
    6.7710   -3.5420   19.7220 C   0  0  0  0  0  0  0  0  0  0  0  0
    6.2920   -3.0230   18.6500 N   0  0  0  0  0  0  0  0  0  0  0  0
    6.8450   -2.8040   20.8870 N   0  0  0  0  0  0  0  0  0  0  0  0
    7.6480   -1.5930   20.9370 C   0  0  0  0  0  0  0  0  0  0  0  0
    8.6980   -1.7930   21.8260 C   0  0  0  0  0  0  0  0  0  0  0  0
    8.3450   -2.1350   23.1290 N   0  0  0  0  0  0  0  0  0  0  0  0
    9.4200   -2.2220   23.9900 C   0  0  0  0  0  0  0  0  0  0  0  0
   10.4630   -1.3640   23.6890 C   0  0  0  0  0  0  0  0  0  0  0  0
   11.6820   -1.8780   23.2100 C   0  0  0  0  0  0  0  0  0  0  0  0
   12.7150   -1.0010   22.9100 C   0  0  0  0  0  0  0  0  0  0  0  0
   12.5150    0.4920   23.0930 C   0  0  0  0  0  0  0  0  0  0  0  0
   11.3040    0.9660   23.5600 C   0  0  0  0  0  0  0  0  0  0  0  0
   11.0730    2.4030   23.7270 C   0  0  0  0  0  0  0  0  0  0  0  0
   10.2890    0.0430   23.8660 C   0  0  0  0  0  0  0  0  0  0  0  0
    9.0820    0.5310   24.3560 C   0  0  0  0  0  0  0  0  0  0  0  0
    8.7510    0.0480   25.4360 O   0  0  0  0  0  0  0  0  0  0  0  0
    8.2970    1.4800   23.7700 N   0  0  0  0  0  0  0  0  0  0  0  0
    8.4330    1.7510   22.4600 C   0  0  0  0  0  0  0  0  0  0  0  0
    8.0240    3.0180   22.0390 C   0  0  0  0  0  0  0  0  0  0  0  0
    6.7310    3.3940   22.4860 C   0  0  0  0  0  0  0  0  0  0  0  0
    5.9120    2.8860   21.7300 O   0  0  0  0  0  0  0  0  0  0  0  0
    6.5460    3.0290   23.9830 C   0  0  0  0  0  0  0  0  0  0  0  0
    7.0030    1.7780   24.3780 C   0  0  0  0  0  0  0  0  0  0  0  0
    7.5070   -3.3640   23.1040 C   0  0  0  0  0  0  0  0  0  0  0  0
    6.4140   -3.2540   22.2230 C   0  0  0  0  0  0  0  0  0  0  0  0
  1  2  2  3
  1  3  1  0
  3  4  1  0
  4  5  1  0
  5  6  1  0
  6  7  1  0
  7  8  1  0
  8  9  2  0
  9 10  1  0
 10 11  2  0
 11 12  1  0
 12 13  1  0
  8 14  1  0
 12 14  2  0
 14 15  1  0
 15 16  2  0
 15 17  1  0
 17 18  1  0
 18 19  1  0
 19 20  1  0
 20 21  1  0
 20 22  1  0
 17 23  1  0
 22 23  1  0
  6 24  1  0
  3 25  1  0
 24 25  1  0
M  END
