MAK-UNK-8fdbca50-12-chloroacetamide
     RDKit          3D

 39 42  0  0  0  0  0  0  0  0999 V2000
    8.0120   -3.0810   20.3120 C   0  0  0  0  0  0  0  0  0  0  0  0
    6.8960   -2.2450   20.0150 C   0  0  0  0  0  0  0  0  0  0  0  0
    6.0530   -2.6150   19.0400 O   0  0  0  0  0  0  0  0  0  0  0  0
    6.9830   -1.2070   20.9730 N   0  0  0  0  0  0  0  0  0  0  0  0
    7.2860   -1.4610   22.4390 C   0  0  0  0  0  0  0  0  0  0  0  0
    8.8280   -1.9510   22.7090 C   0  0  0  0  0  0  0  0  0  0  0  0
    9.6300   -1.5770   21.4350 C   0  0  0  0  0  0  0  0  0  0  0  0
   11.2860   -1.9310   21.5900 C   0  0  0  0  0  0  0  0  0  0  0  0
   11.7890   -1.4350   22.5990 O   0  0  0  0  0  0  0  0  0  0  0  0
   12.3840   -2.7490   20.6370 N   0  0  0  0  0  0  0  0  0  0  0  0
   13.5510   -1.9110   20.7750 C   0  0  0  0  0  0  0  0  0  0  0  0
   13.1170   -4.2720   20.4830 C   0  0  2  0  0  0  0  0  0  0  0  0
   14.4870   -4.5140   19.8490 C   0  0  0  0  0  0  0  0  0  0  0  0
   11.9840   -5.0730   20.4320 C   0  0  0  0  0  0  0  0  0  0  0  0
   11.4690   -4.3760   19.6440 C   0  0  0  0  0  0  0  0  0  0  0  0
   10.3630   -4.5900   19.2910 C   0  0  0  0  0  0  0  0  0  0  0  0
    9.7900   -5.4140   19.9590 C   0  0  0  0  0  0  0  0  0  0  0  0
    9.9990   -6.2500   20.9540 C   0  0  0  0  0  0  0  0  0  0  0  0
    8.8740   -6.9800   21.9390 C   0  0  0  0  0  0  0  0  0  0  0  0
    8.7560   -8.1550   22.2270 C   0  0  0  0  0  0  0  0  0  0  0  0
    7.8300   -8.7530   22.8980 C   0  0  0  0  0  0  0  0  0  0  0  0
    7.6950  -10.0700   22.9240 C   0  0  0  0  0  0  0  0  0  0  0  0
    8.1290  -11.1330   23.5610 N   0  0  0  0  0  0  0  0  0  0  0  0
    7.9020  -12.4040   22.7740 C   0  0  0  0  0  0  0  0  0  0  0  0
    7.1050   -7.8470   23.4180 C   0  0  0  0  0  0  0  0  0  0  0  0
    7.6430   -6.6280   22.9780 N   0  0  0  0  0  0  0  0  0  0  0  0
    6.6060   -5.4250   23.8820 S   0  0  0  0  0  0  0  0  0  0  0  0
    7.1090   -4.0770   23.8060 O   0  0  0  0  0  0  0  0  0  0  0  0
    6.6440   -5.9750   25.2210 O   0  0  0  0  0  0  0  0  0  0  0  0
    4.8870   -5.5590   23.6460 C   0  0  0  0  0  0  0  0  0  0  0  0
    4.3970   -6.5480   22.9300 C   0  0  0  0  0  0  0  0  0  0  0  0
    2.8860   -6.6590   22.7840 C   0  0  0  0  0  0  0  0  0  0  0  0
    2.0920   -5.5780   23.4920 C   0  0  0  0  0  0  0  0  0  0  0  0
    2.6820   -4.5920   24.1990 N   0  0  0  0  0  0  0  0  0  0  0  0
    4.0500   -4.6110   24.2560 C   0  0  0  0  0  0  0  0  0  0  0  0
   11.3400   -6.2790   21.0170 C   0  0  0  0  0  0  0  0  0  0  0  0
   11.7630   -7.2190   21.6780 F   0  0  0  0  0  0  0  0  0  0  0  0
    9.1090   -0.1190   21.4570 C   0  0  0  0  0  0  0  0  0  0  0  0
    7.7380   -0.0250   20.6800 C   0  0  0  0  0  0  0  0  0  0  0  0
  1  2  1  0
  2  3  2  0
  2  4  1  0
  4  5  1  0
  5  6  1  0
  6  7  1  0
  7  8  1  0
  8  9  2  0
  8 10  1  0
 10 11  1  0
 10 12  1  0
 12 13  1  6
 12 14  1  0
 14 15  2  0
 15 16  1  0
 16 17  2  0
 17 18  1  0
 18 19  1  0
 19 20  2  0
 20 21  1  0
 21 22  1  0
 22 23  1  0
 23 24  1  0
 21 25  2  0
 19 26  1  0
 25 26  1  0
 26 27  1  0
 27 28  2  0
 27 29  2  0
 27 30  1  0
 30 31  2  0
 31 32  1  0
 32 33  2  0
 33 34  1  0
 30 35  1  0
 34 35  2  0
 14 36  1  0
 18 36  2  0
 36 37  1  0
  7 38  1  0
  4 39  1  0
 38 39  1  0
M  END
