MAK-UNK-10799360-34-acrylamide
     RDKit          3D

 26 29  0  0  0  0  0  0  0  0999 V2000
    7.9580   -3.3750   19.1420 C   0  0  0  0  0  0  0  0  0  0  0  0
    6.7970   -2.4240   18.9000 C   0  0  0  0  0  0  0  0  0  0  0  0
    5.8510   -2.6860   20.0120 C   0  0  0  0  0  0  0  0  0  0  0  0
    4.8300   -3.3100   19.8180 O   0  0  0  0  0  0  0  0  0  0  0  0
    6.2290   -2.2570   21.2460 N   0  0  0  0  0  0  0  0  0  0  0  0
    6.7960   -0.9650   21.6790 C   0  0  0  0  0  0  0  0  0  0  0  0
    8.1330   -1.4070   22.2990 C   0  0  2  0  0  0  0  0  0  0  0  0
    7.9500   -2.7950   21.7550 C   0  0  0  0  0  0  0  0  0  0  0  0
    6.5160   -3.2370   22.2840 C   0  0  1  0  0  0  0  0  0  0  0  0
    7.3710   -3.1610   23.5240 C   0  0  0  0  0  0  0  0  0  0  0  0
    8.0660   -1.8390   23.7610 C   0  0  1  0  0  0  0  0  0  0  0  0
    9.3100   -2.0330   24.2880 N   0  0  0  0  0  0  0  0  0  0  0  0
   10.4830   -1.3730   23.8910 C   0  0  0  0  0  0  0  0  0  0  0  0
   10.9220   -0.2200   24.4980 C   0  0  0  0  0  0  0  0  0  0  0  0
   12.0590    0.4290   24.0890 C   0  0  0  0  0  0  0  0  0  0  0  0
   12.8120   -0.0510   23.0600 C   0  0  0  0  0  0  0  0  0  0  0  0
   12.4430   -1.2140   22.3990 C   0  0  0  0  0  0  0  0  0  0  0  0
   13.1630   -1.7430   21.3550 C   0  0  0  0  0  0  0  0  0  0  0  0
   11.2700   -1.8700   22.8250 C   0  0  0  0  0  0  0  0  0  0  0  0
    9.4400   -3.1390   25.1440 C   0  0  0  0  0  0  0  0  0  0  0  0
   10.7380   -3.5550   25.3770 C   0  0  0  0  0  0  0  0  0  0  0  0
   10.9020   -4.6340   26.2070 C   0  0  0  0  0  0  0  0  0  0  0  0
    9.8990   -5.3870   26.8590 C   0  0  0  0  0  0  0  0  0  0  0  0
    8.4910   -5.0290   26.6790 C   0  0  0  0  0  0  0  0  0  0  0  0
    7.4250   -5.7170   27.2840 N   0  0  0  0  0  0  0  0  0  0  0  0
    8.3280   -3.8140   25.7500 C   0  0  0  0  0  0  0  0  0  0  0  0
  1  2  1  0
  2  3  1  0
  3  4  2  0
  3  5  1  0
  5  6  1  0
  7  6  1  6
  7  8  1  0
  5  9  1  0
  8  9  1  0
  9 10  1  1
  7 11  1  0
 10 11  1  0
 11 12  1  6
 12 13  1  0
 13 14  2  0
 14 15  1  0
 15 16  2  0
 16 17  1  0
 17 18  1  0
 13 19  1  0
 17 19  2  0
 12 20  1  0
 20 21  2  0
 21 22  1  0
 22 23  2  0
 23 24  1  0
 24 25  1  0
 20 26  1  0
 24 26  2  0
M  END
