MAK-UNK-2084232d-23
     RDKit          3D

 22 24  0  0  0  0  0  0  0  0999 V2000
   13.5950   -2.0100   25.3350 N   0  0  0  0  0  0  0  0  0  0  0  0
   12.4650   -1.5430   24.6440 C   0  0  0  0  0  0  0  0  0  0  0  0
   11.7540   -2.3530   23.5960 C   0  0  1  0  0  0  0  0  0  0  0  0
   10.6600   -3.1250   23.9670 O   0  0  0  0  0  0  0  0  0  0  0  0
    9.1750   -2.7140   24.1450 C   0  0  2  0  0  0  0  0  0  0  0  0
    8.3960   -3.6010   23.4360 C   0  0  1  0  0  0  0  0  0  0  0  0
    7.7970   -4.6470   24.1360 C   0  0  0  0  0  0  0  0  0  0  0  0
    7.2150   -5.6820   23.3820 C   0  0  0  0  0  0  0  0  0  0  0  0
    6.8580   -5.4340   22.0540 C   0  0  0  0  0  0  0  0  0  0  0  0
    6.9100   -3.9670   21.5910 C   0  0  1  0  0  0  0  0  0  0  0  0
    5.5060   -3.5410   21.1510 C   0  0  0  0  0  0  0  0  0  0  0  0
    4.4840   -3.8320   21.7510 O   0  0  0  0  0  0  0  0  0  0  0  0
    7.4330   -2.9720   22.6550 C   0  0  0  0  0  0  0  0  0  0  0  0
    9.2880   -1.4860   23.6820 C   0  0  0  0  0  0  0  0  0  0  0  0
   10.6510   -1.8420   23.4940 C   0  0  0  0  0  0  0  0  0  0  0  0
   11.5110   -1.6350   22.4130 C   0  0  0  0  0  0  0  0  0  0  0  0
   12.9310   -2.0010   22.1360 C   0  0  0  0  0  0  0  0  0  0  0  0
   13.4730   -2.6960   23.2240 C   0  0  0  0  0  0  0  0  0  0  0  0
   12.7020   -2.9670   24.3880 C   0  0  0  0  0  0  0  0  0  0  0  0
   13.1890   -3.5780   25.3560 O   0  0  0  0  0  0  0  0  0  0  0  0
   11.3340   -2.5620   24.5220 C   0  0  0  0  0  0  0  0  0  0  0  0
   10.7520   -2.9310   25.7120 O   0  0  0  0  0  0  0  0  0  0  0  0
  1  2  1  0
  3  2  1  1
  3  4  1  0
  4  5  1  0
  5  6  1  0
  6  7  1  1
  7  8  1  0
  8  9  1  0
  9 10  1  0
 10 11  1  1
 11 12  2  0
  6 13  1  0
 10 13  1  0
  5 14  1  6
 14 15  1  0
  3 16  1  0
 15 16  2  0
 16 17  1  0
 17 18  2  0
 18 19  1  0
 19 20  1  0
 15 21  1  0
 19 21  2  0
 21 22  1  0
M  END
