MAK-UNK-72659d64-5-acrylamide
     RDKit          3D

 14 14  0  0  0  0  0  0  0  0999 V2000
    7.7610   -4.1320   20.5320 C   0  0  0  0  0  0  0  0  0  0  0  0
    6.8400   -2.8650   20.2910 C   0  0  0  0  0  0  0  0  0  0  0  0
    5.6520   -2.5750   21.2910 C   0  0  0  0  0  0  0  0  0  0  0  0
    4.5260   -2.9970   21.7520 O   0  0  0  0  0  0  0  0  0  0  0  0
    5.4550   -3.6670   20.8410 N   0  0  0  0  0  0  0  0  0  0  0  0
    5.0970   -3.6560   19.5750 C   0  0  0  0  0  0  0  0  0  0  0  0
    5.2610   -4.5560   21.8720 C   0  0  0  0  0  0  0  0  0  0  0  0
    6.3170   -4.8340   22.9120 C   0  0  0  0  0  0  0  0  0  0  0  0
    6.0540   -5.7850   24.0290 C   0  0  0  0  0  0  0  0  0  0  0  0
    4.8780   -6.4160   24.1390 N   0  0  0  0  0  0  0  0  0  0  0  0
    3.9810   -6.1050   23.1530 C   0  0  0  0  0  0  0  0  0  0  0  0
    2.7440   -6.7500   23.2450 C   0  0  0  0  0  0  0  0  0  0  0  0
    1.7100   -7.2840   23.3070 N   0  0  0  0  0  0  0  0  0  0  0  0
    4.1250   -5.2380   22.0800 N   0  0  0  0  0  0  0  0  0  0  0  0
  1  2  1  0
  2  3  1  0
  3  4  2  0
  3  5  1  0
  5  6  1  0
  5  7  1  0
  7  8  2  0
  8  9  1  0
  9 10  2  0
 10 11  1  0
 11 12  1  0
 12 13  3  0
  7 14  1  0
 11 14  2  0
M  END
