MAK-UNK-6435e6c2-2
     RDKit          3D

 15 16  0  0  0  0  0  0  0  0999 V2000
    7.0340   -2.9900   20.6330 C   0  0  0  0  0  0  0  0  0  0  0  0
    6.2460   -4.2720   20.7830 C   0  0  0  0  0  0  0  0  0  0  0  0
    5.4820   -4.6630   19.8880 O   0  0  0  0  0  0  0  0  0  0  0  0
    6.4290   -4.9850   21.9520 N   0  0  0  0  0  0  0  0  0  0  0  0
    7.2680   -4.5640   23.0710 C   0  0  0  0  0  0  0  0  0  0  0  0
    6.2560   -3.9750   24.0520 C   0  0  0  0  0  0  0  0  0  0  0  0
    5.3310   -5.0950   24.3930 N   0  0  0  0  0  0  0  0  0  0  0  0
    4.6530   -4.9960   25.7070 C   0  0  0  0  0  0  0  0  0  0  0  0
    3.4580   -4.0040   25.6080 C   0  0  0  0  0  0  0  0  0  0  0  0
    3.9620   -2.5950   25.9040 C   0  0  0  0  0  0  0  0  0  0  0  0
    2.6900   -1.7540   25.7850 C   0  0  0  0  0  0  0  0  0  0  0  0
    1.4560   -2.5670   25.4370 C   0  0  0  0  0  0  0  0  0  0  0  0
    1.7670   -4.2270   25.2510 S   0  0  0  0  0  0  0  0  0  0  0  0
    4.6150   -5.7240   23.2460 C   0  0  0  0  0  0  0  0  0  0  0  0
    5.5240   -6.1110   22.2530 C   0  0  0  0  0  0  0  0  0  0  0  0
  1  2  1  0
  2  3  2  0
  2  4  1  0
  4  5  1  0
  5  6  1  0
  6  7  1  0
  7  8  1  0
  8  9  1  0
  9 10  2  0
 10 11  1  0
 11 12  2  0
  9 13  1  0
 12 13  1  0
  7 14  1  0
  4 15  1  0
 14 15  1  0
M  END
