MAK-UNK-902cc841-12
     RDKit          3D

 29 31  0  0  0  0  0  0  0  0999 V2000
    8.7930   -6.2850   26.8410 C   0  0  0  0  0  0  0  0  0  0  0  0
    7.4110   -6.3470   27.2500 O   0  0  0  0  0  0  0  0  0  0  0  0
    6.5230   -5.5000   26.6510 C   0  0  0  0  0  0  0  0  0  0  0  0
    5.7370   -4.7740   27.2400 O   0  0  0  0  0  0  0  0  0  0  0  0
    6.6000   -5.5550   25.2630 C   0  0  0  0  0  0  0  0  0  0  0  0
    5.5100   -6.0790   24.5490 C   0  0  0  0  0  0  0  0  0  0  0  0
    5.5340   -6.1680   23.1460 C   0  0  0  0  0  0  0  0  0  0  0  0
    6.6550   -5.7220   22.4470 C   0  0  0  0  0  0  0  0  0  0  0  0
    7.8210   -5.1510   23.2130 C   0  0  0  0  0  0  0  0  0  0  0  0
    8.9410   -4.6930   22.5310 N   0  0  0  0  0  0  0  0  0  0  0  0
   10.0790   -3.5730   23.1150 S   0  0  0  0  0  0  0  0  0  0  0  0
   10.7890   -4.1850   24.1990 O   0  0  0  0  0  0  0  0  0  0  0  0
   10.7300   -3.1780   21.8970 O   0  0  0  0  0  0  0  0  0  0  0  0
    9.2580   -1.9350   23.6300 C   0  0  1  0  0  0  0  0  0  0  0  0
   10.4210   -0.9400   23.5540 C   0  0  0  0  0  0  0  0  0  0  0  0
   11.7150   -1.3100   22.8610 C   0  0  0  0  0  0  0  0  0  0  0  0
   12.6840   -0.1670   22.9180 C   0  0  0  0  0  0  0  0  0  0  0  0
   12.1710    0.9470   23.5840 C   0  0  0  0  0  0  0  0  0  0  0  0
   10.5500    0.6760   24.1630 S   0  0  0  0  0  0  0  0  0  0  0  0
    8.0010   -1.5430   22.9460 N   0  0  0  0  0  0  0  0  0  0  0  0
    8.2530   -1.0510   21.5870 C   0  0  0  0  0  0  0  0  0  0  0  0
    7.0230   -0.7740   20.8840 C   0  0  0  0  0  0  0  0  0  0  0  0
    6.1490   -1.9500   20.9110 N   0  0  0  0  0  0  0  0  0  0  0  0
    5.8990   -2.7430   19.7180 C   0  0  0  0  0  0  0  0  0  0  0  0
    6.2780   -2.0380   18.4290 C   0  0  0  0  0  0  0  0  0  0  0  0
    5.4410   -3.9000   19.7050 O   0  0  0  0  0  0  0  0  0  0  0  0
    5.9390   -2.5370   22.2200 C   0  0  0  0  0  0  0  0  0  0  0  0
    7.1250   -2.7340   22.8770 C   0  0  0  0  0  0  0  0  0  0  0  0
    7.7450   -5.0970   24.5870 C   0  0  0  0  0  0  0  0  0  0  0  0
  1  2  1  0
  2  3  1  0
  3  4  2  0
  3  5  1  0
  5  6  2  0
  6  7  1  0
  7  8  2  0
  8  9  1  0
  9 10  1  0
 11 10  1  0
 11 12  2  0
 11 13  2  0
 14 11  1  6
 14 15  1  0
 15 16  2  0
 16 17  1  0
 17 18  2  0
 15 19  1  0
 18 19  1  0
 14 20  1  0
 20 21  1  0
 21 22  1  0
 22 23  1  0
 23 24  1  0
 24 25  1  0
 24 26  2  0
 23 27  1  0
 20 28  1  0
 27 28  1  0
  5 29  1  0
  9 29  2  0
M  END
