MAK-UNK-3d7e3904-1-chloroacetamide
     RDKit          3D

 24 26  0  0  0  0  0  0  0  0999 V2000
    7.1520   -3.1330   19.0400 C   0  0  0  0  0  0  0  0  0  0  0  0
    6.2650   -3.8340   20.0370 C   0  0  0  0  0  0  0  0  0  0  0  0
    5.1690   -4.2860   19.7490 O   0  0  0  0  0  0  0  0  0  0  0  0
    6.7890   -4.0190   21.3070 N   0  0  0  0  0  0  0  0  0  0  0  0
    7.6530   -2.9980   21.8960 C   0  0  0  0  0  0  0  0  0  0  0  0
    7.1340   -2.5600   23.2670 C   0  0  0  0  0  0  0  0  0  0  0  0
    6.5890   -3.6030   24.2130 C   0  0  0  0  0  0  0  0  0  0  0  0
    5.8990   -3.1090   25.3300 C   0  0  0  0  0  0  0  0  0  0  0  0
    4.6730   -3.0530   25.3020 O   0  0  0  0  0  0  0  0  0  0  0  0
    6.7100   -2.7430   26.3910 N   0  0  0  0  0  0  0  0  0  0  0  0
    7.2040   -1.4080   26.8280 C   0  0  2  0  0  0  0  0  0  0  0  0
    7.3280   -1.4750   28.2110 C   0  0  0  0  0  0  0  0  0  0  0  0
    7.4880   -0.2110   28.7480 C   0  0  0  0  0  0  0  0  0  0  0  0
    6.2800    0.4840   28.6980 C   0  0  0  0  0  0  0  0  0  0  0  0
    5.8660    0.8540   27.4150 C   0  0  1  0  0  0  0  0  0  0  0  0
    6.2790    2.2650   26.9260 C   0  0  0  0  0  0  0  0  0  0  0  0
    5.8090    2.6900   25.5180 C   0  0  0  0  0  0  0  0  0  0  0  0
    6.2740    4.0790   25.0370 C   0  0  0  0  0  0  0  0  0  0  0  0
    7.1440    4.7720   26.1050 C   0  0  0  0  0  0  0  0  0  0  0  0
    8.2460    3.9300   26.7740 C   0  0  0  0  0  0  0  0  0  0  0  0
    7.8070    2.4650   26.9850 C   0  0  0  0  0  0  0  0  0  0  0  0
    6.2880   -0.2320   26.3670 C   0  0  0  0  0  0  0  0  0  0  0  0
    5.6710   -4.5620   23.4360 C   0  0  0  0  0  0  0  0  0  0  0  0
    6.3760   -5.1080   22.1830 C   0  0  0  0  0  0  0  0  0  0  0  0
  1  2  1  0
  2  3  2  0
  2  4  1  0
  4  5  1  0
  5  6  1  0
  6  7  1  0
  7  8  1  0
  8  9  2  0
  8 10  1  0
 11 10  1  1
 11 12  1  0
 12 13  1  0
 13 14  1  0
 14 15  1  0
 15 16  1  6
 16 17  1  0
 17 18  1  0
 18 19  1  0
 19 20  1  0
 16 21  1  0
 20 21  1  0
 11 22  1  0
 15 22  1  0
  7 23  1  0
  4 24  1  0
 23 24  1  0
M  END
