MAK-UNK-1bb0b7ee-10
     RDKit          3D

 21 21  0  0  0  0  0  0  0  0999 V2000
    1.0280    0.6360   24.6290 C   0  0  0  0  0  0  0  0  0  0  0  0
   -0.2600    1.1590   25.2870 C   0  0  0  0  0  0  0  0  0  0  0  0
   -0.4250    2.3390   25.5890 O   0  0  0  0  0  0  0  0  0  0  0  0
   -1.2540    0.1150   25.5040 N   0  0  0  0  0  0  0  0  0  0  0  0
   -1.2320   -1.0450   24.7200 C   0  0  2  0  0  0  0  0  0  0  0  0
   -2.3610   -1.2980   23.8950 C   0  0  0  0  0  0  0  0  0  0  0  0
   -3.2280   -2.1230   24.1810 O   0  0  0  0  0  0  0  0  0  0  0  0
   -2.4040   -0.5270   22.7440 N   0  0  0  0  0  0  0  0  0  0  0  0
   -3.0550   -0.9690   21.5270 C   0  0  0  0  0  0  0  0  0  0  0  0
   -2.7710   -2.3060   21.3170 C   0  0  0  0  0  0  0  0  0  0  0  0
   -2.8870   -2.8070   19.9270 C   0  0  0  0  0  0  0  0  0  0  0  0
   -3.0730   -3.4890   18.1530 Br  0  0  0  0  0  0  0  0  0  0  0  0
   -0.8030   -2.1290   25.5100 C   0  0  1  0  0  0  0  0  0  0  0  0
   -1.4940   -3.4290   25.1110 C   0  0  0  0  0  0  0  0  0  0  0  0
    0.6130   -2.3630   25.3170 O   0  0  0  0  0  0  0  0  0  0  0  0
    1.4800   -2.6470   26.4400 C   0  0  0  0  0  0  0  0  0  0  0  0
    2.6350   -3.6700   26.3270 C   0  0  0  0  0  0  0  0  0  0  0  0
    3.8790   -2.4330   26.5140 S   0  0  0  0  0  0  0  0  0  0  0  0
    4.5290   -2.1310   25.2560 O   0  0  0  0  0  0  0  0  0  0  0  0
    4.6250   -2.6190   27.7410 O   0  0  0  0  0  0  0  0  0  0  0  0
    2.4270   -1.4650   26.7710 C   0  0  0  0  0  0  0  0  0  0  0  0
  1  2  1  0
  2  3  2  0
  2  4  1  0
  5  4  1  1
  5  6  1  0
  6  7  2  0
  6  8  1  0
  8  9  1  0
  9 10  1  0
 10 11  3  0
 11 12  1  0
  5 13  1  0
 13 14  1  6
 13 15  1  0
 15 16  1  0
 16 17  1  0
 18 17  1  0
 18 19  2  0
 18 20  2  0
 16 21  1  0
 18 21  1  0
M  END
