MAK-UNK-72659d64-4-chloroacetamide
     RDKit          3D

 13 13  0  0  0  0  0  0  0  0999 V2000
    7.6920   -3.1370   18.7360 C   0  0  0  0  0  0  0  0  0  0  0  0
    6.4330   -3.4030   19.4740 C   0  0  0  0  0  0  0  0  0  0  0  0
    5.3220   -3.3380   18.9420 O   0  0  0  0  0  0  0  0  0  0  0  0
    6.5880   -3.7370   20.7720 N   0  0  0  0  0  0  0  0  0  0  0  0
    6.5260   -4.9530   21.0780 C   0  0  0  0  0  0  0  0  0  0  0  0
    5.9830   -5.0190   22.4490 C   0  0  0  0  0  0  0  0  0  0  0  0
    4.9320   -6.0840   22.6530 C   0  0  0  0  0  0  0  0  0  0  0  0
    4.4080   -6.1000   24.0410 C   0  0  0  0  0  0  0  0  0  0  0  0
    4.9480   -5.1590   24.9270 N   0  0  0  0  0  0  0  0  0  0  0  0
    5.9320   -4.2600   24.4970 C   0  0  0  0  0  0  0  0  0  0  0  0
    6.3670   -3.3680   25.4920 C   0  0  0  0  0  0  0  0  0  0  0  0
    5.6710   -3.6070   26.7730 N   0  0  0  0  0  0  0  0  0  0  0  0
    6.4090   -4.1780   23.4160 N   0  0  0  0  0  0  0  0  0  0  0  0
  1  2  1  0
  2  3  2  0
  2  4  1  0
  4  5  1  0
  5  6  1  0
  6  7  2  0
  7  8  1  0
  8  9  2  0
  9 10  1  0
 10 11  1  0
 11 12  3  0
  6 13  1  0
 10 13  2  0
M  END
