MAK-UNK-51bb34f9-1-acrylamide
     RDKit          3D

 31 33  0  0  0  0  0  0  0  0999 V2000
    6.6820   -4.2180   20.3270 C   0  0  0  0  0  0  0  0  0  0  0  0
    6.3370   -4.3060   21.8180 C   0  0  0  0  0  0  0  0  0  0  0  0
    4.9310   -4.8220   22.0190 C   0  0  0  0  0  0  0  0  0  0  0  0
    3.8700   -5.1250   22.5610 O   0  0  0  0  0  0  0  0  0  0  0  0
    5.1870   -4.4260   23.4260 C   0  0  0  0  0  0  0  0  0  0  0  0
    5.4890   -5.4640   24.4980 C   0  0  0  0  0  0  0  0  0  0  0  0
    5.7380   -4.9340   25.9220 C   0  0  0  0  0  0  0  0  0  0  0  0
    5.6510   -3.4320   26.0770 C   0  0  0  0  0  0  0  0  0  0  0  0
    5.8820   -2.9080   27.3660 N   0  0  0  0  0  0  0  0  0  0  0  0
    6.3110   -1.5300   27.4270 C   0  0  0  0  0  0  0  0  0  0  0  0
    6.4710   -0.7930   26.2650 N   0  0  0  0  0  0  0  0  0  0  0  0
    7.4030    0.2880   26.0380 C   0  0  0  0  0  0  0  0  0  0  0  0
    8.7750   -0.2220   25.5920 C   0  0  0  0  0  0  0  0  0  0  0  0
    9.4380    0.4430   24.5930 O   0  0  0  0  0  0  0  0  0  0  0  0
   10.5230   -0.2090   24.0470 C   0  0  2  0  0  0  0  0  0  0  0  0
   11.8530    0.4840   24.1940 C   0  0  0  0  0  0  0  0  0  0  0  0
   12.5790    0.0920   23.1110 N   0  0  0  0  0  0  0  0  0  0  0  0
   11.8030   -0.9090   22.4600 C   0  0  0  0  0  0  0  0  0  0  0  0
   10.3230   -0.4730   22.6600 C   0  0  1  0  0  0  0  0  0  0  0  0
    9.1570   -0.5620   22.5510 N   0  0  0  0  0  0  0  0  0  0  0  0
    8.5470    0.0770   21.5150 C   0  0  0  0  0  0  0  0  0  0  0  0
    8.9960    1.3440   21.2250 O   0  0  0  0  0  0  0  0  0  0  0  0
    7.5240   -0.5620   20.8430 N   0  0  0  0  0  0  0  0  0  0  0  0
    6.6090    0.0990   19.9720 C   0  0  0  0  0  0  0  0  0  0  0  0
    5.3300    0.8250   20.3040 C   0  0  0  0  0  0  0  0  0  0  0  0
    4.3900    1.5430   19.2910 C   0  0  0  0  0  0  0  0  0  0  0  0
    5.1520    1.2710   17.9910 C   0  0  0  0  0  0  0  0  0  0  0  0
    6.2870    0.6150   17.7130 N   0  0  0  0  0  0  0  0  0  0  0  0
    6.9750    0.0540   18.6750 C   0  0  0  0  0  0  0  0  0  0  0  0
    5.3680   -2.6110   25.0460 N   0  0  0  0  0  0  0  0  0  0  0  0
    5.1480   -3.0860   23.7900 C   0  0  0  0  0  0  0  0  0  0  0  0
  1  2  1  0
  2  3  1  0
  3  4  2  0
  3  5  1  0
  5  6  2  0
  6  7  1  0
  7  8  2  0
  8  9  1  0
  9 10  1  0
 10 11  1  0
 11 12  1  0
 12 13  1  0
 13 14  1  0
 15 14  1  6
 15 16  1  0
 16 17  1  0
 17 18  1  0
 15 19  1  0
 18 19  1  0
 19 20  1  1
 20 21  1  0
 21 22  2  0
 21 23  1  0
 23 24  1  0
 24 25  2  0
 25 26  1  0
 26 27  2  0
 27 28  1  0
 24 29  1  0
 28 29  2  0
  8 30  1  0
  5 31  1  0
 30 31  2  0
M  END
