MAK-UNK-f983951f-20-acrylamide
     RDKit          3D

 15 15  0  0  0  0  0  0  0  0999 V2000
    6.6210   -4.3780   20.9960 C   0  0  0  0  0  0  0  0  0  0  0  0
    6.0820   -3.0200   21.5830 C   0  0  0  0  0  0  0  0  0  0  0  0
    4.9090   -3.1690   22.6010 C   0  0  0  0  0  0  0  0  0  0  0  0
    4.2330   -4.1890   22.5570 O   0  0  0  0  0  0  0  0  0  0  0  0
    4.6570   -2.1070   23.5390 N   0  0  0  0  0  0  0  0  0  0  0  0
    3.4910   -2.0280   24.4990 C   0  0  0  0  0  0  0  0  0  0  0  0
    2.5790   -1.0050   24.2650 C   0  0  0  0  0  0  0  0  0  0  0  0
    1.2550   -1.2900   24.7410 O   0  0  0  0  0  0  0  0  0  0  0  0
    3.0120    0.1490   23.6760 O   0  0  0  0  0  0  0  0  0  0  0  0
    3.8420    0.0150   22.5240 C   0  0  0  0  0  0  0  0  0  0  0  0
    3.9220   -1.3900   25.8360 C   0  0  0  0  0  0  0  0  0  0  0  0
    4.7440   -2.2050   26.5900 C   0  0  0  0  0  0  0  0  0  0  0  0
    4.3360   -3.5260   26.6960 C   0  0  0  0  0  0  0  0  0  0  0  0
    3.8670   -4.1400   25.5390 C   0  0  0  0  0  0  0  0  0  0  0  0
    2.9370   -3.4380   24.8040 C   0  0  0  0  0  0  0  0  0  0  0  0
  1  2  1  0
  2  3  1  0
  3  4  2  0
  3  5  1  0
  5  6  1  0
  6  7  1  0
  7  8  2  0
  7  9  1  0
  9 10  1  0
  6 11  1  0
 11 12  1  0
 12 13  1  0
 13 14  1  0
  6 15  1  0
 14 15  1  0
M  END
