MAK-UNK-f983951f-14-chloroacetamide
     RDKit          3D

 12 12  0  0  0  0  0  0  0  0999 V2000
    7.0110   -4.6370   21.2040 C   0  0  0  0  0  0  0  0  0  0  0  0
    5.5030   -4.4450   21.2420 C   0  0  0  0  0  0  0  0  0  0  0  0
    5.0440   -4.6990   20.0780 O   0  0  0  0  0  0  0  0  0  0  0  0
    4.6370   -4.0490   22.4110 N   0  0  0  0  0  0  0  0  0  0  0  0
    4.9170   -3.6950   23.8840 C   0  0  0  0  0  0  0  0  0  0  0  0
    6.2970   -3.8280   24.0400 C   0  0  0  0  0  0  0  0  0  0  0  0
    7.6490   -3.9090   24.0580 N   0  0  0  0  0  0  0  0  0  0  0  0
    4.1450   -4.4790   25.0020 C   0  0  0  0  0  0  0  0  0  0  0  0
    2.7810   -4.3820   24.7430 C   0  0  0  0  0  0  0  0  0  0  0  0
    2.2970   -3.1370   25.2180 C   0  0  0  0  0  0  0  0  0  0  0  0
    3.3370   -2.1920   25.2200 C   0  0  0  0  0  0  0  0  0  0  0  0
    4.4420   -2.4000   24.2980 C   0  0  0  0  0  0  0  0  0  0  0  0
  1  2  1  0
  2  3  2  0
  2  4  1  0
  4  5  1  0
  5  6  1  0
  6  7  3  0
  5  8  1  0
  8  9  1  0
  9 10  1  0
 10 11  1  0
  5 12  1  0
 11 12  1  0
M  END
