MAK-UNK-849bee6c-7-chloroacetamide
     RDKit          3D

 24 26  0  0  0  0  0  0  0  0999 V2000
    7.1050   -2.9540   18.7470 C   0  0  0  0  0  0  0  0  0  0  0  0
    6.1730   -3.2780   19.8780 C   0  0  0  0  0  0  0  0  0  0  0  0
    5.3580   -4.2010   19.7780 O   0  0  0  0  0  0  0  0  0  0  0  0
    6.2970   -2.4890   21.0380 N   0  0  0  0  0  0  0  0  0  0  0  0
    7.1850   -1.3210   20.9940 C   0  0  0  0  0  0  0  0  0  0  0  0
    8.4780   -1.5660   21.7820 C   0  0  0  0  0  0  0  0  0  0  0  0
    8.2720   -2.2200   23.0770 N   0  0  0  0  0  0  0  0  0  0  0  0
    9.3290   -2.3820   23.9600 C   0  0  0  0  0  0  0  0  0  0  0  0
   10.4410   -1.3470   23.7130 C   0  0  0  0  0  0  0  0  0  0  0  0
   11.7550   -1.9280   23.2900 C   0  0  0  0  0  0  0  0  0  0  0  0
   12.8810   -0.9430   23.0240 C   0  0  0  0  0  0  0  0  0  0  0  0
   12.6340    0.5560   23.1920 C   0  0  0  0  0  0  0  0  0  0  0  0
   11.2250    0.9550   23.6310 C   0  0  0  0  0  0  0  0  0  0  0  0
   10.8860    2.4330   23.8100 C   0  0  0  0  0  0  0  0  0  0  0  0
   11.7010    3.5200   23.1240 C   0  0  0  0  0  0  0  0  0  0  0  0
   11.3570    4.8790   23.3140 N   0  0  0  0  0  0  0  0  0  0  0  0
   10.2280    5.1330   24.1630 C   0  0  0  0  0  0  0  0  0  0  0  0
   10.0100    6.6270   24.2500 C   0  0  0  0  0  0  0  0  0  0  0  0
    9.8270    7.7730   24.3310 N   0  0  0  0  0  0  0  0  0  0  0  0
    9.4770    4.2030   24.7880 N   0  0  0  0  0  0  0  0  0  0  0  0
    9.8260    2.9000   24.5910 C   0  0  0  0  0  0  0  0  0  0  0  0
   10.2330    0.0110   23.8650 C   0  0  0  0  0  0  0  0  0  0  0  0
    7.5570   -3.3680   22.9570 C   0  0  0  0  0  0  0  0  0  0  0  0
    6.1660   -3.1310   22.3490 C   0  0  0  0  0  0  0  0  0  0  0  0
  1  2  1  0
  2  3  2  0
  2  4  1  0
  4  5  1  0
  5  6  1  0
  6  7  1  0
  7  8  1  0
  8  9  1  0
  9 10  2  0
 10 11  1  0
 11 12  2  0
 12 13  1  0
 13 14  1  0
 14 15  2  0
 15 16  1  0
 16 17  2  0
 17 18  1  0
 18 19  3  0
 17 20  1  0
 14 21  1  0
 20 21  2  0
  9 22  1  0
 13 22  2  0
  7 23  1  0
  4 24  1  0
 23 24  1  0
M  END
