MAK-UNK-6ca90168-15-nitrile
     RDKit          3D

 17 18  0  0  0  0  0  0  0  0999 V2000
    6.7010   -3.4060   19.6580 C   0  0  0  0  0  0  0  0  0  0  0  0
    5.8350   -3.1480   18.7720 N   0  0  0  0  0  0  0  0  0  0  0  0
    6.6750   -2.6550   20.8130 N   0  0  0  0  0  0  0  0  0  0  0  0
    6.3000   -3.3160   22.0760 C   0  0  0  0  0  0  0  0  0  0  0  0
    7.4790   -3.4250   23.0700 C   0  0  0  0  0  0  0  0  0  0  0  0
    8.4340   -2.2940   23.0600 N   0  0  0  0  0  0  0  0  0  0  0  0
    9.6400   -2.5020   23.7320 C   0  0  0  0  0  0  0  0  0  0  0  0
    9.8080   -3.5090   24.4090 O   0  0  0  0  0  0  0  0  0  0  0  0
   10.6910   -1.5160   23.5560 C   0  0  0  0  0  0  0  0  0  0  0  0
   11.9710   -1.8260   23.1690 C   0  0  0  0  0  0  0  0  0  0  0  0
   12.9220   -0.7580   23.0060 C   0  0  0  0  0  0  0  0  0  0  0  0
   12.5910    0.5920   23.2260 C   0  0  0  0  0  0  0  0  0  0  0  0
   11.2670    0.9100   23.6260 C   0  0  0  0  0  0  0  0  0  0  0  0
   10.7690    2.5250   23.8970 Cl  0  0  0  0  0  0  0  0  0  0  0  0
   10.3010   -0.2320   23.7950 C   0  0  0  0  0  0  0  0  0  0  0  0
    8.6330   -1.5410   21.8030 C   0  0  0  0  0  0  0  0  0  0  0  0
    7.3590   -1.3800   20.9610 C   0  0  0  0  0  0  0  0  0  0  0  0
  1  2  2  3
  1  3  1  0
  3  4  1  0
  4  5  1  0
  5  6  1  0
  6  7  1  0
  7  8  2  0
  7  9  1  0
  9 10  2  0
 10 11  1  0
 11 12  2  0
 12 13  1  0
 13 14  1  0
  9 15  1  0
 13 15  2  0
  6 16  1  0
  3 17  1  0
 16 17  1  0
M  END
