MAK-UNK-e4a48a85-23-chloroacetamide
     RDKit          3D

 23 25  0  0  0  0  0  0  0  0999 V2000
    7.1900   -2.9630   18.7730 C   0  0  0  0  0  0  0  0  0  0  0  0
    6.2480   -3.2760   19.9150 C   0  0  0  0  0  0  0  0  0  0  0  0
    5.3930   -4.1670   19.7900 O   0  0  0  0  0  0  0  0  0  0  0  0
    6.4420   -2.5090   21.0800 N   0  0  0  0  0  0  0  0  0  0  0  0
    6.1900   -3.0760   22.4060 C   0  0  0  0  0  0  0  0  0  0  0  0
    7.5870   -3.5360   22.9040 C   0  0  0  0  0  0  0  0  0  0  0  0
    8.4640   -2.3210   23.0990 N   0  0  0  0  0  0  0  0  0  0  0  0
    9.7980   -2.4730   23.7790 C   0  0  0  0  0  0  0  0  0  0  0  0
   10.5130   -1.1170   23.6100 C   0  0  0  0  0  0  0  0  0  0  0  0
   11.8520   -1.2840   22.9350 N   0  0  0  0  0  0  0  0  0  0  0  0
   12.5470    0.0100   22.6710 C   0  0  0  0  0  0  0  0  0  0  0  0
   11.8420    1.3450   23.0990 C   0  0  0  0  0  0  0  0  0  0  0  0
   12.2950    2.8450   22.8850 C   0  0  0  0  0  0  0  0  0  0  0  0
   13.6320    3.4000   22.4480 C   0  0  0  0  0  0  0  0  0  0  0  0
   13.5350    4.8950   22.3870 C   0  0  0  0  0  0  0  0  0  0  0  0
   12.0420    5.5880   22.7940 S   0  0  0  0  0  0  0  0  0  0  0  0
   11.2990    4.0170   23.1130 C   0  0  0  0  0  0  0  0  0  0  0  0
   10.4990    1.1990   23.8120 C   0  0  0  0  0  0  0  0  0  0  0  0
    9.8670    2.3100   24.2310 N   0  0  0  0  0  0  0  0  0  0  0  0
    8.9080    2.1480   25.1670 C   0  0  0  0  0  0  0  0  0  0  0  0
    9.9110    0.0160   24.0290 N   0  0  0  0  0  0  0  0  0  0  0  0
    8.6220   -1.5660   21.8060 C   0  0  0  0  0  0  0  0  0  0  0  0
    7.2640   -1.2940   21.1080 C   0  0  0  0  0  0  0  0  0  0  0  0
  1  2  1  0
  2  3  2  0
  2  4  1  0
  4  5  1  0
  5  6  1  0
  6  7  1  0
  7  8  1  0
  8  9  1  0
  9 10  2  0
 10 11  1  0
 11 12  2  0
 12 13  1  0
 13 14  1  0
 14 15  2  0
 15 16  1  0
 13 17  2  0
 16 17  1  0
 12 18  1  0
 18 19  1  0
 19 20  1  0
  9 21  1  0
 18 21  2  0
  7 22  1  0
  4 23  1  0
 22 23  1  0
M  END
