MAK-UNK-10799360-1-vinylsulfonamide
     RDKit          3D

 24 27  0  0  0  0  0  0  0  0999 V2000
    7.9200   -3.2240   19.0640 C   0  0  0  0  0  0  0  0  0  0  0  0
    6.7610   -2.3840   18.6160 C   0  0  0  0  0  0  0  0  0  0  0  0
    5.6030   -2.3790   19.9070 S   0  0  0  0  0  0  0  0  0  0  0  0
    4.9810   -3.6700   19.7790 O   0  0  0  0  0  0  0  0  0  0  0  0
    4.8740   -1.1290   19.8600 O   0  0  0  0  0  0  0  0  0  0  0  0
    6.6930   -2.2720   21.1690 N   0  0  0  0  0  0  0  0  0  0  0  0
    7.7260   -1.1610   21.2860 C   0  0  0  0  0  0  0  0  0  0  0  0
    7.9190   -1.8370   22.5900 C   0  0  1  0  0  0  0  0  0  0  0  0
    6.7280   -1.6480   23.4360 C   0  0  0  0  0  0  0  0  0  0  0  0
    6.5230   -2.9170   22.5970 C   0  0  2  0  0  0  0  0  0  0  0  0
    7.8410   -3.7230   23.0980 C   0  0  0  0  0  0  0  0  0  0  0  0
    8.9420   -2.6830   23.0830 N   0  0  0  0  0  0  0  0  0  0  0  0
    9.6590   -2.4020   24.3320 C   0  0  0  0  0  0  0  0  0  0  0  0
   10.5850   -1.1680   24.3020 C   0  0  0  0  0  0  0  0  0  0  0  0
   11.5490   -0.1030   24.1200 C   0  0  0  0  0  0  0  0  0  0  0  0
   11.7260   -1.0130   23.3330 N   0  0  0  0  0  0  0  0  0  0  0  0
   12.7140   -0.9740   22.4290 C   0  0  0  0  0  0  0  0  0  0  0  0
   13.1530    0.2840   22.8670 C   0  0  0  0  0  0  0  0  0  0  0  0
   11.4170   -2.1050   22.8760 S   0  0  0  0  0  0  0  0  0  0  0  0
    8.6820   -2.3550   25.3440 C   0  0  0  0  0  0  0  0  0  0  0  0
    8.8500   -3.1860   26.4600 C   0  0  0  0  0  0  0  0  0  0  0  0
    8.7390   -4.5310   26.1160 C   0  0  0  0  0  0  0  0  0  0  0  0
    9.6530   -4.8430   25.1190 C   0  0  0  0  0  0  0  0  0  0  0  0
   10.5250   -3.6390   24.7360 C   0  0  0  0  0  0  0  0  0  0  0  0
  1  2  1  0
  3  2  1  0
  3  4  2  0
  3  5  2  0
  3  6  1  0
  6  7  1  0
  8  7  1  6
  8  9  1  0
  6 10  1  0
  9 10  1  0
 10 11  1  1
  8 12  1  0
 11 12  1  0
 12 13  1  0
 13 14  1  0
 14 15  2  0
 15 16  1  0
 16 17  2  0
 17 18  1  0
 14 19  1  0
 17 19  1  0
 13 20  1  0
 20 21  1  0
 21 22  1  0
 22 23  1  0
 13 24  1  0
 23 24  1  0
M  END
