MAK-UNK-af83ef51-28-acrylamide
     RDKit          3D

 31 34  0  0  0  0  0  0  0  0999 V2000
    7.7920   -3.0860   19.1380 C   0  0  0  0  0  0  0  0  0  0  0  0
    6.5550   -2.2800   18.8650 C   0  0  0  0  0  0  0  0  0  0  0  0
    5.4780   -2.6830   19.8060 C   0  0  0  0  0  0  0  0  0  0  0  0
    4.7100   -3.5650   19.4420 O   0  0  0  0  0  0  0  0  0  0  0  0
    5.4620   -2.0790   21.0530 N   0  0  0  0  0  0  0  0  0  0  0  0
    5.2090   -2.8440   22.2810 C   0  0  0  0  0  0  0  0  0  0  0  0
    6.3930   -3.0720   22.9920 C   0  0  0  0  0  0  0  0  0  0  0  0
    7.2770   -1.9000   23.1630 N   0  0  0  0  0  0  0  0  0  0  0  0
    8.5070   -2.2110   23.9270 C   0  0  0  0  0  0  0  0  0  0  0  0
    9.7170   -2.2400   23.2150 C   0  0  0  0  0  0  0  0  0  0  0  0
   10.7910   -1.6470   22.9210 C   0  0  0  0  0  0  0  0  0  0  0  0
   11.2670   -0.3160   23.3400 C   0  0  0  0  0  0  0  0  0  0  0  0
   10.7310    0.6860   24.1310 O   0  0  0  0  0  0  0  0  0  0  0  0
   10.9940    1.9770   23.7460 C   0  0  0  0  0  0  0  0  0  0  0  0
   10.3690    2.9370   23.8680 C   0  0  0  0  0  0  0  0  0  0  0  0
   10.2210    4.2840   23.6860 C   0  0  0  0  0  0  0  0  0  0  0  0
   11.3350    4.7660   23.0660 C   0  0  0  0  0  0  0  0  0  0  0  0
   11.4970    6.0790   22.7690 N   0  0  0  0  0  0  0  0  0  0  0  0
   11.6760    7.0920   23.8200 C   0  0  0  0  0  0  0  0  0  0  0  0
   11.9260    6.4270   25.0080 C   0  0  0  0  0  0  0  0  0  0  0  0
   12.3260    3.8590   22.7470 N   0  0  0  0  0  0  0  0  0  0  0  0
   12.1470    2.4950   23.0820 C   0  0  0  0  0  0  0  0  0  0  0  0
   12.5340   -0.2000   22.7140 N   0  0  0  0  0  0  0  0  0  0  0  0
   13.1750   -1.1010   21.8860 N   0  0  0  0  0  0  0  0  0  0  0  0
   12.7260   -2.3480   21.4570 C   0  0  0  0  0  0  0  0  0  0  0  0
   11.8240   -1.7870   22.2650 C   0  0  0  0  0  0  0  0  0  0  0  0
   11.6380   -0.6390   22.9900 C   0  0  0  0  0  0  0  0  0  0  0  0
   10.2530   -0.9270   23.6270 N   0  0  0  0  0  0  0  0  0  0  0  0
    9.5320   -0.0300   24.5400 C   0  0  0  0  0  0  0  0  0  0  0  0
    7.4810   -1.1700   21.9170 C   0  0  0  0  0  0  0  0  0  0  0  0
    6.2580   -0.8650   21.3060 C   0  0  0  0  0  0  0  0  0  0  0  0
  1  2  1  0
  2  3  1  0
  3  4  2  0
  3  5  1  0
  5  6  1  0
  6  7  1  0
  7  8  1  0
  8  9  1  0
  9 10  1  0
 10 11  2  0
 11 12  1  0
 12 13  1  0
 13 14  1  0
 14 15  2  0
 15 16  1  0
 16 17  2  0
 17 18  1  0
 18 19  1  0
 19 20  1  0
 17 21  1  0
 14 22  1  0
 21 22  2  0
 12 23  2  0
 23 24  1  0
 24 25  2  0
 11 26  1  0
 25 26  1  0
 26 27  2  0
 10 28  1  0
 27 28  1  0
 28 29  1  0
  8 30  1  0
  5 31  1  0
 30 31  1  0
M  END
