MAK-UNK-8fdbca50-6-vinylsulfonamide
     RDKit          3D

 41 44  0  0  0  0  0  0  0  0999 V2000
    8.2750   -3.8750   20.1080 C   0  0  0  0  0  0  0  0  0  0  0  0
    7.4540   -2.8680   19.2520 C   0  0  0  0  0  0  0  0  0  0  0  0
    5.6930   -2.8280   19.5950 S   0  0  0  0  0  0  0  0  0  0  0  0
    5.2660   -3.7850   20.6270 O   0  0  0  0  0  0  0  0  0  0  0  0
    5.0510   -2.8850   18.3240 O   0  0  0  0  0  0  0  0  0  0  0  0
    5.4780   -1.2550   20.2160 N   0  0  0  0  0  0  0  0  0  0  0  0
    5.5110   -1.1640   21.6700 C   0  0  0  0  0  0  0  0  0  0  0  0
    5.7620    0.3450   22.0560 C   0  0  0  0  0  0  0  0  0  0  0  0
    6.3210    1.0570   20.7950 C   0  0  0  0  0  0  0  0  0  0  0  0
    7.2500   -0.0040   20.2170 C   0  0  0  0  0  0  0  0  0  0  0  0
    7.3400   -0.1640   18.9990 O   0  0  0  0  0  0  0  0  0  0  0  0
    7.9890   -0.7780   21.2640 N   0  0  0  0  0  0  0  0  0  0  0  0
    8.2470   -2.1610   20.9870 C   0  0  0  0  0  0  0  0  0  0  0  0
    8.3180   -0.4120   22.6170 C   0  0  1  0  0  0  0  0  0  0  0  0
    7.7080   -1.3260   23.6720 C   0  0  0  0  0  0  0  0  0  0  0  0
    9.6670   -0.1510   22.7750 C   0  0  0  0  0  0  0  0  0  0  0  0
   10.6310   -0.9450   22.0500 C   0  0  0  0  0  0  0  0  0  0  0  0
   11.6510   -0.1780   22.6130 C   0  0  0  0  0  0  0  0  0  0  0  0
   12.2280    0.6060   23.2200 N   0  0  0  0  0  0  0  0  0  0  0  0
   11.2130    1.3170   23.8910 C   0  0  0  0  0  0  0  0  0  0  0  0
    9.9320    0.9130   23.6580 C   0  0  0  0  0  0  0  0  0  0  0  0
    8.5770    1.7040   24.4570 S   0  0  0  0  0  0  0  0  0  0  0  0
    9.0570    2.9040   25.0650 O   0  0  0  0  0  0  0  0  0  0  0  0
    7.4350    1.8000   23.5740 O   0  0  0  0  0  0  0  0  0  0  0  0
    8.0850    0.6460   25.7010 N   0  0  0  0  0  0  0  0  0  0  0  0
    7.1530    1.0180   26.6390 C   0  0  0  0  0  0  0  0  0  0  0  0
    6.8660    0.0170   27.5950 C   0  0  0  0  0  0  0  0  0  0  0  0
    5.9700    0.1130   28.6610 C   0  0  0  0  0  0  0  0  0  0  0  0
    5.3270   -1.2000   28.7510 N   0  0  0  0  0  0  0  0  0  0  0  0
    6.2060   -2.1760   29.1740 C   0  0  0  0  0  0  0  0  0  0  0  0
    7.6900   -1.0710   27.2140 C   0  0  0  0  0  0  0  0  0  0  0  0
    8.4330   -0.6720   26.0500 C   0  0  0  0  0  0  0  0  0  0  0  0
    9.4390   -1.4970   25.2840 C   0  0  0  0  0  0  0  0  0  0  0  0
   10.8170   -0.9170   25.1130 C   0  0  0  0  0  0  0  0  0  0  0  0
   11.8620   -1.5290   24.4500 C   0  0  0  0  0  0  0  0  0  0  0  0
   11.6080   -2.8750   23.8440 C   0  0  0  0  0  0  0  0  0  0  0  0
   10.3450   -3.4770   23.9660 C   0  0  0  0  0  0  0  0  0  0  0  0
    9.2080   -2.7690   24.7180 C   0  0  0  0  0  0  0  0  0  0  0  0
    8.0180   -3.3870   24.8190 F   0  0  0  0  0  0  0  0  0  0  0  0
    5.2020    1.1900   19.7860 C   0  0  0  0  0  0  0  0  0  0  0  0
    4.6820   -0.2130   19.5110 C   0  0  0  0  0  0  0  0  0  0  0  0
  1  2  1  0
  3  2  1  0
  3  4  2  0
  3  5  2  0
  3  6  1  0
  6  7  1  0
  7  8  1  0
  8  9  1  0
  9 10  1  0
 10 11  2  0
 10 12  1  0
 12 13  1  0
 12 14  1  0
 14 15  1  1
 14 16  1  0
 16 17  2  0
 17 18  1  0
 18 19  2  0
 19 20  1  0
 16 21  1  0
 20 21  2  0
 22 21  1  0
 22 23  2  0
 22 24  2  0
 22 25  1  0
 25 26  1  0
 26 27  2  0
 27 28  1  0
 28 29  1  0
 29 30  1  0
 27 31  1  0
 25 32  1  0
 31 32  2  0
 32 33  1  0
 33 34  2  0
 34 35  1  0
 35 36  2  0
 36 37  1  0
 33 38  1  0
 37 38  2  0
 38 39  1  0
  9 40  1  0
  6 41  1  0
 40 41  1  0
M  END
