MAK-UNK-750cfbcc-3-nitrile
     RDKit          3D

 15 16  0  0  0  0  0  0  0  0999 V2000
    6.6230   -4.3760   20.4050 C   0  0  0  0  0  0  0  0  0  0  0  0
    5.5240   -4.8540   20.0010 N   0  0  0  0  0  0  0  0  0  0  0  0
    7.0810   -4.3610   21.6730 N   0  0  0  0  0  0  0  0  0  0  0  0
    7.7070   -3.3320   22.3820 C   0  0  0  0  0  0  0  0  0  0  0  0
    7.3460   -3.1010   23.6970 C   0  0  0  0  0  0  0  0  0  0  0  0
    6.1010   -3.5810   24.0820 C   0  0  0  0  0  0  0  0  0  0  0  0
    5.7320   -3.2780   25.4070 C   0  0  0  0  0  0  0  0  0  0  0  0
    4.7400   -2.5640   25.5560 O   0  0  0  0  0  0  0  0  0  0  0  0
    6.3820   -3.7090   26.5210 N   0  0  0  0  0  0  0  0  0  0  0  0
    5.7690   -3.4470   27.7150 C   0  0  0  0  0  0  0  0  0  0  0  0
    6.5920   -3.8360   28.7450 C   0  0  0  0  0  0  0  0  0  0  0  0
    7.8120   -4.5050   28.2040 C   0  0  0  0  0  0  0  0  0  0  0  0
    7.4600   -4.6820   26.7390 C   0  0  0  0  0  0  0  0  0  0  0  0
    6.1310   -5.1040   23.8930 C   0  0  0  0  0  0  0  0  0  0  0  0
    6.7480   -5.5140   22.5360 C   0  0  0  0  0  0  0  0  0  0  0  0
  1  2  2  3
  1  3  1  0
  3  4  1  0
  4  5  1  0
  5  6  1  0
  6  7  1  0
  7  8  2  0
  7  9  1  0
  9 10  1  0
 10 11  1  0
 11 12  1  0
  9 13  1  0
 12 13  1  0
  6 14  1  0
  3 15  1  0
 14 15  1  0
M  END
