MAK-UNK-942dcb71-14
     RDKit          3D

 13 14  0  0  0  0  0  0  0  0999 V2000
    3.0570   -6.2500   22.5480 O   0  0  0  0  0  0  0  0  0  0  0  0
    4.4250   -6.1600   22.9690 S   0  0  0  0  0  0  0  0  0  0  0  0
    4.9570   -7.2730   23.7020 O   0  0  0  0  0  0  0  0  0  0  0  0
    4.4680   -4.7780   24.0960 C   0  0  0  0  0  0  0  0  0  0  0  0
    5.1260   -4.9160   22.9870 N   0  0  0  0  0  0  0  0  0  0  0  0
    6.0130   -4.1800   22.3010 C   0  0  1  0  0  0  0  0  0  0  0  0
    7.1390   -4.1650   23.1060 C   0  0  0  0  0  0  0  0  0  0  0  0
    7.3730   -5.3100   23.9060 C   0  0  0  0  0  0  0  0  0  0  0  0
    8.4840   -5.3580   24.7410 C   0  0  0  0  0  0  0  0  0  0  0  0
    9.3660   -4.2430   24.7670 C   0  0  0  0  0  0  0  0  0  0  0  0
    9.1030   -3.0850   23.9370 C   0  0  0  0  0  0  0  0  0  0  0  0
    8.0060   -3.0320   23.1110 C   0  0  0  0  0  0  0  0  0  0  0  0
    5.6330   -5.4700   21.6250 C   0  0  0  0  0  0  0  0  0  0  0  0
  1  2  2  0
  2  3  2  0
  2  4  1  0
  4  5  2  0
  5  6  1  0
  6  7  1  1
  7  8  2  0
  8  9  1  0
  9 10  2  0
 10 11  1  0
  7 12  1  0
 11 12  2  0
  2 13  1  0
  6 13  1  0
M  END
