MAK-UNK-702fb7d3-13-vinylsulfonamide
     RDKit          3D

 44 49  0  0  0  0  0  0  0  0999 V2000
    8.1220   -4.4640   20.9970 C   0  0  0  0  0  0  0  0  0  0  0  0
    6.8390   -5.2300   21.2780 C   0  0  0  0  0  0  0  0  0  0  0  0
    6.0110   -4.5670   22.6940 S   0  0  0  0  0  0  0  0  0  0  0  0
    4.7910   -3.9150   22.0930 O   0  0  0  0  0  0  0  0  0  0  0  0
    5.7820   -5.7120   23.5460 O   0  0  0  0  0  0  0  0  0  0  0  0
    7.2180   -3.6010   23.5660 N   0  0  0  0  0  0  0  0  0  0  0  0
    8.6560   -3.8980   23.4110 C   0  0  0  0  0  0  0  0  0  0  0  0
    9.1810   -4.2670   24.8480 C   0  0  0  0  0  0  0  0  0  0  0  0
   10.6220   -4.1540   24.9100 C   0  0  0  0  0  0  0  0  0  0  0  0
   10.9520   -4.5660   26.3720 C   0  0  0  0  0  0  0  0  0  0  0  0
    9.7750   -4.9770   27.4280 C   0  0  0  0  0  0  0  0  0  0  0  0
    8.1800   -5.0580   27.2450 C   0  0  0  0  0  0  0  0  0  0  0  0
    8.8270   -4.6620   26.0890 C   0  0  0  0  0  0  0  0  0  0  0  0
    7.3950   -4.6760   25.7210 C   0  0  1  0  0  0  0  0  0  0  0  0
    6.6820   -4.7030   26.8640 C   0  0  0  0  0  0  0  0  0  0  0  0
    6.0630   -5.8960   27.4140 C   0  0  0  0  0  0  0  0  0  0  0  0
    5.3820   -5.8400   28.5490 C   0  0  0  0  0  0  0  0  0  0  0  0
    5.2330   -4.5950   29.2690 C   0  0  0  0  0  0  0  0  0  0  0  0
    5.7920   -3.4110   28.8100 C   0  0  0  0  0  0  0  0  0  0  0  0
    5.6310   -2.2330   29.5350 N   0  0  0  0  0  0  0  0  0  0  0  0
    4.4440   -1.8940   30.4080 C   0  0  0  0  0  0  0  0  0  0  0  0
    4.7550   -0.7330   31.1260 C   0  0  0  0  0  0  0  0  0  0  0  0
    4.7900   -0.6170   32.5330 C   0  0  0  0  0  0  0  0  0  0  0  0
    5.1350    0.6280   33.0010 C   0  0  0  0  0  0  0  0  0  0  0  0
    5.2360    0.9620   34.3630 C   0  0  0  0  0  0  0  0  0  0  0  0
    4.6500    2.2920   34.8410 C   0  0  0  0  0  0  0  0  0  0  0  0
    4.7830    2.6170   36.3320 C   0  0  0  0  0  0  0  0  0  0  0  0
    5.4910    1.5820   37.2200 C   0  0  0  0  0  0  0  0  0  0  0  0
    5.9810    0.4060   36.6610 C   0  0  0  0  0  0  0  0  0  0  0  0
    5.8590    0.1080   35.2940 C   0  0  0  0  0  0  0  0  0  0  0  0
    6.3720   -1.0580   34.8800 F   0  0  0  0  0  0  0  0  0  0  0  0
    5.3330    1.3570   31.8280 N   0  0  0  0  0  0  0  0  0  0  0  0
    5.7820    2.9580   31.6850 S   0  0  0  0  0  0  0  0  0  0  0  0
    6.2640    3.1020   30.3280 O   0  0  0  0  0  0  0  0  0  0  0  0
    4.7020    3.7780   32.1850 O   0  0  0  0  0  0  0  0  0  0  0  0
    7.1730    3.1060   32.7530 C   0  0  0  0  0  0  0  0  0  0  0  0
    7.0310    3.6030   34.0400 C   0  0  0  0  0  0  0  0  0  0  0  0
    8.1600    3.7020   34.8480 C   0  0  0  0  0  0  0  0  0  0  0  0
    9.3830    3.2990   34.3280 C   0  0  0  0  0  0  0  0  0  0  0  0
    9.5440    2.8120   33.0760 N   0  0  0  0  0  0  0  0  0  0  0  0
    8.4290    2.7240   32.3090 C   0  0  0  0  0  0  0  0  0  0  0  0
    5.1010    0.5480   30.7060 C   0  0  0  0  0  0  0  0  0  0  0  0
    6.5140   -3.4930   27.5970 C   0  0  0  0  0  0  0  0  0  0  0  0
    7.0410   -3.3650   24.9910 C   0  0  0  0  0  0  0  0  0  0  0  0
  1  2  1  0
  3  2  1  0
  3  4  2  0
  3  5  2  0
  3  6  1  0
  6  7  1  0
  7  8  1  0
  8  9  1  0
  9 10  2  0
 10 11  1  0
 11 12  2  0
  8 13  2  0
 12 13  1  0
 13 14  1  0
 14 15  1  1
 15 16  2  0
 16 17  1  0
 17 18  2  0
 18 19  1  0
 19 20  1  0
 20 21  1  0
 21 22  1  0
 22 23  1  0
 23 24  2  0
 24 25  1  0
 25 26  2  0
 26 27  1  0
 27 28  2  0
 28 29  1  0
 25 30  1  0
 29 30  2  0
 30 31  1  0
 24 32  1  0
 32 33  1  0
 33 34  2  0
 33 35  2  0
 33 36  1  0
 36 37  2  0
 37 38  1  0
 38 39  2  0
 39 40  1  0
 36 41  1  0
 40 41  2  0
 22 42  2  0
 32 42  1  0
 15 43  1  0
 19 43  2  0
  6 44  1  0
 14 44  1  0
M  END
