MAK-UNK-212f693e-33
     RDKit          3D

 16 17  0  0  0  0  0  0  0  0999 V2000
    5.4080   -4.4310   19.8510 O   0  0  0  0  0  0  0  0  0  0  0  0
    6.2090   -4.2170   20.7550 C   0  0  0  0  0  0  0  0  0  0  0  0
    7.1230   -2.9770   20.7600 C   0  0  0  0  0  0  0  0  0  0  0  0
    6.7920   -2.0880   21.7250 O   0  0  0  0  0  0  0  0  0  0  0  0
    6.3780   -5.1190   21.8860 N   0  0  0  0  0  0  0  0  0  0  0  0
    7.2920   -4.7050   22.9100 C   0  0  0  0  0  0  0  0  0  0  0  0
    6.5880   -4.5990   24.2440 C   0  0  0  0  0  0  0  0  0  0  0  0
    5.1050   -4.6390   24.1380 C   0  0  0  0  0  0  0  0  0  0  0  0
    4.4270   -4.7980   25.3750 N   0  0  0  0  0  0  0  0  0  0  0  0
    3.3500   -3.8250   25.5220 C   0  0  0  0  0  0  0  0  0  0  0  0
    3.6050   -2.4940   25.8140 C   0  0  0  0  0  0  0  0  0  0  0  0
    2.4650   -1.7090   25.9200 C   0  0  0  0  0  0  0  0  0  0  0  0
    1.0030   -2.5620   25.6670 S   0  0  0  0  0  0  0  0  0  0  0  0
    1.8440   -4.0390   25.3980 C   0  0  0  0  0  0  0  0  0  0  0  0
    4.5550   -5.5860   23.2320 C   0  0  0  0  0  0  0  0  0  0  0  0
    5.4420   -6.0670   22.2500 C   0  0  0  0  0  0  0  0  0  0  0  0
  1  2  2  0
  2  3  1  0
  3  4  1  0
  2  5  1  0
  5  6  1  0
  6  7  1  0
  7  8  1  0
  8  9  1  0
  9 10  1  0
 10 11  1  0
 11 12  2  0
 12 13  1  0
 10 14  2  0
 13 14  1  0
  8 15  1  0
  5 16  1  0
 15 16  1  0
M  END
