MAK-UNK-750cfbcc-4-chloroacetamide
     RDKit          3D

 18 19  0  0  0  0  0  0  0  0999 V2000
    6.9830   -3.2670   19.3660 C   0  0  0  0  0  0  0  0  0  0  0  0
    6.2460   -4.1430   20.3400 C   0  0  0  0  0  0  0  0  0  0  0  0
    5.2820   -4.7780   19.9530 O   0  0  0  0  0  0  0  0  0  0  0  0
    6.7630   -4.1910   21.6190 N   0  0  0  0  0  0  0  0  0  0  0  0
    6.5420   -5.2880   22.5110 C   0  0  0  0  0  0  0  0  0  0  0  0
    6.0760   -4.9580   23.7840 C   0  0  0  0  0  0  0  0  0  0  0  0
    6.0980   -3.5850   24.0560 C   0  0  0  0  0  0  0  0  0  0  0  0
    5.8280   -3.2620   25.3850 C   0  0  0  0  0  0  0  0  0  0  0  0
    4.8840   -2.4790   25.5470 O   0  0  0  0  0  0  0  0  0  0  0  0
    6.4860   -3.7240   26.4800 N   0  0  0  0  0  0  0  0  0  0  0  0
    7.0390   -4.9660   26.3360 C   0  0  0  0  0  0  0  0  0  0  0  0
    8.0770   -5.3240   27.3560 C   0  0  0  0  0  0  0  0  0  0  0  0
    7.4530   -5.1260   28.6990 C   0  0  0  0  0  0  0  0  0  0  0  0
    6.0740   -4.5500   28.7900 C   0  0  2  0  0  0  0  0  0  0  0  0
    5.0210   -5.6300   28.5470 C   0  0  0  0  0  0  0  0  0  0  0  0
    5.9620   -3.3820   27.8100 C   0  0  0  0  0  0  0  0  0  0  0  0
    7.4710   -3.0330   23.6510 C   0  0  0  0  0  0  0  0  0  0  0  0
    7.6240   -3.1360   22.1730 C   0  0  0  0  0  0  0  0  0  0  0  0
  1  2  1  0
  2  3  2  0
  2  4  1  0
  4  5  1  0
  5  6  1  0
  6  7  1  0
  7  8  1  0
  8  9  2  0
  8 10  1  0
 10 11  1  0
 11 12  1  0
 12 13  1  0
 13 14  1  0
 14 15  1  6
 10 16  1  0
 14 16  1  0
  7 17  1  0
  4 18  1  0
 17 18  1  0
M  END
