MAK-UNK-702fb7d3-11-acrylamide
     RDKit          3D

 43 48  0  0  0  0  0  0  0  0999 V2000
    7.9690   -4.5560   20.8980 C   0  0  0  0  0  0  0  0  0  0  0  0
    6.5280   -4.8080   21.2460 C   0  0  0  0  0  0  0  0  0  0  0  0
    6.0370   -3.7670   22.1970 C   0  0  0  0  0  0  0  0  0  0  0  0
    4.7480   -3.5690   22.0030 O   0  0  0  0  0  0  0  0  0  0  0  0
    7.0100   -3.1800   23.1250 N   0  0  0  0  0  0  0  0  0  0  0  0
    8.4930   -3.3810   22.9470 C   0  0  0  0  0  0  0  0  0  0  0  0
    9.2660   -3.5770   24.3280 C   0  0  0  0  0  0  0  0  0  0  0  0
    8.3840   -4.0450   25.3360 C   0  0  0  0  0  0  0  0  0  0  0  0
    9.2160   -4.2620   26.7840 C   0  0  0  0  0  0  0  0  0  0  0  0
    8.8340   -4.7280   28.2110 C   0  0  0  0  0  0  0  0  0  0  0  0
    8.8320   -4.3610   26.8570 C   0  0  0  0  0  0  0  0  0  0  0  0
    7.4960   -4.6880   27.1120 N   0  0  0  0  0  0  0  0  0  0  0  0
    6.9320   -5.9580   27.3320 C   0  0  0  0  0  0  0  0  0  0  0  0
    5.9270   -5.9710   28.2040 C   0  0  0  0  0  0  0  0  0  0  0  0
    5.9260   -6.2890   29.5630 C   0  0  0  0  0  0  0  0  0  0  0  0
    4.7910   -6.2200   30.1690 C   0  0  0  0  0  0  0  0  0  0  0  0
    4.6620   -6.5320   31.6020 C   0  0  0  0  0  0  0  0  0  0  0  0
    5.4170   -7.6890   32.0610 C   0  0  0  0  0  0  0  0  0  0  0  0
    5.0840   -7.7050   33.4410 C   0  0  0  0  0  0  0  0  0  0  0  0
    4.3000   -6.9400   34.2780 C   0  0  0  0  0  0  0  0  0  0  0  0
    3.5980   -5.8490   33.8090 C   0  0  0  0  0  0  0  0  0  0  0  0
    3.7480   -5.6030   32.4730 C   0  0  0  0  0  0  0  0  0  0  0  0
    3.1030   -4.5560   31.9340 F   0  0  0  0  0  0  0  0  0  0  0  0
    3.8730   -5.8480   29.2890 N   0  0  0  0  0  0  0  0  0  0  0  0
    2.2250   -5.5960   29.4820 S   0  0  0  0  0  0  0  0  0  0  0  0
    1.6480   -5.8980   28.1890 O   0  0  0  0  0  0  0  0  0  0  0  0
    2.0400   -4.2930   30.0740 O   0  0  0  0  0  0  0  0  0  0  0  0
    1.6480   -6.7810   30.6400 C   0  0  0  0  0  0  0  0  0  0  0  0
    2.5020   -7.9770   31.0750 C   0  0  0  0  0  0  0  0  0  0  0  0
    1.8650   -8.9210   32.0920 C   0  0  0  0  0  0  0  0  0  0  0  0
    0.4510   -8.5530   32.5450 C   0  0  0  0  0  0  0  0  0  0  0  0
   -0.2220   -7.4620   32.0900 N   0  0  0  0  0  0  0  0  0  0  0  0
    0.3700   -6.6250   31.1780 C   0  0  0  0  0  0  0  0  0  0  0  0
    4.5480   -5.6810   28.0400 C   0  0  0  0  0  0  0  0  0  0  0  0
    8.6210   -4.0590   25.5840 C   0  0  0  0  0  0  0  0  0  0  0  0
    7.2840   -4.2720   25.2480 C   0  0  2  0  0  0  0  0  0  0  0  0
    7.2660   -5.1990   24.2330 C   0  0  0  0  0  0  0  0  0  0  0  0
    5.9250   -5.0800   24.7410 C   0  0  0  0  0  0  0  0  0  0  0  0
    4.7410   -5.7090   24.3730 C   0  0  0  0  0  0  0  0  0  0  0  0
    4.7360   -6.6160   23.3680 C   0  0  0  0  0  0  0  0  0  0  0  0
    5.9400   -6.8290   22.8000 C   0  0  0  0  0  0  0  0  0  0  0  0
    7.0700   -6.1720   23.2170 C   0  0  0  0  0  0  0  0  0  0  0  0
    6.7130   -3.0310   24.5430 C   0  0  0  0  0  0  0  0  0  0  0  0
  1  2  1  0
  2  3  1  0
  3  4  2  0
  3  5  1  0
  5  6  1  0
  6  7  1  0
  7  8  1  0
  8  9  2  0
  9 10  1  0
 10 11  2  0
 11 12  1  0
 12 13  1  0
 13 14  1  0
 14 15  1  0
 15 16  2  0
 16 17  1  0
 17 18  2  0
 18 19  1  0
 19 20  2  0
 20 21  1  0
 17 22  1  0
 21 22  2  0
 22 23  1  0
 16 24  1  0
 24 25  1  0
 25 26  2  0
 25 27  2  0
 25 28  1  0
 28 29  2  0
 29 30  1  0
 30 31  2  0
 31 32  1  0
 28 33  1  0
 32 33  2  0
 14 34  2  0
 24 34  1  0
  7 35  2  0
 11 35  1  0
 35 36  1  0
 36 37  1  6
 37 38  2  0
 38 39  1  0
 39 40  2  0
 40 41  1  0
 37 42  1  0
 41 42  2  0
  5 43  1  0
 36 43  1  0
M  END
