MAK-UNK-9e4a73aa-13
     RDKit          3D

 26 29  0  0  0  0  0  0  0  0999 V2000
    7.8640   -0.0610   23.6520 O   0  0  0  0  0  0  0  0  0  0  0  0
    8.0170   -1.1020   22.9990 C   0  0  0  0  0  0  0  0  0  0  0  0
    7.4960   -1.2260   21.5840 C   0  0  0  0  0  0  0  0  0  0  0  0
    7.5880    0.0010   20.6580 C   0  0  0  0  0  0  0  0  0  0  0  0
    7.0880   -0.1510   19.2260 C   0  0  0  0  0  0  0  0  0  0  0  0
    7.1050    0.8170   18.3110 F   0  0  0  0  0  0  0  0  0  0  0  0
    6.5380   -1.5220   18.8350 C   0  0  0  0  0  0  0  0  0  0  0  0
    5.9650   -1.9470   17.3360 Cl  0  0  0  0  0  0  0  0  0  0  0  0
    6.5200   -2.5950   19.9340 C   0  0  0  0  0  0  0  0  0  0  0  0
    6.9810   -2.4220   21.2070 C   0  0  0  0  0  0  0  0  0  0  0  0
    6.9660   -3.4070   22.1450 N   0  0  0  0  0  0  0  0  0  0  0  0
    5.7390   -4.0620   22.5710 C   0  0  0  0  0  0  0  0  0  0  0  0
    4.9210   -3.2340   23.3130 C   0  0  0  0  0  0  0  0  0  0  0  0
    3.5750   -3.7090   23.8780 C   0  0  0  0  0  0  0  0  0  0  0  0
    3.2120   -5.2100   23.5390 C   0  0  0  0  0  0  0  0  0  0  0  0
    4.2390   -5.9380   22.7190 C   0  0  0  0  0  0  0  0  0  0  0  0
    5.4200   -5.3960   22.2670 C   0  0  0  0  0  0  0  0  0  0  0  0
    8.0590   -3.4110   23.1280 C   0  0  0  0  0  0  0  0  0  0  0  0
    8.4540   -4.5960   23.6840 O   0  0  0  0  0  0  0  0  0  0  0  0
    8.6310   -2.2210   23.4220 N   0  0  0  0  0  0  0  0  0  0  0  0
   10.0880   -2.1380   23.2050 C   0  0  0  0  0  0  0  0  0  0  0  0
   11.1880   -1.3160   23.3290 C   0  0  0  0  0  0  0  0  0  0  0  0
   12.5750   -1.3790   23.0370 C   0  0  0  0  0  0  0  0  0  0  0  0
   12.6770   -0.1370   23.4940 C   0  0  0  0  0  0  0  0  0  0  0  0
   11.2690    0.1310   23.8720 N   0  0  0  0  0  0  0  0  0  0  0  0
   10.0990   -0.8070   23.7280 N   0  0  0  0  0  0  0  0  0  0  0  0
  1  2  2  0
  2  3  1  0
  3  4  2  0
  4  5  1  0
  5  6  1  0
  5  7  2  0
  7  8  1  0
  7  9  1  0
  3 10  1  0
  9 10  2  0
 10 11  1  0
 11 12  1  0
 12 13  2  0
 13 14  1  0
 14 15  2  0
 15 16  1  0
 12 17  1  0
 16 17  2  0
 11 18  1  0
 18 19  2  0
  2 20  1  0
 18 20  1  0
 20 21  1  0
 21 22  2  0
 22 23  1  0
 23 24  2  0
 24 25  1  0
 21 26  1  0
 25 26  2  0
M  END
