MAK-UNK-07311286-2
     RDKit          3D

 23 24  0  0  0  0  0  0  0  0999 V2000
    2.5200   -3.5400   28.8090 N   0  0  0  0  0  0  0  0  0  0  0  0
    3.8680   -4.3790   29.3760 S   0  0  0  0  0  0  0  0  0  0  0  0
    4.6720   -3.3330   29.9600 O   0  0  0  0  0  0  0  0  0  0  0  0
    3.3230   -5.5050   30.0980 O   0  0  0  0  0  0  0  0  0  0  0  0
    4.6430   -4.9710   27.8960 C   0  0  0  0  0  0  0  0  0  0  0  0
    3.9370   -5.8190   27.0350 C   0  0  0  0  0  0  0  0  0  0  0  0
    4.5830   -6.3220   25.7740 C   0  0  0  0  0  0  0  0  0  0  0  0
    5.9940   -5.8870   25.4730 C   0  0  0  0  0  0  0  0  0  0  0  0
    6.8730   -6.4860   23.9050 Br  0  0  0  0  0  0  0  0  0  0  0  0
    6.6240   -5.0290   26.4120 C   0  0  0  0  0  0  0  0  0  0  0  0
    8.2830   -4.4690   26.1460 S   0  0  0  0  0  0  0  0  0  0  0  0
    9.0890   -5.5950   25.7550 O   0  0  0  0  0  0  0  0  0  0  0  0
    8.6040   -3.6250   27.2620 O   0  0  0  0  0  0  0  0  0  0  0  0
    8.1920   -3.4430   24.8170 N   0  0  0  0  0  0  0  0  0  0  0  0
    9.3610   -3.1340   24.1470 C   0  0  0  0  0  0  0  0  0  0  0  0
    9.2490   -1.8620   23.5990 C   0  0  0  0  0  0  0  0  0  0  0  0
   10.5110   -1.3030   23.3840 C   0  0  0  0  0  0  0  0  0  0  0  0
   11.4250   -1.8890   22.4820 C   0  0  0  0  0  0  0  0  0  0  0  0
   12.7690   -1.2280   22.2950 C   0  0  0  0  0  0  0  0  0  0  0  0
   13.1050    0.0240   23.0520 C   0  0  0  0  0  0  0  0  0  0  0  0
   12.1190    0.5160   23.9220 C   0  0  0  0  0  0  0  0  0  0  0  0
   10.8850   -0.1280   24.0720 C   0  0  0  0  0  0  0  0  0  0  0  0
    5.9600   -4.5840   27.5870 C   0  0  0  0  0  0  0  0  0  0  0  0
  2  1  1  0
  2  3  2  0
  2  4  2  0
  2  5  1  0
  5  6  2  0
  6  7  1  0
  7  8  2  0
  8  9  1  0
  8 10  1  0
 10 11  1  0
 11 12  2  0
 11 13  2  0
 11 14  1  0
 14 15  1  0
 15 16  1  0
 16 17  1  0
 17 18  2  0
 18 19  1  0
 19 20  2  0
 20 21  1  0
 17 22  1  0
 21 22  2  0
  5 23  1  0
 10 23  2  0
M  END
