MAK-UNK-10799360-11-acrylamide
     RDKit          3D

 27 30  0  0  0  0  0  0  0  0999 V2000
    7.3510   -3.2390   19.4480 C   0  0  0  0  0  0  0  0  0  0  0  0
    6.2280   -2.5300   20.1920 C   0  0  0  0  0  0  0  0  0  0  0  0
    6.1280   -2.9280   21.6600 C   0  0  0  0  0  0  0  0  0  0  0  0
    5.1400   -3.5870   21.2140 O   0  0  0  0  0  0  0  0  0  0  0  0
    7.2550   -2.0610   21.7590 N   0  0  0  0  0  0  0  0  0  0  0  0
    7.2800   -0.8090   22.5510 C   0  0  0  0  0  0  0  0  0  0  0  0
    8.7230   -0.6390   23.0810 C   0  0  2  0  0  0  0  0  0  0  0  0
    9.2990   -0.9400   21.7070 C   0  0  0  0  0  0  0  0  0  0  0  0
    8.7060   -2.3560   21.5770 C   0  0  1  0  0  0  0  0  0  0  0  0
    9.3100   -2.8600   22.8440 C   0  0  0  0  0  0  0  0  0  0  0  0
    9.2410   -1.8540   23.9410 C   0  0  2  0  0  0  0  0  0  0  0  0
    8.4540   -2.1200   25.0490 C   0  0  0  0  0  0  0  0  0  0  0  0
    7.0560   -2.4010   24.6950 N   0  0  0  0  0  0  0  0  0  0  0  0
    6.7080   -3.8110   24.3230 C   0  0  0  0  0  0  0  0  0  0  0  0
    5.3060   -4.0530   24.3880 C   0  0  0  0  0  0  0  0  0  0  0  0
    4.7030   -5.4110   24.4340 C   0  0  0  0  0  0  0  0  0  0  0  0
    3.2910   -5.3710   24.5050 C   0  0  0  0  0  0  0  0  0  0  0  0
    3.0850   -7.1440   24.5390 S   0  0  0  0  0  0  0  0  0  0  0  0
    2.5250   -7.4790   22.9890 N   0  0  0  0  0  0  0  0  0  0  0  0
    2.0010   -7.4350   25.4550 O   0  0  0  0  0  0  0  0  0  0  0  0
    4.3510   -7.8100   24.6780 O   0  0  0  0  0  0  0  0  0  0  0  0
    4.0470   -4.2750   24.4510 C   0  0  0  0  0  0  0  0  0  0  0  0
    2.9620   -3.4780   24.5020 C   0  0  0  0  0  0  0  0  0  0  0  0
    4.3610   -2.9520   24.4190 C   0  0  0  0  0  0  0  0  0  0  0  0
    4.7540   -1.6250   24.3810 C   0  0  0  0  0  0  0  0  0  0  0  0
    6.0230   -1.3780   24.8860 C   0  0  1  0  0  0  0  0  0  0  0  0
    6.1780   -1.1880   26.3990 C   0  0  0  0  0  0  0  0  0  0  0  0
  1  2  1  0
  2  3  1  0
  3  4  2  0
  3  5  1  0
  5  6  1  0
  7  6  1  6
  7  8  1  0
  5  9  1  0
  8  9  1  0
  9 10  1  1
  7 11  1  0
 10 11  1  0
 11 12  1  1
 12 13  1  0
 13 14  1  0
 14 15  1  0
 15 16  2  0
 16 17  1  0
 17 18  1  0
 18 19  1  0
 18 20  2  0
 18 21  2  0
 17 22  2  0
 22 23  1  0
 15 24  1  0
 23 24  2  0
 24 25  1  0
 13 26  1  0
 25 26  1  0
 26 27  1  1
M  END
