MAK-UNK-d4768348-9-vinylsulfonamide
     RDKit          3D

 21 22  0  0  0  0  0  0  0  0999 V2000
    7.2270   -3.2230   19.1170 C   0  0  0  0  0  0  0  0  0  0  0  0
    6.7900   -2.7670   20.4870 C   0  0  0  0  0  0  0  0  0  0  0  0
    5.5120   -3.8750   21.0360 S   0  0  0  0  0  0  0  0  0  0  0  0
    4.5690   -3.1890   21.8670 O   0  0  0  0  0  0  0  0  0  0  0  0
    5.0130   -4.5980   19.8960 O   0  0  0  0  0  0  0  0  0  0  0  0
    6.3480   -5.0210   21.9670 N   0  0  0  0  0  0  0  0  0  0  0  0
    7.2130   -4.5100   23.0070 C   0  0  0  0  0  0  0  0  0  0  0  0
    6.3630   -4.0180   24.1630 C   0  0  0  0  0  0  0  0  0  0  0  0
    5.2670   -4.9900   24.3890 N   0  0  0  0  0  0  0  0  0  0  0  0
    4.5820   -5.0440   25.9270 S   0  0  0  0  0  0  0  0  0  0  0  0
    3.9210   -6.3140   26.0670 O   0  0  0  0  0  0  0  0  0  0  0  0
    5.5550   -4.5350   26.8610 O   0  0  0  0  0  0  0  0  0  0  0  0
    3.2870   -3.8240   25.8150 C   0  0  0  0  0  0  0  0  0  0  0  0
    3.5440   -2.4570   26.1320 C   0  0  0  0  0  0  0  0  0  0  0  0
    2.4980   -1.4840   26.0560 C   0  0  0  0  0  0  0  0  0  0  0  0
    1.1650   -2.5690   25.5390 S   0  0  0  0  0  0  0  0  0  0  0  0
   -0.3840   -2.2470   25.2360 O   0  0  0  0  0  0  0  0  0  0  0  0
   -0.7780   -0.9240   25.5670 C   0  0  0  0  0  0  0  0  0  0  0  0
    1.9730   -4.1180   25.4350 C   0  0  0  0  0  0  0  0  0  0  0  0
    4.6530   -5.8990   23.4090 C   0  0  0  0  0  0  0  0  0  0  0  0
    5.6180   -6.1490   22.2500 C   0  0  0  0  0  0  0  0  0  0  0  0
  1  2  1  0
  3  2  1  0
  3  4  2  0
  3  5  2  0
  3  6  1  0
  6  7  1  0
  7  8  1  0
  8  9  1  0
  9 10  1  0
 10 11  2  0
 10 12  2  0
 10 13  1  0
 13 14  2  0
 14 15  1  0
 15 16  1  0
 16 17  1  0
 17 18  1  0
 13 19  1  0
 16 19  2  0
  9 20  1  0
  6 21  1  0
 20 21  1  0
M  END
