MAK-UNK-8fdbca50-2-acrylamide
     RDKit          3D

 40 43  0  0  0  0  0  0  0  0999 V2000
    7.6240   -4.0000   20.5740 C   0  0  0  0  0  0  0  0  0  0  0  0
    6.3240   -3.2480   20.5670 C   0  0  0  0  0  0  0  0  0  0  0  0
    5.8390   -3.3380   21.9680 C   0  0  0  0  0  0  0  0  0  0  0  0
    4.6550   -3.7320   22.1570 O   0  0  0  0  0  0  0  0  0  0  0  0
    6.8350   -2.9680   22.9560 N   0  0  0  0  0  0  0  0  0  0  0  0
    7.4490   -1.7940   22.8790 C   0  0  0  0  0  0  0  0  0  0  0  0
    8.9560   -1.7290   22.8730 C   0  0  0  0  0  0  0  0  0  0  0  0
    9.7560   -2.3090   23.8450 C   0  0  0  0  0  0  0  0  0  0  0  0
   11.0710   -2.7150   23.3520 C   0  0  0  0  0  0  0  0  0  0  0  0
   11.3160   -2.4700   22.1830 O   0  0  0  0  0  0  0  0  0  0  0  0
   12.0780   -3.3910   24.2960 N   0  0  0  0  0  0  0  0  0  0  0  0
   11.4610   -3.6280   25.4370 C   0  0  0  0  0  0  0  0  0  0  0  0
   13.5610   -3.1840   24.2050 C   0  0  2  0  0  0  0  0  0  0  0  0
   13.4930   -1.7030   24.4970 C   0  0  0  0  0  0  0  0  0  0  0  0
   14.3900   -3.4790   22.7740 C   0  0  1  0  0  0  0  0  0  0  0  0
   13.7920   -2.2730   22.2750 C   0  0  0  0  0  0  0  0  0  0  0  0
   15.9740   -5.0010   22.3200 C   0  0  0  0  0  0  0  0  0  0  0  0
   17.4990   -5.2440   21.7570 C   0  0  0  0  0  0  0  0  0  0  0  0
   18.8470   -5.3890   21.3080 C   0  0  0  0  0  0  0  0  0  0  0  0
   20.0770   -4.8510   21.3520 C   0  0  0  0  0  0  0  0  0  0  0  0
   21.3670   -5.0480   20.8540 C   0  0  0  0  0  0  0  0  0  0  0  0
   21.5350   -6.0240   21.6360 C   0  0  0  0  0  0  0  0  0  0  0  0
   20.9750   -6.7490   22.5330 C   0  0  0  0  0  0  0  0  0  0  0  0
   22.0770   -7.4530   22.6700 C   0  0  0  0  0  0  0  0  0  0  0  0
   23.0080   -6.8810   21.7170 C   0  0  0  0  0  0  0  0  0  0  0  0
   22.6640   -5.7220   20.8200 C   0  0  0  0  0  0  0  0  0  0  0  0
   23.6040   -5.2920   19.9590 F   0  0  0  0  0  0  0  0  0  0  0  0
   19.8410   -3.9270   22.0520 N   0  0  0  0  0  0  0  0  0  0  0  0
   21.0080   -2.7330   22.4700 S   0  0  0  0  0  0  0  0  0  0  0  0
   22.2570   -3.2600   21.9760 O   0  0  0  0  0  0  0  0  0  0  0  0
   20.4900   -1.5200   21.8850 O   0  0  0  0  0  0  0  0  0  0  0  0
   21.2780   -2.3900   24.1640 C   0  0  0  0  0  0  0  0  0  0  0  0
   22.2350   -3.0670   24.9030 C   0  0  0  0  0  0  0  0  0  0  0  0
   22.4490   -2.8030   26.2470 C   0  0  0  0  0  0  0  0  0  0  0  0
   21.6560   -1.8200   26.8200 C   0  0  0  0  0  0  0  0  0  0  0  0
   20.7180   -1.1360   26.1200 N   0  0  0  0  0  0  0  0  0  0  0  0
   20.5290   -1.4120   24.8000 C   0  0  0  0  0  0  0  0  0  0  0  0
   18.4410   -4.1330   22.3360 C   0  0  0  0  0  0  0  0  0  0  0  0
    8.8320   -3.4520   24.4150 C   0  0  0  0  0  0  0  0  0  0  0  0
    7.7420   -3.9610   23.6070 C   0  0  0  0  0  0  0  0  0  0  0  0
  1  2  1  0
  2  3  1  0
  3  4  2  0
  3  5  1  0
  5  6  1  0
  6  7  1  0
  7  8  1  0
  8  9  1  0
  9 10  2  0
  9 11  1  0
 11 12  1  0
 11 13  1  0
 13 14  1  6
 13 15  1  0
 15 16  1  1
 15 17  1  0
 17 18  1  0
 18 19  1  0
 19 20  2  0
 20 21  1  0
 21 22  2  0
 22 23  1  0
 23 24  2  0
 24 25  1  0
 21 26  1  0
 25 26  2  0
 26 27  1  0
 20 28  1  0
 28 29  1  0
 29 30  2  0
 29 31  2  0
 29 32  1  0
 32 33  2  0
 33 34  1  0
 34 35  2  0
 35 36  1  0
 32 37  1  0
 36 37  2  0
 18 38  2  0
 28 38  1  0
  8 39  1  0
  5 40  1  0
 39 40  1  0
M  END
