MAK-UNK-6ca90168-9-nitrile
     RDKit          3D

 19 20  0  0  0  0  0  0  0  0999 V2000
    7.2040   -4.1690   20.3280 C   0  0  0  0  0  0  0  0  0  0  0  0
    6.1020   -4.8290   20.0730 N   0  0  0  0  0  0  0  0  0  0  0  0
    7.5840   -3.6510   21.5800 N   0  0  0  0  0  0  0  0  0  0  0  0
    6.9870   -4.1570   22.8080 C   0  0  0  0  0  0  0  0  0  0  0  0
    5.9390   -3.2930   22.2650 C   0  0  0  0  0  0  0  0  0  0  0  0
    6.2670   -2.2220   21.2920 N   0  0  0  0  0  0  0  0  0  0  0  0
    5.6810   -2.2920   20.0340 C   0  0  0  0  0  0  0  0  0  0  0  0
    4.8930   -3.1710   19.7310 O   0  0  0  0  0  0  0  0  0  0  0  0
    6.1200   -1.2050   19.0430 C   0  0  0  0  0  0  0  0  0  0  0  0
    5.4640    0.1690   19.2440 C   0  0  0  0  0  0  0  0  0  0  0  0
    5.2230    1.0310   18.0180 C   0  0  0  0  0  0  0  0  0  0  0  0
    4.6300    2.2780   18.1710 C   0  0  0  0  0  0  0  0  0  0  0  0
    4.2550    2.7450   19.4260 C   0  0  0  0  0  0  0  0  0  0  0  0
    4.4670    1.9740   20.5640 C   0  0  0  0  0  0  0  0  0  0  0  0
    5.0570    0.7100   20.4950 C   0  0  0  0  0  0  0  0  0  0  0  0
    5.2150    0.0360   21.7050 C   0  0  0  0  0  0  0  0  0  0  0  0
    5.3120   -0.4690   22.7490 N   0  0  0  0  0  0  0  0  0  0  0  0
    7.4980   -1.4790   21.5530 C   0  0  0  0  0  0  0  0  0  0  0  0
    8.4260   -2.4590   21.7890 C   0  0  0  0  0  0  0  0  0  0  0  0
  1  2  2  3
  1  3  1  0
  3  4  1  0
  4  5  1  0
  5  6  1  0
  6  7  1  0
  7  8  2  0
  7  9  1  0
  9 10  1  0
 10 11  2  0
 11 12  1  0
 12 13  2  0
 13 14  1  0
 10 15  1  0
 14 15  2  0
 15 16  1  0
 16 17  3  0
  6 18  1  0
  3 19  1  0
 18 19  1  0
M  END
