MAK-UNK-516d8086-2-acrylamide
     RDKit          3D

 22 24  0  0  0  0  0  0  0  0999 V2000
    8.0580   -3.5660   20.2420 C   0  0  0  0  0  0  0  0  0  0  0  0
    6.8570   -4.2000   20.9130 C   0  0  0  0  0  0  0  0  0  0  0  0
    5.8430   -3.1160   21.2930 C   0  0  0  0  0  0  0  0  0  0  0  0
    4.7350   -3.3870   21.8320 O   0  0  0  0  0  0  0  0  0  0  0  0
    6.2750   -1.6490   20.9290 C   0  0  0  0  0  0  0  0  0  0  0  0
    5.3140   -2.3100   20.0730 C   0  0  0  0  0  0  0  0  0  0  0  0
    5.0120   -3.5560   20.5170 N   0  0  0  0  0  0  0  0  0  0  0  0
    5.6430   -4.0360   21.6880 C   0  0  0  0  0  0  0  0  0  0  0  0
    5.3220   -5.3130   22.1240 N   0  0  0  0  0  0  0  0  0  0  0  0
    6.6370   -3.3270   22.5390 C   0  0  0  0  0  0  0  0  0  0  0  0
    7.3070   -3.7960   23.7420 C   0  0  0  0  0  0  0  0  0  0  0  0
    8.4250   -2.9620   23.8940 C   0  0  0  0  0  0  0  0  0  0  0  0
    9.6030   -2.5000   23.9150 C   0  0  0  0  0  0  0  0  0  0  0  0
    9.7600   -3.7870   23.4970 C   0  0  0  0  0  0  0  0  0  0  0  0
    8.3080   -4.2830   23.6150 C   0  0  0  0  0  0  0  0  0  0  0  0
    8.5750   -5.4940   23.2030 C   0  0  0  0  0  0  0  0  0  0  0  0
    9.0620   -4.2490   23.4700 C   0  0  0  0  0  0  0  0  0  0  0  0
    7.1970   -6.0900   23.2740 C   0  0  0  0  0  0  0  0  0  0  0  0
    6.7650   -7.3410   22.6610 O   0  0  0  0  0  0  0  0  0  0  0  0
    6.4210   -5.2030   24.0180 N   0  0  0  0  0  0  0  0  0  0  0  0
    7.0210   -3.9720   23.9870 C   0  0  0  0  0  0  0  0  0  0  0  0
    6.9800   -1.9140   22.0550 C   0  0  0  0  0  0  0  0  0  0  0  0
  1  2  1  0
  2  3  1  0
  3  4  2  0
  3  5  1  0
  5  6  2  0
  6  7  1  0
  7  8  2  0
  8  9  1  0
  8 10  1  0
 10 11  1  0
 11 12  1  0
 12 13  2  0
 13 14  1  0
 14 15  2  0
 15 16  1  0
 12 17  1  0
 16 17  2  0
 16 18  1  0
 18 19  2  0
 18 20  1  0
 15 21  1  0
 20 21  1  0
  5 22  1  0
 10 22  2  0
M  END
