MAK-UNK-72659d64-17-chloroacetamide
     RDKit          3D

 22 22  0  0  0  0  0  0  0  0999 V2000
    9.1180   -4.1690   20.4720 C   0  0  0  0  0  0  0  0  0  0  0  0
    7.5650   -4.1330   20.3500 C   0  0  0  0  0  0  0  0  0  0  0  0
    6.9600   -3.7690   19.2930 O   0  0  0  0  0  0  0  0  0  0  0  0
    6.7890   -4.5410   21.4510 N   0  0  0  0  0  0  0  0  0  0  0  0
    5.7790   -3.7280   22.1370 C   0  0  0  0  0  0  0  0  0  0  0  0
    4.6170   -3.6390   21.8580 N   0  0  0  0  0  0  0  0  0  0  0  0
    4.9500   -2.8360   22.8540 C   0  0  0  0  0  0  0  0  0  0  0  0
    5.9320   -2.2110   23.8440 C   0  0  0  0  0  0  0  0  0  0  0  0
    6.5930   -0.9420   23.6650 N   0  0  0  0  0  0  0  0  0  0  0  0
    6.2700   -3.5100   22.5850 N   0  0  0  0  0  0  0  0  0  0  0  0
    7.3560   -3.1150   23.4940 C   0  0  0  0  0  0  0  0  0  0  0  0
    8.3290   -3.8590   22.9110 N   0  0  0  0  0  0  0  0  0  0  0  0
    8.7460   -5.0260   23.4350 C   0  0  0  0  0  0  0  0  0  0  0  0
    9.6460   -5.8370   22.7580 O   0  0  0  0  0  0  0  0  0  0  0  0
    8.2350   -5.3630   24.6770 C   0  0  0  0  0  0  0  0  0  0  0  0
    9.4890   -6.0730   25.6930 Cl  0  0  0  0  0  0  0  0  0  0  0  0
    6.0230   -2.7880   23.4290 C   0  0  0  0  0  0  0  0  0  0  0  0
    5.2720   -1.9630   24.2420 N   0  0  0  0  0  0  0  0  0  0  0  0
    5.3570   -2.1240   25.7100 C   0  0  0  0  0  0  0  0  0  0  0  0
    4.7210   -2.9580   26.3470 O   0  0  0  0  0  0  0  0  0  0  0  0
    6.2170   -1.2510   26.3950 C   0  0  0  0  0  0  0  0  0  0  0  0
    6.0050   -1.5120   28.1460 Cl  0  0  0  0  0  0  0  0  0  0  0  0
  1  2  1  0
  2  3  2  0
  2  4  1  0
  4  5  1  0
  5  6  2  0
  6  7  1  0
  7  8  1  0
  8  9  3  0
  7 10  2  0
 10 11  1  0
 11 12  1  0
 12 13  1  0
 13 14  2  0
 13 15  1  0
 15 16  1  0
  5 17  1  0
 11 17  2  0
 17 18  1  0
 18 19  1  0
 19 20  2  0
 19 21  1  0
 21 22  1  0
M  END
