MAK-UNK-212f693e-11-vinylsulfonamide
     RDKit          3D

 17 18  0  0  0  0  0  0  0  0999 V2000
    5.7930   -5.0970   20.8870 C   0  0  0  0  0  0  0  0  0  0  0  0
    6.0950   -5.4100   22.3730 C   0  0  0  0  0  0  0  0  0  0  0  0
    4.6740   -5.4480   23.4140 S   0  0  0  0  0  0  0  0  0  0  0  0
    3.4830   -5.0840   22.6690 O   0  0  0  0  0  0  0  0  0  0  0  0
    4.7350   -6.5760   24.3260 O   0  0  0  0  0  0  0  0  0  0  0  0
    5.1620   -4.1640   24.3030 N   0  0  0  0  0  0  0  0  0  0  0  0
    4.4770   -2.9160   24.1270 C   0  0  0  0  0  0  0  0  0  0  0  0
    5.4210   -1.8090   23.6760 C   0  0  0  0  0  0  0  0  0  0  0  0
    6.3670   -2.3410   22.6680 C   0  0  2  0  0  0  0  0  0  0  0  0
    5.7850   -2.5740   21.4530 O   0  0  0  0  0  0  0  0  0  0  0  0
    5.8720   -1.5460   20.4220 C   0  0  0  0  0  0  0  0  0  0  0  0
    7.0230   -1.3180   19.6920 C   0  0  0  0  0  0  0  0  0  0  0  0
    6.9670   -0.3180   18.7470 C   0  0  0  0  0  0  0  0  0  0  0  0
    5.4710    0.4870   18.6320 S   0  0  0  0  0  0  0  0  0  0  0  0
    4.8500   -0.5140   19.8840 C   0  0  0  0  0  0  0  0  0  0  0  0
    7.1180   -3.4760   23.0700 N   0  0  0  0  0  0  0  0  0  0  0  0
    6.6200   -4.0910   24.2270 C   0  0  0  0  0  0  0  0  0  0  0  0
  1  2  1  0
  3  2  1  0
  3  4  2  0
  3  5  2  0
  3  6  1  0
  6  7  1  0
  7  8  1  0
  8  9  1  0
  9 10  1  6
 10 11  1  0
 11 12  1  0
 12 13  2  0
 13 14  1  0
 11 15  2  0
 14 15  1  0
  9 16  1  0
  6 17  1  0
 16 17  1  0
M  END
