MAK-UNK-ec98eaf6-23-acrylamide
     RDKit          3D

 23 25  0  0  0  0  0  0  0  0999 V2000
    7.4230   -2.8820   18.4280 C   0  0  0  0  0  0  0  0  0  0  0  0
    6.5310   -1.9770   19.2110 C   0  0  0  0  0  0  0  0  0  0  0  0
    5.7280   -2.8320   20.1470 C   0  0  0  0  0  0  0  0  0  0  0  0
    5.0280   -3.7880   19.7650 O   0  0  0  0  0  0  0  0  0  0  0  0
    5.8890   -2.5280   21.4550 N   0  0  0  0  0  0  0  0  0  0  0  0
    5.8100   -3.5830   22.4950 C   0  0  0  0  0  0  0  0  0  0  0  0
    7.0750   -3.3230   23.3810 C   0  0  2  0  0  0  0  0  0  0  0  0
    6.5020   -1.9130   23.4340 C   0  0  0  0  0  0  0  0  0  0  0  0
    6.6660   -1.4150   22.0500 C   0  0  1  0  0  0  0  0  0  0  0  0
    8.1580   -1.6710   22.0630 C   0  0  0  0  0  0  0  0  0  0  0  0
    8.1500   -2.2840   23.4370 N   0  0  0  0  0  0  0  0  0  0  0  0
    9.4460   -2.7990   23.8310 C   0  0  0  0  0  0  0  0  0  0  0  0
   10.4580   -1.6490   23.8090 C   0  0  0  0  0  0  0  0  0  0  0  0
   11.6150   -1.8720   22.9270 C   0  0  0  0  0  0  0  0  0  0  0  0
   12.6260   -0.8410   22.8150 C   0  0  0  0  0  0  0  0  0  0  0  0
   13.7040   -0.9280   22.0350 O   0  0  0  0  0  0  0  0  0  0  0  0
   13.3880   -1.5500   20.8190 C   0  0  0  0  0  0  0  0  0  0  0  0
   12.4050    0.2940   23.5780 C   0  0  0  0  0  0  0  0  0  0  0  0
   11.2860    0.5290   24.4440 N   0  0  0  0  0  0  0  0  0  0  0  0
   10.3950   -0.4560   24.4960 C   0  0  0  0  0  0  0  0  0  0  0  0
    9.2330   -0.3330   25.3040 N   0  0  0  0  0  0  0  0  0  0  0  0
    9.3230    0.3040   26.6080 C   0  0  0  0  0  0  0  0  0  0  0  0
    8.0940   -0.0890   27.4200 C   0  0  0  0  0  0  0  0  0  0  0  0
  1  2  1  0
  2  3  1  0
  3  4  2  0
  3  5  1  0
  5  6  1  0
  7  6  1  6
  7  8  1  0
  5  9  1  0
  8  9  1  0
  9 10  1  6
  7 11  1  0
 10 11  1  0
 11 12  1  0
 12 13  1  0
 13 14  2  0
 14 15  1  0
 15 16  1  0
 16 17  1  0
 15 18  2  0
 18 19  1  0
 13 20  1  0
 19 20  2  0
 20 21  1  0
 21 22  1  0
 22 23  1  0
M  END
