MAK-UNK-1bb0b7ee-1
     RDKit          3D

 19 21  0  0  0  0  0  0  0  0999 V2000
    5.3230   -6.2670   22.2040 C   0  0  0  0  0  0  0  0  0  0  0  0
    6.5870   -5.6520   21.8830 C   0  0  0  0  0  0  0  0  0  0  0  0
    7.3210   -4.6060   22.7640 C   0  0  0  0  0  0  0  0  0  0  0  0
    6.3070   -4.5360   23.9290 C   0  0  0  0  0  0  0  0  0  0  0  0
    6.7400   -3.6450   24.8910 O   0  0  0  0  0  0  0  0  0  0  0  0
    5.7180   -3.1820   25.7920 C   0  0  0  0  0  0  0  0  0  0  0  0
    4.8910   -1.9620   25.4060 C   0  0  0  0  0  0  0  0  0  0  0  0
    5.8290   -0.8320   24.9190 C   0  0  0  0  0  0  0  0  0  0  0  0
    6.6670   -1.1750   23.6440 C   0  0  0  0  0  0  0  0  0  0  0  0
    7.5280   -0.2090   23.1470 C   0  0  0  0  0  0  0  0  0  0  0  0
    7.5820    1.1230   23.9040 C   0  0  0  0  0  0  0  0  0  0  0  0
    6.7350    1.3080   25.1030 C   0  0  0  0  0  0  0  0  0  0  0  0
    5.8940    0.3580   25.5810 N   0  0  0  0  0  0  0  0  0  0  0  0
    3.7790   -2.2940   24.3690 C   0  0  0  0  0  0  0  0  0  0  0  0
    2.7340   -1.4540   24.7450 C   0  0  0  0  0  0  0  0  0  0  0  0
    2.8120   -1.0980   26.0590 C   0  0  0  0  0  0  0  0  0  0  0  0
    4.0080   -1.5100   26.6190 C   0  0  0  0  0  0  0  0  0  0  0  0
    5.1270   -5.1410   24.1940 N   0  0  0  0  0  0  0  0  0  0  0  0
    4.6490   -5.9970   23.3260 C   0  0  0  0  0  0  0  0  0  0  0  0
  1  2  2  0
  2  3  1  0
  3  4  2  0
  4  5  1  0
  5  6  1  0
  7  6  1  0
  7  8  1  0
  8  9  2  0
  9 10  1  0
 10 11  2  0
 11 12  1  0
  8 13  1  0
 12 13  2  0
  7 14  1  0
 14 15  1  0
 15 16  1  0
  7 17  1  0
 16 17  1  0
  4 18  1  0
  1 19  1  0
 18 19  2  0
M  END
