MAK-UNK-72659d64-16-acrylamide
     RDKit          3D

 22 22  0  0  0  0  0  0  0  0999 V2000
    8.2480   -4.9230   21.1300 C   0  0  0  0  0  0  0  0  0  0  0  0
    6.8240   -5.1320   21.6490 C   0  0  0  0  0  0  0  0  0  0  0  0
    6.0890   -3.8220   21.8650 C   0  0  0  0  0  0  0  0  0  0  0  0
    5.1410   -3.5480   21.1090 O   0  0  0  0  0  0  0  0  0  0  0  0
    6.4800   -2.9760   22.9330 N   0  0  0  0  0  0  0  0  0  0  0  0
    7.8570   -3.2030   23.4520 C   0  0  0  0  0  0  0  0  0  0  0  0
    5.5160   -2.5110   23.8470 C   0  0  0  0  0  0  0  0  0  0  0  0
    4.5460   -3.4310   24.1470 C   0  0  0  0  0  0  0  0  0  0  0  0
    4.4020   -2.9350   22.9040 C   0  0  0  0  0  0  0  0  0  0  0  0
    5.3390   -1.8720   22.7120 C   0  0  0  0  0  0  0  0  0  0  0  0
    5.4260   -1.1190   21.5130 C   0  0  0  0  0  0  0  0  0  0  0  0
    6.5080   -1.1810   20.6000 N   0  0  0  0  0  0  0  0  0  0  0  0
    6.3120   -1.5880   19.2800 C   0  0  0  0  0  0  0  0  0  0  0  0
    7.5760   -0.3970   21.0030 C   0  0  0  0  0  0  0  0  0  0  0  0
    7.6510    0.7980   20.7250 O   0  0  0  0  0  0  0  0  0  0  0  0
    8.5860   -1.0080   21.7540 C   0  0  0  0  0  0  0  0  0  0  0  0
    9.7750    0.1470   22.3910 Cl  0  0  0  0  0  0  0  0  0  0  0  0
    6.2250   -1.5400   23.8320 N   0  0  0  0  0  0  0  0  0  0  0  0
    6.1000   -2.3100   25.0420 C   0  0  0  0  0  0  0  0  0  0  0  0
    6.9720   -1.8910   26.0270 C   0  0  0  0  0  0  0  0  0  0  0  0
    6.5760   -1.5860   27.2830 N   0  0  0  0  0  0  0  0  0  0  0  0
    5.2250   -3.3470   25.2780 N   0  0  0  0  0  0  0  0  0  0  0  0
  1  2  1  0
  2  3  1  0
  3  4  2  0
  3  5  1  0
  5  6  1  0
  5  7  1  0
  7  8  1  0
  8  9  2  0
  9 10  1  0
 10 11  1  0
 11 12  1  0
 12 13  1  0
 12 14  1  0
 14 15  2  0
 14 16  1  0
 16 17  1  0
 10 18  2  0
 18 19  1  0
 19 20  1  0
 20 21  3  0
  8 22  1  0
 19 22  2  0
M  END
