MAK-UNK-10dfa458-38-nitrile
     RDKit          3D

 26 28  0  0  0  0  0  0  0  0999 V2000
    6.3570   -4.6580   20.4100 C   0  0  0  0  0  0  0  0  0  0  0  0
    5.2290   -4.4660   19.8900 N   0  0  0  0  0  0  0  0  0  0  0  0
    6.4940   -5.1050   21.7060 N   0  0  0  0  0  0  0  0  0  0  0  0
    7.3190   -4.5520   22.8090 C   0  0  0  0  0  0  0  0  0  0  0  0
    6.2650   -3.9780   23.8280 C   0  0  0  0  0  0  0  0  0  0  0  0
    5.4330   -5.1200   24.3050 N   0  0  0  0  0  0  0  0  0  0  0  0
    4.6370   -4.9410   25.5760 C   0  0  0  0  0  0  0  0  0  0  0  0
    3.6150   -3.7390   25.6330 C   0  0  0  0  0  0  0  0  0  0  0  0
    2.2840   -4.3200   25.1280 C   0  0  0  0  0  0  0  0  0  0  0  0
    1.1290   -3.2950   25.1250 C   0  0  0  0  0  0  0  0  0  0  0  0
    1.4310   -1.8610   25.6110 C   0  0  0  0  0  0  0  0  0  0  0  0
    2.8050   -1.4740   26.0670 C   0  0  0  0  0  0  0  0  0  0  0  0
    2.9740   -0.0330   26.5260 C   0  0  0  0  0  0  0  0  0  0  0  0
    3.0490    1.0650   26.9020 N   0  0  0  0  0  0  0  0  0  0  0  0
    3.8420   -2.4120   26.0660 C   0  0  0  0  0  0  0  0  0  0  0  0
    5.1110   -2.0300   26.5060 C   0  0  0  0  0  0  0  0  0  0  0  0
    5.4810   -2.4910   27.5870 O   0  0  0  0  0  0  0  0  0  0  0  0
    5.8880   -1.1630   25.7370 N   0  0  0  0  0  0  0  0  0  0  0  0
    5.3230   -0.6550   24.4750 C   0  0  0  0  0  0  0  0  0  0  0  0
    5.8530    0.5850   24.0770 C   0  0  0  0  0  0  0  0  0  0  0  0
    7.1400    0.9100   24.5180 C   0  0  0  0  0  0  0  0  0  0  0  0
    7.2760    2.3250   24.4200 O   0  0  0  0  0  0  0  0  0  0  0  0
    7.3400    0.6200   25.8740 C   0  0  0  0  0  0  0  0  0  0  0  0
    7.2490   -0.7430   26.0960 C   0  0  0  0  0  0  0  0  0  0  0  0
    4.6940   -5.7070   23.1580 C   0  0  0  0  0  0  0  0  0  0  0  0
    5.5650   -6.1630   22.1530 C   0  0  0  0  0  0  0  0  0  0  0  0
  1  2  2  3
  1  3  1  0
  3  4  1  0
  4  5  1  0
  5  6  1  0
  6  7  1  0
  7  8  1  0
  8  9  2  0
  9 10  1  0
 10 11  2  0
 11 12  1  0
 12 13  1  0
 13 14  3  0
  8 15  1  0
 12 15  2  0
 15 16  1  0
 16 17  2  0
 16 18  1  0
 18 19  1  0
 19 20  1  0
 20 21  1  0
 21 22  1  0
 21 23  1  0
 18 24  1  0
 23 24  1  0
  6 25  1  0
  3 26  1  0
 25 26  1  0
M  END
