MAK-UNK-72659d64-17-vinylsulfonamide
     RDKit          3D

 24 24  0  0  0  0  0  0  0  0999 V2000
    7.6920   -3.8080   20.2900 C   0  0  0  0  0  0  0  0  0  0  0  0
    7.1000   -2.4320   20.1910 C   0  0  0  0  0  0  0  0  0  0  0  0
    5.3810   -2.6210   20.4420 S   0  0  0  0  0  0  0  0  0  0  0  0
    4.8700   -3.6770   19.5570 O   0  0  0  0  0  0  0  0  0  0  0  0
    4.8700   -1.2620   20.3760 O   0  0  0  0  0  0  0  0  0  0  0  0
    5.2300   -3.2230   22.0180 N   0  0  0  0  0  0  0  0  0  0  0  0
    4.9530   -2.3150   23.1460 C   0  0  0  0  0  0  0  0  0  0  0  0
    5.4240   -1.0490   22.9820 N   0  0  0  0  0  0  0  0  0  0  0  0
    4.9060   -1.1030   24.0290 C   0  0  0  0  0  0  0  0  0  0  0  0
    4.1670   -1.9320   25.0380 C   0  0  0  0  0  0  0  0  0  0  0  0
    3.8470   -1.4920   26.3480 N   0  0  0  0  0  0  0  0  0  0  0  0
    5.0090   -2.2680   23.0600 N   0  0  0  0  0  0  0  0  0  0  0  0
    4.4640   -3.5510   23.3540 C   0  0  0  0  0  0  0  0  0  0  0  0
    4.3280   -4.8090   22.8050 N   0  0  0  0  0  0  0  0  0  0  0  0
    5.2670   -5.5540   22.1670 C   0  0  0  0  0  0  0  0  0  0  0  0
    5.4620   -5.5080   20.8120 O   0  0  0  0  0  0  0  0  0  0  0  0
    6.0760   -6.4360   22.8770 C   0  0  0  0  0  0  0  0  0  0  0  0
    7.5920   -5.6430   23.3620 Cl  0  0  0  0  0  0  0  0  0  0  0  0
    4.0920   -2.9880   24.4880 C   0  0  0  0  0  0  0  0  0  0  0  0
    3.4900   -4.0810   25.0390 N   0  0  0  0  0  0  0  0  0  0  0  0
    2.0690   -4.3330   24.7800 C   0  0  0  0  0  0  0  0  0  0  0  0
    1.0440   -3.4690   25.1140 O   0  0  0  0  0  0  0  0  0  0  0  0
    1.7840   -5.5570   24.1550 C   0  0  0  0  0  0  0  0  0  0  0  0
    0.4680   -6.3510   25.0670 Cl  0  0  0  0  0  0  0  0  0  0  0  0
  1  2  1  0
  2  3  1  0
  3  4  2  0
  3  5  2  0
  3  6  1  0
  6  7  1  0
  7  8  2  0
  8  9  1  0
  9 10  1  0
 10 11  3  0
  9 12  2  0
 12 13  1  0
 13 14  1  0
 14 15  1  0
 15 16  2  0
 15 17  1  0
 17 18  1  0
  7 19  1  0
 13 19  2  0
 19 20  1  0
 20 21  1  0
 21 22  2  0
 21 23  1  0
 23 24  1  0
M  END
