MAK-UNK-4b073b5c-12
     RDKit          3D

  7  7  0  0  0  0  0  0  0  0999 V2000
    3.6560   -4.6170   23.1050 C   0  0  0  0  0  0  0  0  0  0  0  0
    4.7800   -5.6370   23.1450 C   0  0  2  0  0  0  0  0  0  0  0  0
    5.8420   -5.1910   24.1010 N   0  0  0  0  0  0  0  0  0  0  0  0
    6.7920   -4.7710   23.3180 C   0  0  0  0  0  0  0  0  0  0  0  0
    6.5630   -4.8430   22.0060 N   0  0  0  0  0  0  0  0  0  0  0  0
    5.5470   -5.6870   21.8370 C   0  0  0  0  0  0  0  0  0  0  0  0
    5.3400   -6.3150   20.8300 O   0  0  0  0  0  0  0  0  0  0  0  0
  2  1  1  6
  2  3  1  0
  3  4  2  0
  4  5  1  0
  2  6  1  0
  5  6  1  0
  6  7  2  0
M  END
