MAK-UNK-9a6be56d-28
     RDKit          3D

 38 42  0  0  0  0  0  0  0  0999 V2000
    8.8710   -0.2350   25.5430 C   0  0  0  0  0  0  0  0  0  0  0  0
    9.6710   -0.2650   24.4220 N   0  0  0  0  0  0  0  0  0  0  0  0
   10.4810   -1.3660   24.1960 C   0  0  0  0  0  0  0  0  0  0  0  0
   11.4290   -1.0670   23.2130 C   0  0  0  0  0  0  0  0  0  0  0  0
   12.2480    0.0780   23.3930 C   0  0  0  0  0  0  0  0  0  0  0  0
   11.4460    1.1890   23.4340 C   0  0  0  0  0  0  0  0  0  0  0  0
   11.8860    2.4030   22.9980 C   0  0  0  0  0  0  0  0  0  0  0  0
   13.1660    2.3400   22.5570 N   0  0  0  0  0  0  0  0  0  0  0  0
   13.6170    3.5550   22.1130 C   0  0  0  0  0  0  0  0  0  0  0  0
   14.7460    3.6400   21.0950 C   0  0  0  0  0  0  0  0  0  0  0  0
   15.3840    4.6300   20.6880 C   0  0  0  0  0  0  0  0  0  0  0  0
   16.4780    4.4890   19.7110 C   0  0  0  0  0  0  0  0  0  0  0  0
   17.2910    5.6480   19.3240 C   0  0  0  0  0  0  0  0  0  0  0  0
   18.5270    5.9180   20.0410 C   0  0  0  0  0  0  0  0  0  0  0  0
   19.3780    7.0460   19.8020 C   0  0  0  0  0  0  0  0  0  0  0  0
   19.0410    7.9940   18.8530 C   0  0  0  0  0  0  0  0  0  0  0  0
   17.8760    7.8440   18.0900 C   0  0  0  0  0  0  0  0  0  0  0  0
   17.0010    6.5860   18.3460 C   0  0  0  0  0  0  0  0  0  0  0  0
   16.0070    6.4600   17.6100 F   0  0  0  0  0  0  0  0  0  0  0  0
   16.3420    2.9910   19.4220 N   0  0  0  0  0  0  0  0  0  0  0  0
   17.0240    1.6090   18.3400 S   0  0  0  0  0  0  0  0  0  0  0  0
   16.4780    0.8390   19.3040 O   0  0  0  0  0  0  0  0  0  0  0  0
   16.3500    1.8820   17.0800 O   0  0  0  0  0  0  0  0  0  0  0  0
   17.4120    0.0010   18.0810 C   0  0  0  0  0  0  0  0  0  0  0  0
   16.6410   -0.4850   17.1530 C   0  0  0  0  0  0  0  0  0  0  0  0
   16.6350   -1.6910   16.8700 C   0  0  0  0  0  0  0  0  0  0  0  0
   17.4770   -2.5400   17.4870 C   0  0  0  0  0  0  0  0  0  0  0  0
   18.3480   -2.1550   18.3350 N   0  0  0  0  0  0  0  0  0  0  0  0
   18.3040   -0.8960   18.6180 C   0  0  0  0  0  0  0  0  0  0  0  0
   15.3250    2.7040   20.3780 C   0  0  0  0  0  0  0  0  0  0  0  0
   11.0550    3.5120   23.0410 C   0  0  0  0  0  0  0  0  0  0  0  0
    9.7590    3.3650   23.5410 C   0  0  0  0  0  0  0  0  0  0  0  0
    8.6840    4.7810   23.6050 S   0  0  0  0  0  0  0  0  0  0  0  0
    9.6000    5.9760   22.8510 N   0  0  0  0  0  0  0  0  0  0  0  0
    7.5270    4.5210   22.7710 O   0  0  0  0  0  0  0  0  0  0  0  0
    8.5140    5.1900   24.9930 O   0  0  0  0  0  0  0  0  0  0  0  0
    9.2700    2.1180   24.0070 C   0  0  0  0  0  0  0  0  0  0  0  0
   10.1710    1.0280   23.9340 C   0  0  0  0  0  0  0  0  0  0  0  0
  1  2  1  0
  2  3  1  0
  3  4  1  0
  4  5  1  0
  5  6  1  0
  6  7  1  0
  7  8  1  0
  8  9  1  0
  9 10  1  0
 10 11  1  0
 11 12  2  0
 12 13  1  0
 13 14  2  0
 14 15  1  0
 15 16  2  0
 16 17  1  0
 13 18  1  0
 17 18  2  0
 18 19  1  0
 12 20  1  0
 20 21  1  0
 21 22  2  0
 21 23  2  0
 21 24  1  0
 24 25  2  0
 25 26  1  0
 26 27  2  0
 27 28  1  0
 24 29  1  0
 28 29  2  0
 10 30  2  0
 20 30  1  0
  7 31  2  0
 31 32  1  0
 32 33  1  0
 33 34  1  0
 33 35  2  0
 33 36  2  0
 32 37  2  0
  2 38  1  0
  6 38  2  0
 37 38  1  0
M  END
