MAK-UNK-af83ef51-32-vinylsulfonamide
     RDKit          3D

 33 35  0  0  0  0  0  0  0  0999 V2000
    8.8310   -4.0180   20.3520 C   0  0  0  0  0  0  0  0  0  0  0  0
    7.6190   -3.2100   19.8870 C   0  0  0  0  0  0  0  0  0  0  0  0
    6.2010   -3.7210   20.8360 S   0  0  0  0  0  0  0  0  0  0  0  0
    5.1980   -4.2950   19.9460 O   0  0  0  0  0  0  0  0  0  0  0  0
    6.6540   -4.5200   21.9520 O   0  0  0  0  0  0  0  0  0  0  0  0
    5.5610   -2.2800   21.4760 N   0  0  0  0  0  0  0  0  0  0  0  0
    5.8390   -1.0350   20.7590 C   0  0  0  0  0  0  0  0  0  0  0  0
    6.9470   -0.3600   21.2910 C   0  0  0  0  0  0  0  0  0  0  0  0
    6.8620   -0.1430   22.7480 N   0  0  0  0  0  0  0  0  0  0  0  0
    8.0190    0.6360   23.2340 C   0  0  0  0  0  0  0  0  0  0  0  0
    9.0140    0.0660   24.0370 N   0  0  0  0  0  0  0  0  0  0  0  0
   10.3830    0.4690   23.8620 C   0  0  0  0  0  0  0  0  0  0  0  0
   11.4170    1.3960   23.3980 C   0  0  0  0  0  0  0  0  0  0  0  0
   12.7080    1.9980   23.1130 C   0  0  0  0  0  0  0  0  0  0  0  0
   11.8200    3.0610   22.5330 C   0  0  0  0  0  0  0  0  0  0  0  0
   10.4040    3.3870   22.3250 C   0  0  0  0  0  0  0  0  0  0  0  0
    9.2730    3.6040   22.1740 N   0  0  0  0  0  0  0  0  0  0  0  0
   11.1680    1.8970   23.1210 C   0  0  0  0  0  0  0  0  0  0  0  0
   12.1470    0.9830   23.6380 O   0  0  0  0  0  0  0  0  0  0  0  0
   12.4250   -0.2260   22.8890 C   0  0  0  0  0  0  0  0  0  0  0  0
   12.7450   -1.2200   23.8120 C   0  0  0  0  0  0  0  0  0  0  0  0
   12.6660   -2.4960   23.4300 N   0  0  0  0  0  0  0  0  0  0  0  0
   11.5020   -3.1180   23.7470 C   0  0  0  0  0  0  0  0  0  0  0  0
   12.0430   -3.2880   25.0200 C   0  0  0  0  0  0  0  0  0  0  0  0
   10.6780   -4.0970   25.6410 C   0  0  0  0  0  0  0  0  0  0  0  0
    9.2790   -4.6100   25.2840 C   0  0  0  0  0  0  0  0  0  0  0  0
    9.3110   -5.0100   26.6230 C   0  0  0  0  0  0  0  0  0  0  0  0
    9.3250   -5.3650   27.9220 N   0  0  0  0  0  0  0  0  0  0  0  0
    9.6460   -4.1040   24.1860 C   0  0  0  0  0  0  0  0  0  0  0  0
   10.7720   -3.6870   24.4960 N   0  0  0  0  0  0  0  0  0  0  0  0
    9.9190    1.5170   23.2790 N   0  0  0  0  0  0  0  0  0  0  0  0
    6.6820   -1.3860   23.4950 C   0  0  0  0  0  0  0  0  0  0  0  0
    5.4990   -2.1790   22.9310 C   0  0  0  0  0  0  0  0  0  0  0  0
  1  2  1  0
  3  2  1  0
  3  4  2  0
  3  5  2  0
  3  6  1  0
  6  7  1  0
  7  8  1  0
  8  9  1  0
  9 10  1  0
 10 11  1  0
 11 12  1  0
 12 13  2  0
 13 14  1  0
 14 15  2  0
 15 16  1  0
 16 17  3  0
 15 18  1  0
 18 19  1  0
 19 20  1  0
 20 21  1  0
 21 22  1  0
 22 23  1  0
 23 24  2  0
 24 25  1  0
 25 26  2  0
 26 27  1  0
 27 28  3  0
 26 29  1  0
 23 30  1  0
 29 30  2  0
 12 31  1  0
 18 31  2  0
  9 32  1  0
  6 33  1  0
 32 33  1  0
M  END
