MAK-UNK-e05327b2-8-chloroacetamide
     RDKit          3D

 28 31  0  0  0  0  0  0  0  0999 V2000
    7.1220   -3.4400   20.0300 C   0  0  0  0  0  0  0  0  0  0  0  0
    6.2900   -4.5710   20.5940 C   0  0  0  0  0  0  0  0  0  0  0  0
    5.3040   -4.9200   19.9700 O   0  0  0  0  0  0  0  0  0  0  0  0
    6.5830   -5.2420   21.7720 N   0  0  0  0  0  0  0  0  0  0  0  0
    5.8960   -6.2640   22.1510 C   0  0  0  0  0  0  0  0  0  0  0  0
    4.9650   -5.8670   23.3140 C   0  0  0  0  0  0  0  0  0  0  0  0
    5.7090   -5.3230   24.4640 N   0  0  0  0  0  0  0  0  0  0  0  0
    4.9380   -5.3370   25.9380 S   0  0  0  0  0  0  0  0  0  0  0  0
    3.9020   -6.3380   25.9450 O   0  0  0  0  0  0  0  0  0  0  0  0
    5.9680   -5.3060   26.9410 O   0  0  0  0  0  0  0  0  0  0  0  0
    4.0900   -3.7810   26.0290 C   0  0  0  0  0  0  0  0  0  0  0  0
    4.5150   -2.3530   25.8110 C   0  0  0  0  0  0  0  0  0  0  0  0
    3.4360   -1.3350   26.0150 C   0  0  0  0  0  0  0  0  0  0  0  0
    2.2340   -1.9650   26.3760 C   0  0  0  0  0  0  0  0  0  0  0  0
    1.0430   -1.2790   26.6660 C   0  0  0  0  0  0  0  0  0  0  0  0
    0.1850   -1.0700   25.5880 C   0  0  0  0  0  0  0  0  0  0  0  0
   -0.8700   -1.9410   25.3350 C   0  0  0  0  0  0  0  0  0  0  0  0
   -1.7430   -1.7230   24.2750 C   0  0  0  0  0  0  0  0  0  0  0  0
   -1.5780   -0.6170   23.4370 C   0  0  0  0  0  0  0  0  0  0  0  0
   -0.5130    0.2680   23.6780 C   0  0  0  0  0  0  0  0  0  0  0  0
   -0.2890    1.3960   22.8700 C   0  0  0  0  0  0  0  0  0  0  0  0
    0.7500    2.3000   23.0640 C   0  0  0  0  0  0  0  0  0  0  0  0
    1.6500    2.1430   24.0940 C   0  0  0  0  0  0  0  0  0  0  0  0
    1.5220    1.0660   24.9540 C   0  0  0  0  0  0  0  0  0  0  0  0
    0.3840    0.0470   24.7620 C   0  0  0  0  0  0  0  0  0  0  0  0
    2.4120   -3.7100   26.4560 S   0  0  0  0  0  0  0  0  0  0  0  0
    6.4870   -4.1640   24.0110 C   0  0  0  0  0  0  0  0  0  0  0  0
    7.3580   -4.5840   22.8350 C   0  0  0  0  0  0  0  0  0  0  0  0
  1  2  1  0
  2  3  2  0
  2  4  1  0
  4  5  1  0
  5  6  1  0
  6  7  1  0
  7  8  1  0
  8  9  2  0
  8 10  2  0
  8 11  1  0
 11 12  2  0
 12 13  1  0
 13 14  2  0
 14 15  1  0
 15 16  1  0
 16 17  2  0
 17 18  1  0
 18 19  2  0
 19 20  1  0
 20 21  1  0
 21 22  2  0
 22 23  1  0
 23 24  2  0
 16 25  1  0
 20 25  2  0
 24 25  1  0
 11 26  1  0
 14 26  1  0
  7 27  1  0
  4 28  1  0
 27 28  1  0
M  END
