MAK-UNK-198e6d85-1
     RDKit          3D

 20 22  0  0  0  0  0  0  0  0999 V2000
   12.7920   -1.5870   22.2740 N   0  0  0  0  0  0  0  0  0  0  0  0
   11.6840   -2.2970   22.9530 C   0  0  0  0  0  0  0  0  0  0  0  0
   10.8660   -1.4380   23.9160 C   0  0  2  0  0  0  0  0  0  0  0  0
    9.6400   -2.1920   24.4890 O   0  0  0  0  0  0  0  0  0  0  0  0
    8.2570   -2.0200   23.9080 C   0  0  2  0  0  0  0  0  0  0  0  0
    7.4600   -3.1680   23.9130 C   0  0  1  0  0  0  0  0  0  0  0  0
    7.6020   -4.0750   22.6760 C   0  0  0  0  0  0  0  0  0  0  0  0
    7.0950   -5.3590   22.8980 C   0  0  0  0  0  0  0  0  0  0  0  0
    6.0180   -5.3600   23.9790 C   0  0  0  0  0  0  0  0  0  0  0  0
    6.5620   -5.0260   25.3040 N   0  0  0  0  0  0  0  0  0  0  0  0
    7.6290   -4.0210   25.2070 C   0  0  0  0  0  0  0  0  0  0  0  0
    8.5690   -1.4750   22.5480 C   0  0  0  0  0  0  0  0  0  0  0  0
    9.7440   -1.2270   23.1440 C   0  0  0  0  0  0  0  0  0  0  0  0
   10.4660   -0.1260   23.2850 C   0  0  0  0  0  0  0  0  0  0  0  0
   11.6200    0.4160   23.8310 C   0  0  0  0  0  0  0  0  0  0  0  0
   12.4180   -0.6510   24.5930 C   0  0  0  0  0  0  0  0  0  0  0  0
   11.8480   -2.0920   24.6200 C   0  0  0  0  0  0  0  0  0  0  0  0
   12.5530   -3.0690   25.2920 O   0  0  0  0  0  0  0  0  0  0  0  0
   10.5000   -2.3620   23.8800 C   0  0  0  0  0  0  0  0  0  0  0  0
    9.9130   -3.6090   23.8460 O   0  0  0  0  0  0  0  0  0  0  0  0
  1  2  1  0
  3  2  1  6
  3  4  1  0
  4  5  1  0
  5  6  1  0
  6  7  1  6
  7  8  1  0
  8  9  1  0
  9 10  1  0
  6 11  1  0
 10 11  1  0
  5 12  1  6
 12 13  1  0
  3 14  1  0
 13 14  2  0
 14 15  1  0
 15 16  2  0
 16 17  1  0
 17 18  1  0
 13 19  1  0
 17 19  2  0
 19 20  1  0
M  END
