MAK-UNK-a7992eb3-5-chloroacetamide
     RDKit          3D

 33 36  0  0  0  0  0  0  0  0999 V2000
    6.9070   -3.4110   19.6550 C   0  0  0  0  0  0  0  0  0  0  0  0
    6.2350   -4.5040   20.4450 C   0  0  0  0  0  0  0  0  0  0  0  0
    5.2800   -5.1040   20.0020 O   0  0  0  0  0  0  0  0  0  0  0  0
    6.7530   -4.8780   21.6770 N   0  0  0  0  0  0  0  0  0  0  0  0
    6.2850   -6.0860   22.3340 C   0  0  0  0  0  0  0  0  0  0  0  0
    5.2480   -5.9310   23.2230 C   0  0  0  0  0  0  0  0  0  0  0  0
    5.4290   -4.8000   24.0050 C   0  0  0  0  0  0  0  0  0  0  0  0
    5.0740   -4.9380   25.3480 C   0  0  0  0  0  0  0  0  0  0  0  0
    5.8520   -5.4300   26.1630 O   0  0  0  0  0  0  0  0  0  0  0  0
    3.8220   -4.5360   25.8150 N   0  0  0  0  0  0  0  0  0  0  0  0
    3.6650   -3.0870   26.0950 C   0  0  0  0  0  0  0  0  0  0  0  0
    2.7480   -1.8540   26.1710 C   0  0  0  0  0  0  0  0  0  0  0  0
    1.2300   -2.0460   25.8130 C   0  0  0  0  0  0  0  0  0  0  0  0
    0.7010   -3.4560   25.4040 C   0  0  0  0  0  0  0  0  0  0  0  0
    1.6530   -4.6650   25.3370 C   0  0  0  0  0  0  0  0  0  0  0  0
    2.3390   -3.3790   25.7730 C   0  0  0  0  0  0  0  0  0  0  0  0
    1.5690   -2.4130   25.8730 O   0  0  0  0  0  0  0  0  0  0  0  0
    0.7220   -2.3310   27.0760 C   0  0  2  0  0  0  0  0  0  0  0  0
   -0.6610   -1.7770   26.6430 C   0  0  0  0  0  0  0  0  0  0  0  0
   -0.8190   -0.4960   27.1830 C   0  0  0  0  0  0  0  0  0  0  0  0
   -0.7870   -0.5200   28.5840 C   0  0  0  0  0  0  0  0  0  0  0  0
    0.2690   -1.1450   29.1510 N   0  0  0  0  0  0  0  0  0  0  0  0
    0.0290   -2.2230   29.9480 C   0  0  0  0  0  0  0  0  0  0  0  0
   -1.2850   -2.6640   29.8360 C   0  0  0  0  0  0  0  0  0  0  0  0
   -2.2520   -2.1910   30.7510 C   0  0  0  0  0  0  0  0  0  0  0  0
   -3.5850   -2.6120   30.6720 C   0  0  0  0  0  0  0  0  0  0  0  0
   -3.9460   -3.5110   29.6720 C   0  0  0  0  0  0  0  0  0  0  0  0
   -2.9900   -3.9710   28.7790 C   0  0  0  0  0  0  0  0  0  0  0  0
   -1.6590   -3.5750   28.8260 C   0  0  0  0  0  0  0  0  0  0  0  0
    1.3090   -1.3700   28.1640 C   0  0  1  0  0  0  0  0  0  0  0  0
    2.3750   -1.9800   28.8280 C   0  0  0  0  0  0  0  0  0  0  0  0
    6.8680   -4.2660   23.8640 C   0  0  0  0  0  0  0  0  0  0  0  0
    7.1270   -3.8860   22.5360 C   0  0  0  0  0  0  0  0  0  0  0  0
  1  2  1  0
  2  3  2  0
  2  4  1  0
  4  5  1  0
  5  6  1  0
  6  7  1  0
  7  8  1  0
  8  9  2  0
  8 10  1  0
 10 11  1  0
 11 12  2  0
 12 13  1  0
 13 14  2  0
 14 15  1  0
 11 16  1  0
 15 16  2  0
 16 17  1  0
 18 17  1  6
 18 19  1  0
 19 20  1  0
 20 21  1  0
 21 22  1  0
 22 23  1  0
 23 24  1  0
 24 25  2  0
 25 26  1  0
 26 27  2  0
 27 28  1  0
 24 29  1  0
 28 29  2  0
 18 30  1  0
 22 30  1  0
 30 31  1  1
  7 32  1  0
  4 33  1  0
 32 33  1  0
M  END
