MAK-UNK-90d0606b-3-acrylamide
     RDKit          3D

 24 26  0  0  0  0  0  0  0  0999 V2000
    7.9390   -3.3650   19.1510 C   0  0  0  0  0  0  0  0  0  0  0  0
    6.7640   -2.4480   18.9320 C   0  0  0  0  0  0  0  0  0  0  0  0
    5.8160   -2.7640   20.0250 C   0  0  0  0  0  0  0  0  0  0  0  0
    4.9460   -3.5970   19.7560 O   0  0  0  0  0  0  0  0  0  0  0  0
    6.0120   -2.1880   21.2560 N   0  0  0  0  0  0  0  0  0  0  0  0
    6.1500   -3.0590   22.4080 C   0  0  0  0  0  0  0  0  0  0  0  0
    7.6820   -3.0410   22.3730 C   0  0  1  0  0  0  0  0  0  0  0  0
    7.8670   -2.0950   21.1750 C   0  0  0  0  0  0  0  0  0  0  0  0
    6.8780   -1.0260   21.6580 C   0  0  2  0  0  0  0  0  0  0  0  0
    8.2640   -0.9310   22.3960 C   0  0  0  0  0  0  0  0  0  0  0  0
    8.2150   -2.0890   23.3230 N   0  0  0  0  0  0  0  0  0  0  0  0
    9.4600   -2.4830   23.9280 C   0  0  2  0  0  0  0  0  0  0  0  0
    9.3910   -2.6960   25.3760 C   0  0  0  0  0  0  0  0  0  0  0  0
    8.4760   -3.7960   25.7030 N   0  0  0  0  0  0  0  0  0  0  0  0
    9.1690   -5.1600   26.3580 S   0  0  0  0  0  0  0  0  0  0  0  0
    9.3140   -4.7740   28.0800 C   0  0  0  0  0  0  0  0  0  0  0  0
    8.1570   -6.1670   26.2330 O   0  0  0  0  0  0  0  0  0  0  0  0
   10.4870   -5.2850   25.7950 O   0  0  0  0  0  0  0  0  0  0  0  0
   10.5910   -1.4680   23.6360 C   0  0  0  0  0  0  0  0  0  0  0  0
   11.6130   -1.8130   22.8230 C   0  0  0  0  0  0  0  0  0  0  0  0
   12.7090   -0.8850   22.5240 C   0  0  0  0  0  0  0  0  0  0  0  0
   12.6950    0.3860   23.0920 C   0  0  0  0  0  0  0  0  0  0  0  0
   11.6320    0.7400   23.9310 C   0  0  0  0  0  0  0  0  0  0  0  0
   10.5950   -0.1730   24.2000 C   0  0  0  0  0  0  0  0  0  0  0  0
  1  2  1  0
  2  3  1  0
  3  4  2  0
  3  5  1  0
  5  6  1  0
  7  6  1  1
  7  8  1  0
  5  9  1  0
  8  9  1  0
  9 10  1  1
  7 11  1  0
 10 11  1  0
 11 12  1  0
 12 13  1  1
 13 14  1  0
 15 14  1  0
 15 16  1  0
 15 17  2  0
 15 18  2  0
 12 19  1  0
 19 20  2  0
 20 21  1  0
 21 22  2  0
 22 23  1  0
 19 24  1  0
 23 24  2  0
M  END
