MAK-UNK-af83ef51-27-chloroacetamide
     RDKit          3D

 28 30  0  0  0  0  0  0  0  0999 V2000
    7.1780   -2.9700   18.7530 C   0  0  0  0  0  0  0  0  0  0  0  0
    6.2560   -3.2680   19.8900 C   0  0  0  0  0  0  0  0  0  0  0  0
    5.4050   -4.1530   19.7590 O   0  0  0  0  0  0  0  0  0  0  0  0
    6.4980   -2.4860   21.0140 N   0  0  0  0  0  0  0  0  0  0  0  0
    7.3700   -1.3540   21.0760 C   0  0  0  0  0  0  0  0  0  0  0  0
    8.5770   -1.5500   21.7530 C   0  0  0  0  0  0  0  0  0  0  0  0
    8.3860   -2.0740   23.1250 N   0  0  0  0  0  0  0  0  0  0  0  0
    9.6950   -2.3310   23.7850 C   0  0  0  0  0  0  0  0  0  0  0  0
   10.5890   -1.2680   23.6800 C   0  0  0  0  0  0  0  0  0  0  0  0
   10.1180    0.0110   23.8090 C   0  0  0  0  0  0  0  0  0  0  0  0
   11.0830    1.1380   23.6780 C   0  0  0  0  0  0  0  0  0  0  0  0
   10.5110    2.5330   23.8130 C   0  0  0  0  0  0  0  0  0  0  0  0
   10.1380    2.9720   22.4790 N   0  0  0  0  0  0  0  0  0  0  0  0
    8.8550    3.6510   22.4430 C   0  0  0  0  0  0  0  0  0  0  0  0
    8.8750    5.1130   22.7560 C   0  0  0  0  0  0  0  0  0  0  0  0
    7.7560    5.8990   22.7550 C   0  0  0  0  0  0  0  0  0  0  0  0
    6.4430    5.4410   22.4640 C   0  0  0  0  0  0  0  0  0  0  0  0
    5.3880    6.3240   22.4820 N   0  0  0  0  0  0  0  0  0  0  0  0
    5.3620    7.3540   21.4780 C   0  0  0  0  0  0  0  0  0  0  0  0
    6.7530    7.5410   20.8690 C   0  0  0  0  0  0  0  0  0  0  0  0
    6.4000    3.9790   22.1570 N   0  0  0  0  0  0  0  0  0  0  0  0
    7.5670    3.1820   22.1590 C   0  0  0  0  0  0  0  0  0  0  0  0
   12.4000    0.8600   23.4360 C   0  0  0  0  0  0  0  0  0  0  0  0
   12.9000   -0.3940   23.3130 N   0  0  0  0  0  0  0  0  0  0  0  0
   11.9760   -1.4100   23.4430 C   0  0  0  0  0  0  0  0  0  0  0  0
   12.6290   -2.7250   23.3060 C   0  0  0  0  0  0  0  0  0  0  0  0
    7.5110   -3.2560   23.1440 C   0  0  0  0  0  0  0  0  0  0  0  0
    6.2070   -3.0730   22.3250 C   0  0  0  0  0  0  0  0  0  0  0  0
  1  2  1  0
  2  3  2  0
  2  4  1  0
  4  5  1  0
  5  6  1  0
  6  7  1  0
  7  8  1  0
  8  9  1  0
  9 10  2  0
 10 11  1  0
 11 12  1  0
 12 13  1  0
 13 14  1  0
 14 15  2  0
 15 16  1  0
 16 17  2  0
 17 18  1  0
 18 19  1  0
 19 20  1  0
 17 21  1  0
 14 22  1  0
 21 22  2  0
 11 23  2  0
 23 24  1  0
  9 25  1  0
 24 25  2  0
 25 26  1  0
  7 27  1  0
  4 28  1  0
 27 28  1  0
M  END
