MAK-UNK-10dfa458-12-chloroacetamide
     RDKit          3D

 21 22  0  0  0  0  0  0  0  0999 V2000
    7.0870   -3.3250   19.8330 C   0  0  0  0  0  0  0  0  0  0  0  0
    6.0700   -4.2300   20.5430 C   0  0  0  0  0  0  0  0  0  0  0  0
    5.1880   -4.7390   19.9000 O   0  0  0  0  0  0  0  0  0  0  0  0
    6.0710   -4.4990   21.8930 N   0  0  0  0  0  0  0  0  0  0  0  0
    6.9900   -3.8860   22.8640 C   0  0  0  0  0  0  0  0  0  0  0  0
    6.5350   -4.3640   24.2960 C   0  0  0  0  0  0  0  0  0  0  0  0
    4.9840   -4.4900   24.1860 C   0  0  2  0  0  0  0  0  0  0  0  0
    4.6020   -4.7890   25.6480 C   0  0  0  0  0  0  0  0  0  0  0  0
    3.3930   -3.8400   25.6130 C   0  0  0  0  0  0  0  0  0  0  0  0
    3.8490   -2.3560   25.9210 C   0  0  0  0  0  0  0  0  0  0  0  0
    2.7660   -1.2200   25.9450 C   0  0  0  0  0  0  0  0  0  0  0  0
    1.3250   -1.6420   25.6640 C   0  0  0  0  0  0  0  0  0  0  0  0
    1.3090   -2.9970   25.4380 C   0  0  0  0  0  0  0  0  0  0  0  0
    2.6180   -2.6530   25.6760 C   0  0  0  0  0  0  0  0  0  0  0  0
    2.0420   -4.1370   25.3580 C   0  0  0  0  0  0  0  0  0  0  0  0
    4.5920   -5.6730   23.3070 C   0  0  0  0  0  0  0  0  0  0  0  0
    5.5590   -5.7990   22.3190 C   0  0  2  0  0  0  0  0  0  0  0  0
    6.7030   -6.5090   22.5580 C   0  0  0  0  0  0  0  0  0  0  0  0
    7.4930   -6.6290   21.6840 O   0  0  0  0  0  0  0  0  0  0  0  0
    6.8850   -7.0030   23.8730 O   0  0  0  0  0  0  0  0  0  0  0  0
    8.2980   -7.0410   24.0730 C   0  0  0  0  0  0  0  0  0  0  0  0
  1  2  1  0
  2  3  2  0
  2  4  1  0
  4  5  1  0
  5  6  1  0
  6  7  1  0
  7  8  1  1
  8  9  1  0
  9 10  2  0
 10 11  1  0
 11 12  2  0
 12 13  1  0
 13 14  1  0
  9 15  1  0
 13 15  2  0
  7 16  1  0
  4 17  1  0
 16 17  1  0
 17 18  1  1
 18 19  2  0
 18 20  1  0
 20 21  1  0
M  END
