MAK-UNK-ec98eaf6-15-nitrile
     RDKit          3D

 28 31  0  0  0  0  0  0  0  0999 V2000
    7.9730   -3.5270   19.5700 C   0  0  0  0  0  0  0  0  0  0  0  0
    6.9040   -3.5250   18.8410 N   0  0  0  0  0  0  0  0  0  0  0  0
    7.7960   -3.0100   20.7970 N   0  0  0  0  0  0  0  0  0  0  0  0
    6.6640   -3.3670   21.7260 C   0  0  0  0  0  0  0  0  0  0  0  0
    7.4740   -3.3690   23.0340 C   0  0  1  0  0  0  0  0  0  0  0  0
    8.9320   -3.4350   22.6270 C   0  0  0  0  0  0  0  0  0  0  0  0
    8.8350   -2.3230   21.6120 C   0  0  2  0  0  0  0  0  0  0  0  0
    8.1270   -1.2110   22.3360 C   0  0  0  0  0  0  0  0  0  0  0  0
    7.6580   -1.9760   23.5510 N   0  0  0  0  0  0  0  0  0  0  0  0
    8.6590   -1.9270   24.6080 C   0  0  2  0  0  0  0  0  0  0  0  0
   10.0030   -1.4040   23.9930 C   0  0  0  0  0  0  0  0  0  0  0  0
   10.1910   -0.0240   24.6290 C   0  0  0  0  0  0  0  0  0  0  0  0
   11.4490    0.7840   24.1710 C   0  0  0  0  0  0  0  0  0  0  0  0
   12.4010    0.2280   23.1810 C   0  0  0  0  0  0  0  0  0  0  0  0
   12.1420   -1.1040   22.6280 C   0  0  0  0  0  0  0  0  0  0  0  0
   13.2630   -1.6310   21.4980 Cl  0  0  0  0  0  0  0  0  0  0  0  0
   10.9320   -1.9070   23.0560 C   0  0  0  0  0  0  0  0  0  0  0  0
    8.6150   -3.2380   25.4550 C   0  0  0  0  0  0  0  0  0  0  0  0
    7.7030   -3.2230   26.6820 C   0  0  0  0  0  0  0  0  0  0  0  0
    7.5950   -4.4530   27.5760 C   0  0  0  0  0  0  0  0  0  0  0  0
    6.6530   -4.3290   28.7710 C   0  0  0  0  0  0  0  0  0  0  0  0
    6.0900   -3.0100   28.9900 N   0  0  0  0  0  0  0  0  0  0  0  0
    8.3290   -5.5680   27.2630 C   0  0  0  0  0  0  0  0  0  0  0  0
    9.1400   -5.5860   26.1560 N   0  0  0  0  0  0  0  0  0  0  0  0
    9.2960   -4.4610   25.2330 C   0  0  0  0  0  0  0  0  0  0  0  0
   10.1090   -4.6460   24.1510 N   0  0  0  0  0  0  0  0  0  0  0  0
    9.6340   -5.6660   23.1860 C   0  0  0  0  0  0  0  0  0  0  0  0
    8.1800   -5.9950   23.2970 C   0  0  0  0  0  0  0  0  0  0  0  0
  1  2  2  3
  1  3  1  0
  3  4  1  0
  5  4  1  6
  5  6  1  0
  3  7  1  0
  6  7  1  0
  7  8  1  1
  5  9  1  0
  8  9  1  0
  9 10  1  0
 10 11  1  6
 11 12  2  0
 12 13  1  0
 13 14  2  0
 14 15  1  0
 15 16  1  0
 11 17  1  0
 15 17  2  0
 10 18  1  0
 18 19  2  0
 19 20  1  0
 20 21  1  0
 21 22  3  0
 20 23  2  0
 23 24  1  0
 18 25  1  0
 24 25  2  0
 25 26  1  0
 26 27  1  0
 27 28  1  0
M  END
