MAK-UNK-516d8086-21-chloroacetamide
     RDKit          3D

 23 25  0  0  0  0  0  0  0  0999 V2000
    8.9660   -4.6470   20.3880 C   0  0  0  0  0  0  0  0  0  0  0  0
    7.5860   -5.0060   20.9140 C   0  0  0  0  0  0  0  0  0  0  0  0
    6.5810   -5.1840   20.0800 O   0  0  0  0  0  0  0  0  0  0  0  0
    7.5070   -5.0870   22.5030 C   0  0  0  0  0  0  0  0  0  0  0  0
    6.2300   -5.6980   23.0390 C   0  0  0  0  0  0  0  0  0  0  0  0
    5.9940   -5.8530   24.3620 N   0  0  0  0  0  0  0  0  0  0  0  0
    6.9480   -5.4510   25.2520 C   0  0  0  0  0  0  0  0  0  0  0  0
    6.8760   -5.5860   26.7390 N   0  0  0  0  0  0  0  0  0  0  0  0
    5.8770   -4.9660   27.3880 C   0  0  0  0  0  0  0  0  0  0  0  0
    6.4280   -3.6290   27.8850 C   0  0  0  0  0  0  0  0  0  0  0  0
    8.2890   -4.7940   24.8510 C   0  0  0  0  0  0  0  0  0  0  0  0
    9.2990   -4.3440   25.9780 C   0  0  0  0  0  0  0  0  0  0  0  0
   10.6840   -4.4940   25.7550 C   0  0  0  0  0  0  0  0  0  0  0  0
   11.7530   -3.5340   25.0620 C   0  0  0  0  0  0  0  0  0  0  0  0
   11.7580   -2.1030   24.3830 N   0  0  0  0  0  0  0  0  0  0  0  0
   10.3450   -1.4540   24.4730 C   0  0  0  0  0  0  0  0  0  0  0  0
   11.0470   -2.3880   24.7050 C   0  0  0  0  0  0  0  0  0  0  0  0
   11.0970   -3.4760   25.1890 C   0  0  0  0  0  0  0  0  0  0  0  0
   12.3130   -2.1810   24.2190 C   0  0  0  0  0  0  0  0  0  0  0  0
   13.3060   -1.8820   23.6400 O   0  0  0  0  0  0  0  0  0  0  0  0
   11.5720   -1.4160   23.2450 N   0  0  0  0  0  0  0  0  0  0  0  0
   10.7270   -0.3870   23.8350 C   0  0  0  0  0  0  0  0  0  0  0  0
    8.4960   -4.6500   23.4380 C   0  0  0  0  0  0  0  0  0  0  0  0
  1  2  1  0
  2  3  2  0
  2  4  1  0
  4  5  2  0
  5  6  1  0
  6  7  2  0
  7  8  1  0
  8  9  1  0
  9 10  1  0
  7 11  1  0
 11 12  1  0
 12 13  1  0
 13 14  2  0
 14 15  1  0
 15 16  2  0
 16 17  1  0
 13 18  1  0
 17 18  2  0
 17 19  1  0
 19 20  2  0
 19 21  1  0
 16 22  1  0
 21 22  1  0
  4 23  1  0
 11 23  2  0
M  END
