MAK-UNK-6c8f5f75-6-vinylsulfonamide
     RDKit          3D

 12 12  0  0  0  0  0  0  0  0999 V2000
    7.3060   -2.9880   18.9190 C   0  0  0  0  0  0  0  0  0  0  0  0
    6.1630   -3.5430   19.7660 C   0  0  0  0  0  0  0  0  0  0  0  0
    6.3900   -3.8610   21.4690 S   0  0  0  0  0  0  0  0  0  0  0  0
    4.9420   -3.8040   21.8560 O   0  0  0  0  0  0  0  0  0  0  0  0
    7.0700   -5.1300   21.5870 O   0  0  0  0  0  0  0  0  0  0  0  0
    7.5190   -2.6830   22.1400 N   0  0  0  0  0  0  0  0  0  0  0  0
    8.3870   -1.9090   21.2490 C   0  0  0  0  0  0  0  0  0  0  0  0
    9.7950   -1.6560   21.7690 C   0  0  0  0  0  0  0  0  0  0  0  0
   10.0440   -2.2500   23.1340 C   0  0  0  0  0  0  0  0  0  0  0  0
    8.4050   -2.9650   23.5500 S   0  0  0  0  0  0  0  0  0  0  0  0
    7.8250   -2.1670   24.6000 O   0  0  0  0  0  0  0  0  0  0  0  0
    8.5520   -4.3930   23.7190 O   0  0  0  0  0  0  0  0  0  0  0  0
  1  2  1  0
  3  2  1  0
  3  4  2  0
  3  5  2  0
  3  6  1  0
  6  7  1  0
  7  8  2  0
  8  9  1  0
 10  6  1  0
  9 10  1  0
 10 11  2  0
 10 12  2  0
M  END
