MAK-UNK-8fdbca50-32
     RDKit          3D

 40 43  0  0  0  0  0  0  0  0999 V2000
    8.2590   -2.0430   20.9970 C   0  0  0  0  0  0  0  0  0  0  0  0
    8.3300   -3.1230   22.0470 C   0  0  0  0  0  0  0  0  0  0  0  0
    7.4270   -4.1850   21.9310 C   0  0  0  0  0  0  0  0  0  0  0  0
    9.7000   -3.5720   22.3380 N   0  0  0  0  0  0  0  0  0  0  0  0
    9.6710   -4.9200   22.9150 C   0  0  0  0  0  0  0  0  0  0  0  0
   10.7860   -2.8260   22.7360 C   0  0  0  0  0  0  0  0  0  0  0  0
   11.5010   -3.2980   23.6230 O   0  0  0  0  0  0  0  0  0  0  0  0
   11.2160   -1.5040   22.2130 C   0  0  0  0  0  0  0  0  0  0  0  0
   12.5350   -0.9810   22.6320 C   0  0  0  0  0  0  0  0  0  0  0  0
   12.5660   -0.2000   23.7620 C   0  0  0  0  0  0  0  0  0  0  0  0
   11.4070   -0.1020   24.4310 N   0  0  0  0  0  0  0  0  0  0  0  0
   10.9570   -1.2840   24.7760 C   0  0  0  0  0  0  0  0  0  0  0  0
   11.7210   -2.0970   25.2510 O   0  0  0  0  0  0  0  0  0  0  0  0
    9.4670   -1.5410   24.4580 C   0  0  0  0  0  0  0  0  0  0  0  0
    8.4060   -0.8600   25.3690 C   0  0  0  0  0  0  0  0  0  0  0  0
    7.2960   -1.6490   25.7580 N   0  0  0  0  0  0  0  0  0  0  0  0
    6.0980   -1.1590   26.3100 C   0  0  0  0  0  0  0  0  0  0  0  0
    6.1250   -0.7530   27.7950 C   0  0  0  0  0  0  0  0  0  0  0  0
    7.1760   -0.1950   28.4560 C   0  0  0  0  0  0  0  0  0  0  0  0
    6.8890    0.1000   29.8550 C   0  0  0  0  0  0  0  0  0  0  0  0
    7.8860    0.6990   30.6520 C   0  0  0  0  0  0  0  0  0  0  0  0
    9.1060    0.0430   30.8070 C   0  0  0  0  0  0  0  0  0  0  0  0
   10.1450    0.5900   31.5780 C   0  0  0  0  0  0  0  0  0  0  0  0
   10.0250    1.8140   32.2320 C   0  0  0  0  0  0  0  0  0  0  0  0
    8.8370    2.5370   32.1250 C   0  0  0  0  0  0  0  0  0  0  0  0
    7.7090    1.9360   31.2810 C   0  0  0  0  0  0  0  0  0  0  0  0
    6.5640    2.6200   31.1550 F   0  0  0  0  0  0  0  0  0  0  0  0
    5.5850   -0.3170   30.0770 N   0  0  0  0  0  0  0  0  0  0  0  0
    4.5500   -0.2980   31.4750 S   0  0  0  0  0  0  0  0  0  0  0  0
    3.3470    0.4120   31.0920 O   0  0  0  0  0  0  0  0  0  0  0  0
    4.4400   -1.6600   31.9630 O   0  0  0  0  0  0  0  0  0  0  0  0
    5.3010    0.6770   32.7420 C   0  0  0  0  0  0  0  0  0  0  0  0
    5.3390    2.0560   32.6190 C   0  0  0  0  0  0  0  0  0  0  0  0
    5.9960    2.8490   33.7440 C   0  0  0  0  0  0  0  0  0  0  0  0
    6.5410    2.0240   34.8950 C   0  0  0  0  0  0  0  0  0  0  0  0
    6.4470    0.6770   34.9200 N   0  0  0  0  0  0  0  0  0  0  0  0
    5.8430    0.0470   33.8650 C   0  0  0  0  0  0  0  0  0  0  0  0
    5.1220   -0.8360   28.8200 C   0  0  0  0  0  0  0  0  0  0  0  0
   10.4260    0.5480   23.6540 C   0  0  0  0  0  0  0  0  0  0  0  0
   10.1220   -0.4100   22.4910 C   0  0  0  0  0  0  0  0  0  0  0  0
  1  2  1  0
  2  3  1  0
  2  4  1  0
  4  5  1  0
  4  6  1  0
  6  7  2  0
  6  8  1  0
  8  9  1  0
  9 10  1  0
 10 11  1  0
 11 12  1  0
 12 13  2  0
 12 14  1  0
 14 15  1  0
 15 16  1  0
 16 17  1  0
 17 18  1  0
 18 19  1  0
 19 20  2  0
 20 21  1  0
 21 22  2  0
 22 23  1  0
 23 24  2  0
 24 25  1  0
 21 26  1  0
 25 26  2  0
 26 27  1  0
 20 28  1  0
 28 29  1  0
 29 30  2  0
 29 31  2  0
 29 32  1  0
 32 33  2  0
 33 34  1  0
 34 35  2  0
 35 36  1  0
 32 37  1  0
 36 37  2  0
 18 38  2  0
 28 38  1  0
 11 39  1  0
  8 40  1  0
 39 40  1  0
M  END
