MAK-UNK-8fdbca50-11-vinylsulfonamide
     RDKit          3D

 41 44  0  0  0  0  0  0  0  0999 V2000
    8.8240   -3.9220   20.1640 C   0  0  0  0  0  0  0  0  0  0  0  0
    7.7010   -4.4630   21.0750 C   0  0  0  0  0  0  0  0  0  0  0  0
    6.0730   -3.8470   20.6160 S   0  0  0  0  0  0  0  0  0  0  0  0
    5.1940   -4.8830   20.1170 O   0  0  0  0  0  0  0  0  0  0  0  0
    5.6140   -3.0500   21.7290 O   0  0  0  0  0  0  0  0  0  0  0  0
    6.2570   -2.8160   19.3410 N   0  0  0  0  0  0  0  0  0  0  0  0
    7.4830   -2.1260   18.9690 C   0  0  0  0  0  0  0  0  0  0  0  0
    6.9950   -0.6510   18.9480 C   0  0  0  0  0  0  0  0  0  0  0  0
    6.5550   -0.6820   20.4190 C   0  0  0  0  0  0  0  0  0  0  0  0
    6.9600    0.6510   20.9900 C   0  0  0  0  0  0  0  0  0  0  0  0
    6.6330    1.8720   20.4540 O   0  0  0  0  0  0  0  0  0  0  0  0
    7.7450    0.3820   22.1840 N   0  0  0  0  0  0  0  0  0  0  0  0
    9.1400    0.8970   22.1530 C   0  0  0  0  0  0  0  0  0  0  0  0
    7.6310   -0.9110   22.9220 C   0  0  2  0  0  0  0  0  0  0  0  0
    6.7700   -0.7390   24.1620 C   0  0  0  0  0  0  0  0  0  0  0  0
    8.8630   -1.5890   22.9930 C   0  0  0  0  0  0  0  0  0  0  0  0
    9.0050   -2.9380   23.4570 C   0  0  0  0  0  0  0  0  0  0  0  0
    9.5240   -3.8820   22.5640 C   0  0  0  0  0  0  0  0  0  0  0  0
    9.6950   -5.2420   22.9630 C   0  0  0  0  0  0  0  0  0  0  0  0
    9.3730   -5.6610   24.2200 C   0  0  0  0  0  0  0  0  0  0  0  0
    8.8670   -4.7400   25.0920 C   0  0  0  0  0  0  0  0  0  0  0  0
    8.6670   -3.3960   24.7600 C   0  0  0  0  0  0  0  0  0  0  0  0
    8.1500   -2.6250   25.7620 C   0  0  0  0  0  0  0  0  0  0  0  0
    7.2330   -2.9320   26.7110 C   0  0  0  0  0  0  0  0  0  0  0  0
    6.9360   -1.9070   27.6120 C   0  0  0  0  0  0  0  0  0  0  0  0
    6.0120   -2.0320   28.6830 C   0  0  0  0  0  0  0  0  0  0  0  0
    5.5020   -3.4050   28.7310 N   0  0  0  0  0  0  0  0  0  0  0  0
    6.5920   -4.4200   28.7710 C   0  0  0  0  0  0  0  0  0  0  0  0
    7.7430   -0.8200   27.1970 C   0  0  0  0  0  0  0  0  0  0  0  0
    8.4430   -1.2770   26.1050 N   0  0  0  0  0  0  0  0  0  0  0  0
    9.5670   -0.3160   25.2660 S   0  0  0  0  0  0  0  0  0  0  0  0
   10.5570   -0.3090   26.2670 O   0  0  0  0  0  0  0  0  0  0  0  0
    8.8950    0.8900   24.8160 O   0  0  0  0  0  0  0  0  0  0  0  0
   10.2400   -1.2320   23.9130 C   0  0  0  0  0  0  0  0  0  0  0  0
   11.2240   -1.6350   22.7330 C   0  0  0  0  0  0  0  0  0  0  0  0
   12.5020   -0.8180   22.3310 C   0  0  0  0  0  0  0  0  0  0  0  0
   12.8530    0.4780   23.0800 C   0  0  0  0  0  0  0  0  0  0  0  0
   12.0000    0.7910   24.0420 N   0  0  0  0  0  0  0  0  0  0  0  0
   11.1880   -0.2500   23.8940 C   0  0  0  0  0  0  0  0  0  0  0  0
    5.0840   -0.9400   20.3510 C   0  0  0  0  0  0  0  0  0  0  0  0
    5.0750   -2.0090   19.2440 C   0  0  0  0  0  0  0  0  0  0  0  0
  1  2  1  0
  3  2  1  0
  3  4  2  0
  3  5  2  0
  3  6  1  0
  6  7  1  0
  7  8  1  0
  8  9  1  0
  9 10  1  0
 10 11  2  0
 10 12  1  0
 12 13  1  0
 12 14  1  0
 14 15  1  1
 14 16  1  0
 16 17  1  0
 17 18  2  0
 18 19  1  0
 19 20  2  0
 20 21  1  0
 17 22  1  0
 21 22  2  0
 22 23  1  0
 23 24  2  0
 24 25  1  0
 25 26  1  0
 26 27  1  0
 27 28  1  0
 25 29  2  0
 23 30  1  0
 29 30  1  0
 30 31  1  0
 31 32  2  0
 31 33  2  0
 31 34  1  0
 34 35  2  0
 35 36  1  0
 36 37  2  0
 37 38  1  0
 34 39  1  0
 38 39  2  0
  9 40  1  0
  6 41  1  0
 40 41  1  0
M  END
