MAK-UNK-8fdbca50-12-acrylamide
     RDKit          3D

 40 43  0  0  0  0  0  0  0  0999 V2000
    8.4190   -3.7330   20.1690 C   0  0  0  0  0  0  0  0  0  0  0  0
    7.3050   -4.2900   21.1480 C   0  0  0  0  0  0  0  0  0  0  0  0
    5.9900   -3.4300   21.2610 C   0  0  0  0  0  0  0  0  0  0  0  0
    5.3550   -4.3300   20.6600 O   0  0  0  0  0  0  0  0  0  0  0  0
    6.8720   -2.5650   21.9110 N   0  0  0  0  0  0  0  0  0  0  0  0
    6.4790   -1.6800   22.8870 C   0  0  0  0  0  0  0  0  0  0  0  0
    6.2260   -0.2620   22.3980 C   0  0  0  0  0  0  0  0  0  0  0  0
    7.6190    0.3050   22.1570 C   0  0  0  0  0  0  0  0  0  0  0  0
    7.5530    1.1830   20.8970 C   0  0  0  0  0  0  0  0  0  0  0  0
    8.5180    1.9320   20.7800 O   0  0  0  0  0  0  0  0  0  0  0  0
    6.5450    1.1750   20.0170 N   0  0  0  0  0  0  0  0  0  0  0  0
    5.5930    2.1370   20.3100 C   0  0  0  0  0  0  0  0  0  0  0  0
    6.6640    0.9520   18.6390 C   0  0  2  0  0  0  0  0  0  0  0  0
    5.7410    1.2040   17.6670 C   0  0  0  0  0  0  0  0  0  0  0  0
    5.8960   -0.2400   18.1240 C   0  0  0  0  0  0  0  0  0  0  0  0
    6.4490   -1.5900   18.4770 C   0  0  0  0  0  0  0  0  0  0  0  0
    5.6500   -2.7230   18.0630 C   0  0  0  0  0  0  0  0  0  0  0  0
    5.1230   -1.5980   17.6490 C   0  0  0  0  0  0  0  0  0  0  0  0
    3.9000   -1.2520   16.9100 C   0  0  0  0  0  0  0  0  0  0  0  0
    1.6200   -2.5530   15.8500 C   0  0  0  0  0  0  0  0  0  0  0  0
    0.6180   -3.3690   16.3710 C   0  0  0  0  0  0  0  0  0  0  0  0
   -0.4260   -3.6140   15.6360 C   0  0  0  0  0  0  0  0  0  0  0  0
   -1.5630   -4.2720   16.0740 C   0  0  0  0  0  0  0  0  0  0  0  0
   -2.4270   -4.6450   14.9380 N   0  0  0  0  0  0  0  0  0  0  0  0
   -1.7550   -4.9170   13.7610 C   0  0  0  0  0  0  0  0  0  0  0  0
   -0.1290   -3.0280   14.4370 C   0  0  0  0  0  0  0  0  0  0  0  0
    1.0920   -2.3090   14.3490 N   0  0  0  0  0  0  0  0  0  0  0  0
    0.1770   -2.3380   12.8900 S   0  0  0  0  0  0  0  0  0  0  0  0
   -0.2100   -3.7130   12.7560 O   0  0  0  0  0  0  0  0  0  0  0  0
    0.9650   -1.8010   11.8960 O   0  0  0  0  0  0  0  0  0  0  0  0
   -1.2850   -1.3480   12.9070 C   0  0  0  0  0  0  0  0  0  0  0  0
   -2.6810   -2.0920   13.1120 C   0  0  0  0  0  0  0  0  0  0  0  0
   -3.7230   -0.9620   13.0520 C   0  0  0  0  0  0  0  0  0  0  0  0
   -3.1800    0.2370   12.8580 C   0  0  0  0  0  0  0  0  0  0  0  0
   -2.1250    0.9690   12.6840 N   0  0  0  0  0  0  0  0  0  0  0  0
   -1.1170    0.0660   12.7160 C   0  0  0  0  0  0  0  0  0  0  0  0
    4.6730   -0.0180   17.3700 C   0  0  0  0  0  0  0  0  0  0  0  0
    4.5130    1.2890   17.3340 F   0  0  0  0  0  0  0  0  0  0  0  0
    8.6340   -0.8310   21.9670 C   0  0  0  0  0  0  0  0  0  0  0  0
    8.0410   -2.0180   21.2210 C   0  0  0  0  0  0  0  0  0  0  0  0
  1  2  1  0
  2  3  1  0
  3  4  2  0
  3  5  1  0
  5  6  1  0
  6  7  1  0
  7  8  1  0
  8  9  1  0
  9 10  2  0
  9 11  1  0
 11 12  1  0
 11 13  1  0
 13 14  1  6
 13 15  1  0
 15 16  2  0
 16 17  1  0
 17 18  2  0
 18 19  1  0
 19 20  1  0
 20 21  2  0
 21 22  1  0
 22 23  1  0
 23 24  1  0
 24 25  1  0
 22 26  2  0
 20 27  1  0
 26 27  1  0
 27 28  1  0
 28 29  2  0
 28 30  2  0
 28 31  1  0
 31 32  2  0
 32 33  1  0
 33 34  2  0
 34 35  1  0
 31 36  1  0
 35 36  2  0
 15 37  1  0
 19 37  2  0
 37 38  1  0
  8 39  1  0
  5 40  1  0
 39 40  1  0
M  END
