MAK-UNK-702fb7d3-13-chloroacetamide
     RDKit          3D

 42 47  0  0  0  0  0  0  0  0999 V2000
    7.7210   -4.0870   20.5210 C   0  0  0  0  0  0  0  0  0  0  0  0
    6.7390   -2.9790   20.7240 C   0  0  0  0  0  0  0  0  0  0  0  0
    6.0800   -3.4780   19.6510 O   0  0  0  0  0  0  0  0  0  0  0  0
    7.7340   -2.8520   21.7920 N   0  0  0  0  0  0  0  0  0  0  0  0
    8.4390   -1.6490   22.2910 C   0  0  0  0  0  0  0  0  0  0  0  0
    9.6500   -1.9420   22.8370 C   0  0  0  0  0  0  0  0  0  0  0  0
   10.7450   -1.1880   22.3730 C   0  0  0  0  0  0  0  0  0  0  0  0
   12.0470   -1.3860   22.8360 C   0  0  0  0  0  0  0  0  0  0  0  0
   12.3110   -2.4470   23.8630 C   0  0  0  0  0  0  0  0  0  0  0  0
   11.1150   -3.2380   24.3360 C   0  0  0  0  0  0  0  0  0  0  0  0
    9.7150   -2.9260   23.7660 C   0  0  0  0  0  0  0  0  0  0  0  0
    8.3600   -3.6140   24.1240 C   0  0  1  0  0  0  0  0  0  0  0  0
    7.3400   -2.8350   25.0230 C   0  0  0  0  0  0  0  0  0  0  0  0
    7.3570   -1.4490   24.8850 C   0  0  0  0  0  0  0  0  0  0  0  0
    6.4330   -0.5470   25.6870 C   0  0  0  0  0  0  0  0  0  0  0  0
    5.5180   -1.1590   26.6300 C   0  0  0  0  0  0  0  0  0  0  0  0
    5.5480   -2.6900   26.7350 C   0  0  0  0  0  0  0  0  0  0  0  0
    4.7360   -3.4240   27.6010 N   0  0  0  0  0  0  0  0  0  0  0  0
    5.0190   -4.7790   27.8470 C   0  0  0  0  0  0  0  0  0  0  0  0
    4.2080   -5.3980   26.8430 C   0  0  0  0  0  0  0  0  0  0  0  0
    3.4120   -6.4650   27.1780 C   0  0  0  0  0  0  0  0  0  0  0  0
    2.7690   -6.8190   26.0470 C   0  0  0  0  0  0  0  0  0  0  0  0
    1.9010   -7.8800   26.1660 C   0  0  0  0  0  0  0  0  0  0  0  0
    1.9200   -9.0250   25.1430 C   0  0  0  0  0  0  0  0  0  0  0  0
    0.9150  -10.1620   25.3610 C   0  0  0  0  0  0  0  0  0  0  0  0
    0.0850  -10.0980   26.4160 C   0  0  0  0  0  0  0  0  0  0  0  0
    0.1080   -8.9840   27.3590 C   0  0  0  0  0  0  0  0  0  0  0  0
    0.9720   -7.9510   27.2200 C   0  0  0  0  0  0  0  0  0  0  0  0
    0.9200   -6.9710   28.1370 F   0  0  0  0  0  0  0  0  0  0  0  0
    3.1050   -6.0500   24.9970 N   0  0  0  0  0  0  0  0  0  0  0  0
    2.5820   -6.0860   23.3840 S   0  0  0  0  0  0  0  0  0  0  0  0
    3.3140   -5.0210   22.7020 O   0  0  0  0  0  0  0  0  0  0  0  0
    2.7040   -7.4540   22.9530 O   0  0  0  0  0  0  0  0  0  0  0  0
    0.8820   -5.6530   23.4730 C   0  0  0  0  0  0  0  0  0  0  0  0
    0.3860   -4.8930   24.5300 C   0  0  0  0  0  0  0  0  0  0  0  0
   -0.9850   -4.5770   24.5440 C   0  0  0  0  0  0  0  0  0  0  0  0
   -1.8000   -5.0300   23.5080 C   0  0  0  0  0  0  0  0  0  0  0  0
   -1.3380   -5.7700   22.4750 N   0  0  0  0  0  0  0  0  0  0  0  0
    0.0100   -6.0720   22.4770 C   0  0  0  0  0  0  0  0  0  0  0  0
    4.0250   -5.1360   25.4800 C   0  0  0  0  0  0  0  0  0  0  0  0
    6.4310   -3.4200   25.9370 C   0  0  0  0  0  0  0  0  0  0  0  0
    7.5690   -3.8640   22.8470 C   0  0  0  0  0  0  0  0  0  0  0  0
  1  2  1  0
  2  3  2  0
  2  4  1  0
  4  5  1  0
  5  6  1  0
  6  7  1  0
  7  8  2  0
  8  9  1  0
  9 10  2  0
  6 11  2  0
 10 11  1  0
 11 12  1  0
 12 13  1  1
 13 14  2  0
 14 15  1  0
 15 16  2  0
 16 17  1  0
 17 18  1  0
 18 19  1  0
 19 20  1  0
 20 21  1  0
 21 22  2  0
 22 23  1  0
 23 24  2  0
 24 25  1  0
 25 26  2  0
 26 27  1  0
 23 28  1  0
 27 28  2  0
 28 29  1  0
 22 30  1  0
 30 31  1  0
 31 32  2  0
 31 33  2  0
 31 34  1  0
 34 35  2  0
 35 36  1  0
 36 37  2  0
 37 38  1  0
 34 39  1  0
 38 39  2  0
 20 40  2  0
 30 40  1  0
 13 41  1  0
 17 41  2  0
  4 42  1  0
 12 42  1  0
M  END
