MAK-UNK-516d8086-1-acrylamide
     RDKit          3D

 23 25  0  0  0  0  0  0  0  0999 V2000
    6.9220   -4.1600   20.3540 C   0  0  0  0  0  0  0  0  0  0  0  0
    6.7350   -2.7590   20.8920 C   0  0  0  0  0  0  0  0  0  0  0  0
    5.6120   -2.7240   21.9200 C   0  0  0  0  0  0  0  0  0  0  0  0
    5.0130   -3.2610   20.9800 O   0  0  0  0  0  0  0  0  0  0  0  0
    6.7830   -2.0620   22.7590 C   0  0  0  0  0  0  0  0  0  0  0  0
    6.4070   -1.1960   21.5300 C   0  0  0  0  0  0  0  0  0  0  0  0
    6.8550   -0.0290   21.0210 N   0  0  0  0  0  0  0  0  0  0  0  0
    7.8310    0.6160   21.6050 C   0  0  0  0  0  0  0  0  0  0  0  0
    8.2900    1.7970   21.0870 N   0  0  0  0  0  0  0  0  0  0  0  0
    8.6800    2.8430   22.0340 C   0  0  0  0  0  0  0  0  0  0  0  0
    8.3890   -0.0220   22.8530 C   0  0  0  0  0  0  0  0  0  0  0  0
    9.4390    0.5240   23.6170 C   0  0  0  0  0  0  0  0  0  0  0  0
   10.6020   -0.3010   23.7230 C   0  0  0  0  0  0  0  0  0  0  0  0
   11.8690    0.3140   23.6630 C   0  0  0  0  0  0  0  0  0  0  0  0
   12.9490   -0.5280   23.7820 C   0  0  0  0  0  0  0  0  0  0  0  0
   11.8190   -1.3170   23.8600 C   0  0  0  0  0  0  0  0  0  0  0  0
   11.7090   -2.5800   24.0150 C   0  0  0  0  0  0  0  0  0  0  0  0
   10.5390   -1.7510   23.8990 C   0  0  0  0  0  0  0  0  0  0  0  0
   10.5840   -3.4250   24.0940 C   0  0  0  0  0  0  0  0  0  0  0  0
   10.4130   -4.6100   24.3330 O   0  0  0  0  0  0  0  0  0  0  0  0
    9.7440   -2.3910   23.8190 N   0  0  0  0  0  0  0  0  0  0  0  0
   10.4330   -1.1390   23.8080 C   0  0  0  0  0  0  0  0  0  0  0  0
    7.8290   -1.2380   23.2920 C   0  0  0  0  0  0  0  0  0  0  0  0
  1  2  1  0
  2  3  1  0
  3  4  2  0
  3  5  1  0
  5  6  2  0
  6  7  1  0
  7  8  2  0
  8  9  1  0
  9 10  1  0
  8 11  1  0
 11 12  1  0
 12 13  1  0
 13 14  2  0
 14 15  1  0
 15 16  2  0
 16 17  1  0
 13 18  1  0
 17 18  2  0
 17 19  1  0
 19 20  2  0
 19 21  1  0
 16 22  1  0
 21 22  1  0
  5 23  1  0
 11 23  2  0
M  END
