MAK-UNK-af83ef51-26-nitrile
     RDKit          3D

 29 31  0  0  0  0  0  0  0  0999 V2000
    6.3360   -3.9020   19.8570 C   0  0  0  0  0  0  0  0  0  0  0  0
    5.5110   -3.3750   19.0430 N   0  0  0  0  0  0  0  0  0  0  0  0
    6.1690   -4.0390   21.2070 N   0  0  0  0  0  0  0  0  0  0  0  0
    6.6260   -5.0240   22.0990 C   0  0  0  0  0  0  0  0  0  0  0  0
    7.1430   -4.6550   23.3510 C   0  0  0  0  0  0  0  0  0  0  0  0
    7.5640   -3.2370   23.5090 N   0  0  0  0  0  0  0  0  0  0  0  0
    8.9890   -3.0280   23.1860 C   0  0  0  0  0  0  0  0  0  0  0  0
    9.4170   -1.6930   23.1210 C   0  0  2  0  0  0  0  0  0  0  0  0
   10.6590   -1.6060   22.4950 C   0  0  0  0  0  0  0  0  0  0  0  0
   11.3150   -0.4450   23.0660 N   0  0  0  0  0  0  0  0  0  0  0  0
   12.5310   -1.0220   23.6160 C   0  0  0  0  0  0  0  0  0  0  0  0
   12.8550   -0.8300   24.7850 O   0  0  0  0  0  0  0  0  0  0  0  0
   13.3550   -1.8700   22.6850 C   0  0  0  0  0  0  0  0  0  0  0  0
   13.6320   -1.1280   21.3570 C   0  0  0  0  0  0  0  0  0  0  0  0
   13.9410   -0.8360   20.2010 N   0  0  0  0  0  0  0  0  0  0  0  0
   14.8240   -0.0950   19.2550 C   0  0  0  0  0  0  0  0  0  0  0  0
   14.3680    0.1920   17.9680 C   0  0  0  0  0  0  0  0  0  0  0  0
   14.9740    0.6900   16.9940 C   0  0  0  0  0  0  0  0  0  0  0  0
   16.1980    1.0860   16.9670 C   0  0  0  0  0  0  0  0  0  0  0  0
   16.9180    1.5790   15.8060 C   0  0  0  0  0  0  0  0  0  0  0  0
   17.0210    1.3130   14.4910 N   0  0  0  0  0  0  0  0  0  0  0  0
   16.7370    0.9530   18.2030 C   0  0  0  0  0  0  0  0  0  0  0  0
   16.1040    0.4010   19.2670 N   0  0  0  0  0  0  0  0  0  0  0  0
   10.4150    0.1430   23.9040 C   0  0  0  0  0  0  0  0  0  0  0  0
    9.4190   -0.9050   24.2860 C   0  0  1  0  0  0  0  0  0  0  0  0
    8.3250   -0.4250   24.5490 O   0  0  0  0  0  0  0  0  0  0  0  0
    8.2720    0.0050   25.9070 C   0  0  0  0  0  0  0  0  0  0  0  0
    6.6780   -2.2740   22.7950 C   0  0  0  0  0  0  0  0  0  0  0  0
    5.5730   -2.9280   21.9480 C   0  0  0  0  0  0  0  0  0  0  0  0
  1  2  2  3
  1  3  1  0
  3  4  1  0
  4  5  1  0
  5  6  1  0
  6  7  1  0
  8  7  1  1
  8  9  1  0
  9 10  1  0
 10 11  1  0
 11 12  2  0
 11 13  1  0
 13 14  1  0
 14 15  1  0
 15 16  1  0
 16 17  2  0
 17 18  1  0
 18 19  2  0
 19 20  1  0
 20 21  3  0
 19 22  1  0
 16 23  1  0
 22 23  2  0
 10 24  1  0
  8 25  1  0
 24 25  1  0
 25 26  1  6
 26 27  1  0
  6 28  1  0
  3 29  1  0
 28 29  1  0
M  END
