MAK-UNK-987948f6-4-nitrile
     RDKit          3D

 13 13  0  0  0  0  0  0  0  0999 V2000
    6.1610   -4.7290   20.3070 C   0  0  0  0  0  0  0  0  0  0  0  0
    5.8340   -3.7720   19.4990 N   0  0  0  0  0  0  0  0  0  0  0  0
    5.4300   -4.9530   21.5110 N   0  0  0  0  0  0  0  0  0  0  0  0
    4.9560   -3.7560   22.2600 C   0  0  0  0  0  0  0  0  0  0  0  0
    5.7940   -3.6210   23.5300 C   0  0  0  0  0  0  0  0  0  0  0  0
    7.0830   -4.1580   23.1890 N   0  0  0  0  0  0  0  0  0  0  0  0
    7.6140   -3.3670   22.1500 C   0  0  0  0  0  0  0  0  0  0  0  0
    6.9750   -3.2360   21.1110 O   0  0  0  0  0  0  0  0  0  0  0  0
    8.8350   -2.6000   22.3130 C   0  0  0  0  0  0  0  0  0  0  0  0
    9.2130   -1.5370   21.5230 C   0  0  0  0  0  0  0  0  0  0  0  0
    9.6960   -2.9350   23.3540 C   0  0  0  0  0  0  0  0  0  0  0  0
    7.0070   -5.6270   23.0900 C   0  0  0  0  0  0  0  0  0  0  0  0
    5.7870   -5.9940   22.4760 C   0  0  0  0  0  0  0  0  0  0  0  0
  1  2  2  3
  1  3  1  0
  3  4  1  0
  4  5  1  0
  5  6  1  0
  6  7  1  0
  7  8  2  0
  7  9  1  0
  9 10  2  3
  9 11  1  0
  6 12  1  0
  3 13  1  0
 12 13  1  0
M  END
