MAK-UNK-849bee6c-22-vinylsulfonamide
     RDKit          3D

 31 33  0  0  0  0  0  0  0  0999 V2000
    7.0350   -2.8840   18.5900 C   0  0  0  0  0  0  0  0  0  0  0  0
    6.1090   -2.5170   19.7760 C   0  0  0  0  0  0  0  0  0  0  0  0
    5.8530   -3.7280   21.0500 S   0  0  0  0  0  0  0  0  0  0  0  0
    4.7070   -3.3450   21.8280 O   0  0  0  0  0  0  0  0  0  0  0  0
    5.8070   -5.0260   20.3950 O   0  0  0  0  0  0  0  0  0  0  0  0
    7.2650   -3.4230   21.9820 N   0  0  0  0  0  0  0  0  0  0  0  0
    7.6330   -2.1880   22.0240 C   0  0  0  0  0  0  0  0  0  0  0  0
    9.1400   -2.1530   22.2910 C   0  0  0  0  0  0  0  0  0  0  0  0
    9.4450   -2.5740   23.6640 N   0  0  0  0  0  0  0  0  0  0  0  0
   10.9220   -2.7010   23.9690 C   0  0  0  0  0  0  0  0  0  0  0  0
   11.8060   -1.7380   23.1580 C   0  0  0  0  0  0  0  0  0  0  0  0
   11.7380   -0.3140   23.5990 C   0  0  0  0  0  0  0  0  0  0  0  0
   12.4890    0.6100   22.9330 C   0  0  0  0  0  0  0  0  0  0  0  0
   12.3570    1.8880   23.3430 C   0  0  0  0  0  0  0  0  0  0  0  0
   13.3180    0.2630   21.8790 C   0  0  0  0  0  0  0  0  0  0  0  0
   13.4150   -1.0500   21.3770 C   0  0  0  0  0  0  0  0  0  0  0  0
   14.2550   -1.3150   20.1810 N   0  0  0  0  0  0  0  0  0  0  0  0
   15.0890   -0.5000   19.1810 C   0  0  0  0  0  0  0  0  0  0  0  0
   15.6920   -0.6870   17.9770 C   0  0  0  0  0  0  0  0  0  0  0  0
   16.2590    0.4780   17.5430 C   0  0  0  0  0  0  0  0  0  0  0  0
   16.7560    0.1120   16.4030 N   0  0  0  0  0  0  0  0  0  0  0  0
   17.0480   -1.1220   16.3260 C   0  0  0  0  0  0  0  0  0  0  0  0
   17.7590   -1.7470   17.3730 C   0  0  0  0  0  0  0  0  0  0  0  0
   16.5090    1.5130   17.6340 N   0  0  0  0  0  0  0  0  0  0  0  0
   15.9990    1.7370   18.7910 C   0  0  0  0  0  0  0  0  0  0  0  0
   16.0040    3.0020   19.4210 C   0  0  0  0  0  0  0  0  0  0  0  0
   16.0200    4.0580   19.9100 N   0  0  0  0  0  0  0  0  0  0  0  0
   15.3470    0.7220   19.4990 N   0  0  0  0  0  0  0  0  0  0  0  0
   12.6500   -2.0430   22.0470 C   0  0  0  0  0  0  0  0  0  0  0  0
    8.5040   -3.6090   24.1890 C   0  0  0  0  0  0  0  0  0  0  0  0
    7.4310   -4.1730   23.2290 C   0  0  0  0  0  0  0  0  0  0  0  0
  1  2  1  0
  3  2  1  0
  3  4  2  0
  3  5  2  0
  3  6  1  0
  6  7  1  0
  7  8  1  0
  8  9  1  0
  9 10  1  0
 10 11  1  0
 11 12  2  0
 12 13  1  0
 13 14  1  0
 13 15  2  0
 15 16  1  0
 16 17  1  0
 17 18  1  0
 18 19  2  0
 19 20  1  0
 20 21  1  0
 21 22  1  0
 22 23  1  0
 20 24  2  0
 24 25  1  0
 25 26  1  0
 26 27  3  0
 18 28  1  0
 25 28  2  0
 11 29  1  0
 16 29  2  0
  9 30  1  0
  6 31  1  0
 30 31  1  0
M  END
