MAK-UNK-8fdbca50-20-vinylsulfonamide
     RDKit          3D

 41 44  0  0  0  0  0  0  0  0999 V2000
    7.1980   -5.2780   21.1100 C   0  0  0  0  0  0  0  0  0  0  0  0
    7.6970   -4.2910   22.1880 C   0  0  0  0  0  0  0  0  0  0  0  0
    6.4410   -3.0710   22.4350 S   0  0  0  0  0  0  0  0  0  0  0  0
    5.0480   -3.3550   21.5200 O   0  0  0  0  0  0  0  0  0  0  0  0
    6.1680   -3.3290   23.8190 O   0  0  0  0  0  0  0  0  0  0  0  0
    7.7420   -1.6100   22.7210 N   0  0  0  0  0  0  0  0  0  0  0  0
    8.7370   -0.6540   21.8790 C   0  0  0  0  0  0  0  0  0  0  0  0
   10.3030   -1.0260   22.3140 C   0  0  0  0  0  0  0  0  0  0  0  0
    9.7570   -2.4340   22.1450 C   0  0  0  0  0  0  0  0  0  0  0  0
    8.7980   -1.4040   21.3150 C   0  0  0  0  0  0  0  0  0  0  0  0
    9.4860   -0.4400   20.6990 O   0  0  0  0  0  0  0  0  0  0  0  0
    7.2450   -1.2740   21.2520 N   0  0  0  0  0  0  0  0  0  0  0  0
    6.4580   -0.1500   21.9700 C   0  0  0  0  0  0  0  0  0  0  0  0
    5.5390    1.1590   22.7760 S   0  0  0  0  0  0  0  0  0  0  0  0
    4.7690    1.9010   21.8810 O   0  0  0  0  0  0  0  0  0  0  0  0
    5.4350    0.9360   21.0190 C   0  0  0  0  0  0  0  0  0  0  0  0
    4.1570    1.3950   20.1810 C   0  0  0  0  0  0  0  0  0  0  0  0
    4.7980    1.0690   18.7300 C   0  0  0  0  0  0  0  0  0  0  0  0
    5.8990    0.5900   18.9310 C   0  0  0  0  0  0  0  0  0  0  0  0
    6.9280    0.1420   19.1190 N   0  0  0  0  0  0  0  0  0  0  0  0
    6.4280    0.4030   20.2830 C   0  0  0  0  0  0  0  0  0  0  0  0
    4.5950    2.4700   23.2050 N   0  0  0  0  0  0  0  0  0  0  0  0
    4.6290    1.7320   24.4140 C   0  0  0  0  0  0  0  0  0  0  0  0
    4.8520    2.1190   23.1690 C   0  0  0  0  0  0  0  0  0  0  0  0
    5.7000    1.3300   22.3800 C   0  0  0  0  0  0  0  0  0  0  0  0
    6.7780    1.0780   23.2410 N   0  0  0  0  0  0  0  0  0  0  0  0
    6.4620    0.0590   24.1600 C   0  0  0  0  0  0  0  0  0  0  0  0
    4.0110    3.6230   22.8760 C   0  0  0  0  0  0  0  0  0  0  0  0
    4.6200    3.1440   21.9320 C   0  0  0  0  0  0  0  0  0  0  0  0
    4.9310    3.3620   20.6070 C   0  0  0  0  0  0  0  0  0  0  0  0
    6.2870    3.5040   20.0580 C   0  0  0  0  0  0  0  0  0  0  0  0
    6.8690    3.7580   18.5910 C   0  0  0  0  0  0  0  0  0  0  0  0
    5.7040    3.8260   17.8380 C   0  0  0  0  0  0  0  0  0  0  0  0
    4.1990    3.6730   18.3210 C   0  0  0  0  0  0  0  0  0  0  0  0
    3.8320    3.4370   19.7500 C   0  0  0  0  0  0  0  0  0  0  0  0
    2.5330    3.2930   20.1490 F   0  0  0  0  0  0  0  0  0  0  0  0
    6.5980   -1.7100   20.0000 C   0  0  0  0  0  0  0  0  0  0  0  0
    7.3670   -1.5840   18.6450 C   0  0  0  0  0  0  0  0  0  0  0  0
    5.1070   -1.5010   19.7530 C   0  0  0  0  0  0  0  0  0  0  0  0
    9.5880   -2.7650   23.5800 C   0  0  0  0  0  0  0  0  0  0  0  0
    8.6180   -1.6530   23.9600 C   0  0  0  0  0  0  0  0  0  0  0  0
  1  2  1  0
  3  2  1  0
  3  4  2  0
  3  5  2  0
  3  6  1  0
  6  7  1  0
  7  8  1  0
  8  9  1  0
  9 10  1  0
 10 11  2  0
 10 12  1  0
 12 13  1  0
 13 14  2  0
 14 15  2  0
 14 16  1  0
 16 17  2  0
 17 18  1  0
 18 19  2  0
 19 20  1  0
 16 21  1  0
 20 21  2  0
 14 22  1  0
 22 23  1  0
 23 24  2  0
 24 25  1  0
 25 26  1  0
 26 27  1  0
 24 28  1  0
 22 29  1  0
 28 29  2  0
 29 30  1  0
 30 31  2  0
 31 32  1  0
 32 33  2  0
 33 34  1  0
 30 35  1  0
 34 35  2  0
 35 36  1  0
 12 37  1  0
 37 38  1  0
 37 39  1  0
  9 40  1  0
  6 41  1  0
 40 41  1  0
M  END
