MAK-UNK-6c8f5f75-2-nitrile
     RDKit          3D

 10 10  0  0  0  0  0  0  0  0999 V2000
    7.0320   -3.8510   20.2090 C   0  0  0  0  0  0  0  0  0  0  0  0
    5.8190   -4.0920   19.8250 N   0  0  0  0  0  0  0  0  0  0  0  0
    7.3850   -3.0890   21.3370 N   0  0  0  0  0  0  0  0  0  0  0  0
    7.2800   -3.5820   22.7420 C   0  0  0  0  0  0  0  0  0  0  0  0
    7.9630   -2.6070   23.7360 C   0  0  0  0  0  0  0  0  0  0  0  0
    8.3280   -1.1740   23.4340 C   0  0  0  0  0  0  0  0  0  0  0  0
    8.7070   -1.0710   21.9710 C   0  0  1  0  0  0  0  0  0  0  0  0
   10.0420   -1.7860   21.8000 C   0  0  0  0  0  0  0  0  0  0  0  0
   11.0860   -2.2790   21.7180 N   0  0  0  0  0  0  0  0  0  0  0  0
    7.4900   -1.6890   21.2370 C   0  0  0  0  0  0  0  0  0  0  0  0
  1  2  2  3
  1  3  1  0
  3  4  1  0
  4  5  1  0
  5  6  1  0
  6  7  1  0
  7  8  1  1
  8  9  3  0
  3 10  1  0
  7 10  1  0
M  END
