MAK-UNK-516d8086-8-vinylsulfonamide
     RDKit          3D

 25 27  0  0  0  0  0  0  0  0999 V2000
    7.3240   -3.7490   19.7930 C   0  0  0  0  0  0  0  0  0  0  0  0
    5.9220   -3.4170   20.2140 C   0  0  0  0  0  0  0  0  0  0  0  0
    5.8540   -3.5700   21.9660 S   0  0  0  0  0  0  0  0  0  0  0  0
    4.4320   -3.5500   22.2500 O   0  0  0  0  0  0  0  0  0  0  0  0
    6.6360   -4.7100   22.4050 O   0  0  0  0  0  0  0  0  0  0  0  0
    6.7610   -2.0200   22.3290 C   0  0  0  0  0  0  0  0  0  0  0  0
    5.9450   -0.8460   22.7100 C   0  0  0  0  0  0  0  0  0  0  0  0
    6.5040    0.3290   22.9560 N   0  0  0  0  0  0  0  0  0  0  0  0
    7.8630    0.4870   22.8610 C   0  0  0  0  0  0  0  0  0  0  0  0
    8.4400    1.7000   23.0750 C   0  0  0  0  0  0  0  0  0  0  0  0
    8.4950    2.5130   21.9530 C   0  0  0  0  0  0  0  0  0  0  0  0
    8.2150    3.8510   22.2250 C   0  0  0  0  0  0  0  0  0  0  0  0
    8.7280   -0.6160   22.5140 C   0  0  0  0  0  0  0  0  0  0  0  0
   10.1680   -0.4290   22.3950 C   0  0  0  0  0  0  0  0  0  0  0  0
   11.2170   -0.8950   23.3050 C   0  0  0  0  0  0  0  0  0  0  0  0
   11.8770   -1.6720   24.2210 C   0  0  0  0  0  0  0  0  0  0  0  0
   12.7540   -2.2260   25.0870 C   0  0  0  0  0  0  0  0  0  0  0  0
   11.9780   -3.2360   25.4580 C   0  0  0  0  0  0  0  0  0  0  0  0
   11.2820   -2.3990   24.4450 C   0  0  0  0  0  0  0  0  0  0  0  0
   10.2940   -1.9500   23.5610 C   0  0  0  0  0  0  0  0  0  0  0  0
    9.8230   -3.1030   24.1040 C   0  0  0  0  0  0  0  0  0  0  0  0
   10.0180   -2.8600   22.9520 O   0  0  0  0  0  0  0  0  0  0  0  0
    9.8860   -3.2370   25.3700 N   0  0  0  0  0  0  0  0  0  0  0  0
   10.9120   -4.0080   25.5100 C   0  0  0  0  0  0  0  0  0  0  0  0
    8.1250   -1.8950   22.2440 C   0  0  0  0  0  0  0  0  0  0  0  0
  1  2  1  0
  3  2  1  0
  3  4  2  0
  3  5  2  0
  3  6  1  0
  6  7  2  0
  7  8  1  0
  8  9  2  0
  9 10  1  0
 10 11  1  0
 11 12  1  0
  9 13  1  0
 13 14  1  0
 14 15  1  0
 15 16  2  0
 16 17  1  0
 17 18  2  0
 18 19  1  0
 15 20  1  0
 19 20  2  0
 19 21  1  0
 21 22  2  0
 21 23  1  0
 18 24  1  0
 23 24  1  0
  6 25  1  0
 13 25  2  0
M  END
