MAK-UNK-6ca90168-12-acrylamide
     RDKit          3D

 23 25  0  0  0  0  0  0  0  0999 V2000
    8.4020   -3.6920   19.7910 C   0  0  0  0  0  0  0  0  0  0  0  0
    7.3060   -4.1760   20.6970 C   0  0  0  0  0  0  0  0  0  0  0  0
    6.0120   -3.4890   20.4490 C   0  0  0  0  0  0  0  0  0  0  0  0
    5.0980   -3.9990   19.7730 O   0  0  0  0  0  0  0  0  0  0  0  0
    5.9790   -2.2720   21.0840 N   0  0  0  0  0  0  0  0  0  0  0  0
    5.6690   -2.2420   22.4010 C   0  0  0  0  0  0  0  0  0  0  0  0
    6.8550   -2.6340   23.3100 C   0  0  0  0  0  0  0  0  0  0  0  0
    7.9360   -1.6340   23.2150 N   0  0  0  0  0  0  0  0  0  0  0  0
    9.1320   -2.0530   24.0000 C   0  0  0  0  0  0  0  0  0  0  0  0
    9.3230   -3.5590   23.8560 C   0  0  0  0  0  0  0  0  0  0  0  0
    9.1880   -4.3740   24.9880 C   0  0  0  0  0  0  0  0  0  0  0  0
    9.3310   -5.7460   24.8880 C   0  0  0  0  0  0  0  0  0  0  0  0
    9.6050   -6.3230   23.6570 C   0  0  0  0  0  0  0  0  0  0  0  0
    9.7450   -5.5370   22.5360 C   0  0  0  0  0  0  0  0  0  0  0  0
    9.6100   -4.1630   22.6310 C   0  0  0  0  0  0  0  0  0  0  0  0
   10.3690   -1.1880   23.7120 C   0  0  0  0  0  0  0  0  0  0  0  0
   11.4670   -1.6620   22.9840 C   0  0  0  0  0  0  0  0  0  0  0  0
   12.5760   -0.8380   22.7410 C   0  0  0  0  0  0  0  0  0  0  0  0
   12.5880    0.4710   23.2240 C   0  0  0  0  0  0  0  0  0  0  0  0
   11.5010    0.9530   23.9460 C   0  0  0  0  0  0  0  0  0  0  0  0
   10.4070    0.1300   24.1890 C   0  0  0  0  0  0  0  0  0  0  0  0
    8.2630   -1.3930   21.7780 C   0  0  0  0  0  0  0  0  0  0  0  0
    7.0720   -1.3340   20.7750 C   0  0  0  0  0  0  0  0  0  0  0  0
  1  2  1  0
  2  3  1  0
  3  4  2  0
  3  5  1  0
  5  6  1  0
  6  7  1  0
  7  8  1  0
  8  9  1  0
  9 10  1  0
 10 11  2  0
 11 12  1  0
 12 13  2  0
 13 14  1  0
 10 15  1  0
 14 15  2  0
  9 16  1  0
 16 17  2  0
 17 18  1  0
 18 19  2  0
 19 20  1  0
 16 21  1  0
 20 21  2  0
  8 22  1  0
  5 23  1  0
 22 23  1  0
M  END
