MAK-UNK-516d8086-4-nitrile
     RDKit          3D

 22 24  0  0  0  0  0  0  0  0999 V2000
    9.0640   -4.0250   19.9270 C   0  0  0  0  0  0  0  0  0  0  0  0
    7.6960   -3.9650   19.4880 N   0  0  0  0  0  0  0  0  0  0  0  0
    9.5790   -3.7670   21.3110 C   0  0  0  0  0  0  0  0  0  0  0  0
    9.5460   -4.9250   22.2970 C   0  0  0  0  0  0  0  0  0  0  0  0
   10.1330   -4.7370   23.6740 C   0  0  0  0  0  0  0  0  0  0  0  0
   10.7280   -3.3780   23.9360 C   0  0  0  0  0  0  0  0  0  0  0  0
   11.4300   -3.0680   25.1840 N   0  0  0  0  0  0  0  0  0  0  0  0
   12.6590   -2.5130   24.9750 C   0  0  0  0  0  0  0  0  0  0  0  0
   13.8010   -3.2430   25.6710 C   0  0  0  0  0  0  0  0  0  0  0  0
   10.6800   -2.2350   22.9550 C   0  0  0  0  0  0  0  0  0  0  0  0
   11.2580   -0.8260   23.3440 C   0  0  0  0  0  0  0  0  0  0  0  0
   11.1730    0.2550   22.4420 C   0  0  0  0  0  0  0  0  0  0  0  0
   12.4980   -0.2680   22.6480 C   0  0  0  0  0  0  0  0  0  0  0  0
   12.2740   -1.2480   23.5530 C   0  0  0  0  0  0  0  0  0  0  0  0
   10.8680   -1.4150   23.9710 C   0  0  0  0  0  0  0  0  0  0  0  0
    9.7330   -0.9110   23.7450 C   0  0  0  0  0  0  0  0  0  0  0  0
    9.8660    0.1300   22.8010 C   0  0  0  0  0  0  0  0  0  0  0  0
    8.5520   -1.2210   24.2420 C   0  0  0  0  0  0  0  0  0  0  0  0
    7.8850   -1.8790   25.0120 O   0  0  0  0  0  0  0  0  0  0  0  0
    8.6060   -0.3470   23.3530 N   0  0  0  0  0  0  0  0  0  0  0  0
   10.1900   -0.3120   23.1250 C   0  0  0  0  0  0  0  0  0  0  0  0
   10.1100   -2.4960   21.6980 C   0  0  0  0  0  0  0  0  0  0  0  0
  1  2  2  3
  1  3  1  0
  3  4  2  0
  4  5  1  0
  5  6  2  0
  6  7  1  0
  7  8  1  0
  8  9  1  0
  6 10  1  0
 10 11  1  0
 11 12  1  0
 12 13  2  0
 13 14  1  0
 14 15  2  0
 15 16  1  0
 12 17  1  0
 16 17  2  0
 16 18  1  0
 18 19  2  0
 18 20  1  0
 15 21  1  0
 20 21  1  0
  3 22  1  0
 10 22  2  0
M  END
