MAK-UNK-90d0606b-2-chloroacetamide
     RDKit          3D

 25 27  0  0  0  0  0  0  0  0999 V2000
    7.4010   -3.0350   18.8870 C   0  0  0  0  0  0  0  0  0  0  0  0
    6.4170   -3.3780   20.0160 C   0  0  0  0  0  0  0  0  0  0  0  0
    5.5710   -4.2700   19.8340 O   0  0  0  0  0  0  0  0  0  0  0  0
    6.4680   -2.6690   21.2300 N   0  0  0  0  0  0  0  0  0  0  0  0
    6.0860   -3.0900   22.6050 C   0  0  0  0  0  0  0  0  0  0  0  0
    7.4120   -3.8180   23.0500 C   0  0  1  0  0  0  0  0  0  0  0  0
    7.8390   -3.5030   21.6600 C   0  0  0  0  0  0  0  0  0  0  0  0
    7.6250   -1.9560   21.6720 C   0  0  1  0  0  0  0  0  0  0  0  0
    9.0700   -2.3370   21.9650 C   0  0  0  0  0  0  0  0  0  0  0  0
    8.8530   -3.2360   23.2380 C   0  0  1  0  0  0  0  0  0  0  0  0
    9.1470   -2.4300   24.4130 C   0  0  0  0  0  0  0  0  0  0  0  0
    8.4380   -2.4520   25.4150 O   0  0  0  0  0  0  0  0  0  0  0  0
   10.2890   -1.6840   24.2200 N   0  0  0  0  0  0  0  0  0  0  0  0
   10.2430   -0.3080   24.3260 C   0  0  0  0  0  0  0  0  0  0  0  0
   11.0230    0.5960   23.9710 C   0  0  0  0  0  0  0  0  0  0  0  0
   12.1790    0.8280   23.3870 C   0  0  0  0  0  0  0  0  0  0  0  0
   12.3900   -0.5300   23.2340 O   0  0  0  0  0  0  0  0  0  0  0  0
   13.1470   -1.0320   22.1390 C   0  0  0  0  0  0  0  0  0  0  0  0
   11.3210    1.9600   23.8660 C   0  0  0  0  0  0  0  0  0  0  0  0
   11.7510    3.2530   23.6870 O   0  0  0  0  0  0  0  0  0  0  0  0
   10.6750    4.1340   23.3610 C   0  0  0  0  0  0  0  0  0  0  0  0
    9.9870    1.8360   24.5530 C   0  0  0  0  0  0  0  0  0  0  0  0
    9.3850    3.0160   24.9120 O   0  0  0  0  0  0  0  0  0  0  0  0
    8.5480    2.9910   26.0630 C   0  0  0  0  0  0  0  0  0  0  0  0
    9.3890    0.5640   24.8130 C   0  0  0  0  0  0  0  0  0  0  0  0
  1  2  1  0
  2  3  2  0
  2  4  1  0
  4  5  1  0
  6  5  1  1
  6  7  1  0
  4  8  1  0
  7  8  1  0
  8  9  1  6
  6 10  1  0
  9 10  1  0
 10 11  1  1
 11 12  2  0
 11 13  1  0
 13 14  1  0
 14 15  2  0
 15 16  1  0
 16 17  1  0
 17 18  1  0
 16 19  2  0
 19 20  1  0
 20 21  1  0
 19 22  1  0
 22 23  1  0
 23 24  1  0
 14 25  1  0
 22 25  2  0
M  END
