MAK-UNK-e05327b2-3-vinylsulfonamide
     RDKit          3D

 52 58  0  0  0  0  0  0  0  0999 V2000
    6.9860   -3.1360   18.8840 C   0  0  0  0  0  0  0  0  0  0  0  0
    5.8610   -3.7980   19.6620 C   0  0  0  0  0  0  0  0  0  0  0  0
    6.0640   -3.5190   21.3550 S   0  0  0  0  0  0  0  0  0  0  0  0
    4.7230   -3.3320   21.7950 O   0  0  0  0  0  0  0  0  0  0  0  0
    7.1130   -2.5340   21.5040 O   0  0  0  0  0  0  0  0  0  0  0  0
    6.6040   -4.9890   22.0050 N   0  0  0  0  0  0  0  0  0  0  0  0
    5.7350   -5.9490   22.0500 C   0  0  0  0  0  0  0  0  0  0  0  0
    4.8250   -5.7490   23.2870 C   0  0  0  0  0  0  0  0  0  0  0  0
    5.6000   -5.4410   24.5160 N   0  0  0  0  0  0  0  0  0  0  0  0
    4.9280   -5.3990   26.0370 S   0  0  0  0  0  0  0  0  0  0  0  0
    3.8850   -6.3960   26.0720 O   0  0  0  0  0  0  0  0  0  0  0  0
    5.9960   -5.3320   27.0040 O   0  0  0  0  0  0  0  0  0  0  0  0
    4.1000   -3.8300   26.0450 C   0  0  0  0  0  0  0  0  0  0  0  0
    4.5430   -2.4010   26.1730 C   0  0  0  0  0  0  0  0  0  0  0  0
    3.4440   -1.3930   26.1270 C   0  0  0  0  0  0  0  0  0  0  0  0
    2.2100   -2.0450   25.9710 C   0  0  0  0  0  0  0  0  0  0  0  0
    0.9790   -1.3880   25.9010 C   0  0  0  0  0  0  0  0  0  0  0  0
   -0.0330   -0.9510   26.2840 N   0  0  0  0  0  0  0  0  0  0  0  0
    0.1580    0.0650   27.3430 C   0  0  0  0  0  0  0  0  0  0  0  0
   -0.6290   -0.2410   28.4500 C   0  0  0  0  0  0  0  0  0  0  0  0
   -0.5740   -1.4790   28.9920 N   0  0  0  0  0  0  0  0  0  0  0  0
   -1.3250   -1.7150   30.5190 S   0  0  0  0  0  0  0  0  0  0  0  0
   -2.6290   -1.0820   30.4850 O   0  0  0  0  0  0  0  0  0  0  0  0
   -1.1970   -3.1260   30.8300 O   0  0  0  0  0  0  0  0  0  0  0  0
   -0.2470   -0.8280   31.6530 C   0  0  0  0  0  0  0  0  0  0  0  0
    0.7910   -1.5850   32.2280 C   0  0  0  0  0  0  0  0  0  0  0  0
    1.6620   -0.9580   33.1150 C   0  0  0  0  0  0  0  0  0  0  0  0
    1.5250    0.3780   33.4340 C   0  0  0  0  0  0  0  0  0  0  0  0
    0.5140    1.1590   32.8880 C   0  0  0  0  0  0  0  0  0  0  0  0
    0.3850    2.5020   33.2160 C   0  0  0  0  0  0  0  0  0  0  0  0
   -0.5880    3.3660   32.7250 C   0  0  0  0  0  0  0  0  0  0  0  0
   -0.6130    4.8370   33.1730 C   0  0  0  0  0  0  0  0  0  0  0  0
    0.3870    5.7940   32.4880 C   0  0  0  0  0  0  0  0  0  0  0  0
    1.8810    5.6640   32.6080 C   0  0  0  0  0  0  0  0  0  0  0  0
    2.5760    6.7570   31.8160 C   0  0  0  0  0  0  0  0  0  0  0  0
    1.6410    7.5890   31.1880 C   0  0  0  0  0  0  0  0  0  0  0  0
    1.9930    8.9460   30.1950 Cl  0  0  0  0  0  0  0  0  0  0  0  0
   -0.0150    7.1430   31.4890 S   0  0  0  0  0  0  0  0  0  0  0  0
   -1.5230    2.8290   31.8170 C   0  0  0  0  0  0  0  0  0  0  0  0
   -2.6610    3.6390   31.1800 C   0  0  0  0  0  0  0  0  0  0  0  0
   -3.9390    3.4900   32.0080 C   0  0  0  0  0  0  0  0  0  0  0  0
   -4.3770    2.1110   32.4420 C   0  0  0  0  0  0  0  0  0  0  0  0
   -5.6370    2.0910   33.2430 C   0  0  0  0  0  0  0  0  0  0  0  0
   -6.1710    3.7160   33.3960 S   0  0  0  0  0  0  0  0  0  0  0  0
   -4.8620    4.4160   32.4870 C   0  0  0  0  0  0  0  0  0  0  0  0
   -1.4180    1.4560   31.4610 C   0  0  0  0  0  0  0  0  0  0  0  0
   -0.4080    0.5720   31.9740 C   0  0  0  0  0  0  0  0  0  0  0  0
   -0.8330   -2.5530   28.0000 C   0  0  0  0  0  0  0  0  0  0  0  0
   -1.0130   -2.0040   26.6800 C   0  0  0  0  0  0  0  0  0  0  0  0
    2.3800   -3.7850   25.8760 S   0  0  0  0  0  0  0  0  0  0  0  0
    6.7370   -4.5390   24.3510 C   0  0  0  0  0  0  0  0  0  0  0  0
    7.4470   -4.8630   23.1940 C   0  0  0  0  0  0  0  0  0  0  0  0
  1  2  1  0
  3  2  1  0
  3  4  2  0
  3  5  2  0
  3  6  1  0
  6  7  1  0
  7  8  1  0
  8  9  1  0
  9 10  1  0
 10 11  2  0
 10 12  2  0
 10 13  1  0
 13 14  2  0
 14 15  1  0
 15 16  2  0
 16 17  1  0
 17 18  1  0
 18 19  1  0
 19 20  1  0
 20 21  1  0
 21 22  1  0
 22 23  2  0
 22 24  2  0
 22 25  1  0
 25 26  2  0
 26 27  1  0
 27 28  2  0
 28 29  1  0
 29 30  1  0
 30 31  2  0
 31 32  1  0
 32 33  1  0
 33 34  2  0
 34 35  1  0
 35 36  2  0
 36 37  1  0
 33 38  1  0
 36 38  1  0
 31 39  1  0
 39 40  1  0
 40 41  1  0
 41 42  1  0
 42 43  2  0
 43 44  1  0
 41 45  2  0
 44 45  1  0
 39 46  2  0
 25 47  1  0
 29 47  2  0
 46 47  1  0
 21 48  1  0
 18 49  1  0
 48 49  1  0
 13 50  1  0
 16 50  1  0
  9 51  1  0
  6 52  1  0
 51 52  1  0
M  END
