MAK-UNK-212f693e-12-acrylamide
     RDKit          3D

 16 17  0  0  0  0  0  0  0  0999 V2000
    7.4260   -3.0950   19.0360 C   0  0  0  0  0  0  0  0  0  0  0  0
    6.9990   -3.0980   20.4830 C   0  0  0  0  0  0  0  0  0  0  0  0
    6.0520   -4.2450   20.7540 C   0  0  0  0  0  0  0  0  0  0  0  0
    5.1810   -4.5580   19.9180 O   0  0  0  0  0  0  0  0  0  0  0  0
    6.1980   -4.9310   21.9470 N   0  0  0  0  0  0  0  0  0  0  0  0
    6.9630   -4.3080   23.0490 C   0  0  0  0  0  0  0  0  0  0  0  0
    6.0880   -4.1070   24.2480 C   0  0  0  0  0  0  0  0  0  0  0  0
    5.1850   -5.1370   24.4810 C   0  0  1  0  0  0  0  0  0  0  0  0
    4.4170   -4.9410   25.4440 O   0  0  0  0  0  0  0  0  0  0  0  0
    3.5640   -3.8670   25.4980 C   0  0  0  0  0  0  0  0  0  0  0  0
    3.8320   -2.5200   25.6590 C   0  0  0  0  0  0  0  0  0  0  0  0
    2.6780   -1.7460   25.6710 C   0  0  0  0  0  0  0  0  0  0  0  0
    1.2630   -2.7060   25.4820 S   0  0  0  0  0  0  0  0  0  0  0  0
    2.1880   -4.1550   25.3780 C   0  0  0  0  0  0  0  0  0  0  0  0
    4.4060   -5.4850   23.3430 C   0  0  0  0  0  0  0  0  0  0  0  0
    5.2510   -5.9240   22.3160 N   0  0  0  0  0  0  0  0  0  0  0  0
  1  2  1  0
  2  3  1  0
  3  4  2  0
  3  5  1  0
  5  6  1  0
  6  7  1  0
  7  8  1  0
  8  9  1  1
  9 10  1  0
 10 11  1  0
 11 12  2  0
 12 13  1  0
 10 14  2  0
 13 14  1  0
  8 15  1  0
  5 16  1  0
 15 16  1  0
M  END
