MAK-UNK-10799360-12-chloroacetamide
     RDKit          3D

 28 31  0  0  0  0  0  0  0  0999 V2000
    7.3440   -3.0230   18.7930 C   0  0  0  0  0  0  0  0  0  0  0  0
    6.3170   -3.3410   19.8770 C   0  0  0  0  0  0  0  0  0  0  0  0
    5.5340   -4.2910   19.7990 O   0  0  0  0  0  0  0  0  0  0  0  0
    6.2670   -2.4970   20.9620 N   0  0  0  0  0  0  0  0  0  0  0  0
    7.3150   -1.4910   21.2440 C   0  0  0  0  0  0  0  0  0  0  0  0
    8.1910   -2.5360   21.9470 C   0  0  2  0  0  0  0  0  0  0  0  0
    7.2500   -3.7460   21.8770 C   0  0  0  0  0  0  0  0  0  0  0  0
    6.0200   -2.9830   22.3870 C   0  0  1  0  0  0  0  0  0  0  0  0
    6.9500   -3.3490   23.5820 C   0  0  0  0  0  0  0  0  0  0  0  0
    8.0620   -2.3970   23.3700 N   0  0  0  0  0  0  0  0  0  0  0  0
    9.2520   -2.7370   24.0740 C   0  0  0  0  0  0  0  0  0  0  0  0
   10.3720   -1.7930   23.8470 C   0  0  0  0  0  0  0  0  0  0  0  0
   11.3090   -2.0710   22.8490 C   0  0  0  0  0  0  0  0  0  0  0  0
   12.3570   -1.2160   22.6010 C   0  0  0  0  0  0  0  0  0  0  0  0
   13.4270   -1.5930   21.3550 Cl  0  0  0  0  0  0  0  0  0  0  0  0
   12.4740   -0.0890   23.3810 C   0  0  0  0  0  0  0  0  0  0  0  0
   11.5450    0.1830   24.3660 C   0  0  0  0  0  0  0  0  0  0  0  0
   10.4510   -0.6420   24.6320 C   0  0  0  0  0  0  0  0  0  0  0  0
    9.4250   -0.3810   25.5990 C   0  0  0  0  0  0  0  0  0  0  0  0
    9.8200   -0.0580   26.9950 N   0  0  0  0  0  0  0  0  0  0  0  0
    8.8260    0.1360   28.0710 C   0  0  0  0  0  0  0  0  0  0  0  0
    7.7180   -0.3790   28.0430 O   0  0  0  0  0  0  0  0  0  0  0  0
    9.2240    0.9660   29.1290 N   0  0  0  0  0  0  0  0  0  0  0  0
    8.3270    2.0820   29.4620 C   0  0  0  0  0  0  0  0  0  0  0  0
    9.0380    3.0730   30.1650 C   0  0  0  0  0  0  0  0  0  0  0  0
    9.4130    2.6110   31.4740 O   0  0  0  0  0  0  0  0  0  0  0  0
    9.3400    1.1720   31.5870 C   0  0  0  0  0  0  0  0  0  0  0  0
    9.8690    0.4570   30.3350 C   0  0  0  0  0  0  0  0  0  0  0  0
  1  2  1  0
  2  3  2  0
  2  4  1  0
  4  5  1  0
  6  5  1  6
  6  7  1  0
  4  8  1  0
  7  8  1  0
  8  9  1  1
  6 10  1  0
  9 10  1  0
 10 11  1  0
 11 12  1  0
 12 13  2  0
 13 14  1  0
 14 15  1  0
 14 16  2  0
 16 17  1  0
 12 18  1  0
 17 18  2  0
 18 19  1  0
 19 20  1  0
 20 21  1  0
 21 22  2  0
 21 23  1  0
 23 24  1  0
 24 25  1  0
 25 26  1  0
 26 27  1  0
 23 28  1  0
 27 28  1  0
M  END
