MAK-UNK-148caf23-10-vinylsulfonamide
     RDKit          3D

 37 40  0  0  0  0  0  0  0  0999 V2000
    7.9710   -3.6810   20.1820 C   0  0  0  0  0  0  0  0  0  0  0  0
    6.8450   -2.6850   19.9250 C   0  0  0  0  0  0  0  0  0  0  0  0
    6.3400   -2.4580   21.5760 S   0  0  0  0  0  0  0  0  0  0  0  0
    5.1190   -3.5720   21.4530 O   0  0  0  0  0  0  0  0  0  0  0  0
    5.9740   -1.0620   21.7250 O   0  0  0  0  0  0  0  0  0  0  0  0
    8.2790   -2.5170   21.9750 C   0  0  0  0  0  0  0  0  0  0  0  0
    9.4340   -2.2450   22.5000 C   0  0  0  0  0  0  0  0  0  0  0  0
    9.4220   -1.2360   23.4880 C   0  0  0  0  0  0  0  0  0  0  0  0
   10.3120   -0.6500   24.2410 C   0  0  0  0  0  0  0  0  0  0  0  0
    9.5660    0.2260   25.0420 N   0  0  0  0  0  0  0  0  0  0  0  0
    8.8560   -0.4700   26.1300 C   0  0  0  0  0  0  0  0  0  0  0  0
    8.2170    0.4440   27.1690 C   0  0  1  0  0  0  0  0  0  0  0  0
    8.4020    1.9360   27.1090 N   0  0  0  0  0  0  0  0  0  0  0  0
    8.0810    2.8400   26.0130 C   0  0  0  0  0  0  0  0  0  0  0  0
    6.7110    0.2390   27.2310 C   0  0  0  0  0  0  0  0  0  0  0  0
    5.6890    1.3510   27.2420 C   0  0  0  0  0  0  0  0  0  0  0  0
    4.4500    0.7750   27.3010 C   0  0  0  0  0  0  0  0  0  0  0  0
    3.2560    1.7160   27.3170 C   0  0  0  0  0  0  0  0  0  0  0  0
    2.3980    1.3370   26.2110 C   0  0  0  0  0  0  0  0  0  0  0  0
    1.1560    2.2440   26.1510 C   0  0  0  0  0  0  0  0  0  0  0  0
    0.9550    3.3680   27.1760 C   0  0  0  0  0  0  0  0  0  0  0  0
    1.9350    3.5780   28.2040 C   0  0  0  0  0  0  0  0  0  0  0  0
    3.0400    2.7560   28.2420 C   0  0  0  0  0  0  0  0  0  0  0  0
    3.9400    2.9790   29.2140 F   0  0  0  0  0  0  0  0  0  0  0  0
    4.5470   -0.5780   27.3320 N   0  0  0  0  0  0  0  0  0  0  0  0
    3.3070   -1.7640   27.4050 S   0  0  0  0  0  0  0  0  0  0  0  0
    3.9160   -2.9460   27.9830 O   0  0  0  0  0  0  0  0  0  0  0  0
    2.6940   -1.7940   26.0930 O   0  0  0  0  0  0  0  0  0  0  0  0
    2.1380   -1.1900   28.5180 C   0  0  0  0  0  0  0  0  0  0  0  0
    1.0380   -0.4590   28.1110 C   0  0  0  0  0  0  0  0  0  0  0  0
    0.0730   -0.0130   29.2140 C   0  0  0  0  0  0  0  0  0  0  0  0
    0.4020   -0.4080   30.6450 C   0  0  0  0  0  0  0  0  0  0  0  0
    1.5090   -1.1290   30.9250 N   0  0  0  0  0  0  0  0  0  0  0  0
    2.3280   -1.4930   29.8840 C   0  0  0  0  0  0  0  0  0  0  0  0
    5.9100   -0.9170   27.2900 C   0  0  0  0  0  0  0  0  0  0  0  0
   10.0480   -1.5870   23.2210 N   0  0  0  0  0  0  0  0  0  0  0  0
    8.5130   -1.4790   23.0170 C   0  0  0  0  0  0  0  0  0  0  0  0
  1  2  1  0
  3  2  1  0
  3  4  2  0
  3  5  2  0
  3  6  1  0
  6  7  2  0
  7  8  1  0
  8  9  2  0
  9 10  1  0
 10 11  1  0
 12 11  1  6
 12 13  1  0
 13 14  1  0
 12 15  1  0
 15 16  1  0
 16 17  2  0
 17 18  1  0
 18 19  2  0
 19 20  1  0
 20 21  2  0
 21 22  1  0
 18 23  1  0
 22 23  2  0
 23 24  1  0
 17 25  1  0
 25 26  1  0
 26 27  2  0
 26 28  2  0
 26 29  1  0
 29 30  2  0
 30 31  1  0
 31 32  2  0
 32 33  1  0
 29 34  1  0
 33 34  2  0
 15 35  2  0
 25 35  1  0
  9 36  1  0
  6 37  1  0
 36 37  2  0
M  END
