MAK-UNK-c7aa8293-11
     RDKit          3D

 20 21  0  0  0  0  0  0  0  0999 V2000
    5.6530   -3.0130   19.9330 C   0  0  0  0  0  0  0  0  0  0  0  0
    6.5750   -2.7000   21.0250 N   0  0  0  0  0  0  0  0  0  0  0  0
    7.8600   -2.1810   20.5050 C   0  0  0  0  0  0  0  0  0  0  0  0
    6.5520   -3.6730   22.1180 C   0  0  0  0  0  0  0  0  0  0  0  0
    7.9600   -3.9080   22.6560 C   0  0  0  0  0  0  0  0  0  0  0  0
    8.0910   -4.7310   23.9580 C   0  0  0  0  0  0  0  0  0  0  0  0
    8.3250   -3.8670   25.2080 C   0  0  1  0  0  0  0  0  0  0  0  0
    9.7960   -3.0940   25.1940 C   0  0  0  0  0  0  0  0  0  0  0  0
    9.9590   -1.7750   24.3470 C   0  0  0  0  0  0  0  0  0  0  0  0
    8.8190   -2.3410   24.8800 C   0  0  0  0  0  0  0  0  0  0  0  0
    9.2840   -3.6170   25.6700 C   0  0  0  0  0  0  0  0  0  0  0  0
   10.6980   -3.9190   25.6880 C   0  0  0  0  0  0  0  0  0  0  0  0
   11.6900   -3.1250   25.0290 C   0  0  0  0  0  0  0  0  0  0  0  0
   13.0240   -3.4180   25.0710 O   0  0  0  0  0  0  0  0  0  0  0  0
   11.3070   -1.9960   24.3170 C   0  0  0  0  0  0  0  0  0  0  0  0
   12.2080   -1.1920   23.6700 O   0  0  0  0  0  0  0  0  0  0  0  0
    7.4070   -1.9540   24.8230 C   0  0  2  0  0  0  0  0  0  0  0  0
    6.9830   -0.8010   25.5170 C   0  0  0  0  0  0  0  0  0  0  0  0
    5.9920   -0.9880   26.5890 N   0  0  0  0  0  0  0  0  0  0  0  0
    7.0640   -3.0890   25.3580 O   0  0  0  0  0  0  0  0  0  0  0  0
  1  2  1  0
  2  3  1  0
  2  4  1  0
  4  5  1  0
  5  6  1  0
  7  6  1  6
  7  8  1  0
  8  9  1  0
  9 10  2  0
 10 11  1  0
 11 12  2  0
 12 13  1  0
 13 14  1  0
  9 15  1  0
 13 15  2  0
 15 16  1  0
 10 17  1  0
 17 18  1  1
 18 19  1  0
  7 20  1  0
 17 20  1  0
M  END
