MAK-UNK-f983951f-15-chloroacetamide
     RDKit          3D

 13 13  0  0  0  0  0  0  0  0999 V2000
    7.3210   -3.9780   21.0150 C   0  0  0  0  0  0  0  0  0  0  0  0
    5.8730   -4.4820   21.1090 C   0  0  0  0  0  0  0  0  0  0  0  0
    5.2070   -4.6950   20.0480 O   0  0  0  0  0  0  0  0  0  0  0  0
    5.4170   -4.7330   22.4850 N   0  0  0  0  0  0  0  0  0  0  0  0
    4.4170   -4.0060   23.3650 C   0  0  0  0  0  0  0  0  0  0  0  0
    3.1640   -4.5750   23.1260 C   0  0  0  0  0  0  0  0  0  0  0  0
    1.9580   -5.2100   23.0020 N   0  0  0  0  0  0  0  0  0  0  0  0
    4.4710   -4.1360   24.9230 C   0  0  0  0  0  0  0  0  0  0  0  0
    3.1480   -4.2340   25.4150 C   0  0  0  0  0  0  0  0  0  0  0  0
    2.4480   -2.9770   25.3910 C   0  0  0  0  0  0  0  0  0  0  0  0
    3.3510   -1.9040   25.2710 C   0  0  0  0  0  0  0  0  0  0  0  0
    3.7690   -1.5630   23.9510 C   0  0  0  0  0  0  0  0  0  0  0  0
    4.5020   -2.4730   23.1180 C   0  0  0  0  0  0  0  0  0  0  0  0
  1  2  1  0
  2  3  2  0
  2  4  1  0
  4  5  1  0
  5  6  1  0
  6  7  3  0
  5  8  1  0
  8  9  1  0
  9 10  1  0
 10 11  1  0
 11 12  1  0
  5 13  1  0
 12 13  1  0
M  END
