MAK-UNK-de9577cf-2
     RDKit          3D

 37 40  0  0  0  0  0  0  0  0999 V2000
   13.3500   -2.4010   24.4370 C   0  0  0  0  0  0  0  0  0  0  0  0
   12.8040   -1.0770   24.4690 O   0  0  0  0  0  0  0  0  0  0  0  0
   12.8630   -0.3910   23.2910 C   0  0  0  0  0  0  0  0  0  0  0  0
   13.4450   -0.7400   22.2820 O   0  0  0  0  0  0  0  0  0  0  0  0
   12.0970    0.9300   23.4170 C   0  0  0  0  0  0  0  0  0  0  0  0
   12.8840    2.1460   22.9610 C   0  0  0  0  0  0  0  0  0  0  0  0
   12.3460    3.5790   23.0180 C   0  0  0  0  0  0  0  0  0  0  0  0
   10.9540    3.7080   23.5800 C   0  0  0  0  0  0  0  0  0  0  0  0
   10.2250    5.3260   23.7460 S   0  0  0  0  0  0  0  0  0  0  0  0
   11.0790    6.2610   23.0270 O   0  0  0  0  0  0  0  0  0  0  0  0
    9.9920    5.5160   25.1660 O   0  0  0  0  0  0  0  0  0  0  0  0
    8.7340    5.1870   22.9560 N   0  0  0  0  0  0  0  0  0  0  0  0
    8.3380    3.9230   22.3000 C   0  0  0  0  0  0  0  0  0  0  0  0
    7.6900    6.2180   23.0920 C   0  0  0  0  0  0  0  0  0  0  0  0
    7.1380    6.0280   24.3550 C   0  0  0  0  0  0  0  0  0  0  0  0
    6.0770    5.0850   24.5140 C   0  0  0  0  0  0  0  0  0  0  0  0
    5.6640    5.0430   25.8230 C   0  0  0  0  0  0  0  0  0  0  0  0
    4.5950    4.2060   26.3930 C   0  0  0  0  0  0  0  0  0  0  0  0
    3.5650    4.8110   27.1270 C   0  0  0  0  0  0  0  0  0  0  0  0
    2.5360    4.0370   27.6770 C   0  0  0  0  0  0  0  0  0  0  0  0
    2.5230    2.6580   27.4990 C   0  0  0  0  0  0  0  0  0  0  0  0
    3.5360    2.0440   26.7730 C   0  0  0  0  0  0  0  0  0  0  0  0
    4.5670    2.8110   26.2220 C   0  0  0  0  0  0  0  0  0  0  0  0
    5.5240    2.1820   25.5260 F   0  0  0  0  0  0  0  0  0  0  0  0
    6.4610    5.9760   26.5620 N   0  0  0  0  0  0  0  0  0  0  0  0
    6.3990    6.3760   28.2920 S   0  0  0  0  0  0  0  0  0  0  0  0
    7.2620    7.5320   28.4600 O   0  0  0  0  0  0  0  0  0  0  0  0
    5.0010    6.4180   28.6360 O   0  0  0  0  0  0  0  0  0  0  0  0
    7.1660    5.0270   29.1140 C   0  0  0  0  0  0  0  0  0  0  0  0
    8.5170    4.4880   28.6640 C   0  0  0  0  0  0  0  0  0  0  0  0
    9.0800    3.3280   29.4450 C   0  0  0  0  0  0  0  0  0  0  0  0
    8.2360    2.8240   30.5950 C   0  0  0  0  0  0  0  0  0  0  0  0
    7.0350    3.3660   30.9280 N   0  0  0  0  0  0  0  0  0  0  0  0
    6.5190    4.4380   30.2050 C   0  0  0  0  0  0  0  0  0  0  0  0
    7.4000    6.5930   25.6020 C   0  0  0  0  0  0  0  0  0  0  0  0
   10.2410    2.5860   23.9760 C   0  0  0  0  0  0  0  0  0  0  0  0
   10.8170    1.1760   23.8890 C   0  0  0  0  0  0  0  0  0  0  0  0
  1  2  1  0
  2  3  1  0
  3  4  2  0
  3  5  1  0
  5  6  2  0
  6  7  1  0
  7  8  2  0
  8  9  1  0
  9 10  2  0
  9 11  2  0
  9 12  1  0
 12 13  1  0
 12 14  1  0
 14 15  1  0
 15 16  1  0
 16 17  2  0
 17 18  1  0
 18 19  2  0
 19 20  1  0
 20 21  2  0
 21 22  1  0
 18 23  1  0
 22 23  2  0
 23 24  1  0
 17 25  1  0
 25 26  1  0
 26 27  2  0
 26 28  2  0
 26 29  1  0
 29 30  2  0
 30 31  1  0
 31 32  2  0
 32 33  1  0
 29 34  1  0
 33 34  2  0
 15 35  2  0
 25 35  1  0
  8 36  1  0
  5 37  1  0
 36 37  2  0
M  END
