MAK-UNK-10799360-12-vinylsulfonamide
     RDKit          3D

 30 33  0  0  0  0  0  0  0  0999 V2000
    7.9200   -3.4010   19.6830 C   0  0  0  0  0  0  0  0  0  0  0  0
    7.0430   -2.4590   18.9520 C   0  0  0  0  0  0  0  0  0  0  0  0
    5.5190   -2.5880   19.7930 S   0  0  0  0  0  0  0  0  0  0  0  0
    5.0750   -3.9730   19.7580 O   0  0  0  0  0  0  0  0  0  0  0  0
    4.7370   -1.5160   19.2470 O   0  0  0  0  0  0  0  0  0  0  0  0
    5.8340   -2.0910   21.3670 N   0  0  0  0  0  0  0  0  0  0  0  0
    5.6380   -3.0370   22.5610 C   0  0  0  0  0  0  0  0  0  0  0  0
    7.1720   -3.3830   23.0570 C   0  0  1  0  0  0  0  0  0  0  0  0
    7.7110   -3.4910   21.6640 C   0  0  0  0  0  0  0  0  0  0  0  0
    7.1210   -2.1920   21.9050 C   0  0  1  0  0  0  0  0  0  0  0  0
    8.1680   -1.2810   22.3090 C   0  0  0  0  0  0  0  0  0  0  0  0
    7.9930   -2.1500   23.5390 N   0  0  0  0  0  0  0  0  0  0  0  0
    9.2340   -2.4330   24.2120 C   0  0  0  0  0  0  0  0  0  0  0  0
   10.3220   -1.4990   23.8220 C   0  0  0  0  0  0  0  0  0  0  0  0
   11.3160   -1.8670   22.9430 C   0  0  0  0  0  0  0  0  0  0  0  0
   12.2900   -0.9700   22.6080 C   0  0  0  0  0  0  0  0  0  0  0  0
   13.4360   -1.5200   21.5050 Cl  0  0  0  0  0  0  0  0  0  0  0  0
   12.3040    0.3220   23.1510 C   0  0  0  0  0  0  0  0  0  0  0  0
   11.2780    0.6930   24.0430 C   0  0  0  0  0  0  0  0  0  0  0  0
   10.2760   -0.2390   24.3700 C   0  0  0  0  0  0  0  0  0  0  0  0
    9.1780   -0.0120   25.2240 C   0  0  0  0  0  0  0  0  0  0  0  0
    9.1730    1.2590   25.9420 N   0  0  0  0  0  0  0  0  0  0  0  0
    8.1780    2.3000   25.7280 C   0  0  0  0  0  0  0  0  0  0  0  0
    7.1020    2.3190   26.3230 O   0  0  0  0  0  0  0  0  0  0  0  0
    8.5440    3.2710   24.7950 N   0  0  0  0  0  0  0  0  0  0  0  0
    7.4510    3.9550   24.0940 C   0  0  0  0  0  0  0  0  0  0  0  0
    7.1150    5.1600   24.7400 C   0  0  0  0  0  0  0  0  0  0  0  0
    8.2150    6.0920   24.7900 O   0  0  0  0  0  0  0  0  0  0  0  0
    9.4460    5.5050   24.3180 C   0  0  0  0  0  0  0  0  0  0  0  0
    9.6990    4.1510   25.0020 C   0  0  0  0  0  0  0  0  0  0  0  0
  1  2  1  0
  3  2  1  0
  3  4  2  0
  3  5  2  0
  3  6  1  0
  6  7  1  0
  8  7  1  6
  8  9  1  0
  6 10  1  0
  9 10  1  0
 10 11  1  6
  8 12  1  0
 11 12  1  0
 12 13  1  0
 13 14  1  0
 14 15  2  0
 15 16  1  0
 16 17  1  0
 16 18  2  0
 18 19  1  0
 14 20  1  0
 19 20  2  0
 20 21  1  0
 21 22  1  0
 22 23  1  0
 23 24  2  0
 23 25  1  0
 25 26  1  0
 26 27  1  0
 27 28  1  0
 28 29  1  0
 25 30  1  0
 29 30  1  0
M  END
