MAK-UNK-c7aa8293-15
     RDKit          3D

 24 26  0  0  0  0  0  0  0  0999 V2000
    5.7590   -2.1680   19.1270 C   0  0  0  0  0  0  0  0  0  0  0  0
    5.6340   -3.1200   20.2420 C   0  0  0  0  0  0  0  0  0  0  0  0
    5.3100   -4.4670   19.8520 O   0  0  0  0  0  0  0  0  0  0  0  0
    5.8330   -2.6290   21.5230 N   0  0  0  0  0  0  0  0  0  0  0  0
    5.3770   -3.3180   22.7310 C   0  0  1  0  0  0  0  0  0  0  0  0
    6.2910   -4.4740   23.1080 C   0  0  0  0  0  0  0  0  0  0  0  0
    6.8400   -4.3700   24.5420 C   0  0  0  0  0  0  0  0  0  0  0  0
    7.5250   -3.0060   24.6950 C   0  0  1  0  0  0  0  0  0  0  0  0
    8.8160   -3.0090   23.8670 C   0  0  1  0  0  0  0  0  0  0  0  0
    8.7270   -2.2650   22.6000 C   0  0  0  0  0  0  0  0  0  0  0  0
    9.9400   -1.6420   23.1190 C   0  0  0  0  0  0  0  0  0  0  0  0
   10.4630   -0.3080   22.9660 C   0  0  0  0  0  0  0  0  0  0  0  0
   11.5690    0.3400   23.4240 C   0  0  0  0  0  0  0  0  0  0  0  0
   12.4170   -0.3990   24.2180 C   0  0  0  0  0  0  0  0  0  0  0  0
   12.1670   -1.7520   24.5520 C   0  0  0  0  0  0  0  0  0  0  0  0
   13.0680   -2.4140   25.3440 O   0  0  0  0  0  0  0  0  0  0  0  0
   10.9320   -2.4750   24.0490 C   0  0  0  0  0  0  0  0  0  0  0  0
   10.7450   -3.7870   24.4220 O   0  0  0  0  0  0  0  0  0  0  0  0
   11.0480   -1.4740   23.7820 C   0  0  2  0  0  0  0  0  0  0  0  0
   11.8320   -2.3030   22.9360 C   0  0  0  0  0  0  0  0  0  0  0  0
   12.8010   -1.6060   22.0700 N   0  0  0  0  0  0  0  0  0  0  0  0
    9.9640   -2.2930   24.5400 O   0  0  0  0  0  0  0  0  0  0  0  0
    6.5460   -1.8550   24.3150 C   0  0  0  0  0  0  0  0  0  0  0  0
    5.2910   -2.3070   23.8880 C   0  0  0  0  0  0  0  0  0  0  0  0
  1  2  1  0
  2  3  2  0
  2  4  1  0
  5  4  1  6
  5  6  1  0
  6  7  1  0
  8  7  1  6
  8  9  1  0
  9 10  1  6
 10 11  1  0
 11 12  2  0
 12 13  1  0
 13 14  2  0
 14 15  1  0
 15 16  1  0
 11 17  1  0
 15 17  2  0
 17 18  1  0
 12 19  1  0
 19 20  1  6
 20 21  1  0
  9 22  1  0
 19 22  1  0
  8 23  1  0
  5 24  1  0
 23 24  1  0
M  END
