MAK-UNK-516d8086-24-nitrile
     RDKit          3D

 22 24  0  0  0  0  0  0  0  0999 V2000
    6.5760   -4.4520   20.0640 C   0  0  0  0  0  0  0  0  0  0  0  0
    5.3230   -4.6050   19.9560 N   0  0  0  0  0  0  0  0  0  0  0  0
    7.1910   -3.0900   20.5100 C   0  0  0  0  0  0  0  0  0  0  0  0
    6.9320   -2.0200   19.7860 N   0  0  0  0  0  0  0  0  0  0  0  0
    7.4890   -0.7910   20.1990 N   0  0  0  0  0  0  0  0  0  0  0  0
    8.2670   -0.7330   21.3040 C   0  0  0  0  0  0  0  0  0  0  0  0
    8.8070    0.4230   21.7160 N   0  0  0  0  0  0  0  0  0  0  0  0
    7.8380    1.3540   22.2860 C   0  0  0  0  0  0  0  0  0  0  0  0
    7.8280    2.6110   21.4620 C   0  0  0  0  0  0  0  0  0  0  0  0
    8.4840   -1.9230   22.0010 C   0  0  0  0  0  0  0  0  0  0  0  0
    9.2660   -1.9860   23.1510 C   0  0  0  0  0  0  0  0  0  0  0  0
   10.6320   -1.7190   22.9490 C   0  0  0  0  0  0  0  0  0  0  0  0
   12.0820   -1.6100   22.9540 C   0  0  0  0  0  0  0  0  0  0  0  0
   12.9900   -2.2170   23.8040 C   0  0  0  0  0  0  0  0  0  0  0  0
   12.4490   -2.9980   24.7270 C   0  0  0  0  0  0  0  0  0  0  0  0
   11.2860   -3.3200   25.0130 C   0  0  0  0  0  0  0  0  0  0  0  0
   10.4010   -2.6510   24.0900 C   0  0  0  0  0  0  0  0  0  0  0  0
   10.7880   -4.0880   25.9300 C   0  0  0  0  0  0  0  0  0  0  0  0
    9.8540   -4.4400   26.6160 O   0  0  0  0  0  0  0  0  0  0  0  0
   10.2390   -3.0680   25.1700 N   0  0  0  0  0  0  0  0  0  0  0  0
   11.2740   -2.5690   24.1160 C   0  0  0  0  0  0  0  0  0  0  0  0
    7.9490   -3.1040   21.6160 N   0  0  0  0  0  0  0  0  0  0  0  0
  1  2  2  3
  1  3  1  0
  3  4  2  0
  4  5  1  0
  5  6  2  0
  6  7  1  0
  7  8  1  0
  8  9  1  0
  6 10  1  0
 10 11  1  0
 11 12  1  0
 12 13  2  0
 13 14  1  0
 14 15  2  0
 15 16  1  0
 12 17  1  0
 16 17  2  0
 16 18  1  0
 18 19  2  0
 18 20  1  0
 15 21  1  0
 20 21  1  0
  3 22  1  0
 10 22  2  0
M  END
