MAK-UNK-148caf23-15-nitrile
     RDKit          3D

 34 37  0  0  0  0  0  0  0  0999 V2000
    8.5670   -3.6570   19.7970 C   0  0  0  0  0  0  0  0  0  0  0  0
    7.2360   -3.7600   19.7020 N   0  0  0  0  0  0  0  0  0  0  0  0
    9.2490   -2.7200   21.0970 C   0  0  0  0  0  0  0  0  0  0  0  0
    8.3660   -2.2640   22.2100 C   0  0  0  0  0  0  0  0  0  0  0  0
    9.1410   -1.4740   23.2300 C   0  0  0  0  0  0  0  0  0  0  0  0
   10.3450   -0.8650   23.7790 C   0  0  0  0  0  0  0  0  0  0  0  0
    9.2440   -0.6270   24.6020 N   0  0  0  0  0  0  0  0  0  0  0  0
    9.5460   -0.3880   25.9190 C   0  0  0  0  0  0  0  0  0  0  0  0
    8.6570   -0.4920   27.0130 C   0  0  0  0  0  0  0  0  0  0  0  0
    9.0920    0.0470   28.2380 C   0  0  0  0  0  0  0  0  0  0  0  0
    8.3400    0.0530   29.5240 C   0  0  0  0  0  0  0  0  0  0  0  0
    7.0530   -0.5940   29.3340 N   0  0  0  0  0  0  0  0  0  0  0  0
    6.6260   -1.1270   28.1190 C   0  0  0  0  0  0  0  0  0  0  0  0
    7.3510   -1.1080   26.9680 C   0  0  0  0  0  0  0  0  0  0  0  0
    6.5870   -1.8610   25.5510 S   0  0  0  0  0  0  0  0  0  0  0  0
    7.5060   -1.8110   24.4600 O   0  0  0  0  0  0  0  0  0  0  0  0
    6.0830   -3.1480   25.9760 O   0  0  0  0  0  0  0  0  0  0  0  0
    5.1900   -1.0230   25.1910 N   0  0  0  0  0  0  0  0  0  0  0  0
    4.0140   -1.0980   25.9360 C   0  0  0  0  0  0  0  0  0  0  0  0
    2.9400   -0.3600   25.5290 C   0  0  0  0  0  0  0  0  0  0  0  0
    1.6720   -0.2700   26.1030 C   0  0  0  0  0  0  0  0  0  0  0  0
    1.5720   -0.3820   27.4450 N   0  0  0  0  0  0  0  0  0  0  0  0
    1.0150   -1.5280   27.9020 C   0  0  0  0  0  0  0  0  0  0  0  0
    3.5220    0.2540   24.3770 C   0  0  0  0  0  0  0  0  0  0  0  0
    4.8640   -0.1390   24.1760 C   0  0  0  0  0  0  0  0  0  0  0  0
    5.6500    0.3340   23.1120 C   0  0  0  0  0  0  0  0  0  0  0  0
    6.9880    0.7150   23.2940 C   0  0  0  0  0  0  0  0  0  0  0  0
    7.7560    1.1840   22.2230 C   0  0  0  0  0  0  0  0  0  0  0  0
    7.1910    1.2790   20.9560 C   0  0  0  0  0  0  0  0  0  0  0  0
    5.8640    0.9090   20.7510 C   0  0  0  0  0  0  0  0  0  0  0  0
    5.0970    0.4410   21.8190 C   0  0  0  0  0  0  0  0  0  0  0  0
    3.8240    0.0980   21.5890 F   0  0  0  0  0  0  0  0  0  0  0  0
   11.0320   -1.3740   22.6650 N   0  0  0  0  0  0  0  0  0  0  0  0
   10.6010   -2.1660   21.5120 C   0  0  0  0  0  0  0  0  0  0  0  0
  1  2  2  3
  1  3  1  0
  3  4  2  0
  4  5  1  0
  5  6  2  0
  6  7  1  0
  7  8  1  0
  8  9  1  0
  9 10  2  0
 10 11  1  0
 11 12  2  0
 12 13  1  0
  9 14  1  0
 13 14  2  0
 15 14  1  0
 15 16  2  0
 15 17  2  0
 15 18  1  0
 18 19  1  0
 19 20  2  0
 20 21  1  0
 21 22  1  0
 22 23  1  0
 20 24  1  0
 18 25  1  0
 24 25  2  0
 25 26  1  0
 26 27  2  0
 27 28  1  0
 28 29  2  0
 29 30  1  0
 26 31  1  0
 30 31  2  0
 31 32  1  0
  6 33  1  0
  3 34  1  0
 33 34  2  0
M  END
