MAK-UNK-148caf23-5-nitrile
     RDKit          3D

 34 37  0  0  0  0  0  0  0  0999 V2000
    8.2890   -3.3060   19.7860 C   0  0  0  0  0  0  0  0  0  0  0  0
    7.9490   -2.7730   18.5430 N   0  0  0  0  0  0  0  0  0  0  0  0
    9.0550   -2.5600   21.1600 C   0  0  0  0  0  0  0  0  0  0  0  0
    8.2640   -2.1560   22.2170 C   0  0  0  0  0  0  0  0  0  0  0  0
    8.7020   -1.5340   23.3970 C   0  0  0  0  0  0  0  0  0  0  0  0
   10.0150   -1.2230   23.6850 C   0  0  0  0  0  0  0  0  0  0  0  0
   10.2920   -0.5900   24.9200 N   0  0  0  0  0  0  0  0  0  0  0  0
    9.1960   -0.7770   25.9070 C   0  0  0  0  0  0  0  0  0  0  0  0
    9.1990    0.0790   27.1630 C   0  0  0  0  0  0  0  0  0  0  0  0
   10.9570   -1.5820   22.7020 C   0  0  0  0  0  0  0  0  0  0  0  0
   12.4110   -1.3310   22.8500 N   0  0  0  0  0  0  0  0  0  0  0  0
   12.8110    0.0530   23.0460 C   0  0  0  0  0  0  0  0  0  0  0  0
   11.6550    1.0050   22.7890 C   0  0  0  0  0  0  0  0  0  0  0  0
   11.8990    2.4730   22.8820 C   0  0  0  0  0  0  0  0  0  0  0  0
   10.7220    3.0780   22.6380 C   0  0  0  0  0  0  0  0  0  0  0  0
   10.3200    4.5280   22.6480 C   0  0  0  0  0  0  0  0  0  0  0  0
    8.8740    4.6620   22.5550 C   0  0  0  0  0  0  0  0  0  0  0  0
    8.4220    6.1360   22.6020 C   0  0  0  0  0  0  0  0  0  0  0  0
    9.5300    7.1740   22.7430 C   0  0  0  0  0  0  0  0  0  0  0  0
   10.9260    6.8420   22.8250 C   0  0  0  0  0  0  0  0  0  0  0  0
   11.2640    5.5380   22.7650 C   0  0  0  0  0  0  0  0  0  0  0  0
   12.5640    5.2240   22.8380 F   0  0  0  0  0  0  0  0  0  0  0  0
    9.6560    2.0990   22.3550 N   0  0  0  0  0  0  0  0  0  0  0  0
    8.0100    2.2800   21.9940 S   0  0  0  0  0  0  0  0  0  0  0  0
    7.8980    2.1740   20.5610 O   0  0  0  0  0  0  0  0  0  0  0  0
    7.5370    3.4670   22.6690 O   0  0  0  0  0  0  0  0  0  0  0  0
    7.1240    0.9560   22.7300 C   0  0  0  0  0  0  0  0  0  0  0  0
    7.0400    0.8260   24.0980 C   0  0  0  0  0  0  0  0  0  0  0  0
    6.2350   -0.3470   24.6900 C   0  0  0  0  0  0  0  0  0  0  0  0
    5.5960   -1.2710   23.6560 C   0  0  0  0  0  0  0  0  0  0  0  0
    5.7360   -1.0650   22.3290 N   0  0  0  0  0  0  0  0  0  0  0  0
    6.4810    0.0230   21.8990 C   0  0  0  0  0  0  0  0  0  0  0  0
   10.2730    0.8540   22.4560 C   0  0  0  0  0  0  0  0  0  0  0  0
   10.4860   -2.2240   21.5050 C   0  0  0  0  0  0  0  0  0  0  0  0
  1  2  2  3
  1  3  1  0
  3  4  2  0
  4  5  1  0
  5  6  2  0
  6  7  1  0
  7  8  1  0
  8  9  1  0
  6 10  1  0
 10 11  1  0
 11 12  1  0
 12 13  1  0
 13 14  1  0
 14 15  2  0
 15 16  1  0
 16 17  2  0
 17 18  1  0
 18 19  2  0
 19 20  1  0
 16 21  1  0
 20 21  2  0
 21 22  1  0
 15 23  1  0
 23 24  1  0
 24 25  2  0
 24 26  2  0
 24 27  1  0
 27 28  2  0
 28 29  1  0
 29 30  2  0
 30 31  1  0
 27 32  1  0
 31 32  2  0
 13 33  2  0
 23 33  1  0
  3 34  1  0
 10 34  2  0
M  END
