MAK-UNK-516d8086-5-nitrile
     RDKit          3D

 22 24  0  0  0  0  0  0  0  0999 V2000
    6.9340   -3.8770   20.0030 C   0  0  0  0  0  0  0  0  0  0  0  0
    5.8270   -3.5220   19.4370 N   0  0  0  0  0  0  0  0  0  0  0  0
    7.8210   -2.8890   20.8730 C   0  0  0  0  0  0  0  0  0  0  0  0
    7.6750   -1.3760   20.6840 C   0  0  0  0  0  0  0  0  0  0  0  0
    8.3860   -0.4500   21.3850 N   0  0  0  0  0  0  0  0  0  0  0  0
    9.2910   -0.8990   22.3110 C   0  0  0  0  0  0  0  0  0  0  0  0
    9.9880    0.0360   23.0060 N   0  0  0  0  0  0  0  0  0  0  0  0
   11.4580   -0.0630   23.1010 C   0  0  0  0  0  0  0  0  0  0  0  0
   12.0760    1.1860   23.1920 C   0  0  0  0  0  0  0  0  0  0  0  0
    9.5110   -2.3220   22.5690 C   0  0  0  0  0  0  0  0  0  0  0  0
   10.4380   -2.8520   23.5270 C   0  0  0  0  0  0  0  0  0  0  0  0
   11.7160   -2.3590   23.3250 C   0  0  0  0  0  0  0  0  0  0  0  0
   11.0180   -2.2070   22.1870 C   0  0  0  0  0  0  0  0  0  0  0  0
    9.7430   -2.7590   22.3830 C   0  0  0  0  0  0  0  0  0  0  0  0
    9.4380   -3.3510   23.6790 C   0  0  0  0  0  0  0  0  0  0  0  0
   10.3410   -3.4120   24.7750 C   0  0  0  0  0  0  0  0  0  0  0  0
   11.6030   -2.8630   24.5940 C   0  0  0  0  0  0  0  0  0  0  0  0
    9.6260   -4.1110   25.8970 C   0  0  0  0  0  0  0  0  0  0  0  0
   10.0320   -4.3840   27.0000 O   0  0  0  0  0  0  0  0  0  0  0  0
    8.3710   -4.3680   25.3350 C   0  0  0  0  0  0  0  0  0  0  0  0
    8.2310   -3.9450   24.0260 C   0  0  0  0  0  0  0  0  0  0  0  0
    8.7500   -3.2830   21.8270 C   0  0  0  0  0  0  0  0  0  0  0  0
  1  2  2  3
  1  3  1  0
  3  4  2  0
  4  5  1  0
  5  6  2  0
  6  7  1  0
  7  8  1  0
  8  9  1  0
  6 10  1  0
 10 11  1  0
 11 12  1  0
 12 13  2  0
 13 14  1  0
 14 15  2  0
 15 16  1  0
 12 17  1  0
 16 17  2  0
 16 18  1  0
 18 19  2  0
 18 20  1  0
 15 21  1  0
 20 21  1  0
  3 22  1  0
 10 22  2  0
M  END
