MAK-UNK-a7992eb3-14
     RDKit          3D

 27 28  0  0  0  0  0  0  0  0999 V2000
    1.3330   -2.3590   28.6840 C   0  0  0  0  0  0  0  0  0  0  0  0
    0.8440   -2.7080   27.2960 C   0  0  0  0  0  0  0  0  0  0  0  0
   -0.3490   -2.6420   26.9800 O   0  0  0  0  0  0  0  0  0  0  0  0
    1.9060   -3.1310   26.3710 N   0  0  0  0  0  0  0  0  0  0  0  0
    3.2680   -2.9680   26.8870 C   0  0  2  0  0  0  0  0  0  0  0  0
    3.8570   -1.7080   26.8670 C   0  0  0  0  0  0  0  0  0  0  0  0
    5.0520   -1.5200   27.0840 O   0  0  0  0  0  0  0  0  0  0  0  0
    2.9030   -0.6300   26.5730 N   0  0  0  0  0  0  0  0  0  0  0  0
    3.1860    0.7230   26.6570 C   0  0  0  0  0  0  0  0  0  0  0  0
    2.4950    1.5540   25.7690 C   0  0  0  0  0  0  0  0  0  0  0  0
    1.7490    2.6480   26.2250 C   0  0  0  0  0  0  0  0  0  0  0  0
    0.7380    4.1430   26.8410 Br  0  0  0  0  0  0  0  0  0  0  0  0
    4.1750   -3.9570   26.1340 C   0  0  1  0  0  0  0  0  0  0  0  0
    4.3290   -5.3680   26.7620 C   0  0  0  0  0  0  0  0  0  0  0  0
    3.7910   -3.9550   24.9630 O   0  0  0  0  0  0  0  0  0  0  0  0
    4.8280   -4.1030   23.9860 C   0  0  0  0  0  0  0  0  0  0  0  0
    6.2950   -3.9720   24.4080 C   0  0  0  0  0  0  0  0  0  0  0  0
    7.2080   -4.4050   23.2780 C   0  0  0  0  0  0  0  0  0  0  0  0
    6.4700   -4.7350   22.1810 N   0  0  0  0  0  0  0  0  0  0  0  0
    6.7280   -4.2650   20.9000 C   0  0  0  0  0  0  0  0  0  0  0  0
    6.4710   -2.7800   20.5740 C   0  0  0  0  0  0  0  0  0  0  0  0
    7.0890   -1.9710   19.6270 C   0  0  0  0  0  0  0  0  0  0  0  0
    6.6430   -0.6700   19.5510 C   0  0  0  0  0  0  0  0  0  0  0  0
    5.3580   -0.2460   20.6710 S   0  0  0  0  0  0  0  0  0  0  0  0
    5.4210   -1.9380   21.2960 C   0  0  0  0  0  0  0  0  0  0  0  0
    5.4150   -5.6100   22.2040 C   0  0  0  0  0  0  0  0  0  0  0  0
    4.5860   -5.3100   23.2980 C   0  0  0  0  0  0  0  0  0  0  0  0
  1  2  1  0
  2  3  2  0
  2  4  1  0
  5  4  1  6
  5  6  1  0
  6  7  2  0
  6  8  1  0
  8  9  1  0
  9 10  1  0
 10 11  3  0
 11 12  1  0
  5 13  1  0
 13 14  1  1
 13 15  1  0
 15 16  1  0
 16 17  1  0
 17 18  1  0
 18 19  1  0
 19 20  1  0
 20 21  1  0
 21 22  1  0
 22 23  2  0
 23 24  1  0
 21 25  2  0
 24 25  1  0
 19 26  1  0
 16 27  1  0
 26 27  1  0
M  END
