MAK-UNK-750cfbcc-2-nitrile
     RDKit          3D

 12 12  0  0  0  0  0  0  0  0999 V2000
    6.6630   -4.1390   20.1140 C   0  0  0  0  0  0  0  0  0  0  0  0
    5.6120   -3.7070   19.5780 N   0  0  0  0  0  0  0  0  0  0  0  0
    6.9940   -4.2180   21.4360 N   0  0  0  0  0  0  0  0  0  0  0  0
    7.7460   -3.2810   22.1670 C   0  0  0  0  0  0  0  0  0  0  0  0
    7.4970   -3.0710   23.5160 C   0  0  0  0  0  0  0  0  0  0  0  0
    6.3390   -3.6360   24.0150 C   0  0  0  0  0  0  0  0  0  0  0  0
    6.2120   -3.5620   25.4180 C   0  0  0  0  0  0  0  0  0  0  0  0
    5.0740   -3.6470   25.8780 O   0  0  0  0  0  0  0  0  0  0  0  0
    7.2610   -3.3690   26.2680 N   0  0  0  0  0  0  0  0  0  0  0  0
    7.5630   -4.3430   27.1810 C   0  0  0  0  0  0  0  0  0  0  0  0
    6.4010   -5.1290   23.6260 C   0  0  0  0  0  0  0  0  0  0  0  0
    6.6500   -5.3500   22.1350 C   0  0  0  0  0  0  0  0  0  0  0  0
  1  2  2  3
  1  3  1  0
  3  4  1  0
  4  5  1  0
  5  6  1  0
  6  7  1  0
  7  8  2  0
  7  9  1  0
  9 10  1  0
  6 11  1  0
  3 12  1  0
 11 12  1  0
M  END
