MAK-UNK-ec98eaf6-18-nitrile
     RDKit          3D

 20 22  0  0  0  0  0  0  0  0999 V2000
    6.6490   -3.6810   20.0200 C   0  0  0  0  0  0  0  0  0  0  0  0
    5.6980   -4.5080   19.8780 N   0  0  0  0  0  0  0  0  0  0  0  0
    6.7800   -3.1470   21.2410 N   0  0  0  0  0  0  0  0  0  0  0  0
    6.2800   -3.8230   22.4670 C   0  0  0  0  0  0  0  0  0  0  0  0
    7.1060   -3.1150   23.5590 C   0  0  2  0  0  0  0  0  0  0  0  0
    6.5160   -1.7840   23.0050 C   0  0  0  0  0  0  0  0  0  0  0  0
    7.1160   -1.7410   21.6180 C   0  0  1  0  0  0  0  0  0  0  0  0
    8.5310   -1.7320   22.0390 C   0  0  1  0  0  0  0  0  0  0  0  0
    9.1930   -0.4190   21.7350 C   0  0  0  0  0  0  0  0  0  0  0  0
    8.2400   -2.1030   23.4830 N   0  0  0  0  0  0  0  0  0  0  0  0
    9.3880   -2.4690   24.2840 C   0  0  0  0  0  0  0  0  0  0  0  0
    9.6360   -3.8010   24.1260 F   0  0  0  0  0  0  0  0  0  0  0  0
    9.0820   -2.3420   25.5850 F   0  0  0  0  0  0  0  0  0  0  0  0
   10.5690   -1.6660   23.7880 C   0  0  0  0  0  0  0  0  0  0  0  0
   10.7300   -0.3410   24.5630 C   0  0  0  0  0  0  0  0  0  0  0  0
   11.8800    0.5620   24.1180 C   0  0  0  0  0  0  0  0  0  0  0  0
   12.7840    0.1690   23.0120 C   0  0  0  0  0  0  0  0  0  0  0  0
   12.5310   -1.1380   22.3350 C   0  0  0  0  0  0  0  0  0  0  0  0
   13.4650   -1.6810   21.0570 Cl  0  0  0  0  0  0  0  0  0  0  0  0
   11.4100   -2.0020   22.7740 C   0  0  0  0  0  0  0  0  0  0  0  0
  1  2  2  3
  1  3  1  0
  3  4  1  0
  5  4  1  6
  5  6  1  0
  7  3  1  6
  6  7  1  0
  7  8  1  0
  8  9  1  1
  5 10  1  0
  8 10  1  0
 10 11  1  0
 11 12  1  0
 11 13  1  0
 11 14  1  0
 14 15  2  0
 15 16  1  0
 16 17  2  0
 17 18  1  0
 18 19  1  0
 14 20  1  0
 18 20  2  0
M  END
