MAK-UNK-212f693e-15
     RDKit          3D

 15 16  0  0  0  0  0  0  0  0999 V2000
    3.2760   -5.5260   25.8410 C   0  0  0  0  0  0  0  0  0  0  0  0
    4.4020   -4.5740   25.4340 C   0  0  0  0  0  0  0  0  0  0  0  0
    4.5710   -3.5040   26.0190 O   0  0  0  0  0  0  0  0  0  0  0  0
    5.2640   -5.1020   24.2620 C   0  0  0  0  0  0  0  0  0  0  0  0
    6.3690   -4.0920   24.0010 C   0  0  0  0  0  0  0  0  0  0  0  0
    7.1750   -4.5910   22.8490 C   0  0  0  0  0  0  0  0  0  0  0  0
    6.4610   -5.1160   21.8450 N   0  0  0  0  0  0  0  0  0  0  0  0
    5.9960   -4.3620   20.8150 C   0  0  0  0  0  0  0  0  0  0  0  0
    6.5900   -3.1610   20.4430 C   0  0  0  0  0  0  0  0  0  0  0  0
    7.6660   -2.5900   21.0520 C   0  0  0  0  0  0  0  0  0  0  0  0
    8.0170   -1.3950   20.4730 C   0  0  0  0  0  0  0  0  0  0  0  0
    6.9930   -0.9860   19.1450 S   0  0  0  0  0  0  0  0  0  0  0  0
    6.0670   -2.4300   19.3570 C   0  0  0  0  0  0  0  0  0  0  0  0
    5.5520   -6.0680   22.3150 C   0  0  0  0  0  0  0  0  0  0  0  0
    4.4460   -5.4870   22.9780 C   0  0  0  0  0  0  0  0  0  0  0  0
  1  2  1  0
  2  3  2  0
  2  4  1  0
  4  5  1  0
  5  6  1  0
  6  7  1  0
  7  8  1  0
  8  9  1  0
  9 10  1  0
 10 11  2  0
 11 12  1  0
  9 13  2  0
 12 13  1  0
  7 14  1  0
  4 15  1  0
 14 15  1  0
M  END
