MAK-UNK-516d8086-17-chloroacetamide
     RDKit          3D

 23 25  0  0  0  0  0  0  0  0999 V2000
    7.7450   -4.1220   20.5320 C   0  0  0  0  0  0  0  0  0  0  0  0
    6.9780   -2.9340   20.0700 C   0  0  0  0  0  0  0  0  0  0  0  0
    6.0880   -3.0870   19.1660 O   0  0  0  0  0  0  0  0  0  0  0  0
    7.4610   -1.5800   20.8460 C   0  0  0  0  0  0  0  0  0  0  0  0
    7.1410   -0.2040   20.3190 C   0  0  0  0  0  0  0  0  0  0  0  0
    7.5270    0.9440   20.9510 N   0  0  0  0  0  0  0  0  0  0  0  0
    8.2500    0.8590   22.1310 C   0  0  0  0  0  0  0  0  0  0  0  0
    8.6290    2.0710   22.7870 N   0  0  0  0  0  0  0  0  0  0  0  0
    9.9090    2.6740   22.4060 C   0  0  0  0  0  0  0  0  0  0  0  0
   10.9590    1.8510   22.8470 C   0  0  0  0  0  0  0  0  0  0  0  0
    8.6610   -0.3560   22.7990 C   0  0  0  0  0  0  0  0  0  0  0  0
    9.3840   -0.4200   24.0270 C   0  0  0  0  0  0  0  0  0  0  0  0
   10.8100   -0.5150   23.9730 C   0  0  0  0  0  0  0  0  0  0  0  0
   12.2580   -0.7950   23.9850 C   0  0  0  0  0  0  0  0  0  0  0  0
   12.9340   -1.9530   24.3570 C   0  0  0  0  0  0  0  0  0  0  0  0
   12.1280   -2.9060   24.7390 C   0  0  0  0  0  0  0  0  0  0  0  0
   10.9100   -3.0360   24.8530 C   0  0  0  0  0  0  0  0  0  0  0  0
   10.2790   -1.8120   24.4600 C   0  0  0  0  0  0  0  0  0  0  0  0
   10.2440   -4.1680   25.2760 C   0  0  0  0  0  0  0  0  0  0  0  0
    9.1990   -4.7660   25.4810 O   0  0  0  0  0  0  0  0  0  0  0  0
    9.8040   -2.9510   24.8310 N   0  0  0  0  0  0  0  0  0  0  0  0
   10.9750   -2.1430   24.5350 C   0  0  0  0  0  0  0  0  0  0  0  0
    8.2890   -1.5960   22.1870 C   0  0  0  0  0  0  0  0  0  0  0  0
  1  2  1  0
  2  3  2  0
  2  4  1  0
  4  5  2  0
  5  6  1  0
  6  7  2  0
  7  8  1  0
  8  9  1  0
  9 10  1  0
  7 11  1  0
 11 12  1  0
 12 13  1  0
 13 14  2  0
 14 15  1  0
 15 16  2  0
 16 17  1  0
 13 18  1  0
 17 18  2  0
 17 19  1  0
 19 20  2  0
 19 21  1  0
 16 22  1  0
 21 22  1  0
  4 23  1  0
 11 23  2  0
M  END
