MAK-UNK-148caf23-19-nitrile
     RDKit          3D

 34 37  0  0  0  0  0  0  0  0999 V2000
    8.4900   -3.4210   19.7970 C   0  0  0  0  0  0  0  0  0  0  0  0
    7.1800   -3.3120   19.4590 N   0  0  0  0  0  0  0  0  0  0  0  0
    9.2040   -2.5850   21.1820 C   0  0  0  0  0  0  0  0  0  0  0  0
    8.1800   -2.3020   22.2760 C   0  0  0  0  0  0  0  0  0  0  0  0
    8.5130   -1.5830   23.5660 C   0  0  0  0  0  0  0  0  0  0  0  0
    9.8760   -1.1670   23.7020 C   0  0  0  0  0  0  0  0  0  0  0  0
   10.0460   -0.5040   24.9250 N   0  0  0  0  0  0  0  0  0  0  0  0
    8.7860   -0.1350   25.4340 C   0  0  0  0  0  0  0  0  0  0  0  0
    8.4220   -0.2320   26.7940 C   0  0  0  0  0  0  0  0  0  0  0  0
    9.4380    0.0650   27.6690 N   0  0  0  0  0  0  0  0  0  0  0  0
    9.2160    0.0110   29.0440 C   0  0  0  0  0  0  0  0  0  0  0  0
    7.9090   -0.3690   29.6460 C   0  0  0  0  0  0  0  0  0  0  0  0
    6.8370   -0.6750   28.5850 C   0  0  0  0  0  0  0  0  0  0  0  0
    7.1060   -0.5970   27.2480 C   0  0  0  0  0  0  0  0  0  0  0  0
    5.7290   -0.9490   26.1710 S   0  0  0  0  0  0  0  0  0  0  0  0
    4.6160   -1.2170   27.0550 O   0  0  0  0  0  0  0  0  0  0  0  0
    5.6130    0.1580   25.2480 O   0  0  0  0  0  0  0  0  0  0  0  0
    5.9410   -2.2470   25.1530 N   0  0  0  0  0  0  0  0  0  0  0  0
    5.4600   -2.2620   23.8380 C   0  0  0  0  0  0  0  0  0  0  0  0
    5.6910   -3.3840   23.1010 C   0  0  0  0  0  0  0  0  0  0  0  0
    5.3670   -3.7270   21.8250 C   0  0  0  0  0  0  0  0  0  0  0  0
    4.9960   -5.0160   21.6990 N   0  0  0  0  0  0  0  0  0  0  0  0
    5.9600   -5.8880   21.3250 C   0  0  0  0  0  0  0  0  0  0  0  0
    6.3830   -4.1470   24.0440 C   0  0  0  0  0  0  0  0  0  0  0  0
    6.5350   -3.4920   25.2520 C   0  0  0  0  0  0  0  0  0  0  0  0
    7.2000   -4.1770   26.2250 C   0  0  0  0  0  0  0  0  0  0  0  0
    8.3000   -4.9170   25.8100 C   0  0  0  0  0  0  0  0  0  0  0  0
    9.0330   -5.6570   26.7010 C   0  0  0  0  0  0  0  0  0  0  0  0
    8.6510   -5.6510   28.0210 C   0  0  0  0  0  0  0  0  0  0  0  0
    7.5500   -4.9200   28.4610 C   0  0  0  0  0  0  0  0  0  0  0  0
    6.8170   -4.1750   27.5630 C   0  0  0  0  0  0  0  0  0  0  0  0
    5.7540   -3.4750   27.9950 F   0  0  0  0  0  0  0  0  0  0  0  0
   10.7680   -1.4360   22.7250 N   0  0  0  0  0  0  0  0  0  0  0  0
   10.6570   -2.1120   21.4390 C   0  0  0  0  0  0  0  0  0  0  0  0
  1  2  2  3
  1  3  1  0
  3  4  2  0
  4  5  1  0
  5  6  2  0
  6  7  1  0
  7  8  1  0
  8  9  1  0
  9 10  2  0
 10 11  1  0
 11 12  2  0
 12 13  1  0
  9 14  1  0
 13 14  2  0
 15 14  1  0
 15 16  2  0
 15 17  2  0
 15 18  1  0
 18 19  1  0
 19 20  2  0
 20 21  1  0
 21 22  1  0
 22 23  1  0
 20 24  1  0
 18 25  1  0
 24 25  2  0
 25 26  1  0
 26 27  2  0
 27 28  1  0
 28 29  2  0
 29 30  1  0
 26 31  1  0
 30 31  2  0
 31 32  1  0
  6 33  1  0
  3 34  1  0
 33 34  2  0
M  END
