MAK-UNK-516d8086-17-nitrile
     RDKit          3D

 22 24  0  0  0  0  0  0  0  0999 V2000
    6.9020   -3.2920   19.5130 C   0  0  0  0  0  0  0  0  0  0  0  0
    5.8030   -3.1120   18.8860 N   0  0  0  0  0  0  0  0  0  0  0  0
    7.3740   -2.1760   20.4350 C   0  0  0  0  0  0  0  0  0  0  0  0
    6.6630   -0.8210   20.3440 C   0  0  0  0  0  0  0  0  0  0  0  0
    7.0510    0.2770   21.1970 N   0  0  0  0  0  0  0  0  0  0  0  0
    8.0810    0.0760   22.0980 C   0  0  0  0  0  0  0  0  0  0  0  0
    8.4650    1.1360   22.9370 N   0  0  0  0  0  0  0  0  0  0  0  0
    9.6340    1.9150   22.5390 C   0  0  0  0  0  0  0  0  0  0  0  0
   10.2890    2.4730   23.7930 C   0  0  0  0  0  0  0  0  0  0  0  0
    8.8420   -1.2360   22.2470 C   0  0  0  0  0  0  0  0  0  0  0  0
   10.0180   -1.4200   23.2850 C   0  0  0  0  0  0  0  0  0  0  0  0
   11.1770   -1.1600   22.3750 C   0  0  0  0  0  0  0  0  0  0  0  0
   11.1410   -0.0980   23.2130 C   0  0  0  0  0  0  0  0  0  0  0  0
   10.0720   -0.2630   24.2480 C   0  0  0  0  0  0  0  0  0  0  0  0
    9.3390   -1.4750   24.1460 C   0  0  0  0  0  0  0  0  0  0  0  0
    9.4930   -2.5270   23.1800 C   0  0  0  0  0  0  0  0  0  0  0  0
   10.5350   -2.3370   22.1760 C   0  0  0  0  0  0  0  0  0  0  0  0
    8.6520   -3.6640   23.2780 C   0  0  0  0  0  0  0  0  0  0  0  0
    7.7730   -4.4820   23.4870 O   0  0  0  0  0  0  0  0  0  0  0  0
    7.7880   -2.7290   23.9650 N   0  0  0  0  0  0  0  0  0  0  0  0
    8.3450   -1.8150   24.9900 C   0  0  0  0  0  0  0  0  0  0  0  0
    8.4290   -2.3040   21.3820 C   0  0  0  0  0  0  0  0  0  0  0  0
  1  2  2  3
  1  3  1  0
  3  4  2  0
  4  5  1  0
  5  6  2  0
  6  7  1  0
  7  8  1  0
  8  9  1  0
  6 10  1  0
 10 11  1  0
 11 12  1  0
 12 13  2  0
 13 14  1  0
 14 15  2  0
 15 16  1  0
 12 17  1  0
 16 17  2  0
 16 18  1  0
 18 19  2  0
 18 20  1  0
 15 21  1  0
 20 21  1  0
  3 22  1  0
 10 22  2  0
M  END
