MAK-UNK-c44f4be0-14
     RDKit          3D

 32 33  0  0  0  0  0  0  0  0999 V2000
    4.2010    7.7040   23.3600 C   0  0  0  0  0  0  0  0  0  0  0  0
    4.3700    9.4730   23.4080 S   0  0  0  0  0  0  0  0  0  0  0  0
    4.4330    9.8720   24.7920 O   0  0  0  0  0  0  0  0  0  0  0  0
    3.4820   10.0580   22.4310 O   0  0  0  0  0  0  0  0  0  0  0  0
    5.9240    9.6450   22.8120 N   0  0  0  0  0  0  0  0  0  0  0  0
    6.9650   10.1680   23.7340 C   0  0  0  0  0  0  0  0  0  0  0  0
    8.0670    9.1550   24.0060 C   0  0  0  0  0  0  0  0  0  0  0  0
    7.8120    7.7020   23.6590 C   0  0  0  0  0  0  0  0  0  0  0  0
    7.5870    6.7930   24.7000 C   0  0  0  0  0  0  0  0  0  0  0  0
    7.3370    5.4380   24.4490 C   0  0  0  0  0  0  0  0  0  0  0  0
    7.2970    4.9180   23.1490 C   0  0  0  0  0  0  0  0  0  0  0  0
    7.0160    3.5520   23.0270 C   0  0  0  0  0  0  0  0  0  0  0  0
    5.7130    3.1870   23.4450 O   0  0  0  0  0  0  0  0  0  0  0  0
    7.9470    2.6400   22.5680 N   0  0  0  0  0  0  0  0  0  0  0  0
    7.7920    1.2640   23.0820 C   0  0  1  0  0  0  0  0  0  0  0  0
    6.4720    0.6380   22.6390 C   0  0  0  0  0  0  0  0  0  0  0  0
    6.2950    0.6160   21.1360 C   0  0  0  0  0  0  0  0  0  0  0  0
    5.3990    1.5390   20.5180 C   0  0  0  0  0  0  0  0  0  0  0  0
    5.1440    1.6350   19.1580 C   0  0  0  0  0  0  0  0  0  0  0  0
    5.8380    0.7420   18.3870 C   0  0  0  0  0  0  0  0  0  0  0  0
    5.6260    0.8060   17.0750 O   0  0  0  0  0  0  0  0  0  0  0  0
    6.7260   -0.1900   18.9120 C   0  0  0  0  0  0  0  0  0  0  0  0
    6.9820   -0.2840   20.2810 C   0  0  0  0  0  0  0  0  0  0  0  0
    8.9660    0.4050   22.5740 C   0  0  0  0  0  0  0  0  0  0  0  0
    9.9100    0.9030   21.9670 O   0  0  0  0  0  0  0  0  0  0  0  0
    8.9640   -1.0290   22.8350 N   0  0  0  0  0  0  0  0  0  0  0  0
    9.7790   -1.9080   22.1530 C   0  0  0  0  0  0  0  0  0  0  0  0
   11.1670   -1.4080   21.9570 C   0  0  0  0  0  0  0  0  0  0  0  0
   12.1080   -1.8000   23.0470 C   0  0  0  0  0  0  0  0  0  0  0  0
   13.2860   -2.3070   24.4420 Br  0  0  0  0  0  0  0  0  0  0  0  0
    7.5180    5.7680   22.0600 C   0  0  0  0  0  0  0  0  0  0  0  0
    7.7840    7.2120   22.3480 C   0  0  0  0  0  0  0  0  0  0  0  0
  1  2  1  0
  2  3  2  0
  2  4  2  0
  2  5  1  0
  5  6  1  0
  6  7  1  0
  7  8  1  0
  8  9  2  0
  9 10  1  0
 10 11  2  0
 11 12  1  0
 12 13  2  0
 12 14  1  0
 14 15  1  0
 15 16  1  6
 16 17  1  0
 17 18  2  0
 18 19  1  0
 19 20  2  0
 20 21  1  0
 20 22  1  0
 17 23  1  0
 22 23  2  0
 15 24  1  0
 24 25  2  0
 24 26  1  0
 26 27  1  0
 27 28  1  0
 28 29  3  0
 29 30  1  0
 11 31  1  0
  8 32  1  0
 31 32  2  0
M  END
