MAK-UNK-750cfbcc-2-chloroacetamide
     RDKit          3D

 13 13  0  0  0  0  0  0  0  0999 V2000
    7.0580   -3.3150   19.4470 C   0  0  0  0  0  0  0  0  0  0  0  0
    6.3090   -4.2220   20.3840 C   0  0  0  0  0  0  0  0  0  0  0  0
    5.3320   -4.8280   19.9770 O   0  0  0  0  0  0  0  0  0  0  0  0
    6.8330   -4.3420   21.6590 N   0  0  0  0  0  0  0  0  0  0  0  0
    6.6620   -5.4740   22.5140 C   0  0  0  0  0  0  0  0  0  0  0  0
    6.4910   -5.1970   23.8760 C   0  0  0  0  0  0  0  0  0  0  0  0
    6.2380   -3.8550   24.1710 C   0  0  0  0  0  0  0  0  0  0  0  0
    6.0770   -3.6040   25.5370 C   0  0  0  0  0  0  0  0  0  0  0  0
    4.9080   -3.4750   25.9170 O   0  0  0  0  0  0  0  0  0  0  0  0
    7.0870   -3.4820   26.4360 N   0  0  0  0  0  0  0  0  0  0  0  0
    7.1670   -4.4150   27.4390 C   0  0  0  0  0  0  0  0  0  0  0  0
    7.5000   -3.1190   23.7160 C   0  0  0  0  0  0  0  0  0  0  0  0
    7.7160   -3.3170   22.2200 C   0  0  0  0  0  0  0  0  0  0  0  0
  1  2  1  0
  2  3  2  0
  2  4  1  0
  4  5  1  0
  5  6  1  0
  6  7  1  0
  7  8  1  0
  8  9  2  0
  8 10  1  0
 10 11  1  0
  7 12  1  0
  4 13  1  0
 12 13  1  0
M  END
