MAK-UNK-702fb7d3-11-vinylsulfonamide
     RDKit          3D

 44 49  0  0  0  0  0  0  0  0999 V2000
    8.0730   -3.7080   20.2430 C   0  0  0  0  0  0  0  0  0  0  0  0
    6.7560   -2.9740   20.0620 C   0  0  0  0  0  0  0  0  0  0  0  0
    5.9210   -3.3550   21.5510 S   0  0  0  0  0  0  0  0  0  0  0  0
    4.5700   -2.9460   21.5450 O   0  0  0  0  0  0  0  0  0  0  0  0
    6.2050   -4.7520   21.7770 O   0  0  0  0  0  0  0  0  0  0  0  0
    6.8670   -2.4730   22.6270 N   0  0  0  0  0  0  0  0  0  0  0  0
    6.2320   -1.6940   23.7190 C   0  0  0  0  0  0  0  0  0  0  0  0
    5.2850   -2.8320   24.0730 C   0  0  0  0  0  0  0  0  0  0  0  0
    3.8840   -2.2170   24.2300 C   0  0  0  0  0  0  0  0  0  0  0  0
    2.7370   -3.1940   24.5480 C   0  0  0  0  0  0  0  0  0  0  0  0
    3.1440   -4.6680   24.6290 C   0  0  0  0  0  0  0  0  0  0  0  0
    4.6260   -5.0700   24.4400 C   0  0  0  0  0  0  0  0  0  0  0  0
    4.6220   -6.5590   24.5790 N   0  0  0  0  0  0  0  0  0  0  0  0
    3.6740   -7.0180   25.5510 C   0  0  0  0  0  0  0  0  0  0  0  0
    4.2460   -6.4770   26.7540 C   0  0  0  0  0  0  0  0  0  0  0  0
    3.8220   -6.7140   27.9380 C   0  0  0  0  0  0  0  0  0  0  0  0
    4.6650   -6.0170   28.8120 C   0  0  0  0  0  0  0  0  0  0  0  0
    4.5060   -6.0510   30.1490 C   0  0  0  0  0  0  0  0  0  0  0  0
    3.5940   -5.1610   30.8820 C   0  0  0  0  0  0  0  0  0  0  0  0
    3.4270   -5.2100   32.2600 C   0  0  0  0  0  0  0  0  0  0  0  0
    4.1460   -6.1370   33.0000 C   0  0  0  0  0  0  0  0  0  0  0  0
    5.0320   -7.0180   32.3800 C   0  0  0  0  0  0  0  0  0  0  0  0
    5.2160   -6.9800   30.9480 C   0  0  0  0  0  0  0  0  0  0  0  0
    6.0700   -7.8410   30.3880 F   0  0  0  0  0  0  0  0  0  0  0  0
    5.6010   -5.3620   28.0880 N   0  0  0  0  0  0  0  0  0  0  0  0
    6.8710   -4.4020   28.5250 S   0  0  0  0  0  0  0  0  0  0  0  0
    7.5960   -5.3350   29.3150 O   0  0  0  0  0  0  0  0  0  0  0  0
    6.3590   -3.1580   29.0580 O   0  0  0  0  0  0  0  0  0  0  0  0
    7.9640   -4.0890   27.1490 C   0  0  0  0  0  0  0  0  0  0  0  0
    9.0640   -4.9820   27.1010 C   0  0  0  0  0  0  0  0  0  0  0  0
   10.1090   -4.8530   26.0400 C   0  0  0  0  0  0  0  0  0  0  0  0
    9.8340   -3.7250   25.1310 C   0  0  0  0  0  0  0  0  0  0  0  0
    8.7480   -2.9490   25.2820 N   0  0  0  0  0  0  0  0  0  0  0  0
    7.6020   -2.9740   26.2990 C   0  0  0  0  0  0  0  0  0  0  0  0
    5.3570   -5.6280   26.7540 C   0  0  0  0  0  0  0  0  0  0  0  0
    5.6670   -4.1500   24.2000 C   0  0  0  0  0  0  0  0  0  0  0  0
    7.0680   -4.3990   24.0830 C   0  0  1  0  0  0  0  0  0  0  0  0
    7.3780   -5.6510   23.7230 C   0  0  0  0  0  0  0  0  0  0  0  0
    8.6660   -6.0190   23.3860 C   0  0  0  0  0  0  0  0  0  0  0  0
    8.8950   -7.3330   23.0510 C   0  0  0  0  0  0  0  0  0  0  0  0
    7.8600   -8.2440   23.0550 C   0  0  0  0  0  0  0  0  0  0  0  0
    6.6040   -7.8250   23.3940 C   0  0  0  0  0  0  0  0  0  0  0  0
    6.3630   -6.5540   23.7200 C   0  0  0  0  0  0  0  0  0  0  0  0
    7.8090   -3.3930   23.1710 C   0  0  0  0  0  0  0  0  0  0  0  0
  1  2  1  0
  3  2  1  0
  3  4  2  0
  3  5  2  0
  3  6  1  0
  6  7  1  0
  7  8  1  0
  8  9  1  0
  9 10  2  0
 10 11  1  0
 11 12  2  0
 12 13  1  0
 13 14  1  0
 14 15  1  0
 15 16  1  0
 16 17  2  0
 17 18  1  0
 18 19  2  0
 19 20  1  0
 20 21  2  0
 21 22  1  0
 18 23  1  0
 22 23  2  0
 23 24  1  0
 17 25  1  0
 25 26  1  0
 26 27  2  0
 26 28  2  0
 26 29  1  0
 29 30  2  0
 30 31  1  0
 31 32  2  0
 32 33  1  0
 29 34  1  0
 33 34  2  0
 15 35  2  0
 25 35  1  0
  8 36  2  0
 12 36  1  0
 36 37  1  0
 37 38  1  6
 38 39  2  0
 39 40  1  0
 40 41  2  0
 41 42  1  0
 38 43  1  0
 42 43  2  0
  6 44  1  0
 37 44  1  0
M  END
