MAK-UNK-ec98eaf6-50-nitrile
     RDKit          3D

 26 29  0  0  0  0  0  0  0  0999 V2000
    6.6810   -3.6960   19.9950 C   0  0  0  0  0  0  0  0  0  0  0  0
    5.7490   -4.5670   19.9160 N   0  0  0  0  0  0  0  0  0  0  0  0
    6.9010   -3.0750   21.1680 N   0  0  0  0  0  0  0  0  0  0  0  0
    6.9700   -3.7580   22.4560 C   0  0  0  0  0  0  0  0  0  0  0  0
    6.8550   -2.5740   23.4540 C   0  0  2  0  0  0  0  0  0  0  0  0
    5.9590   -1.6210   22.6610 C   0  0  0  0  0  0  0  0  0  0  0  0
    6.8930   -1.6380   21.4410 C   0  0  1  0  0  0  0  0  0  0  0  0
    8.2510   -1.2730   22.0830 C   0  0  0  0  0  0  0  0  0  0  0  0
    8.1240   -1.8090   23.4860 N   0  0  0  0  0  0  0  0  0  0  0  0
    9.3590   -2.4750   23.9170 C   0  0  2  0  0  0  0  0  0  0  0  0
    9.5410   -2.7660   25.4190 C   0  0  0  0  0  0  0  0  0  0  0  0
    9.6370   -4.2180   25.8610 C   0  0  0  0  0  0  0  0  0  0  0  0
    8.5030   -4.5700   26.7810 C   0  0  0  0  0  0  0  0  0  0  0  0
    7.4120   -3.7060   26.9450 C   0  0  0  0  0  0  0  0  0  0  0  0
    6.3590   -4.0520   27.7950 C   0  0  0  0  0  0  0  0  0  0  0  0
    6.3960   -5.2600   28.4790 C   0  0  0  0  0  0  0  0  0  0  0  0
    5.3580   -5.6400   29.3250 C   0  0  0  0  0  0  0  0  0  0  0  0
    7.4820   -6.1070   28.3170 C   0  0  0  0  0  0  0  0  0  0  0  0
    8.5310   -5.7690   27.4740 C   0  0  0  0  0  0  0  0  0  0  0  0
   10.5120   -1.5530   23.5760 C   0  0  0  0  0  0  0  0  0  0  0  0
   10.6850   -0.3030   24.1990 C   0  0  0  0  0  0  0  0  0  0  0  0
   11.7540    0.5620   23.9010 C   0  0  0  0  0  0  0  0  0  0  0  0
   12.6510    0.1470   22.9380 C   0  0  0  0  0  0  0  0  0  0  0  0
   12.4960   -1.0890   22.2840 C   0  0  0  0  0  0  0  0  0  0  0  0
   13.5110   -1.6480   21.0830 Cl  0  0  0  0  0  0  0  0  0  0  0  0
   11.4000   -1.9720   22.6130 C   0  0  0  0  0  0  0  0  0  0  0  0
  1  2  2  3
  1  3  1  0
  3  4  1  0
  5  4  1  6
  5  6  1  0
  3  7  1  0
  6  7  1  0
  7  8  1  1
  5  9  1  0
  8  9  1  0
  9 10  1  0
 10 11  1  1
 11 12  1  0
 12 13  1  0
 13 14  2  0
 14 15  1  0
 15 16  2  0
 16 17  1  0
 16 18  1  0
 13 19  1  0
 18 19  2  0
 10 20  1  0
 20 21  2  0
 21 22  1  0
 22 23  2  0
 23 24  1  0
 24 25  1  0
 20 26  1  0
 24 26  2  0
M  END
