MAK-UNK-198e6d85-16
     RDKit          3D

 21 23  0  0  0  0  0  0  0  0999 V2000
    7.7060   -5.5580   26.3820 N   0  0  0  0  0  0  0  0  0  0  0  0
    8.6160   -6.2280   25.4300 C   0  0  0  0  0  0  0  0  0  0  0  0
    9.1370   -5.2350   24.4670 C   0  0  2  0  0  0  0  0  0  0  0  0
    9.4240   -4.1450   25.0060 O   0  0  0  0  0  0  0  0  0  0  0  0
    9.7710   -2.9860   24.2130 C   0  0  1  0  0  0  0  0  0  0  0  0
   11.1080   -2.8420   24.2590 C   0  0  1  0  0  0  0  0  0  0  0  0
   11.5540   -1.4180   24.1850 C   0  0  0  0  0  0  0  0  0  0  0  0
   12.6740   -0.9650   24.8670 C   0  0  0  0  0  0  0  0  0  0  0  0
   13.5890   -2.0720   25.3920 C   0  0  0  0  0  0  0  0  0  0  0  0
   12.9840   -3.3890   25.7330 C   0  0  0  0  0  0  0  0  0  0  0  0
   11.5110   -3.4460   25.5430 C   0  0  2  0  0  0  0  0  0  0  0  0
   11.0080   -4.7550   25.7430 O   0  0  0  0  0  0  0  0  0  0  0  0
    9.4460   -3.1560   22.8020 C   0  0  0  0  0  0  0  0  0  0  0  0
    8.3960   -3.9700   22.5230 C   0  0  0  0  0  0  0  0  0  0  0  0
    8.1810   -5.0660   23.3080 C   0  0  0  0  0  0  0  0  0  0  0  0
    7.0460   -6.0610   23.0400 C   0  0  0  0  0  0  0  0  0  0  0  0
    6.1370   -5.7630   21.8340 C   0  0  0  0  0  0  0  0  0  0  0  0
    6.4440   -4.5010   21.0220 C   0  0  0  0  0  0  0  0  0  0  0  0
    5.7210   -4.1080   19.9300 O   0  0  0  0  0  0  0  0  0  0  0  0
    7.6080   -3.6520   21.4550 C   0  0  0  0  0  0  0  0  0  0  0  0
    7.8130   -2.5210   20.6840 O   0  0  0  0  0  0  0  0  0  0  0  0
  1  2  1  0
  3  2  1  1
  3  4  1  0
  4  5  1  0
  5  6  1  0
  6  7  1  1
  7  8  1  0
  8  9  1  0
  9 10  1  0
  6 11  1  0
 10 11  1  0
 11 12  1  6
  5 13  1  6
 13 14  1  0
  3 15  1  0
 14 15  2  0
 15 16  1  0
 16 17  2  0
 17 18  1  0
 18 19  1  0
 14 20  1  0
 18 20  2  0
 20 21  1  0
M  END
