MAK-UNK-5d2caa6f-9-chloroacetamide
     RDKit          3D

 26 30  0  0  0  0  0  0  0  0999 V2000
    7.3950   -3.0120   18.9560 C   0  0  0  0  0  0  0  0  0  0  0  0
    6.5090   -3.3780   20.0940 C   0  0  0  0  0  0  0  0  0  0  0  0
    5.5770   -4.1870   19.8610 O   0  0  0  0  0  0  0  0  0  0  0  0
    6.8380   -2.7710   21.3330 N   0  0  0  0  0  0  0  0  0  0  0  0
    6.1950   -1.5350   21.7090 C   0  0  0  0  0  0  0  0  0  0  0  0
    7.1170   -0.8940   22.4680 C   0  0  1  0  0  0  0  0  0  0  0  0
    7.3790   -1.3220   23.7540 C   0  0  0  0  0  0  0  0  0  0  0  0
    8.6620   -2.0470   23.5320 C   0  0  2  0  0  0  0  0  0  0  0  0
    9.8300   -0.9970   23.2610 C   0  0  0  0  0  0  0  0  0  0  0  0
    9.6170    0.3950   23.6930 N   0  0  0  0  0  0  0  0  0  0  0  0
   10.7620    1.3330   23.3610 C   0  0  0  0  0  0  0  0  0  0  0  0
   10.7450    2.8640   23.4380 C   0  0  0  0  0  0  0  0  0  0  0  0
   12.1050    3.5170   23.1980 C   0  0  0  0  0  0  0  0  0  0  0  0
   12.2490    5.0440   23.2170 C   0  0  0  0  0  0  0  0  0  0  0  0
   11.0920    5.8700   23.4540 C   0  0  0  0  0  0  0  0  0  0  0  0
    9.8900    5.2110   23.6520 N   0  0  0  0  0  0  0  0  0  0  0  0
    9.6860    3.7280   23.6440 C   0  0  0  0  0  0  0  0  0  0  0  0
   11.9480    1.0120   22.8490 N   0  0  0  0  0  0  0  0  0  0  0  0
   12.0000   -0.3420   22.4630 C   0  0  0  0  0  0  0  0  0  0  0  0
   13.2840   -0.5770   21.7990 C   0  0  0  0  0  0  0  0  0  0  0  0
   13.4980   -1.8590   21.1590 C   0  0  0  0  0  0  0  0  0  0  0  0
   12.4190   -2.8130   21.3330 C   0  0  0  0  0  0  0  0  0  0  0  0
   11.1590   -2.5120   22.1040 C   0  0  0  0  0  0  0  0  0  0  0  0
   11.0120   -1.3060   22.6050 C   0  0  0  0  0  0  0  0  0  0  0  0
    8.0170   -2.9550   22.3250 C   0  0  2  0  0  0  0  0  0  0  0  0
    8.2860   -1.5630   21.7630 C   0  0  0  0  0  0  0  0  0  0  0  0
  1  2  1  0
  2  3  2  0
  2  4  1  0
  4  5  1  0
  6  5  1  6
  6  7  1  0
  7  8  1  0
  8  9  1  6
  9 10  2  0
 10 11  1  0
 11 12  1  0
 12 13  2  0
 13 14  1  0
 14 15  2  0
 15 16  1  0
 12 17  1  0
 16 17  2  0
 11 18  2  0
 18 19  1  0
 19 20  1  0
 20 21  2  0
 21 22  1  0
 22 23  2  0
  9 24  1  0
 19 24  2  0
 23 24  1  0
 25  4  1  1
  8 25  1  0
  6 26  1  0
 25 26  1  0
M  END
