MAK-UNK-ec98eaf6-3-chloroacetamide
     RDKit          3D

 21 24  0  0  0  0  0  0  0  0999 V2000
    7.3790   -3.0430   18.8760 C   0  0  0  0  0  0  0  0  0  0  0  0
    6.3470   -3.3570   19.9760 C   0  0  0  0  0  0  0  0  0  0  0  0
    5.5070   -4.2490   19.8060 O   0  0  0  0  0  0  0  0  0  0  0  0
    6.3770   -2.6200   21.1460 N   0  0  0  0  0  0  0  0  0  0  0  0
    7.2840   -1.5020   21.2840 C   0  0  0  0  0  0  0  0  0  0  0  0
    8.3280   -2.3200   22.0630 C   0  0  2  0  0  0  0  0  0  0  0  0
    7.5250   -3.6470   22.0220 C   0  0  0  0  0  0  0  0  0  0  0  0
    6.2120   -3.0470   22.5610 C   0  0  1  0  0  0  0  0  0  0  0  0
    7.2110   -3.3890   23.7090 C   0  0  0  0  0  0  0  0  0  0  0  0
    8.2720   -2.3650   23.5250 N   0  0  0  0  0  0  0  0  0  0  0  0
    9.5350   -2.6540   24.2150 C   0  0  1  0  0  0  0  0  0  0  0  0
   10.6290   -1.6470   23.8890 C   0  0  0  0  0  0  0  0  0  0  0  0
   10.8290   -0.4250   24.5600 C   0  0  0  0  0  0  0  0  0  0  0  0
   11.8640    0.4310   24.1500 C   0  0  0  0  0  0  0  0  0  0  0  0
   12.6930    0.0870   23.1050 C   0  0  0  0  0  0  0  0  0  0  0  0
   12.4820   -1.1160   22.4610 C   0  0  0  0  0  0  0  0  0  0  0  0
   13.4370   -1.6130   21.1660 Cl  0  0  0  0  0  0  0  0  0  0  0  0
   11.4740   -1.9650   22.8440 C   0  0  0  0  0  0  0  0  0  0  0  0
    9.4590   -3.1850   25.6130 C   0  0  0  0  0  0  0  0  0  0  0  0
    9.8060   -4.5020   25.3690 C   0  0  0  0  0  0  0  0  0  0  0  0
    9.9750   -4.0590   23.9580 O   0  0  0  0  0  0  0  0  0  0  0  0
  1  2  1  0
  2  3  2  0
  2  4  1  0
  4  5  1  0
  6  5  1  6
  6  7  1  0
  4  8  1  0
  7  8  1  0
  8  9  1  1
  6 10  1  0
  9 10  1  0
 10 11  1  0
 11 12  1  1
 12 13  2  0
 13 14  1  0
 14 15  2  0
 15 16  1  0
 16 17  1  0
 12 18  1  0
 16 18  2  0
 11 19  1  0
 19 20  1  0
 11 21  1  0
 20 21  1  0
M  END
