MAK-UNK-d4768348-1-chloroacetamide
     RDKit          3D

 17 18  0  0  0  0  0  0  0  0999 V2000
    7.2590   -3.4320   19.9200 C   0  0  0  0  0  0  0  0  0  0  0  0
    6.2660   -4.4210   20.5040 C   0  0  0  0  0  0  0  0  0  0  0  0
    5.2340   -4.6520   19.9100 O   0  0  0  0  0  0  0  0  0  0  0  0
    6.5430   -5.0750   21.6820 N   0  0  0  0  0  0  0  0  0  0  0  0
    5.7230   -6.1980   22.0990 C   0  0  0  0  0  0  0  0  0  0  0  0
    4.7400   -5.8060   23.2000 C   0  0  0  0  0  0  0  0  0  0  0  0
    5.4830   -5.1610   24.3150 N   0  0  0  0  0  0  0  0  0  0  0  0
    4.7470   -5.0600   25.8560 S   0  0  0  0  0  0  0  0  0  0  0  0
    4.0730   -6.3240   26.0480 O   0  0  0  0  0  0  0  0  0  0  0  0
    5.7290   -4.5690   26.7910 O   0  0  0  0  0  0  0  0  0  0  0  0
    3.4620   -3.8570   25.7290 C   0  0  0  0  0  0  0  0  0  0  0  0
    3.6580   -2.4740   25.9690 C   0  0  0  0  0  0  0  0  0  0  0  0
    2.6280   -1.4890   25.8960 C   0  0  0  0  0  0  0  0  0  0  0  0
    1.2110   -2.5460   25.4800 S   0  0  0  0  0  0  0  0  0  0  0  0
    1.9820   -4.1180   25.3860 C   0  0  0  0  0  0  0  0  0  0  0  0
    6.3910   -4.0410   23.9240 C   0  0  0  0  0  0  0  0  0  0  0  0
    7.3390   -4.5310   22.8140 C   0  0  0  0  0  0  0  0  0  0  0  0
  1  2  1  0
  2  3  2  0
  2  4  1  0
  4  5  1  0
  5  6  1  0
  6  7  1  0
  7  8  1  0
  8  9  2  0
  8 10  2  0
  8 11  1  0
 11 12  2  0
 12 13  1  0
 13 14  1  0
 11 15  1  0
 14 15  2  0
  7 16  1  0
  4 17  1  0
 16 17  1  0
M  END
