MAK-UNK-e4a48a85-27-vinylsulfonamide
     RDKit          3D

 29 31  0  0  0  0  0  0  0  0999 V2000
    7.2920   -2.7960   18.2390 C   0  0  0  0  0  0  0  0  0  0  0  0
    6.4190   -2.1970   19.2910 C   0  0  0  0  0  0  0  0  0  0  0  0
    5.7460   -3.3740   20.3940 S   0  0  0  0  0  0  0  0  0  0  0  0
    4.6780   -2.8870   21.1750 O   0  0  0  0  0  0  0  0  0  0  0  0
    5.5950   -4.6830   19.8070 O   0  0  0  0  0  0  0  0  0  0  0  0
    6.9500   -3.2510   21.4960 N   0  0  0  0  0  0  0  0  0  0  0  0
    6.5210   -3.5820   22.8210 C   0  0  0  0  0  0  0  0  0  0  0  0
    7.6610   -3.6190   23.6360 C   0  0  0  0  0  0  0  0  0  0  0  0
    8.4250   -2.3220   23.6030 N   0  0  0  0  0  0  0  0  0  0  0  0
    9.5440   -2.2400   24.3270 C   0  0  0  0  0  0  0  0  0  0  0  0
   10.4740   -1.3830   23.8260 C   0  0  0  0  0  0  0  0  0  0  0  0
   11.2670   -1.8250   22.8550 N   0  0  0  0  0  0  0  0  0  0  0  0
   12.3710   -1.0170   22.4960 C   0  0  0  0  0  0  0  0  0  0  0  0
   13.1400   -1.7150   21.3770 C   0  0  0  0  0  0  0  0  0  0  0  0
   12.6200    0.1720   23.0850 N   0  0  0  0  0  0  0  0  0  0  0  0
   11.5820    0.7570   23.7500 C   0  0  0  0  0  0  0  0  0  0  0  0
   11.4550    2.1040   23.8630 O   0  0  0  0  0  0  0  0  0  0  0  0
   10.5670   -0.1480   24.3370 C   0  0  0  0  0  0  0  0  0  0  0  0
    9.7730    0.3140   25.3830 N   0  0  0  0  0  0  0  0  0  0  0  0
    8.3330    0.3350   25.5730 C   0  0  0  0  0  0  0  0  0  0  0  0
    8.1650    0.7710   26.8780 C   0  0  0  0  0  0  0  0  0  0  0  0
    9.0250    0.3030   27.8960 C   0  0  0  0  0  0  0  0  0  0  0  0
    8.9360    0.6890   29.2360 C   0  0  0  0  0  0  0  0  0  0  0  0
    7.9450    1.5950   29.6270 C   0  0  0  0  0  0  0  0  0  0  0  0
    7.0000    2.1180   28.5340 C   0  0  0  0  0  0  0  0  0  0  0  0
    5.9700    3.0450   28.8750 O   0  0  0  0  0  0  0  0  0  0  0  0
    7.1480    1.6860   27.2160 C   0  0  0  0  0  0  0  0  0  0  0  0
    8.6040   -1.8910   22.3700 C   0  0  0  0  0  0  0  0  0  0  0  0
    7.5940   -1.9280   21.4450 C   0  0  0  0  0  0  0  0  0  0  0  0
  1  2  1  0
  3  2  1  0
  3  4  2  0
  3  5  2  0
  3  6  1  0
  6  7  1  0
  7  8  1  0
  8  9  1  0
  9 10  1  0
 10 11  1  0
 11 12  1  0
 12 13  2  0
 13 14  1  0
 13 15  1  0
 15 16  1  0
 16 17  2  0
 11 18  2  0
 16 18  1  0
 18 19  1  0
 19 20  1  0
 20 21  1  0
 21 22  2  0
 22 23  1  0
 23 24  2  0
 24 25  1  0
 25 26  1  0
 21 27  1  0
 25 27  2  0
  9 28  1  0
  6 29  1  0
 28 29  1  0
M  END
