MAK-UNK-bae89c02-2-vinylsulfonamide
     RDKit          3D

 29 32  0  0  0  0  0  0  0  0999 V2000
    7.7980   -3.3870   19.7280 C   0  0  0  0  0  0  0  0  0  0  0  0
    6.9010   -2.4750   18.9770 C   0  0  0  0  0  0  0  0  0  0  0  0
    5.3920   -2.6710   19.8150 S   0  0  0  0  0  0  0  0  0  0  0  0
    4.8870   -3.9750   19.4620 O   0  0  0  0  0  0  0  0  0  0  0  0
    4.6780   -1.4440   19.5860 O   0  0  0  0  0  0  0  0  0  0  0  0
    5.8750   -2.7160   21.4380 N   0  0  0  0  0  0  0  0  0  0  0  0
    5.5090   -1.6150   22.3640 C   0  0  0  0  0  0  0  0  0  0  0  0
    5.6580   -2.2560   23.7170 C   0  0  1  0  0  0  0  0  0  0  0  0
    5.0600   -3.6150   23.3830 C   0  0  0  0  0  0  0  0  0  0  0  0
    5.9900   -3.9630   22.2460 C   0  0  2  0  0  0  0  0  0  0  0  0
    7.3330   -3.8150   22.9310 C   0  0  0  0  0  0  0  0  0  0  0  0
    7.1590   -2.7170   23.9630 C   0  0  1  0  0  0  0  0  0  0  0  0
    8.3150   -1.7710   23.7240 N   0  0  0  0  0  0  0  0  0  0  0  0
    9.6010   -2.4340   23.4660 C   0  0  0  0  0  0  0  0  0  0  0  0
   10.7160   -1.5610   23.3610 C   0  0  0  0  0  0  0  0  0  0  0  0
   11.6630   -1.9020   22.4140 C   0  0  0  0  0  0  0  0  0  0  0  0
   12.8640   -1.1030   22.1830 C   0  0  0  0  0  0  0  0  0  0  0  0
   13.0150    0.0420   22.9660 C   0  0  0  0  0  0  0  0  0  0  0  0
   12.0300    0.3370   23.9070 C   0  0  0  0  0  0  0  0  0  0  0  0
   10.8830   -0.4190   24.1440 C   0  0  0  0  0  0  0  0  0  0  0  0
    9.9520   -0.0520   25.1100 C   0  0  0  0  0  0  0  0  0  0  0  0
    9.1610    0.2240   25.9130 N   0  0  0  0  0  0  0  0  0  0  0  0
    8.1250   -0.4790   22.9150 C   0  0  1  0  0  0  0  0  0  0  0  0
    8.0980   -0.7990   21.5410 C   0  0  0  0  0  0  0  0  0  0  0  0
    7.2340    0.1160   20.6550 C   0  0  0  0  0  0  0  0  0  0  0  0
    7.1140    1.5540   21.1270 C   0  0  1  0  0  0  0  0  0  0  0  0
    5.8940    2.0050   20.5470 O   0  0  0  0  0  0  0  0  0  0  0  0
    6.9060    1.6430   22.6270 C   0  0  0  0  0  0  0  0  0  0  0  0
    7.1040    0.3520   23.4060 C   0  0  0  0  0  0  0  0  0  0  0  0
  1  2  1  0
  3  2  1  0
  3  4  2  0
  3  5  2  0
  3  6  1  0
  6  7  1  0
  8  7  1  6
  8  9  1  0
  6 10  1  0
  9 10  1  0
 10 11  1  1
  8 12  1  0
 11 12  1  0
 12 13  1  6
 13 14  1  0
 14 15  1  0
 15 16  2  0
 16 17  1  0
 17 18  2  0
 18 19  1  0
 15 20  1  0
 19 20  2  0
 20 21  1  0
 21 22  3  0
 23 13  1  1
 23 24  1  0
 24 25  1  0
 25 26  1  0
 26 27  1  6
 26 28  1  0
 23 29  1  0
 28 29  1  0
M  END
