MAK-UNK-0d6072ac-33
     RDKit          3D

 19 21  0  0  0  0  0  0  0  0999 V2000
    5.9850   -3.6060   20.4290 C   0  0  0  0  0  0  0  0  0  0  0  0
    6.4190   -4.6800   21.3980 C   0  0  2  0  0  0  0  0  0  0  0  0
    5.4070   -5.2200   22.3770 C   0  0  0  0  0  0  0  0  0  0  0  0
    5.8980   -6.2470   23.2390 O   0  0  0  0  0  0  0  0  0  0  0  0
    4.1590   -4.6720   22.3610 O   0  0  0  0  0  0  0  0  0  0  0  0
    7.6180   -4.3620   22.2460 C   0  0  0  0  0  0  0  0  0  0  0  0
    8.4060   -4.8510   23.2060 C   0  0  0  0  0  0  0  0  0  0  0  0
    9.4110   -3.7510   23.3890 C   0  0  0  0  0  0  0  0  0  0  0  0
    9.7170   -2.4680   22.9240 N   0  0  0  0  0  0  0  0  0  0  0  0
   10.9130   -2.1500   23.6230 C   0  0  0  0  0  0  0  0  0  0  0  0
   11.6870   -1.0190   23.5540 C   0  0  0  0  0  0  0  0  0  0  0  0
   12.9120   -0.9880   24.3610 C   0  0  0  0  0  0  0  0  0  0  0  0
   13.1850   -2.2390   25.2070 C   0  0  0  0  0  0  0  0  0  0  0  0
   14.4860   -2.5540   26.1810 Cl  0  0  0  0  0  0  0  0  0  0  0  0
   12.2060   -3.3770   25.1970 C   0  0  0  0  0  0  0  0  0  0  0  0
   11.1230   -3.2540   24.3790 C   0  0  0  0  0  0  0  0  0  0  0  0
   10.1960   -4.2800   24.2760 C   0  0  0  0  0  0  0  0  0  0  0  0
    9.0660   -4.5920   23.6010 N   0  0  0  0  0  0  0  0  0  0  0  0
    8.5140   -3.5480   22.5440 N   0  0  0  0  0  0  0  0  0  0  0  0
  2  1  1  1
  2  3  1  0
  3  4  2  0
  3  5  1  0
  2  6  1  0
  6  7  2  0
  7  8  1  0
  8  9  1  0
  9 10  1  0
 10 11  2  0
 11 12  1  0
 12 13  2  0
 13 14  1  0
 13 15  1  0
 10 16  1  0
 15 16  2  0
  8 17  2  0
 16 17  1  0
 17 18  1  0
  6 19  1  0
 18 19  2  0
M  END
