MAK-UNK-ec98eaf6-21-vinylsulfonamide
     RDKit          3D

 24 26  0  0  0  0  0  0  0  0999 V2000
    7.8000   -3.0390   18.4910 C   0  0  0  0  0  0  0  0  0  0  0  0
    7.3230   -2.2810   19.6490 C   0  0  0  0  0  0  0  0  0  0  0  0
    6.3320   -3.3110   20.6910 S   0  0  0  0  0  0  0  0  0  0  0  0
    5.0930   -3.6310   20.0390 O   0  0  0  0  0  0  0  0  0  0  0  0
    7.0800   -4.3320   21.4170 O   0  0  0  0  0  0  0  0  0  0  0  0
    6.1640   -2.1100   21.8060 N   0  0  0  0  0  0  0  0  0  0  0  0
    7.1790   -1.0190   21.5900 C   0  0  0  0  0  0  0  0  0  0  0  0
    7.6350   -0.8530   23.0460 C   0  0  1  0  0  0  0  0  0  0  0  0
    6.3810   -1.2010   23.8580 C   0  0  0  0  0  0  0  0  0  0  0  0
    6.2080   -2.5480   23.2460 C   0  0  2  0  0  0  0  0  0  0  0  0
    7.5740   -3.0890   23.5250 C   0  0  0  0  0  0  0  0  0  0  0  0
    8.4920   -2.0720   23.3210 N   0  0  0  0  0  0  0  0  0  0  0  0
    9.4740   -1.8340   24.3970 C   0  0  0  0  0  0  0  0  0  0  0  0
   10.6180   -0.9600   23.8540 C   0  0  0  0  0  0  0  0  0  0  0  0
   10.2540    0.5020   24.1040 C   0  0  0  0  0  0  0  0  0  0  0  0
   11.2430    1.5720   23.6410 C   0  0  0  0  0  0  0  0  0  0  0  0
   10.8820    3.0190   23.8670 C   0  0  0  0  0  0  0  0  0  0  0  0
   10.5850    4.1250   24.0360 N   0  0  0  0  0  0  0  0  0  0  0  0
   12.4490    1.2350   23.0130 C   0  0  0  0  0  0  0  0  0  0  0  0
   12.7710   -0.2080   22.7850 C   0  0  0  0  0  0  0  0  0  0  0  0
   11.8930   -1.3550   23.1860 C   0  0  0  0  0  0  0  0  0  0  0  0
   12.2470   -2.6370   22.9720 N   0  0  0  0  0  0  0  0  0  0  0  0
   13.1580   -2.7980   21.9150 C   0  0  0  0  0  0  0  0  0  0  0  0
   12.2940   -2.9420   20.7240 C   0  0  0  0  0  0  0  0  0  0  0  0
  1  2  1  0
  3  2  1  0
  3  4  2  0
  3  5  2  0
  3  6  1  0
  6  7  1  0
  8  7  1  6
  8  9  1  0
  6 10  1  0
  9 10  1  0
 10 11  1  6
  8 12  1  0
 11 12  1  0
 12 13  1  0
 13 14  1  0
 14 15  2  0
 15 16  1  0
 16 17  1  0
 17 18  3  0
 16 19  2  0
 19 20  1  0
 14 21  1  0
 20 21  2  0
 21 22  1  0
 22 23  1  0
 23 24  1  0
M  END
