MAK-UNK-6c8f5f75-1-acrylamide
     RDKit          3D

 12 12  0  0  0  0  0  0  0  0999 V2000
    7.3260   -3.0410   18.6040 C   0  0  0  0  0  0  0  0  0  0  0  0
    6.8950   -2.0220   19.6060 C   0  0  0  0  0  0  0  0  0  0  0  0
    6.0350   -2.6580   20.6730 C   0  0  0  0  0  0  0  0  0  0  0  0
    5.0630   -3.3650   20.3810 O   0  0  0  0  0  0  0  0  0  0  0  0
    6.4350   -2.4230   21.9830 N   0  0  0  0  0  0  0  0  0  0  0  0
    6.7910   -3.5790   22.8130 C   0  0  0  0  0  0  0  0  0  0  0  0
    8.1930   -3.6280   22.9760 C   0  0  0  0  0  0  0  0  0  0  0  0
    8.9810   -2.4760   22.4790 C   0  0  0  0  0  0  0  0  0  0  0  0
   10.4170   -2.4600   22.8290 C   0  0  0  0  0  0  0  0  0  0  0  0
   11.2680   -1.7550   22.0250 N   0  0  0  0  0  0  0  0  0  0  0  0
    8.2550   -1.4270   22.9650 C   0  0  0  0  0  0  0  0  0  0  0  0
    7.0770   -1.2270   22.2530 C   0  0  0  0  0  0  0  0  0  0  0  0
  1  2  1  0
  2  3  1  0
  3  4  2  0
  3  5  1  0
  5  6  1  0
  6  7  1  0
  7  8  1  0
  8  9  1  0
  9 10  3  0
  8 11  1  0
  5 12  1  0
 11 12  1  0
M  END
