MAK-UNK-212f693e-11-acrylamide
     RDKit          3D

 16 17  0  0  0  0  0  0  0  0999 V2000
    7.4150   -3.0700   19.0180 C   0  0  0  0  0  0  0  0  0  0  0  0
    6.9620   -3.0530   20.4590 C   0  0  0  0  0  0  0  0  0  0  0  0
    6.0670   -4.2410   20.7400 C   0  0  0  0  0  0  0  0  0  0  0  0
    5.1820   -4.5630   19.9270 O   0  0  0  0  0  0  0  0  0  0  0  0
    6.2780   -4.9410   21.9180 N   0  0  0  0  0  0  0  0  0  0  0  0
    6.9860   -4.2500   23.0210 C   0  0  0  0  0  0  0  0  0  0  0  0
    6.0890   -4.0640   24.2080 C   0  0  0  0  0  0  0  0  0  0  0  0
    5.2410   -5.1350   24.4590 C   0  0  1  0  0  0  0  0  0  0  0  0
    4.4320   -4.9620   25.3950 O   0  0  0  0  0  0  0  0  0  0  0  0
    3.5910   -3.8830   25.4690 C   0  0  0  0  0  0  0  0  0  0  0  0
    3.8670   -2.5360   25.6440 C   0  0  0  0  0  0  0  0  0  0  0  0
    2.7160   -1.7580   25.6770 C   0  0  0  0  0  0  0  0  0  0  0  0
    1.2960   -2.7060   25.4930 S   0  0  0  0  0  0  0  0  0  0  0  0
    2.2110   -4.1580   25.3630 C   0  0  0  0  0  0  0  0  0  0  0  0
    4.6110   -5.5720   23.3180 N   0  0  0  0  0  0  0  0  0  0  0  0
    5.4890   -6.0140   22.3270 C   0  0  0  0  0  0  0  0  0  0  0  0
  1  2  1  0
  2  3  1  0
  3  4  2  0
  3  5  1  0
  5  6  1  0
  6  7  1  0
  7  8  1  0
  8  9  1  1
  9 10  1  0
 10 11  1  0
 11 12  2  0
 12 13  1  0
 10 14  2  0
 13 14  1  0
  8 15  1  0
  5 16  1  0
 15 16  1  0
M  END
