MAK-UNK-01147c51-7
     RDKit          3D

 23 25  0  0  0  0  0  0  0  0999 V2000
    8.5580   -0.8470   24.8150 C   0  0  0  0  0  0  0  0  0  0  0  0
    8.4550   -0.8780   23.3320 C   0  0  1  0  0  0  0  0  0  0  0  0
    9.6470   -0.4910   22.4580 C   0  0  0  0  0  0  0  0  0  0  0  0
   10.9170   -1.3810   22.5350 C   0  0  0  0  0  0  0  0  0  0  0  0
   12.1520   -0.5020   22.6220 C   0  0  0  0  0  0  0  0  0  0  0  0
   12.7730   -0.4330   23.8610 C   0  0  0  0  0  0  0  0  0  0  0  0
   12.9750   -1.6100   24.5730 C   0  0  0  0  0  0  0  0  0  0  0  0
   12.2160   -2.6720   24.1130 C   0  0  0  0  0  0  0  0  0  0  0  0
   10.9160   -2.3380   23.7390 C   0  0  0  0  0  0  0  0  0  0  0  0
    7.9480   -2.2700   22.8470 C   0  0  2  0  0  0  0  0  0  0  0  0
    7.2250   -2.1680   21.6120 C   0  0  0  0  0  0  0  0  0  0  0  0
    6.2660   -3.1560   21.2470 C   0  0  0  0  0  0  0  0  0  0  0  0
    6.0150   -3.8470   22.2410 C   0  0  0  0  0  0  0  0  0  0  0  0
    6.8970   -2.7450   22.1090 C   0  0  0  0  0  0  0  0  0  0  0  0
    7.0820   -2.0040   20.7860 C   0  0  0  0  0  0  0  0  0  0  0  0
    6.4570   -2.2200   19.4500 C   0  0  0  0  0  0  0  0  0  0  0  0
    5.6720   -2.7660   18.4680 O   0  0  0  0  0  0  0  0  0  0  0  0
    5.8180   -3.2150   20.0490 C   0  0  0  0  0  0  0  0  0  0  0  0
    4.9210   -4.0770   19.5120 O   0  0  0  0  0  0  0  0  0  0  0  0
    6.3510   -3.9720   23.5590 C   0  0  1  0  0  0  0  0  0  0  0  0
    7.1130   -5.2850   23.8830 C   0  0  0  0  0  0  0  0  0  0  0  0
    6.9640   -6.3480   22.8740 N   0  0  0  0  0  0  0  0  0  0  0  0
    7.1740   -2.8530   23.9400 O   0  0  0  0  0  0  0  0  0  0  0  0
  2  1  1  1
  2  3  1  0
  3  4  1  0
  4  5  1  0
  5  6  1  0
  6  7  1  0
  7  8  1  0
  4  9  1  0
  8  9  1  0
  2 10  1  0
 10 11  1  6
 11 12  1  0
 12 13  2  0
 13 14  1  0
 14 15  2  0
 15 16  1  0
 16 17  1  0
 12 18  1  0
 16 18  2  0
 18 19  1  0
 13 20  1  0
 20 21  1  6
 21 22  1  0
 10 23  1  0
 20 23  1  0
M  END
