MAK-UNK-8fdbca50-14-acrylamide
     RDKit          3D

 40 43  0  0  0  0  0  0  0  0999 V2000
    8.5390   -3.6220   20.1430 C   0  0  0  0  0  0  0  0  0  0  0  0
    7.0870   -3.1120   19.7300 C   0  0  0  0  0  0  0  0  0  0  0  0
    5.9630   -3.2810   20.8220 C   0  0  0  0  0  0  0  0  0  0  0  0
    5.1700   -3.8220   20.0030 O   0  0  0  0  0  0  0  0  0  0  0  0
    6.9760   -2.6730   21.5380 N   0  0  0  0  0  0  0  0  0  0  0  0
    7.7270   -3.2830   22.4950 C   0  0  0  0  0  0  0  0  0  0  0  0
    6.8680   -3.9500   23.5350 C   0  0  0  0  0  0  0  0  0  0  0  0
    6.1880   -2.8260   24.3150 C   0  0  0  0  0  0  0  0  0  0  0  0
    5.1070   -3.5070   25.2050 C   0  0  0  0  0  0  0  0  0  0  0  0
    5.6070   -2.6530   25.9360 O   0  0  0  0  0  0  0  0  0  0  0  0
    4.8300   -4.2830   24.1600 N   0  0  0  0  0  0  0  0  0  0  0  0
    3.6630   -3.8880   23.5370 C   0  0  0  0  0  0  0  0  0  0  0  0
    4.8440   -5.6710   24.3170 C   0  0  1  0  0  0  0  0  0  0  0  0
    4.8510   -6.6500   23.3700 C   0  0  0  0  0  0  0  0  0  0  0  0
    6.1580   -6.2980   23.9490 C   0  0  0  0  0  0  0  0  0  0  0  0
    7.3250   -5.4930   24.1450 C   0  0  0  0  0  0  0  0  0  0  0  0
    8.5650   -6.0930   23.7890 C   0  0  0  0  0  0  0  0  0  0  0  0
    8.6350   -7.3570   23.2840 C   0  0  0  0  0  0  0  0  0  0  0  0
    9.8960   -7.6440   22.9990 F   0  0  0  0  0  0  0  0  0  0  0  0
    7.5340   -8.2580   23.0410 C   0  0  0  0  0  0  0  0  0  0  0  0
    7.7680   -9.7280   22.4630 C   0  0  0  0  0  0  0  0  0  0  0  0
    7.8110  -10.1740   23.2830 C   0  0  0  0  0  0  0  0  0  0  0  0
    8.0270  -11.4800   23.6530 C   0  0  0  0  0  0  0  0  0  0  0  0
    8.1010  -12.3510   25.3560 C   0  0  0  0  0  0  0  0  0  0  0  0
    6.3990  -13.3930   26.3920 N   0  0  0  0  0  0  0  0  0  0  0  0
    5.0680  -13.8840   26.2570 C   0  0  0  0  0  0  0  0  0  0  0  0
    8.0200  -12.1800   22.5580 C   0  0  0  0  0  0  0  0  0  0  0  0
    8.0230  -11.1700   21.7680 N   0  0  0  0  0  0  0  0  0  0  0  0
    8.5830  -12.0310   20.4040 S   0  0  0  0  0  0  0  0  0  0  0  0
    7.5810  -12.1800   19.8770 O   0  0  0  0  0  0  0  0  0  0  0  0
    9.6430  -12.8940   20.6140 O   0  0  0  0  0  0  0  0  0  0  0  0
    9.3370  -10.8390   19.7670 C   0  0  0  0  0  0  0  0  0  0  0  0
   10.0110   -9.6440   20.5130 C   0  0  0  0  0  0  0  0  0  0  0  0
   10.0620   -8.7810   19.6050 C   0  0  0  0  0  0  0  0  0  0  0  0
    9.6680   -9.0330   18.5370 C   0  0  0  0  0  0  0  0  0  0  0  0
    9.2320  -10.0920   17.9880 N   0  0  0  0  0  0  0  0  0  0  0  0
    9.0590  -11.0250   18.6380 C   0  0  0  0  0  0  0  0  0  0  0  0
    6.2990   -7.6170   23.4380 C   0  0  0  0  0  0  0  0  0  0  0  0
    5.6060   -1.7420   23.3690 C   0  0  0  0  0  0  0  0  0  0  0  0
    6.4870   -1.4430   22.1460 C   0  0  0  0  0  0  0  0  0  0  0  0
  1  2  1  0
  2  3  1  0
  3  4  2  0
  3  5  1  0
  5  6  1  0
  6  7  1  0
  7  8  1  0
  8  9  1  0
  9 10  2  0
  9 11  1  0
 11 12  1  0
 11 13  1  0
 13 14  1  6
 13 15  1  0
 15 16  2  0
 16 17  1  0
 17 18  2  0
 18 19  1  0
 18 20  1  0
 20 21  1  0
 21 22  2  0
 22 23  1  0
 23 24  1  0
 24 25  1  0
 25 26  1  0
 23 27  2  0
 21 28  1  0
 27 28  1  0
 28 29  1  0
 29 30  2  0
 29 31  2  0
 29 32  1  0
 32 33  2  0
 33 34  1  0
 34 35  2  0
 35 36  1  0
 32 37  1  0
 36 37  2  0
 15 38  1  0
 20 38  2  0
  8 39  1  0
  5 40  1  0
 39 40  1  0
M  END
