MAK-UNK-e4a48a85-23-vinylsulfonamide
     RDKit          3D

 25 27  0  0  0  0  0  0  0  0999 V2000
    7.9320   -3.4010   19.7220 C   0  0  0  0  0  0  0  0  0  0  0  0
    6.8030   -2.7360   19.0310 C   0  0  0  0  0  0  0  0  0  0  0  0
    5.4890   -3.4320   19.9260 S   0  0  0  0  0  0  0  0  0  0  0  0
    4.2720   -3.1520   19.2990 O   0  0  0  0  0  0  0  0  0  0  0  0
    5.7430   -4.8290   20.0920 O   0  0  0  0  0  0  0  0  0  0  0  0
    5.6000   -2.6190   21.3870 N   0  0  0  0  0  0  0  0  0  0  0  0
    6.6010   -1.5540   21.5060 C   0  0  0  0  0  0  0  0  0  0  0  0
    7.7450   -1.9860   22.2370 C   0  0  0  0  0  0  0  0  0  0  0  0
    7.3460   -2.6300   23.5430 N   0  0  0  0  0  0  0  0  0  0  0  0
    8.2340   -2.7270   24.5350 C   0  0  0  0  0  0  0  0  0  0  0  0
    9.2790   -1.9250   24.2080 C   0  0  0  0  0  0  0  0  0  0  0  0
   10.3680   -2.5450   23.7060 N   0  0  0  0  0  0  0  0  0  0  0  0
   11.4810   -1.7900   23.2840 C   0  0  0  0  0  0  0  0  0  0  0  0
   11.2450   -0.3250   23.4840 C   0  0  0  0  0  0  0  0  0  0  0  0
   12.1480    0.5040   23.1160 C   0  0  0  0  0  0  0  0  0  0  0  0
   12.0880    1.8570   23.4850 C   0  0  0  0  0  0  0  0  0  0  0  0
   13.0920    2.5440   22.9970 C   0  0  0  0  0  0  0  0  0  0  0  0
   14.1530    1.5710   22.0560 S   0  0  0  0  0  0  0  0  0  0  0  0
   13.2260    0.1910   22.3390 C   0  0  0  0  0  0  0  0  0  0  0  0
   10.1010    0.2150   24.0320 C   0  0  0  0  0  0  0  0  0  0  0  0
    9.9180    1.6640   24.2200 N   0  0  0  0  0  0  0  0  0  0  0  0
    9.5970    2.3630   22.9670 C   0  0  0  0  0  0  0  0  0  0  0  0
    9.1140   -0.6060   24.3950 N   0  0  0  0  0  0  0  0  0  0  0  0
    6.6280   -3.8470   23.3380 C   0  0  0  0  0  0  0  0  0  0  0  0
    5.3580   -3.4990   22.5450 C   0  0  0  0  0  0  0  0  0  0  0  0
  1  2  1  0
  3  2  1  0
  3  4  2  0
  3  5  2  0
  3  6  1  0
  6  7  1  0
  7  8  1  0
  8  9  1  0
  9 10  1  0
 10 11  1  0
 11 12  2  0
 12 13  1  0
 13 14  2  0
 14 15  1  0
 15 16  1  0
 16 17  2  0
 17 18  1  0
 15 19  2  0
 18 19  1  0
 14 20  1  0
 20 21  1  0
 21 22  1  0
 11 23  1  0
 20 23  2  0
  9 24  1  0
  6 25  1  0
 24 25  1  0
M  END
