MAK-UNK-6c8f5f75-5-nitrile
     RDKit          3D

 11 11  0  0  0  0  0  0  0  0999 V2000
    6.8220   -3.9910   20.3040 C   0  0  0  0  0  0  0  0  0  0  0  0
    5.6580   -4.2580   19.8460 N   0  0  0  0  0  0  0  0  0  0  0  0
    7.0810   -3.9330   21.6590 N   0  0  0  0  0  0  0  0  0  0  0  0
    7.9420   -3.0550   22.2050 C   0  0  0  0  0  0  0  0  0  0  0  0
    9.2190   -2.4690   22.0930 C   0  0  0  0  0  0  0  0  0  0  0  0
    8.2700   -1.9840   23.2200 C   0  0  1  0  0  0  0  0  0  0  0  0
    8.1580   -0.4490   23.1940 C   0  0  0  0  0  0  0  0  0  0  0  0
    8.0980    0.7080   23.0790 N   0  0  0  0  0  0  0  0  0  0  0  0
    6.5370   -2.7170   22.7130 S   0  0  0  0  0  0  0  0  0  0  0  0
    5.8260   -1.7060   21.9570 O   0  0  0  0  0  0  0  0  0  0  0  0
    5.9520   -3.3230   23.8870 O   0  0  0  0  0  0  0  0  0  0  0  0
  1  2  2  3
  1  3  1  0
  3  4  1  0
  4  5  2  0
  5  6  1  0
  6  7  1  6
  7  8  3  0
  9  3  1  0
  6  9  1  0
  9 10  2  0
  9 11  2  0
M  END
