MAK-UNK-f983951f-2-vinylsulfonamide
     RDKit          3D

 19 21  0  0  0  0  0  0  0  0999 V2000
    7.1750   -3.5290   19.7150 C   0  0  0  0  0  0  0  0  0  0  0  0
    7.1220   -3.0360   21.1360 C   0  0  0  0  0  0  0  0  0  0  0  0
    5.5170   -2.3530   21.3270 S   0  0  0  0  0  0  0  0  0  0  0  0
    4.6740   -3.3820   21.9060 O   0  0  0  0  0  0  0  0  0  0  0  0
    5.1760   -1.7100   20.0830 O   0  0  0  0  0  0  0  0  0  0  0  0
    5.7740   -1.0950   22.4010 N   0  0  0  0  0  0  0  0  0  0  0  0
    6.1830   -1.3790   23.7530 C   0  0  0  0  0  0  0  0  0  0  0  0
    7.1860   -2.0260   24.0100 O   0  0  0  0  0  0  0  0  0  0  0  0
    5.3320   -0.8390   24.6850 N   0  0  0  0  0  0  0  0  0  0  0  0
    4.3740   -1.6460   25.4530 C   0  0  1  0  0  0  0  0  0  0  0  0
    3.8560   -2.6600   24.6300 C   0  0  0  0  0  0  0  0  0  0  0  0
    2.9470   -3.4940   25.2950 C   0  0  2  0  0  0  0  0  0  0  0  0
    1.7940   -2.7420   25.7420 C   0  0  0  0  0  0  0  0  0  0  0  0
    2.1830   -1.7700   26.6730 C   0  0  1  0  0  0  0  0  0  0  0  0
    3.0160   -2.3030   27.6220 C   0  0  0  0  0  0  0  0  0  0  0  0
    4.0840   -3.0880   27.2930 C   0  0  1  0  0  0  0  0  0  0  0  0
    3.6340   -4.0500   26.3910 C   0  0  0  0  0  0  0  0  0  0  0  0
    5.0550   -2.2780   26.7010 C   0  0  0  0  0  0  0  0  0  0  0  0
    3.1240   -0.8180   25.9120 C   0  0  0  0  0  0  0  0  0  0  0  0
  1  2  1  0
  2  3  1  0
  3  4  2  0
  3  5  2  0
  3  6  1  0
  6  7  1  0
  7  8  2  0
  7  9  1  0
 10  9  1  6
 10 11  1  0
 12 11  1  1
 12 13  1  0
 14 13  1  6
 14 15  1  0
 16 15  1  6
 12 17  1  0
 16 17  1  0
 10 18  1  0
 16 18  1  0
 10 19  1  0
 14 19  1  0
M  END
