MAK-UNK-e4a48a85-23-vinylsulfonamide
     RDKit          3D

 25 27  0  0  0  0  0  0  0  0999 V2000
    7.9340   -3.4640   19.8340 C   0  0  0  0  0  0  0  0  0  0  0  0
    6.7860   -2.6560   19.2600 C   0  0  0  0  0  0  0  0  0  0  0  0
    5.4390   -3.5040   19.9700 S   0  0  0  0  0  0  0  0  0  0  0  0
    4.2730   -3.2090   19.2580 O   0  0  0  0  0  0  0  0  0  0  0  0
    5.7240   -4.9000   20.0760 O   0  0  0  0  0  0  0  0  0  0  0  0
    5.2750   -2.8470   21.4840 N   0  0  0  0  0  0  0  0  0  0  0  0
    5.9030   -1.5710   21.8250 C   0  0  0  0  0  0  0  0  0  0  0  0
    7.1690   -2.0300   22.5520 C   0  0  0  0  0  0  0  0  0  0  0  0
    6.7230   -2.7290   23.8010 N   0  0  0  0  0  0  0  0  0  0  0  0
    7.6950   -2.9160   24.8500 C   0  0  0  0  0  0  0  0  0  0  0  0
    8.7960   -1.9580   24.4960 C   0  0  0  0  0  0  0  0  0  0  0  0
    9.8690   -2.7810   23.8640 N   0  0  0  0  0  0  0  0  0  0  0  0
   10.9590   -1.9480   23.4280 C   0  0  0  0  0  0  0  0  0  0  0  0
   10.8630   -0.4520   23.6660 C   0  0  0  0  0  0  0  0  0  0  0  0
   11.8940    0.5000   23.2410 C   0  0  0  0  0  0  0  0  0  0  0  0
   11.7920    1.9290   23.6080 C   0  0  0  0  0  0  0  0  0  0  0  0
   12.9840    2.4950   22.9890 C   0  0  0  0  0  0  0  0  0  0  0  0
   14.0240    1.4650   22.1040 S   0  0  0  0  0  0  0  0  0  0  0  0
   13.0780    0.0840   22.4130 C   0  0  0  0  0  0  0  0  0  0  0  0
    9.6570    0.1500   24.3620 C   0  0  0  0  0  0  0  0  0  0  0  0
    9.5670    1.4780   24.5840 N   0  0  0  0  0  0  0  0  0  0  0  0
    8.3450    1.9340   24.8890 C   0  0  0  0  0  0  0  0  0  0  0  0
    8.6710   -0.6380   24.7480 N   0  0  0  0  0  0  0  0  0  0  0  0
    6.0310   -4.0140   23.5160 C   0  0  0  0  0  0  0  0  0  0  0  0
    4.8810   -3.7800   22.5350 C   0  0  0  0  0  0  0  0  0  0  0  0
  1  2  1  0
  3  2  1  0
  3  4  2  0
  3  5  2  0
  3  6  1  0
  6  7  1  0
  7  8  1  0
  8  9  1  0
  9 10  1  0
 10 11  1  0
 11 12  2  0
 12 13  1  0
 13 14  2  0
 14 15  1  0
 15 16  1  0
 16 17  2  0
 17 18  1  0
 15 19  2  0
 18 19  1  0
 14 20  1  0
 20 21  1  0
 21 22  1  0
 11 23  1  0
 20 23  2  0
  9 24  1  0
  6 25  1  0
 24 25  1  0
M  END
