MAK-UNK-f983951f-1-vinylsulfonamide
     RDKit          3D

 16 18  0  0  0  0  0  0  0  0999 V2000
    7.1460   -4.4060   20.9000 C   0  0  0  0  0  0  0  0  0  0  0  0
    5.6680   -4.6980   20.8340 C   0  0  0  0  0  0  0  0  0  0  0  0
    5.1530   -5.5480   22.3110 S   0  0  0  0  0  0  0  0  0  0  0  0
    3.7190   -5.6430   22.2970 O   0  0  0  0  0  0  0  0  0  0  0  0
    6.0200   -6.6900   22.4850 O   0  0  0  0  0  0  0  0  0  0  0  0
    5.5400   -4.5070   23.5550 N   0  0  0  0  0  0  0  0  0  0  0  0
    4.5110   -3.9820   24.4520 C   0  0  2  0  0  0  0  0  0  0  0  0
    4.1020   -2.6450   24.2190 C   0  0  0  0  0  0  0  0  0  0  0  0
    3.2980   -2.0390   25.2310 C   0  0  1  0  0  0  0  0  0  0  0  0
    2.0840   -2.7220   25.4280 C   0  0  0  0  0  0  0  0  0  0  0  0
    2.3400   -4.0940   25.6980 C   0  0  2  0  0  0  0  0  0  0  0  0
    3.1790   -4.2700   26.7860 C   0  0  0  0  0  0  0  0  0  0  0  0
    4.3100   -3.4640   26.7380 C   0  0  2  0  0  0  0  0  0  0  0  0
    4.0050   -2.1380   26.4240 C   0  0  0  0  0  0  0  0  0  0  0  0
    5.1930   -4.0120   25.8250 C   0  0  0  0  0  0  0  0  0  0  0  0
    3.1830   -4.7860   24.5720 C   0  0  0  0  0  0  0  0  0  0  0  0
  1  2  1  0
  2  3  1  0
  3  4  2  0
  3  5  2  0
  3  6  1  0
  7  6  1  6
  7  8  1  0
  9  8  1  6
  9 10  1  0
 11 10  1  6
 11 12  1  0
 13 12  1  6
  9 14  1  0
 13 14  1  0
  7 15  1  0
 13 15  1  0
  7 16  1  0
 11 16  1  0
M  END
