MAK-UNK-e4a48a85-1-acrylamide
     RDKit          3D

 21 22  0  0  0  0  0  0  0  0999 V2000
    7.9260   -3.2980   19.1380 C   0  0  0  0  0  0  0  0  0  0  0  0
    6.7330   -2.4440   18.8700 C   0  0  0  0  0  0  0  0  0  0  0  0
    5.7330   -2.7920   19.9120 C   0  0  0  0  0  0  0  0  0  0  0  0
    4.8540   -3.5920   19.6130 O   0  0  0  0  0  0  0  0  0  0  0  0
    5.9270   -2.2470   21.1800 N   0  0  0  0  0  0  0  0  0  0  0  0
    6.7910   -1.0590   21.2500 C   0  0  0  0  0  0  0  0  0  0  0  0
    8.2270   -1.3750   21.6940 C   0  0  0  0  0  0  0  0  0  0  0  0
    8.1410   -2.0140   23.0390 N   0  0  0  0  0  0  0  0  0  0  0  0
    9.4900   -2.3120   23.5610 C   0  0  0  0  0  0  0  0  0  0  0  0
   10.4850   -1.2750   23.0240 C   0  0  2  0  0  0  0  0  0  0  0  0
   11.9000   -1.6610   22.9820 N   0  0  0  0  0  0  0  0  0  0  0  0
   10.2820    0.0470   23.7040 C   0  0  0  0  0  0  0  0  0  0  0  0
    9.2340    0.3080   24.2900 O   0  0  0  0  0  0  0  0  0  0  0  0
   11.4250    0.9290   23.5780 N   0  0  0  0  0  0  0  0  0  0  0  0
   11.2990    2.2790   23.5470 C   0  0  0  0  0  0  0  0  0  0  0  0
   12.2280    3.1450   22.9250 C   0  0  0  0  0  0  0  0  0  0  0  0
   11.9910    4.4900   22.9590 C   0  0  0  0  0  0  0  0  0  0  0  0
   10.5240    4.8380   23.8060 S   0  0  0  0  0  0  0  0  0  0  0  0
   10.2140    3.1710   24.1210 C   0  0  0  0  0  0  0  0  0  0  0  0
    7.3070   -3.2380   22.9430 C   0  0  0  0  0  0  0  0  0  0  0  0
    5.9960   -2.9610   22.4950 C   0  0  0  0  0  0  0  0  0  0  0  0
  1  2  1  0
  2  3  1  0
  3  4  2  0
  3  5  1  0
  5  6  1  0
  6  7  1  0
  7  8  1  0
  8  9  1  0
  9 10  1  0
 10 11  1  1
 10 12  1  0
 12 13  2  0
 12 14  1  0
 14 15  1  0
 15 16  1  0
 16 17  2  0
 17 18  1  0
 15 19  2  0
 18 19  1  0
  8 20  1  0
  5 21  1  0
 20 21  1  0
M  END
