MAK-UNK-d4768348-3-chloroacetamide
     RDKit          3D

 17 18  0  0  0  0  0  0  0  0999 V2000
    7.2020   -3.3890   19.8870 C   0  0  0  0  0  0  0  0  0  0  0  0
    6.2720   -4.4220   20.4990 C   0  0  0  0  0  0  0  0  0  0  0  0
    5.2460   -4.7060   19.9230 O   0  0  0  0  0  0  0  0  0  0  0  0
    6.5850   -5.0480   21.6900 N   0  0  0  0  0  0  0  0  0  0  0  0
    5.7600   -6.1680   22.0900 C   0  0  0  0  0  0  0  0  0  0  0  0
    4.7860   -5.7750   23.1990 C   0  0  0  0  0  0  0  0  0  0  0  0
    5.5240   -5.1330   24.3150 N   0  0  0  0  0  0  0  0  0  0  0  0
    4.7670   -5.0550   25.8480 S   0  0  0  0  0  0  0  0  0  0  0  0
    4.0920   -6.3220   26.0030 O   0  0  0  0  0  0  0  0  0  0  0  0
    5.7350   -4.5870   26.8070 O   0  0  0  0  0  0  0  0  0  0  0  0
    3.4820   -3.8380   25.7300 C   0  0  0  0  0  0  0  0  0  0  0  0
    3.6940   -2.3870   25.9740 N   0  0  0  0  0  0  0  0  0  0  0  0
    2.6180   -1.5050   25.8870 C   0  0  0  0  0  0  0  0  0  0  0  0
    1.2380   -2.6000   25.4860 S   0  0  0  0  0  0  0  0  0  0  0  0
    2.0230   -4.1760   25.3980 C   0  0  0  0  0  0  0  0  0  0  0  0
    6.3400   -4.1510   23.8660 C   0  0  0  0  0  0  0  0  0  0  0  0
    7.2970   -4.4970   22.7300 C   0  0  0  0  0  0  0  0  0  0  0  0
  1  2  1  0
  2  3  2  0
  2  4  1  0
  4  5  1  0
  5  6  1  0
  6  7  1  0
  7  8  1  0
  8  9  2  0
  8 10  2  0
  8 11  1  0
 11 12  2  0
 12 13  1  0
 13 14  1  0
 11 15  1  0
 14 15  2  0
  7 16  1  0
  4 17  1  0
 16 17  1  0
M  END
