MAK-UNK-0b1cbb06-4
     RDKit          3D

 16 17  0  0  0  0  0  0  0  0999 V2000
    8.4200   -0.7690   24.8220 N   0  0  0  0  0  0  0  0  0  0  0  0
    9.6370   -0.1690   25.0230 C   0  0  0  0  0  0  0  0  0  0  0  0
   10.5260   -0.2160   23.9600 N   0  0  0  0  0  0  0  0  0  0  0  0
   11.2250   -1.3680   23.7980 C   0  0  0  0  0  0  0  0  0  0  0  0
   12.2880   -1.4950   22.6960 C   0  0  0  0  0  0  0  0  0  0  0  0
   13.2330   -0.3200   22.8130 C   0  0  0  0  0  0  0  0  0  0  0  0
   12.4990    0.9700   23.0210 C   0  0  0  0  0  0  0  0  0  0  0  0
   13.0370    2.2140   22.6870 C   0  0  0  0  0  0  0  0  0  0  0  0
   12.3810    3.4240   22.8610 C   0  0  0  0  0  0  0  0  0  0  0  0
   11.1030    3.3690   23.4120 C   0  0  0  0  0  0  0  0  0  0  0  0
   10.2420    4.8460   23.6520 S   0  0  0  0  0  0  0  0  0  0  0  0
   11.3840    6.0200   23.2490 N   0  0  0  0  0  0  0  0  0  0  0  0
    9.1840    4.9100   22.6840 O   0  0  0  0  0  0  0  0  0  0  0  0
    9.9070    5.0110   25.0430 O   0  0  0  0  0  0  0  0  0  0  0  0
   10.5020    2.1530   23.7740 C   0  0  0  0  0  0  0  0  0  0  0  0
   11.2090    0.9480   23.5740 C   0  0  0  0  0  0  0  0  0  0  0  0
  1  2  1  0
  2  3  1  0
  3  4  1  0
  4  5  1  0
  5  6  1  0
  6  7  1  0
  7  8  1  0
  8  9  2  0
  9 10  1  0
 10 11  1  0
 11 12  1  0
 11 13  2  0
 11 14  2  0
 10 15  2  0
  3 16  1  0
  7 16  2  0
 15 16  1  0
M  END
