MAK-UNK-f983951f-6
     RDKit          3D

 11 11  0  0  0  0  0  0  0  0999 V2000
    6.6160   -2.1370   19.3970 C   0  0  0  0  0  0  0  0  0  0  0  0
    7.0530   -2.8920   20.6530 C   0  0  1  0  0  0  0  0  0  0  0  0
    6.8480   -1.8250   22.0640 Cl  0  0  0  0  0  0  0  0  0  0  0  0
    6.2620   -4.1810   20.7810 C   0  0  0  0  0  0  0  0  0  0  0  0
    5.3310   -4.3890   19.7130 O   0  0  0  0  0  0  0  0  0  0  0  0
    6.5090   -5.0020   21.8660 N   0  0  0  0  0  0  0  0  0  0  0  0
    5.6120   -6.0340   22.3180 C   0  0  0  0  0  0  0  0  0  0  0  0
    4.7590   -5.5110   23.3040 C   0  0  0  0  0  0  0  0  0  0  0  0
    5.4840   -4.9440   24.4060 O   0  0  0  0  0  0  0  0  0  0  0  0
    6.4200   -3.9440   23.9870 C   0  0  0  0  0  0  0  0  0  0  0  0
    7.2880   -4.4810   22.9870 C   0  0  0  0  0  0  0  0  0  0  0  0
  2  1  1  6
  2  3  1  0
  2  4  1  0
  4  5  2  0
  4  6  1  0
  6  7  1  0
  7  8  1  0
  8  9  1  0
  9 10  1  0
  6 11  1  0
 10 11  1  0
M  END
