MAK-UNK-e4a48a85-26-acrylamide
     RDKit          3D

 27 29  0  0  0  0  0  0  0  0999 V2000
    7.8710   -3.2350   19.0640 C   0  0  0  0  0  0  0  0  0  0  0  0
    6.6920   -2.3240   18.8210 C   0  0  0  0  0  0  0  0  0  0  0  0
    5.7840   -2.6090   19.9510 C   0  0  0  0  0  0  0  0  0  0  0  0
    4.7910   -3.2830   19.7820 O   0  0  0  0  0  0  0  0  0  0  0  0
    6.1690   -2.1350   21.1720 N   0  0  0  0  0  0  0  0  0  0  0  0
    7.1470   -1.0390   21.2830 C   0  0  0  0  0  0  0  0  0  0  0  0
    8.4200   -1.7390   21.7770 C   0  0  0  0  0  0  0  0  0  0  0  0
    8.1420   -2.1810   23.1730 N   0  0  0  0  0  0  0  0  0  0  0  0
    9.3650   -2.4590   23.9180 C   0  0  0  0  0  0  0  0  0  0  0  0
   10.4200   -1.3260   23.6180 C   0  0  0  0  0  0  0  0  0  0  0  0
   11.7020   -1.9940   23.0480 C   0  0  0  0  0  0  0  0  0  0  0  0
   12.9060   -1.1050   22.6770 C   0  0  0  0  0  0  0  0  0  0  0  0
   12.7940    0.4020   22.8680 C   0  0  0  0  0  0  0  0  0  0  0  0
   11.4910    0.9420   23.4100 C   0  0  0  0  0  0  0  0  0  0  0  0
   11.3350    2.4260   23.5730 C   0  0  0  0  0  0  0  0  0  0  0  0
   10.3110    0.0670   23.7930 C   0  0  0  0  0  0  0  0  0  0  0  0
    9.0560    0.7520   24.3380 C   0  0  0  0  0  0  0  0  0  0  0  0
    8.3220    1.3670   23.3730 O   0  0  0  0  0  0  0  0  0  0  0  0
    8.6740    0.7990   25.6370 N   0  0  0  0  0  0  0  0  0  0  0  0
    9.0860   -0.1970   26.4480 C   0  0  0  0  0  0  0  0  0  0  0  0
    8.9420   -0.0320   27.9930 C   0  0  0  0  0  0  0  0  0  0  0  0
    7.6620    0.7190   28.3810 C   0  0  0  0  0  0  0  0  0  0  0  0
    7.8230    1.3020   29.6710 O   0  0  0  0  0  0  0  0  0  0  0  0
    7.2600    1.8100   27.4090 C   0  0  0  0  0  0  0  0  0  0  0  0
    7.3280    1.2920   25.9900 C   0  0  0  0  0  0  0  0  0  0  0  0
    7.2350   -3.3230   23.0920 C   0  0  0  0  0  0  0  0  0  0  0  0
    5.9440   -3.0010   22.3360 C   0  0  0  0  0  0  0  0  0  0  0  0
  1  2  1  0
  2  3  1  0
  3  4  2  0
  3  5  1  0
  5  6  1  0
  6  7  1  0
  7  8  1  0
  8  9  1  0
  9 10  1  0
 10 11  2  0
 11 12  1  0
 12 13  2  0
 13 14  1  0
 14 15  1  0
 10 16  1  0
 14 16  2  0
 16 17  1  0
 17 18  2  0
 17 19  1  0
 19 20  1  0
 20 21  1  0
 21 22  1  0
 22 23  1  0
 22 24  1  0
 19 25  1  0
 24 25  1  0
  8 26  1  0
  5 27  1  0
 26 27  1  0
M  END
