MAK-UNK-f983951f-23-vinylsulfonamide
     RDKit          3D

 15 15  0  0  0  0  0  0  0  0999 V2000
    6.8890   -3.4620   19.8560 C   0  0  0  0  0  0  0  0  0  0  0  0
    6.9180   -3.7000   21.3730 C   0  0  0  0  0  0  0  0  0  0  0  0
    5.3080   -4.3210   21.6810 S   0  0  0  0  0  0  0  0  0  0  0  0
    5.0560   -5.4190   20.8140 O   0  0  0  0  0  0  0  0  0  0  0  0
    4.4620   -3.2120   21.5930 O   0  0  0  0  0  0  0  0  0  0  0  0
    5.0810   -4.7770   23.2650 N   0  0  0  0  0  0  0  0  0  0  0  0
    5.2550   -3.7100   24.2160 C   0  0  0  0  0  0  0  0  0  0  0  0
    4.0920   -3.2460   24.8850 C   0  0  0  0  0  0  0  0  0  0  0  0
    2.7950   -3.7300   24.6540 C   0  0  0  0  0  0  0  0  0  0  0  0
    1.7100   -3.1800   25.3500 C   0  0  0  0  0  0  0  0  0  0  0  0
    1.9230   -2.1310   26.2950 C   0  0  0  0  0  0  0  0  0  0  0  0
    0.8430   -1.5760   26.9850 C   0  0  0  0  0  0  0  0  0  0  0  0
   -0.0590   -1.1110   27.5510 N   0  0  0  0  0  0  0  0  0  0  0  0
    3.2170   -1.6700   26.5220 C   0  0  0  0  0  0  0  0  0  0  0  0
    4.2820   -2.2300   25.8240 C   0  0  0  0  0  0  0  0  0  0  0  0
  1  2  1  0
  2  3  1  0
  3  4  2  0
  3  5  2  0
  3  6  1  0
  6  7  1  0
  7  8  1  0
  8  9  2  0
  9 10  1  0
 10 11  2  0
 11 12  1  0
 12 13  3  0
 11 14  1  0
  8 15  1  0
 14 15  2  0
M  END
