MAK-UNK-8fdbca50-4-acrylamide
     RDKit          3D

 40 43  0  0  0  0  0  0  0  0999 V2000
    9.2960   -3.9610   20.4630 C   0  0  0  0  0  0  0  0  0  0  0  0
    7.8300   -3.3180   19.9990 C   0  0  0  0  0  0  0  0  0  0  0  0
    6.3450   -3.6600   20.6600 C   0  0  0  0  0  0  0  0  0  0  0  0
    5.2150   -3.9110   20.0190 O   0  0  0  0  0  0  0  0  0  0  0  0
    6.2030   -3.6560   22.0400 N   0  0  0  0  0  0  0  0  0  0  0  0
    5.0610   -3.3220   22.7430 C   0  0  0  0  0  0  0  0  0  0  0  0
    5.0650   -1.9750   23.4540 C   0  0  0  0  0  0  0  0  0  0  0  0
    6.2540   -2.0130   24.4140 C   0  0  0  0  0  0  0  0  0  0  0  0
    6.6560   -0.5210   24.6500 C   0  0  0  0  0  0  0  0  0  0  0  0
    6.1160    0.3070   23.9180 O   0  0  0  0  0  0  0  0  0  0  0  0
    7.5130   -0.0920   25.5930 N   0  0  0  0  0  0  0  0  0  0  0  0
    6.9530    0.9420   26.3200 C   0  0  0  0  0  0  0  0  0  0  0  0
    8.8270    0.2620   25.2660 C   0  0  2  0  0  0  0  0  0  0  0  0
    9.3390    0.7180   24.0900 C   0  0  0  0  0  0  0  0  0  0  0  0
    9.5910   -0.7150   24.4190 C   0  0  2  0  0  0  0  0  0  0  0  0
    9.4740   -2.1960   25.1850 S   0  0  0  0  0  0  0  0  0  0  0  0
   10.6890   -2.3950   25.8900 O   0  0  0  0  0  0  0  0  0  0  0  0
    8.1690   -2.4110   25.7580 O   0  0  0  0  0  0  0  0  0  0  0  0
    9.7670   -3.2950   23.9030 C   0  0  0  0  0  0  0  0  0  0  0  0
    9.3660   -4.1400   25.0880 C   0  0  0  0  0  0  0  0  0  0  0  0
    9.5640   -5.1560   24.1590 C   0  0  0  0  0  0  0  0  0  0  0  0
    9.6100   -6.4730   23.6720 C   0  0  0  0  0  0  0  0  0  0  0  0
    9.9780   -5.6990   22.6360 N   0  0  0  0  0  0  0  0  0  0  0  0
    9.8410   -4.5110   23.3750 C   0  0  0  0  0  0  0  0  0  0  0  0
   11.1250   -0.6870   24.4330 C   0  0  0  0  0  0  0  0  0  0  0  0
   11.6380   -0.8000   23.1580 C   0  0  0  0  0  0  0  0  0  0  0  0
   12.9720   -0.7970   22.8830 C   0  0  0  0  0  0  0  0  0  0  0  0
   13.2770    0.5340   22.7450 N   0  0  0  0  0  0  0  0  0  0  0  0
   12.4370    1.5970   23.1270 C   0  0  0  0  0  0  0  0  0  0  0  0
   10.5550   -0.8250   22.2220 C   0  0  0  0  0  0  0  0  0  0  0  0
    9.3340   -0.7060   22.8740 C   0  0  0  0  0  0  0  0  0  0  0  0
    8.0630   -0.5330   22.0140 C   0  0  0  0  0  0  0  0  0  0  0  0
    8.2440    0.9380   21.6270 C   0  0  0  0  0  0  0  0  0  0  0  0
    7.4420    1.8060   20.8280 C   0  0  0  0  0  0  0  0  0  0  0  0
    6.3680    0.9210   20.4520 C   0  0  0  0  0  0  0  0  0  0  0  0
    6.0930   -0.4240   20.7360 C   0  0  0  0  0  0  0  0  0  0  0  0
    7.0030   -1.2220   21.5810 C   0  0  0  0  0  0  0  0  0  0  0  0
    6.7310   -2.4880   21.8390 F   0  0  0  0  0  0  0  0  0  0  0  0
    7.4140   -2.9700   24.0490 C   0  0  0  0  0  0  0  0  0  0  0  0
    7.2600   -4.0030   22.9370 C   0  0  0  0  0  0  0  0  0  0  0  0
  1  2  1  0
  2  3  1  0
  3  4  2  0
  3  5  1  0
  5  6  1  0
  6  7  1  0
  7  8  1  0
  8  9  1  0
  9 10  2  0
  9 11  1  0
 11 12  1  0
 11 13  1  0
 13 14  1  6
 13 15  1  0
 15 16  1  1
 16 17  2  0
 16 18  2  0
 16 19  1  0
 19 20  2  0
 20 21  1  0
 21 22  2  0
 22 23  1  0
 19 24  1  0
 23 24  2  0
 15 25  1  0
 25 26  2  0
 26 27  1  0
 27 28  1  0
 28 29  1  0
 26 30  1  0
 15 31  1  0
 30 31  2  0
 31 32  1  0
 32 33  2  0
 33 34  1  0
 34 35  2  0
 35 36  1  0
 32 37  1  0
 36 37  2  0
 37 38  1  0
  8 39  1  0
  5 40  1  0
 39 40  1  0
M  END
