MAK-UNK-acefcb18-28
     RDKit          3D

 28 31  0  0  0  0  0  0  0  0999 V2000
   15.5850    3.9370   19.1580 C   0  0  0  0  0  0  0  0  0  0  0  0
   15.7460    2.6880   19.8630 N   0  0  0  0  0  0  0  0  0  0  0  0
   15.7560    1.2860   19.1720 C   0  0  0  0  0  0  0  0  0  0  0  0
   14.6700    0.1520   19.6850 C   0  0  0  0  0  0  0  0  0  0  0  0
   13.9920    0.6210   21.1500 N   0  0  0  0  0  0  0  0  0  0  0  0
   12.8560    0.2250   22.0380 C   0  0  0  0  0  0  0  0  0  0  0  0
   12.2830    1.0800   23.1180 C   0  0  0  0  0  0  0  0  0  0  0  0
   11.3410    1.2250   24.0980 C   0  0  0  0  0  0  0  0  0  0  0  0
   10.5500    0.1010   24.1610 C   0  0  0  0  0  0  0  0  0  0  0  0
    9.4850   -0.0810   25.0670 C   0  0  0  0  0  0  0  0  0  0  0  0
    8.4680   -0.9030   24.7230 N   0  0  0  0  0  0  0  0  0  0  0  0
    7.2120   -0.4510   24.9960 C   0  0  0  0  0  0  0  0  0  0  0  0
    6.1540   -1.4060   24.4270 C   0  0  0  0  0  0  0  0  0  0  0  0
    6.4490   -2.7780   25.0360 C   0  0  0  0  0  0  0  0  0  0  0  0
    5.6440   -3.7480   24.3660 O   0  0  0  0  0  0  0  0  0  0  0  0
    7.7910   -3.1050   24.8380 C   0  0  0  0  0  0  0  0  0  0  0  0
    8.6850   -2.1280   25.2580 C   0  0  0  0  0  0  0  0  0  0  0  0
   11.0660   -0.7250   23.1610 C   0  0  0  0  0  0  0  0  0  0  0  0
   11.9630   -0.9200   22.1860 N   0  0  0  0  0  0  0  0  0  0  0  0
   11.8990   -2.0540   21.5570 C   0  0  1  0  0  0  0  0  0  0  0  0
   12.0510   -2.0200   20.3900 O   0  0  0  0  0  0  0  0  0  0  0  0
   12.2560   -3.3880   20.3490 C   0  0  0  0  0  0  0  0  0  0  0  0
   13.4190   -3.6760   20.8520 C   0  0  1  0  0  0  0  0  0  0  0  0
   14.4150   -3.3590   20.0440 O   0  0  0  0  0  0  0  0  0  0  0  0
   13.0900   -2.7910   22.0820 C   0  0  1  0  0  0  0  0  0  0  0  0
   14.0030   -1.8000   22.4750 O   0  0  0  0  0  0  0  0  0  0  0  0
   14.5000    1.8680   21.7800 C   0  0  0  0  0  0  0  0  0  0  0  0
   15.0040    2.9380   21.1420 C   0  0  0  0  0  0  0  0  0  0  0  0
  1  2  1  0
  2  3  1  0
  3  4  1  0
  4  5  1  0
  5  6  1  0
  6  7  2  0
  7  8  1  0
  8  9  2  0
  9 10  1  0
 10 11  1  0
 11 12  1  0
 12 13  1  0
 13 14  1  0
 14 15  1  0
 14 16  1  0
 11 17  1  0
 16 17  1  0
  9 18  1  0
  6 19  1  0
 18 19  2  0
 20 19  1  1
 20 21  1  0
 21 22  1  0
 22 23  1  0
 23 24  1  6
 20 25  1  0
 23 25  1  0
 25 26  1  6
  5 27  1  0
  2 28  1  0
 27 28  1  0
M  CHG  1  19   1
M  END
