MAK-UNK-516d8086-11-vinylsulfonamide
     RDKit          3D

 25 27  0  0  0  0  0  0  0  0999 V2000
    8.0390   -3.6640   20.2030 C   0  0  0  0  0  0  0  0  0  0  0  0
    6.8360   -2.8410   19.7380 C   0  0  0  0  0  0  0  0  0  0  0  0
    5.8010   -2.3920   21.0960 S   0  0  0  0  0  0  0  0  0  0  0  0
    5.0300   -3.5780   21.5030 O   0  0  0  0  0  0  0  0  0  0  0  0
    5.0600   -1.2420   20.6190 O   0  0  0  0  0  0  0  0  0  0  0  0
    6.9840   -1.7860   22.3910 C   0  0  0  0  0  0  0  0  0  0  0  0
    6.5020   -1.5740   23.8230 C   0  0  0  0  0  0  0  0  0  0  0  0
    7.2510   -1.1150   24.8650 N   0  0  0  0  0  0  0  0  0  0  0  0
    8.5670   -0.8040   24.6430 C   0  0  0  0  0  0  0  0  0  0  0  0
    9.3500   -0.3020   25.7240 N   0  0  0  0  0  0  0  0  0  0  0  0
    8.5710    0.4000   26.7530 C   0  0  0  0  0  0  0  0  0  0  0  0
    7.5590   -0.4000   27.1910 F   0  0  0  0  0  0  0  0  0  0  0  0
    9.2240   -0.9680   23.2610 C   0  0  0  0  0  0  0  0  0  0  0  0
   10.6070   -0.6260   23.0370 C   0  0  0  0  0  0  0  0  0  0  0  0
   10.4670    0.6280   22.5330 C   0  0  0  0  0  0  0  0  0  0  0  0
   11.6050    0.9120   23.2440 C   0  0  0  0  0  0  0  0  0  0  0  0
   12.1080   -0.2170   23.8810 C   0  0  0  0  0  0  0  0  0  0  0  0
   11.3810   -1.4290   23.6880 C   0  0  0  0  0  0  0  0  0  0  0  0
   10.1910   -1.5850   22.9180 C   0  0  0  0  0  0  0  0  0  0  0  0
    9.6470   -0.4290   22.2500 C   0  0  0  0  0  0  0  0  0  0  0  0
    9.8740   -3.0580   23.0760 C   0  0  0  0  0  0  0  0  0  0  0  0
    8.9440   -3.6960   22.5770 O   0  0  0  0  0  0  0  0  0  0  0  0
   10.8450   -3.5440   23.9100 N   0  0  0  0  0  0  0  0  0  0  0  0
   11.7740   -2.6190   24.2440 C   0  0  0  0  0  0  0  0  0  0  0  0
    8.3280   -1.4900   22.1130 C   0  0  0  0  0  0  0  0  0  0  0  0
  1  2  1  0
  3  2  1  0
  3  4  2  0
  3  5  2  0
  3  6  1  0
  6  7  2  0
  7  8  1  0
  8  9  2  0
  9 10  1  0
 10 11  1  0
 11 12  1  0
  9 13  1  0
 13 14  1  0
 14 15  1  0
 15 16  2  0
 16 17  1  0
 17 18  2  0
 18 19  1  0
 15 20  1  0
 19 20  2  0
 19 21  1  0
 21 22  2  0
 21 23  1  0
 18 24  1  0
 23 24  1  0
  6 25  1  0
 13 25  2  0
M  END
