MAK-UNK-516d8086-32-acrylamide
     RDKit          3D

 24 26  0  0  0  0  0  0  0  0999 V2000
    7.2270   -3.7410   20.0500 C   0  0  0  0  0  0  0  0  0  0  0  0
    6.8180   -3.4840   21.4860 C   0  0  0  0  0  0  0  0  0  0  0  0
    5.4590   -2.8580   21.4400 C   0  0  0  0  0  0  0  0  0  0  0  0
    4.5340   -3.3850   22.0560 O   0  0  0  0  0  0  0  0  0  0  0  0
    5.2310   -1.6270   20.6190 C   0  0  0  0  0  0  0  0  0  0  0  0
    5.3070   -0.2340   19.9660 C   0  0  0  0  0  0  0  0  0  0  0  0
    6.1570   -0.5760   20.8470 N   0  0  0  0  0  0  0  0  0  0  0  0
    7.1190    0.1990   21.2340 C   0  0  0  0  0  0  0  0  0  0  0  0
    7.5870    1.4700   20.9420 C   0  0  0  0  0  0  0  0  0  0  0  0
    6.8180    2.5270   21.7970 C   0  0  0  0  0  0  0  0  0  0  0  0
    7.7530    3.5070   22.0540 C   0  0  0  0  0  0  0  0  0  0  0  0
    7.7090   -0.5810   22.1370 C   0  0  0  0  0  0  0  0  0  0  0  0
    8.7150    0.6220   22.3450 C   0  0  0  0  0  0  0  0  0  0  0  0
    9.7910    0.1580   23.2880 C   0  0  0  0  0  0  0  0  0  0  0  0
   10.9470   -0.7570   23.2250 C   0  0  0  0  0  0  0  0  0  0  0  0
   11.3810   -1.5900   21.9330 C   0  0  0  0  0  0  0  0  0  0  0  0
   12.4720   -2.1850   22.5360 C   0  0  0  0  0  0  0  0  0  0  0  0
   11.7500   -1.3270   23.3580 C   0  0  0  0  0  0  0  0  0  0  0  0
   10.5410   -0.6440   22.7030 C   0  0  0  0  0  0  0  0  0  0  0  0
   12.0690   -1.0140   24.8570 C   0  0  0  0  0  0  0  0  0  0  0  0
   11.4770    0.0240   24.7080 O   0  0  0  0  0  0  0  0  0  0  0  0
   12.6850   -2.2570   24.7440 C   0  0  0  0  0  0  0  0  0  0  0  0
   13.3160   -2.4270   23.5620 C   0  0  0  0  0  0  0  0  0  0  0  0
    6.4290   -1.3130   21.4530 C   0  0  0  0  0  0  0  0  0  0  0  0
  1  2  1  0
  2  3  1  0
  3  4  2  0
  3  5  1  0
  5  6  2  0
  6  7  1  0
  7  8  2  0
  8  9  1  0
  9 10  1  0
 10 11  1  0
  8 12  1  0
 12 13  1  0
 13 14  1  0
 14 15  2  0
 15 16  1  0
 16 17  2  0
 17 18  1  0
 14 19  1  0
 18 19  2  0
 18 20  1  0
 20 21  2  0
 20 22  1  0
 17 23  1  0
 22 23  1  0
  5 24  1  0
 12 24  2  0
M  END
