MAK-UNK-de8f6d00-7
     RDKit          3D

 34 38  0  0  0  0  0  0  0  0999 V2000
   13.6770    5.2840   23.0630 O   0  0  0  0  0  0  0  0  0  0  0  0
   13.9010    4.1430   22.7390 C   0  0  0  0  0  0  0  0  0  0  0  0
   15.2030    3.6510   22.3140 N   0  0  0  0  0  0  0  0  0  0  0  0
   16.5700    4.2360   22.3530 C   0  0  0  0  0  0  0  0  0  0  0  0
   17.3670    4.5030   21.2380 C   0  0  0  0  0  0  0  0  0  0  0  0
   18.6410    5.0750   21.3030 C   0  0  0  0  0  0  0  0  0  0  0  0
   19.2200    5.3790   22.4590 C   0  0  0  0  0  0  0  0  0  0  0  0
   18.5220    5.1230   23.5710 C   0  0  0  0  0  0  0  0  0  0  0  0
   17.2080    4.5670   23.5450 C   0  0  0  0  0  0  0  0  0  0  0  0
   12.8100    3.2080   22.7690 N   0  0  0  0  0  0  0  0  0  0  0  0
   12.7520    1.7950   23.0390 C   0  0  0  0  0  0  0  0  0  0  0  0
   13.7110    0.9160   22.6790 C   0  0  0  0  0  0  0  0  0  0  0  0
   13.7190   -0.4150   22.8660 N   0  0  0  0  0  0  0  0  0  0  0  0
   12.7310   -0.9620   23.4910 C   0  0  0  0  0  0  0  0  0  0  0  0
   11.6970   -0.2330   23.9430 C   0  0  0  0  0  0  0  0  0  0  0  0
   10.7340   -0.9280   24.5790 N   0  0  0  0  0  0  0  0  0  0  0  0
    9.6320   -0.1810   25.1310 C   0  0  0  0  0  0  0  0  0  0  0  0
    9.0230    0.5440   24.0030 C   0  0  0  0  0  0  0  0  0  0  0  0
    9.2890   -0.1260   22.7240 N   0  0  0  0  0  0  0  0  0  0  0  0
    8.7180    0.3750   21.5990 C   0  0  0  0  0  0  0  0  0  0  0  0
    8.9420    1.5310   21.1900 O   0  0  0  0  0  0  0  0  0  0  0  0
    7.8060   -0.5930   20.9470 C   0  0  0  0  0  0  0  0  0  0  0  0
    7.0260   -0.1940   19.9320 C   0  0  0  0  0  0  0  0  0  0  0  0
    7.2270   -0.4860   18.6270 C   0  0  0  0  0  0  0  0  0  0  0  0
    6.2510    0.1110   17.9040 N   0  0  0  0  0  0  0  0  0  0  0  0
    5.4060    0.7850   18.7370 C   0  0  0  0  0  0  0  0  0  0  0  0
    4.3380    1.4850   18.3550 N   0  0  0  0  0  0  0  0  0  0  0  0
    3.6680    2.0460   19.3830 C   0  0  0  0  0  0  0  0  0  0  0  0
    4.0210    1.9370   20.7150 C   0  0  0  0  0  0  0  0  0  0  0  0
    5.1420    1.2080   21.0680 C   0  0  0  0  0  0  0  0  0  0  0  0
    5.8660    0.6040   20.0270 C   0  0  0  0  0  0  0  0  0  0  0  0
    9.3480   -1.4980   22.7300 C   0  0  0  0  0  0  0  0  0  0  0  0
   10.2840   -2.0630   23.7830 C   0  0  0  0  0  0  0  0  0  0  0  0
   11.6860    1.1790   23.7130 C   0  0  0  0  0  0  0  0  0  0  0  0
  1  2  2  0
  2  3  1  0
  3  4  1  0
  4  5  2  0
  5  6  1  0
  6  7  2  0
  7  8  1  0
  4  9  1  0
  8  9  2  0
  2 10  1  0
 10 11  1  0
 11 12  2  0
 12 13  1  0
 13 14  2  0
 14 15  1  0
 15 16  1  0
 16 17  1  0
 17 18  1  0
 18 19  1  0
 19 20  1  0
 20 21  2  0
 20 22  1  0
 22 23  1  0
 23 24  2  0
 24 25  1  0
 25 26  1  0
 26 27  1  0
 27 28  2  0
 28 29  1  0
 29 30  2  0
 23 31  1  0
 26 31  2  0
 30 31  1  0
 19 32  1  0
 16 33  1  0
 32 33  1  0
 11 34  1  0
 15 34  2  0
M  END
