MAK-UNK-de9577cf-12
     RDKit          3D

 37 40  0  0  0  0  0  0  0  0999 V2000
   13.7510   -2.6820   25.3120 C   0  0  0  0  0  0  0  0  0  0  0  0
   13.1890   -1.3860   25.6440 N   0  0  0  0  0  0  0  0  0  0  0  0
   12.9580   -0.6310   24.4630 C   0  0  2  0  0  0  0  0  0  0  0  0
   12.7090    0.7130   24.5750 O   0  0  0  0  0  0  0  0  0  0  0  0
   12.5070    1.1360   23.3230 C   0  0  0  0  0  0  0  0  0  0  0  0
   12.9140    0.5940   22.3230 O   0  0  0  0  0  0  0  0  0  0  0  0
   11.6830    2.3870   23.3540 C   0  0  0  0  0  0  0  0  0  0  0  0
   12.4060    3.6140   22.8020 C   0  0  0  0  0  0  0  0  0  0  0  0
   11.6580    4.9260   22.8180 C   0  0  0  0  0  0  0  0  0  0  0  0
   10.2370    4.9150   23.3860 C   0  0  0  0  0  0  0  0  0  0  0  0
    9.2780    6.3080   23.4820 S   0  0  0  0  0  0  0  0  0  0  0  0
    8.2040    6.0750   22.2150 N   0  0  0  0  0  0  0  0  0  0  0  0
    8.5100    6.2400   24.7180 O   0  0  0  0  0  0  0  0  0  0  0  0
   10.1190    7.4470   23.1910 O   0  0  0  0  0  0  0  0  0  0  0  0
    9.6920    3.6040   23.8750 C   0  0  0  0  0  0  0  0  0  0  0  0
   10.3830    2.4190   23.8550 C   0  0  0  0  0  0  0  0  0  0  0  0
   11.7550   -1.0810   23.8750 C   0  0  0  0  0  0  0  0  0  0  0  0
   11.8280   -1.8620   22.9160 C   0  0  0  0  0  0  0  0  0  0  0  0
   10.7060   -2.2650   22.3840 C   0  0  0  0  0  0  0  0  0  0  0  0
   10.8100   -3.1020   21.3840 C   0  0  0  0  0  0  0  0  0  0  0  0
   12.1240   -3.4850   21.1180 C   0  0  0  0  0  0  0  0  0  0  0  0
   12.3630   -4.3660   20.1210 C   0  0  0  0  0  0  0  0  0  0  0  0
   11.2780   -4.8210   19.4160 C   0  0  0  0  0  0  0  0  0  0  0  0
   10.0050   -4.4260   19.6820 C   0  0  0  0  0  0  0  0  0  0  0  0
    9.7310   -3.5360   20.7090 C   0  0  0  0  0  0  0  0  0  0  0  0
    8.5160   -3.0990   21.0280 F   0  0  0  0  0  0  0  0  0  0  0  0
    9.6370   -1.6680   23.0770 N   0  0  0  0  0  0  0  0  0  0  0  0
    7.9160   -1.7350   22.9420 S   0  0  0  0  0  0  0  0  0  0  0  0
    7.4260   -0.9750   24.0780 O   0  0  0  0  0  0  0  0  0  0  0  0
    7.5340   -3.1140   22.7740 O   0  0  0  0  0  0  0  0  0  0  0  0
    7.4420   -0.8850   21.4770 C   0  0  0  0  0  0  0  0  0  0  0  0
    6.9550   -1.6200   20.2330 C   0  0  0  0  0  0  0  0  0  0  0  0
    6.5740   -0.7640   19.0510 C   0  0  0  0  0  0  0  0  0  0  0  0
    6.7130    0.7320   19.2290 C   0  0  0  0  0  0  0  0  0  0  0  0
    7.1560    1.2990   20.3860 N   0  0  0  0  0  0  0  0  0  0  0  0
    7.5020    0.5090   21.4520 C   0  0  0  0  0  0  0  0  0  0  0  0
   10.3380   -0.8930   24.0580 C   0  0  0  0  0  0  0  0  0  0  0  0
  1  2  1  0
  3  2  1  1
  3  4  1  0
  4  5  1  0
  5  6  2  0
  5  7  1  0
  7  8  2  0
  8  9  1  0
  9 10  2  0
 10 11  1  0
 11 12  1  0
 11 13  2  0
 11 14  2  0
 10 15  1  0
  7 16  1  0
 15 16  2  0
  3 17  1  0
 17 18  1  0
 18 19  2  0
 19 20  1  0
 20 21  2  0
 21 22  1  0
 22 23  2  0
 23 24  1  0
 20 25  1  0
 24 25  2  0
 25 26  1  0
 19 27  1  0
 27 28  1  0
 28 29  2  0
 28 30  2  0
 28 31  1  0
 31 32  2  0
 32 33  1  0
 33 34  2  0
 34 35  1  0
 31 36  1  0
 35 36  2  0
 17 37  2  0
 27 37  1  0
M  END
