MAK-UNK-8fdbca50-16-nitrile
     RDKit          3D

 38 41  0  0  0  0  0  0  0  0999 V2000
    6.6770   -3.5970   19.8300 C   0  0  0  0  0  0  0  0  0  0  0  0
    5.8150   -4.5510   19.9440 N   0  0  0  0  0  0  0  0  0  0  0  0
    6.2890   -2.3420   19.4720 N   0  0  0  0  0  0  0  0  0  0  0  0
    5.7070   -1.3360   20.3910 C   0  0  0  0  0  0  0  0  0  0  0  0
    6.0900    0.0770   19.7910 C   0  0  0  0  0  0  0  0  0  0  0  0
    5.2090    0.2500   18.4970 C   0  0  0  0  0  0  0  0  0  0  0  0
    5.9910    1.1230   17.4880 C   0  0  0  0  0  0  0  0  0  0  0  0
    6.9070    1.4160   16.7360 O   0  0  0  0  0  0  0  0  0  0  0  0
    6.7860    0.0820   17.7020 N   0  0  0  0  0  0  0  0  0  0  0  0
    7.0540    0.0430   19.0040 C   0  0  0  0  0  0  0  0  0  0  0  0
    7.2790    1.2300   19.6420 N   0  0  0  0  0  0  0  0  0  0  0  0
    6.6890    1.4850   20.8340 C   0  0  0  0  0  0  0  0  0  0  0  0
    7.5460    0.9820   21.9920 C   0  0  0  0  0  0  0  0  0  0  0  0
    6.9840    0.3270   23.2240 C   0  0  0  0  0  0  0  0  0  0  0  0
    8.1910    0.0390   24.0000 C   0  0  0  0  0  0  0  0  0  0  0  0
    8.2180   -0.5870   25.2820 C   0  0  0  0  0  0  0  0  0  0  0  0
    8.9070   -0.0540   26.3470 C   0  0  0  0  0  0  0  0  0  0  0  0
    8.9590   -0.6210   27.6470 C   0  0  0  0  0  0  0  0  0  0  0  0
    8.2640   -1.8130   27.8780 C   0  0  0  0  0  0  0  0  0  0  0  0
    7.5510   -2.3950   26.8150 C   0  0  0  0  0  0  0  0  0  0  0  0
    7.5290   -1.7890   25.5370 C   0  0  0  0  0  0  0  0  0  0  0  0
    6.8270   -2.3920   24.5690 F   0  0  0  0  0  0  0  0  0  0  0  0
    9.3600    0.4470   23.3620 N   0  0  0  0  0  0  0  0  0  0  0  0
   11.0370    0.3660   23.8040 S   0  0  0  0  0  0  0  0  0  0  0  0
   11.4810    1.7440   23.6130 O   0  0  0  0  0  0  0  0  0  0  0  0
   11.0590   -0.2670   25.1130 O   0  0  0  0  0  0  0  0  0  0  0  0
   11.9490   -0.6190   22.6490 C   0  0  0  0  0  0  0  0  0  0  0  0
   10.8190   -1.2690   22.8520 C   0  0  0  0  0  0  0  0  0  0  0  0
   10.0620   -0.5620   23.7500 C   0  0  0  0  0  0  0  0  0  0  0  0
   10.6420    0.6930   24.2430 C   0  0  0  0  0  0  0  0  0  0  0  0
   11.9000    1.2390   23.8860 N   0  0  0  0  0  0  0  0  0  0  0  0
   12.6200    0.4820   23.0010 C   0  0  0  0  0  0  0  0  0  0  0  0
    8.9490    1.0090   22.1650 C   0  0  0  0  0  0  0  0  0  0  0  0
    7.6480   -0.6500   16.7120 C   0  0  0  0  0  0  0  0  0  0  0  0
    7.1270   -1.9810   16.1380 C   0  0  0  0  0  0  0  0  0  0  0  0
    8.2240    0.1550   15.5430 C   0  0  0  0  0  0  0  0  0  0  0  0
    5.2480   -0.9640   17.6460 C   0  0  0  0  0  0  0  0  0  0  0  0
    5.5540   -2.3350   18.2480 C   0  0  0  0  0  0  0  0  0  0  0  0
  1  2  2  3
  1  3  1  0
  3  4  1  0
  4  5  1  0
  5  6  1  0
  6  7  1  0
  7  8  2  0
  7  9  1  0
  9 10  1  0
 10 11  1  0
 11 12  1  0
 12 13  1  0
 13 14  1  0
 14 15  2  0
 15 16  1  0
 16 17  2  0
 17 18  1  0
 18 19  2  0
 19 20  1  0
 16 21  1  0
 20 21  2  0
 21 22  1  0
 15 23  1  0
 23 24  1  0
 24 25  2  0
 24 26  2  0
 24 27  1  0
 27 28  2  0
 28 29  1  0
 29 30  2  0
 30 31  1  0
 27 32  1  0
 31 32  2  0
 13 33  2  0
 23 33  1  0
  9 34  1  0
 34 35  1  0
 34 36  1  0
  6 37  1  0
  3 38  1  0
 37 38  1  0
M  END
