MAK-UNK-10799360-22-vinylsulfonamide
     RDKit          3D

 25 27  0  0  0  0  0  0  0  0999 V2000
    8.2970   -3.6830   20.0490 C   0  0  0  0  0  0  0  0  0  0  0  0
    7.1950   -2.9620   19.2710 C   0  0  0  0  0  0  0  0  0  0  0  0
    5.8060   -3.3310   20.2820 S   0  0  0  0  0  0  0  0  0  0  0  0
    4.5730   -3.1830   19.5640 O   0  0  0  0  0  0  0  0  0  0  0  0
    6.0390   -4.5900   20.9180 O   0  0  0  0  0  0  0  0  0  0  0  0
    5.9660   -2.0670   21.3960 N   0  0  0  0  0  0  0  0  0  0  0  0
    6.8480   -0.9520   21.0820 C   0  0  0  0  0  0  0  0  0  0  0  0
    8.1530   -1.3860   21.8280 C   0  0  1  0  0  0  0  0  0  0  0  0
    7.1020   -1.0010   22.9510 C   0  0  0  0  0  0  0  0  0  0  0  0
    6.2310   -2.2540   22.8230 C   0  0  2  0  0  0  0  0  0  0  0  0
    7.3600   -3.2100   23.1840 C   0  0  0  0  0  0  0  0  0  0  0  0
    8.5060   -2.2630   22.9720 N   0  0  0  0  0  0  0  0  0  0  0  0
    9.4530   -1.8380   24.0480 C   0  0  0  0  0  0  0  0  0  0  0  0
   10.6170   -0.8870   23.6280 C   0  0  0  0  0  0  0  0  0  0  0  0
   10.3410    0.4440   23.9720 C   0  0  0  0  0  0  0  0  0  0  0  0
   11.2200    1.4780   23.6830 C   0  0  0  0  0  0  0  0  0  0  0  0
   10.8730    2.7840   24.0120 C   0  0  0  0  0  0  0  0  0  0  0  0
   10.5610    3.8770   24.2550 N   0  0  0  0  0  0  0  0  0  0  0  0
   12.4160    1.2030   23.0600 C   0  0  0  0  0  0  0  0  0  0  0  0
   12.7550   -0.0700   22.6960 C   0  0  0  0  0  0  0  0  0  0  0  0
   11.9020   -1.1140   22.9500 C   0  0  0  0  0  0  0  0  0  0  0  0
   12.5380   -2.2510   22.4410 C   0  0  0  0  0  0  0  0  0  0  0  0
   13.3800   -3.0000   23.2300 O   0  0  0  0  0  0  0  0  0  0  0  0
   12.3300   -2.5040   21.0910 N   0  0  0  0  0  0  0  0  0  0  0  0
   13.0310   -3.5360   20.6960 C   0  0  0  0  0  0  0  0  0  0  0  0
  1  2  1  0
  3  2  1  0
  3  4  2  0
  3  5  2  0
  3  6  1  0
  6  7  1  0
  8  7  1  6
  8  9  1  0
  6 10  1  0
  9 10  1  0
 10 11  1  6
  8 12  1  0
 11 12  1  0
 12 13  1  0
 13 14  1  0
 14 15  2  0
 15 16  1  0
 16 17  1  0
 17 18  3  0
 16 19  2  0
 19 20  1  0
 14 21  1  0
 20 21  2  0
 21 22  1  0
 22 23  2  0
 22 24  1  0
 24 25  1  0
M  END
