MAK-UNK-902cc841-7
     RDKit          3D

 33 36  0  0  0  0  0  0  0  0999 V2000
    5.8800   -1.8240   18.6450 C   0  0  0  0  0  0  0  0  0  0  0  0
    5.6080   -2.7770   19.7810 C   0  0  0  0  0  0  0  0  0  0  0  0
    5.1760   -3.9150   19.5870 O   0  0  0  0  0  0  0  0  0  0  0  0
    5.9070   -2.3110   21.0400 N   0  0  0  0  0  0  0  0  0  0  0  0
    7.2160   -2.6180   21.5700 C   0  0  0  0  0  0  0  0  0  0  0  0
    8.1300   -1.8180   20.9310 C   0  0  0  0  0  0  0  0  0  0  0  0
    8.0840   -0.5210   21.3160 N   0  0  0  0  0  0  0  0  0  0  0  0
    8.9480   -0.3080   22.5210 C   0  0  2  0  0  0  0  0  0  0  0  0
    8.2630   -0.5760   23.7150 C   0  0  0  0  0  0  0  0  0  0  0  0
    7.0980   -0.2200   23.9300 O   0  0  0  0  0  0  0  0  0  0  0  0
    8.9950   -1.2730   24.6660 N   0  0  0  0  0  0  0  0  0  0  0  0
   10.1130   -0.5020   25.1780 C   0  0  0  0  0  0  0  0  0  0  0  0
   11.4280   -1.1420   24.8310 C   0  0  0  0  0  0  0  0  0  0  0  0
   11.5740   -2.5630   25.1590 N   0  0  0  0  0  0  0  0  0  0  0  0
   13.1000   -3.0820   24.7380 S   0  0  0  0  0  0  0  0  0  0  0  0
   13.7880   -1.9040   25.1480 O   0  0  0  0  0  0  0  0  0  0  0  0
   13.1800   -3.3230   23.3290 O   0  0  0  0  0  0  0  0  0  0  0  0
   13.8730   -4.2600   25.9190 C   0  0  0  0  0  0  0  0  0  0  0  0
   14.6030   -5.4920   26.1610 C   0  0  0  0  0  0  0  0  0  0  0  0
   15.3580   -6.3930   27.3330 C   0  0  0  0  0  0  0  0  0  0  0  0
   15.2170   -5.9410   28.1590 C   0  0  0  0  0  0  0  0  0  0  0  0
   14.4530   -4.7910   27.9170 C   0  0  0  0  0  0  0  0  0  0  0  0
   14.5280   -4.7120   29.0940 F   0  0  0  0  0  0  0  0  0  0  0  0
   13.8190   -3.9850   26.8330 C   0  0  0  0  0  0  0  0  0  0  0  0
   10.4220   -3.3640   25.1290 C   0  0  0  0  0  0  0  0  0  0  0  0
    9.2910   -2.6860   24.3270 C   0  0  0  0  0  0  0  0  0  0  0  0
    9.7380    1.0040   22.5530 C   0  0  0  0  0  0  0  0  0  0  0  0
   11.0490    1.1810   22.9700 C   0  0  0  0  0  0  0  0  0  0  0  0
   11.4810    2.4890   22.8790 C   0  0  0  0  0  0  0  0  0  0  0  0
   10.5040    3.3220   22.3910 C   0  0  0  0  0  0  0  0  0  0  0  0
    9.0490    2.4930   22.0430 S   0  0  0  0  0  0  0  0  0  0  0  0
    6.7220    0.0790   21.3220 C   0  0  0  0  0  0  0  0  0  0  0  0
    5.5330   -0.9260   21.3270 C   0  0  0  0  0  0  0  0  0  0  0  0
  1  2  1  0
  2  3  2  0
  2  4  1  0
  4  5  1  0
  5  6  1  0
  6  7  1  0
  7  8  1  0
  8  9  1  1
  9 10  2  0
  9 11  1  0
 11 12  1  0
 12 13  1  0
 13 14  1  0
 14 15  1  0
 15 16  2  0
 15 17  2  0
 15 18  1  0
 18 19  2  0
 19 20  1  0
 20 21  2  0
 21 22  1  0
 22 23  1  0
 18 24  1  0
 22 24  2  0
 14 25  1  0
 11 26  1  0
 25 26  1  0
  8 27  1  0
 27 28  2  0
 28 29  1  0
 29 30  2  0
 27 31  1  0
 30 31  1  0
  7 32  1  0
  4 33  1  0
 32 33  1  0
M  END
