MAK-UNK-10dfa458-39-vinylsulfonamide
     RDKit          3D

 22 23  0  0  0  0  0  0  0  0999 V2000
    5.6820   -4.8570   20.5750 C   0  0  0  0  0  0  0  0  0  0  0  0
    5.4750   -4.1740   21.9600 C   0  0  0  0  0  0  0  0  0  0  0  0
    4.4390   -5.1520   23.0290 S   0  0  0  0  0  0  0  0  0  0  0  0
    3.0570   -4.8860   22.7420 O   0  0  0  0  0  0  0  0  0  0  0  0
    4.9690   -6.4830   23.1080 O   0  0  0  0  0  0  0  0  0  0  0  0
    4.8580   -4.5420   24.4520 N   0  0  0  0  0  0  0  0  0  0  0  0
    5.0340   -3.1030   24.6400 C   0  0  0  0  0  0  0  0  0  0  0  0
    6.5610   -2.9660   24.9090 C   0  0  0  0  0  0  0  0  0  0  0  0
    7.3970   -3.5530   23.8320 N   0  0  0  0  0  0  0  0  0  0  0  0
    7.6260   -2.6890   22.6400 C   0  0  2  0  0  0  0  0  0  0  0  0
    9.0400   -2.9050   22.1150 C   0  0  0  0  0  0  0  0  0  0  0  0
    9.9040   -2.5640   23.2910 N   0  0  0  0  0  0  0  0  0  0  0  0
    7.5610   -1.1950   23.0760 C   0  0  0  0  0  0  0  0  0  0  0  0
    6.3830   -0.4150   22.4470 C   0  0  0  0  0  0  0  0  0  0  0  0
    6.3070   -0.4210   20.9320 C   0  0  0  0  0  0  0  0  0  0  0  0
    5.6130   -1.6000   20.3010 C   0  0  0  0  0  0  0  0  0  0  0  0
    5.5320   -1.6380   18.9060 C   0  0  0  0  0  0  0  0  0  0  0  0
    6.0680   -0.6230   18.1260 C   0  0  0  0  0  0  0  0  0  0  0  0
    6.7230    0.4970   18.7270 C   0  0  0  0  0  0  0  0  0  0  0  0
    6.8410    0.5940   20.1230 C   0  0  0  0  0  0  0  0  0  0  0  0
    7.0250   -4.9680   23.7180 C   0  0  0  0  0  0  0  0  0  0  0  0
    6.0490   -5.3000   24.6910 C   0  0  0  0  0  0  0  0  0  0  0  0
  1  2  1  0
  3  2  1  0
  3  4  2  0
  3  5  2  0
  3  6  1  0
  6  7  1  0
  7  8  1  0
  8  9  1  0
  9 10  1  0
 10 11  1  1
 11 12  3  0
 10 13  1  0
 13 14  1  0
 14 15  1  0
 15 16  2  0
 16 17  1  0
 17 18  2  0
 18 19  1  0
 15 20  1  0
 19 20  2  0
  9 21  1  0
  6 22  1  0
 21 22  1  0
M  END
