MAK-UNK-148caf23-15-vinylsulfonamide
     RDKit          3D

 37 40  0  0  0  0  0  0  0  0999 V2000
    8.9250   -3.8750   20.3950 C   0  0  0  0  0  0  0  0  0  0  0  0
    7.8830   -4.6810   20.7190 C   0  0  0  0  0  0  0  0  0  0  0  0
    7.0270   -3.6570   21.6930 S   0  0  0  0  0  0  0  0  0  0  0  0
    5.3760   -4.0420   21.1500 O   0  0  0  0  0  0  0  0  0  0  0  0
    8.0960   -3.0110   21.2340 O   0  0  0  0  0  0  0  0  0  0  0  0
    6.9790   -1.9630   22.1900 C   0  0  0  0  0  0  0  0  0  0  0  0
    6.6380   -0.5150   22.3730 C   0  0  0  0  0  0  0  0  0  0  0  0
    6.5910   -2.1540   21.9110 C   0  0  0  0  0  0  0  0  0  0  0  0
    7.6990   -1.7320   22.6390 C   0  0  0  0  0  0  0  0  0  0  0  0
    7.1440   -0.7060   23.2730 N   0  0  0  0  0  0  0  0  0  0  0  0
    7.1410   -1.2620   24.6990 C   0  0  0  0  0  0  0  0  0  0  0  0
    8.1760   -0.3870   25.1630 C   0  0  0  0  0  0  0  0  0  0  0  0
    9.6820    0.1360   25.4930 C   0  0  0  0  0  0  0  0  0  0  0  0
    9.6470   -1.4140   24.5430 C   0  0  0  0  0  0  0  0  0  0  0  0
   10.9310   -1.3310   24.5020 N   0  0  0  0  0  0  0  0  0  0  0  0
   10.7210   -0.2600   25.1210 C   0  0  0  0  0  0  0  0  0  0  0  0
    9.3940   -0.7110   24.9560 C   0  0  0  0  0  0  0  0  0  0  0  0
    8.4630    0.5630   25.8630 S   0  0  0  0  0  0  0  0  0  0  0  0
    9.1230    1.0850   26.8810 O   0  0  0  0  0  0  0  0  0  0  0  0
    7.9790    1.4120   24.9020 O   0  0  0  0  0  0  0  0  0  0  0  0
    7.0760    0.3350   27.0600 N   0  0  0  0  0  0  0  0  0  0  0  0
    6.2570   -0.4720   27.5290 C   0  0  0  0  0  0  0  0  0  0  0  0
    5.5620    0.2940   28.3590 C   0  0  0  0  0  0  0  0  0  0  0  0
    4.4730   -0.1120   29.2870 C   0  0  0  0  0  0  0  0  0  0  0  0
    4.5840    0.1490   30.5120 N   0  0  0  0  0  0  0  0  0  0  0  0
    4.4050   -1.1090   31.3280 C   0  0  0  0  0  0  0  0  0  0  0  0
    5.7970   -1.0340   27.7850 C   0  0  0  0  0  0  0  0  0  0  0  0
    6.9800   -1.1000   26.7270 C   0  0  0  0  0  0  0  0  0  0  0  0
    6.5610   -2.5060   26.7490 C   0  0  0  0  0  0  0  0  0  0  0  0
    7.2030   -3.7940   26.2760 C   0  0  0  0  0  0  0  0  0  0  0  0
    6.4710   -5.0480   26.6400 C   0  0  0  0  0  0  0  0  0  0  0  0
    4.8700   -5.3760   27.3910 C   0  0  0  0  0  0  0  0  0  0  0  0
    4.0640   -4.2890   27.7320 C   0  0  0  0  0  0  0  0  0  0  0  0
    5.3120   -3.4000   27.2400 C   0  0  0  0  0  0  0  0  0  0  0  0
    4.4750   -2.1910   27.6650 F   0  0  0  0  0  0  0  0  0  0  0  0
    8.9390   -1.3220   23.4170 N   0  0  0  0  0  0  0  0  0  0  0  0
    7.9730   -1.6370   22.8120 C   0  0  0  0  0  0  0  0  0  0  0  0
  1  2  1  0
  3  2  1  0
  3  4  2  0
  3  5  2  0
  3  6  1  0
  6  7  2  0
  7  8  1  0
  8  9  2  0
  9 10  1  0
 10 11  1  0
 11 12  1  0
 12 13  2  0
 13 14  1  0
 14 15  2  0
 15 16  1  0
 12 17  1  0
 16 17  2  0
 18 17  1  0
 18 19  2  0
 18 20  2  0
 18 21  1  0
 21 22  1  0
 22 23  2  0
 23 24  1  0
 24 25  1  0
 25 26  1  0
 23 27  1  0
 21 28  1  0
 27 28  2  0
 28 29  1  0
 29 30  2  0
 30 31  1  0
 31 32  2  0
 32 33  1  0
 29 34  1  0
 33 34  2  0
 34 35  1  0
  9 36  1  0
  6 37  1  0
 36 37  2  0
M  END
