MAK-UNK-0d6072ac-16
     RDKit          3D

 20 22  0  0  0  0  0  0  0  0999 V2000
   12.9760    0.1710   23.4530 C   0  0  0  0  0  0  0  0  0  0  0  0
   12.3430   -1.1260   23.8110 C   0  0  0  0  0  0  0  0  0  0  0  0
   11.1020   -1.4100   22.9890 C   0  0  0  0  0  0  0  0  0  0  0  0
   10.4040   -2.7040   23.2800 C   0  0  0  0  0  0  0  0  0  0  0  0
    9.3620   -3.3320   22.8490 N   0  0  0  0  0  0  0  0  0  0  0  0
    9.2410   -4.4220   23.6600 C   0  0  0  0  0  0  0  0  0  0  0  0
    7.8260   -4.9030   23.6230 C   0  0  0  0  0  0  0  0  0  0  0  0
    7.4140   -4.7110   22.4850 C   0  0  0  0  0  0  0  0  0  0  0  0
    6.4670   -4.5420   21.4670 C   0  0  2  0  0  0  0  0  0  0  0  0
    6.1920   -3.3310   20.6080 C   0  0  0  0  0  0  0  0  0  0  0  0
    5.3940   -5.3610   22.1240 C   0  0  0  0  0  0  0  0  0  0  0  0
    4.1920   -5.1110   22.1370 O   0  0  0  0  0  0  0  0  0  0  0  0
    5.8510   -6.3800   22.6780 O   0  0  0  0  0  0  0  0  0  0  0  0
    8.4270   -5.5440   23.1360 C   0  0  0  0  0  0  0  0  0  0  0  0
    9.4420   -5.7020   24.1670 C   0  0  0  0  0  0  0  0  0  0  0  0
   10.3030   -4.7690   24.4920 C   0  0  0  0  0  0  0  0  0  0  0  0
   10.8290   -3.5430   24.2180 C   0  0  0  0  0  0  0  0  0  0  0  0
   11.9530   -3.2420   24.9270 C   0  0  0  0  0  0  0  0  0  0  0  0
   12.7050   -2.1390   24.7670 C   0  0  0  0  0  0  0  0  0  0  0  0
   13.9960   -2.3170   25.8310 Cl  0  0  0  0  0  0  0  0  0  0  0  0
  1  2  1  0
  2  3  2  0
  3  4  1  0
  4  5  1  0
  5  6  1  0
  6  7  2  0
  7  8  1  0
  8  9  1  0
  9 10  1  1
  9 11  1  0
 11 12  2  0
 11 13  1  0
  8 14  2  0
 14 15  1  0
  6 16  1  0
 15 16  2  0
  4 17  2  0
 16 17  1  0
 17 18  1  0
  2 19  1  0
 18 19  2  0
 19 20  1  0
M  END
