MAK-UNK-10799360-9-chloroacetamide
     RDKit          3D

 28 31  0  0  0  0  0  0  0  0999 V2000
    7.5030   -3.3520   19.4400 C   0  0  0  0  0  0  0  0  0  0  0  0
    6.3830   -2.6590   20.1690 C   0  0  0  0  0  0  0  0  0  0  0  0
    5.6260   -3.2950   19.3490 O   0  0  0  0  0  0  0  0  0  0  0  0
    7.5350   -2.1530   20.8530 N   0  0  0  0  0  0  0  0  0  0  0  0
    8.6790   -2.8610   21.5940 C   0  0  0  0  0  0  0  0  0  0  0  0
    8.8780   -1.8730   22.7380 C   0  0  1  0  0  0  0  0  0  0  0  0
    9.1280   -0.6480   21.8610 C   0  0  0  0  0  0  0  0  0  0  0  0
    7.7010   -0.6850   21.3240 C   0  0  2  0  0  0  0  0  0  0  0  0
    7.0640   -0.3730   22.6950 C   0  0  0  0  0  0  0  0  0  0  0  0
    7.4510   -1.6860   23.3160 C   0  0  2  0  0  0  0  0  0  0  0  0
    7.2940   -2.0010   24.7800 C   0  0  0  0  0  0  0  0  0  0  0  0
    6.2630   -3.0580   24.8880 N   0  0  0  0  0  0  0  0  0  0  0  0
    5.8600   -3.4490   23.5360 C   0  0  0  0  0  0  0  0  0  0  0  0
    5.2720   -2.3700   22.8480 C   0  0  0  0  0  0  0  0  0  0  0  0
    4.4860   -1.4590   23.6130 C   0  0  0  0  0  0  0  0  0  0  0  0
    3.7490   -0.4300   22.9410 C   0  0  0  0  0  0  0  0  0  0  0  0
    2.9460    0.5060   23.6190 C   0  0  0  0  0  0  0  0  0  0  0  0
    2.2500    1.4950   22.9080 C   0  0  0  0  0  0  0  0  0  0  0  0
    2.1410    1.2070   21.5850 F   0  0  0  0  0  0  0  0  0  0  0  0
    2.9190    2.6770   22.9520 F   0  0  0  0  0  0  0  0  0  0  0  0
    2.8400    0.4370   25.1220 C   0  0  0  0  0  0  0  0  0  0  0  0
    1.8650    1.5390   26.1030 S   0  0  0  0  0  0  0  0  0  0  0  0
    2.3120    3.0780   25.5840 N   0  0  0  0  0  0  0  0  0  0  0  0
    2.2980    1.3970   27.4770 O   0  0  0  0  0  0  0  0  0  0  0  0
    0.4750    1.3370   25.7440 O   0  0  0  0  0  0  0  0  0  0  0  0
    3.6460   -0.6680   25.7670 C   0  0  0  0  0  0  0  0  0  0  0  0
    4.4310   -1.5670   25.0490 C   0  0  0  0  0  0  0  0  0  0  0  0
    5.1700   -2.5660   25.6910 C   0  0  0  0  0  0  0  0  0  0  0  0
  1  2  1  0
  2  3  2  0
  2  4  1  0
  4  5  1  0
  6  5  1  6
  6  7  1  0
  4  8  1  0
  7  8  1  0
  8  9  1  1
  6 10  1  0
  9 10  1  0
 10 11  1  1
 11 12  1  0
 12 13  1  0
 13 14  1  0
 14 15  1  0
 15 16  2  0
 16 17  1  0
 17 18  1  0
 18 19  1  0
 18 20  1  0
 17 21  2  0
 21 22  1  0
 22 23  1  0
 22 24  2  0
 22 25  2  0
 21 26  1  0
 15 27  1  0
 26 27  2  0
 12 28  1  0
 27 28  1  0
M  END
