MAK-UNK-10799360-20-chloroacetamide
     RDKit          3D

 25 28  0  0  0  0  0  0  0  0999 V2000
    7.3740   -3.0570   19.0610 C   0  0  0  0  0  0  0  0  0  0  0  0
    6.1430   -3.1800   19.9310 C   0  0  0  0  0  0  0  0  0  0  0  0
    5.3090   -4.0710   19.7230 O   0  0  0  0  0  0  0  0  0  0  0  0
    6.0200   -2.2760   20.9440 N   0  0  0  0  0  0  0  0  0  0  0  0
    6.6980   -0.9770   20.8790 C   0  0  0  0  0  0  0  0  0  0  0  0
    7.7760   -1.1790   21.9850 C   0  0  1  0  0  0  0  0  0  0  0  0
    6.3720   -1.0580   22.7080 C   0  0  0  0  0  0  0  0  0  0  0  0
    5.9240   -2.4830   22.3820 C   0  0  2  0  0  0  0  0  0  0  0  0
    7.1720   -3.1320   22.9740 C   0  0  0  0  0  0  0  0  0  0  0  0
    7.8000   -1.8360   23.2970 N   0  0  0  0  0  0  0  0  0  0  0  0
    8.9760   -1.8450   24.1520 C   0  0  0  0  0  0  0  0  0  0  0  0
   10.0820   -0.8350   23.8650 C   0  0  0  0  0  0  0  0  0  0  0  0
   10.1130    0.4340   24.4660 C   0  0  0  0  0  0  0  0  0  0  0  0
   11.1810    1.2620   24.1460 C   0  0  0  0  0  0  0  0  0  0  0  0
   12.1750    0.9120   23.3430 C   0  0  0  0  0  0  0  0  0  0  0  0
   12.1410   -0.2780   22.7880 C   0  0  0  0  0  0  0  0  0  0  0  0
   11.1260   -1.1340   22.9920 C   0  0  0  0  0  0  0  0  0  0  0  0
   11.2030   -2.2760   22.2900 C   0  0  0  0  0  0  0  0  0  0  0  0
   12.3270   -2.9750   22.6060 N   0  0  0  0  0  0  0  0  0  0  0  0
   12.8950   -3.4630   21.4320 C   0  0  0  0  0  0  0  0  0  0  0  0
   12.0790   -3.3220   20.4370 C   0  0  0  0  0  0  0  0  0  0  0  0
   14.1570   -4.0960   21.1100 O   0  0  0  0  0  0  0  0  0  0  0  0
   13.0780   -2.4700   23.6620 C   0  0  0  0  0  0  0  0  0  0  0  0
   13.6720   -1.4720   23.0360 C   0  0  0  0  0  0  0  0  0  0  0  0
   13.2350   -0.6780   21.9960 C   0  0  0  0  0  0  0  0  0  0  0  0
  1  2  1  0
  2  3  2  0
  2  4  1  0
  4  5  1  0
  6  5  1  6
  6  7  1  0
  4  8  1  0
  7  8  1  0
  8  9  1  1
  6 10  1  0
  9 10  1  0
 10 11  1  0
 11 12  1  0
 12 13  2  0
 13 14  1  0
 14 15  2  0
 15 16  1  0
 12 17  1  0
 16 17  2  0
 17 18  1  0
 18 19  1  0
 19 20  1  0
 20 21  1  0
 20 22  2  0
 19 23  1  0
 23 24  1  0
 16 25  1  0
 24 25  1  0
M  END
