MAK-UNK-148caf23-16-nitrile
     RDKit          3D

 34 37  0  0  0  0  0  0  0  0999 V2000
    8.4210   -3.4050   19.7470 C   0  0  0  0  0  0  0  0  0  0  0  0
    7.1250   -3.3500   19.4240 N   0  0  0  0  0  0  0  0  0  0  0  0
    8.9970   -2.5350   21.0890 C   0  0  0  0  0  0  0  0  0  0  0  0
    8.0600   -2.3080   22.1520 C   0  0  0  0  0  0  0  0  0  0  0  0
    8.9440   -1.5530   23.0000 C   0  0  0  0  0  0  0  0  0  0  0  0
    9.3630   -0.8320   24.0810 C   0  0  0  0  0  0  0  0  0  0  0  0
   10.1460   -0.1120   24.9330 N   0  0  0  0  0  0  0  0  0  0  0  0
    9.5790   -0.6260   26.1020 C   0  0  0  0  0  0  0  0  0  0  0  0
    8.9260    0.0780   27.1440 C   0  0  0  0  0  0  0  0  0  0  0  0
    7.5580    0.4360   27.0700 C   0  0  0  0  0  0  0  0  0  0  0  0
    6.8250    1.1130   28.0390 N   0  0  0  0  0  0  0  0  0  0  0  0
    7.4940    1.4630   29.1670 C   0  0  0  0  0  0  0  0  0  0  0  0
    8.9720    1.1190   29.3360 C   0  0  0  0  0  0  0  0  0  0  0  0
    9.7910    1.5910   30.7630 S   0  0  0  0  0  0  0  0  0  0  0  0
    9.8660    3.0350   30.7500 O   0  0  0  0  0  0  0  0  0  0  0  0
   11.0080    0.8150   30.8430 O   0  0  0  0  0  0  0  0  0  0  0  0
    8.9020    1.0800   32.0790 N   0  0  0  0  0  0  0  0  0  0  0  0
    7.5480    0.7550   32.0410 C   0  0  0  0  0  0  0  0  0  0  0  0
    6.9930    0.3600   33.2290 C   0  0  0  0  0  0  0  0  0  0  0  0
    5.6730   -0.0120   33.4610 C   0  0  0  0  0  0  0  0  0  0  0  0
    5.5280   -0.1470   34.8200 N   0  0  0  0  0  0  0  0  0  0  0  0
    6.3180   -1.2280   35.4010 C   0  0  0  0  0  0  0  0  0  0  0  0
    8.1160    0.4440   34.1010 C   0  0  0  0  0  0  0  0  0  0  0  0
    9.2570    0.8790   33.4000 C   0  0  0  0  0  0  0  0  0  0  0  0
   10.4400    1.0110   34.1210 C   0  0  0  0  0  0  0  0  0  0  0  0
   11.5110    0.1480   33.9060 C   0  0  0  0  0  0  0  0  0  0  0  0
   12.7000    0.2200   34.6180 C   0  0  0  0  0  0  0  0  0  0  0  0
   12.8580    1.1950   35.5930 C   0  0  0  0  0  0  0  0  0  0  0  0
   11.8190    2.0840   35.8340 C   0  0  0  0  0  0  0  0  0  0  0  0
   10.6220    1.9990   35.1120 C   0  0  0  0  0  0  0  0  0  0  0  0
    9.6470    2.8790   35.3890 F   0  0  0  0  0  0  0  0  0  0  0  0
    9.6220    0.4390   28.3100 C   0  0  0  0  0  0  0  0  0  0  0  0
   10.3910   -1.0320   23.0630 N   0  0  0  0  0  0  0  0  0  0  0  0
   10.2350   -1.7930   21.7190 C   0  0  0  0  0  0  0  0  0  0  0  0
  1  2  2  3
  1  3  1  0
  3  4  2  0
  4  5  1  0
  5  6  2  0
  6  7  1  0
  7  8  1  0
  8  9  1  0
  9 10  2  0
 10 11  1  0
 11 12  2  0
 12 13  1  0
 14 13  1  0
 14 15  2  0
 14 16  2  0
 14 17  1  0
 17 18  1  0
 18 19  2  0
 19 20  1  0
 20 21  1  0
 21 22  1  0
 19 23  1  0
 17 24  1  0
 23 24  2  0
 24 25  1  0
 25 26  2  0
 26 27  1  0
 27 28  2  0
 28 29  1  0
 25 30  1  0
 29 30  2  0
 30 31  1  0
  9 32  1  0
 13 32  2  0
  6 33  1  0
  3 34  1  0
 33 34  2  0
M  END
