MAK-UNK-8fdbca50-2-chloroacetamide
     RDKit          3D

 39 42  0  0  0  0  0  0  0  0999 V2000
    8.1540   -4.1650   20.6760 C   0  0  0  0  0  0  0  0  0  0  0  0
    6.6270   -4.1910   20.7970 C   0  0  0  0  0  0  0  0  0  0  0  0
    5.7780   -4.2740   19.8830 O   0  0  0  0  0  0  0  0  0  0  0  0
    6.2420   -4.1330   22.1380 N   0  0  0  0  0  0  0  0  0  0  0  0
    6.8590   -5.0800   23.0410 C   0  0  0  0  0  0  0  0  0  0  0  0
    8.3320   -4.7160   23.2630 C   0  0  0  0  0  0  0  0  0  0  0  0
    8.4270   -3.2600   23.6380 C   0  0  0  0  0  0  0  0  0  0  0  0
    9.1070   -2.2960   22.9030 C   0  0  0  0  0  0  0  0  0  0  0  0
    8.4280   -1.4220   22.0930 O   0  0  0  0  0  0  0  0  0  0  0  0
   10.4760   -2.3110   23.0720 N   0  0  0  0  0  0  0  0  0  0  0  0
   11.1120   -1.9910   21.8970 C   0  0  0  0  0  0  0  0  0  0  0  0
   11.1580   -1.8780   24.1340 C   0  0  1  0  0  0  0  0  0  0  0  0
   12.4990   -2.5500   24.3580 C   0  0  0  0  0  0  0  0  0  0  0  0
   11.3450   -0.3260   24.1530 C   0  0  1  0  0  0  0  0  0  0  0  0
   12.0080    0.1230   23.0710 C   0  0  0  0  0  0  0  0  0  0  0  0
    9.9770    0.3050   24.2240 C   0  0  0  0  0  0  0  0  0  0  0  0
   10.0100    1.6470   23.8470 C   0  0  0  0  0  0  0  0  0  0  0  0
    8.9070    2.4490   23.5630 C   0  0  0  0  0  0  0  0  0  0  0  0
    9.3770    3.6930   23.2270 C   0  0  0  0  0  0  0  0  0  0  0  0
    8.6720    4.8340   22.8430 C   0  0  0  0  0  0  0  0  0  0  0  0
    9.0060    6.1370   23.1490 C   0  0  0  0  0  0  0  0  0  0  0  0
    8.2910    7.2470   22.7330 C   0  0  0  0  0  0  0  0  0  0  0  0
    7.1510    7.0730   21.9530 C   0  0  0  0  0  0  0  0  0  0  0  0
    6.7170    5.7880   21.5910 C   0  0  0  0  0  0  0  0  0  0  0  0
    7.4060    4.6300   21.9890 C   0  0  0  0  0  0  0  0  0  0  0  0
    6.9680    3.4090   21.6290 F   0  0  0  0  0  0  0  0  0  0  0  0
   10.7130    3.7830   23.2740 N   0  0  0  0  0  0  0  0  0  0  0  0
   11.8280    5.0610   22.9600 S   0  0  0  0  0  0  0  0  0  0  0  0
   11.1240    6.1450   22.2700 O   0  0  0  0  0  0  0  0  0  0  0  0
   12.5780    5.2630   24.2070 O   0  0  0  0  0  0  0  0  0  0  0  0
   12.8530    4.2270   21.8350 C   0  0  0  0  0  0  0  0  0  0  0  0
   13.4400    5.4240   21.8080 C   0  0  0  0  0  0  0  0  0  0  0  0
   12.7820    6.2740   22.6700 C   0  0  0  0  0  0  0  0  0  0  0  0
   11.6580    5.7200   23.3730 C   0  0  0  0  0  0  0  0  0  0  0  0
   11.1900    4.3790   23.2390 N   0  0  0  0  0  0  0  0  0  0  0  0
   11.8720    3.5440   22.3750 C   0  0  0  0  0  0  0  0  0  0  0  0
   11.1270    2.4910   23.6640 C   0  0  0  0  0  0  0  0  0  0  0  0
    7.0040   -2.7000   23.8860 C   0  0  0  0  0  0  0  0  0  0  0  0
    6.1250   -2.8400   22.8000 C   0  0  0  0  0  0  0  0  0  0  0  0
  1  2  1  0
  2  3  2  0
  2  4  1  0
  4  5  1  0
  5  6  1  0
  6  7  1  0
  7  8  1  0
  8  9  2  0
  8 10  1  0
 10 11  1  0
 10 12  1  0
 12 13  1  6
 12 14  1  0
 14 15  1  6
 14 16  1  0
 16 17  1  0
 17 18  1  0
 18 19  2  0
 19 20  1  0
 20 21  2  0
 21 22  1  0
 22 23  2  0
 23 24  1  0
 20 25  1  0
 24 25  2  0
 25 26  1  0
 19 27  1  0
 27 28  1  0
 28 29  2  0
 28 30  2  0
 28 31  1  0
 31 32  2  0
 32 33  1  0
 33 34  2  0
 34 35  1  0
 31 36  1  0
 35 36  2  0
 17 37  2  0
 27 37  1  0
  7 38  1  0
  4 39  1  0
 38 39  1  0
M  END
