MAK-UNK-9e4a73aa-5
     RDKit          3D

 26 29  0  0  0  0  0  0  0  0999 V2000
    9.2040   -0.6870   21.0090 O   0  0  0  0  0  0  0  0  0  0  0  0
    8.9420   -0.4630   22.1800 C   0  0  0  0  0  0  0  0  0  0  0  0
    8.7180    1.0190   22.6320 C   0  0  0  0  0  0  0  0  0  0  0  0
    8.0520    2.0800   21.7070 C   0  0  0  0  0  0  0  0  0  0  0  0
    7.8730    3.5240   22.2540 C   0  0  0  0  0  0  0  0  0  0  0  0
    7.3090    4.5310   21.5870 F   0  0  0  0  0  0  0  0  0  0  0  0
    8.3750    3.8230   23.6760 C   0  0  0  0  0  0  0  0  0  0  0  0
    8.3320    5.2790   24.5520 Cl  0  0  0  0  0  0  0  0  0  0  0  0
    8.9890    2.6210   24.3850 C   0  0  0  0  0  0  0  0  0  0  0  0
    9.1160    1.3660   23.8650 C   0  0  0  0  0  0  0  0  0  0  0  0
    9.7170    0.2720   24.7060 C   0  0  2  0  0  0  0  0  0  0  0  0
   10.8910   -0.2830   24.3020 C   0  0  0  0  0  0  0  0  0  0  0  0
   11.3560   -0.5380   22.8730 C   0  0  0  0  0  0  0  0  0  0  0  0
   12.7370   -1.2610   22.7430 C   0  0  0  0  0  0  0  0  0  0  0  0
   13.3790   -1.5870   24.0220 C   0  0  0  0  0  0  0  0  0  0  0  0
   12.9020   -1.3000   25.2470 C   0  0  0  0  0  0  0  0  0  0  0  0
   11.6400   -0.6360   25.3350 C   0  0  0  0  0  0  0  0  0  0  0  0
    8.7670   -0.8930   24.6230 C   0  0  0  0  0  0  0  0  0  0  0  0
    8.0390   -1.2070   25.5530 O   0  0  0  0  0  0  0  0  0  0  0  0
    8.8170   -1.5790   23.2680 C   0  0  1  0  0  0  0  0  0  0  0  0
    7.7030   -2.5310   22.8710 C   0  0  0  0  0  0  0  0  0  0  0  0
    7.8710   -1.4120   22.0170 C   0  0  0  0  0  0  0  0  0  0  0  0
    7.1000   -1.2530   20.9750 C   0  0  0  0  0  0  0  0  0  0  0  0
    6.1150   -1.7470   20.3050 C   0  0  0  0  0  0  0  0  0  0  0  0
    5.7510   -2.8490   20.9190 N   0  0  0  0  0  0  0  0  0  0  0  0
    6.5740   -3.1600   22.1560 C   0  0  0  0  0  0  0  0  0  0  0  0
  1  2  2  0
  2  3  1  0
  3  4  1  0
  4  5  2  0
  5  6  1  0
  5  7  1  0
  7  8  1  0
  7  9  2  0
  3 10  2  0
  9 10  1  0
 10 11  1  0
 11 12  1  6
 12 13  2  0
 13 14  1  0
 14 15  2  0
 15 16  1  0
 12 17  1  0
 16 17  2  0
 11 18  1  0
 18 19  2  0
  2 20  1  0
 18 20  1  0
 20 21  1  6
 21 22  2  0
 22 23  1  0
 23 24  2  0
 24 25  1  0
 21 26  1  0
 25 26  2  0
M  END
