MAK-UNK-e05327b2-8-vinylsulfonamide
     RDKit          3D

 30 33  0  0  0  0  0  0  0  0999 V2000
    7.4110   -3.0620   19.0460 C   0  0  0  0  0  0  0  0  0  0  0  0
    7.4200   -2.6040   20.4920 C   0  0  0  0  0  0  0  0  0  0  0  0
    6.0240   -3.3470   21.2620 S   0  0  0  0  0  0  0  0  0  0  0  0
    5.1780   -3.7600   20.1880 O   0  0  0  0  0  0  0  0  0  0  0  0
    5.5540   -2.4270   22.2720 O   0  0  0  0  0  0  0  0  0  0  0  0
    6.6640   -4.7460   22.0040 N   0  0  0  0  0  0  0  0  0  0  0  0
    7.3700   -4.5500   23.0560 C   0  0  0  0  0  0  0  0  0  0  0  0
    6.4120   -4.2000   24.1870 C   0  0  0  0  0  0  0  0  0  0  0  0
    5.6170   -5.3770   24.5520 N   0  0  0  0  0  0  0  0  0  0  0  0
    4.8990   -5.4650   26.0580 S   0  0  0  0  0  0  0  0  0  0  0  0
    5.9680   -5.4170   27.0230 O   0  0  0  0  0  0  0  0  0  0  0  0
    3.8940   -6.4960   26.0550 O   0  0  0  0  0  0  0  0  0  0  0  0
    4.0880   -3.8940   26.2240 C   0  0  0  0  0  0  0  0  0  0  0  0
    4.5500   -2.4600   26.2440 C   0  0  0  0  0  0  0  0  0  0  0  0
    3.4650   -1.4390   26.4090 C   0  0  0  0  0  0  0  0  0  0  0  0
    2.2200   -2.0860   26.5120 C   0  0  0  0  0  0  0  0  0  0  0  0
    0.9890   -1.4420   26.6820 C   0  0  0  0  0  0  0  0  0  0  0  0
    0.6540   -0.5650   25.6580 C   0  0  0  0  0  0  0  0  0  0  0  0
    1.3970    0.5960   25.4470 C   0  0  0  0  0  0  0  0  0  0  0  0
    1.0440    1.4720   24.4250 C   0  0  0  0  0  0  0  0  0  0  0  0
   -0.0590    1.1830   23.6090 C   0  0  0  0  0  0  0  0  0  0  0  0
   -0.8060    0.0160   23.8180 C   0  0  0  0  0  0  0  0  0  0  0  0
   -1.9110   -0.2830   23.0030 C   0  0  0  0  0  0  0  0  0  0  0  0
   -2.6820   -1.4430   23.1740 C   0  0  0  0  0  0  0  0  0  0  0  0
   -2.3860   -2.3670   24.1750 C   0  0  0  0  0  0  0  0  0  0  0  0
   -1.3100   -2.1240   25.0090 C   0  0  0  0  0  0  0  0  0  0  0  0
   -0.4510   -0.8710   24.8480 C   0  0  0  0  0  0  0  0  0  0  0  0
    2.3720   -3.8300   26.4150 S   0  0  0  0  0  0  0  0  0  0  0  0
    4.8490   -5.8270   23.3690 C   0  0  0  0  0  0  0  0  0  0  0  0
    5.7220   -5.8750   22.1090 C   0  0  0  0  0  0  0  0  0  0  0  0
  1  2  1  0
  3  2  1  0
  3  4  2  0
  3  5  2  0
  3  6  1  0
  6  7  1  0
  7  8  1  0
  8  9  1  0
  9 10  1  0
 10 11  2  0
 10 12  2  0
 10 13  1  0
 13 14  2  0
 14 15  1  0
 15 16  2  0
 16 17  1  0
 17 18  1  0
 18 19  2  0
 19 20  1  0
 20 21  2  0
 21 22  1  0
 22 23  1  0
 23 24  2  0
 24 25  1  0
 25 26  2  0
 18 27  1  0
 22 27  2  0
 26 27  1  0
 13 28  1  0
 16 28  1  0
  9 29  1  0
  6 30  1  0
 29 30  1  0
M  END
