MAK-UNK-b2c98f02-8
     RDKit          3D

 28 30  0  0  0  0  0  0  0  0999 V2000
    9.0710    1.4840   21.3390 O   0  0  0  0  0  0  0  0  0  0  0  0
    8.6320    0.3340   21.4660 C   0  0  0  0  0  0  0  0  0  0  0  0
    9.4200   -0.7720   21.8250 C   0  0  0  0  0  0  0  0  0  0  0  0
   10.4720   -0.6430   22.8700 C   0  0  2  0  0  0  0  0  0  0  0  0
   11.9330   -0.5970   22.5370 C   0  0  0  0  0  0  0  0  0  0  0  0
   12.5800   -0.8150   23.7440 C   0  0  0  0  0  0  0  0  0  0  0  0
   11.8120   -0.2020   24.7510 C   0  0  0  0  0  0  0  0  0  0  0  0
   10.6240   -0.8960   25.0840 C   0  0  1  0  0  0  0  0  0  0  0  0
    9.0180   -0.0600   25.5270 S   0  0  0  0  0  0  0  0  0  0  0  0
    8.0440   -0.6280   24.6260 O   0  0  0  0  0  0  0  0  0  0  0  0
    9.0910    1.3330   25.6880 O   0  0  0  0  0  0  0  0  0  0  0  0
    8.4090   -0.4750   27.0330 N   0  0  0  0  0  0  0  0  0  0  0  0
    9.0030   -0.0370   28.1840 C   0  0  0  0  0  0  0  0  0  0  0  0
    8.4530    0.9980   28.9510 C   0  0  0  0  0  0  0  0  0  0  0  0
    9.3490    1.5160   30.0680 C   0  0  0  0  0  0  0  0  0  0  0  0
    9.4560    3.0310   30.2990 C   0  0  0  0  0  0  0  0  0  0  0  0
   10.2940    3.5310   31.3350 C   0  0  0  0  0  0  0  0  0  0  0  0
   10.9990    2.6170   32.1190 C   0  0  0  0  0  0  0  0  0  0  0  0
   10.8740    1.2660   31.8800 C   0  0  0  0  0  0  0  0  0  0  0  0
   10.0920    0.6620   30.8990 C   0  0  0  0  0  0  0  0  0  0  0  0
   10.2770   -1.5940   23.8170 C   0  0  0  0  0  0  0  0  0  0  0  0
    7.3370   -0.0290   21.2550 N   0  0  0  0  0  0  0  0  0  0  0  0
    6.6430    0.3750   20.1820 C   0  0  0  0  0  0  0  0  0  0  0  0
    5.5980    1.2330   20.3900 C   0  0  0  0  0  0  0  0  0  0  0  0
    4.7690    1.7590   19.2800 C   0  0  0  0  0  0  0  0  0  0  0  0
    5.2110    1.2490   17.9530 C   0  0  0  0  0  0  0  0  0  0  0  0
    6.2410    0.4030   17.7910 N   0  0  0  0  0  0  0  0  0  0  0  0
    6.9200   -0.0100   18.8830 C   0  0  0  0  0  0  0  0  0  0  0  0
  1  2  2  0
  2  3  1  0
  4  3  1  6
  4  5  1  0
  5  6  1  0
  6  7  1  0
  7  8  1  0
  8  9  1  6
  9 10  2  0
  9 11  2  0
  9 12  1  0
 12 13  1  0
 13 14  1  0
 14 15  1  0
 15 16  2  0
 16 17  1  0
 17 18  2  0
 18 19  1  0
 15 20  1  0
 19 20  2  0
  4 21  1  0
  8 21  1  0
  2 22  1  0
 22 23  1  0
 23 24  2  0
 24 25  1  0
 25 26  2  0
 26 27  1  0
 23 28  1  0
 27 28  2  0
M  END
