MAK-UNK-704ed37c-12-vinylsulfonamide
     RDKit          3D

 15 15  0  0  0  0  0  0  0  0999 V2000
    7.5950   -2.9770   18.5350 C   0  0  0  0  0  0  0  0  0  0  0  0
    7.2130   -2.5240   19.8900 C   0  0  0  0  0  0  0  0  0  0  0  0
    6.3160   -3.8300   20.6730 S   0  0  0  0  0  0  0  0  0  0  0  0
    5.1610   -4.2020   19.8660 O   0  0  0  0  0  0  0  0  0  0  0  0
    7.2000   -4.8490   21.2120 O   0  0  0  0  0  0  0  0  0  0  0  0
    5.7990   -3.0060   21.9980 N   0  0  0  0  0  0  0  0  0  0  0  0
    5.5960   -3.8400   23.1240 C   0  0  0  0  0  0  0  0  0  0  0  0
    6.7650   -4.2670   23.7510 C   0  0  0  0  0  0  0  0  0  0  0  0
    7.6830   -3.1490   24.0320 N   0  0  0  0  0  0  0  0  0  0  0  0
    7.1000   -2.4050   25.1570 C   0  0  0  0  0  0  0  0  0  0  0  0
    6.1330   -2.9880   26.0340 O   0  0  0  0  0  0  0  0  0  0  0  0
    7.5170   -1.1510   25.3010 N   0  0  0  0  0  0  0  0  0  0  0  0
    6.5890   -0.1780   25.1840 C   0  0  0  0  0  0  0  0  0  0  0  0
    7.9720   -2.3890   22.9500 C   0  0  0  0  0  0  0  0  0  0  0  0
    6.7150   -1.8850   22.2780 C   0  0  0  0  0  0  0  0  0  0  0  0
  1  2  1  0
  3  2  1  0
  3  4  2  0
  3  5  2  0
  3  6  1  0
  6  7  1  0
  7  8  1  0
  8  9  1  0
  9 10  1  0
 10 11  2  0
 10 12  1  0
 12 13  1  0
  9 14  1  0
  6 15  1  0
 14 15  1  0
M  END
