MAK-UNK-8fdbca50-1-vinylsulfonamide
     RDKit          3D

 41 44  0  0  0  0  0  0  0  0999 V2000
    6.2720   -5.7490   20.0000 C   0  0  0  0  0  0  0  0  0  0  0  0
    5.9960   -6.1210   21.4800 C   0  0  0  0  0  0  0  0  0  0  0  0
    6.0090   -4.6030   22.3480 S   0  0  0  0  0  0  0  0  0  0  0  0
    4.9700   -3.8270   21.7650 O   0  0  0  0  0  0  0  0  0  0  0  0
    7.3420   -4.1040   22.3410 O   0  0  0  0  0  0  0  0  0  0  0  0
    5.5300   -4.8440   23.9490 N   0  0  0  0  0  0  0  0  0  0  0  0
    4.1070   -4.6130   24.1910 C   0  0  0  0  0  0  0  0  0  0  0  0
    3.9400   -3.1290   24.7550 C   0  0  0  0  0  0  0  0  0  0  0  0
    5.0500   -2.2260   24.1180 C   0  0  0  0  0  0  0  0  0  0  0  0
    4.6950   -2.5540   22.6560 C   0  0  0  0  0  0  0  0  0  0  0  0
    3.8270   -3.3930   22.3870 O   0  0  0  0  0  0  0  0  0  0  0  0
    5.5190   -1.7590   21.6390 N   0  0  0  0  0  0  0  0  0  0  0  0
    5.8630   -2.4780   20.4030 C   0  0  0  0  0  0  0  0  0  0  0  0
    5.6710   -0.2910   21.4760 C   0  0  1  0  0  0  0  0  0  0  0  0
    4.7120    0.3320   20.4570 C   0  0  0  0  0  0  0  0  0  0  0  0
    5.7540    0.4480   22.6560 C   0  0  0  0  0  0  0  0  0  0  0  0
    6.4470    1.6000   22.4710 N   0  0  0  0  0  0  0  0  0  0  0  0
    7.6590    1.5280   21.8710 C   0  0  0  0  0  0  0  0  0  0  0  0
    8.6780    0.6680   22.3080 C   0  0  0  0  0  0  0  0  0  0  0  0
    8.5200   -0.6290   22.7120 C   0  0  0  0  0  0  0  0  0  0  0  0
    9.6590   -1.2690   23.0950 C   0  0  0  0  0  0  0  0  0  0  0  0
    9.6270   -2.6000   23.5430 C   0  0  0  0  0  0  0  0  0  0  0  0
    9.1350   -3.6670   22.7180 C   0  0  0  0  0  0  0  0  0  0  0  0
    9.0800   -5.0020   23.1820 C   0  0  0  0  0  0  0  0  0  0  0  0
    9.5160   -5.3200   24.4530 C   0  0  0  0  0  0  0  0  0  0  0  0
    9.9900   -4.2940   25.2290 C   0  0  0  0  0  0  0  0  0  0  0  0
   10.0670   -2.9370   24.8390 C   0  0  0  0  0  0  0  0  0  0  0  0
   10.5330   -2.0290   25.6690 F   0  0  0  0  0  0  0  0  0  0  0  0
   10.6750   -0.3470   22.9370 N   0  0  0  0  0  0  0  0  0  0  0  0
   12.3880   -0.5100   23.2370 S   0  0  0  0  0  0  0  0  0  0  0  0
   12.8660    0.7790   23.7150 O   0  0  0  0  0  0  0  0  0  0  0  0
   12.9050   -1.1200   22.0170 O   0  0  0  0  0  0  0  0  0  0  0  0
   12.4860   -1.6680   24.5400 C   0  0  0  0  0  0  0  0  0  0  0  0
   13.2420   -2.2080   23.3960 C   0  0  0  0  0  0  0  0  0  0  0  0
   13.1880   -1.2250   22.4140 C   0  0  0  0  0  0  0  0  0  0  0  0
   12.4030    0.0690   22.7860 C   0  0  0  0  0  0  0  0  0  0  0  0
   11.7250    0.3740   23.9790 N   0  0  0  0  0  0  0  0  0  0  0  0
   11.7830   -0.6020   24.9420 C   0  0  0  0  0  0  0  0  0  0  0  0
   10.0690    0.8510   22.4570 C   0  0  0  0  0  0  0  0  0  0  0  0
    6.4360   -2.7190   24.5670 C   0  0  0  0  0  0  0  0  0  0  0  0
    6.3640   -4.1880   24.9500 C   0  0  0  0  0  0  0  0  0  0  0  0
  1  2  1  0
  3  2  1  0
  3  4  2  0
  3  5  2  0
  3  6  1  0
  6  7  1  0
  7  8  1  0
  8  9  1  0
  9 10  1  0
 10 11  2  0
 10 12  1  0
 12 13  1  0
 12 14  1  0
 14 15  1  1
 14 16  1  0
 16 17  1  0
 17 18  1  0
 18 19  1  0
 19 20  1  0
 20 21  2  0
 21 22  1  0
 22 23  2  0
 23 24  1  0
 24 25  2  0
 25 26  1  0
 22 27  1  0
 26 27  2  0
 27 28  1  0
 21 29  1  0
 29 30  1  0
 30 31  2  0
 30 32  2  0
 30 33  1  0
 33 34  2  0
 34 35  1  0
 35 36  2  0
 36 37  1  0
 33 38  1  0
 37 38  2  0
 19 39  2  0
 29 39  1  0
  9 40  1  0
  6 41  1  0
 40 41  1  0
M  END
