MAK-UNK-212f693e-2
     RDKit          3D

 15 16  0  0  0  0  0  0  0  0999 V2000
    7.0070   -3.0180   20.6810 C   0  0  0  0  0  0  0  0  0  0  0  0
    6.1720   -4.3020   20.7560 C   0  0  0  0  0  0  0  0  0  0  0  0
    5.4270   -4.6680   19.8470 O   0  0  0  0  0  0  0  0  0  0  0  0
    6.3400   -5.0180   21.9180 N   0  0  0  0  0  0  0  0  0  0  0  0
    7.1920   -4.5200   22.9670 C   0  0  0  0  0  0  0  0  0  0  0  0
    6.4690   -4.5990   24.2950 C   0  0  0  0  0  0  0  0  0  0  0  0
    4.9890   -4.7350   24.1200 C   0  0  0  0  0  0  0  0  0  0  0  0
    4.3880   -4.8220   25.1990 O   0  0  0  0  0  0  0  0  0  0  0  0
    3.4270   -3.8850   25.4130 C   0  0  0  0  0  0  0  0  0  0  0  0
    3.6540   -2.5450   25.7330 C   0  0  0  0  0  0  0  0  0  0  0  0
    2.5320   -1.7270   25.9150 C   0  0  0  0  0  0  0  0  0  0  0  0
    1.0550   -2.5630   25.7040 S   0  0  0  0  0  0  0  0  0  0  0  0
    1.9100   -4.0090   25.3670 C   0  0  0  0  0  0  0  0  0  0  0  0
    4.5770   -5.7290   23.2040 C   0  0  0  0  0  0  0  0  0  0  0  0
    5.5610   -6.1060   22.2740 C   0  0  0  0  0  0  0  0  0  0  0  0
  1  2  1  0
  2  3  2  0
  2  4  1  0
  4  5  1  0
  5  6  1  0
  6  7  1  0
  7  8  1  0
  8  9  1  0
  9 10  1  0
 10 11  2  0
 11 12  1  0
  9 13  2  0
 12 13  1  0
  7 14  1  0
  4 15  1  0
 14 15  1  0
M  END
