MAK-UNK-194150d3-15
     RDKit          3D

 21 22  0  0  0  0  0  0  0  0999 V2000
    7.0530   -2.6760   16.2330 C   0  0  0  0  0  0  0  0  0  0  0  0
    8.2600   -2.2940   16.7450 C   0  0  0  0  0  0  0  0  0  0  0  0
    7.8570   -0.9430   16.6750 C   0  0  0  0  0  0  0  0  0  0  0  0
    8.4770   -0.2620   15.7480 N   0  0  0  0  0  0  0  0  0  0  0  0
    8.0300    1.0390   15.6570 C   0  0  0  0  0  0  0  0  0  0  0  0
    7.0800    1.6550   16.3380 N   0  0  0  0  0  0  0  0  0  0  0  0
    6.5100    0.9240   17.2570 C   0  0  0  0  0  0  0  0  0  0  0  0
    5.5030    1.5410   18.0130 N   0  0  0  0  0  0  0  0  0  0  0  0
    6.9050   -0.4600   17.4760 C   0  0  0  0  0  0  0  0  0  0  0  0
    6.2170   -1.2080   18.5630 C   0  0  0  0  0  0  0  0  0  0  0  0
    7.0230   -0.8510   19.8290 C   0  0  0  0  0  0  0  0  0  0  0  0
    6.6120    0.2230   20.5880 C   0  0  0  0  0  0  0  0  0  0  0  0
    7.2650    0.2180   21.8830 N   0  0  0  0  0  0  0  0  0  0  0  0
    8.7160    0.0180   21.8370 C   0  0  0  0  0  0  0  0  0  0  0  0
    9.2290   -0.4800   23.1230 C   0  0  0  0  0  0  0  0  0  0  0  0
   10.6530   -1.0090   23.1920 C   0  0  0  0  0  0  0  0  0  0  0  0
   11.4020   -1.2790   22.0940 C   0  0  0  0  0  0  0  0  0  0  0  0
   12.6950   -1.7480   22.1380 C   0  0  0  0  0  0  0  0  0  0  0  0
   13.3040   -1.9740   23.3630 C   0  0  0  0  0  0  0  0  0  0  0  0
   12.6790   -1.7540   24.5830 C   0  0  0  0  0  0  0  0  0  0  0  0
   11.2420   -1.2410   24.4150 C   0  0  0  0  0  0  0  0  0  0  0  0
  1  2  1  0
  2  3  1  0
  3  4  2  0
  4  5  1  0
  5  6  2  0
  6  7  1  0
  7  8  1  0
  3  9  1  0
  7  9  2  0
  9 10  1  0
 10 11  3  0
 11 12  1  0
 12 13  1  0
 13 14  1  0
 14 15  1  0
 15 16  1  0
 16 17  2  0
 17 18  1  0
 18 19  2  0
 19 20  1  0
 16 21  1  0
 20 21  2  0
M  END
