MAK-UNK-5d2caa6f-23-chloroacetamide
     RDKit          3D

 28 31  0  0  0  0  0  0  0  0999 V2000
    7.1830   -2.9710   18.7710 C   0  0  0  0  0  0  0  0  0  0  0  0
    6.2300   -3.2830   19.8830 C   0  0  0  0  0  0  0  0  0  0  0  0
    5.4080   -4.1970   19.7690 O   0  0  0  0  0  0  0  0  0  0  0  0
    6.3610   -2.4950   21.0000 N   0  0  0  0  0  0  0  0  0  0  0  0
    7.4200   -1.4690   21.1320 C   0  0  0  0  0  0  0  0  0  0  0  0
    7.9430   -1.5300   22.4230 C   0  0  1  0  0  0  0  0  0  0  0  0
    6.6130   -1.4910   22.9220 C   0  0  0  0  0  0  0  0  0  0  0  0
    6.0480   -2.7850   22.4030 C   0  0  2  0  0  0  0  0  0  0  0  0
    7.1080   -3.6970   22.8910 C   0  0  0  0  0  0  0  0  0  0  0  0
    7.9410   -2.6520   23.4800 N   0  0  0  0  0  0  0  0  0  0  0  0
    9.2710   -3.0410   24.0290 C   0  0  0  0  0  0  0  0  0  0  0  0
   10.3230   -1.9700   23.8440 C   0  0  0  0  0  0  0  0  0  0  0  0
   11.2860   -2.2240   22.7380 C   0  0  0  0  0  0  0  0  0  0  0  0
   12.3690   -1.2280   22.4900 C   0  0  0  0  0  0  0  0  0  0  0  0
   13.4440   -1.5560   21.2280 Cl  0  0  0  0  0  0  0  0  0  0  0  0
   12.4420   -0.0700   23.3200 C   0  0  0  0  0  0  0  0  0  0  0  0
   11.3790    0.0490   24.4110 C   0  0  0  0  0  0  0  0  0  0  0  0
   10.3600   -0.8870   24.6370 C   0  0  0  0  0  0  0  0  0  0  0  0
    9.2550   -0.8090   25.7080 C   0  0  0  0  0  0  0  0  0  0  0  0
    9.3840    0.2420   26.6610 N   0  0  0  0  0  0  0  0  0  0  0  0
    9.0060    0.1790   28.0880 C   0  0  0  0  0  0  0  0  0  0  0  0
    9.8210    0.5100   28.9580 O   0  0  0  0  0  0  0  0  0  0  0  0
    7.5760   -0.3090   28.3520 C   0  0  2  0  0  0  0  0  0  0  0  0
    6.5250    0.2370   27.3770 C   0  0  0  0  0  0  0  0  0  0  0  0
    6.0960    1.5120   27.7580 C   0  0  0  0  0  0  0  0  0  0  0  0
    5.2820    1.3940   29.0460 C   0  0  0  0  0  0  0  0  0  0  0  0
    5.7720    0.3680   29.9100 O   0  0  0  0  0  0  0  0  0  0  0  0
    7.1780    0.1490   29.7710 C   0  0  0  0  0  0  0  0  0  0  0  0
  1  2  1  0
  2  3  2  0
  2  4  1  0
  4  5  1  0
  6  5  1  6
  6  7  1  0
  4  8  1  0
  7  8  1  0
  8  9  1  1
  6 10  1  0
  9 10  1  0
 10 11  1  0
 11 12  1  0
 12 13  2  0
 13 14  1  0
 14 15  1  0
 14 16  2  0
 16 17  1  0
 12 18  1  0
 17 18  2  0
 18 19  1  0
 19 20  1  0
 20 21  1  0
 21 22  2  0
 23 21  1  6
 23 24  1  0
 24 25  1  0
 25 26  1  0
 26 27  1  0
 23 28  1  0
 27 28  1  0
M  END
