MAK-UNK-f983951f-21-chloroacetamide
     RDKit          3D

  9  9  0  0  0  0  0  0  0  0999 V2000
    7.0340   -3.4400   19.9570 C   0  0  0  0  0  0  0  0  0  0  0  0
    6.2600   -4.5830   20.5700 C   0  0  0  0  0  0  0  0  0  0  0  0
    5.3100   -5.0400   19.9790 O   0  0  0  0  0  0  0  0  0  0  0  0
    6.6130   -5.1210   21.7870 N   0  0  0  0  0  0  0  0  0  0  0  0
    5.7380   -6.1290   22.3320 C   0  0  0  0  0  0  0  0  0  0  0  0
    4.7510   -5.5320   23.1360 C   0  0  0  0  0  0  0  0  0  0  0  0
    5.0590   -4.1690   23.3950 O   0  0  0  0  0  0  0  0  0  0  0  0
    6.4090   -4.0450   23.8420 C   0  0  0  0  0  0  0  0  0  0  0  0
    7.3050   -4.3230   22.8100 C   0  0  0  0  0  0  0  0  0  0  0  0
  1  2  1  0
  2  3  2  0
  2  4  1  0
  4  5  1  0
  5  6  1  0
  6  7  1  0
  7  8  1  0
  4  9  1  0
  8  9  1  0
M  END
