MAK-UNK-212f693e-11-nitrile
     RDKit          3D

 14 15  0  0  0  0  0  0  0  0999 V2000
    6.5370   -4.7580   20.4520 C   0  0  0  0  0  0  0  0  0  0  0  0
    5.6300   -5.5410   20.0320 N   0  0  0  0  0  0  0  0  0  0  0  0
    6.6890   -4.4330   21.7780 N   0  0  0  0  0  0  0  0  0  0  0  0
    6.2460   -3.2330   22.2060 C   0  0  0  0  0  0  0  0  0  0  0  0
    5.0190   -3.2120   23.1310 C   0  0  0  0  0  0  0  0  0  0  0  0
    5.0210   -4.4910   23.9630 C   0  0  2  0  0  0  0  0  0  0  0  0
    4.4310   -4.1830   25.2910 O   0  0  0  0  0  0  0  0  0  0  0  0
    3.5640   -3.1370   25.1790 C   0  0  0  0  0  0  0  0  0  0  0  0
    3.3930   -4.3560   24.6430 C   0  0  0  0  0  0  0  0  0  0  0  0
    4.4600   -5.1130   25.0910 C   0  0  0  0  0  0  0  0  0  0  0  0
    5.5850   -4.2690   26.1240 S   0  0  0  0  0  0  0  0  0  0  0  0
    4.6550   -2.8250   26.0000 C   0  0  0  0  0  0  0  0  0  0  0  0
    6.2860   -4.9550   23.9970 N   0  0  0  0  0  0  0  0  0  0  0  0
    6.6650   -5.4510   22.7490 C   0  0  0  0  0  0  0  0  0  0  0  0
  1  2  2  3
  1  3  1  0
  3  4  1  0
  4  5  1  0
  5  6  1  0
  6  7  1  1
  7  8  1  0
  8  9  1  0
  9 10  2  0
 10 11  1  0
  8 12  2  0
 11 12  1  0
  6 13  1  0
  3 14  1  0
 13 14  1  0
M  END
