MAK-UNK-ec98eaf6-54-vinylsulfonamide
     RDKit          3D

 36 40  0  0  0  0  0  0  0  0999 V2000
    8.0600   -3.5330   19.8470 C   0  0  0  0  0  0  0  0  0  0  0  0
    6.8900   -2.8530   19.2210 C   0  0  0  0  0  0  0  0  0  0  0  0
    5.6080   -3.5850   20.1360 S   0  0  0  0  0  0  0  0  0  0  0  0
    4.4550   -2.9440   19.7090 O   0  0  0  0  0  0  0  0  0  0  0  0
    5.6330   -5.0070   19.9900 O   0  0  0  0  0  0  0  0  0  0  0  0
    6.0710   -3.1060   21.6950 N   0  0  0  0  0  0  0  0  0  0  0  0
    5.5860   -3.8080   22.8680 C   0  0  0  0  0  0  0  0  0  0  0  0
    6.4390   -3.1420   23.9740 C   0  0  2  0  0  0  0  0  0  0  0  0
    5.2560   -2.2420   23.5140 C   0  0  0  0  0  0  0  0  0  0  0  0
    5.8050   -1.7640   22.1480 C   0  0  1  0  0  0  0  0  0  0  0  0
    7.0100   -1.1400   22.8190 C   0  0  0  0  0  0  0  0  0  0  0  0
    6.9100   -1.7310   24.1820 N   0  0  0  0  0  0  0  0  0  0  0  0
    7.9970   -1.4750   25.1640 C   0  0  2  0  0  0  0  0  0  0  0  0
    7.3860   -1.0780   26.5180 C   0  0  0  0  0  0  0  0  0  0  0  0
    8.0040   -1.8240   27.6820 C   0  0  0  0  0  0  0  0  0  0  0  0
    8.2090   -3.2050   27.5850 C   0  0  0  0  0  0  0  0  0  0  0  0
    7.4070   -4.0890   28.3090 C   0  0  0  0  0  0  0  0  0  0  0  0
    7.6140   -5.4580   28.2090 C   0  0  0  0  0  0  0  0  0  0  0  0
    8.6220   -5.9450   27.3880 C   0  0  0  0  0  0  0  0  0  0  0  0
    9.4250   -5.0860   26.6710 C   0  0  0  0  0  0  0  0  0  0  0  0
    9.2190   -3.7230   26.7650 C   0  0  0  0  0  0  0  0  0  0  0  0
    9.0450   -0.4490   24.7160 C   0  0  0  0  0  0  0  0  0  0  0  0
    8.8830    0.9270   24.9140 C   0  0  0  0  0  0  0  0  0  0  0  0
    9.8440    1.8540   24.4900 C   0  0  0  0  0  0  0  0  0  0  0  0
   10.9820    1.3680   23.8580 C   0  0  0  0  0  0  0  0  0  0  0  0
   11.2190    0.0070   23.6230 C   0  0  0  0  0  0  0  0  0  0  0  0
   12.4280   -0.5630   22.9260 C   0  0  0  0  0  0  0  0  0  0  0  0
   13.3780   -1.5320   22.3280 C   0  0  0  0  0  0  0  0  0  0  0  0
   12.9340   -2.6240   21.4470 C   0  0  0  0  0  0  0  0  0  0  0  0
   11.5370   -2.4910   21.0830 N   0  0  0  0  0  0  0  0  0  0  0  0
   10.7580   -1.4830   21.6210 C   0  0  0  0  0  0  0  0  0  0  0  0
    9.2950   -1.7710   21.6500 C   0  0  0  0  0  0  0  0  0  0  0  0
   11.1850   -0.4170   22.0350 O   0  0  0  0  0  0  0  0  0  0  0  0
   11.8670   -1.8640   23.1270 C   0  0  0  0  0  0  0  0  0  0  0  0
   10.6780   -2.0090   23.7460 N   0  0  0  0  0  0  0  0  0  0  0  0
   10.2360   -0.8330   24.0680 C   0  0  0  0  0  0  0  0  0  0  0  0
  1  2  1  0
  3  2  1  0
  3  4  2  0
  3  5  2  0
  3  6  1  0
  6  7  1  0
  8  7  1  6
  8  9  1  0
  6 10  1  0
  9 10  1  0
 10 11  1  1
  8 12  1  0
 11 12  1  0
 12 13  1  0
 13 14  1  1
 14 15  1  0
 15 16  1  0
 16 17  2  0
 17 18  1  0
 18 19  2  0
 19 20  1  0
 16 21  1  0
 20 21  2  0
 13 22  1  0
 22 23  1  0
 23 24  2  0
 24 25  1  0
 25 26  2  0
 26 27  1  0
 27 28  1  0
 28 29  1  0
 29 30  1  0
 30 31  1  0
 31 32  1  0
 31 33  2  0
 27 34  2  0
 34 35  1  0
 22 36  2  0
 26 36  1  0
 35 36  1  0
M  END
