MAK-UNK-a7992eb3-7-acrylamide
     RDKit          3D

 26 28  0  0  0  0  0  0  0  0999 V2000
    7.5800   -3.8530   20.4910 C   0  0  0  0  0  0  0  0  0  0  0  0
    7.3330   -3.8700   21.9940 C   0  0  0  0  0  0  0  0  0  0  0  0
    5.9070   -4.2670   22.2770 C   0  0  0  0  0  0  0  0  0  0  0  0
    4.9730   -3.7080   21.6990 O   0  0  0  0  0  0  0  0  0  0  0  0
    5.7140   -5.2730   23.2100 N   0  0  0  0  0  0  0  0  0  0  0  0
    6.2510   -5.0940   24.4370 C   0  0  0  0  0  0  0  0  0  0  0  0
    5.5240   -5.4300   25.5710 C   0  0  0  0  0  0  0  0  0  0  0  0
    4.3870   -6.2470   25.4510 C   0  0  0  0  0  0  0  0  0  0  0  0
    3.3740   -6.0600   26.4020 C   0  0  0  0  0  0  0  0  0  0  0  0
    3.5340   -6.8020   27.6200 O   0  0  0  0  0  0  0  0  0  0  0  0
    2.3520   -5.1800   26.0860 N   0  0  0  0  0  0  0  0  0  0  0  0
    2.6980   -3.8740   25.5340 C   0  0  0  0  0  0  0  0  0  0  0  0
    2.3100   -2.4020   25.3460 C   0  0  0  0  0  0  0  0  0  0  0  0
    0.9580   -1.9640   25.9860 C   0  0  0  0  0  0  0  0  0  0  0  0
    0.0390   -2.9280   26.7860 C   0  0  0  0  0  0  0  0  0  0  0  0
    0.4850   -4.3810   26.9430 C   0  0  0  0  0  0  0  0  0  0  0  0
    1.5000   -3.5570   26.1440 C   0  0  0  0  0  0  0  0  0  0  0  0
    1.2170   -2.3460   26.0050 O   0  0  0  0  0  0  0  0  0  0  0  0
    1.7820   -1.2300   26.7890 C   0  0  0  0  0  0  0  0  0  0  0  0
    2.5590   -0.2680   26.1400 C   0  0  0  0  0  0  0  0  0  0  0  0
    1.3470    0.9530   26.6290 S   0  0  0  0  0  0  0  0  0  0  0  0
    1.9060    1.9060   27.5620 O   0  0  0  0  0  0  0  0  0  0  0  0
    0.4980    1.3490   25.5130 O   0  0  0  0  0  0  0  0  0  0  0  0
    0.6780   -0.4780   27.4790 C   0  0  0  0  0  0  0  0  0  0  0  0
    3.7780   -6.1840   24.0280 C   0  0  0  0  0  0  0  0  0  0  0  0
    4.7960   -6.3910   23.1020 C   0  0  0  0  0  0  0  0  0  0  0  0
  1  2  1  0
  2  3  1  0
  3  4  2  0
  3  5  1  0
  5  6  1  0
  6  7  1  0
  7  8  1  0
  8  9  1  0
  9 10  2  0
  9 11  1  0
 11 12  1  0
 12 13  2  0
 13 14  1  0
 14 15  2  0
 15 16  1  0
 12 17  1  0
 16 17  2  0
 17 18  1  0
 18 19  1  0
 19 20  1  0
 21 20  1  0
 21 22  2  0
 21 23  2  0
 19 24  1  0
 21 24  1  0
  8 25  1  0
  5 26  1  0
 25 26  1  0
M  END
