MAK-UNK-90d0606b-1-acrylamide
     RDKit          3D

 25 27  0  0  0  0  0  0  0  0999 V2000
    7.8800   -3.2430   19.0220 C   0  0  0  0  0  0  0  0  0  0  0  0
    6.6600   -2.4150   18.8010 C   0  0  0  0  0  0  0  0  0  0  0  0
    5.7830   -2.7540   19.9350 C   0  0  0  0  0  0  0  0  0  0  0  0
    4.9380   -3.6190   19.7300 O   0  0  0  0  0  0  0  0  0  0  0  0
    6.0360   -2.1380   21.1180 N   0  0  0  0  0  0  0  0  0  0  0  0
    7.0130   -1.0510   21.2220 C   0  0  0  0  0  0  0  0  0  0  0  0
    8.0290   -1.5540   22.3110 C   0  0  1  0  0  0  0  0  0  0  0  0
    6.6530   -1.2880   23.0240 C   0  0  0  0  0  0  0  0  0  0  0  0
    5.9280   -2.5400   22.5040 C   0  0  2  0  0  0  0  0  0  0  0  0
    7.0080   -3.5250   22.9570 C   0  0  0  0  0  0  0  0  0  0  0  0
    7.9300   -2.5020   23.4550 N   0  0  0  0  0  0  0  0  0  0  0  0
    9.1430   -3.0260   24.0120 C   0  0  0  0  0  0  0  0  0  0  0  0
   10.2260   -2.0510   24.1030 C   0  0  0  0  0  0  0  0  0  0  0  0
    9.8970   -0.9590   24.8060 C   0  0  2  0  0  0  0  0  0  0  0  0
   11.1600   -0.3120   25.1320 N   0  0  0  0  0  0  0  0  0  0  0  0
   11.9750   -0.2090   24.0530 C   0  0  0  0  0  0  0  0  0  0  0  0
   12.4330   -1.2530   23.3400 C   0  0  0  0  0  0  0  0  0  0  0  0
   13.2770   -1.0330   22.2130 C   0  0  0  0  0  0  0  0  0  0  0  0
   13.5750    0.2710   21.9370 C   0  0  0  0  0  0  0  0  0  0  0  0
   13.0880    1.3230   22.6980 C   0  0  0  0  0  0  0  0  0  0  0  0
   12.2890    1.0750   23.7390 C   0  0  0  0  0  0  0  0  0  0  0  0
    9.1350   -1.1110   26.1690 C   0  0  0  0  0  0  0  0  0  0  0  0
    9.3910   -0.3810   27.1300 O   0  0  0  0  0  0  0  0  0  0  0  0
    8.1720   -2.0870   26.2710 N   0  0  0  0  0  0  0  0  0  0  0  0
    6.8270   -1.7700   26.6520 C   0  0  0  0  0  0  0  0  0  0  0  0
  1  2  1  0
  2  3  1  0
  3  4  2  0
  3  5  1  0
  5  6  1  0
  7  6  1  6
  7  8  1  0
  5  9  1  0
  8  9  1  0
  9 10  1  6
  7 11  1  0
 10 11  1  0
 11 12  1  0
 12 13  1  0
 14 13  1  1
 14 15  1  0
 15 16  1  0
 16 17  2  0
 17 18  1  0
 18 19  2  0
 19 20  1  0
 16 21  1  0
 20 21  2  0
 14 22  1  0
 22 23  2  0
 22 24  1  0
 24 25  1  0
M  END
