MAK-UNK-3e0761f8-6-acrylamide
     RDKit          3D

 22 25  0  0  0  0  0  0  0  0999 V2000
    7.6960   -2.6970   18.6120 C   0  0  0  0  0  0  0  0  0  0  0  0
    6.2350   -2.8460   18.8610 C   0  0  0  0  0  0  0  0  0  0  0  0
    5.9830   -3.4760   20.1600 C   0  0  0  0  0  0  0  0  0  0  0  0
    5.2610   -4.4730   20.1390 O   0  0  0  0  0  0  0  0  0  0  0  0
    6.5930   -2.9130   21.2440 N   0  0  0  0  0  0  0  0  0  0  0  0
    7.2040   -1.5750   21.1520 C   0  0  0  0  0  0  0  0  0  0  0  0
    8.1060   -1.5340   22.4330 C   0  0  1  0  0  0  0  0  0  0  0  0
    6.5920   -1.4270   22.8410 C   0  0  0  0  0  0  0  0  0  0  0  0
    6.2610   -2.9160   22.6500 C   0  0  2  0  0  0  0  0  0  0  0  0
    7.4190   -3.4390   23.5160 C   0  0  0  0  0  0  0  0  0  0  0  0
    7.9310   -2.1020   23.8680 C   0  0  1  0  0  0  0  0  0  0  0  0
    9.1180   -2.1220   24.7720 C   0  0  0  0  0  0  0  0  0  0  0  0
   10.1610   -1.5740   24.1610 C   0  0  0  0  0  0  0  0  0  0  0  0
   10.7660   -2.2720   23.3140 N   0  0  0  0  0  0  0  0  0  0  0  0
   11.7320   -1.5180   22.8460 C   0  0  0  0  0  0  0  0  0  0  0  0
   12.4460   -2.1320   21.9270 C   0  0  0  0  0  0  0  0  0  0  0  0
   13.2550   -2.7350   20.9280 C   0  0  0  0  0  0  0  0  0  0  0  0
   13.3330   -1.0420   21.6810 C   0  0  0  0  0  0  0  0  0  0  0  0
   13.4380    0.2690   22.2240 C   0  0  0  0  0  0  0  0  0  0  0  0
   12.5970    0.7070   23.1590 N   0  0  0  0  0  0  0  0  0  0  0  0
   11.7050   -0.3030   23.4550 C   0  0  0  0  0  0  0  0  0  0  0  0
   10.6260   -0.2210   24.4280 N   0  0  0  0  0  0  0  0  0  0  0  0
  1  2  1  0
  2  3  1  0
  3  4  2  0
  3  5  1  0
  5  6  1  0
  7  6  1  6
  7  8  1  0
  5  9  1  0
  8  9  1  0
  9 10  1  1
  7 11  1  0
 10 11  1  0
 11 12  1  6
 12 13  1  0
 13 14  2  0
 14 15  1  0
 15 16  2  0
 16 17  1  0
 16 18  1  0
 18 19  2  0
 19 20  1  0
 15 21  1  0
 20 21  2  0
 13 22  1  0
 21 22  1  0
M  END
