MAK-UNK-704ed37c-4-acrylamide
     RDKit          3D

 17 18  0  0  0  0  0  0  0  0999 V2000
    7.3520   -2.9140   18.5860 C   0  0  0  0  0  0  0  0  0  0  0  0
    6.4710   -2.6660   19.7720 C   0  0  0  0  0  0  0  0  0  0  0  0
    6.0090   -3.9520   20.4160 C   0  0  0  0  0  0  0  0  0  0  0  0
    5.1520   -4.6440   19.8770 O   0  0  0  0  0  0  0  0  0  0  0  0
    6.6600   -4.2260   21.5920 N   0  0  0  0  0  0  0  0  0  0  0  0
    6.3250   -5.2740   22.4580 C   0  0  0  0  0  0  0  0  0  0  0  0
    5.8010   -4.9270   23.6970 C   0  0  0  0  0  0  0  0  0  0  0  0
    6.4980   -3.8900   24.3220 C   0  0  0  0  0  0  0  0  0  0  0  0
    5.9460   -3.3480   25.4630 C   0  0  0  0  0  0  0  0  0  0  0  0
    4.8190   -2.8520   25.3520 O   0  0  0  0  0  0  0  0  0  0  0  0
    6.5770   -3.3390   26.6530 N   0  0  0  0  0  0  0  0  0  0  0  0
    7.4720   -4.3410   26.8710 C   0  0  0  0  0  0  0  0  0  0  0  0
    7.6270   -4.6140   28.3610 C   0  0  0  0  0  0  0  0  0  0  0  0
    5.9960   -4.2900   29.0420 S   0  0  0  0  0  0  0  0  0  0  0  0
    5.6200   -3.1140   27.7330 C   0  0  0  0  0  0  0  0  0  0  0  0
    6.8180   -2.7030   23.3930 C   0  0  0  0  0  0  0  0  0  0  0  0
    7.4690   -3.2170   22.2670 C   0  0  0  0  0  0  0  0  0  0  0  0
  1  2  1  0
  2  3  1  0
  3  4  2  0
  3  5  1  0
  5  6  1  0
  6  7  1  0
  7  8  1  0
  8  9  1  0
  9 10  2  0
  9 11  1  0
 11 12  1  0
 12 13  1  0
 13 14  1  0
 11 15  1  0
 14 15  1  0
  8 16  1  0
  5 17  1  0
 16 17  1  0
M  END
