MAK-UNK-849bee6c-15-nitrile
     RDKit          3D

 25 27  0  0  0  0  0  0  0  0999 V2000
    7.0130   -3.3300   19.5990 C   0  0  0  0  0  0  0  0  0  0  0  0
    5.9990   -3.1630   18.8310 N   0  0  0  0  0  0  0  0  0  0  0  0
    7.1290   -2.7600   20.8660 N   0  0  0  0  0  0  0  0  0  0  0  0
    7.2740   -1.2920   20.9450 C   0  0  0  0  0  0  0  0  0  0  0  0
    8.4070   -1.8170   21.6690 C   0  0  0  0  0  0  0  0  0  0  0  0
    8.1360   -2.1870   23.0550 N   0  0  0  0  0  0  0  0  0  0  0  0
    9.2310   -2.3310   23.9010 C   0  0  0  0  0  0  0  0  0  0  0  0
   10.3770   -1.3300   23.6420 C   0  0  0  0  0  0  0  0  0  0  0  0
   11.7380   -1.8450   23.2620 C   0  0  0  0  0  0  0  0  0  0  0  0
   12.8530   -0.8750   23.0090 C   0  0  0  0  0  0  0  0  0  0  0  0
   12.6300    0.5000   23.1250 C   0  0  0  0  0  0  0  0  0  0  0  0
   11.3430    0.9980   23.4810 C   0  0  0  0  0  0  0  0  0  0  0  0
   11.1920    2.4150   23.5780 N   0  0  0  0  0  0  0  0  0  0  0  0
   11.9900    3.1630   22.7870 C   0  0  0  0  0  0  0  0  0  0  0  0
   10.2140    3.0890   24.3130 C   0  0  0  0  0  0  0  0  0  0  0  0
   10.3880    4.4780   24.5020 C   0  0  0  0  0  0  0  0  0  0  0  0
    9.4290    5.1750   25.2420 C   0  0  0  0  0  0  0  0  0  0  0  0
    8.3520    4.4870   25.7610 N   0  0  0  0  0  0  0  0  0  0  0  0
    8.2460    3.1420   25.5380 C   0  0  0  0  0  0  0  0  0  0  0  0
    7.1320    2.5120   26.0950 C   0  0  0  0  0  0  0  0  0  0  0  0
    6.2070    1.9860   26.5660 N   0  0  0  0  0  0  0  0  0  0  0  0
    9.1420    2.4230   24.8300 N   0  0  0  0  0  0  0  0  0  0  0  0
   10.2570    0.0800   23.7300 C   0  0  0  0  0  0  0  0  0  0  0  0
    7.3040   -3.3950   23.1020 C   0  0  0  0  0  0  0  0  0  0  0  0
    6.4120   -3.3510   22.0280 C   0  0  0  0  0  0  0  0  0  0  0  0
  1  2  2  3
  1  3  1  0
  3  4  1  0
  4  5  1  0
  5  6  1  0
  6  7  1  0
  7  8  1  0
  8  9  2  0
  9 10  1  0
 10 11  2  0
 11 12  1  0
 12 13  1  0
 13 14  1  0
 13 15  1  0
 15 16  2  0
 16 17  1  0
 17 18  2  0
 18 19  1  0
 19 20  1  0
 20 21  3  0
 15 22  1  0
 19 22  2  0
  8 23  1  0
 12 23  2  0
  6 24  1  0
  3 25  1  0
 24 25  1  0
M  END
