MAK-UNK-212f693e-24-vinylsulfonamide
     RDKit          3D

 17 18  0  0  0  0  0  0  0  0999 V2000
    6.6260   -4.5300   20.5890 C   0  0  0  0  0  0  0  0  0  0  0  0
    6.8280   -3.7350   21.8950 C   0  0  0  0  0  0  0  0  0  0  0  0
    5.2610   -3.0670   22.2970 S   0  0  0  0  0  0  0  0  0  0  0  0
    4.3930   -4.1980   22.4480 O   0  0  0  0  0  0  0  0  0  0  0  0
    5.0150   -2.0530   21.3040 O   0  0  0  0  0  0  0  0  0  0  0  0
    5.2930   -2.3300   23.7830 N   0  0  0  0  0  0  0  0  0  0  0  0
    4.0730   -2.5190   24.5440 C   0  0  0  0  0  0  0  0  0  0  0  0
    4.1740   -3.6950   25.5070 C   0  0  0  0  0  0  0  0  0  0  0  0
    5.4970   -3.6110   26.2010 C   0  0  0  0  0  0  0  0  0  0  0  0
    6.3550   -4.6670   26.0540 O   0  0  0  0  0  0  0  0  0  0  0  0
    6.5230   -5.3530   24.7820 C   0  0  0  0  0  0  0  0  0  0  0  0
    5.4660   -5.7370   23.9590 C   0  0  0  0  0  0  0  0  0  0  0  0
    5.8010   -6.3910   22.7800 C   0  0  0  0  0  0  0  0  0  0  0  0
    7.4790   -6.6120   22.5510 S   0  0  0  0  0  0  0  0  0  0  0  0
    7.7950   -5.8170   24.0530 C   0  0  0  0  0  0  0  0  0  0  0  0
    6.2450   -2.4750   25.8450 C   0  0  0  0  0  0  0  0  0  0  0  0
    6.4900   -2.3930   24.4720 C   0  0  0  0  0  0  0  0  0  0  0  0
  1  2  1  0
  3  2  1  0
  3  4  2  0
  3  5  2  0
  3  6  1  0
  6  7  1  0
  7  8  1  0
  8  9  1  0
  9 10  1  0
 10 11  1  0
 11 12  1  0
 12 13  2  0
 13 14  1  0
 11 15  2  0
 14 15  1  0
  9 16  1  0
  6 17  1  0
 16 17  1  0
M  END
