MAK-UNK-148caf23-23-vinylsulfonamide
     RDKit          3D

 37 40  0  0  0  0  0  0  0  0999 V2000
    7.3780   -5.9630   20.3230 C   0  0  0  0  0  0  0  0  0  0  0  0
    7.4240   -5.5550   21.7990 C   0  0  0  0  0  0  0  0  0  0  0  0
    6.7090   -3.9280   21.9700 S   0  0  0  0  0  0  0  0  0  0  0  0
    5.2950   -3.8990   21.1660 O   0  0  0  0  0  0  0  0  0  0  0  0
    6.4500   -3.9940   23.3690 O   0  0  0  0  0  0  0  0  0  0  0  0
    8.0940   -2.5660   21.9950 C   0  0  0  0  0  0  0  0  0  0  0  0
    7.8930   -2.6510   23.6710 C   0  0  0  0  0  0  0  0  0  0  0  0
    8.5770   -1.7590   24.9250 C   0  0  0  0  0  0  0  0  0  0  0  0
    9.4840   -0.7110   24.7180 C   0  0  0  0  0  0  0  0  0  0  0  0
   10.1930    0.2070   25.3550 N   0  0  0  0  0  0  0  0  0  0  0  0
    9.3290    0.4800   26.4900 C   0  0  0  0  0  0  0  0  0  0  0  0
    8.0910    1.2580   26.6060 C   0  0  0  0  0  0  0  0  0  0  0  0
    8.0910    2.6670   27.1590 C   0  0  0  0  0  0  0  0  0  0  0  0
    6.8330    3.4630   27.3220 C   0  0  0  0  0  0  0  0  0  0  0  0
    5.6830    2.9410   26.9890 C   0  0  0  0  0  0  0  0  0  0  0  0
    5.6200    1.6480   26.4640 C   0  0  0  0  0  0  0  0  0  0  0  0
    4.3700    1.2140   26.1310 F   0  0  0  0  0  0  0  0  0  0  0  0
    6.7270    0.8410   26.2730 C   0  0  0  0  0  0  0  0  0  0  0  0
    6.4050   -0.4000   25.7710 C   0  0  0  0  0  0  0  0  0  0  0  0
    6.2670   -1.4020   26.7320 C   0  0  0  0  0  0  0  0  0  0  0  0
    5.9210   -2.5420   26.0740 C   0  0  0  0  0  0  0  0  0  0  0  0
    5.6790   -3.7220   26.7590 C   0  0  0  0  0  0  0  0  0  0  0  0
    6.8550   -4.5660   26.8030 N   0  0  0  0  0  0  0  0  0  0  0  0
    6.9420   -5.4110   27.9050 C   0  0  0  0  0  0  0  0  0  0  0  0
    5.8610   -2.1940   24.6440 C   0  0  0  0  0  0  0  0  0  0  0  0
    6.1790   -0.8430   24.4720 N   0  0  0  0  0  0  0  0  0  0  0  0
    6.2100   -0.0830   22.9400 S   0  0  0  0  0  0  0  0  0  0  0  0
    5.6570   -1.0900   22.0220 O   0  0  0  0  0  0  0  0  0  0  0  0
    7.5730    0.4280   22.7170 O   0  0  0  0  0  0  0  0  0  0  0  0
    5.1020    1.2130   22.8950 C   0  0  0  0  0  0  0  0  0  0  0  0
    5.4720    2.5160   23.3370 C   0  0  0  0  0  0  0  0  0  0  0  0
    4.5130    3.5280   23.2620 C   0  0  0  0  0  0  0  0  0  0  0  0
    3.2400    3.2200   22.7310 C   0  0  0  0  0  0  0  0  0  0  0  0
    2.8600    1.9980   22.3070 N   0  0  0  0  0  0  0  0  0  0  0  0
    3.8240    1.0240   22.4060 C   0  0  0  0  0  0  0  0  0  0  0  0
    9.0520   -1.2880   23.8740 N   0  0  0  0  0  0  0  0  0  0  0  0
    8.5840   -1.9110   22.9610 C   0  0  0  0  0  0  0  0  0  0  0  0
  1  2  1  0
  3  2  1  0
  3  4  2  0
  3  5  2  0
  3  6  1  0
  6  7  2  0
  7  8  1  0
  8  9  2  0
  9 10  1  0
 10 11  1  0
 11 12  1  0
 12 13  2  0
 13 14  1  0
 14 15  2  0
 15 16  1  0
 16 17  1  0
 12 18  1  0
 16 18  2  0
 18 19  1  0
 19 20  2  0
 20 21  1  0
 21 22  1  0
 22 23  1  0
 23 24  1  0
 21 25  2  0
 19 26  1  0
 25 26  1  0
 26 27  1  0
 27 28  2  0
 27 29  2  0
 27 30  1  0
 30 31  2  0
 31 32  1  0
 32 33  2  0
 33 34  1  0
 30 35  1  0
 34 35  2  0
  9 36  1  0
  6 37  1  0
 36 37  2  0
M  END
