MAK-UNK-702fb7d3-10-vinylsulfonamide
     RDKit          3D

 44 49  0  0  0  0  0  0  0  0999 V2000
    9.0230   -4.2280   20.6750 C   0  0  0  0  0  0  0  0  0  0  0  0
    7.7870   -3.3140   20.7110 C   0  0  0  0  0  0  0  0  0  0  0  0
    6.5590   -4.0470   21.7720 S   0  0  0  0  0  0  0  0  0  0  0  0
    5.2520   -3.8780   21.1190 O   0  0  0  0  0  0  0  0  0  0  0  0
    7.0310   -5.3790   22.1080 O   0  0  0  0  0  0  0  0  0  0  0  0
    6.5540   -3.1060   23.2040 N   0  0  0  0  0  0  0  0  0  0  0  0
    7.8050   -2.7590   23.8940 C   0  0  0  0  0  0  0  0  0  0  0  0
    8.2550   -3.8520   24.5950 C   0  0  0  0  0  0  0  0  0  0  0  0
    9.5990   -4.1420   24.6630 C   0  0  0  0  0  0  0  0  0  0  0  0
   10.0970   -5.2480   25.3240 C   0  0  0  0  0  0  0  0  0  0  0  0
    9.1760   -6.2100   25.9870 C   0  0  0  0  0  0  0  0  0  0  0  0
    9.7990   -7.4160   26.6150 N   0  0  0  0  0  0  0  0  0  0  0  0
    9.9050   -9.1900   26.5340 C   0  0  0  0  0  0  0  0  0  0  0  0
    9.7770  -10.7510   28.0260 C   0  0  0  0  0  0  0  0  0  0  0  0
    9.0430  -10.7480   29.4360 C   0  0  0  0  0  0  0  0  0  0  0  0
    9.3680  -12.0030   30.2950 C   0  0  0  0  0  0  0  0  0  0  0  0
    9.0660  -12.4130   31.6600 C   0  0  0  0  0  0  0  0  0  0  0  0
    7.6640  -12.3790   32.2260 C   0  0  0  0  0  0  0  0  0  0  0  0
    7.3230  -12.7670   33.5970 C   0  0  0  0  0  0  0  0  0  0  0  0
    8.5260  -13.2220   34.4640 C   0  0  0  0  0  0  0  0  0  0  0  0
    9.9140  -13.2210   33.8190 C   0  0  0  0  0  0  0  0  0  0  0  0
   10.1340  -12.8260   32.4670 C   0  0  0  0  0  0  0  0  0  0  0  0
   11.3850  -12.8540   32.0000 F   0  0  0  0  0  0  0  0  0  0  0  0
   10.0800  -12.7690   29.6020 N   0  0  0  0  0  0  0  0  0  0  0  0
   10.8120  -14.3130   29.9950 S   0  0  0  0  0  0  0  0  0  0  0  0
   12.1190  -13.9540   30.4930 O   0  0  0  0  0  0  0  0  0  0  0  0
   10.7070  -15.1150   28.8220 O   0  0  0  0  0  0  0  0  0  0  0  0
   10.0780  -15.3230   31.2470 C   0  0  0  0  0  0  0  0  0  0  0  0
    9.4860  -14.8010   32.3810 C   0  0  0  0  0  0  0  0  0  0  0  0
    8.9530  -15.7040   33.2670 C   0  0  0  0  0  0  0  0  0  0  0  0
    9.0420  -17.2040   32.9600 C   0  0  0  0  0  0  0  0  0  0  0  0
    9.6280  -17.6570   31.8460 N   0  0  0  0  0  0  0  0  0  0  0  0
   10.1300  -16.7020   31.0190 C   0  0  0  0  0  0  0  0  0  0  0  0
   10.2660  -12.1430   28.3570 C   0  0  0  0  0  0  0  0  0  0  0  0
    7.8130   -5.8230   25.9240 C   0  0  0  0  0  0  0  0  0  0  0  0
    7.3490   -4.7170   25.2680 C   0  0  0  0  0  0  0  0  0  0  0  0
    5.9580   -4.4980   25.2950 C   0  0  1  0  0  0  0  0  0  0  0  0
    5.5450   -3.9120   26.4920 C   0  0  0  0  0  0  0  0  0  0  0  0
    6.4770   -3.6600   27.5230 C   0  0  0  0  0  0  0  0  0  0  0  0
    6.0910   -3.0730   28.7290 C   0  0  0  0  0  0  0  0  0  0  0  0
    4.7670   -2.7210   28.9470 C   0  0  0  0  0  0  0  0  0  0  0  0
    3.8240   -2.9560   27.9560 C   0  0  0  0  0  0  0  0  0  0  0  0
    4.2060   -3.5430   26.7440 C   0  0  0  0  0  0  0  0  0  0  0  0
    5.4990   -3.4960   24.1920 C   0  0  0  0  0  0  0  0  0  0  0  0
  1  2  1  0
  3  2  1  0
  3  4  2  0
  3  5  2  0
  3  6  1  0
  6  7  1  0
  7  8  1  0
  8  9  1  0
  9 10  2  0
 10 11  1  0
 11 12  1  0
 12 13  1  0
 13 14  1  0
 14 15  1  0
 15 16  2  0
 16 17  1  0
 17 18  2  0
 18 19  1  0
 19 20  2  0
 20 21  1  0
 17 22  1  0
 21 22  2  0
 22 23  1  0
 16 24  1  0
 24 25  1  0
 25 26  2  0
 25 27  2  0
 25 28  1  0
 28 29  2  0
 29 30  1  0
 30 31  2  0
 31 32  1  0
 28 33  1  0
 32 33  2  0
 14 34  2  0
 24 34  1  0
 11 35  2  0
  8 36  2  0
 35 36  1  0
 36 37  1  0
 37 38  1  1
 38 39  2  0
 39 40  1  0
 40 41  2  0
 41 42  1  0
 38 43  1  0
 42 43  2  0
  6 44  1  0
 37 44  1  0
M  END
