MAK-UNK-27459e11-9
     RDKit          3D

 17 17  0  0  0  0  0  0  0  0999 V2000
    6.7020   -5.4040   27.0960 C   0  0  0  0  0  0  0  0  0  0  0  0
    8.2170   -4.7140   26.4730 S   0  0  0  0  0  0  0  0  0  0  0  0
    8.6760   -3.7480   27.4180 O   0  0  0  0  0  0  0  0  0  0  0  0
    9.0550   -5.7440   25.9370 O   0  0  0  0  0  0  0  0  0  0  0  0
    7.6300   -3.8140   25.1880 N   0  0  0  0  0  0  0  0  0  0  0  0
    8.4530   -3.6630   24.0930 C   0  0  0  0  0  0  0  0  0  0  0  0
    8.2900   -2.4810   23.1720 C   0  0  0  0  0  0  0  0  0  0  0  0
    9.6020   -1.7590   23.1590 C   0  0  0  0  0  0  0  0  0  0  0  0
    9.6450   -0.6390   24.1750 C   0  0  0  0  0  0  0  0  0  0  0  0
   10.9190    0.1100   24.1940 C   0  0  0  0  0  0  0  0  0  0  0  0
   11.9820   -0.3000   23.2520 C   0  0  0  0  0  0  0  0  0  0  0  0
   13.1330    0.5200   23.3620 C   0  0  0  0  0  0  0  0  0  0  0  0
   13.8030    0.6880   22.1820 C   0  0  0  0  0  0  0  0  0  0  0  0
   13.6460   -0.4530   21.4520 N   0  0  0  0  0  0  0  0  0  0  0  0
   14.4970    1.8190   21.8610 N   0  0  0  0  0  0  0  0  0  0  0  0
   11.9360   -1.3270   22.3430 C   0  0  0  0  0  0  0  0  0  0  0  0
   10.7680   -2.0750   22.2630 C   0  0  0  0  0  0  0  0  0  0  0  0
  1  2  1  0
  2  3  2  0
  2  4  2  0
  2  5  1  0
  5  6  1  0
  6  7  1  0
  7  8  1  0
  8  9  2  0
  9 10  1  0
 10 11  2  0
 11 12  1  0
 12 13  1  0
 13 14  2  3
 13 15  1  0
 11 16  1  0
  8 17  1  0
 16 17  2  0
M  END
