MAK-UNK-e4a48a85-2-vinylsulfonamide
     RDKit          3D

 24 25  0  0  0  0  0  0  0  0999 V2000
    6.7350   -4.4890   20.3940 C   0  0  0  0  0  0  0  0  0  0  0  0
    7.1320   -4.5920   21.8430 C   0  0  0  0  0  0  0  0  0  0  0  0
    5.9860   -3.6820   22.8050 S   0  0  0  0  0  0  0  0  0  0  0  0
    4.6190   -4.1660   22.3210 O   0  0  0  0  0  0  0  0  0  0  0  0
    6.2950   -2.2920   22.5810 O   0  0  0  0  0  0  0  0  0  0  0  0
    6.6110   -4.0690   24.3970 N   0  0  0  0  0  0  0  0  0  0  0  0
    7.9510   -4.7640   24.5200 C   0  0  0  0  0  0  0  0  0  0  0  0
    9.1550   -3.8160   24.3590 C   0  0  0  0  0  0  0  0  0  0  0  0
    8.9750   -2.5980   25.1950 N   0  0  0  0  0  0  0  0  0  0  0  0
    9.1860   -1.2920   24.5140 C   0  0  0  0  0  0  0  0  0  0  0  0
   10.6930   -1.0490   24.2990 C   0  0  0  0  0  0  0  0  0  0  0  0
   11.0610    0.3440   23.8050 C   0  0  2  0  0  0  0  0  0  0  0  0
   10.5450    0.7350   22.5160 N   0  0  0  0  0  0  0  0  0  0  0  0
    9.6140   -0.2340   21.9520 C   0  0  0  0  0  0  0  0  0  0  0  0
    8.4170    0.4340   21.5620 C   0  0  0  0  0  0  0  0  0  0  0  0
    7.8460   -0.8250   21.1070 C   0  0  0  0  0  0  0  0  0  0  0  0
    8.4790   -2.4080   21.1090 S   0  0  0  0  0  0  0  0  0  0  0  0
    9.8300   -1.7170   21.7880 C   0  0  0  0  0  0  0  0  0  0  0  0
   12.5530    0.4590   23.5030 C   0  0  0  0  0  0  0  0  0  0  0  0
   13.4160   -0.5880   23.6220 O   0  0  0  0  0  0  0  0  0  0  0  0
   12.9030    1.7460   23.0690 N   0  0  0  0  0  0  0  0  0  0  0  0
   12.1080    2.8560   22.9890 C   0  0  0  0  0  0  0  0  0  0  0  0
    7.7290   -2.7120   25.9850 C   0  0  0  0  0  0  0  0  0  0  0  0
    6.5230   -2.9300   25.3050 C   0  0  0  0  0  0  0  0  0  0  0  0
  1  2  1  0
  3  2  1  0
  3  4  2  0
  3  5  2  0
  3  6  1  0
  6  7  1  0
  7  8  1  0
  8  9  1  0
  9 10  1  0
 10 11  1  0
 12 11  1  6
 12 13  1  0
 13 14  1  0
 14 15  1  0
 15 16  2  0
 16 17  1  0
 14 18  2  0
 17 18  1  0
 12 19  1  0
 19 20  2  0
 19 21  1  0
 21 22  1  0
  9 23  1  0
  6 24  1  0
 23 24  1  0
M  END
