MAK-UNK-c97f7c8f-1-vinylsulfonamide
     RDKit          3D

 21 22  0  0  0  0  0  0  0  0999 V2000
    8.1450   -3.5190   19.7600 C   0  0  0  0  0  0  0  0  0  0  0  0
    7.0300   -2.7210   19.1360 C   0  0  0  0  0  0  0  0  0  0  0  0
    5.7170   -3.2040   20.1620 S   0  0  0  0  0  0  0  0  0  0  0  0
    5.0120   -4.3160   19.5760 O   0  0  0  0  0  0  0  0  0  0  0  0
    5.0620   -1.9940   20.6030 O   0  0  0  0  0  0  0  0  0  0  0  0
    6.6210   -3.8010   21.4200 N   0  0  0  0  0  0  0  0  0  0  0  0
    7.5470   -2.8610   22.0100 C   0  0  0  0  0  0  0  0  0  0  0  0
    7.0470   -2.3430   23.3300 C   0  0  0  0  0  0  0  0  0  0  0  0
    6.4250   -3.4650   24.0930 C   0  0  0  0  0  0  0  0  0  0  0  0
    5.9220   -3.0850   25.3330 C   0  0  0  0  0  0  0  0  0  0  0  0
    4.7210   -3.2350   25.5620 O   0  0  0  0  0  0  0  0  0  0  0  0
    6.8580   -2.5700   26.1720 N   0  0  0  0  0  0  0  0  0  0  0  0
    6.6280   -1.3870   26.9960 C   0  0  0  0  0  0  0  0  0  0  0  0
    5.9590   -0.2760   26.5150 C   0  0  0  0  0  0  0  0  0  0  0  0
    5.7770    0.8370   27.3250 C   0  0  0  0  0  0  0  0  0  0  0  0
    6.2490    0.9030   28.6460 C   0  0  0  0  0  0  0  0  0  0  0  0
    6.0330    2.0590   29.4060 C   0  0  0  0  0  0  0  0  0  0  0  0
    6.9400   -0.3410   29.0400 C   0  0  0  0  0  0  0  0  0  0  0  0
    7.1230   -1.4300   28.2700 N   0  0  0  0  0  0  0  0  0  0  0  0
    5.4480   -4.2000   23.4020 C   0  0  0  0  0  0  0  0  0  0  0  0
    6.0290   -4.7640   22.2700 C   0  0  0  0  0  0  0  0  0  0  0  0
  1  2  1  0
  3  2  1  0
  3  4  2  0
  3  5  2  0
  3  6  1  0
  6  7  1  0
  7  8  1  0
  8  9  1  0
  9 10  1  0
 10 11  2  0
 10 12  1  0
 12 13  1  0
 13 14  2  0
 14 15  1  0
 15 16  2  0
 16 17  1  0
 16 18  1  0
 13 19  1  0
 18 19  2  0
  9 20  1  0
  6 21  1  0
 20 21  1  0
M  END
