MAK-UNK-148caf23-6-acrylamide
     RDKit          3D

 36 39  0  0  0  0  0  0  0  0999 V2000
    6.9280   -3.4820   19.1250 C   0  0  0  0  0  0  0  0  0  0  0  0
    7.3420   -2.5320   20.1520 C   0  0  0  0  0  0  0  0  0  0  0  0
    6.4240   -2.7810   21.3280 C   0  0  0  0  0  0  0  0  0  0  0  0
    5.1250   -3.4320   21.2560 O   0  0  0  0  0  0  0  0  0  0  0  0
    7.2850   -2.1120   22.4610 C   0  0  0  0  0  0  0  0  0  0  0  0
    7.8900   -2.7780   23.5540 C   0  0  0  0  0  0  0  0  0  0  0  0
    8.6880   -2.2930   24.6840 C   0  0  0  0  0  0  0  0  0  0  0  0
    8.6420   -0.7940   24.2550 C   0  0  0  0  0  0  0  0  0  0  0  0
    9.3160    0.1250   25.2470 C   0  0  2  0  0  0  0  0  0  0  0  0
    9.5270   -0.5640   26.5610 C   0  0  0  0  0  0  0  0  0  0  0  0
    8.2490   -1.1510   27.1650 C   0  0  0  0  0  0  0  0  0  0  0  0
    8.6140    1.3230   25.4490 N   0  0  0  0  0  0  0  0  0  0  0  0
    7.2490    1.1980   26.0240 C   0  0  0  0  0  0  0  0  0  0  0  0
    7.3480    1.8250   27.2880 C   0  0  0  0  0  0  0  0  0  0  0  0
    8.1120    1.1350   28.3990 C   0  0  0  0  0  0  0  0  0  0  0  0
    7.9870    2.0440   29.4570 C   0  0  0  0  0  0  0  0  0  0  0  0
    8.6750    1.6470   30.7820 C   0  0  0  0  0  0  0  0  0  0  0  0
   10.0610    2.4410   30.8810 C   0  0  0  0  0  0  0  0  0  0  0  0
   10.9860    2.3270   31.9730 C   0  0  0  0  0  0  0  0  0  0  0  0
    9.8840    1.6300   32.0000 C   0  0  0  0  0  0  0  0  0  0  0  0
    9.0410    0.7890   32.5120 C   0  0  0  0  0  0  0  0  0  0  0  0
    7.9920    0.6680   31.6690 C   0  0  0  0  0  0  0  0  0  0  0  0
    7.1450    0.7910   30.6360 F   0  0  0  0  0  0  0  0  0  0  0  0
    7.2880    3.1470   29.1780 N   0  0  0  0  0  0  0  0  0  0  0  0
    7.0540    4.3200   30.3430 S   0  0  0  0  0  0  0  0  0  0  0  0
    6.3950    3.7410   31.4920 O   0  0  0  0  0  0  0  0  0  0  0  0
    6.4140    5.4190   29.6490 O   0  0  0  0  0  0  0  0  0  0  0  0
    8.6550    4.8240   30.8560 C   0  0  0  0  0  0  0  0  0  0  0  0
    9.6840    5.3510   29.8500 C   0  0  0  0  0  0  0  0  0  0  0  0
   10.8870    5.7180   30.3190 C   0  0  0  0  0  0  0  0  0  0  0  0
   11.1670    5.6100   31.7380 C   0  0  0  0  0  0  0  0  0  0  0  0
   10.2740    5.1490   32.6490 N   0  0  0  0  0  0  0  0  0  0  0  0
    9.0270    4.7610   32.1930 C   0  0  0  0  0  0  0  0  0  0  0  0
    6.8650    3.0610   27.8320 C   0  0  0  0  0  0  0  0  0  0  0  0
    8.1390   -0.0700   23.2320 N   0  0  0  0  0  0  0  0  0  0  0  0
    7.4660   -0.7520   22.3490 C   0  0  0  0  0  0  0  0  0  0  0  0
  1  2  1  0
  2  3  1  0
  3  4  2  0
  3  5  1  0
  5  6  2  0
  6  7  1  0
  7  8  2  0
  8  9  1  0
  9 10  1  1
 10 11  1  0
  9 12  1  0
 12 13  1  0
 13 14  1  0
 14 15  1  0
 15 16  2  0
 16 17  1  0
 17 18  2  0
 18 19  1  0
 19 20  2  0
 20 21  1  0
 17 22  1  0
 21 22  2  0
 22 23  1  0
 16 24  1  0
 24 25  1  0
 25 26  2  0
 25 27  2  0
 25 28  1  0
 28 29  2  0
 29 30  1  0
 30 31  2  0
 31 32  1  0
 28 33  1  0
 32 33  2  0
 14 34  2  0
 24 34  1  0
  8 35  1  0
  5 36  1  0
 35 36  2  0
M  END
