MAK-UNK-e05327b2-2-vinylsulfonamide
     RDKit          3D

 53 59  0  0  0  0  0  0  0  0999 V2000
    8.0050   -3.9250   20.1840 C   0  0  0  0  0  0  0  0  0  0  0  0
    6.8650   -3.0230   19.8650 C   0  0  0  0  0  0  0  0  0  0  0  0
    5.6010   -3.9050   20.6810 S   0  0  0  0  0  0  0  0  0  0  0  0
    4.7310   -3.0360   21.4130 O   0  0  0  0  0  0  0  0  0  0  0  0
    5.1070   -4.7830   19.6760 O   0  0  0  0  0  0  0  0  0  0  0  0
    6.4070   -4.9270   21.7870 N   0  0  0  0  0  0  0  0  0  0  0  0
    7.2730   -4.4190   22.6010 C   0  0  0  0  0  0  0  0  0  0  0  0
    6.9910   -4.8780   24.0480 C   0  0  0  0  0  0  0  0  0  0  0  0
    5.5800   -5.2270   24.3460 N   0  0  0  0  0  0  0  0  0  0  0  0
    5.0260   -5.2810   25.9180 S   0  0  0  0  0  0  0  0  0  0  0  0
    4.0190   -6.3140   25.9850 O   0  0  0  0  0  0  0  0  0  0  0  0
    6.1430   -5.2010   26.8290 O   0  0  0  0  0  0  0  0  0  0  0  0
    4.1390   -3.7470   26.0030 C   0  0  0  0  0  0  0  0  0  0  0  0
    4.5430   -2.3090   26.1360 C   0  0  0  0  0  0  0  0  0  0  0  0
    3.4150   -1.3350   26.1670 C   0  0  0  0  0  0  0  0  0  0  0  0
    2.1930   -2.0190   26.0620 C   0  0  0  0  0  0  0  0  0  0  0  0
    0.9490   -1.3830   26.0770 C   0  0  0  0  0  0  0  0  0  0  0  0
   -0.0110   -0.9330   26.5800 N   0  0  0  0  0  0  0  0  0  0  0  0
   -0.6260   -1.8620   27.5620 C   0  0  0  0  0  0  0  0  0  0  0  0
   -1.9340   -2.1990   27.2030 C   0  0  0  0  0  0  0  0  0  0  0  0
   -2.8420   -1.2300   26.9360 N   0  0  0  0  0  0  0  0  0  0  0  0
   -4.0410   -0.9010   28.1210 S   0  0  0  0  0  0  0  0  0  0  0  0
   -3.3970   -0.9110   29.4190 O   0  0  0  0  0  0  0  0  0  0  0  0
   -4.7540    0.2730   27.6550 O   0  0  0  0  0  0  0  0  0  0  0  0
   -5.1790   -2.2880   28.0090 C   0  0  0  0  0  0  0  0  0  0  0  0
   -5.0070   -3.1930   26.9430 C   0  0  0  0  0  0  0  0  0  0  0  0
   -5.8800   -4.2720   26.8460 C   0  0  0  0  0  0  0  0  0  0  0  0
   -6.8940   -4.4620   27.7630 C   0  0  0  0  0  0  0  0  0  0  0  0
   -7.0920   -3.5880   28.8270 C   0  0  0  0  0  0  0  0  0  0  0  0
   -8.1110   -3.7830   29.7430 C   0  0  0  0  0  0  0  0  0  0  0  0
   -8.3780   -2.9620   30.8300 C   0  0  0  0  0  0  0  0  0  0  0  0
   -9.5470   -3.2870   31.7750 C   0  0  0  0  0  0  0  0  0  0  0  0
  -10.9590   -3.0470   31.2000 C   0  0  0  0  0  0  0  0  0  0  0  0
  -11.0170   -2.5880   29.7470 C   0  0  0  0  0  0  0  0  0  0  0  0
  -10.1730   -1.4140   29.2970 C   0  0  0  0  0  0  0  0  0  0  0  0
  -10.3650   -1.1640   27.9590 C   0  0  0  0  0  0  0  0  0  0  0  0
  -11.2810   -2.0460   27.3640 C   0  0  0  0  0  0  0  0  0  0  0  0
  -11.7730   -2.0420   25.7180 Cl  0  0  0  0  0  0  0  0  0  0  0  0
  -11.9360   -3.2160   28.4430 S   0  0  0  0  0  0  0  0  0  0  0  0
   -7.5370   -1.8470   30.9930 C   0  0  0  0  0  0  0  0  0  0  0  0
   -7.6770   -0.8240   32.1240 C   0  0  0  0  0  0  0  0  0  0  0  0
   -8.7000    0.2640   31.7540 C   0  0  0  0  0  0  0  0  0  0  0  0
  -10.0630    0.5000   32.3550 C   0  0  0  0  0  0  0  0  0  0  0  0
  -10.7490    1.6850   31.6940 C   0  0  0  0  0  0  0  0  0  0  0  0
   -9.7330    2.3450   30.4910 S   0  0  0  0  0  0  0  0  0  0  0  0
   -8.4630    1.2090   30.7560 C   0  0  0  0  0  0  0  0  0  0  0  0
   -6.4870   -1.6390   30.0560 C   0  0  0  0  0  0  0  0  0  0  0  0
   -6.2310   -2.4670   28.9790 C   0  0  0  0  0  0  0  0  0  0  0  0
   -2.2110   -0.0780   26.2400 C   0  0  0  0  0  0  0  0  0  0  0  0
   -1.0330   -0.4380   25.6340 C   0  0  0  0  0  0  0  0  0  0  0  0
    2.4090   -3.7530   25.9240 S   0  0  0  0  0  0  0  0  0  0  0  0
    4.8970   -6.0240   23.2710 C   0  0  0  0  0  0  0  0  0  0  0  0
    5.7740   -6.1890   22.1700 C   0  0  0  0  0  0  0  0  0  0  0  0
  1  2  1  0
  3  2  1  0
  3  4  2  0
  3  5  2  0
  3  6  1  0
  6  7  1  0
  7  8  1  0
  8  9  1  0
  9 10  1  0
 10 11  2  0
 10 12  2  0
 10 13  1  0
 13 14  2  0
 14 15  1  0
 15 16  2  0
 16 17  1  0
 17 18  1  0
 18 19  1  0
 19 20  1  0
 20 21  1  0
 21 22  1  0
 22 23  2  0
 22 24  2  0
 22 25  1  0
 25 26  2  0
 26 27  1  0
 27 28  2  0
 28 29  1  0
 29 30  1  0
 30 31  2  0
 31 32  1  0
 32 33  1  0
 33 34  1  0
 34 35  2  0
 35 36  1  0
 36 37  2  0
 37 38  1  0
 34 39  1  0
 37 39  1  0
 31 40  1  0
 40 41  1  0
 41 42  1  0
 42 43  1  0
 43 44  2  0
 44 45  1  0
 42 46  2  0
 45 46  1  0
 40 47  2  0
 25 48  1  0
 29 48  2  0
 47 48  1  0
 21 49  1  0
 18 50  1  0
 49 50  1  0
 13 51  1  0
 16 51  1  0
  9 52  1  0
  6 53  1  0
 52 53  1  0
M  END
