MAK-UNK-148caf23-7-vinylsulfonamide
     RDKit          3D

 37 40  0  0  0  0  0  0  0  0999 V2000
    8.8020   -3.7360   20.5510 C   0  0  0  0  0  0  0  0  0  0  0  0
    7.4900   -4.4120   20.6870 C   0  0  0  0  0  0  0  0  0  0  0  0
    6.7250   -3.3910   21.9960 S   0  0  0  0  0  0  0  0  0  0  0  0
    5.1060   -3.6140   21.6100 O   0  0  0  0  0  0  0  0  0  0  0  0
    7.6640   -4.1900   22.8110 O   0  0  0  0  0  0  0  0  0  0  0  0
    7.5510   -1.8560   22.9900 C   0  0  0  0  0  0  0  0  0  0  0  0
    6.2980   -0.9980   23.6330 C   0  0  0  0  0  0  0  0  0  0  0  0
    7.8300   -0.6990   23.8070 C   0  0  0  0  0  0  0  0  0  0  0  0
    8.6540    0.2910   24.3660 C   0  0  0  0  0  0  0  0  0  0  0  0
    8.8910   -1.0400   23.7670 N   0  0  0  0  0  0  0  0  0  0  0  0
    8.2650   -1.8560   24.9030 C   0  0  1  0  0  0  0  0  0  0  0  0
    9.4500   -1.8140   25.8550 C   0  0  0  0  0  0  0  0  0  0  0  0
    6.9840   -1.5240   25.8940 N   0  0  0  0  0  0  0  0  0  0  0  0
    5.7420   -1.7890   25.5240 C   0  0  0  0  0  0  0  0  0  0  0  0
    5.1160   -2.8950   26.4880 C   0  0  0  0  0  0  0  0  0  0  0  0
    6.4280   -3.1080   26.8600 C   0  0  0  0  0  0  0  0  0  0  0  0
    6.2070   -4.2640   27.8620 C   0  0  0  0  0  0  0  0  0  0  0  0
    7.5020   -4.4400   28.2510 C   0  0  0  0  0  0  0  0  0  0  0  0
    8.9570   -4.6370   28.6890 C   0  0  0  0  0  0  0  0  0  0  0  0
    9.6540   -4.7090   29.9760 C   0  0  0  0  0  0  0  0  0  0  0  0
    9.0290   -4.5750   31.2720 C   0  0  0  0  0  0  0  0  0  0  0  0
    7.8260   -4.3580   30.9820 C   0  0  0  0  0  0  0  0  0  0  0  0
    7.6960   -4.3980   29.7050 C   0  0  0  0  0  0  0  0  0  0  0  0
    6.3520   -4.2170   29.9710 F   0  0  0  0  0  0  0  0  0  0  0  0
    4.8200   -4.6070   27.8710 N   0  0  0  0  0  0  0  0  0  0  0  0
    4.6770   -5.8770   28.8390 S   0  0  0  0  0  0  0  0  0  0  0  0
    3.9590   -5.2060   29.9340 O   0  0  0  0  0  0  0  0  0  0  0  0
    4.2970   -7.2550   28.3240 O   0  0  0  0  0  0  0  0  0  0  0  0
    6.2240   -5.6200   28.7490 C   0  0  0  0  0  0  0  0  0  0  0  0
    7.2290   -6.6660   28.8370 C   0  0  0  0  0  0  0  0  0  0  0  0
    8.5620   -5.9780   28.7420 C   0  0  0  0  0  0  0  0  0  0  0  0
    8.6960   -4.4600   28.6010 C   0  0  0  0  0  0  0  0  0  0  0  0
    7.7030   -3.5520   28.5620 N   0  0  0  0  0  0  0  0  0  0  0  0
    6.4880   -4.2240   28.6510 C   0  0  0  0  0  0  0  0  0  0  0  0
    5.8620   -3.7760   27.3240 C   0  0  0  0  0  0  0  0  0  0  0  0
    9.7500    0.0320   24.0440 N   0  0  0  0  0  0  0  0  0  0  0  0
    9.1650   -1.2230   23.2130 C   0  0  0  0  0  0  0  0  0  0  0  0
  1  2  1  0
  3  2  1  0
  3  4  2  0
  3  5  2  0
  3  6  1  0
  6  7  2  0
  7  8  1  0
  8  9  2  0
  9 10  1  0
 10 11  1  0
 11 12  1  1
 11 13  1  0
 13 14  1  0
 14 15  1  0
 15 16  1  0
 16 17  2  0
 17 18  1  0
 18 19  2  0
 19 20  1  0
 20 21  2  0
 21 22  1  0
 18 23  1  0
 22 23  2  0
 23 24  1  0
 17 25  1  0
 25 26  1  0
 26 27  2  0
 26 28  2  0
 26 29  1  0
 29 30  2  0
 30 31  1  0
 31 32  2  0
 32 33  1  0
 29 34  1  0
 33 34  2  0
 15 35  2  0
 25 35  1  0
  9 36  1  0
  6 37  1  0
 36 37  2  0
M  END
