MAK-UNK-516d8086-22-acrylamide
     RDKit          3D

 24 26  0  0  0  0  0  0  0  0999 V2000
    8.7910   -3.9990   20.4840 C   0  0  0  0  0  0  0  0  0  0  0  0
    7.2440   -4.0420   20.1910 C   0  0  0  0  0  0  0  0  0  0  0  0
    6.3410   -2.9960   20.8360 C   0  0  0  0  0  0  0  0  0  0  0  0
    5.0700   -3.3200   21.0520 O   0  0  0  0  0  0  0  0  0  0  0  0
    7.0850   -1.5710   21.1230 C   0  0  0  0  0  0  0  0  0  0  0  0
    8.3910   -1.7520   21.9660 C   0  0  0  0  0  0  0  0  0  0  0  0
    8.8160   -0.3690   22.0230 C   0  0  0  0  0  0  0  0  0  0  0  0
   10.0190   -0.0290   22.7280 C   0  0  0  0  0  0  0  0  0  0  0  0
   10.7930   -1.1540   23.0780 C   0  0  0  0  0  0  0  0  0  0  0  0
   12.1470   -1.5670   23.2000 C   0  0  0  0  0  0  0  0  0  0  0  0
   11.5040   -2.9180   23.5920 C   0  0  0  0  0  0  0  0  0  0  0  0
   10.2390   -3.7160   23.8320 C   0  0  0  0  0  0  0  0  0  0  0  0
    9.3110   -2.9440   23.6470 C   0  0  0  0  0  0  0  0  0  0  0  0
   10.3310   -2.2360   23.4140 C   0  0  0  0  0  0  0  0  0  0  0  0
    8.0430   -3.3350   23.7960 C   0  0  0  0  0  0  0  0  0  0  0  0
    6.9790   -2.7450   23.6600 O   0  0  0  0  0  0  0  0  0  0  0  0
    8.3520   -4.6730   24.1850 N   0  0  0  0  0  0  0  0  0  0  0  0
    9.8010   -4.9680   24.1750 C   0  0  0  0  0  0  0  0  0  0  0  0
    8.1210    0.8820   21.3940 C   0  0  0  0  0  0  0  0  0  0  0  0
    8.6490    2.1200   21.5180 N   0  0  0  0  0  0  0  0  0  0  0  0
    8.0500    2.9880   22.3670 C   0  0  0  0  0  0  0  0  0  0  0  0
    8.9190    3.1490   23.6250 C   0  0  0  0  0  0  0  0  0  0  0  0
    6.9970    0.7310   20.7210 N   0  0  0  0  0  0  0  0  0  0  0  0
    6.4900   -0.4830   20.5920 N   0  0  0  0  0  0  0  0  0  0  0  0
  1  2  1  0
  2  3  1  0
  3  4  2  0
  3  5  1  0
  5  6  2  0
  6  7  1  0
  7  8  1  0
  8  9  1  0
  9 10  2  0
 10 11  1  0
 11 12  2  0
 12 13  1  0
  9 14  1  0
 13 14  2  0
 13 15  1  0
 15 16  2  0
 15 17  1  0
 12 18  1  0
 17 18  1  0
  7 19  2  0
 19 20  1  0
 20 21  1  0
 21 22  1  0
 19 23  1  0
  5 24  1  0
 23 24  2  0
M  END
