MAK-UNK-e4a48a85-7-vinylsulfonamide
     RDKit          3D

 31 33  0  0  0  0  0  0  0  0999 V2000
    7.3350   -2.8590   18.3340 C   0  0  0  0  0  0  0  0  0  0  0  0
    6.3350   -2.1990   19.2930 C   0  0  0  0  0  0  0  0  0  0  0  0
    5.7070   -3.3510   20.4550 S   0  0  0  0  0  0  0  0  0  0  0  0
    4.6420   -2.8750   21.2340 O   0  0  0  0  0  0  0  0  0  0  0  0
    5.6040   -4.6890   19.9230 O   0  0  0  0  0  0  0  0  0  0  0  0
    6.8830   -3.0620   21.5440 N   0  0  0  0  0  0  0  0  0  0  0  0
    7.4350   -1.7110   21.4510 C   0  0  0  0  0  0  0  0  0  0  0  0
    8.7990   -1.9390   22.0620 C   0  0  0  0  0  0  0  0  0  0  0  0
    8.5800   -2.4290   23.4530 N   0  0  0  0  0  0  0  0  0  0  0  0
    9.7730   -2.5600   24.2520 C   0  0  0  0  0  0  0  0  0  0  0  0
   10.7060   -1.4620   23.7740 C   0  0  0  0  0  0  0  0  0  0  0  0
   12.0630   -1.8390   23.0600 C   0  0  0  0  0  0  0  0  0  0  0  0
   12.8910   -0.5850   22.6570 C   0  0  0  0  0  0  0  0  0  0  0  0
   12.3960    0.8690   22.9260 C   0  0  0  0  0  0  0  0  0  0  0  0
   11.0580    1.1830   23.6000 C   0  0  0  0  0  0  0  0  0  0  0  0
   10.6360    2.6370   23.7840 C   0  0  0  0  0  0  0  0  0  0  0  0
    8.9630    2.9610   23.5900 S   0  0  0  0  0  0  0  0  0  0  0  0
    8.6340    2.8240   25.2690 C   0  0  0  0  0  0  0  0  0  0  0  0
    7.3790    2.0290   25.6110 C   0  0  0  0  0  0  0  0  0  0  0  0
    6.2390    2.1860   25.1980 O   0  0  0  0  0  0  0  0  0  0  0  0
    7.5430    0.8690   26.6050 C   0  0  0  0  0  0  0  0  0  0  0  0
    7.8600    1.1060   27.9120 N   0  0  0  0  0  0  0  0  0  0  0  0
    8.9050    0.3880   28.3810 C   0  0  0  0  0  0  0  0  0  0  0  0
    9.4880    0.6130   29.8080 C   0  0  0  0  0  0  0  0  0  0  0  0
    8.3980    0.7980   30.8490 C   0  0  0  0  0  0  0  0  0  0  0  0
    7.7370   -0.2080   31.5930 O   0  0  0  0  0  0  0  0  0  0  0  0
    7.4520    1.8200   30.2350 C   0  0  0  0  0  0  0  0  0  0  0  0
    6.8270    1.2740   28.9580 C   0  0  0  0  0  0  0  0  0  0  0  0
   10.2210   -0.0120   24.0330 C   0  0  0  0  0  0  0  0  0  0  0  0
    7.7330   -3.6240   23.6050 C   0  0  0  0  0  0  0  0  0  0  0  0
    6.5790   -3.5200   22.8690 C   0  0  0  0  0  0  0  0  0  0  0  0
  1  2  1  0
  3  2  1  0
  3  4  2  0
  3  5  2  0
  3  6  1  0
  6  7  1  0
  7  8  1  0
  8  9  1  0
  9 10  1  0
 10 11  1  0
 11 12  2  0
 12 13  1  0
 13 14  2  0
 14 15  1  0
 15 16  1  0
 16 17  1  0
 17 18  1  0
 18 19  1  0
 19 20  2  0
 19 21  1  0
 21 22  1  0
 22 23  1  0
 23 24  1  0
 24 25  1  0
 25 26  1  0
 25 27  1  0
 22 28  1  0
 27 28  1  0
 11 29  1  0
 15 29  2  0
  9 30  1  0
  6 31  1  0
 30 31  1  0
M  END
