MAK-UNK-51bb34f9-2-vinylsulfonamide
     RDKit          3D

 29 30  0  0  0  0  0  0  0  0999 V2000
    6.1610   -3.8190   19.7380 C   0  0  0  0  0  0  0  0  0  0  0  0
    5.9440   -2.6180   20.6610 C   0  0  0  0  0  0  0  0  0  0  0  0
    5.5530   -3.2040   22.2850 S   0  0  0  0  0  0  0  0  0  0  0  0
    4.7590   -4.4020   22.1560 O   0  0  0  0  0  0  0  0  0  0  0  0
    5.0250   -2.0980   23.0450 O   0  0  0  0  0  0  0  0  0  0  0  0
    7.1690   -3.6040   22.8530 C   0  0  0  0  0  0  0  0  0  0  0  0
    8.4150   -3.3710   23.6940 C   0  0  0  0  0  0  0  0  0  0  0  0
    8.5960   -2.3170   24.5860 N   0  0  0  0  0  0  0  0  0  0  0  0
    7.5950   -1.3490   24.7820 C   0  0  0  0  0  0  0  0  0  0  0  0
    7.8040   -0.2370   25.7540 N   0  0  0  0  0  0  0  0  0  0  0  0
    7.2330    1.0200   25.5500 C   0  0  0  0  0  0  0  0  0  0  0  0
    8.1910    1.9350   24.8230 C   0  0  0  0  0  0  0  0  0  0  0  0
    6.3490   -1.4120   24.0630 C   0  0  0  0  0  0  0  0  0  0  0  0
    7.2400   -2.5130   23.6960 C   0  0  0  0  0  0  0  0  0  0  0  0
    8.4580   -2.2610   24.4790 N   0  0  0  0  0  0  0  0  0  0  0  0
    9.1740   -1.1060   23.8560 C   0  0  0  0  0  0  0  0  0  0  0  0
    9.7170   -0.0050   24.6040 O   0  0  0  0  0  0  0  0  0  0  0  0
    9.3080   -1.2180   22.3460 C   0  0  2  0  0  0  0  0  0  0  0  0
   10.2710   -2.3260   21.9960 C   0  0  0  0  0  0  0  0  0  0  0  0
    9.5530   -0.1330   21.5850 N   0  0  0  0  0  0  0  0  0  0  0  0
    8.6810    0.9030   21.5060 C   0  0  0  0  0  0  0  0  0  0  0  0
    9.1200    2.0380   21.3590 O   0  0  0  0  0  0  0  0  0  0  0  0
    7.3650    0.6780   21.5370 N   0  0  0  0  0  0  0  0  0  0  0  0
    6.8340    0.5190   20.3200 C   0  0  0  0  0  0  0  0  0  0  0  0
    5.7790    1.2500   19.4340 C   0  0  0  0  0  0  0  0  0  0  0  0
    4.7190    2.2230   18.8930 C   0  0  0  0  0  0  0  0  0  0  0  0
    4.9770    1.1310   17.7700 C   0  0  0  0  0  0  0  0  0  0  0  0
    5.8400    0.6800   18.7100 N   0  0  0  0  0  0  0  0  0  0  0  0
    6.8320   -0.2630   19.1640 C   0  0  0  0  0  0  0  0  0  0  0  0
  1  2  1  0
  3  2  1  0
  3  4  2  0
  3  5  2  0
  3  6  1  0
  6  7  2  0
  7  8  1  0
  8  9  2  0
  9 10  1  0
 10 11  1  0
 11 12  1  0
  9 13  1  0
  6 14  1  0
 13 14  2  0
 14 15  1  0
 15 16  1  0
 16 17  2  0
 16 18  1  0
 18 19  1  1
 18 20  1  0
 20 21  1  0
 21 22  2  0
 21 23  1  0
 23 24  1  0
 24 25  2  0
 25 26  1  0
 26 27  2  0
 27 28  1  0
 24 29  1  0
 28 29  2  0
M  END
