MAK-UNK-e05327b2-7-acrylamide
     RDKit          3D

 61 68  0  0  0  0  0  0  0  0999 V2000
    7.4160   -3.0870   19.0480 C   0  0  0  0  0  0  0  0  0  0  0  0
    6.9620   -3.1170   20.4890 C   0  0  0  0  0  0  0  0  0  0  0  0
    6.1120   -4.3410   20.7370 C   0  0  0  0  0  0  0  0  0  0  0  0
    5.1880   -4.6140   19.9640 O   0  0  0  0  0  0  0  0  0  0  0  0
    6.4160   -5.1240   21.8390 N   0  0  0  0  0  0  0  0  0  0  0  0
    7.2170   -4.7050   22.8460 C   0  0  0  0  0  0  0  0  0  0  0  0
    6.4300   -4.2100   24.0620 C   0  0  0  0  0  0  0  0  0  0  0  0
    5.5650   -5.2900   24.5640 N   0  0  0  0  0  0  0  0  0  0  0  0
    4.8990   -5.2350   26.0850 S   0  0  0  0  0  0  0  0  0  0  0  0
    5.9310   -5.0080   27.0620 O   0  0  0  0  0  0  0  0  0  0  0  0
    4.0000   -6.3610   26.1710 O   0  0  0  0  0  0  0  0  0  0  0  0
    3.9250   -3.7450   26.0180 C   0  0  0  0  0  0  0  0  0  0  0  0
    4.4010   -2.3250   25.8490 C   0  0  0  0  0  0  0  0  0  0  0  0
    3.3960   -1.3760   25.8080 C   0  0  0  0  0  0  0  0  0  0  0  0
    2.1200   -1.9500   25.9340 C   0  0  0  0  0  0  0  0  0  0  0  0
    0.8800   -1.2820   25.9160 C   0  0  0  0  0  0  0  0  0  0  0  0
    0.7650    0.1200   25.6120 N   0  0  0  0  0  0  0  0  0  0  0  0
    1.6990    0.6360   24.5890 C   0  0  0  0  0  0  0  0  0  0  0  0
    0.9120    1.3950   23.7200 C   0  0  0  0  0  0  0  0  0  0  0  0
   -0.1030    1.7540   23.2860 N   0  0  0  0  0  0  0  0  0  0  0  0
   -0.2130    1.6870   21.5530 S   0  0  0  0  0  0  0  0  0  0  0  0
    0.8290    2.5350   21.0220 O   0  0  0  0  0  0  0  0  0  0  0  0
   -0.2420    0.3020   21.2200 O   0  0  0  0  0  0  0  0  0  0  0  0
   -1.7400    2.3710   20.9230 C   0  0  0  0  0  0  0  0  0  0  0  0
   -1.9420    3.7520   21.0380 C   0  0  0  0  0  0  0  0  0  0  0  0
   -3.0820    4.3600   20.5570 C   0  0  0  0  0  0  0  0  0  0  0  0
   -4.0510    3.6020   19.9390 C   0  0  0  0  0  0  0  0  0  0  0  0
   -3.9290    2.2230   19.7840 C   0  0  0  0  0  0  0  0  0  0  0  0
   -4.9300    1.4950   19.1430 C   0  0  0  0  0  0  0  0  0  0  0  0
   -4.8810   -0.0200   18.9250 C   0  0  0  0  0  0  0  0  0  0  0  0
   -6.0390   -0.7360   18.1870 C   0  0  0  0  0  0  0  0  0  0  0  0
   -7.0270   -1.2920   17.9370 N   0  0  0  0  0  0  0  0  0  0  0  0
   -7.0900   -2.0320   16.6740 C   0  0  0  0  0  0  0  0  0  0  0  0
   -8.5390   -2.2830   16.2160 C   0  0  0  0  0  0  0  0  0  0  0  0
   -9.3710   -1.0550   16.2790 N   0  0  0  0  0  0  0  0  0  0  0  0
  -10.9170   -1.0950   15.5900 S   0  0  0  0  0  0  0  0  0  0  0  0
  -11.7730   -0.1820   16.3230 O   0  0  0  0  0  0  0  0  0  0  0  0
  -10.7640   -0.9900   14.1550 O   0  0  0  0  0  0  0  0  0  0  0  0
  -11.6050   -2.7280   15.8260 C   0  0  0  0  0  0  0  0  0  0  0  0
  -12.1770   -3.3380   16.9390 C   0  0  0  0  0  0  0  0  0  0  0  0
  -12.6310   -4.7470   16.6870 C   0  0  0  0  0  0  0  0  0  0  0  0
  -12.3400   -5.1410   15.2610 C   0  0  0  0  0  0  0  0  0  0  0  0
  -12.6580   -6.6320   14.4690 Cl  0  0  0  0  0  0  0  0  0  0  0  0
  -11.5980   -3.8240   14.4590 S   0  0  0  0  0  0  0  0  0  0  0  0
   -9.1960   -0.2280   17.5050 C   0  0  0  0  0  0  0  0  0  0  0  0
   -8.2860   -0.8800   18.5340 C   0  0  0  0  0  0  0  0  0  0  0  0
   -3.7600   -0.7070   19.4150 C   0  0  0  0  0  0  0  0  0  0  0  0
   -3.5820   -2.1950   19.2800 C   0  0  0  0  0  0  0  0  0  0  0  0
   -2.6650   -2.9360   20.0790 C   0  0  0  0  0  0  0  0  0  0  0  0
   -3.0920   -3.0590   21.3810 C   0  0  0  0  0  0  0  0  0  0  0  0
   -3.1300   -1.9820   22.3300 C   0  0  0  0  0  0  0  0  0  0  0  0
   -3.5990   -2.3780   23.5630 C   0  0  0  0  0  0  0  0  0  0  0  0
   -3.9950   -4.0380   23.5940 S   0  0  0  0  0  0  0  0  0  0  0  0
   -3.5420   -4.2320   21.9560 C   0  0  0  0  0  0  0  0  0  0  0  0
   -2.7340    0.0260   20.0700 C   0  0  0  0  0  0  0  0  0  0  0  0
   -2.7640    1.5600   20.2830 C   0  0  0  0  0  0  0  0  0  0  0  0
   -1.1180    0.9310   24.0140 C   0  0  0  0  0  0  0  0  0  0  0  0
   -0.6370    0.6080   25.4600 C   0  0  0  0  0  0  0  0  0  0  0  0
    2.2130   -3.6900   26.1280 S   0  0  0  0  0  0  0  0  0  0  0  0
    4.8460   -6.0770   23.5170 C   0  0  0  0  0  0  0  0  0  0  0  0
    5.6560   -6.3030   22.2310 C   0  0  0  0  0  0  0  0  0  0  0  0
  1  2  1  0
  2  3  1  0
  3  4  2  0
  3  5  1  0
  5  6  1  0
  6  7  1  0
  7  8  1  0
  8  9  1  0
  9 10  2  0
  9 11  2  0
  9 12  1  0
 12 13  2  0
 13 14  1  0
 14 15  2  0
 15 16  1  0
 16 17  1  0
 17 18  1  0
 18 19  1  0
 19 20  1  0
 20 21  1  0
 21 22  2  0
 21 23  2  0
 21 24  1  0
 24 25  2  0
 25 26  1  0
 26 27  2  0
 27 28  1  0
 28 29  1  0
 29 30  2  0
 30 31  1  0
 31 32  1  0
 32 33  1  0
 33 34  1  0
 34 35  1  0
 35 36  1  0
 36 37  2  0
 36 38  2  0
 36 39  1  0
 39 40  2  0
 40 41  1  0
 41 42  2  0
 42 43  1  0
 39 44  1  0
 42 44  1  0
 35 45  1  0
 32 46  1  0
 45 46  1  0
 30 47  1  0
 47 48  1  0
 48 49  1  0
 49 50  1  0
 50 51  1  0
 51 52  2  0
 52 53  1  0
 50 54  2  0
 53 54  1  0
 47 55  2  0
 24 56  1  0
 28 56  2  0
 55 56  1  0
 20 57  1  0
 17 58  1  0
 57 58  1  0
 12 59  1  0
 15 59  1  0
  8 60  1  0
  5 61  1  0
 60 61  1  0
M  END
