MAK-UNK-90d0606b-6-vinylsulfonamide
     RDKit          3D

 27 30  0  0  0  0  0  0  0  0999 V2000
    6.7690   -5.0390   20.1530 C   0  0  0  0  0  0  0  0  0  0  0  0
    6.7660   -4.6490   21.6030 C   0  0  0  0  0  0  0  0  0  0  0  0
    5.5850   -3.3480   21.6540 S   0  0  0  0  0  0  0  0  0  0  0  0
    4.4280   -3.8280   22.3670 O   0  0  0  0  0  0  0  0  0  0  0  0
    5.4010   -2.8730   20.3040 O   0  0  0  0  0  0  0  0  0  0  0  0
    6.4580   -2.1650   22.5070 N   0  0  0  0  0  0  0  0  0  0  0  0
    7.4990   -1.5060   21.6820 C   0  0  0  0  0  0  0  0  0  0  0  0
    8.7410   -1.9090   22.4450 C   0  0  2  0  0  0  0  0  0  0  0  0
    8.3480   -3.1010   23.2040 C   0  0  0  0  0  0  0  0  0  0  0  0
    7.2020   -2.5570   23.7540 C   0  0  1  0  0  0  0  0  0  0  0  0
    7.5640   -1.3270   24.2990 C   0  0  0  0  0  0  0  0  0  0  0  0
    8.7600   -0.9020   23.6410 C   0  0  2  0  0  0  0  0  0  0  0  0
    8.8960    0.4170   23.1870 C   0  0  0  0  0  0  0  0  0  0  0  0
    7.8130    1.2600   23.3520 N   0  0  0  0  0  0  0  0  0  0  0  0
    7.4920    2.0940   24.5570 C   0  0  0  0  0  0  0  0  0  0  0  0
    6.3260    2.7980   24.2890 C   0  0  0  0  0  0  0  0  0  0  0  0
    5.5640    2.4270   23.0010 C   0  0  0  0  0  0  0  0  0  0  0  0
    4.1430    2.3540   22.5460 C   0  0  0  0  0  0  0  0  0  0  0  0
    5.2730    1.9690   21.5150 C   0  0  0  0  0  0  0  0  0  0  0  0
    5.2320    1.5100   20.0450 C   0  0  0  0  0  0  0  0  0  0  0  0
    5.8380    0.9840   18.4520 S   0  0  0  0  0  0  0  0  0  0  0  0
    5.0280    2.0490   17.4400 N   0  0  0  0  0  0  0  0  0  0  0  0
    5.4440   -0.3390   18.0670 O   0  0  0  0  0  0  0  0  0  0  0  0
    7.2320    1.3040   18.3380 O   0  0  0  0  0  0  0  0  0  0  0  0
    6.8010    1.5300   20.3740 C   0  0  0  0  0  0  0  0  0  0  0  0
    6.0540    1.9650   21.6250 C   0  0  0  0  0  0  0  0  0  0  0  0
    7.5060    2.0520   22.1320 C   0  0  0  0  0  0  0  0  0  0  0  0
  1  2  1  0
  3  2  1  0
  3  4  2  0
  3  5  2  0
  3  6  1  0
  6  7  1  0
  8  7  1  6
  8  9  1  0
  6 10  1  0
  9 10  1  0
 10 11  1  1
  8 12  1  0
 11 12  1  0
 12 13  1  6
 13 14  1  0
 14 15  1  0
 15 16  1  0
 16 17  1  0
 17 18  2  0
 18 19  1  0
 19 20  2  0
 20 21  1  0
 21 22  1  0
 21 23  2  0
 21 24  2  0
 20 25  1  0
 17 26  1  0
 25 26  2  0
 14 27  1  0
 26 27  1  0
M  END
