MAK-UNK-ec98eaf6-32-vinylsulfonamide
     RDKit          3D

 20 22  0  0  0  0  0  0  0  0999 V2000
    6.4940   -3.8830   19.8120 C   0  0  0  0  0  0  0  0  0  0  0  0
    7.0120   -3.1300   21.0270 C   0  0  0  0  0  0  0  0  0  0  0  0
    6.1080   -3.6110   22.4750 S   0  0  0  0  0  0  0  0  0  0  0  0
    4.7010   -3.7930   22.1180 O   0  0  0  0  0  0  0  0  0  0  0  0
    6.8350   -4.6810   23.1240 O   0  0  0  0  0  0  0  0  0  0  0  0
    6.2620   -2.2280   23.4470 N   0  0  0  0  0  0  0  0  0  0  0  0
    6.5070   -0.9260   22.8120 C   0  0  0  0  0  0  0  0  0  0  0  0
    7.8540   -0.4920   23.4020 C   0  0  1  0  0  0  0  0  0  0  0  0
    7.4700   -0.8120   24.8380 C   0  0  0  0  0  0  0  0  0  0  0  0
    7.1620   -2.3050   24.6140 C   0  0  2  0  0  0  0  0  0  0  0  0
    8.6090   -2.6550   24.2250 C   0  0  0  0  0  0  0  0  0  0  0  0
    8.9720   -1.5480   23.1710 C   0  0  2  0  0  0  0  0  0  0  0  0
   10.4300   -1.0870   23.3860 N   0  0  0  0  0  0  0  0  0  0  0  0
   10.5000    0.2280   24.0630 C   0  0  0  0  0  0  0  0  0  0  0  0
   10.1100    0.2940   22.6730 C   0  0  0  0  0  0  0  0  0  0  0  0
   10.1550   -0.9870   22.1370 C   0  0  0  0  0  0  0  0  0  0  0  0
   10.5480   -2.1230   22.9440 C   0  0  0  0  0  0  0  0  0  0  0  0
   10.9080   -2.0020   24.3490 C   0  0  0  0  0  0  0  0  0  0  0  0
   11.2780   -3.1240   25.0860 C   0  0  0  0  0  0  0  0  0  0  0  0
   10.8770   -0.7200   24.9490 C   0  0  0  0  0  0  0  0  0  0  0  0
  1  2  1  0
  3  2  1  0
  3  4  2  0
  3  5  2  0
  3  6  1  0
  6  7  1  0
  8  7  1  6
  8  9  1  0
  6 10  1  0
  9 10  1  0
 10 11  1  6
  8 12  1  0
 11 12  1  0
 12 13  1  1
 13 14  1  0
 14 15  2  0
 15 16  1  0
 16 17  2  0
 17 18  1  0
 18 19  1  0
 14 20  1  0
 18 20  2  0
M  END
