MAK-UNK-0d6072ac-7
     RDKit          3D

 19 21  0  0  0  0  0  0  0  0999 V2000
   13.6450    0.7980   22.7730 C   0  0  0  0  0  0  0  0  0  0  0  0
   12.2820    1.1760   23.0030 C   0  0  2  0  0  0  0  0  0  0  0  0
   11.6910    2.5130   23.4360 C   0  0  0  0  0  0  0  0  0  0  0  0
   10.4140    2.5110   24.0750 O   0  0  0  0  0  0  0  0  0  0  0  0
   12.4050    3.6230   23.1350 O   0  0  0  0  0  0  0  0  0  0  0  0
   11.7300   -0.0950   23.3920 C   0  0  0  0  0  0  0  0  0  0  0  0
   12.4180   -1.1880   24.1880 C   0  0  0  0  0  0  0  0  0  0  0  0
   11.7510   -2.3780   24.3850 C   0  0  0  0  0  0  0  0  0  0  0  0
   10.4630   -2.5530   23.8490 C   0  0  0  0  0  0  0  0  0  0  0  0
    9.8620   -1.5220   23.1530 C   0  0  0  0  0  0  0  0  0  0  0  0
   10.4980   -0.2750   22.9240 C   0  0  0  0  0  0  0  0  0  0  0  0
    8.5840   -1.9390   22.7360 N   0  0  0  0  0  0  0  0  0  0  0  0
    8.4290   -3.2900   23.1900 C   0  0  0  0  0  0  0  0  0  0  0  0
    7.3480   -4.3170   23.0870 C   0  0  0  0  0  0  0  0  0  0  0  0
    7.4950   -5.5080   23.6050 N   0  0  0  0  0  0  0  0  0  0  0  0
    8.7270   -5.7930   24.2780 C   0  0  0  0  0  0  0  0  0  0  0  0
    8.8970   -7.2810   24.8800 Cl  0  0  0  0  0  0  0  0  0  0  0  0
    9.7480   -4.9250   24.4320 C   0  0  0  0  0  0  0  0  0  0  0  0
    9.6860   -3.6860   23.9280 C   0  0  0  0  0  0  0  0  0  0  0  0
  2  1  1  1
  2  3  1  0
  3  4  2  0
  3  5  1  0
  2  6  1  0
  6  7  2  0
  7  8  1  0
  8  9  2  0
  9 10  1  0
  6 11  1  0
 10 11  2  0
 10 12  1  0
 12 13  1  0
 13 14  1  0
 14 15  2  0
 15 16  1  0
 16 17  1  0
 16 18  2  0
  9 19  1  0
 13 19  2  0
 18 19  1  0
M  END
