MAK-UNK-148caf23-16-acrylamide
     RDKit          3D

 36 39  0  0  0  0  0  0  0  0999 V2000
    7.8090   -3.3640   19.2800 C   0  0  0  0  0  0  0  0  0  0  0  0
    7.8020   -3.5410   20.7170 C   0  0  0  0  0  0  0  0  0  0  0  0
    6.6800   -3.0250   21.5040 C   0  0  0  0  0  0  0  0  0  0  0  0
    5.1680   -3.4400   21.2850 O   0  0  0  0  0  0  0  0  0  0  0  0
    7.7080   -2.1360   22.4820 C   0  0  0  0  0  0  0  0  0  0  0  0
    7.8970   -1.4550   23.7030 C   0  0  0  0  0  0  0  0  0  0  0  0
    9.3200   -1.2580   23.0660 C   0  0  0  0  0  0  0  0  0  0  0  0
   10.2610   -0.5240   23.8360 C   0  0  0  0  0  0  0  0  0  0  0  0
   10.0980    0.0910   25.1720 N   0  0  0  0  0  0  0  0  0  0  0  0
    9.5100   -0.5200   26.2810 C   0  0  0  0  0  0  0  0  0  0  0  0
    8.1950    0.0090   26.8130 C   0  0  0  0  0  0  0  0  0  0  0  0
    7.4850    1.0700   25.9530 C   0  0  0  0  0  0  0  0  0  0  0  0
    6.2790    1.5880   26.3920 N   0  0  0  0  0  0  0  0  0  0  0  0
    5.7950    1.0940   27.6020 C   0  0  0  0  0  0  0  0  0  0  0  0
    6.4190    0.1360   28.3910 C   0  0  0  0  0  0  0  0  0  0  0  0
    5.5810   -0.2730   29.8240 S   0  0  0  0  0  0  0  0  0  0  0  0
    5.3830   -1.7020   29.7970 O   0  0  0  0  0  0  0  0  0  0  0  0
    4.4550    0.6300   29.8960 O   0  0  0  0  0  0  0  0  0  0  0  0
    6.5700    0.1970   31.0750 N   0  0  0  0  0  0  0  0  0  0  0  0
    7.7540    0.7090   30.8330 C   0  0  0  0  0  0  0  0  0  0  0  0
    8.3690    1.0100   31.9040 C   0  0  0  0  0  0  0  0  0  0  0  0
    9.6530    1.5730   31.9160 C   0  0  0  0  0  0  0  0  0  0  0  0
    9.9100    2.6540   31.1560 N   0  0  0  0  0  0  0  0  0  0  0  0
   11.2190    2.9040   30.9690 C   0  0  0  0  0  0  0  0  0  0  0  0
    7.5490    0.6850   33.0630 C   0  0  0  0  0  0  0  0  0  0  0  0
    6.2710    0.1040   32.4670 C   0  0  0  0  0  0  0  0  0  0  0  0
    6.1350    0.0830   33.8650 C   0  0  0  0  0  0  0  0  0  0  0  0
    7.2430   -0.5000   34.6610 C   0  0  0  0  0  0  0  0  0  0  0  0
    7.3190   -0.6280   36.1000 C   0  0  0  0  0  0  0  0  0  0  0  0
    6.1520   -0.0520   35.8700 C   0  0  0  0  0  0  0  0  0  0  0  0
    4.9610    0.5260   35.7780 C   0  0  0  0  0  0  0  0  0  0  0  0
    4.9240    0.6280   34.4470 C   0  0  0  0  0  0  0  0  0  0  0  0
    3.8980    1.1640   33.7670 F   0  0  0  0  0  0  0  0  0  0  0  0
    7.6280   -0.4220   28.0100 C   0  0  0  0  0  0  0  0  0  0  0  0
    9.0960   -0.9210   23.8840 N   0  0  0  0  0  0  0  0  0  0  0  0
    8.9730   -1.6200   22.5730 C   0  0  0  0  0  0  0  0  0  0  0  0
  1  2  1  0
  2  3  1  0
  3  4  2  0
  3  5  1  0
  5  6  2  0
  6  7  1  0
  7  8  2  0
  8  9  1  0
  9 10  1  0
 10 11  1  0
 11 12  2  0
 12 13  1  0
 13 14  2  0
 14 15  1  0
 16 15  1  0
 16 17  2  0
 16 18  2  0
 16 19  1  0
 19 20  1  0
 20 21  2  0
 21 22  1  0
 22 23  1  0
 23 24  1  0
 21 25  1  0
 19 26  1  0
 25 26  2  0
 26 27  1  0
 27 28  2  0
 28 29  1  0
 29 30  2  0
 30 31  1  0
 27 32  1  0
 31 32  2  0
 32 33  1  0
 11 34  1  0
 15 34  2  0
  8 35  1  0
  5 36  1  0
 35 36  2  0
M  END
