MAK-UNK-6ca90168-17-nitrile
     RDKit          3D

 12 12  0  0  0  0  0  0  0  0999 V2000
    6.8490   -4.6940   20.4630 C   0  0  0  0  0  0  0  0  0  0  0  0
    5.8090   -5.3450   20.0670 N   0  0  0  0  0  0  0  0  0  0  0  0
    6.9600   -4.2330   21.7730 N   0  0  0  0  0  0  0  0  0  0  0  0
    5.6880   -4.1870   22.5170 C   0  0  0  0  0  0  0  0  0  0  0  0
    5.1830   -2.7430   22.5260 C   0  0  0  0  0  0  0  0  0  0  0  0
    5.9530   -1.9380   21.5660 N   0  0  0  0  0  0  0  0  0  0  0  0
    5.4980   -1.8760   20.2310 C   0  0  0  0  0  0  0  0  0  0  0  0
    4.9100   -2.8550   19.7580 O   0  0  0  0  0  0  0  0  0  0  0  0
    5.7310   -0.6850   19.4190 C   0  0  0  0  0  0  0  0  0  0  0  0
    5.9790    0.2490   18.7650 N   0  0  0  0  0  0  0  0  0  0  0  0
    7.3860   -1.8750   21.8710 C   0  0  0  0  0  0  0  0  0  0  0  0
    7.8890   -3.1560   22.2450 C   0  0  0  0  0  0  0  0  0  0  0  0
  1  2  2  3
  1  3  1  0
  3  4  1  0
  4  5  1  0
  5  6  1  0
  6  7  1  0
  7  8  2  0
  7  9  1  0
  9 10  3  0
  6 11  1  0
  3 12  1  0
 11 12  1  0
M  END
