MAK-UNK-849bee6c-22-chloroacetamide
     RDKit          3D

 29 31  0  0  0  0  0  0  0  0999 V2000
    6.9040   -3.0210   18.9540 C   0  0  0  0  0  0  0  0  0  0  0  0
    5.8830   -3.4080   20.0100 C   0  0  0  0  0  0  0  0  0  0  0  0
    5.2520   -4.4550   19.8560 O   0  0  0  0  0  0  0  0  0  0  0  0
    5.6710   -2.5820   21.1100 N   0  0  0  0  0  0  0  0  0  0  0  0
    5.9120   -1.3120   21.1300 C   0  0  0  0  0  0  0  0  0  0  0  0
    7.3130   -1.0770   21.7340 C   0  0  0  0  0  0  0  0  0  0  0  0
    7.5450   -1.7740   23.0250 N   0  0  0  0  0  0  0  0  0  0  0  0
    8.5650   -2.8510   22.8770 C   0  0  0  0  0  0  0  0  0  0  0  0
   10.0260   -2.3940   22.9610 C   0  0  0  0  0  0  0  0  0  0  0  0
   10.6280   -1.7990   24.2040 C   0  0  0  0  0  0  0  0  0  0  0  0
   11.9510   -1.4060   24.2500 C   0  0  0  0  0  0  0  0  0  0  0  0
   12.5630   -0.8490   25.2880 C   0  0  0  0  0  0  0  0  0  0  0  0
   12.7250   -1.5580   23.1630 C   0  0  0  0  0  0  0  0  0  0  0  0
   12.2510   -2.0660   22.0070 C   0  0  0  0  0  0  0  0  0  0  0  0
   13.2410   -2.0560   21.0580 N   0  0  0  0  0  0  0  0  0  0  0  0
   13.7500   -0.7370   20.9100 C   0  0  0  0  0  0  0  0  0  0  0  0
   13.6970    0.3100   21.9140 C   0  0  0  0  0  0  0  0  0  0  0  0
   14.2470    1.4940   21.3990 C   0  0  0  0  0  0  0  0  0  0  0  0
   14.1540    2.5180   22.3220 N   0  0  0  0  0  0  0  0  0  0  0  0
   13.5580    3.8000   22.4230 C   0  0  0  0  0  0  0  0  0  0  0  0
   13.4510    4.6200   21.3080 C   0  0  0  0  0  0  0  0  0  0  0  0
   14.7130    2.0190   20.5900 N   0  0  0  0  0  0  0  0  0  0  0  0
   14.7850    1.1240   19.6550 C   0  0  0  0  0  0  0  0  0  0  0  0
   15.2960    1.7180   18.5860 C   0  0  0  0  0  0  0  0  0  0  0  0
   15.6180    2.3280   17.7230 N   0  0  0  0  0  0  0  0  0  0  0  0
   14.3320   -0.2930   19.7090 N   0  0  0  0  0  0  0  0  0  0  0  0
   10.9170   -2.4850   21.8890 C   0  0  0  0  0  0  0  0  0  0  0  0
    6.2590   -2.3140   23.5050 C   0  0  0  0  0  0  0  0  0  0  0  0
    5.5870   -3.1850   22.4450 C   0  0  0  0  0  0  0  0  0  0  0  0
  1  2  1  0
  2  3  2  0
  2  4  1  0
  4  5  1  0
  5  6  1  0
  6  7  1  0
  7  8  1  0
  8  9  1  0
  9 10  2  0
 10 11  1  0
 11 12  1  0
 11 13  2  0
 13 14  1  0
 14 15  1  0
 15 16  1  0
 16 17  2  0
 17 18  1  0
 18 19  1  0
 19 20  1  0
 20 21  1  0
 18 22  2  0
 22 23  1  0
 23 24  1  0
 24 25  3  0
 16 26  1  0
 23 26  2  0
  9 27  1  0
 14 27  2  0
  7 28  1  0
  4 29  1  0
 28 29  1  0
M  END
