MAK-UNK-3d7e3904-2-vinylsulfonamide
     RDKit          3D

 24 26  0  0  0  0  0  0  0  0999 V2000
    7.0800   -3.1140   18.7120 C   0  0  0  0  0  0  0  0  0  0  0  0
    5.8210   -3.6390   19.3850 C   0  0  0  0  0  0  0  0  0  0  0  0
    5.9200   -2.9210   20.9130 S   0  0  0  0  0  0  0  0  0  0  0  0
    4.6780   -3.1120   21.6120 O   0  0  0  0  0  0  0  0  0  0  0  0
    6.5580   -1.6510   20.6760 O   0  0  0  0  0  0  0  0  0  0  0  0
    7.0210   -3.9610   21.5970 N   0  0  0  0  0  0  0  0  0  0  0  0
    6.3780   -5.1420   22.1610 C   0  0  0  0  0  0  0  0  0  0  0  0
    5.6870   -4.7190   23.4570 C   0  0  0  0  0  0  0  0  0  0  0  0
    6.4420   -3.7480   24.3260 C   0  0  0  0  0  0  0  0  0  0  0  0
    5.8390   -3.1580   25.4010 C   0  0  0  0  0  0  0  0  0  0  0  0
    4.4240   -3.3480   25.5460 O   0  0  0  0  0  0  0  0  0  0  0  0
    6.7570   -2.4830   26.1400 N   0  0  0  0  0  0  0  0  0  0  0  0
    6.6080   -1.3760   27.0620 C   0  0  0  0  0  0  0  0  0  0  0  0
    6.1110   -0.1760   26.5730 C   0  0  0  0  0  0  0  0  0  0  0  0
    5.9730    0.9130   27.4470 C   0  0  0  0  0  0  0  0  0  0  0  0
    6.3310    0.8120   28.8120 C   0  0  0  0  0  0  0  0  0  0  0  0
    6.8280   -0.3840   29.3260 C   0  0  0  0  0  0  0  0  0  0  0  0
    6.9680   -1.5630   28.3690 C   0  0  0  0  0  0  0  0  0  0  0  0
    7.4400   -2.8660   28.7290 N   0  0  0  0  0  0  0  0  0  0  0  0
    6.7250   -4.1380   28.4330 C   0  0  0  0  0  0  0  0  0  0  0  0
    7.9110   -4.7250   27.8180 C   0  0  0  0  0  0  0  0  0  0  0  0
    8.7170   -3.4630   28.1170 C   0  0  0  0  0  0  0  0  0  0  0  0
    7.1040   -2.6170   23.5300 C   0  0  0  0  0  0  0  0  0  0  0  0
    7.9310   -3.2140   22.4250 C   0  0  0  0  0  0  0  0  0  0  0  0
  1  2  1  0
  3  2  1  0
  3  4  2  0
  3  5  2  0
  3  6  1  0
  6  7  1  0
  7  8  1  0
  8  9  1  0
  9 10  1  0
 10 11  2  0
 10 12  1  0
 12 13  1  0
 13 14  2  0
 14 15  1  0
 15 16  2  0
 16 17  1  0
 13 18  1  0
 17 18  2  0
 18 19  1  0
 19 20  1  0
 20 21  1  0
 19 22  1  0
 21 22  1  0
  9 23  1  0
  6 24  1  0
 23 24  1  0
M  END
