MAK-UNK-516d8086-23-nitrile
     RDKit          3D

 22 24  0  0  0  0  0  0  0  0999 V2000
    7.4460   -3.7980   20.0600 C   0  0  0  0  0  0  0  0  0  0  0  0
    6.1880   -3.9230   19.7000 N   0  0  0  0  0  0  0  0  0  0  0  0
    7.9570   -2.6900   21.0950 C   0  0  0  0  0  0  0  0  0  0  0  0
    9.4860   -2.5780   21.2800 C   0  0  0  0  0  0  0  0  0  0  0  0
   10.1420   -1.7240   22.0140 N   0  0  0  0  0  0  0  0  0  0  0  0
    9.3690   -0.9040   22.6620 C   0  0  0  0  0  0  0  0  0  0  0  0
   10.0030    0.0110   23.4150 N   0  0  0  0  0  0  0  0  0  0  0  0
   11.4750   -0.0430   23.3430 C   0  0  0  0  0  0  0  0  0  0  0  0
   12.0350    1.2310   23.2240 C   0  0  0  0  0  0  0  0  0  0  0  0
    7.9160   -0.9680   22.5920 C   0  0  0  0  0  0  0  0  0  0  0  0
    7.2460   -0.0770   23.4050 C   0  0  0  0  0  0  0  0  0  0  0  0
    8.3080    0.1870   24.2420 C   0  0  0  0  0  0  0  0  0  0  0  0
    9.3900   -0.1530   25.0230 C   0  0  0  0  0  0  0  0  0  0  0  0
    9.8680   -1.4620   25.2660 C   0  0  0  0  0  0  0  0  0  0  0  0
    9.4190   -2.7440   24.8720 C   0  0  0  0  0  0  0  0  0  0  0  0
    8.4670   -2.5750   24.2040 C   0  0  0  0  0  0  0  0  0  0  0  0
    8.2420   -1.2040   24.1140 C   0  0  0  0  0  0  0  0  0  0  0  0
    9.2930   -3.9120   24.7420 C   0  0  0  0  0  0  0  0  0  0  0  0
   10.3600   -3.9860   25.3290 O   0  0  0  0  0  0  0  0  0  0  0  0
    8.5190   -4.8110   24.3830 N   0  0  0  0  0  0  0  0  0  0  0  0
    8.3800   -3.5950   24.0980 C   0  0  0  0  0  0  0  0  0  0  0  0
    7.1800   -1.8500   21.8010 N   0  0  0  0  0  0  0  0  0  0  0  0
  1  2  2  3
  1  3  1  0
  3  4  2  0
  4  5  1  0
  5  6  2  0
  6  7  1  0
  7  8  1  0
  8  9  1  0
  6 10  1  0
 10 11  1  0
 11 12  1  0
 12 13  2  0
 13 14  1  0
 14 15  2  0
 15 16  1  0
 12 17  1  0
 16 17  2  0
 16 18  1  0
 18 19  2  0
 18 20  1  0
 15 21  1  0
 20 21  1  0
  3 22  1  0
 10 22  2  0
M  END
