MAK-UNK-702fb7d3-10-nitrile
     RDKit          3D

 41 46  0  0  0  0  0  0  0  0999 V2000
    7.4710   -3.7300   20.6220 C   0  0  0  0  0  0  0  0  0  0  0  0
    6.2720   -3.7300   19.9910 N   0  0  0  0  0  0  0  0  0  0  0  0
    7.8190   -3.3180   22.0940 N   0  0  0  0  0  0  0  0  0  0  0  0
    6.9510   -2.6120   23.1160 C   0  0  0  0  0  0  0  0  0  0  0  0
    7.3260   -3.1700   24.5770 C   0  0  0  0  0  0  0  0  0  0  0  0
    6.2020   -2.6600   25.5120 C   0  0  0  0  0  0  0  0  0  0  0  0
    6.3490   -3.1200   26.9990 C   0  0  0  0  0  0  0  0  0  0  0  0
    7.5920   -4.0010   27.2310 C   0  0  0  0  0  0  0  0  0  0  0  0
    7.5430   -4.3630   28.6680 N   0  0  0  0  0  0  0  0  0  0  0  0
    6.6840   -5.5630   28.9060 C   0  0  0  0  0  0  0  0  0  0  0  0
    5.2940   -5.4140   28.2330 C   0  0  0  0  0  0  0  0  0  0  0  0
    4.7690   -6.6730   27.7610 C   0  0  0  0  0  0  0  0  0  0  0  0
    3.5060   -6.2430   27.1780 C   0  0  0  0  0  0  0  0  0  0  0  0
    2.7920   -7.2250   26.6300 C   0  0  0  0  0  0  0  0  0  0  0  0
    3.0530   -7.6050   25.2460 C   0  0  0  0  0  0  0  0  0  0  0  0
    2.3950   -8.5720   24.5940 C   0  0  0  0  0  0  0  0  0  0  0  0
    1.3650   -9.2870   25.3130 C   0  0  0  0  0  0  0  0  0  0  0  0
    1.0790   -8.9690   26.6250 C   0  0  0  0  0  0  0  0  0  0  0  0
    1.7650   -7.9560   27.3030 C   0  0  0  0  0  0  0  0  0  0  0  0
    1.4400   -7.6910   28.5810 F   0  0  0  0  0  0  0  0  0  0  0  0
    3.2700   -4.8710   27.2900 N   0  0  0  0  0  0  0  0  0  0  0  0
    1.9690   -3.9640   26.7680 S   0  0  0  0  0  0  0  0  0  0  0  0
    2.4410   -2.6320   26.4720 O   0  0  0  0  0  0  0  0  0  0  0  0
    0.9130   -4.1920   27.7290 O   0  0  0  0  0  0  0  0  0  0  0  0
    1.4850   -4.7350   25.2660 C   0  0  0  0  0  0  0  0  0  0  0  0
    2.4500   -5.3210   24.3890 C   0  0  0  0  0  0  0  0  0  0  0  0
    2.0390   -5.9360   23.2020 C   0  0  0  0  0  0  0  0  0  0  0  0
    0.6720   -5.9660   22.8820 C   0  0  0  0  0  0  0  0  0  0  0  0
   -0.3020   -5.4290   23.6580 N   0  0  0  0  0  0  0  0  0  0  0  0
    0.1500   -4.7860   24.9100 C   0  0  0  0  0  0  0  0  0  0  0  0
    4.4650   -4.3080   28.0000 C   0  0  0  0  0  0  0  0  0  0  0  0
    8.5440   -4.3720   26.2790 C   0  0  0  0  0  0  0  0  0  0  0  0
    8.4040   -3.9600   24.9860 C   0  0  0  0  0  0  0  0  0  0  0  0
    9.2330   -4.2840   23.9610 C   0  0  1  0  0  0  0  0  0  0  0  0
    8.6130   -5.3530   23.4780 C   0  0  0  0  0  0  0  0  0  0  0  0
    9.1480   -6.5090   23.2600 C   0  0  0  0  0  0  0  0  0  0  0  0
    8.3270   -7.4900   22.7780 C   0  0  0  0  0  0  0  0  0  0  0  0
    6.9280   -7.5200   22.4360 C   0  0  0  0  0  0  0  0  0  0  0  0
    6.5480   -6.2240   22.7230 C   0  0  0  0  0  0  0  0  0  0  0  0
    7.2990   -5.2070   23.2080 C   0  0  0  0  0  0  0  0  0  0  0  0
    9.1610   -3.2440   22.8050 C   0  0  0  0  0  0  0  0  0  0  0  0
  1  2  2  3
  1  3  1  0
  3  4  1  0
  4  5  1  0
  5  6  1  0
  6  7  2  0
  7  8  1  0
  8  9  1  0
  9 10  1  0
 10 11  1  0
 11 12  1  0
 12 13  2  0
 13 14  1  0
 14 15  2  0
 15 16  1  0
 16 17  2  0
 17 18  1  0
 14 19  1  0
 18 19  2  0
 19 20  1  0
 13 21  1  0
 21 22  1  0
 22 23  2  0
 22 24  2  0
 22 25  1  0
 25 26  2  0
 26 27  1  0
 27 28  2  0
 28 29  1  0
 25 30  1  0
 29 30  2  0
 11 31  2  0
 21 31  1  0
  8 32  2  0
  5 33  2  0
 32 33  1  0
 33 34  1  0
 34 35  1  6
 35 36  2  0
 36 37  1  0
 37 38  2  0
 38 39  1  0
 35 40  1  0
 39 40  2  0
  3 41  1  0
 34 41  1  0
M  END
