MAK-UNK-8fdbca50-18-chloroacetamide
     RDKit          3D

 39 42  0  0  0  0  0  0  0  0999 V2000
    5.3790   -4.6800   21.7210 C   0  0  0  0  0  0  0  0  0  0  0  0
    5.2910   -5.7530   20.6250 C   0  0  0  0  0  0  0  0  0  0  0  0
    5.4410   -6.4160   19.6160 O   0  0  0  0  0  0  0  0  0  0  0  0
    6.2750   -5.1410   19.8170 N   0  0  0  0  0  0  0  0  0  0  0  0
    6.3150   -3.4400   19.3440 C   0  0  0  0  0  0  0  0  0  0  0  0
    7.8700   -2.6310   19.7260 C   0  0  0  0  0  0  0  0  0  0  0  0
    9.2620   -3.6890   20.3340 C   0  0  0  0  0  0  0  0  0  0  0  0
    9.8720   -2.6420   21.3970 C   0  0  0  0  0  0  0  0  0  0  0  0
   11.1050   -2.5400   21.5210 O   0  0  0  0  0  0  0  0  0  0  0  0
    9.0090   -1.7400   22.2060 N   0  0  0  0  0  0  0  0  0  0  0  0
    8.1820   -0.6170   21.6350 C   0  0  0  0  0  0  0  0  0  0  0  0
    9.0530    0.6310   21.8890 C   0  0  0  0  0  0  0  0  0  0  0  0
    7.5360   -0.7260   20.3940 C   0  0  0  0  0  0  0  0  0  0  0  0
    9.5980   -1.4930   23.5610 C   0  0  1  0  0  0  0  0  0  0  0  0
   10.6600   -0.6510   23.7090 N   0  0  0  0  0  0  0  0  0  0  0  0
   11.4340   -0.8280   24.7940 C   0  0  0  0  0  0  0  0  0  0  0  0
    8.5150   -1.0760   24.3550 C   0  0  0  0  0  0  0  0  0  0  0  0
    7.4490   -1.9160   24.7460 C   0  0  0  0  0  0  0  0  0  0  0  0
    6.5210   -1.2780   25.5010 C   0  0  0  0  0  0  0  0  0  0  0  0
    5.3200   -1.7400   26.0800 C   0  0  0  0  0  0  0  0  0  0  0  0
    5.1190   -1.7140   27.4770 C   0  0  0  0  0  0  0  0  0  0  0  0
    3.9630   -2.1550   28.1110 C   0  0  0  0  0  0  0  0  0  0  0  0
    2.9360   -2.6540   27.3350 C   0  0  0  0  0  0  0  0  0  0  0  0
    3.1020   -2.6950   25.9550 C   0  0  0  0  0  0  0  0  0  0  0  0
    4.2630   -2.2580   25.2640 C   0  0  0  0  0  0  0  0  0  0  0  0
    4.3420   -2.3370   23.9280 F   0  0  0  0  0  0  0  0  0  0  0  0
    6.9740    0.1020   25.6510 N   0  0  0  0  0  0  0  0  0  0  0  0
    6.2530    1.4500   26.4930 S   0  0  0  0  0  0  0  0  0  0  0  0
    7.2810    2.4510   26.7480 O   0  0  0  0  0  0  0  0  0  0  0  0
    5.0690    1.7410   25.6820 O   0  0  0  0  0  0  0  0  0  0  0  0
    5.7160    0.7780   28.0120 C   0  0  0  0  0  0  0  0  0  0  0  0
    6.9300    0.3710   27.8000 C   0  0  0  0  0  0  0  0  0  0  0  0
    7.3950    1.0300   26.5080 C   0  0  0  0  0  0  0  0  0  0  0  0
    6.3130    1.9710   25.8310 C   0  0  0  0  0  0  0  0  0  0  0  0
    5.0180    2.2100   26.3370 N   0  0  0  0  0  0  0  0  0  0  0  0
    4.7040    1.5580   27.5190 C   0  0  0  0  0  0  0  0  0  0  0  0
    8.2030    0.1820   24.9320 C   0  0  0  0  0  0  0  0  0  0  0  0
    9.1010   -5.4440   20.5310 C   0  0  0  0  0  0  0  0  0  0  0  0
    7.5980   -6.1520   20.1150 C   0  0  0  0  0  0  0  0  0  0  0  0
  1  2  1  0
  2  3  2  0
  2  4  1  0
  4  5  1  0
  5  6  1  0
  6  7  1  0
  7  8  1  0
  8  9  2  0
  8 10  1  0
 10 11  1  0
 11 12  1  0
 11 13  1  0
 10 14  1  0
 14 15  1  6
 15 16  1  0
 14 17  1  0
 17 18  1  0
 18 19  2  0
 19 20  1  0
 20 21  2  0
 21 22  1  0
 22 23  2  0
 23 24  1  0
 20 25  1  0
 24 25  2  0
 25 26  1  0
 19 27  1  0
 27 28  1  0
 28 29  2  0
 28 30  2  0
 28 31  1  0
 31 32  2  0
 32 33  1  0
 33 34  2  0
 34 35  1  0
 31 36  1  0
 35 36  2  0
 17 37  2  0
 27 37  1  0
  7 38  1  0
  4 39  1  0
 38 39  1  0
M  END
