MAK-UNK-d4768348-4-chloroacetamide
     RDKit          3D

 17 18  0  0  0  0  0  0  0  0999 V2000
    7.7770   -3.6570   20.3290 C   0  0  0  0  0  0  0  0  0  0  0  0
    6.5130   -4.4400   20.6290 C   0  0  0  0  0  0  0  0  0  0  0  0
    5.5210   -4.4290   19.8960 O   0  0  0  0  0  0  0  0  0  0  0  0
    6.5740   -5.1600   21.7960 N   0  0  0  0  0  0  0  0  0  0  0  0
    5.6120   -6.1940   22.1050 C   0  0  0  0  0  0  0  0  0  0  0  0
    4.6600   -5.7560   23.2180 C   0  0  0  0  0  0  0  0  0  0  0  0
    5.4390   -5.2040   24.3600 N   0  0  0  0  0  0  0  0  0  0  0  0
    4.6840   -5.0550   25.8800 S   0  0  0  0  0  0  0  0  0  0  0  0
    3.9610   -6.2920   26.0690 O   0  0  0  0  0  0  0  0  0  0  0  0
    5.6720   -4.5910   26.8200 O   0  0  0  0  0  0  0  0  0  0  0  0
    3.4570   -3.7910   25.6730 C   0  0  0  0  0  0  0  0  0  0  0  0
    3.6180   -2.4750   26.0600 C   0  0  0  0  0  0  0  0  0  0  0  0
    2.6250   -1.5190   25.9020 C   0  0  0  0  0  0  0  0  0  0  0  0
    1.1750   -2.5790   25.6010 S   0  0  0  0  0  0  0  0  0  0  0  0
    2.1280   -3.9490   25.0910 N   0  0  0  0  0  0  0  0  0  0  0  0
    6.3300   -4.2900   23.9380 C   0  0  0  0  0  0  0  0  0  0  0  0
    7.3070   -4.7540   22.8830 C   0  0  0  0  0  0  0  0  0  0  0  0
  1  2  1  0
  2  3  2  0
  2  4  1  0
  4  5  1  0
  5  6  1  0
  6  7  1  0
  7  8  1  0
  8  9  2  0
  8 10  2  0
  8 11  1  0
 11 12  2  0
 12 13  1  0
 13 14  1  0
 11 15  1  0
 14 15  2  0
  7 16  1  0
  4 17  1  0
 16 17  1  0
M  END
