MAK-UNK-5d2caa6f-1-vinylsulfonamide
     RDKit          3D

 21 23  0  0  0  0  0  0  0  0999 V2000
    6.3110   -4.4160   20.1120 C   0  0  0  0  0  0  0  0  0  0  0  0
    6.8000   -3.6560   21.3550 C   0  0  0  0  0  0  0  0  0  0  0  0
    5.8490   -4.1090   22.7780 S   0  0  0  0  0  0  0  0  0  0  0  0
    4.4420   -4.1460   22.4180 O   0  0  0  0  0  0  0  0  0  0  0  0
    6.4720   -5.2590   23.3990 O   0  0  0  0  0  0  0  0  0  0  0  0
    6.1190   -2.7650   23.7610 N   0  0  0  0  0  0  0  0  0  0  0  0
    6.1780   -1.4460   23.1210 C   0  0  0  0  0  0  0  0  0  0  0  0
    7.5830   -0.9810   23.5100 C   0  0  1  0  0  0  0  0  0  0  0  0
    7.5960   -1.3960   24.9750 C   0  0  0  0  0  0  0  0  0  0  0  0
    7.3110   -2.8640   24.6320 C   0  0  2  0  0  0  0  0  0  0  0  0
    8.6400   -3.1580   23.8300 C   0  0  0  0  0  0  0  0  0  0  0  0
    8.6450   -1.9340   22.8790 C   0  0  2  0  0  0  0  0  0  0  0  0
   10.0180   -1.2640   22.6880 C   0  0  0  0  0  0  0  0  0  0  0  0
   10.9150   -0.3770   22.1800 O   0  0  0  0  0  0  0  0  0  0  0  0
    9.0760   -0.6340   21.8650 N   0  0  0  0  0  0  0  0  0  0  0  0
    8.3470   -1.2860   20.8290 C   0  0  0  0  0  0  0  0  0  0  0  0
    7.6820    0.2800   20.8390 C   0  0  0  0  0  0  0  0  0  0  0  0
    6.5430    1.2460   20.0960 C   0  0  0  0  0  0  0  0  0  0  0  0
    6.4540    0.0070   19.4570 C   0  0  0  0  0  0  0  0  0  0  0  0
    7.3000   -0.6220   20.0490 N   0  0  0  0  0  0  0  0  0  0  0  0
    7.5310   -1.7620   19.7810 C   0  0  0  0  0  0  0  0  0  0  0  0
  1  2  1  0
  3  2  1  0
  3  4  2  0
  3  5  2  0
  3  6  1  0
  6  7  1  0
  8  7  1  6
  8  9  1  0
  6 10  1  0
  9 10  1  0
 10 11  1  6
  8 12  1  0
 11 12  1  0
 12 13  1  1
 13 14  2  0
 13 15  1  0
 15 16  1  0
 16 17  2  0
 17 18  1  0
 18 19  2  0
 19 20  1  0
 16 21  1  0
 20 21  2  0
M  END
