MAK-UNK-6c8f5f75-4-nitrile
     RDKit          3D

  9  9  0  0  0  0  0  0  0  0999 V2000
    6.8140   -4.1380   20.3000 C   0  0  0  0  0  0  0  0  0  0  0  0
    5.6280   -4.2320   19.8370 N   0  0  0  0  0  0  0  0  0  0  0  0
    7.1410   -4.0190   21.6400 N   0  0  0  0  0  0  0  0  0  0  0  0
    6.8080   -4.9920   22.7660 C   0  0  0  0  0  0  0  0  0  0  0  0
    7.3470   -3.7380   22.3990 C   0  0  0  0  0  0  0  0  0  0  0  0
    7.6760   -2.9910   23.4920 C   0  0  1  0  0  0  0  0  0  0  0  0
    9.1710   -2.7430   23.7480 C   0  0  0  0  0  0  0  0  0  0  0  0
   10.3120   -2.5420   23.8400 N   0  0  0  0  0  0  0  0  0  0  0  0
    7.3550   -2.5920   22.3300 O   0  0  0  0  0  0  0  0  0  0  0  0
  1  2  2  3
  1  3  1  0
  3  4  1  0
  4  5  2  0
  5  6  1  0
  6  7  1  6
  7  8  3  0
  3  9  1  0
  6  9  1  0
M  END
