MAK-UNK-702fb7d3-10-vinylsulfonamide
     RDKit          3D

 44 49  0  0  0  0  0  0  0  0999 V2000
    8.0110   -4.1230   20.7710 C   0  0  0  0  0  0  0  0  0  0  0  0
    6.5190   -4.4110   20.8610 C   0  0  0  0  0  0  0  0  0  0  0  0
    5.8370   -3.3700   22.1160 S   0  0  0  0  0  0  0  0  0  0  0  0
    4.5220   -3.0190   21.7110 O   0  0  0  0  0  0  0  0  0  0  0  0
    6.8190   -2.3740   22.4840 O   0  0  0  0  0  0  0  0  0  0  0  0
    5.6020   -4.3970   23.4100 N   0  0  0  0  0  0  0  0  0  0  0  0
    4.3070   -5.0790   23.5050 C   0  0  0  0  0  0  0  0  0  0  0  0
    4.0660   -5.2310   25.0520 C   0  0  0  0  0  0  0  0  0  0  0  0
    5.5830   -5.3300   25.2900 C   0  0  0  0  0  0  0  0  0  0  0  0
    5.8010   -5.5050   26.8220 C   0  0  0  0  0  0  0  0  0  0  0  0
    6.2620   -5.6850   28.2830 C   0  0  0  0  0  0  0  0  0  0  0  0
    5.5000   -5.7850   29.5770 N   0  0  0  0  0  0  0  0  0  0  0  0
    5.5330   -7.1220   30.1580 C   0  0  0  0  0  0  0  0  0  0  0  0
    5.0530   -7.1100   31.5630 C   0  0  0  0  0  0  0  0  0  0  0  0
    5.5690   -8.1010   32.4870 C   0  0  0  0  0  0  0  0  0  0  0  0
    4.9770   -7.8860   33.6490 C   0  0  0  0  0  0  0  0  0  0  0  0
    5.1800   -8.6570   34.8580 C   0  0  0  0  0  0  0  0  0  0  0  0
    4.5170   -8.3970   36.0100 C   0  0  0  0  0  0  0  0  0  0  0  0
    4.6860   -9.1440   37.2510 C   0  0  0  0  0  0  0  0  0  0  0  0
    5.5710  -10.1910   37.2940 C   0  0  0  0  0  0  0  0  0  0  0  0
    6.2650  -10.4890   36.1370 C   0  0  0  0  0  0  0  0  0  0  0  0
    6.0940   -9.7620   34.9400 C   0  0  0  0  0  0  0  0  0  0  0  0
    6.8110  -10.1350   33.8780 F   0  0  0  0  0  0  0  0  0  0  0  0
    4.0410   -6.6860   33.4800 N   0  0  0  0  0  0  0  0  0  0  0  0
    3.0540   -5.9660   34.6200 S   0  0  0  0  0  0  0  0  0  0  0  0
    2.0440   -6.9520   34.9400 O   0  0  0  0  0  0  0  0  0  0  0  0
    2.6820   -4.6610   34.1180 O   0  0  0  0  0  0  0  0  0  0  0  0
    4.0680   -5.7700   36.0420 C   0  0  0  0  0  0  0  0  0  0  0  0
    5.4560   -5.9910   35.9660 C   0  0  0  0  0  0  0  0  0  0  0  0
    6.2460   -5.8330   37.1100 C   0  0  0  0  0  0  0  0  0  0  0  0
    5.5580   -5.4170   38.4130 C   0  0  0  0  0  0  0  0  0  0  0  0
    4.2280   -5.2020   38.4970 N   0  0  0  0  0  0  0  0  0  0  0  0
    3.4760   -5.3940   37.2430 C   0  0  0  0  0  0  0  0  0  0  0  0
    4.1330   -6.2510   32.1570 C   0  0  0  0  0  0  0  0  0  0  0  0
    5.0730   -5.5530   27.5780 C   0  0  0  0  0  0  0  0  0  0  0  0
    4.8880   -5.3890   26.2050 C   0  0  0  0  0  0  0  0  0  0  0  0
    6.1590   -5.3410   25.5460 C   0  0  2  0  0  0  0  0  0  0  0  0
    7.3670   -5.2130   26.2410 C   0  0  0  0  0  0  0  0  0  0  0  0
    8.5020   -5.6370   25.5550 C   0  0  0  0  0  0  0  0  0  0  0  0
    9.7410   -5.5560   26.1480 C   0  0  0  0  0  0  0  0  0  0  0  0
    9.8540   -5.0530   27.4220 C   0  0  0  0  0  0  0  0  0  0  0  0
    8.7400   -4.6230   28.1100 C   0  0  0  0  0  0  0  0  0  0  0  0
    7.4900   -4.6920   27.5370 C   0  0  0  0  0  0  0  0  0  0  0  0
    6.1540   -4.0660   24.6980 C   0  0  0  0  0  0  0  0  0  0  0  0
  1  2  1  0
  3  2  1  0
  3  4  2  0
  3  5  2  0
  3  6  1  0
  6  7  1  0
  7  8  1  0
  8  9  1  0
  9 10  2  0
 10 11  1  0
 11 12  1  0
 12 13  1  0
 13 14  1  0
 14 15  1  0
 15 16  2  0
 16 17  1  0
 17 18  2  0
 18 19  1  0
 19 20  2  0
 20 21  1  0
 17 22  1  0
 21 22  2  0
 22 23  1  0
 16 24  1  0
 24 25  1  0
 25 26  2  0
 25 27  2  0
 25 28  1  0
 28 29  2  0
 29 30  1  0
 30 31  2  0
 31 32  1  0
 28 33  1  0
 32 33  2  0
 14 34  2  0
 24 34  1  0
 11 35  2  0
  8 36  2  0
 35 36  1  0
 36 37  1  0
 37 38  1  1
 38 39  2  0
 39 40  1  0
 40 41  2  0
 41 42  1  0
 38 43  1  0
 42 43  2  0
  6 44  1  0
 37 44  1  0
M  END
