MAK-UNK-1bb0b7ee-6
     RDKit          3D

 13 14  0  0  0  0  0  0  0  0999 V2000
    8.0090   -6.3580   22.5100 O   0  0  0  0  0  0  0  0  0  0  0  0
    6.7340   -5.7940   22.7050 S   0  0  0  0  0  0  0  0  0  0  0  0
    5.9250   -5.9340   23.8860 O   0  0  0  0  0  0  0  0  0  0  0  0
    6.7670   -4.1800   22.1410 C   0  0  0  0  0  0  0  0  0  0  0  0
    5.6150   -4.1840   21.1800 C   0  0  0  0  0  0  0  0  0  0  0  0
    4.4210   -3.7880   21.8410 O   0  0  0  0  0  0  0  0  0  0  0  0
    4.6810   -3.9160   23.1730 C   0  0  0  0  0  0  0  0  0  0  0  0
    3.8520   -4.7530   23.9300 C   0  0  0  0  0  0  0  0  0  0  0  0
    4.1380   -4.9070   25.2900 C   0  0  0  0  0  0  0  0  0  0  0  0
    5.2180   -4.2410   25.8530 C   0  0  0  0  0  0  0  0  0  0  0  0
    6.0140   -3.3840   24.9560 C   0  0  0  0  0  0  0  0  0  0  0  0
    5.7400   -3.2340   23.6530 N   0  0  0  0  0  0  0  0  0  0  0  0
    5.7790   -5.7560   21.2010 C   0  0  0  0  0  0  0  0  0  0  0  0
  1  2  2  0
  2  3  2  0
  2  4  1  0
  4  5  1  0
  5  6  1  0
  6  7  1  0
  7  8  2  0
  8  9  1  0
  9 10  2  0
 10 11  1  0
  7 12  1  0
 11 12  2  0
  2 13  1  0
  5 13  1  0
M  END
