MAK-UNK-148caf23-11-acrylamide
     RDKit          3D

 36 39  0  0  0  0  0  0  0  0999 V2000
    8.9110   -3.5780   19.9440 C   0  0  0  0  0  0  0  0  0  0  0  0
    7.7900   -4.2750   20.6940 C   0  0  0  0  0  0  0  0  0  0  0  0
    6.8130   -3.2400   21.1410 C   0  0  0  0  0  0  0  0  0  0  0  0
    5.2500   -3.5020   21.0320 O   0  0  0  0  0  0  0  0  0  0  0  0
    7.9420   -2.0760   21.6570 C   0  0  0  0  0  0  0  0  0  0  0  0
    8.9300   -1.0570   22.1080 C   0  0  0  0  0  0  0  0  0  0  0  0
    8.6260   -1.6600   23.7090 C   0  0  0  0  0  0  0  0  0  0  0  0
    9.5730   -0.5660   23.9830 C   0  0  0  0  0  0  0  0  0  0  0  0
   10.0580   -0.0860   25.2180 N   0  0  0  0  0  0  0  0  0  0  0  0
    9.5460   -0.9050   26.3320 C   0  0  0  0  0  0  0  0  0  0  0  0
    8.1990   -0.3900   26.9490 C   0  0  0  0  0  0  0  0  0  0  0  0
    6.9720   -0.2920   26.2490 C   0  0  0  0  0  0  0  0  0  0  0  0
    6.7480   -0.6150   24.8970 C   0  0  0  0  0  0  0  0  0  0  0  0
    5.5300   -0.3230   24.3830 N   0  0  0  0  0  0  0  0  0  0  0  0
    4.5340   -1.2540   24.5530 C   0  0  0  0  0  0  0  0  0  0  0  0
    6.0130    0.1960   27.1910 C   0  0  0  0  0  0  0  0  0  0  0  0
    6.6340    0.3870   28.4510 N   0  0  0  0  0  0  0  0  0  0  0  0
    5.8660    0.9420   29.8670 S   0  0  0  0  0  0  0  0  0  0  0  0
    5.8620   -0.1610   30.8050 O   0  0  0  0  0  0  0  0  0  0  0  0
    4.6040    1.5200   29.4340 O   0  0  0  0  0  0  0  0  0  0  0  0
    6.8690    2.2240   30.5490 C   0  0  0  0  0  0  0  0  0  0  0  0
    7.4700    2.0540   31.7960 C   0  0  0  0  0  0  0  0  0  0  0  0
    8.2750    3.0940   32.3370 C   0  0  0  0  0  0  0  0  0  0  0  0
    8.4890    4.3000   31.6730 C   0  0  0  0  0  0  0  0  0  0  0  0
    7.8760    4.5460   30.3500 N   0  0  0  0  0  0  0  0  0  0  0  0
    7.0610    3.4050   29.8680 C   0  0  0  0  0  0  0  0  0  0  0  0
    8.0550    0.0110   28.2920 C   0  0  0  0  0  0  0  0  0  0  0  0
    8.9370    0.1180   29.4390 C   0  0  0  0  0  0  0  0  0  0  0  0
    8.6850   -0.0120   30.9040 C   0  0  0  0  0  0  0  0  0  0  0  0
    9.8930    0.1910   31.8110 C   0  0  0  0  0  0  0  0  0  0  0  0
   11.1360    0.4680   31.2680 C   0  0  0  0  0  0  0  0  0  0  0  0
   11.2730    0.5730   29.7710 C   0  0  0  0  0  0  0  0  0  0  0  0
   10.1620    0.3890   28.9360 C   0  0  0  0  0  0  0  0  0  0  0  0
   10.2950    0.4720   27.6220 F   0  0  0  0  0  0  0  0  0  0  0  0
    9.6040   -0.4250   22.8300 N   0  0  0  0  0  0  0  0  0  0  0  0
    8.6230   -1.5520   22.9190 C   0  0  0  0  0  0  0  0  0  0  0  0
  1  2  1  0
  2  3  1  0
  3  4  2  0
  3  5  1  0
  5  6  2  0
  6  7  1  0
  7  8  2  0
  8  9  1  0
  9 10  1  0
 10 11  1  0
 11 12  1  0
 12 13  1  0
 13 14  1  0
 14 15  1  0
 12 16  2  0
 16 17  1  0
 17 18  1  0
 18 19  2  0
 18 20  2  0
 18 21  1  0
 21 22  2  0
 22 23  1  0
 23 24  2  0
 24 25  1  0
 21 26  1  0
 25 26  2  0
 11 27  2  0
 17 27  1  0
 27 28  1  0
 28 29  2  0
 29 30  1  0
 30 31  2  0
 31 32  1  0
 28 33  1  0
 32 33  2  0
 33 34  1  0
  8 35  1  0
  5 36  1  0
 35 36  2  0
M  END
