MAK-UNK-e4a48a85-25-vinylsulfonamide
     RDKit          3D

 28 30  0  0  0  0  0  0  0  0999 V2000
    7.8570   -3.3230   19.5970 C   0  0  0  0  0  0  0  0  0  0  0  0
    6.9290   -2.4870   18.7360 C   0  0  0  0  0  0  0  0  0  0  0  0
    5.5390   -2.5420   19.7580 S   0  0  0  0  0  0  0  0  0  0  0  0
    5.0350   -3.9080   19.7150 O   0  0  0  0  0  0  0  0  0  0  0  0
    4.7400   -1.3690   19.5020 O   0  0  0  0  0  0  0  0  0  0  0  0
    6.3580   -2.2830   21.1850 N   0  0  0  0  0  0  0  0  0  0  0  0
    7.2220   -1.1090   21.3050 C   0  0  0  0  0  0  0  0  0  0  0  0
    8.4770   -1.6830   21.9680 C   0  0  0  0  0  0  0  0  0  0  0  0
    8.0670   -2.1170   23.3300 N   0  0  0  0  0  0  0  0  0  0  0  0
    9.0910   -2.1570   24.3810 C   0  0  0  0  0  0  0  0  0  0  0  0
   10.1330   -1.1130   23.9960 C   0  0  0  0  0  0  0  0  0  0  0  0
   11.1630   -1.8370   23.2030 N   0  0  0  0  0  0  0  0  0  0  0  0
   12.2460   -0.9600   22.7860 C   0  0  0  0  0  0  0  0  0  0  0  0
   13.2850   -1.6840   21.9350 C   0  0  0  0  0  0  0  0  0  0  0  0
   12.3630    0.4190   23.1090 N   0  0  0  0  0  0  0  0  0  0  0  0
   11.3050    1.0030   23.7520 C   0  0  0  0  0  0  0  0  0  0  0  0
   11.2200    2.3420   23.9500 O   0  0  0  0  0  0  0  0  0  0  0  0
   10.1070    0.2080   24.2920 C   0  0  0  0  0  0  0  0  0  0  0  0
    9.0760    1.0610   25.0570 C   0  0  0  0  0  0  0  0  0  0  0  0
    8.3120    0.3420   26.1680 C   0  0  0  0  0  0  0  0  0  0  0  0
    9.2320   -0.3860   27.1300 C   0  0  0  0  0  0  0  0  0  0  0  0
    8.9350   -0.0820   28.6000 C   0  0  0  0  0  0  0  0  0  0  0  0
    7.6380   -0.5130   29.2320 C   0  0  0  0  0  0  0  0  0  0  0  0
    7.5810   -0.1000   30.6930 C   0  0  0  0  0  0  0  0  0  0  0  0
    9.0120    0.7240   31.1430 S   0  0  0  0  0  0  0  0  0  0  0  0
    9.7370    0.5920   29.5620 C   0  0  0  0  0  0  0  0  0  0  0  0
    7.2740   -3.3510   23.2240 C   0  0  0  0  0  0  0  0  0  0  0  0
    6.0490   -3.0930   22.3620 C   0  0  0  0  0  0  0  0  0  0  0  0
  1  2  1  0
  3  2  1  0
  3  4  2  0
  3  5  2  0
  3  6  1  0
  6  7  1  0
  7  8  1  0
  8  9  1  0
  9 10  1  0
 10 11  1  0
 11 12  1  0
 12 13  2  0
 13 14  1  0
 13 15  1  0
 15 16  1  0
 16 17  2  0
 11 18  2  0
 16 18  1  0
 18 19  1  0
 19 20  1  0
 20 21  1  0
 21 22  1  0
 22 23  1  0
 23 24  2  0
 24 25  1  0
 22 26  2  0
 25 26  1  0
  9 27  1  0
  6 28  1  0
 27 28  1  0
M  END
