MAK-UNK-516d8086-4-vinylsulfonamide
     RDKit          3D

 25 27  0  0  0  0  0  0  0  0999 V2000
    8.1490   -5.3050   20.5000 C   0  0  0  0  0  0  0  0  0  0  0  0
    7.2210   -4.0650   20.3690 C   0  0  0  0  0  0  0  0  0  0  0  0
    6.4370   -3.5620   21.8800 S   0  0  0  0  0  0  0  0  0  0  0  0
    4.9770   -3.5220   21.5860 O   0  0  0  0  0  0  0  0  0  0  0  0
    6.9060   -4.4500   22.9180 O   0  0  0  0  0  0  0  0  0  0  0  0
    7.1860   -1.8520   22.1880 C   0  0  0  0  0  0  0  0  0  0  0  0
    6.1540   -0.7620   22.2800 C   0  0  0  0  0  0  0  0  0  0  0  0
    6.5930    0.6730   22.4950 C   0  0  0  0  0  0  0  0  0  0  0  0
    8.0840    1.0550   22.6200 C   0  0  0  0  0  0  0  0  0  0  0  0
    8.5450    2.3100   22.7790 N   0  0  0  0  0  0  0  0  0  0  0  0
    7.7110    3.4280   22.3330 C   0  0  0  0  0  0  0  0  0  0  0  0
    6.7050    2.8380   21.3580 C   0  0  0  0  0  0  0  0  0  0  0  0
    9.0440   -0.1600   22.5340 C   0  0  0  0  0  0  0  0  0  0  0  0
   10.4620    0.1280   22.6440 C   0  0  0  0  0  0  0  0  0  0  0  0
   11.5480   -0.2700   23.6780 C   0  0  0  0  0  0  0  0  0  0  0  0
   11.8960   -1.2570   24.3600 C   0  0  0  0  0  0  0  0  0  0  0  0
   11.2150   -2.3260   24.2710 C   0  0  0  0  0  0  0  0  0  0  0  0
   11.1600   -3.4780   24.6850 C   0  0  0  0  0  0  0  0  0  0  0  0
   10.2260   -3.0550   23.8480 C   0  0  0  0  0  0  0  0  0  0  0  0
   10.7690   -1.5380   23.6170 C   0  0  0  0  0  0  0  0  0  0  0  0
   10.1850   -4.4240   24.4230 C   0  0  0  0  0  0  0  0  0  0  0  0
    9.7210   -4.7500   23.3490 O   0  0  0  0  0  0  0  0  0  0  0  0
   10.7730   -3.7290   25.6410 N   0  0  0  0  0  0  0  0  0  0  0  0
   12.2350   -3.3860   25.4390 C   0  0  0  0  0  0  0  0  0  0  0  0
    8.5680   -1.5190   22.3220 C   0  0  0  0  0  0  0  0  0  0  0  0
  1  2  1  0
  3  2  1  0
  3  4  2  0
  3  5  2  0
  3  6  1  0
  6  7  2  0
  7  8  1  0
  8  9  2  0
  9 10  1  0
 10 11  1  0
 11 12  1  0
  9 13  1  0
 13 14  1  0
 14 15  1  0
 15 16  2  0
 16 17  1  0
 17 18  2  0
 18 19  1  0
 15 20  1  0
 19 20  2  0
 19 21  1  0
 21 22  2  0
 21 23  1  0
 18 24  1  0
 23 24  1  0
  6 25  1  0
 13 25  2  0
M  END
