MAK-UNK-148caf23-17-nitrile
     RDKit          3D

 34 37  0  0  0  0  0  0  0  0999 V2000
    8.2390   -3.2400   19.7450 C   0  0  0  0  0  0  0  0  0  0  0  0
    6.9710   -3.2360   19.4000 N   0  0  0  0  0  0  0  0  0  0  0  0
    8.6660   -2.8460   21.3110 C   0  0  0  0  0  0  0  0  0  0  0  0
    9.0920   -2.2900   22.5990 C   0  0  0  0  0  0  0  0  0  0  0  0
    9.4150   -2.0940   24.0050 C   0  0  0  0  0  0  0  0  0  0  0  0
    9.7940   -0.7510   23.7890 C   0  0  0  0  0  0  0  0  0  0  0  0
   10.1630   -0.0510   24.9270 N   0  0  0  0  0  0  0  0  0  0  0  0
    9.3290   -0.5660   25.9160 C   0  0  0  0  0  0  0  0  0  0  0  0
    8.8810    0.1740   27.0150 C   0  0  0  0  0  0  0  0  0  0  0  0
    7.9430    1.2270   26.9170 C   0  0  0  0  0  0  0  0  0  0  0  0
    7.3760    2.0960   28.0020 C   0  0  0  0  0  0  0  0  0  0  0  0
    7.9640    1.6930   29.3420 C   0  0  0  0  0  0  0  0  0  0  0  0
    7.4650    2.5370   30.7180 S   0  0  0  0  0  0  0  0  0  0  0  0
    6.4720    3.5000   30.3020 O   0  0  0  0  0  0  0  0  0  0  0  0
    8.6710    3.0270   31.3480 O   0  0  0  0  0  0  0  0  0  0  0  0
    6.6830    1.4740   31.7250 N   0  0  0  0  0  0  0  0  0  0  0  0
    6.9850    1.2790   33.0450 C   0  0  0  0  0  0  0  0  0  0  0  0
    6.2190    0.3500   33.6930 C   0  0  0  0  0  0  0  0  0  0  0  0
    6.3420   -0.0170   35.0310 C   0  0  0  0  0  0  0  0  0  0  0  0
    5.1790    0.4140   35.6090 N   0  0  0  0  0  0  0  0  0  0  0  0
    4.3900   -0.7170   36.0770 C   0  0  0  0  0  0  0  0  0  0  0  0
    5.3400   -0.0780   32.6470 C   0  0  0  0  0  0  0  0  0  0  0  0
    5.6480    0.6230   31.4600 C   0  0  0  0  0  0  0  0  0  0  0  0
    4.9570    0.4080   30.2730 C   0  0  0  0  0  0  0  0  0  0  0  0
    4.6680    1.4770   29.4290 C   0  0  0  0  0  0  0  0  0  0  0  0
    3.9830    1.3350   28.2250 C   0  0  0  0  0  0  0  0  0  0  0  0
    3.5580    0.0730   27.8270 C   0  0  0  0  0  0  0  0  0  0  0  0
    3.8260   -1.0230   28.6450 C   0  0  0  0  0  0  0  0  0  0  0  0
    4.5150   -0.8660   29.8520 C   0  0  0  0  0  0  0  0  0  0  0  0
    4.7460   -1.9550   30.6020 F   0  0  0  0  0  0  0  0  0  0  0  0
    8.8810    0.6530   29.3900 C   0  0  0  0  0  0  0  0  0  0  0  0
    9.3100   -0.0560   28.3120 N   0  0  0  0  0  0  0  0  0  0  0  0
    9.6690   -0.4510   22.4300 N   0  0  0  0  0  0  0  0  0  0  0  0
    9.1640   -1.3910   21.3440 C   0  0  0  0  0  0  0  0  0  0  0  0
  1  2  2  3
  1  3  1  0
  3  4  2  0
  4  5  1  0
  5  6  2  0
  6  7  1  0
  7  8  1  0
  8  9  1  0
  9 10  2  0
 10 11  1  0
 11 12  2  0
 13 12  1  0
 13 14  2  0
 13 15  2  0
 13 16  1  0
 16 17  1  0
 17 18  2  0
 18 19  1  0
 19 20  1  0
 20 21  1  0
 18 22  1  0
 16 23  1  0
 22 23  2  0
 23 24  1  0
 24 25  2  0
 25 26  1  0
 26 27  2  0
 27 28  1  0
 24 29  1  0
 28 29  2  0
 29 30  1  0
 12 31  1  0
  9 32  1  0
 31 32  2  0
  6 33  1  0
  3 34  1  0
 33 34  2  0
M  END
