MAK-UNK-ec98eaf6-23-nitrile
     RDKit          3D

 21 23  0  0  0  0  0  0  0  0999 V2000
    6.6340   -3.6790   19.9640 C   0  0  0  0  0  0  0  0  0  0  0  0
    5.7370   -4.5940   19.9350 N   0  0  0  0  0  0  0  0  0  0  0  0
    6.6210   -2.7070   20.9290 N   0  0  0  0  0  0  0  0  0  0  0  0
    7.3700   -1.3970   20.9240 C   0  0  0  0  0  0  0  0  0  0  0  0
    8.0760   -1.4290   22.3140 C   0  0  1  0  0  0  0  0  0  0  0  0
    6.6520   -1.6050   22.9070 C   0  0  0  0  0  0  0  0  0  0  0  0
    6.2690   -2.9610   22.3630 C   0  0  2  0  0  0  0  0  0  0  0  0
    7.3850   -3.7140   22.9780 C   0  0  0  0  0  0  0  0  0  0  0  0
    8.1570   -2.4890   23.4200 N   0  0  0  0  0  0  0  0  0  0  0  0
    9.5150   -2.8870   23.7610 C   0  0  0  0  0  0  0  0  0  0  0  0
   10.4510   -1.7050   23.8120 C   0  0  0  0  0  0  0  0  0  0  0  0
   11.6160   -2.0090   22.8930 C   0  0  0  0  0  0  0  0  0  0  0  0
   12.6180   -0.8530   22.8850 C   0  0  0  0  0  0  0  0  0  0  0  0
   13.6690   -1.0760   22.0780 O   0  0  0  0  0  0  0  0  0  0  0  0
   13.3100   -1.7120   20.8840 C   0  0  0  0  0  0  0  0  0  0  0  0
   12.3370    0.3460   23.7260 C   0  0  0  0  0  0  0  0  0  0  0  0
   11.2340    0.4660   24.5010 N   0  0  0  0  0  0  0  0  0  0  0  0
   10.3340   -0.5390   24.5290 C   0  0  0  0  0  0  0  0  0  0  0  0
    9.1700   -0.4480   25.3300 N   0  0  0  0  0  0  0  0  0  0  0  0
    8.8700    0.8110   26.0000 C   0  0  0  0  0  0  0  0  0  0  0  0
    9.0180    0.5230   27.4930 C   0  0  0  0  0  0  0  0  0  0  0  0
  1  2  2  3
  1  3  1  0
  3  4  1  0
  5  4  1  6
  5  6  1  0
  3  7  1  0
  6  7  1  0
  7  8  1  1
  5  9  1  0
  8  9  1  0
  9 10  1  0
 10 11  1  0
 11 12  2  0
 12 13  1  0
 13 14  1  0
 14 15  1  0
 13 16  2  0
 16 17  1  0
 11 18  1  0
 17 18  2  0
 18 19  1  0
 19 20  1  0
 20 21  1  0
M  END
