MAK-UNK-ec98eaf6-13-acrylamide
     RDKit          3D

 21 23  0  0  0  0  0  0  0  0999 V2000
    7.4320   -2.8440   18.3780 C   0  0  0  0  0  0  0  0  0  0  0  0
    6.5230   -1.9770   19.1860 C   0  0  0  0  0  0  0  0  0  0  0  0
    5.7570   -2.8400   20.1430 C   0  0  0  0  0  0  0  0  0  0  0  0
    5.0470   -3.8030   19.7920 O   0  0  0  0  0  0  0  0  0  0  0  0
    5.9690   -2.5210   21.4450 N   0  0  0  0  0  0  0  0  0  0  0  0
    5.8600   -3.5390   22.5190 C   0  0  0  0  0  0  0  0  0  0  0  0
    7.0520   -3.1970   23.4850 C   0  0  2  0  0  0  0  0  0  0  0  0
    6.4640   -1.7880   23.3940 C   0  0  0  0  0  0  0  0  0  0  0  0
    6.7380   -1.3830   21.9980 C   0  0  1  0  0  0  0  0  0  0  0  0
    8.2280   -1.6590   22.1380 C   0  0  0  0  0  0  0  0  0  0  0  0
    8.0860   -2.1210   23.5600 N   0  0  0  0  0  0  0  0  0  0  0  0
    9.3170   -2.5010   24.2450 C   0  0  0  0  0  0  0  0  0  0  0  0
    9.1030   -2.3800   25.5690 F   0  0  0  0  0  0  0  0  0  0  0  0
    9.5380   -3.8230   24.0620 F   0  0  0  0  0  0  0  0  0  0  0  0
   10.5060   -1.6200   23.8010 C   0  0  0  0  0  0  0  0  0  0  0  0
   10.7200   -0.2990   24.5270 C   0  0  0  0  0  0  0  0  0  0  0  0
   11.8590    0.6030   24.1190 C   0  0  0  0  0  0  0  0  0  0  0  0
   12.7690    0.1950   23.0210 C   0  0  0  0  0  0  0  0  0  0  0  0
   12.4970   -1.1070   22.3590 C   0  0  0  0  0  0  0  0  0  0  0  0
   13.4380   -1.6860   21.0940 Cl  0  0  0  0  0  0  0  0  0  0  0  0
   11.3530   -1.9600   22.7970 C   0  0  0  0  0  0  0  0  0  0  0  0
  1  2  1  0
  2  3  1  0
  3  4  2  0
  3  5  1  0
  5  6  1  0
  7  6  1  6
  7  8  1  0
  5  9  1  0
  8  9  1  0
  9 10  1  1
  7 11  1  0
 10 11  1  0
 11 12  1  0
 12 13  1  0
 12 14  1  0
 12 15  1  0
 15 16  2  0
 16 17  1  0
 17 18  2  0
 18 19  1  0
 19 20  1  0
 15 21  1  0
 19 21  2  0
M  END
