MAK-UNK-3d7e3904-3-nitrile
     RDKit          3D

 21 23  0  0  0  0  0  0  0  0999 V2000
    6.8150   -3.7350   19.7270 C   0  0  0  0  0  0  0  0  0  0  0  0
    5.8700   -3.2860   19.0020 N   0  0  0  0  0  0  0  0  0  0  0  0
    6.8140   -3.9070   21.0790 N   0  0  0  0  0  0  0  0  0  0  0  0
    6.3310   -5.1430   21.7090 C   0  0  0  0  0  0  0  0  0  0  0  0
    5.8480   -4.8220   23.1310 C   0  0  0  0  0  0  0  0  0  0  0  0
    5.8280   -3.3480   23.5640 C   0  0  0  0  0  0  0  0  0  0  0  0
    5.5910   -2.9740   24.9950 C   0  0  0  0  0  0  0  0  0  0  0  0
    4.7160   -3.4950   25.6730 O   0  0  0  0  0  0  0  0  0  0  0  0
    6.4810   -1.9980   25.3570 N   0  0  0  0  0  0  0  0  0  0  0  0
    6.5780   -1.2680   26.5370 C   0  0  0  0  0  0  0  0  0  0  0  0
    6.1160    0.0350   26.5340 C   0  0  0  0  0  0  0  0  0  0  0  0
    6.2020    0.8050   27.6850 C   0  0  0  0  0  0  0  0  0  0  0  0
    6.7610    0.2530   28.8440 C   0  0  0  0  0  0  0  0  0  0  0  0
    7.2280   -1.0790   28.8490 C   0  0  0  0  0  0  0  0  0  0  0  0
    7.1190   -1.8240   27.6700 C   0  0  0  0  0  0  0  0  0  0  0  0
    7.5420   -3.2960   27.4390 C   0  0  0  0  0  0  0  0  0  0  0  0
    8.3360   -4.1610   28.4060 C   0  0  0  0  0  0  0  0  0  0  0  0
    7.0870   -4.5920   29.0280 O   0  0  0  0  0  0  0  0  0  0  0  0
    6.4820   -4.3860   27.7270 C   0  0  0  0  0  0  0  0  0  0  0  0
    7.1580   -2.6690   23.2050 C   0  0  0  0  0  0  0  0  0  0  0  0
    7.7510   -3.1150   21.8710 C   0  0  0  0  0  0  0  0  0  0  0  0
  1  2  2  3
  1  3  1  0
  3  4  1  0
  4  5  1  0
  5  6  1  0
  6  7  1  0
  7  8  2  0
  7  9  1  0
  9 10  1  0
 10 11  2  0
 11 12  1  0
 12 13  2  0
 13 14  1  0
 10 15  1  0
 14 15  2  0
 15 16  1  0
 16 17  1  0
 17 18  1  0
 16 19  1  0
 18 19  1  0
  6 20  1  0
  3 21  1  0
 20 21  1  0
M  END
