MAK-UNK-10dfa458-15-acrylamide
     RDKit          3D

 34 37  0  0  0  0  0  0  0  0999 V2000
    8.0120   -3.5650   19.6690 C   0  0  0  0  0  0  0  0  0  0  0  0
    7.4010   -2.9680   20.9080 C   0  0  0  0  0  0  0  0  0  0  0  0
    6.1650   -3.7290   21.2360 C   0  0  0  0  0  0  0  0  0  0  0  0
    5.1510   -3.5090   20.6120 O   0  0  0  0  0  0  0  0  0  0  0  0
    6.2940   -4.6800   22.2080 N   0  0  0  0  0  0  0  0  0  0  0  0
    7.2130   -4.5490   23.3240 C   0  0  0  0  0  0  0  0  0  0  0  0
    6.2100   -4.0330   24.3760 C   0  0  0  0  0  0  0  0  0  0  0  0
    5.2630   -5.1560   24.6500 N   0  0  0  0  0  0  0  0  0  0  0  0
    4.4330   -5.0110   25.8610 C   0  0  0  0  0  0  0  0  0  0  0  0
    3.5170   -3.7810   25.8670 C   0  0  0  0  0  0  0  0  0  0  0  0
    2.0460   -4.1590   25.4520 C   0  0  0  0  0  0  0  0  0  0  0  0
    1.1410   -2.9450   25.4900 C   0  0  0  0  0  0  0  0  0  0  0  0
    1.2290   -1.4870   25.8030 C   0  0  0  0  0  0  0  0  0  0  0  0
    0.2140   -0.5050   25.7830 C   0  0  0  0  0  0  0  0  0  0  0  0
   -0.6040    0.1980   26.2200 N   0  0  0  0  0  0  0  0  0  0  0  0
   -1.7650   -0.1270   26.9570 C   0  0  0  0  0  0  0  0  0  0  0  0
   -2.0600    0.5020   27.9720 O   0  0  0  0  0  0  0  0  0  0  0  0
   -2.6090   -1.1990   26.5100 C   0  0  0  0  0  0  0  0  0  0  0  0
   -3.2000   -1.9130   27.5490 N   0  0  0  0  0  0  0  0  0  0  0  0
   -4.6060   -1.6390   27.8580 C   0  0  0  0  0  0  0  0  0  0  0  0
   -5.1220   -2.5270   28.8150 C   0  0  0  0  0  0  0  0  0  0  0  0
   -5.0940   -3.9150   28.6460 C   0  0  0  0  0  0  0  0  0  0  0  0
   -5.6500   -4.5590   29.7050 N   0  0  0  0  0  0  0  0  0  0  0  0
   -6.0860   -3.5320   30.6570 C   0  0  0  0  0  0  0  0  0  0  0  0
   -6.7090   -3.6440   31.8910 C   0  0  0  0  0  0  0  0  0  0  0  0
   -7.0210   -2.5010   32.6040 C   0  0  0  0  0  0  0  0  0  0  0  0
   -6.7350   -1.2090   32.1390 C   0  0  0  0  0  0  0  0  0  0  0  0
   -7.0440   -0.1110   32.8440 F   0  0  0  0  0  0  0  0  0  0  0  0
   -6.0480   -1.1400   30.7740 C   0  0  0  0  0  0  0  0  0  0  0  0
   -5.7510   -2.2730   30.0910 C   0  0  0  0  0  0  0  0  0  0  0  0
    2.5750   -1.4520   26.1060 C   0  0  0  0  0  0  0  0  0  0  0  0
    3.7940   -2.4080   26.1900 C   0  0  0  0  0  0  0  0  0  0  0  0
    4.4920   -5.6410   23.4850 C   0  0  0  0  0  0  0  0  0  0  0  0
    5.3900   -5.8170   22.2680 C   0  0  0  0  0  0  0  0  0  0  0  0
  1  2  1  0
  2  3  1  0
  3  4  2  0
  3  5  1  0
  5  6  1  0
  6  7  1  0
  7  8  1  0
  8  9  1  0
  9 10  1  0
 10 11  2  0
 11 12  1  0
 12 13  2  0
 13 14  1  0
 14 15  1  0
 15 16  1  0
 16 17  2  0
 16 18  1  0
 18 19  1  0
 19 20  1  0
 20 21  1  0
 21 22  2  0
 22 23  1  0
 23 24  1  0
 24 25  1  0
 25 26  2  0
 26 27  1  0
 27 28  1  0
 27 29  2  0
 21 30  1  0
 24 30  2  0
 29 30  1  0
 13 31  1  0
 10 32  1  0
 31 32  2  0
  8 33  1  0
  5 34  1  0
 33 34  1  0
M  END
