MAK-UNK-60abb798-7
     RDKit          3D

 24 26  0  0  0  0  0  0  0  0999 V2000
    9.4920   -5.0900   27.6070 N   0  0  0  0  0  0  0  0  0  0  0  0
    9.5810   -4.1440   26.6190 C   0  0  0  0  0  0  0  0  0  0  0  0
   10.5290   -4.4450   25.4980 C   0  0  1  0  0  0  0  0  0  0  0  0
   10.0540   -4.8360   24.4770 O   0  0  0  0  0  0  0  0  0  0  0  0
    8.9930   -3.9380   24.0510 C   0  0  2  0  0  0  0  0  0  0  0  0
    8.2750   -4.4480   22.8110 C   0  0  1  0  0  0  0  0  0  0  0  0
    7.7080   -5.7460   23.1720 C   0  0  0  0  0  0  0  0  0  0  0  0
    6.7410   -6.1800   22.3370 C   0  0  0  0  0  0  0  0  0  0  0  0
    5.7920   -5.1820   22.1450 C   0  0  0  0  0  0  0  0  0  0  0  0
    6.2640   -3.8820   21.7550 C   0  0  2  0  0  0  0  0  0  0  0  0
    5.8710   -3.4250   20.3620 C   0  0  0  0  0  0  0  0  0  0  0  0
    6.7730   -2.3530   19.7100 C   0  0  0  0  0  0  0  0  0  0  0  0
    6.5190   -1.0560   19.9570 C   0  0  0  0  0  0  0  0  0  0  0  0
    5.7910   -0.6350   20.8470 O   0  0  0  0  0  0  0  0  0  0  0  0
    7.5860   -3.5270   22.1560 C   0  0  0  0  0  0  0  0  0  0  0  0
    9.4600   -2.5930   23.8860 C   0  0  0  0  0  0  0  0  0  0  0  0
   10.7830   -2.4340   24.2280 C   0  0  0  0  0  0  0  0  0  0  0  0
   11.3540   -3.3970   25.0640 C   0  0  0  0  0  0  0  0  0  0  0  0
   12.6900   -3.2640   25.3880 C   0  0  0  0  0  0  0  0  0  0  0  0
   13.4200   -2.2140   24.9140 C   0  0  0  0  0  0  0  0  0  0  0  0
   12.8520   -1.2460   24.0890 C   0  0  0  0  0  0  0  0  0  0  0  0
   13.6560   -0.1810   23.6130 O   0  0  0  0  0  0  0  0  0  0  0  0
   11.5290   -1.3510   23.7410 C   0  0  0  0  0  0  0  0  0  0  0  0
   10.9840   -0.3990   22.9220 O   0  0  0  0  0  0  0  0  0  0  0  0
  1  2  1  0
  3  2  1  1
  3  4  1  0
  4  5  1  0
  5  6  1  0
  6  7  1  1
  7  8  1  0
  8  9  1  0
  9 10  1  0
 10 11  1  6
 11 12  1  0
 12 13  1  0
 13 14  2  0
  6 15  1  0
 10 15  1  0
  5 16  1  6
 16 17  1  0
  3 18  1  0
 17 18  2  0
 18 19  1  0
 19 20  2  0
 20 21  1  0
 21 22  1  0
 17 23  1  0
 21 23  2  0
 23 24  1  0
M  END
