MAK-UNK-d4768348-5-nitrile
     RDKit          3D

 16 17  0  0  0  0  0  0  0  0999 V2000
    6.4280   -4.3910   20.3130 C   0  0  0  0  0  0  0  0  0  0  0  0
    5.3040   -4.1640   19.7750 N   0  0  0  0  0  0  0  0  0  0  0  0
    6.6120   -5.0500   21.5060 N   0  0  0  0  0  0  0  0  0  0  0  0
    7.3480   -4.4930   22.6420 C   0  0  0  0  0  0  0  0  0  0  0  0
    6.4100   -4.0910   23.7830 C   0  0  0  0  0  0  0  0  0  0  0  0
    5.5000   -5.1750   24.1850 N   0  0  0  0  0  0  0  0  0  0  0  0
    4.7350   -5.1110   25.6970 S   0  0  0  0  0  0  0  0  0  0  0  0
    4.0160   -6.3480   25.8720 O   0  0  0  0  0  0  0  0  0  0  0  0
    5.7200   -4.6800   26.6630 O   0  0  0  0  0  0  0  0  0  0  0  0
    3.4840   -3.8540   25.6240 C   0  0  0  0  0  0  0  0  0  0  0  0
    3.6390   -2.4210   25.8910 C   0  0  0  0  0  0  0  0  0  0  0  0
    2.4690   -1.6840   25.7850 C   0  0  0  0  0  0  0  0  0  0  0  0
    1.4720   -2.6220   25.4510 N   0  0  0  0  0  0  0  0  0  0  0  0
    2.0260   -3.8990   25.3310 C   0  0  0  0  0  0  0  0  0  0  0  0
    4.7070   -5.6100   23.0310 C   0  0  0  0  0  0  0  0  0  0  0  0
    5.6460   -6.1170   21.9380 C   0  0  0  0  0  0  0  0  0  0  0  0
  1  2  2  3
  1  3  1  0
  3  4  1  0
  4  5  1  0
  5  6  1  0
  6  7  1  0
  7  8  2  0
  7  9  2  0
  7 10  1  0
 10 11  2  0
 11 12  1  0
 12 13  1  0
 10 14  1  0
 13 14  2  0
  6 15  1  0
  3 16  1  0
 15 16  1  0
M  END
