MAK-UNK-148caf23-21-nitrile
     RDKit          3D

 34 37  0  0  0  0  0  0  0  0999 V2000
    8.1640   -3.1400   19.7420 C   0  0  0  0  0  0  0  0  0  0  0  0
    7.9100   -2.7120   18.4640 N   0  0  0  0  0  0  0  0  0  0  0  0
    8.7260   -2.1220   21.0150 C   0  0  0  0  0  0  0  0  0  0  0  0
    8.4530   -0.6350   20.9550 C   0  0  0  0  0  0  0  0  0  0  0  0
    8.9460    0.3370   22.1260 C   0  0  0  0  0  0  0  0  0  0  0  0
    9.7000    0.0140   23.4580 C   0  0  0  0  0  0  0  0  0  0  0  0
   10.3970   -0.6230   24.6050 N   0  0  0  0  0  0  0  0  0  0  0  0
    9.4830   -0.9880   25.7190 C   0  0  0  0  0  0  0  0  0  0  0  0
    8.6090    0.1730   26.2600 C   0  0  0  0  0  0  0  0  0  0  0  0
    8.8360    0.3100   27.7430 C   0  0  0  0  0  0  0  0  0  0  0  0
    8.0450    1.4190   28.4110 C   0  0  0  0  0  0  0  0  0  0  0  0
    7.1820    2.2230   27.6280 C   0  0  0  0  0  0  0  0  0  0  0  0
    6.4640    3.2550   28.2350 C   0  0  0  0  0  0  0  0  0  0  0  0
    6.5530    4.5930   28.1230 C   0  0  0  0  0  0  0  0  0  0  0  0
    5.6580    5.2990   28.9010 C   0  0  0  0  0  0  0  0  0  0  0  0
    5.5780    6.6930   28.9410 C   0  0  0  0  0  0  0  0  0  0  0  0
    6.6380    7.2780   29.6750 N   0  0  0  0  0  0  0  0  0  0  0  0
    6.7060    7.5150   31.0810 C   0  0  0  0  0  0  0  0  0  0  0  0
    4.9210    4.2850   29.5760 C   0  0  0  0  0  0  0  0  0  0  0  0
    5.3960    3.0060   29.1860 N   0  0  0  0  0  0  0  0  0  0  0  0
    4.7690    1.5270   29.7810 S   0  0  0  0  0  0  0  0  0  0  0  0
    5.8730    0.8280   30.4010 O   0  0  0  0  0  0  0  0  0  0  0  0
    3.5880    1.8760   30.5410 O   0  0  0  0  0  0  0  0  0  0  0  0
    4.2560    0.6400   28.3480 C   0  0  0  0  0  0  0  0  0  0  0  0
    5.1910    0.0430   27.5060 C   0  0  0  0  0  0  0  0  0  0  0  0
    4.6500   -0.6300   26.4080 C   0  0  0  0  0  0  0  0  0  0  0  0
    3.2590   -0.7120   26.1520 C   0  0  0  0  0  0  0  0  0  0  0  0
    2.3750   -0.1330   26.9740 N   0  0  0  0  0  0  0  0  0  0  0  0
    2.8900    0.5340   28.0590 C   0  0  0  0  0  0  0  0  0  0  0  0
    7.0400    1.9990   26.2260 C   0  0  0  0  0  0  0  0  0  0  0  0
    6.2110    2.7780   25.5080 F   0  0  0  0  0  0  0  0  0  0  0  0
    7.7410    0.9870   25.5430 C   0  0  0  0  0  0  0  0  0  0  0  0
    9.8280   -1.3350   23.2300 N   0  0  0  0  0  0  0  0  0  0  0  0
    9.4550   -2.2680   22.2440 C   0  0  0  0  0  0  0  0  0  0  0  0
  1  2  2  3
  1  3  1  0
  3  4  2  0
  4  5  1  0
  5  6  2  0
  6  7  1  0
  7  8  1  0
  8  9  1  0
  9 10  2  0
 10 11  1  0
 11 12  2  0
 12 13  1  0
 13 14  2  0
 14 15  1  0
 15 16  1  0
 16 17  1  0
 17 18  1  0
 15 19  2  0
 13 20  1  0
 19 20  1  0
 20 21  1  0
 21 22  2  0
 21 23  2  0
 21 24  1  0
 24 25  2  0
 25 26  1  0
 26 27  2  0
 27 28  1  0
 24 29  1  0
 28 29  2  0
 12 30  1  0
 30 31  1  0
  9 32  1  0
 30 32  2  0
  6 33  1  0
  3 34  1  0
 33 34  2  0
M  END
