MAK-UNK-8fdbca50-31-vinylsulfonamide
     RDKit          3D

 41 44  0  0  0  0  0  0  0  0999 V2000
    7.4410   -3.2690   19.2150 C   0  0  0  0  0  0  0  0  0  0  0  0
    5.9940   -2.9040   19.4550 C   0  0  0  0  0  0  0  0  0  0  0  0
    5.8420   -2.5110   21.1630 S   0  0  0  0  0  0  0  0  0  0  0  0
    4.5720   -3.0200   21.6520 O   0  0  0  0  0  0  0  0  0  0  0  0
    7.0480   -2.9710   21.8010 O   0  0  0  0  0  0  0  0  0  0  0  0
    5.9940   -0.8580   21.1510 N   0  0  0  0  0  0  0  0  0  0  0  0
    5.0550    0.1000   20.5620 C   0  0  0  0  0  0  0  0  0  0  0  0
    5.0620    1.3000   21.5820 C   0  0  0  0  0  0  0  0  0  0  0  0
    6.5780    1.5660   21.9000 C   0  0  0  0  0  0  0  0  0  0  0  0
    6.6720    0.7840   23.2190 C   0  0  0  0  0  0  0  0  0  0  0  0
    5.7730   -0.2140   23.5170 O   0  0  0  0  0  0  0  0  0  0  0  0
    7.7520    1.2180   24.1090 N   0  0  0  0  0  0  0  0  0  0  0  0
    9.0760    0.5330   24.1750 C   0  0  0  0  0  0  0  0  0  0  0  0
   10.1940    1.4400   23.6280 C   0  0  0  0  0  0  0  0  0  0  0  0
   11.6060    0.9090   23.6700 C   0  0  0  0  0  0  0  0  0  0  0  0
   11.7820   -0.4700   24.2530 C   0  0  0  0  0  0  0  0  0  0  0  0
   10.6480   -1.2070   24.7110 C   0  0  0  0  0  0  0  0  0  0  0  0
   10.8720   -2.4200   25.2130 F   0  0  0  0  0  0  0  0  0  0  0  0
    9.3360   -0.7460   24.6690 C   0  0  0  0  0  0  0  0  0  0  0  0
    8.2460   -1.5830   25.1330 C   0  0  0  0  0  0  0  0  0  0  0  0
    7.0810   -1.2480   25.7860 C   0  0  0  0  0  0  0  0  0  0  0  0
    6.3070   -2.3520   26.0360 C   0  0  0  0  0  0  0  0  0  0  0  0
    5.0630   -2.3030   26.6960 C   0  0  0  0  0  0  0  0  0  0  0  0
    4.0030   -2.9680   26.1310 N   0  0  0  0  0  0  0  0  0  0  0  0
    3.1390   -2.5730   25.0940 C   0  0  0  0  0  0  0  0  0  0  0  0
    7.0380   -3.4250   25.5000 C   0  0  0  0  0  0  0  0  0  0  0  0
    8.0600   -2.9970   25.0340 N   0  0  0  0  0  0  0  0  0  0  0  0
    9.1240   -4.1470   24.3260 S   0  0  0  0  0  0  0  0  0  0  0  0
    8.5090   -4.5110   23.0720 O   0  0  0  0  0  0  0  0  0  0  0  0
    9.3500   -5.1580   25.3440 O   0  0  0  0  0  0  0  0  0  0  0  0
   10.6520   -3.3640   23.9760 C   0  0  0  0  0  0  0  0  0  0  0  0
   11.7250   -3.3770   24.8900 C   0  0  0  0  0  0  0  0  0  0  0  0
   13.0190   -2.6990   24.5270 C   0  0  0  0  0  0  0  0  0  0  0  0
   13.1070   -2.0980   23.3420 C   0  0  0  0  0  0  0  0  0  0  0  0
   12.0740   -2.0720   22.4520 N   0  0  0  0  0  0  0  0  0  0  0  0
   10.8830   -2.6920   22.7690 C   0  0  0  0  0  0  0  0  0  0  0  0
    7.2460    1.7080   25.4080 C   0  0  0  0  0  0  0  0  0  0  0  0
    6.9640    3.2160   25.4650 C   0  0  0  0  0  0  0  0  0  0  0  0
    8.0850    1.2960   26.6270 C   0  0  0  0  0  0  0  0  0  0  0  0
    7.5320    1.0090   20.8530 C   0  0  0  0  0  0  0  0  0  0  0  0
    7.3820   -0.5150   20.8730 C   0  0  0  0  0  0  0  0  0  0  0  0
  1  2  1  0
  3  2  1  0
  3  4  2  0
  3  5  2  0
  3  6  1  0
  6  7  1  0
  7  8  1  0
  8  9  1  0
  9 10  1  0
 10 11  2  0
 10 12  1  0
 12 13  1  0
 13 14  2  0
 14 15  1  0
 15 16  2  0
 16 17  1  0
 17 18  1  0
 13 19  1  0
 17 19  2  0
 19 20  1  0
 20 21  2  0
 21 22  1  0
 22 23  1  0
 23 24  1  0
 24 25  1  0
 22 26  2  0
 20 27  1  0
 26 27  1  0
 27 28  1  0
 28 29  2  0
 28 30  2  0
 28 31  1  0
 31 32  2  0
 32 33  1  0
 33 34  2  0
 34 35  1  0
 31 36  1  0
 35 36  2  0
 12 37  1  0
 37 38  1  0
 37 39  1  0
  9 40  1  0
  6 41  1  0
 40 41  1  0
M  END
