MAK-UNK-704ed37c-13-nitrile
     RDKit          3D

 17 18  0  0  0  0  0  0  0  0999 V2000
    6.6770   -4.3190   20.3590 C   0  0  0  0  0  0  0  0  0  0  0  0
    5.5610   -4.7700   19.9760 N   0  0  0  0  0  0  0  0  0  0  0  0
    7.1520   -4.3000   21.6090 N   0  0  0  0  0  0  0  0  0  0  0  0
    7.7260   -3.2210   22.2810 C   0  0  0  0  0  0  0  0  0  0  0  0
    7.2280   -2.8000   23.5080 C   0  0  0  0  0  0  0  0  0  0  0  0
    6.5180   -3.8300   24.2970 N   0  0  0  0  0  0  0  0  0  0  0  0
    5.7850   -3.2770   25.4460 C   0  0  0  0  0  0  0  0  0  0  0  0
    4.7130   -2.6900   25.2920 O   0  0  0  0  0  0  0  0  0  0  0  0
    6.3920   -3.4580   26.7710 N   0  0  0  0  0  0  0  0  0  0  0  0
    7.8050   -3.8020   26.8080 C   0  0  0  0  0  0  0  0  0  0  0  0
    7.9730   -5.1220   27.1710 C   0  0  0  0  0  0  0  0  0  0  0  0
    7.6600   -5.3460   28.4850 C   0  0  0  0  0  0  0  0  0  0  0  0
    6.2100   -5.6010   28.8030 C   0  0  0  0  0  0  0  0  0  0  0  0
    5.3840   -4.3150   28.9000 C   0  0  0  0  0  0  0  0  0  0  0  0
    5.6880   -3.1420   28.0030 C   0  0  0  0  0  0  0  0  0  0  0  0
    5.8600   -4.9120   23.5590 C   0  0  0  0  0  0  0  0  0  0  0  0
    6.6660   -5.3560   22.4910 C   0  0  0  0  0  0  0  0  0  0  0  0
  1  2  2  3
  1  3  1  0
  3  4  1  0
  4  5  1  0
  5  6  1  0
  6  7  1  0
  7  8  2  0
  7  9  1  0
  9 10  1  0
 10 11  1  0
 11 12  1  0
 12 13  1  0
 13 14  1  0
  9 15  1  0
 14 15  1  0
  6 16  1  0
  3 17  1  0
 16 17  1  0
M  END
