MAK-UNK-0cb6a3ad-10
     RDKit          3D

 34 35  0  0  0  0  0  0  0  0999 V2000
    5.1190   -5.6890   26.8580 N   0  0  0  0  0  0  0  0  0  0  0  0
    6.2660   -5.2220   26.2170 C   0  0  0  0  0  0  0  0  0  0  0  0
    6.3240   -5.2280   24.8570 N   0  0  0  0  0  0  0  0  0  0  0  0
    5.2030   -5.7470   24.0480 C   0  0  0  0  0  0  0  0  0  0  0  0
    5.7780   -6.2060   22.7120 C   0  0  0  0  0  0  0  0  0  0  0  0
    6.5260   -5.3140   21.9680 C   0  0  0  0  0  0  0  0  0  0  0  0
    5.8460   -4.2020   21.4840 C   0  0  0  0  0  0  0  0  0  0  0  0
    6.3480   -2.9300   21.7840 C   0  0  0  0  0  0  0  0  0  0  0  0
    7.5480   -2.4670   21.2200 C   0  0  0  0  0  0  0  0  0  0  0  0
    7.6770   -2.6340   19.7630 N   0  0  0  0  0  0  0  0  0  0  0  0
    6.5140   -2.1600   18.9870 C   0  0  0  0  0  0  0  0  0  0  0  0
    5.7080   -1.2610   19.6420 N   0  0  0  0  0  0  0  0  0  0  0  0
    6.3130   -2.6360   17.7800 N   0  0  0  0  0  0  0  0  0  0  0  0
    7.2790   -2.3990   16.6820 C   0  0  0  0  0  0  0  0  0  0  0  0
    8.3440   -1.8850   17.0000 N   0  0  0  0  0  0  0  0  0  0  0  0
    6.9910   -2.7490   15.3760 N   0  0  0  0  0  0  0  0  0  0  0  0
    6.5420   -2.1420   14.1270 C   0  0  0  0  0  0  0  0  0  0  0  0
    6.7350   -0.7650   13.3280 C   0  0  0  0  0  0  0  0  0  0  0  0
    5.8790   -0.5640   11.9500 C   0  0  0  0  0  0  0  0  0  0  0  0
    5.1220   -1.7900   11.6110 C   0  0  0  0  0  0  0  0  0  0  0  0
    4.2080   -2.2550   10.4280 Cl  0  0  0  0  0  0  0  0  0  0  0  0
    5.1380   -2.8920   12.4160 C   0  0  0  0  0  0  0  0  0  0  0  0
    5.7830   -2.9620   13.4930 C   0  0  0  0  0  0  0  0  0  0  0  0
    7.3870   -4.7400   26.8360 N   0  0  0  0  0  0  0  0  0  0  0  0
    8.6620   -4.4790   26.4000 C   0  0  0  0  0  0  0  0  0  0  0  0
    9.6450   -5.2920   26.5990 N   0  0  0  0  0  0  0  0  0  0  0  0
    8.7540   -3.2830   25.7510 N   0  0  0  0  0  0  0  0  0  0  0  0
    9.7770   -2.7880   24.9250 C   0  0  0  0  0  0  0  0  0  0  0  0
   11.1060   -3.1170   25.1520 C   0  0  0  0  0  0  0  0  0  0  0  0
   12.1500   -2.6540   24.3670 C   0  0  0  0  0  0  0  0  0  0  0  0
   11.8720   -1.8200   23.2940 C   0  0  0  0  0  0  0  0  0  0  0  0
   13.1230   -1.2280   22.2940 Cl  0  0  0  0  0  0  0  0  0  0  0  0
   10.5460   -1.4620   23.0260 C   0  0  0  0  0  0  0  0  0  0  0  0
    9.5040   -1.9430   23.8390 C   0  0  0  0  0  0  0  0  0  0  0  0
  1  2  2  3
  2  3  1  0
  3  4  1  0
  4  5  1  0
  5  6  1  0
  6  7  1  0
  7  8  1  0
  8  9  1  0
  9 10  1  0
 10 11  1  0
 11 12  2  3
 11 13  1  0
 13 14  1  0
 14 15  2  3
 14 16  1  0
 16 17  1  0
 17 18  2  0
 18 19  1  0
 19 20  2  0
 20 21  1  0
 20 22  1  0
 17 23  1  0
 22 23  2  0
  2 24  1  0
 24 25  1  0
 25 26  2  3
 25 27  1  0
 27 28  1  0
 28 29  2  0
 29 30  1  0
 30 31  2  0
 31 32  1  0
 31 33  1  0
 28 34  1  0
 33 34  2  0
M  END
