MAK-UNK-d4768348-6-acrylamide
     RDKit          3D

 18 19  0  0  0  0  0  0  0  0999 V2000
    7.4740   -3.0720   18.9890 C   0  0  0  0  0  0  0  0  0  0  0  0
    7.0150   -3.0310   20.4230 C   0  0  0  0  0  0  0  0  0  0  0  0
    6.0790   -4.1770   20.6740 C   0  0  0  0  0  0  0  0  0  0  0  0
    5.1780   -4.5020   19.9010 O   0  0  0  0  0  0  0  0  0  0  0  0
    6.3310   -4.8400   21.8480 N   0  0  0  0  0  0  0  0  0  0  0  0
    5.5420   -6.0180   22.1630 C   0  0  0  0  0  0  0  0  0  0  0  0
    4.7920   -5.7510   23.4240 C   0  0  0  0  0  0  0  0  0  0  0  0
    5.4960   -5.2390   24.4830 C   0  0  0  0  0  0  0  0  0  0  0  0
    4.7440   -5.2240   26.0400 S   0  0  0  0  0  0  0  0  0  0  0  0
    4.0850   -6.4980   26.1930 O   0  0  0  0  0  0  0  0  0  0  0  0
    5.7080   -4.7220   26.9820 O   0  0  0  0  0  0  0  0  0  0  0  0
    3.5330   -4.0400   25.7670 C   0  0  0  0  0  0  0  0  0  0  0  0
    3.7960   -2.6420   25.9430 C   0  0  0  0  0  0  0  0  0  0  0  0
    2.7680   -1.5370   25.7830 C   0  0  0  0  0  0  0  0  0  0  0  0
    1.3550   -2.5950   25.3950 S   0  0  0  0  0  0  0  0  0  0  0  0
    2.0640   -4.2190   25.4000 C   0  0  0  0  0  0  0  0  0  0  0  0
    6.1230   -4.0610   24.0780 C   0  0  0  0  0  0  0  0  0  0  0  0
    6.9950   -4.1880   22.9910 C   0  0  0  0  0  0  0  0  0  0  0  0
  1  2  1  0
  2  3  1  0
  3  4  2  0
  3  5  1  0
  5  6  1  0
  6  7  1  0
  7  8  1  0
  8  9  1  0
  9 10  2  0
  9 11  2  0
  9 12  1  0
 12 13  2  0
 13 14  1  0
 14 15  1  0
 12 16  1  0
 15 16  2  0
  8 17  1  0
  5 18  1  0
 17 18  1  0
M  END
