MAK-UNK-f983951f-17-chloroacetamide
     RDKit          3D

 10 10  0  0  0  0  0  0  0  0999 V2000
    7.2010   -4.0420   21.0430 C   0  0  0  0  0  0  0  0  0  0  0  0
    5.6640   -4.1880   21.1070 C   0  0  0  0  0  0  0  0  0  0  0  0
    5.0870   -4.3890   19.9620 O   0  0  0  0  0  0  0  0  0  0  0  0
    5.0400   -4.1770   22.4940 N   0  0  0  0  0  0  0  0  0  0  0  0
    4.1800   -3.2050   23.3450 C   0  0  0  0  0  0  0  0  0  0  0  0
    4.0820   -1.9250   22.7830 C   0  0  0  0  0  0  0  0  0  0  0  0
    4.0350   -0.6480   22.3070 N   0  0  0  0  0  0  0  0  0  0  0  0
    3.0600   -3.9890   24.1640 C   0  0  0  0  0  0  0  0  0  0  0  0
    3.7390   -3.8700   25.3050 C   0  0  0  0  0  0  0  0  0  0  0  0
    4.4780   -2.7410   24.8850 C   0  0  0  0  0  0  0  0  0  0  0  0
  1  2  1  0
  2  3  2  0
  2  4  1  0
  4  5  1  0
  5  6  1  0
  6  7  3  0
  5  8  1  0
  8  9  1  0
  5 10  1  0
  9 10  1  0
M  END
