MAK-UNK-516d8086-19-acrylamide
     RDKit          3D

 24 26  0  0  0  0  0  0  0  0999 V2000
    8.0770   -3.8680   20.4960 C   0  0  0  0  0  0  0  0  0  0  0  0
    7.0690   -2.6980   20.5040 C   0  0  0  0  0  0  0  0  0  0  0  0
    5.7570   -3.1710   21.0480 C   0  0  0  0  0  0  0  0  0  0  0  0
    4.7710   -3.3580   21.7570 O   0  0  0  0  0  0  0  0  0  0  0  0
    6.1800   -2.2590   22.1890 C   0  0  0  0  0  0  0  0  0  0  0  0
    5.2000   -1.9680   23.3480 C   0  0  0  0  0  0  0  0  0  0  0  0
    5.6440   -1.1290   24.3610 N   0  0  0  0  0  0  0  0  0  0  0  0
    6.9200   -0.5330   24.3960 C   0  0  0  0  0  0  0  0  0  0  0  0
    7.3630    0.3350   25.4720 N   0  0  0  0  0  0  0  0  0  0  0  0
    7.4380   -0.2200   26.8500 C   0  0  0  0  0  0  0  0  0  0  0  0
    8.8130    0.1700   27.3770 C   0  0  0  0  0  0  0  0  0  0  0  0
    7.9050   -0.7970   23.2650 C   0  0  0  0  0  0  0  0  0  0  0  0
    9.1960   -0.2100   23.2620 C   0  0  0  0  0  0  0  0  0  0  0  0
   10.4340   -0.9930   23.7820 C   0  0  0  0  0  0  0  0  0  0  0  0
   11.7110   -0.4590   24.3040 C   0  0  0  0  0  0  0  0  0  0  0  0
   12.7250   -1.4960   24.7380 C   0  0  0  0  0  0  0  0  0  0  0  0
   12.0950   -2.7030   24.4890 C   0  0  0  0  0  0  0  0  0  0  0  0
   11.6080   -1.5560   24.2700 C   0  0  0  0  0  0  0  0  0  0  0  0
   10.6380   -2.3210   23.8820 N   0  0  0  0  0  0  0  0  0  0  0  0
   10.4060   -0.9760   23.7630 C   0  0  0  0  0  0  0  0  0  0  0  0
   10.0970    0.1660   23.4300 O   0  0  0  0  0  0  0  0  0  0  0  0
    9.7510   -2.2160   23.7810 N   0  0  0  0  0  0  0  0  0  0  0  0
   10.7570   -3.3350   23.9350 C   0  0  0  0  0  0  0  0  0  0  0  0
    7.4760   -1.6570   22.2120 C   0  0  0  0  0  0  0  0  0  0  0  0
  1  2  1  0
  2  3  1  0
  3  4  2  0
  3  5  1  0
  5  6  2  0
  6  7  1  0
  7  8  2  0
  8  9  1  0
  9 10  1  0
 10 11  1  0
  8 12  1  0
 12 13  1  0
 13 14  1  0
 14 15  2  0
 15 16  1  0
 16 17  2  0
 17 18  1  0
 14 19  1  0
 18 19  2  0
 18 20  1  0
 20 21  2  0
 20 22  1  0
 17 23  1  0
 22 23  1  0
  5 24  1  0
 12 24  2  0
M  END
