MAK-UNK-8fdbca50-3-acrylamide
     RDKit          3D

 40 43  0  0  0  0  0  0  0  0999 V2000
    8.4380   -3.6250   20.1740 C   0  0  0  0  0  0  0  0  0  0  0  0
    7.5770   -2.4770   20.4770 C   0  0  0  0  0  0  0  0  0  0  0  0
    6.3250   -2.8320   21.2670 C   0  0  0  0  0  0  0  0  0  0  0  0
    5.1080   -3.4320   21.3830 O   0  0  0  0  0  0  0  0  0  0  0  0
    7.2850   -2.0530   22.2650 N   0  0  0  0  0  0  0  0  0  0  0  0
    8.3430   -2.6750   23.1860 C   0  0  0  0  0  0  0  0  0  0  0  0
    8.5280   -1.6060   24.2260 C   0  0  0  0  0  0  0  0  0  0  0  0
    9.8940   -1.2690   23.6720 C   0  0  0  0  0  0  0  0  0  0  0  0
   10.3510   -0.2250   24.6830 C   0  0  0  0  0  0  0  0  0  0  0  0
    9.8270    0.0340   25.7520 O   0  0  0  0  0  0  0  0  0  0  0  0
   11.5340    0.4040   24.0520 N   0  0  0  0  0  0  0  0  0  0  0  0
   11.3680    1.7960   23.6840 C   0  0  0  0  0  0  0  0  0  0  0  0
   12.5770   -0.2740   23.3910 C   0  0  2  0  0  0  0  0  0  0  0  0
   13.8870    0.3690   23.4120 C   0  0  0  0  0  0  0  0  0  0  0  0
   12.2540   -0.8000   21.9980 C   0  0  2  0  0  0  0  0  0  0  0  0
   10.9200   -1.0660   21.6380 N   0  0  0  0  0  0  0  0  0  0  0  0
   10.3930   -2.3210   21.3270 C   0  0  0  0  0  0  0  0  0  0  0  0
   12.8990   -1.9880   21.6540 C   0  0  0  0  0  0  0  0  0  0  0  0
   12.9170   -2.3510   20.3350 C   0  0  0  0  0  0  0  0  0  0  0  0
   13.6260   -3.4390   20.2820 C   0  0  0  0  0  0  0  0  0  0  0  0
   14.1510   -4.3540   19.3850 C   0  0  0  0  0  0  0  0  0  0  0  0
   15.5750   -4.3870   19.3860 C   0  0  0  0  0  0  0  0  0  0  0  0
   16.6090   -5.0830   18.7340 C   0  0  0  0  0  0  0  0  0  0  0  0
   15.6570   -5.7400   18.1100 C   0  0  0  0  0  0  0  0  0  0  0  0
   14.3660   -5.7570   18.1020 C   0  0  0  0  0  0  0  0  0  0  0  0
   13.2370   -5.1170   18.6930 C   0  0  0  0  0  0  0  0  0  0  0  0
   12.4790   -4.3040   19.4430 F   0  0  0  0  0  0  0  0  0  0  0  0
   13.9510   -3.6810   21.4160 N   0  0  0  0  0  0  0  0  0  0  0  0
   14.8550   -4.9710   21.5720 S   0  0  0  0  0  0  0  0  0  0  0  0
   13.9800   -6.0270   21.0350 O   0  0  0  0  0  0  0  0  0  0  0  0
   15.9790   -4.6490   20.8110 O   0  0  0  0  0  0  0  0  0  0  0  0
   14.6450   -4.2670   23.2090 C   0  0  0  0  0  0  0  0  0  0  0  0
   14.1160   -2.8880   23.3640 C   0  0  0  0  0  0  0  0  0  0  0  0
   13.9400   -2.3990   24.7440 C   0  0  0  0  0  0  0  0  0  0  0  0
   14.3810   -3.4540   25.2320 C   0  0  0  0  0  0  0  0  0  0  0  0
   14.8300   -4.5290   25.7290 N   0  0  0  0  0  0  0  0  0  0  0  0
   14.9970   -5.0080   24.4440 C   0  0  0  0  0  0  0  0  0  0  0  0
   13.5770   -2.8710   22.4960 C   0  0  0  0  0  0  0  0  0  0  0  0
    9.7070   -0.6500   22.2850 C   0  0  0  0  0  0  0  0  0  0  0  0
    8.2380   -0.8820   21.7270 C   0  0  0  0  0  0  0  0  0  0  0  0
  1  2  1  0
  2  3  1  0
  3  4  2  0
  3  5  1  0
  5  6  1  0
  6  7  1  0
  7  8  1  0
  8  9  1  0
  9 10  2  0
  9 11  1  0
 11 12  1  0
 11 13  1  0
 13 14  1  6
 13 15  1  0
 15 16  1  1
 16 17  1  0
 15 18  1  0
 18 19  1  0
 19 20  2  0
 20 21  1  0
 21 22  2  0
 22 23  1  0
 23 24  2  0
 24 25  1  0
 21 26  1  0
 25 26  2  0
 26 27  1  0
 20 28  1  0
 28 29  1  0
 29 30  2  0
 29 31  2  0
 29 32  1  0
 32 33  2  0
 33 34  1  0
 34 35  2  0
 35 36  1  0
 32 37  1  0
 36 37  2  0
 18 38  2  0
 28 38  1  0
  8 39  1  0
  5 40  1  0
 39 40  1  0
M  END
