MAK-UNK-e4a48a85-21-vinylsulfonamide
     RDKit          3D

 23 25  0  0  0  0  0  0  0  0999 V2000
    7.6380   -2.9750   18.3860 C   0  0  0  0  0  0  0  0  0  0  0  0
    7.1820   -2.3180   19.5980 C   0  0  0  0  0  0  0  0  0  0  0  0
    6.0930   -3.2910   20.5210 S   0  0  0  0  0  0  0  0  0  0  0  0
    4.8390   -3.3050   19.8290 O   0  0  0  0  0  0  0  0  0  0  0  0
    6.6860   -4.5180   21.0020 O   0  0  0  0  0  0  0  0  0  0  0  0
    6.0860   -2.2210   21.8000 N   0  0  0  0  0  0  0  0  0  0  0  0
    6.1240   -2.8660   23.0960 C   0  0  0  0  0  0  0  0  0  0  0  0
    7.4680   -3.1920   23.4460 C   0  0  0  0  0  0  0  0  0  0  0  0
    8.4000   -2.0140   23.3070 N   0  0  0  0  0  0  0  0  0  0  0  0
    9.6610   -2.1220   23.8210 C   0  0  0  0  0  0  0  0  0  0  0  0
   10.4670   -1.0150   23.6040 C   0  0  0  0  0  0  0  0  0  0  0  0
   11.8030   -1.2110   23.1120 C   0  0  0  0  0  0  0  0  0  0  0  0
   12.1710    0.0880   23.0340 N   0  0  0  0  0  0  0  0  0  0  0  0
   11.3200    1.0870   23.3890 C   0  0  0  0  0  0  0  0  0  0  0  0
   11.7210    2.4110   23.2590 C   0  0  0  0  0  0  0  0  0  0  0  0
   10.8770    3.5250   23.7400 C   0  0  0  0  0  0  0  0  0  0  0  0
   11.3390    4.8200   23.9200 C   0  0  0  0  0  0  0  0  0  0  0  0
   10.3850    5.7000   24.3650 C   0  0  0  0  0  0  0  0  0  0  0  0
    8.8670    4.9400   24.5780 S   0  0  0  0  0  0  0  0  0  0  0  0
    9.5240    3.4340   24.0660 C   0  0  0  0  0  0  0  0  0  0  0  0
    9.8430    0.5540   23.9280 S   0  0  0  0  0  0  0  0  0  0  0  0
    8.3550   -1.5090   21.9530 C   0  0  0  0  0  0  0  0  0  0  0  0
    7.0260   -1.1080   21.6530 C   0  0  0  0  0  0  0  0  0  0  0  0
  1  2  1  0
  3  2  1  0
  3  4  2  0
  3  5  2  0
  3  6  1  0
  6  7  1  0
  7  8  1  0
  8  9  1  0
  9 10  1  0
 10 11  1  0
 11 12  2  0
 12 13  1  0
 13 14  2  0
 14 15  1  0
 15 16  1  0
 16 17  1  0
 17 18  2  0
 18 19  1  0
 16 20  2  0
 19 20  1  0
 11 21  1  0
 14 21  1  0
  9 22  1  0
  6 23  1  0
 22 23  1  0
M  END
