MAK-UNK-10799360-10-vinylsulfonamide
     RDKit          3D

 31 34  0  0  0  0  0  0  0  0999 V2000
    7.9490   -3.4280   19.6620 C   0  0  0  0  0  0  0  0  0  0  0  0
    7.0190   -2.5520   18.8980 C   0  0  0  0  0  0  0  0  0  0  0  0
    5.5600   -2.6950   19.8430 S   0  0  0  0  0  0  0  0  0  0  0  0
    5.0950   -4.0660   19.7710 O   0  0  0  0  0  0  0  0  0  0  0  0
    4.7490   -1.5770   19.4400 O   0  0  0  0  0  0  0  0  0  0  0  0
    6.1040   -2.3140   21.3820 N   0  0  0  0  0  0  0  0  0  0  0  0
    6.0260   -3.1640   22.6260 C   0  0  0  0  0  0  0  0  0  0  0  0
    7.5420   -3.2870   22.8850 C   0  0  1  0  0  0  0  0  0  0  0  0
    7.8720   -2.8350   21.4830 C   0  0  0  0  0  0  0  0  0  0  0  0
    7.2740   -1.3900   21.5490 C   0  0  2  0  0  0  0  0  0  0  0  0
    8.5630   -1.4100   22.3670 C   0  0  0  0  0  0  0  0  0  0  0  0
    8.1220   -2.1390   23.5740 N   0  0  0  0  0  0  0  0  0  0  0  0
    9.2670   -2.3440   24.4270 C   0  0  0  0  0  0  0  0  0  0  0  0
   10.4080   -1.4650   24.0080 C   0  0  0  0  0  0  0  0  0  0  0  0
   11.2940   -1.8660   23.0100 C   0  0  0  0  0  0  0  0  0  0  0  0
   12.3320   -1.0480   22.6210 C   0  0  0  0  0  0  0  0  0  0  0  0
   13.3530   -1.6200   21.3950 Cl  0  0  0  0  0  0  0  0  0  0  0  0
   12.5130    0.2010   23.2210 C   0  0  0  0  0  0  0  0  0  0  0  0
   11.6200    0.6070   24.2220 C   0  0  0  0  0  0  0  0  0  0  0  0
   10.5660   -0.2250   24.6200 C   0  0  0  0  0  0  0  0  0  0  0  0
    9.6680    0.1740   25.6250 C   0  0  0  0  0  0  0  0  0  0  0  0
    9.0870    1.5140   25.3640 N   0  0  0  0  0  0  0  0  0  0  0  0
    7.8950    2.0670   26.4090 S   0  0  0  0  0  0  0  0  0  0  0  0
    6.8610    1.0600   26.4680 O   0  0  0  0  0  0  0  0  0  0  0  0
    8.5300    2.5550   27.6130 O   0  0  0  0  0  0  0  0  0  0  0  0
    7.3230    3.3740   25.5110 N   0  0  0  0  0  0  0  0  0  0  0  0
    8.2080    4.5730   25.4360 C   0  0  0  0  0  0  0  0  0  0  0  0
    7.5230    5.7130   26.1940 C   0  0  0  0  0  0  0  0  0  0  0  0
    6.2330    6.0590   25.6710 O   0  0  0  0  0  0  0  0  0  0  0  0
    5.5350    4.9210   25.1460 C   0  0  0  0  0  0  0  0  0  0  0  0
    5.8850    3.7120   25.7760 C   0  0  0  0  0  0  0  0  0  0  0  0
  1  2  1  0
  3  2  1  0
  3  4  2  0
  3  5  2  0
  3  6  1  0
  6  7  1  0
  8  7  1  6
  8  9  1  0
  6 10  1  0
  9 10  1  0
 10 11  1  1
  8 12  1  0
 11 12  1  0
 12 13  1  0
 13 14  1  0
 14 15  2  0
 15 16  1  0
 16 17  1  0
 16 18  2  0
 18 19  1  0
 14 20  1  0
 19 20  2  0
 20 21  1  0
 21 22  1  0
 23 22  1  0
 23 24  2  0
 23 25  2  0
 23 26  1  0
 26 27  1  0
 27 28  1  0
 28 29  1  0
 29 30  1  0
 26 31  1  0
 30 31  1  0
M  END
