MAK-UNK-8fdbca50-39-chloroacetamide
     RDKit          3D

 39 42  0  0  0  0  0  0  0  0999 V2000
    6.9200   -3.4720   19.6550 C   0  0  0  0  0  0  0  0  0  0  0  0
    6.0970   -4.4640   20.4560 C   0  0  0  0  0  0  0  0  0  0  0  0
    5.2980   -5.2310   19.9930 O   0  0  0  0  0  0  0  0  0  0  0  0
    6.2760   -4.5040   21.8330 N   0  0  0  0  0  0  0  0  0  0  0  0
    5.1950   -3.9250   22.5940 C   0  0  0  0  0  0  0  0  0  0  0  0
    5.5350   -3.9280   23.9410 C   0  0  0  0  0  0  0  0  0  0  0  0
    6.9060   -3.7970   24.1670 C   0  0  0  0  0  0  0  0  0  0  0  0
    7.2670   -3.3530   25.4980 C   0  0  0  0  0  0  0  0  0  0  0  0
    6.7910   -2.0640   26.0130 C   0  0  0  0  0  0  0  0  0  0  0  0
    6.0290   -1.2000   25.3020 N   0  0  0  0  0  0  0  0  0  0  0  0
    6.6390    0.0440   25.2220 C   0  0  0  0  0  0  0  0  0  0  0  0
    7.9870    0.1370   24.8180 C   0  0  0  0  0  0  0  0  0  0  0  0
    8.5930    1.4050   24.3110 C   0  0  0  0  0  0  0  0  0  0  0  0
   10.0280    1.1650   23.9790 C   0  0  0  0  0  0  0  0  0  0  0  0
   10.7800    2.4020   23.4500 C   0  0  0  0  0  0  0  0  0  0  0  0
    9.9690    3.6970   23.5060 C   0  0  0  0  0  0  0  0  0  0  0  0
   10.5570    4.8770   23.0570 C   0  0  0  0  0  0  0  0  0  0  0  0
   11.9750    4.8200   22.5340 C   0  0  0  0  0  0  0  0  0  0  0  0
   12.6790    3.6090   22.5010 C   0  0  0  0  0  0  0  0  0  0  0  0
   12.0880    2.4120   22.9500 C   0  0  0  0  0  0  0  0  0  0  0  0
   12.7930    1.2820   22.8940 F   0  0  0  0  0  0  0  0  0  0  0  0
   10.3490   -0.1800   24.2470 N   0  0  0  0  0  0  0  0  0  0  0  0
   11.8490   -1.0490   24.0780 S   0  0  0  0  0  0  0  0  0  0  0  0
   12.9390   -0.1230   24.3540 O   0  0  0  0  0  0  0  0  0  0  0  0
   11.6900   -2.2650   24.8730 O   0  0  0  0  0  0  0  0  0  0  0  0
   12.0410   -1.5600   22.4760 C   0  0  0  0  0  0  0  0  0  0  0  0
   13.0320   -2.1950   23.1640 C   0  0  0  0  0  0  0  0  0  0  0  0
   12.9580   -1.8220   24.5010 C   0  0  0  0  0  0  0  0  0  0  0  0
   11.7970   -0.8120   24.8150 C   0  0  0  0  0  0  0  0  0  0  0  0
   10.8820   -0.2910   23.8850 N   0  0  0  0  0  0  0  0  0  0  0  0
   11.0140   -0.7100   22.5780 C   0  0  0  0  0  0  0  0  0  0  0  0
    9.0570   -0.8260   24.7760 C   0  0  0  0  0  0  0  0  0  0  0  0
    8.0800   -4.2290   26.2420 N   0  0  0  0  0  0  0  0  0  0  0  0
    9.3760   -4.4170   25.8670 C   0  0  0  0  0  0  0  0  0  0  0  0
    7.6450   -4.9650   27.2820 C   0  0  0  0  0  0  0  0  0  0  0  0
    7.2690   -4.1450   28.3430 C   0  0  0  0  0  0  0  0  0  0  0  0
    8.7730   -5.8560   27.7760 C   0  0  0  0  0  0  0  0  0  0  0  0
    7.6400   -5.0860   23.7580 C   0  0  0  0  0  0  0  0  0  0  0  0
    6.9890   -5.5930   22.4870 C   0  0  0  0  0  0  0  0  0  0  0  0
  1  2  1  0
  2  3  2  0
  2  4  1  0
  4  5  1  0
  5  6  1  0
  6  7  1  0
  7  8  1  0
  8  9  2  3
  9 10  1  0
 10 11  1  0
 11 12  1  0
 12 13  1  0
 13 14  2  0
 14 15  1  0
 15 16  2  0
 16 17  1  0
 17 18  2  0
 18 19  1  0
 15 20  1  0
 19 20  2  0
 20 21  1  0
 14 22  1  0
 22 23  1  0
 23 24  2  0
 23 25  2  0
 23 26  1  0
 26 27  2  0
 27 28  1  0
 28 29  2  0
 29 30  1  0
 26 31  1  0
 30 31  2  0
 12 32  2  0
 22 32  1  0
  8 33  1  0
 33 34  1  0
 33 35  1  0
 35 36  1  0
 35 37  1  0
  7 38  1  0
  4 39  1  0
 38 39  1  0
M  END
