MAK-UNK-a7992eb3-21
     RDKit          3D

 29 30  0  0  0  0  0  0  0  0999 V2000
    1.2490   -0.8140   28.3730 C   0  0  0  0  0  0  0  0  0  0  0  0
    2.7430   -0.7940   28.1430 C   0  0  0  0  0  0  0  0  0  0  0  0
    3.5130   -0.1500   28.8610 O   0  0  0  0  0  0  0  0  0  0  0  0
    3.1870   -1.6080   26.9980 N   0  0  0  0  0  0  0  0  0  0  0  0
    2.8460   -1.0520   25.7010 C   0  0  2  0  0  0  0  0  0  0  0  0
    1.5750   -1.3030   25.2380 C   0  0  0  0  0  0  0  0  0  0  0  0
    1.1690   -2.4420   25.0300 O   0  0  0  0  0  0  0  0  0  0  0  0
    0.7790   -0.0860   25.0260 N   0  0  0  0  0  0  0  0  0  0  0  0
   -0.4750   -0.0600   24.4460 C   0  0  0  0  0  0  0  0  0  0  0  0
   -1.5140    0.4600   25.2190 C   0  0  0  0  0  0  0  0  0  0  0  0
   -2.8500    0.1690   24.9200 C   0  0  0  0  0  0  0  0  0  0  0  0
   -4.6710   -0.2230   24.5050 Br  0  0  0  0  0  0  0  0  0  0  0  0
    3.8830   -1.6150   24.7220 C   0  0  1  0  0  0  0  0  0  0  0  0
    4.1640   -0.7990   23.4250 C   0  0  0  0  0  0  0  0  0  0  0  0
    4.8600   -1.8710   25.4280 O   0  0  0  0  0  0  0  0  0  0  0  0
    5.9410   -2.5660   24.7950 C   0  0  0  0  0  0  0  0  0  0  0  0
    5.8600   -4.0440   24.3600 C   0  0  2  0  0  0  0  0  0  0  0  0
    6.6580   -4.2980   23.1230 C   0  0  0  0  0  0  0  0  0  0  0  0
    5.8670   -4.6040   22.0590 N   0  0  0  0  0  0  0  0  0  0  0  0
    6.2940   -4.5310   20.7400 C   0  0  0  0  0  0  0  0  0  0  0  0
    6.4500   -3.1230   20.1880 C   0  0  0  0  0  0  0  0  0  0  0  0
    7.4300   -2.2950   20.7070 C   0  0  0  0  0  0  0  0  0  0  0  0
    7.6240   -0.9970   20.2580 C   0  0  0  0  0  0  0  0  0  0  0  0
    6.8100   -0.4980   19.2460 C   0  0  0  0  0  0  0  0  0  0  0  0
    5.8140   -1.3090   18.7060 C   0  0  0  0  0  0  0  0  0  0  0  0
    5.6320   -2.6180   19.1740 C   0  0  0  0  0  0  0  0  0  0  0  0
    5.3100   -5.8170   22.3660 C   0  0  0  0  0  0  0  0  0  0  0  0
    4.4660   -5.7000   23.4970 C   0  0  0  0  0  0  0  0  0  0  0  0
    4.5190   -4.4170   24.1500 O   0  0  0  0  0  0  0  0  0  0  0  0
  1  2  1  0
  2  3  2  0
  2  4  1  0
  5  4  1  1
  5  6  1  0
  6  7  2  0
  6  8  1  0
  8  9  1  0
  9 10  1  0
 10 11  3  0
 11 12  1  0
  5 13  1  0
 13 14  1  6
 13 15  1  0
 15 16  1  0
 17 16  1  6
 17 18  1  0
 18 19  1  0
 19 20  1  0
 20 21  1  0
 21 22  2  0
 22 23  1  0
 23 24  2  0
 24 25  1  0
 21 26  1  0
 25 26  2  0
 19 27  1  0
 27 28  1  0
 17 29  1  0
 28 29  1  0
M  END
