MAK-UNK-516d8086-2-nitrile
     RDKit          3D

 20 22  0  0  0  0  0  0  0  0999 V2000
    7.5060   -3.8180   20.1670 C   0  0  0  0  0  0  0  0  0  0  0  0
    6.2600   -3.9380   19.7700 N   0  0  0  0  0  0  0  0  0  0  0  0
    7.9620   -2.8770   21.3180 C   0  0  0  0  0  0  0  0  0  0  0  0
    7.0380   -2.2380   22.3640 C   0  0  0  0  0  0  0  0  0  0  0  0
    7.5830   -1.3340   23.3960 N   0  0  0  0  0  0  0  0  0  0  0  0
    8.9470   -0.9770   23.4950 C   0  0  0  0  0  0  0  0  0  0  0  0
    9.4760   -0.0990   24.4590 N   0  0  0  0  0  0  0  0  0  0  0  0
    9.9010   -1.5840   22.4780 C   0  0  0  0  0  0  0  0  0  0  0  0
   11.4120   -1.2150   22.4480 C   0  0  0  0  0  0  0  0  0  0  0  0
   12.4000   -1.6750   23.5380 C   0  0  0  0  0  0  0  0  0  0  0  0
   12.9870   -2.4080   24.7200 C   0  0  0  0  0  0  0  0  0  0  0  0
   12.3580   -3.4730   25.6190 C   0  0  0  0  0  0  0  0  0  0  0  0
   11.1320   -4.1720   25.7730 C   0  0  0  0  0  0  0  0  0  0  0  0
   10.5680   -3.3970   24.5310 C   0  0  0  0  0  0  0  0  0  0  0  0
   11.3420   -2.4830   23.8920 C   0  0  0  0  0  0  0  0  0  0  0  0
    9.2900   -3.5960   24.0270 C   0  0  0  0  0  0  0  0  0  0  0  0
    8.0260   -4.1290   23.6340 O   0  0  0  0  0  0  0  0  0  0  0  0
    9.5230   -4.7880   24.5080 N   0  0  0  0  0  0  0  0  0  0  0  0
    9.8630   -4.7580   25.7710 C   0  0  0  0  0  0  0  0  0  0  0  0
    9.3870   -2.5510   21.4150 C   0  0  0  0  0  0  0  0  0  0  0  0
  1  2  2  3
  1  3  1  0
  3  4  2  0
  4  5  1  0
  5  6  2  0
  6  7  1  0
  6  8  1  0
  8  9  1  0
  9 10  1  0
 10 11  2  0
 11 12  1  0
 12 13  2  0
 13 14  1  0
 10 15  1  0
 14 15  2  0
 14 16  1  0
 16 17  2  0
 16 18  1  0
 13 19  1  0
 18 19  1  0
  3 20  1  0
  8 20  2  0
M  END
