MAK-UNK-8fdbca50-7-chloroacetamide
     RDKit          3D

 39 42  0  0  0  0  0  0  0  0999 V2000
    6.8810   -5.8540   20.0310 C   0  0  0  0  0  0  0  0  0  0  0  0
    6.1880   -4.5300   20.3330 C   0  0  0  0  0  0  0  0  0  0  0  0
    5.6300   -3.7890   19.5430 O   0  0  0  0  0  0  0  0  0  0  0  0
    6.1190   -4.1110   21.6120 N   0  0  0  0  0  0  0  0  0  0  0  0
    6.4780   -4.9070   22.6720 C   0  0  0  0  0  0  0  0  0  0  0  0
    7.9910   -4.9150   22.9570 C   0  0  0  0  0  0  0  0  0  0  0  0
    8.5130   -3.4770   22.8740 C   0  0  0  0  0  0  0  0  0  0  0  0
    9.9990   -3.7120   22.6820 C   0  0  0  0  0  0  0  0  0  0  0  0
   10.4890   -4.6230   23.3370 O   0  0  0  0  0  0  0  0  0  0  0  0
   10.6910   -2.8300   21.8010 N   0  0  0  0  0  0  0  0  0  0  0  0
    9.8460   -1.6230   21.6450 C   0  0  0  0  0  0  0  0  0  0  0  0
   11.9560   -2.3620   22.1960 C   0  0  1  0  0  0  0  0  0  0  0  0
   12.7040   -1.1470   22.0740 C   0  0  0  0  0  0  0  0  0  0  0  0
   11.5370   -1.3180   23.0820 C   0  0  0  0  0  0  0  0  0  0  0  0
   12.0110    0.0050   23.2550 C   0  0  0  0  0  0  0  0  0  0  0  0
   11.6170    1.0600   24.0910 N   0  0  0  0  0  0  0  0  0  0  0  0
   10.5100    0.2660   24.7640 C   0  0  0  0  0  0  0  0  0  0  0  0
    9.9640   -1.0530   24.6800 C   0  0  0  0  0  0  0  0  0  0  0  0
    8.6960   -1.7710   25.6020 S   0  0  0  0  0  0  0  0  0  0  0  0
    8.6840   -1.1490   26.8870 O   0  0  0  0  0  0  0  0  0  0  0  0
    8.9520   -3.1820   25.5140 O   0  0  0  0  0  0  0  0  0  0  0  0
    7.1620   -1.6410   24.9500 N   0  0  0  0  0  0  0  0  0  0  0  0
    6.1580   -2.6740   25.2280 C   0  0  0  0  0  0  0  0  0  0  0  0
    5.0580   -2.2930   24.5730 C   0  0  0  0  0  0  0  0  0  0  0  0
    3.8780   -3.0110   24.5780 C   0  0  0  0  0  0  0  0  0  0  0  0
    4.1320   -4.3080   24.8260 N   0  0  0  0  0  0  0  0  0  0  0  0
    3.6220   -5.1300   23.7080 C   0  0  0  0  0  0  0  0  0  0  0  0
    5.2720   -0.9900   23.8290 C   0  0  0  0  0  0  0  0  0  0  0  0
    6.5930   -0.5830   24.0660 C   0  0  0  0  0  0  0  0  0  0  0  0
    7.1580    0.5780   23.5360 C   0  0  0  0  0  0  0  0  0  0  0  0
    8.0280    1.2990   24.3130 C   0  0  0  0  0  0  0  0  0  0  0  0
    8.6340    2.4750   23.8540 C   0  0  0  0  0  0  0  0  0  0  0  0
    8.3950    3.0830   22.4450 C   0  0  0  0  0  0  0  0  0  0  0  0
    7.3980    2.1530   21.7040 C   0  0  0  0  0  0  0  0  0  0  0  0
    6.8400    1.0010   22.2320 C   0  0  0  0  0  0  0  0  0  0  0  0
    5.9890    0.3020   21.4650 F   0  0  0  0  0  0  0  0  0  0  0  0
   10.5220   -1.8200   23.7970 C   0  0  0  0  0  0  0  0  0  0  0  0
    7.8860   -2.6060   21.7700 C   0  0  0  0  0  0  0  0  0  0  0  0
    6.3910   -2.7260   21.8280 C   0  0  0  0  0  0  0  0  0  0  0  0
  1  2  1  0
  2  3  2  0
  2  4  1  0
  4  5  1  0
  5  6  1  0
  6  7  1  0
  7  8  1  0
  8  9  2  0
  8 10  1  0
 10 11  1  0
 10 12  1  0
 12 13  1  6
 12 14  1  0
 14 15  2  0
 15 16  1  0
 16 17  2  0
 17 18  1  0
 19 18  1  0
 19 20  2  0
 19 21  2  0
 19 22  1  0
 22 23  1  0
 23 24  2  0
 24 25  1  0
 25 26  1  0
 26 27  1  0
 24 28  1  0
 22 29  1  0
 28 29  2  0
 29 30  1  0
 30 31  2  0
 31 32  1  0
 32 33  2  0
 33 34  1  0
 30 35  1  0
 34 35  2  0
 35 36  1  0
 14 37  1  0
 18 37  2  0
  7 38  1  0
  4 39  1  0
 38 39  1  0
M  END
