MAK-UNK-194150d3-3
     RDKit          3D

 18 18  0  0  0  0  0  0  0  0999 V2000
    0.4670    3.4250   19.9590 O   0  0  0  0  0  0  0  0  0  0  0  0
    1.3430    3.6700   19.1230 C   0  0  0  0  0  0  0  0  0  0  0  0
    2.7120    3.5250   19.2800 N   0  0  0  0  0  0  0  0  0  0  0  0
    3.3970    2.2400   19.5610 C   0  0  0  0  0  0  0  0  0  0  0  0
    4.6050    1.9460   18.6660 C   0  0  0  0  0  0  0  0  0  0  0  0
    4.9540    0.1850   18.6240 S   0  0  0  0  0  0  0  0  0  0  0  0
    5.5930    0.1110   20.3050 C   0  0  0  0  0  0  0  0  0  0  0  0
    6.9700    0.2140   20.2990 C   0  0  2  0  0  0  0  0  0  0  0  0
    7.4320   -0.2550   19.0380 O   0  0  0  0  0  0  0  0  0  0  0  0
    7.6420   -0.4510   21.4050 N   0  0  0  0  0  0  0  0  0  0  0  0
    8.9530    0.0970   21.7730 C   0  0  0  0  0  0  0  0  0  0  0  0
    9.3070   -0.1550   23.0770 C   0  0  0  0  0  0  0  0  0  0  0  0
   10.6010   -0.6020   23.3110 C   0  0  0  0  0  0  0  0  0  0  0  0
   11.3650   -1.3760   22.2530 C   0  0  0  0  0  0  0  0  0  0  0  0
   12.6560   -1.7980   22.5630 C   0  0  0  0  0  0  0  0  0  0  0  0
   13.2090   -1.5100   23.8080 C   0  0  0  0  0  0  0  0  0  0  0  0
   12.5120   -0.7960   24.7760 C   0  0  0  0  0  0  0  0  0  0  0  0
   11.2140   -0.3470   24.5280 C   0  0  0  0  0  0  0  0  0  0  0  0
  1  2  2  0
  2  3  1  0
  3  4  1  0
  4  5  1  0
  5  6  1  0
  6  7  1  0
  7  8  1  0
  8  9  1  6
  8 10  1  0
 10 11  1  0
 11 12  1  0
 12 13  1  0
 13 14  2  0
 14 15  1  0
 15 16  2  0
 16 17  1  0
 13 18  1  0
 17 18  2  0
M  END
