MAK-UNK-bdda130a-7
     RDKit          3D

 23 26  0  0  0  0  0  0  0  0999 V2000
    3.5270   -4.7900   27.2080 C   0  0  0  0  0  0  0  0  0  0  0  0
    4.7590   -5.2020   26.0860 S   0  0  0  0  0  0  0  0  0  0  0  0
    5.3070   -6.3380   27.2380 C   0  0  0  0  0  0  0  0  0  0  0  0
    3.5590   -3.9890   25.8390 C   0  0  0  0  0  0  0  0  0  0  0  0
    2.2050   -4.1960   25.4620 C   0  0  0  0  0  0  0  0  0  0  0  0
    1.2810   -3.1210   25.3010 C   0  0  0  0  0  0  0  0  0  0  0  0
    2.4090   -1.8390   25.6930 S   0  0  0  0  0  0  0  0  0  0  0  0
    3.8150   -2.6950   25.9990 C   0  0  0  0  0  0  0  0  0  0  0  0
    5.4630   -4.9440   24.5840 N   0  0  0  0  0  0  0  0  0  0  0  0
    6.1590   -3.7110   24.2680 C   0  0  0  0  0  0  0  0  0  0  0  0
    6.2170   -3.4430   22.7730 C   0  0  0  0  0  0  0  0  0  0  0  0
    5.3360   -4.2780   21.9380 N   0  0  0  0  0  0  0  0  0  0  0  0
    4.8370   -5.4910   22.3460 C   0  0  0  0  0  0  0  0  0  0  0  0
    5.5890   -5.9280   23.4730 C   0  0  1  0  0  0  0  0  0  0  0  0
    6.8840   -6.0790   22.8340 N   0  0  0  0  0  0  0  0  0  0  0  0
    7.5300   -4.9900   22.2340 C   0  0  0  0  0  0  0  0  0  0  0  0
    8.8250   -4.8030   22.6680 C   0  0  0  0  0  0  0  0  0  0  0  0
    9.6720   -3.8300   22.2880 N   0  0  0  0  0  0  0  0  0  0  0  0
    9.2060   -2.9640   21.3830 C   0  0  0  0  0  0  0  0  0  0  0  0
    7.9210   -3.0150   20.8330 C   0  0  0  0  0  0  0  0  0  0  0  0
    7.0430   -4.0400   21.2560 C   0  0  0  0  0  0  0  0  0  0  0  0
    5.5790   -4.0400   20.6270 C   0  0  0  0  0  0  0  0  0  0  0  0
    6.1320   -3.8170   19.5930 O   0  0  0  0  0  0  0  0  0  0  0  0
  1  2  2  0
  2  3  2  0
  2  4  1  0
  4  5  1  0
  5  6  2  0
  6  7  1  0
  4  8  2  0
  7  8  1  0
  2  9  1  0
  9 10  1  0
 10 11  1  0
 11 12  1  0
 12 13  1  0
  9 14  1  0
 13 14  1  0
 14 15  1  6
 15 16  1  0
 16 17  1  0
 17 18  2  0
 18 19  1  0
 19 20  2  0
 16 21  2  0
 20 21  1  0
 12 22  1  0
 21 22  1  0
 22 23  2  0
M  END
