MAK-UNK-e4a48a85-22-nitrile
     RDKit          3D

 22 24  0  0  0  0  0  0  0  0999 V2000
    6.7740   -3.3090   19.4320 C   0  0  0  0  0  0  0  0  0  0  0  0
    5.9940   -3.0080   18.4760 N   0  0  0  0  0  0  0  0  0  0  0  0
    6.6590   -2.7500   20.6700 N   0  0  0  0  0  0  0  0  0  0  0  0
    7.1790   -1.3970   20.9210 C   0  0  0  0  0  0  0  0  0  0  0  0
    8.3470   -1.6840   21.9080 C   0  0  0  0  0  0  0  0  0  0  0  0
    7.7180   -2.2650   23.1330 N   0  0  0  0  0  0  0  0  0  0  0  0
    8.6120   -2.1920   24.2700 C   0  0  0  0  0  0  0  0  0  0  0  0
    9.6720   -1.1540   23.9860 C   0  0  0  0  0  0  0  0  0  0  0  0
   10.8020   -1.7200   23.4100 N   0  0  0  0  0  0  0  0  0  0  0  0
   11.7010   -0.9050   23.1480 C   0  0  0  0  0  0  0  0  0  0  0  0
   11.4730    0.5920   23.4800 C   0  0  0  0  0  0  0  0  0  0  0  0
   12.7590    1.0960   23.0250 C   0  0  0  0  0  0  0  0  0  0  0  0
   13.0970   -0.3640   23.2770 C   0  0  0  0  0  0  0  0  0  0  0  0
   13.4490   -1.3950   22.2540 C   0  0  0  0  0  0  0  0  0  0  0  0
   13.6240   -2.6730   23.0230 C   0  0  0  0  0  0  0  0  0  0  0  0
   13.3980   -2.6280   24.7160 S   0  0  0  0  0  0  0  0  0  0  0  0
   13.0280   -0.9250   24.7120 C   0  0  0  0  0  0  0  0  0  0  0  0
   10.3600    1.0810   24.0320 C   0  0  0  0  0  0  0  0  0  0  0  0
   10.1550    2.3730   24.3160 N   0  0  0  0  0  0  0  0  0  0  0  0
    9.4080    0.1730   24.3040 N   0  0  0  0  0  0  0  0  0  0  0  0
    7.2960   -3.5340   22.9430 C   0  0  0  0  0  0  0  0  0  0  0  0
    6.1860   -3.4890   21.8890 C   0  0  0  0  0  0  0  0  0  0  0  0
  1  2  2  3
  1  3  1  0
  3  4  1  0
  4  5  1  0
  5  6  1  0
  6  7  1  0
  7  8  1  0
  8  9  2  0
  9 10  1  0
 10 11  2  0
 11 12  1  0
 12 13  1  0
 13 14  1  0
 14 15  2  0
 15 16  1  0
 13 17  2  0
 16 17  1  0
 11 18  1  0
 18 19  1  0
  8 20  1  0
 18 20  2  0
  6 21  1  0
  3 22  1  0
 21 22  1  0
M  END
