MAK-UNK-27459e11-1
     RDKit          3D

 17 17  0  0  0  0  0  0  0  0999 V2000
    3.4260   -5.1230   25.6830 N   0  0  0  0  0  0  0  0  0  0  0  0
    4.1740   -4.0730   25.6760 C   0  0  0  0  0  0  0  0  0  0  0  0
    3.8090   -2.9750   24.9760 N   0  0  0  0  0  0  0  0  0  0  0  0
    5.5120   -3.9180   26.4240 C   0  0  0  0  0  0  0  0  0  0  0  0
    6.4970   -5.0950   26.4080 C   0  0  0  0  0  0  0  0  0  0  0  0
    8.1930   -4.5520   26.2280 S   0  0  0  0  0  0  0  0  0  0  0  0
    8.4960   -3.6550   27.2960 O   0  0  0  0  0  0  0  0  0  0  0  0
    9.0120   -5.6830   25.9100 O   0  0  0  0  0  0  0  0  0  0  0  0
    8.1220   -3.6540   24.8100 N   0  0  0  0  0  0  0  0  0  0  0  0
    9.2570   -2.9940   24.4200 C   0  0  0  0  0  0  0  0  0  0  0  0
    9.1110   -1.9490   23.3300 C   0  0  0  0  0  0  0  0  0  0  0  0
   10.5030   -1.3840   23.1380 C   0  0  0  0  0  0  0  0  0  0  0  0
   10.7080   -0.1310   23.9600 C   0  0  0  0  0  0  0  0  0  0  0  0
   12.0450    0.5540   23.8550 C   0  0  0  0  0  0  0  0  0  0  0  0
   13.0790    0.0260   23.0160 C   0  0  0  0  0  0  0  0  0  0  0  0
   12.8130   -1.1250   22.3070 C   0  0  0  0  0  0  0  0  0  0  0  0
   11.5500   -1.8430   22.3450 C   0  0  0  0  0  0  0  0  0  0  0  0
  1  2  2  3
  2  3  1  0
  2  4  1  0
  4  5  1  0
  5  6  1  0
  6  7  2  0
  6  8  2  0
  6  9  1  0
  9 10  1  0
 10 11  1  0
 11 12  1  0
 12 13  2  0
 13 14  1  0
 14 15  2  0
 15 16  1  0
 12 17  1  0
 16 17  2  0
M  END
