MAK-UNK-9a6be56d-22
     RDKit          3D

 38 42  0  0  0  0  0  0  0  0999 V2000
    0.9600   -2.7050   27.7670 C   0  0  0  0  0  0  0  0  0  0  0  0
    1.7820   -2.1440   26.8130 N   0  0  0  0  0  0  0  0  0  0  0  0
    2.1180   -0.8170   26.8190 C   0  0  0  0  0  0  0  0  0  0  0  0
    3.4670   -0.7080   27.1500 C   0  0  0  0  0  0  0  0  0  0  0  0
    4.5030   -0.5950   26.1910 C   0  0  0  0  0  0  0  0  0  0  0  0
    5.7010   -0.5100   26.7930 C   0  0  0  0  0  0  0  0  0  0  0  0
    6.8780   -0.3950   26.0470 C   0  0  0  0  0  0  0  0  0  0  0  0
    8.0590   -0.9440   26.5260 C   0  0  0  0  0  0  0  0  0  0  0  0
    9.3750   -0.8560   25.7640 C   0  0  0  0  0  0  0  0  0  0  0  0
    9.4300   -0.2170   24.5530 C   0  0  0  0  0  0  0  0  0  0  0  0
   10.6410   -0.1600   23.8710 N   0  0  0  0  0  0  0  0  0  0  0  0
   11.4540   -1.2640   23.7420 C   0  0  0  0  0  0  0  0  0  0  0  0
   12.2690   -1.2900   22.6210 C   0  0  0  0  0  0  0  0  0  0  0  0
   13.1600   -0.2600   22.7670 C   0  0  0  0  0  0  0  0  0  0  0  0
   12.5240    0.9680   22.9800 C   0  0  0  0  0  0  0  0  0  0  0  0
   13.1080    2.1940   22.6560 C   0  0  0  0  0  0  0  0  0  0  0  0
   12.4900    3.4430   22.8610 C   0  0  0  0  0  0  0  0  0  0  0  0
   11.0850    3.3880   23.4960 C   0  0  0  0  0  0  0  0  0  0  0  0
   10.2810    4.8720   23.7900 S   0  0  0  0  0  0  0  0  0  0  0  0
   11.3780    6.0370   23.2470 N   0  0  0  0  0  0  0  0  0  0  0  0
   10.1180    5.0240   25.2200 O   0  0  0  0  0  0  0  0  0  0  0  0
    9.1290    4.9800   22.9300 O   0  0  0  0  0  0  0  0  0  0  0  0
   10.5460    2.1440   23.8010 C   0  0  0  0  0  0  0  0  0  0  0  0
   11.2510    0.9620   23.5450 C   0  0  0  0  0  0  0  0  0  0  0  0
    8.1020    0.3820   24.0530 C   0  0  0  0  0  0  0  0  0  0  0  0
    6.9220    0.2670   24.8050 C   0  0  0  0  0  0  0  0  0  0  0  0
    5.7950    0.8140   24.3100 F   0  0  0  0  0  0  0  0  0  0  0  0
    5.5250   -0.5610   28.2270 N   0  0  0  0  0  0  0  0  0  0  0  0
    6.6690   -0.5010   29.4990 S   0  0  0  0  0  0  0  0  0  0  0  0
    5.8920   -0.4890   30.7250 O   0  0  0  0  0  0  0  0  0  0  0  0
    7.6220   -1.5600   29.2380 O   0  0  0  0  0  0  0  0  0  0  0  0
    7.4930    1.0450   29.3370 C   0  0  0  0  0  0  0  0  0  0  0  0
    7.8330    1.6680   28.0030 C   0  0  0  0  0  0  0  0  0  0  0  0
    8.4840    2.8850   27.9550 C   0  0  0  0  0  0  0  0  0  0  0  0
    8.8110    3.5100   29.1530 C   0  0  0  0  0  0  0  0  0  0  0  0
    8.5210    2.9820   30.3820 N   0  0  0  0  0  0  0  0  0  0  0  0
    7.8760    1.7740   30.4540 C   0  0  0  0  0  0  0  0  0  0  0  0
    4.1110   -0.6850   28.4190 C   0  0  0  0  0  0  0  0  0  0  0  0
  1  2  1  0
  2  3  1  0
  3  4  1  0
  4  5  1  0
  5  6  2  0
  6  7  1  0
  7  8  2  0
  8  9  1  0
  9 10  2  0
 10 11  1  0
 11 12  1  0
 12 13  1  0
 13 14  1  0
 14 15  1  0
 15 16  2  0
 16 17  1  0
 17 18  2  0
 18 19  1  0
 19 20  1  0
 19 21  2  0
 19 22  2  0
 18 23  1  0
 11 24  1  0
 15 24  1  0
 23 24  2  0
 10 25  1  0
  7 26  1  0
 25 26  2  0
 26 27  1  0
  6 28  1  0
 28 29  1  0
 29 30  2  0
 29 31  2  0
 29 32  1  0
 32 33  2  0
 33 34  1  0
 34 35  2  0
 35 36  1  0
 32 37  1  0
 36 37  2  0
  4 38  2  0
 28 38  1  0
M  END
