MAK-UNK-c7aa8293-7
     RDKit          3D

 21 23  0  0  0  0  0  0  0  0999 V2000
   13.4040   -1.6340   25.2730 N   0  0  0  0  0  0  0  0  0  0  0  0
   12.5570   -1.7620   24.5070 C   0  0  0  0  0  0  0  0  0  0  0  0
   11.8020   -2.4140   23.5410 C   0  0  1  0  0  0  0  0  0  0  0  0
   10.6620   -3.0620   23.8290 O   0  0  0  0  0  0  0  0  0  0  0  0
    9.2930   -2.7370   23.2620 C   0  0  1  0  0  0  0  0  0  0  0  0
    8.1740   -3.0980   24.1730 C   0  0  1  0  0  0  0  0  0  0  0  0
    7.2770   -1.9630   24.5620 C   0  0  0  0  0  0  0  0  0  0  0  0
    5.8990   -2.0350   24.7830 C   0  0  0  0  0  0  0  0  0  0  0  0
    5.1730   -3.0750   23.9270 C   0  0  0  0  0  0  0  0  0  0  0  0
    6.0820   -3.7010   22.8890 C   0  0  2  0  0  0  0  0  0  0  0  0
    5.3890   -4.8070   22.2300 N   0  0  0  0  0  0  0  0  0  0  0  0
    7.3180   -4.2000   23.4980 C   0  0  0  0  0  0  0  0  0  0  0  0
    9.4530   -1.2860   22.9880 C   0  0  0  0  0  0  0  0  0  0  0  0
   10.6890   -1.7100   23.1170 C   0  0  0  0  0  0  0  0  0  0  0  0
   11.6710   -1.6190   22.2760 C   0  0  0  0  0  0  0  0  0  0  0  0
   12.9780   -1.9770   22.1380 C   0  0  0  0  0  0  0  0  0  0  0  0
   13.4880   -2.6660   23.2420 C   0  0  0  0  0  0  0  0  0  0  0  0
   12.6540   -2.9020   24.3520 C   0  0  0  0  0  0  0  0  0  0  0  0
   13.1720   -3.5580   25.4540 O   0  0  0  0  0  0  0  0  0  0  0  0
   11.1540   -2.3980   24.2810 C   0  0  0  0  0  0  0  0  0  0  0  0
   10.3270   -2.6380   25.3560 O   0  0  0  0  0  0  0  0  0  0  0  0
  1  2  1  0
  3  2  1  1
  3  4  1  0
  4  5  1  0
  5  6  1  0
  6  7  1  6
  7  8  1  0
  8  9  1  0
  9 10  1  0
 10 11  1  1
  6 12  1  0
 10 12  1  0
  5 13  1  1
 13 14  1  0
  3 15  1  0
 14 15  2  0
 15 16  1  0
 16 17  2  0
 17 18  1  0
 18 19  1  0
 14 20  1  0
 18 20  2  0
 20 21  1  0
M  END
