MAK-UNK-8fdbca50-25-vinylsulfonamide
     RDKit          3D

 41 44  0  0  0  0  0  0  0  0999 V2000
    8.1000   -3.3630   20.1950 C   0  0  0  0  0  0  0  0  0  0  0  0
    7.1240   -2.6200   19.2870 C   0  0  0  0  0  0  0  0  0  0  0  0
    5.7020   -2.2640   20.2900 S   0  0  0  0  0  0  0  0  0  0  0  0
    4.6220   -3.0780   19.7560 O   0  0  0  0  0  0  0  0  0  0  0  0
    6.0900   -2.4710   21.6600 O   0  0  0  0  0  0  0  0  0  0  0  0
    5.4070   -0.6210   20.1700 N   0  0  0  0  0  0  0  0  0  0  0  0
    6.3360    0.3430   19.5590 C   0  0  0  0  0  0  0  0  0  0  0  0
    7.3170    0.6400   20.7420 C   0  0  0  0  0  0  0  0  0  0  0  0
    6.4580    1.5950   21.6070 C   0  0  0  0  0  0  0  0  0  0  0  0
    7.5460    2.1750   22.5570 C   0  0  0  0  0  0  0  0  0  0  0  0
    7.9960    3.4600   22.3650 O   0  0  0  0  0  0  0  0  0  0  0  0
    8.0390    1.2960   23.6530 N   0  0  0  0  0  0  0  0  0  0  0  0
    9.4340    0.7730   23.6840 C   0  0  0  0  0  0  0  0  0  0  0  0
   10.2670    1.5400   23.3550 N   0  0  0  0  0  0  0  0  0  0  0  0
   11.7220    1.1710   23.3460 C   0  0  0  0  0  0  0  0  0  0  0  0
   12.0910   -0.2180   23.7770 C   0  0  0  0  0  0  0  0  0  0  0  0
   10.9240   -1.1040   24.1760 C   0  0  0  0  0  0  0  0  0  0  0  0
    9.6270   -0.5600   24.1030 C   0  0  0  0  0  0  0  0  0  0  0  0
    8.1420   -1.4480   24.5110 S   0  0  0  0  0  0  0  0  0  0  0  0
    7.0710   -0.9150   23.7120 O   0  0  0  0  0  0  0  0  0  0  0  0
    7.9780   -1.4580   25.9410 O   0  0  0  0  0  0  0  0  0  0  0  0
    8.2400   -3.0870   23.9780 N   0  0  0  0  0  0  0  0  0  0  0  0
    7.1550   -3.9110   23.7860 C   0  0  0  0  0  0  0  0  0  0  0  0
    7.5940   -5.2190   23.3270 C   0  0  0  0  0  0  0  0  0  0  0  0
    6.7700   -6.3060   23.0250 C   0  0  0  0  0  0  0  0  0  0  0  0
    6.1120   -6.3790   21.8040 N   0  0  0  0  0  0  0  0  0  0  0  0
    5.5850   -5.1790   21.1950 C   0  0  0  0  0  0  0  0  0  0  0  0
    8.9780   -5.1340   23.2640 C   0  0  0  0  0  0  0  0  0  0  0  0
    9.3920   -3.8730   23.6380 C   0  0  0  0  0  0  0  0  0  0  0  0
   10.6550   -3.3380   23.7160 C   0  0  0  0  0  0  0  0  0  0  0  0
   11.4120   -3.5810   24.8300 C   0  0  0  0  0  0  0  0  0  0  0  0
   12.6980   -3.0880   25.0180 C   0  0  0  0  0  0  0  0  0  0  0  0
   13.3120   -2.2410   23.9530 C   0  0  0  0  0  0  0  0  0  0  0  0
   12.6630   -1.9460   22.8220 C   0  0  0  0  0  0  0  0  0  0  0  0
   11.2240   -2.5410   22.7000 C   0  0  0  0  0  0  0  0  0  0  0  0
   10.5330   -2.2760   21.5990 F   0  0  0  0  0  0  0  0  0  0  0  0
    7.3870    1.4730   24.9720 C   0  0  0  0  0  0  0  0  0  0  0  0
    8.2270    1.0170   26.1990 C   0  0  0  0  0  0  0  0  0  0  0  0
    6.8290    2.8810   25.2150 C   0  0  0  0  0  0  0  0  0  0  0  0
    5.3260    0.8270   22.2900 C   0  0  0  0  0  0  0  0  0  0  0  0
    4.5890   -0.1130   21.2870 C   0  0  0  0  0  0  0  0  0  0  0  0
  1  2  1  0
  3  2  1  0
  3  4  2  0
  3  5  2  0
  3  6  1  0
  6  7  1  0
  7  8  1  0
  8  9  1  0
  9 10  1  0
 10 11  2  0
 10 12  1  0
 12 13  1  0
 13 14  2  0
 14 15  1  0
 15 16  2  0
 16 17  1  0
 13 18  1  0
 17 18  2  0
 19 18  1  0
 19 20  2  0
 19 21  2  0
 19 22  1  0
 22 23  1  0
 23 24  2  0
 24 25  1  0
 25 26  1  0
 26 27  1  0
 24 28  1  0
 22 29  1  0
 28 29  2  0
 29 30  1  0
 30 31  2  0
 31 32  1  0
 32 33  2  0
 33 34  1  0
 30 35  1  0
 34 35  2  0
 35 36  1  0
 12 37  1  0
 37 38  1  0
 37 39  1  0
  9 40  1  0
  6 41  1  0
 40 41  1  0
M  END
