MAK-UNK-148caf23-11-vinylsulfonamide
     RDKit          3D

 37 40  0  0  0  0  0  0  0  0999 V2000
    7.9960   -3.3350   19.0520 C   0  0  0  0  0  0  0  0  0  0  0  0
    7.0200   -2.3460   19.6160 C   0  0  0  0  0  0  0  0  0  0  0  0
    6.9050   -3.0450   21.1810 S   0  0  0  0  0  0  0  0  0  0  0  0
    5.2200   -3.5670   21.2000 O   0  0  0  0  0  0  0  0  0  0  0  0
    8.1110   -3.9090   21.3220 O   0  0  0  0  0  0  0  0  0  0  0  0
    8.0860   -1.8130   22.0840 C   0  0  0  0  0  0  0  0  0  0  0  0
    8.0700   -0.2440   21.8080 C   0  0  0  0  0  0  0  0  0  0  0  0
    9.2380    0.1880   22.8020 C   0  0  0  0  0  0  0  0  0  0  0  0
   10.0150   -0.7730   23.6380 C   0  0  0  0  0  0  0  0  0  0  0  0
   10.9920   -0.4820   24.4950 N   0  0  0  0  0  0  0  0  0  0  0  0
   10.6840   -1.2190   25.6970 C   0  0  0  0  0  0  0  0  0  0  0  0
   10.6750   -2.8010   25.7130 C   0  0  0  0  0  0  0  0  0  0  0  0
   11.2480   -3.8090   25.2220 C   0  0  0  0  0  0  0  0  0  0  0  0
   12.1170   -3.1140   24.4040 C   0  0  0  0  0  0  0  0  0  0  0  0
   12.8090   -2.2130   25.1910 N   0  0  0  0  0  0  0  0  0  0  0  0
   13.2920   -0.9710   24.7510 C   0  0  0  0  0  0  0  0  0  0  0  0
   10.0050   -4.0200   26.3750 C   0  0  0  0  0  0  0  0  0  0  0  0
   10.2660   -5.0340   26.2970 N   0  0  0  0  0  0  0  0  0  0  0  0
    9.4900   -6.3180   26.9960 S   0  0  0  0  0  0  0  0  0  0  0  0
   10.3660   -7.4160   26.8070 O   0  0  0  0  0  0  0  0  0  0  0  0
    8.8510   -5.9090   28.2740 O   0  0  0  0  0  0  0  0  0  0  0  0
    8.3040   -6.5930   25.7450 C   0  0  0  0  0  0  0  0  0  0  0  0
    8.6660   -7.2210   24.5160 C   0  0  0  0  0  0  0  0  0  0  0  0
    7.7220   -7.4270   23.5660 C   0  0  0  0  0  0  0  0  0  0  0  0
    6.3820   -7.0090   23.7850 C   0  0  0  0  0  0  0  0  0  0  0  0
    5.9960   -6.3770   24.9680 N   0  0  0  0  0  0  0  0  0  0  0  0
    6.9950   -6.2170   25.8870 C   0  0  0  0  0  0  0  0  0  0  0  0
    9.8940   -3.5890   26.4070 C   0  0  0  0  0  0  0  0  0  0  0  0
    9.6050   -2.3940   26.4850 C   0  0  0  0  0  0  0  0  0  0  0  0
    8.5750   -1.5760   25.9980 C   0  0  0  0  0  0  0  0  0  0  0  0
    7.7510   -0.6390   25.6050 C   0  0  0  0  0  0  0  0  0  0  0  0
    6.7450   -1.4530   24.9480 C   0  0  0  0  0  0  0  0  0  0  0  0
    7.1790   -2.7610   25.0140 C   0  0  0  0  0  0  0  0  0  0  0  0
    8.5490   -3.1640   25.7350 C   0  0  0  0  0  0  0  0  0  0  0  0
    8.7320   -4.4800   25.6130 F   0  0  0  0  0  0  0  0  0  0  0  0
    9.9050   -1.9750   23.6870 N   0  0  0  0  0  0  0  0  0  0  0  0
    8.9690   -2.4320   22.9290 C   0  0  0  0  0  0  0  0  0  0  0  0
  1  2  1  0
  3  2  1  0
  3  4  2  0
  3  5  2  0
  3  6  1  0
  6  7  2  0
  7  8  1  0
  8  9  2  0
  9 10  1  0
 10 11  1  0
 11 12  1  0
 12 13  1  0
 13 14  1  0
 14 15  1  0
 15 16  1  0
 13 17  2  0
 17 18  1  0
 18 19  1  0
 19 20  2  0
 19 21  2  0
 19 22  1  0
 22 23  2  0
 23 24  1  0
 24 25  2  0
 25 26  1  0
 22 27  1  0
 26 27  2  0
 12 28  2  0
 18 28  1  0
 28 29  1  0
 29 30  2  0
 30 31  1  0
 31 32  2  0
 32 33  1  0
 29 34  1  0
 33 34  2  0
 34 35  1  0
  9 36  1  0
  6 37  1  0
 36 37  2  0
M  END
