MAK-UNK-8fdbca50-6-vinylsulfonamide
     RDKit          3D

 41 44  0  0  0  0  0  0  0  0999 V2000
    7.6310   -3.0050   18.8520 C   0  0  0  0  0  0  0  0  0  0  0  0
    7.2160   -2.6480   20.2580 C   0  0  0  0  0  0  0  0  0  0  0  0
    5.4610   -2.4620   20.2800 S   0  0  0  0  0  0  0  0  0  0  0  0
    4.8450   -3.1710   21.3860 O   0  0  0  0  0  0  0  0  0  0  0  0
    5.0110   -2.7550   18.9410 O   0  0  0  0  0  0  0  0  0  0  0  0
    5.2710   -0.8000   20.4270 N   0  0  0  0  0  0  0  0  0  0  0  0
    6.0860    0.0960   19.7640 C   0  0  0  0  0  0  0  0  0  0  0  0
    6.9420    0.9470   20.7260 C   0  0  0  0  0  0  0  0  0  0  0  0
    6.0130    1.9080   21.4540 C   0  0  0  0  0  0  0  0  0  0  0  0
    6.6690    2.2190   22.8140 C   0  0  0  0  0  0  0  0  0  0  0  0
    6.0020    2.6860   23.7590 O   0  0  0  0  0  0  0  0  0  0  0  0
    8.0640    1.9560   22.9140 N   0  0  0  0  0  0  0  0  0  0  0  0
    8.8570    2.3800   21.7410 C   0  0  0  0  0  0  0  0  0  0  0  0
    8.6360    0.8780   23.6550 C   0  0  2  0  0  0  0  0  0  0  0  0
    9.0680    0.8570   25.0500 C   0  0  0  0  0  0  0  0  0  0  0  0
   10.1090    0.5560   23.9360 C   0  0  0  0  0  0  0  0  0  0  0  0
   11.3380    0.0700   24.2910 C   0  0  0  0  0  0  0  0  0  0  0  0
   11.6210    1.2470   23.6490 C   0  0  0  0  0  0  0  0  0  0  0  0
   10.2920    1.6600   23.3290 N   0  0  0  0  0  0  0  0  0  0  0  0
    9.1500    0.7690   23.7480 C   0  0  0  0  0  0  0  0  0  0  0  0
    9.4420   -0.4270   24.4350 C   0  0  0  0  0  0  0  0  0  0  0  0
    7.7960   -1.0890   24.6870 S   0  0  0  0  0  0  0  0  0  0  0  0
    7.3550   -0.7230   26.0100 O   0  0  0  0  0  0  0  0  0  0  0  0
    6.9560   -0.6490   23.6050 O   0  0  0  0  0  0  0  0  0  0  0  0
    7.8710   -2.7160   24.3860 N   0  0  0  0  0  0  0  0  0  0  0  0
    6.6690   -3.5350   24.4080 C   0  0  0  0  0  0  0  0  0  0  0  0
    7.1030   -4.7940   24.1040 C   0  0  0  0  0  0  0  0  0  0  0  0
    6.2180   -5.8660   24.0170 C   0  0  0  0  0  0  0  0  0  0  0  0
    6.8410   -7.1300   24.3210 N   0  0  0  0  0  0  0  0  0  0  0  0
    7.5020   -7.7030   23.1650 C   0  0  0  0  0  0  0  0  0  0  0  0
    8.4860   -4.8330   23.9000 C   0  0  0  0  0  0  0  0  0  0  0  0
    8.9880   -3.5480   24.0670 C   0  0  0  0  0  0  0  0  0  0  0  0
   10.3210   -3.1310   23.9410 C   0  0  0  0  0  0  0  0  0  0  0  0
   11.2640   -3.3230   24.9620 C   0  0  0  0  0  0  0  0  0  0  0  0
   12.7530   -2.8760   24.8870 C   0  0  0  0  0  0  0  0  0  0  0  0
   12.9630   -2.2080   23.5000 C   0  0  0  0  0  0  0  0  0  0  0  0
   11.9810   -2.0580   22.5390 C   0  0  0  0  0  0  0  0  0  0  0  0
   10.7090   -2.5070   22.7610 C   0  0  0  0  0  0  0  0  0  0  0  0
    9.8130   -2.3320   21.7890 F   0  0  0  0  0  0  0  0  0  0  0  0
    4.6280    1.2560   21.6670 C   0  0  0  0  0  0  0  0  0  0  0  0
    4.7680   -0.2710   21.6970 C   0  0  0  0  0  0  0  0  0  0  0  0
  1  2  1  0
  3  2  1  0
  3  4  2  0
  3  5  2  0
  3  6  1  0
  6  7  1  0
  7  8  1  0
  8  9  1  0
  9 10  1  0
 10 11  2  0
 10 12  1  0
 12 13  1  0
 12 14  1  0
 14 15  1  1
 14 16  1  0
 16 17  2  0
 17 18  1  0
 18 19  2  0
 19 20  1  0
 16 21  1  0
 20 21  2  0
 22 21  1  0
 22 23  2  0
 22 24  2  0
 22 25  1  0
 25 26  1  0
 26 27  2  0
 27 28  1  0
 28 29  1  0
 29 30  1  0
 27 31  1  0
 25 32  1  0
 31 32  2  0
 32 33  1  0
 33 34  2  0
 34 35  1  0
 35 36  2  0
 36 37  1  0
 33 38  1  0
 37 38  2  0
 38 39  1  0
  9 40  1  0
  6 41  1  0
 40 41  1  0
M  END
