MAK-UNK-176ca439-6-nitrile
     RDKit          3D

 32 35  0  0  0  0  0  0  0  0999 V2000
    6.7650   -3.3320   19.5310 C   0  0  0  0  0  0  0  0  0  0  0  0
    5.9240   -3.0450   18.6140 N   0  0  0  0  0  0  0  0  0  0  0  0
    6.7190   -2.7000   20.7620 N   0  0  0  0  0  0  0  0  0  0  0  0
    6.4090   -3.4350   22.0010 C   0  0  0  0  0  0  0  0  0  0  0  0
    7.5330   -3.5220   22.8370 C   0  0  0  0  0  0  0  0  0  0  0  0
    8.3270   -2.2760   23.0370 N   0  0  0  0  0  0  0  0  0  0  0  0
    9.5310   -2.4540   23.8430 C   0  0  0  0  0  0  0  0  0  0  0  0
   10.4760   -1.4510   23.5970 C   0  0  0  0  0  0  0  0  0  0  0  0
   11.7400   -1.8130   23.1020 C   0  0  0  0  0  0  0  0  0  0  0  0
   12.7820   -0.7360   22.8340 C   0  0  0  0  0  0  0  0  0  0  0  0
   12.3460    0.6780   23.1310 C   0  0  0  0  0  0  0  0  0  0  0  0
   10.9660    1.0030   23.6520 C   0  0  0  0  0  0  0  0  0  0  0  0
   10.5100    2.4400   23.9280 C   0  0  0  0  0  0  0  0  0  0  0  0
    9.2440    2.6340   24.5790 C   0  0  2  0  0  0  0  0  0  0  0  0
    9.1120    3.7990   25.3320 C   0  0  0  0  0  0  0  0  0  0  0  0
    8.8170    1.4610   25.5150 C   0  0  0  0  0  0  0  0  0  0  0  0
    9.7360    0.7370   25.9050 O   0  0  0  0  0  0  0  0  0  0  0  0
    8.1920    2.7580   23.4250 C   0  0  0  0  0  0  0  0  0  0  0  0
    7.3730    1.8300   23.4480 O   0  0  0  0  0  0  0  0  0  0  0  0
    6.2320    2.0310   24.2830 C   0  0  0  0  0  0  0  0  0  0  0  0
    5.7660    3.3430   24.8240 C   0  0  0  0  0  0  0  0  0  0  0  0
    4.6580    3.1340   25.5710 N   0  0  0  0  0  0  0  0  0  0  0  0
    4.3180    1.7600   25.5890 C   0  0  0  0  0  0  0  0  0  0  0  0
    3.2510    1.1250   26.2390 C   0  0  0  0  0  0  0  0  0  0  0  0
    3.0330   -0.3660   26.1510 C   0  0  0  0  0  0  0  0  0  0  0  0
    3.9180   -1.1220   25.4010 C   0  0  0  0  0  0  0  0  0  0  0  0
    3.7700   -2.4530   25.2900 F   0  0  0  0  0  0  0  0  0  0  0  0
    5.0560   -0.3630   24.7200 C   0  0  0  0  0  0  0  0  0  0  0  0
    5.2440    1.0130   24.8120 C   0  0  0  0  0  0  0  0  0  0  0  0
   10.1130   -0.1010   23.8580 C   0  0  0  0  0  0  0  0  0  0  0  0
    8.6520   -1.6610   21.8690 C   0  0  0  0  0  0  0  0  0  0  0  0
    7.4260   -1.4220   20.9790 C   0  0  0  0  0  0  0  0  0  0  0  0
  1  2  2  3
  1  3  1  0
  3  4  1  0
  4  5  1  0
  5  6  1  0
  6  7  1  0
  7  8  1  0
  8  9  2  0
  9 10  1  0
 10 11  2  0
 11 12  1  0
 12 13  1  0
 14 13  1  0
 14 15  1  1
 14 16  1  0
 16 17  1  0
 14 18  1  0
 18 19  1  0
 19 20  1  0
 20 21  2  0
 21 22  1  0
 22 23  1  0
 23 24  1  0
 24 25  2  0
 25 26  1  0
 26 27  1  0
 26 28  2  0
 20 29  1  0
 23 29  2  0
 28 29  1  0
  8 30  1  0
 12 30  2  0
  6 31  1  0
  3 32  1  0
 31 32  1  0
M  END
