MAK-UNK-0cb6a3ad-6
     RDKit          3D

 14 14  0  0  0  0  0  0  0  0999 V2000
   12.3240    1.9170   23.1730 C   0  0  0  0  0  0  0  0  0  0  0  0
   12.6710    0.5760   23.7770 C   0  0  0  0  0  0  0  0  0  0  0  0
   12.4760    0.2990   24.9570 O   0  0  0  0  0  0  0  0  0  0  0  0
   13.1530   -0.2050   22.9920 O   0  0  0  0  0  0  0  0  0  0  0  0
   12.5220   -1.4660   23.1420 C   0  0  1  0  0  0  0  0  0  0  0  0
   13.2970   -2.2560   23.9660 C   0  0  0  0  0  0  0  0  0  0  0  0
   12.6670   -2.6430   25.1170 C   0  0  2  0  0  0  0  0  0  0  0  0
   13.5150   -3.3870   25.9230 C   0  0  0  0  0  0  0  0  0  0  0  0
   11.3630   -3.1620   25.0070 C   0  0  0  0  0  0  0  0  0  0  0  0
   10.4370   -2.3560   24.1160 C   0  0  0  0  0  0  0  0  0  0  0  0
   11.1700   -1.0970   23.7100 C   0  0  2  0  0  0  0  0  0  0  0  0
   10.3650   -0.2940   22.6870 C   0  0  0  0  0  0  0  0  0  0  0  0
    9.4410   -1.1920   21.8250 C   0  0  0  0  0  0  0  0  0  0  0  0
    9.4450    0.8310   23.2920 C   0  0  0  0  0  0  0  0  0  0  0  0
  1  2  1  0
  2  3  2  0
  2  4  1  0
  5  4  1  1
  5  6  1  0
  6  7  1  0
  7  8  1  6
  7  9  1  0
  9 10  1  0
  5 11  1  0
 10 11  1  0
 11 12  1  6
 12 13  1  0
 12 14  1  0
M  END
