MAK-UNK-f2409524-16
     RDKit          3D

 30 32  0  0  0  0  0  0  0  0999 V2000
    5.4980   -2.6440   20.3030 C   0  0  0  0  0  0  0  0  0  0  0  0
    5.5140   -3.3720   21.6220 C   0  0  0  0  0  0  0  0  0  0  0  0
    4.5570   -4.0530   21.9740 O   0  0  0  0  0  0  0  0  0  0  0  0
    6.6640   -3.2280   22.3820 N   0  0  0  0  0  0  0  0  0  0  0  0
    7.3760   -1.9600   22.5020 C   0  0  0  0  0  0  0  0  0  0  0  0
    8.6940   -1.9720   23.2950 C   0  0  0  0  0  0  0  0  0  0  0  0
    9.4020   -0.6940   23.4150 N   0  0  0  0  0  0  0  0  0  0  0  0
    8.8950    0.4560   22.8260 C   0  0  0  0  0  0  0  0  0  0  0  0
    7.7060    0.3700   22.1330 C   0  0  0  0  0  0  0  0  0  0  0  0
    6.9140   -0.7600   21.9360 C   0  0  0  0  0  0  0  0  0  0  0  0
    5.8660   -0.6940   21.3020 O   0  0  0  0  0  0  0  0  0  0  0  0
    5.9240   -0.1070   20.0410 C   0  0  0  0  0  0  0  0  0  0  0  0
    7.1450   -0.4340   19.2330 C   0  0  0  0  0  0  0  0  0  0  0  0
    6.8680    0.3110   18.0730 C   0  0  0  0  0  0  0  0  0  0  0  0
    6.0500    1.0660   17.5390 C   0  0  0  0  0  0  0  0  0  0  0  0
    5.0040    1.2670   18.3810 C   0  0  0  0  0  0  0  0  0  0  0  0
    4.7440    0.7620   19.7040 C   0  0  0  0  0  0  0  0  0  0  0  0
    4.7400    0.1720   20.8910 N   0  0  0  0  0  0  0  0  0  0  0  0
    4.2950    0.7480   22.1960 C   0  0  0  0  0  0  0  0  0  0  0  0
    4.8930    1.9800   22.4670 C   0  0  0  0  0  0  0  0  0  0  0  0
    4.1020    2.9440   23.0040 N   0  0  0  0  0  0  0  0  0  0  0  0
    2.8750    2.5610   23.4820 C   0  0  0  0  0  0  0  0  0  0  0  0
    2.7080    1.6860   24.3380 O   0  0  0  0  0  0  0  0  0  0  0  0
    1.8790    3.2980   22.8530 N   0  0  0  0  0  0  0  0  0  0  0  0
    0.5930    3.7650   23.4070 C   0  0  0  0  0  0  0  0  0  0  0  0
    0.7180    4.4750   24.5940 C   0  0  0  0  0  0  0  0  0  0  0  0
   -0.5340    4.8230   25.1030 C   0  0  0  0  0  0  0  0  0  0  0  0
   -1.6620    4.5300   24.3240 C   0  0  0  0  0  0  0  0  0  0  0  0
   -1.6790    3.2280   23.7940 C   0  0  0  0  0  0  0  0  0  0  0  0
   -0.4020    2.7770   23.4170 C   0  0  0  0  0  0  0  0  0  0  0  0
  1  2  1  0
  2  3  2  0
  2  4  1  0
  4  5  1  0
  5  6  2  0
  6  7  1  0
  7  8  2  0
  8  9  1  0
  5 10  1  0
  9 10  2  0
 10 11  1  0
 11 12  1  0
 12 13  2  0
 13 14  1  0
 14 15  2  0
 15 16  1  0
 12 17  1  0
 16 17  2  0
 17 18  1  0
 18 19  1  0
 19 20  1  0
 20 21  1  0
 21 22  1  0
 22 23  2  0
 22 24  1  0
 24 25  1  0
 25 26  1  0
 26 27  1  0
 27 28  1  0
 28 29  1  0
 25 30  1  0
 29 30  1  0
M  END
