MAK-UNK-8fdbca50-20-vinylsulfonamide
     RDKit          3D

 41 44  0  0  0  0  0  0  0  0999 V2000
    6.0990   -5.3680   20.3910 C   0  0  0  0  0  0  0  0  0  0  0  0
    6.1650   -5.6130   21.8960 C   0  0  0  0  0  0  0  0  0  0  0  0
    5.6280   -4.1720   22.8010 S   0  0  0  0  0  0  0  0  0  0  0  0
    4.7060   -3.4380   21.9290 O   0  0  0  0  0  0  0  0  0  0  0  0
    5.1000   -4.6770   24.0520 O   0  0  0  0  0  0  0  0  0  0  0  0
    7.0140   -3.3010   23.3490 N   0  0  0  0  0  0  0  0  0  0  0  0
    7.8160   -2.3640   22.6880 C   0  0  0  0  0  0  0  0  0  0  0  0
    9.3160   -2.1910   23.1720 C   0  0  0  0  0  0  0  0  0  0  0  0
    9.5030   -2.2840   24.7080 C   0  0  0  0  0  0  0  0  0  0  0  0
   10.9890   -2.7180   25.0640 C   0  0  0  0  0  0  0  0  0  0  0  0
   11.1600   -3.5170   25.9420 O   0  0  0  0  0  0  0  0  0  0  0  0
   12.1370   -2.1620   24.4180 N   0  0  0  0  0  0  0  0  0  0  0  0
   13.5090   -2.9000   24.2880 C   0  0  0  0  0  0  0  0  0  0  0  0
   14.9070   -3.2330   25.3970 S   0  0  0  0  0  0  0  0  0  0  0  0
   14.1290   -2.5730   26.3750 O   0  0  0  0  0  0  0  0  0  0  0  0
   14.7820   -3.6750   23.7220 C   0  0  0  0  0  0  0  0  0  0  0  0
   13.6630   -3.1650   22.8430 C   0  0  0  0  0  0  0  0  0  0  0  0
   13.6390   -3.6740   21.5080 C   0  0  0  0  0  0  0  0  0  0  0  0
   14.6540   -4.6770   20.9780 C   0  0  0  0  0  0  0  0  0  0  0  0
   15.8400   -5.2800   21.6960 N   0  0  0  0  0  0  0  0  0  0  0  0
   15.8290   -4.6170   23.1960 C   0  0  0  0  0  0  0  0  0  0  0  0
   16.6150   -3.9120   25.3270 N   0  0  0  0  0  0  0  0  0  0  0  0
   18.0340   -3.2640   25.1650 C   0  0  0  0  0  0  0  0  0  0  0  0
   19.0080   -4.1050   25.1160 C   0  0  0  0  0  0  0  0  0  0  0  0
   20.3250   -3.7100   24.9670 C   0  0  0  0  0  0  0  0  0  0  0  0
   20.7190   -2.9660   26.0660 N   0  0  0  0  0  0  0  0  0  0  0  0
   20.4760   -1.6020   26.2960 C   0  0  0  0  0  0  0  0  0  0  0  0
   18.3690   -5.2300   25.2430 C   0  0  0  0  0  0  0  0  0  0  0  0
   17.0640   -5.0790   25.3800 C   0  0  0  0  0  0  0  0  0  0  0  0
   16.7760   -6.1520   25.5200 C   0  0  0  0  0  0  0  0  0  0  0  0
   17.5370   -6.7850   24.7440 C   0  0  0  0  0  0  0  0  0  0  0  0
   17.4340   -7.9930   24.7620 C   0  0  0  0  0  0  0  0  0  0  0  0
   16.6660   -8.5510   25.4710 C   0  0  0  0  0  0  0  0  0  0  0  0
   15.6600   -7.9780   26.5040 C   0  0  0  0  0  0  0  0  0  0  0  0
   15.8910   -6.5650   26.3510 C   0  0  0  0  0  0  0  0  0  0  0  0
   15.2190   -5.7080   27.0540 F   0  0  0  0  0  0  0  0  0  0  0  0
   11.9280   -1.1810   23.3080 C   0  0  0  0  0  0  0  0  0  0  0  0
   12.9870   -0.3170   23.1350 C   0  0  0  0  0  0  0  0  0  0  0  0
   11.6150   -1.8490   21.9640 C   0  0  0  0  0  0  0  0  0  0  0  0
    8.4790   -3.2490   25.3610 C   0  0  0  0  0  0  0  0  0  0  0  0
    7.0610   -3.1170   24.8010 C   0  0  0  0  0  0  0  0  0  0  0  0
  1  2  1  0
  3  2  1  0
  3  4  2  0
  3  5  2  0
  3  6  1  0
  6  7  1  0
  7  8  1  0
  8  9  1  0
  9 10  1  0
 10 11  2  0
 10 12  1  0
 12 13  1  0
 13 14  2  0
 14 15  2  0
 14 16  1  0
 16 17  2  0
 17 18  1  0
 18 19  2  0
 19 20  1  0
 16 21  1  0
 20 21  2  0
 14 22  1  0
 22 23  1  0
 23 24  2  0
 24 25  1  0
 25 26  1  0
 26 27  1  0
 24 28  1  0
 22 29  1  0
 28 29  2  0
 29 30  1  0
 30 31  2  0
 31 32  1  0
 32 33  2  0
 33 34  1  0
 30 35  1  0
 34 35  2  0
 35 36  1  0
 12 37  1  0
 37 38  1  0
 37 39  1  0
  9 40  1  0
  6 41  1  0
 40 41  1  0
M  END
