MAK-UNK-af83ef51-31-nitrile
     RDKit          3D

 24 25  0  0  0  0  0  0  0  0999 V2000
    6.6610   -4.1830   20.2290 C   0  0  0  0  0  0  0  0  0  0  0  0
    6.0280   -3.5160   19.3270 N   0  0  0  0  0  0  0  0  0  0  0  0
    6.3520   -4.0130   21.5570 N   0  0  0  0  0  0  0  0  0  0  0  0
    5.3190   -3.0460   21.9120 C   0  0  0  0  0  0  0  0  0  0  0  0
    5.9100   -1.6900   22.3380 C   0  0  0  0  0  0  0  0  0  0  0  0
    7.3160   -1.8660   22.7090 N   0  0  0  0  0  0  0  0  0  0  0  0
    8.2320   -1.7850   21.5630 C   0  0  0  0  0  0  0  0  0  0  0  0
    9.3650   -2.6000   21.6930 C   0  0  0  0  0  0  0  0  0  0  0  0
   10.7100   -2.0930   21.9620 C   0  0  0  0  0  0  0  0  0  0  0  0
   11.3910   -2.6310   23.0630 C   0  0  0  0  0  0  0  0  0  0  0  0
   12.3850   -3.0050   23.9480 O   0  0  0  0  0  0  0  0  0  0  0  0
   12.4280   -2.0950   22.3190 N   0  0  0  0  0  0  0  0  0  0  0  0
   13.0700   -0.9000   22.8080 C   0  0  0  0  0  0  0  0  0  0  0  0
   12.0260   -0.0380   23.3640 C   0  0  0  0  0  0  0  0  0  0  0  0
   11.0640   -0.5670   24.2310 C   0  0  0  0  0  0  0  0  0  0  0  0
   10.2080   -0.1110   24.7360 C   0  0  0  0  0  0  0  0  0  0  0  0
    9.7150    1.1580   24.7390 C   0  0  0  0  0  0  0  0  0  0  0  0
    8.5780    1.5330   25.4620 N   0  0  0  0  0  0  0  0  0  0  0  0
    7.7480    0.4150   25.9050 C   0  0  0  0  0  0  0  0  0  0  0  0
    8.2250   -0.0030   27.1450 C   0  0  0  0  0  0  0  0  0  0  0  0
   10.5330    1.9470   23.9230 N   0  0  0  0  0  0  0  0  0  0  0  0
   11.6650    1.3490   23.2520 C   0  0  0  0  0  0  0  0  0  0  0  0
    7.4610   -3.0170   23.3840 C   0  0  0  0  0  0  0  0  0  0  0  0
    7.3090   -4.1910   22.6590 C   0  0  0  0  0  0  0  0  0  0  0  0
  1  2  2  3
  1  3  1  0
  3  4  1  0
  4  5  1  0
  5  6  1  0
  6  7  1  0
  7  8  1  0
  8  9  1  0
  9 10  1  0
 10 11  2  0
 10 12  1  0
 12 13  1  0
 13 14  1  0
 14 15  2  0
 15 16  1  0
 16 17  2  0
 17 18  1  0
 18 19  1  0
 19 20  1  0
 17 21  1  0
 14 22  1  0
 21 22  2  0
  6 23  1  0
  3 24  1  0
 23 24  1  0
M  END
