MAK-UNK-9e4a73aa-11
     RDKit          3D

 26 29  0  0  0  0  0  0  0  0999 V2000
    7.2690   -1.2550   26.1670 O   0  0  0  0  0  0  0  0  0  0  0  0
    7.9610   -1.2120   25.1390 C   0  0  0  0  0  0  0  0  0  0  0  0
    8.6480    0.0790   24.6950 C   0  0  0  0  0  0  0  0  0  0  0  0
    7.9940    1.4410   24.9970 C   0  0  0  0  0  0  0  0  0  0  0  0
    8.6950    2.7370   24.5310 C   0  0  0  0  0  0  0  0  0  0  0  0
    8.2140    3.9740   24.7340 F   0  0  0  0  0  0  0  0  0  0  0  0
   10.0290    2.5460   23.7950 C   0  0  0  0  0  0  0  0  0  0  0  0
   10.7450    3.5860   23.3410 F   0  0  0  0  0  0  0  0  0  0  0  0
   10.4940    1.1080   23.6030 C   0  0  0  0  0  0  0  0  0  0  0  0
    9.8200   -0.0180   24.0360 C   0  0  0  0  0  0  0  0  0  0  0  0
   10.2900   -1.2390   23.8070 N   0  0  0  0  0  0  0  0  0  0  0  0
   11.4020   -1.2370   22.9320 C   0  0  0  0  0  0  0  0  0  0  0  0
   11.3300   -2.2040   21.9850 C   0  0  0  0  0  0  0  0  0  0  0  0
   12.4110   -2.3610   20.9490 C   0  0  0  0  0  0  0  0  0  0  0  0
   13.5640   -1.3330   21.0690 C   0  0  0  0  0  0  0  0  0  0  0  0
   13.4410   -0.3440   22.2030 C   0  0  0  0  0  0  0  0  0  0  0  0
   12.4230   -0.3150   23.0710 C   0  0  0  0  0  0  0  0  0  0  0  0
    9.2890   -2.2880   23.5770 C   0  0  0  0  0  0  0  0  0  0  0  0
    9.4390   -3.2330   22.6170 O   0  0  0  0  0  0  0  0  0  0  0  0
    8.1860   -2.2490   24.3030 N   0  0  0  0  0  0  0  0  0  0  0  0
    7.0090   -2.8010   23.6070 C   0  0  0  0  0  0  0  0  0  0  0  0
    7.6350   -1.6990   22.7270 C   0  0  0  0  0  0  0  0  0  0  0  0
    7.0760   -1.3410   21.4390 C   0  0  0  0  0  0  0  0  0  0  0  0
    6.1580   -1.5430   20.5440 C   0  0  0  0  0  0  0  0  0  0  0  0
    5.4830   -2.5370   21.1860 N   0  0  0  0  0  0  0  0  0  0  0  0
    5.8390   -3.1120   22.5460 C   0  0  0  0  0  0  0  0  0  0  0  0
  1  2  2  0
  2  3  1  0
  3  4  2  0
  4  5  1  0
  5  6  1  0
  5  7  2  0
  7  8  1  0
  7  9  1  0
  3 10  1  0
  9 10  2  0
 10 11  1  0
 11 12  1  0
 12 13  2  0
 13 14  1  0
 14 15  2  0
 15 16  1  0
 12 17  1  0
 16 17  2  0
 11 18  1  0
 18 19  2  0
  2 20  1  0
 18 20  1  0
 20 21  1  0
 21 22  2  0
 22 23  1  0
 23 24  2  0
 24 25  1  0
 21 26  1  0
 25 26  2  0
M  END
