MAK-UNK-52a1ef4b-3-vinylsulfonamide
     RDKit          3D

 18 19  0  0  0  0  0  0  0  0999 V2000
    6.3900   -5.3440   20.3320 C   0  0  0  0  0  0  0  0  0  0  0  0
    6.6950   -5.5350   21.8300 C   0  0  0  0  0  0  0  0  0  0  0  0
    5.8940   -4.2830   22.8310 S   0  0  0  0  0  0  0  0  0  0  0  0
    4.6910   -3.8080   22.1380 O   0  0  0  0  0  0  0  0  0  0  0  0
    5.7460   -4.8800   24.1400 O   0  0  0  0  0  0  0  0  0  0  0  0
    7.0540   -2.9990   23.0550 N   0  0  0  0  0  0  0  0  0  0  0  0
    8.2780   -3.0110   22.3190 C   0  0  0  0  0  0  0  0  0  0  0  0
    8.1190   -2.0140   21.1480 C   0  0  0  0  0  0  0  0  0  0  0  0
    6.7360   -1.6280   20.7970 N   0  0  0  0  0  0  0  0  0  0  0  0
    5.8680   -2.2540   19.8690 C   0  0  0  0  0  0  0  0  0  0  0  0
    5.8330   -3.0830   20.7560 O   0  0  0  0  0  0  0  0  0  0  0  0
    6.1410   -1.1410   19.1430 N   0  0  0  0  0  0  0  0  0  0  0  0
    7.1420   -0.9980   18.1490 C   0  0  0  0  0  0  0  0  0  0  0  0
    7.0460    0.4470   17.8130 C   0  0  0  0  0  0  0  0  0  0  0  0
    6.0910    1.1480   18.5120 O   0  0  0  0  0  0  0  0  0  0  0  0
    5.2880    0.0400   19.0340 C   0  0  0  0  0  0  0  0  0  0  0  0
    6.1400   -0.9790   21.8970 C   0  0  0  0  0  0  0  0  0  0  0  0
    6.5880   -1.6160   23.2130 C   0  0  0  0  0  0  0  0  0  0  0  0
  1  2  1  0
  3  2  1  0
  3  4  2  0
  3  5  2  0
  3  6  1  0
  6  7  1  0
  7  8  1  0
  8  9  1  0
  9 10  1  0
 10 11  2  0
 10 12  1  0
 12 13  1  0
 13 14  2  0
 14 15  1  0
 12 16  1  0
 15 16  1  0
  9 17  1  0
  6 18  1  0
 17 18  1  0
M  END
