MAK-UNK-cd94b63c-1-chloroacetamide
     RDKit          3D

 23 24  0  0  0  0  0  0  0  0999 V2000
    7.1220   -2.9350   18.7260 C   0  0  0  0  0  0  0  0  0  0  0  0
    6.1800   -3.2700   19.8460 C   0  0  0  0  0  0  0  0  0  0  0  0
    5.3410   -4.1690   19.7430 O   0  0  0  0  0  0  0  0  0  0  0  0
    6.3190   -2.5290   21.0200 N   0  0  0  0  0  0  0  0  0  0  0  0
    6.0820   -3.0830   22.3530 C   0  0  0  0  0  0  0  0  0  0  0  0
    7.3930   -3.3210   23.1280 C   0  0  0  0  0  0  0  0  0  0  0  0
    8.2500   -2.1250   23.1650 N   0  0  0  0  0  0  0  0  0  0  0  0
    9.5090   -2.3680   23.8810 C   0  0  0  0  0  0  0  0  0  0  0  0
   10.5320   -1.2730   23.6370 C   0  0  0  0  0  0  0  0  0  0  0  0
   11.9110   -1.7150   23.2130 C   0  0  0  0  0  0  0  0  0  0  0  0
   12.8700   -0.7150   22.9810 C   0  0  0  0  0  0  0  0  0  0  0  0
   12.5660    0.6360   23.1350 C   0  0  0  0  0  0  0  0  0  0  0  0
   11.2990    1.0660   23.5240 C   0  0  0  0  0  0  0  0  0  0  0  0
   11.0480    2.4470   23.6500 C   0  0  0  0  0  0  0  0  0  0  0  0
   10.1530    3.0160   24.5140 O   0  0  0  0  0  0  0  0  0  0  0  0
   11.9650    3.4970   22.5480 S   0  0  0  0  0  0  0  0  0  0  0  0
   11.9030    5.1440   23.3400 C   0  0  0  0  0  0  0  0  0  0  0  0
   10.6430    5.6500   23.6680 C   0  0  0  0  0  0  0  0  0  0  0  0
   10.7650    6.6200   24.7490 N   0  0  0  0  0  0  0  0  0  0  0  0
   11.7730    6.5360   25.6880 C   0  0  0  0  0  0  0  0  0  0  0  0
   10.2630    0.1200   23.7830 C   0  0  0  0  0  0  0  0  0  0  0  0
    8.4900   -1.5810   21.8120 C   0  0  0  0  0  0  0  0  0  0  0  0
    7.2040   -1.3520   20.9980 C   0  0  0  0  0  0  0  0  0  0  0  0
  1  2  1  0
  2  3  2  0
  2  4  1  0
  4  5  1  0
  5  6  1  0
  6  7  1  0
  7  8  1  0
  8  9  1  0
  9 10  2  0
 10 11  1  0
 11 12  2  0
 12 13  1  0
 13 14  1  0
 14 15  2  0
 14 16  1  0
 16 17  1  0
 17 18  1  0
 18 19  1  0
 19 20  1  0
  9 21  1  0
 13 21  2  0
  7 22  1  0
  4 23  1  0
 22 23  1  0
M  END
