MAK-UNK-d1e89583-5
     RDKit          3D

 17 18  0  0  0  0  0  0  0  0999 V2000
    8.9570    1.0300   21.2860 O   0  0  0  0  0  0  0  0  0  0  0  0
    8.2140   -0.1690   21.5990 C   0  0  0  0  0  0  0  0  0  0  0  0
    8.4660   -1.1080   22.6480 N   0  0  0  0  0  0  0  0  0  0  0  0
    9.8840   -1.3290   22.8180 C   0  0  0  0  0  0  0  0  0  0  0  0
   10.3820   -0.1250   23.1980 C   0  0  0  0  0  0  0  0  0  0  0  0
   11.6960   -1.2180   22.7540 S   0  0  0  0  0  0  0  0  0  0  0  0
   13.0720   -0.2140   23.0100 C   0  0  0  0  0  0  0  0  0  0  0  0
   12.6150    0.9420   23.4320 C   0  0  0  0  0  0  0  0  0  0  0  0
   11.1950    1.0320   23.5430 C   0  0  0  0  0  0  0  0  0  0  0  0
   10.4250    2.4760   24.0500 Cl  0  0  0  0  0  0  0  0  0  0  0  0
    7.0980   -0.6050   20.9390 N   0  0  0  0  0  0  0  0  0  0  0  0
    6.4580    0.0520   19.9600 C   0  0  0  0  0  0  0  0  0  0  0  0
    5.3390    0.7580   20.3460 C   0  0  0  0  0  0  0  0  0  0  0  0
    4.6530    1.4620   19.3580 C   0  0  0  0  0  0  0  0  0  0  0  0
    5.1760    1.4010   17.9540 C   0  0  0  0  0  0  0  0  0  0  0  0
    6.2630    0.7120   17.5560 N   0  0  0  0  0  0  0  0  0  0  0  0
    6.9110    0.0120   18.6590 C   0  0  0  0  0  0  0  0  0  0  0  0
  1  2  2  0
  2  3  1  0
  3  4  1  0
  4  5  1  0
  5  6  1  0
  6  7  1  0
  7  8  2  0
  5  9  2  0
  8  9  1  0
  9 10  1  0
  2 11  1  0
 11 12  1  0
 12 13  2  0
 13 14  1  0
 14 15  2  0
 15 16  1  0
 12 17  1  0
 16 17  2  0
M  END
