MAK-UNK-849bee6c-12-nitrile
     RDKit          3D

 24 26  0  0  0  0  0  0  0  0999 V2000
    6.8270   -3.4820   19.7590 C   0  0  0  0  0  0  0  0  0  0  0  0
    5.8470   -3.2380   18.9860 N   0  0  0  0  0  0  0  0  0  0  0  0
    6.9710   -2.8050   20.9550 N   0  0  0  0  0  0  0  0  0  0  0  0
    6.0340   -3.0500   22.0620 C   0  0  0  0  0  0  0  0  0  0  0  0
    7.3370   -3.4280   22.5580 C   0  0  0  0  0  0  0  0  0  0  0  0
    8.1760   -2.3110   23.0120 N   0  0  0  0  0  0  0  0  0  0  0  0
    9.3000   -2.5850   23.7820 C   0  0  0  0  0  0  0  0  0  0  0  0
   10.3660   -1.4910   23.6490 C   0  0  0  0  0  0  0  0  0  0  0  0
   11.7740   -1.7930   23.1910 C   0  0  0  0  0  0  0  0  0  0  0  0
   12.7670   -0.6650   23.0680 C   0  0  0  0  0  0  0  0  0  0  0  0
   12.3650    0.6430   23.3820 C   0  0  0  0  0  0  0  0  0  0  0  0
   11.0260    0.8720   23.8070 C   0  0  0  0  0  0  0  0  0  0  0  0
   10.5950    2.1390   24.1140 O   0  0  0  0  0  0  0  0  0  0  0  0
   11.2590    3.2390   23.6610 C   0  0  0  0  0  0  0  0  0  0  0  0
   10.7960    4.4770   24.0510 C   0  0  0  0  0  0  0  0  0  0  0  0
   11.3240    5.6580   23.7380 N   0  0  0  0  0  0  0  0  0  0  0  0
   12.4120    5.5660   22.9600 C   0  0  0  0  0  0  0  0  0  0  0  0
   13.0100    6.7650   22.6460 C   0  0  0  0  0  0  0  0  0  0  0  0
   12.8920    7.8570   23.4980 N   0  0  0  0  0  0  0  0  0  0  0  0
   12.9700    4.4450   22.4820 N   0  0  0  0  0  0  0  0  0  0  0  0
   12.3690    3.2960   22.8520 C   0  0  0  0  0  0  0  0  0  0  0  0
   10.0770   -0.1600   23.9350 C   0  0  0  0  0  0  0  0  0  0  0  0
    8.4850   -1.3750   21.9080 C   0  0  0  0  0  0  0  0  0  0  0  0
    7.5080   -1.4420   20.9420 C   0  0  0  0  0  0  0  0  0  0  0  0
  1  2  2  3
  1  3  1  0
  3  4  1  0
  4  5  1  0
  5  6  1  0
  6  7  1  0
  7  8  1  0
  8  9  2  0
  9 10  1  0
 10 11  2  0
 11 12  1  0
 12 13  1  0
 13 14  1  0
 14 15  2  0
 15 16  1  0
 16 17  2  0
 17 18  1  0
 18 19  3  0
 17 20  1  0
 14 21  1  0
 20 21  2  0
  8 22  1  0
 12 22  2  0
  6 23  1  0
  3 24  1  0
 23 24  1  0
M  END
