MAK-UNK-0d6072ac-13
     RDKit          3D

 19 21  0  0  0  0  0  0  0  0999 V2000
    7.9490   -3.3140   21.4600 C   0  0  0  0  0  0  0  0  0  0  0  0
    6.7080   -4.0750   21.6270 N   0  0  0  0  0  0  0  0  0  0  0  0
    5.9930   -4.1100   20.3740 C   0  0  0  0  0  0  0  0  0  0  0  0
    5.3030   -4.9580   19.8560 O   0  0  0  0  0  0  0  0  0  0  0  0
    6.1520   -2.9700   19.6660 O   0  0  0  0  0  0  0  0  0  0  0  0
    6.8600   -5.2150   22.5300 C   0  0  0  0  0  0  0  0  0  0  0  0
    7.7210   -5.6230   23.4860 C   0  0  0  0  0  0  0  0  0  0  0  0
    8.7390   -4.6190   23.6050 C   0  0  0  0  0  0  0  0  0  0  0  0
    9.0960   -3.3320   23.0240 C   0  0  0  0  0  0  0  0  0  0  0  0
    9.4720   -4.1500   23.8490 C   0  0  0  0  0  0  0  0  0  0  0  0
    8.1830   -4.3750   23.0000 C   0  0  0  0  0  0  0  0  0  0  0  0
   10.0600   -3.1450   23.6200 N   0  0  0  0  0  0  0  0  0  0  0  0
   11.1150   -2.5600   24.0040 C   0  0  0  0  0  0  0  0  0  0  0  0
   11.6590   -3.4310   24.9730 C   0  0  0  0  0  0  0  0  0  0  0  0
   12.7540   -2.4310   25.0830 C   0  0  0  0  0  0  0  0  0  0  0  0
   12.3710   -1.3710   24.1210 C   0  0  0  0  0  0  0  0  0  0  0  0
   13.1780    0.0320   23.7580 Cl  0  0  0  0  0  0  0  0  0  0  0  0
   11.2530   -1.2210   23.2330 C   0  0  0  0  0  0  0  0  0  0  0  0
   10.2010   -2.1140   23.0430 C   0  0  0  0  0  0  0  0  0  0  0  0
  1  2  1  0
  2  3  1  0
  3  4  2  0
  3  5  1  0
  2  6  1  0
  6  7  2  0
  7  8  1  0
  8  9  2  0
  9 10  1  0
  6 11  1  0
 10 11  2  0
 10 12  1  0
 12 13  1  0
 13 14  1  0
 14 15  2  0
 15 16  1  0
 16 17  1  0
 16 18  2  0
  9 19  1  0
 13 19  2  0
 18 19  1  0
M  END
