MAK-UNK-ec98eaf6-12-chloroacetamide
     RDKit          3D

 23 26  0  0  0  0  0  0  0  0999 V2000
    7.0950   -2.9350   18.8850 C   0  0  0  0  0  0  0  0  0  0  0  0
    6.0160   -3.4160   19.8470 C   0  0  0  0  0  0  0  0  0  0  0  0
    4.9770   -3.8640   19.4140 O   0  0  0  0  0  0  0  0  0  0  0  0
    6.1240   -3.4450   21.2070 N   0  0  0  0  0  0  0  0  0  0  0  0
    5.8160   -4.7260   21.9160 C   0  0  0  0  0  0  0  0  0  0  0  0
    5.9800   -4.2320   23.3330 C   0  0  2  0  0  0  0  0  0  0  0  0
    5.4860   -2.7880   23.3400 C   0  0  0  0  0  0  0  0  0  0  0  0
    6.3790   -2.3540   22.2370 C   0  0  1  0  0  0  0  0  0  0  0  0
    7.7070   -2.6690   22.8080 C   0  0  1  0  0  0  0  0  0  0  0  0
    7.5050   -4.0780   23.3430 C   0  0  0  0  0  0  0  0  0  0  0  0
    8.7580   -2.5680   21.7610 C   0  0  0  0  0  0  0  0  0  0  0  0
    9.5610   -1.7460   22.6250 C   0  0  2  0  0  0  0  0  0  0  0  0
   10.7060   -1.0840   21.9440 C   0  0  0  0  0  0  0  0  0  0  0  0
   10.6880    0.2670   22.1350 N   0  0  0  0  0  0  0  0  0  0  0  0
   11.6310   -1.8170   21.2440 O   0  0  0  0  0  0  0  0  0  0  0  0
    9.7460   -2.2010   23.9890 C   0  0  1  0  0  0  0  0  0  0  0  0
   10.7850   -1.2110   23.8810 C   0  0  0  0  0  0  0  0  0  0  0  0
   11.9520   -1.6900   23.0850 C   0  0  0  0  0  0  0  0  0  0  0  0
   13.1340   -0.8470   22.7170 C   0  0  0  0  0  0  0  0  0  0  0  0
   13.0810    0.5760   23.2220 C   0  0  0  0  0  0  0  0  0  0  0  0
   11.8760    1.0170   24.0560 C   0  0  0  0  0  0  0  0  0  0  0  0
   10.7380    0.0750   24.3730 C   0  0  0  0  0  0  0  0  0  0  0  0
    8.2370   -1.8630   24.0460 C   0  0  0  0  0  0  0  0  0  0  0  0
  1  2  1  0
  2  3  2  0
  2  4  1  0
  4  5  1  0
  6  5  1  6
  6  7  1  0
  8  4  1  6
  7  8  1  0
  8  9  1  0
  6 10  1  0
  9 10  1  1
  9 11  1  0
 11 12  1  0
 12 13  1  6
 13 14  1  0
 13 15  2  0
 12 16  1  0
 16 17  1  1
 17 18  2  0
 18 19  1  0
 19 20  2  0
 20 21  1  0
 17 22  1  0
 21 22  2  0
  9 23  1  0
 16 23  1  0
M  END
