MAK-UNK-ec98eaf6-11-vinylsulfonamide
     RDKit          3D

 25 28  0  0  0  0  0  0  0  0999 V2000
    7.3070   -2.9240   18.9170 C   0  0  0  0  0  0  0  0  0  0  0  0
    5.9170   -2.5340   19.4550 C   0  0  0  0  0  0  0  0  0  0  0  0
    5.4510   -3.4900   20.8950 S   0  0  0  0  0  0  0  0  0  0  0  0
    4.4390   -2.9420   21.7270 O   0  0  0  0  0  0  0  0  0  0  0  0
    5.2350   -4.8450   20.4280 O   0  0  0  0  0  0  0  0  0  0  0  0
    6.8020   -3.3560   21.8650 N   0  0  0  0  0  0  0  0  0  0  0  0
    6.9170   -4.1350   23.1380 C   0  0  0  0  0  0  0  0  0  0  0  0
    7.5650   -3.0130   23.9720 C   0  0  2  0  0  0  0  0  0  0  0  0
    6.9620   -1.7180   23.4240 C   0  0  0  0  0  0  0  0  0  0  0  0
    7.3760   -1.9730   22.0150 C   0  0  1  0  0  0  0  0  0  0  0  0
    8.8270   -2.2030   22.2110 C   0  0  0  0  0  0  0  0  0  0  0  0
    8.9600   -2.9270   23.3780 N   0  0  0  0  0  0  0  0  0  0  0  0
   10.0090   -2.4380   24.2750 C   0  0  0  0  0  0  0  0  0  0  0  0
   11.1550   -1.8700   23.4530 C   0  0  0  0  0  0  0  0  0  0  0  0
   11.9350   -0.7430   23.4010 C   0  0  0  0  0  0  0  0  0  0  0  0
   12.9360   -1.0660   22.1140 N   0  0  0  0  0  0  0  0  0  0  0  0
   13.0460   -0.1170   22.6440 C   0  0  0  0  0  0  0  0  0  0  0  0
   12.3690    0.5360   23.8260 C   0  0  0  0  0  0  0  0  0  0  0  0
   10.9880    1.1540   23.7750 C   0  0  0  0  0  0  0  0  0  0  0  0
   10.7310    2.3140   22.8720 C   0  0  0  0  0  0  0  0  0  0  0  0
    9.3930    3.0130   22.7540 C   0  0  0  0  0  0  0  0  0  0  0  0
    8.2370    2.5020   23.6150 C   0  0  0  0  0  0  0  0  0  0  0  0
    8.5110    1.3040   24.5490 C   0  0  0  0  0  0  0  0  0  0  0  0
    9.9190    0.6880   24.5670 C   0  0  0  0  0  0  0  0  0  0  0  0
   12.2490   -1.8650   22.3020 S   0  0  0  0  0  0  0  0  0  0  0  0
  1  2  1  0
  3  2  1  0
  3  4  2  0
  3  5  2  0
  3  6  1  0
  6  7  1  0
  8  7  1  6
  8  9  1  0
  6 10  1  0
  9 10  1  0
 10 11  1  1
  8 12  1  0
 11 12  1  0
 12 13  1  0
 13 14  1  0
 14 15  2  0
 15 16  1  0
 16 17  2  0
 17 18  1  0
 18 19  1  0
 19 20  2  0
 20 21  1  0
 21 22  2  0
 22 23  1  0
 19 24  1  0
 23 24  2  0
 14 25  1  0
 17 25  1  0
M  END
