MAK-UNK-8fdbca50-4-vinylsulfonamide
     RDKit          3D

 41 44  0  0  0  0  0  0  0  0999 V2000
    6.7650   -4.8070   20.3200 C   0  0  0  0  0  0  0  0  0  0  0  0
    7.2400   -4.7340   21.7470 C   0  0  0  0  0  0  0  0  0  0  0  0
    6.4190   -3.3550   22.4310 S   0  0  0  0  0  0  0  0  0  0  0  0
    5.0070   -3.4090   21.5440 O   0  0  0  0  0  0  0  0  0  0  0  0
    6.2820   -3.6770   23.8360 O   0  0  0  0  0  0  0  0  0  0  0  0
    7.9080   -2.1870   22.5260 N   0  0  0  0  0  0  0  0  0  0  0  0
    9.0590   -2.1430   21.6140 C   0  0  0  0  0  0  0  0  0  0  0  0
   10.5590   -1.9250   22.0980 C   0  0  0  0  0  0  0  0  0  0  0  0
   10.4880   -0.9550   23.2100 C   0  0  0  0  0  0  0  0  0  0  0  0
    9.6770    0.1540   22.5320 C   0  0  0  0  0  0  0  0  0  0  0  0
    9.4330    0.1270   21.3350 O   0  0  0  0  0  0  0  0  0  0  0  0
    9.2070    1.1770   23.3550 N   0  0  0  0  0  0  0  0  0  0  0  0
   10.1660    1.5970   24.3800 C   0  0  0  0  0  0  0  0  0  0  0  0
    7.8930    1.2400   23.8300 C   0  0  2  0  0  0  0  0  0  0  0  0
    6.6610    0.9030   23.1620 C   0  0  0  0  0  0  0  0  0  0  0  0
    6.9830    2.4520   23.6570 C   0  0  1  0  0  0  0  0  0  0  0  0
    5.5640    2.5470   24.6680 S   0  0  0  0  0  0  0  0  0  0  0  0
    4.3590    2.1700   23.9660 O   0  0  0  0  0  0  0  0  0  0  0  0
    5.5920    3.6960   25.5440 O   0  0  0  0  0  0  0  0  0  0  0  0
    5.9740    1.1680   25.7250 C   0  0  0  0  0  0  0  0  0  0  0  0
    7.3510    0.8940   26.1290 C   0  0  0  0  0  0  0  0  0  0  0  0
    7.5380   -0.2690   27.0030 C   0  0  0  0  0  0  0  0  0  0  0  0
    6.4300   -1.0120   27.3790 C   0  0  0  0  0  0  0  0  0  0  0  0
    5.1540   -0.7260   26.9790 N   0  0  0  0  0  0  0  0  0  0  0  0
    4.9510    0.3480   26.1670 C   0  0  0  0  0  0  0  0  0  0  0  0
    7.7280    3.6520   24.0740 C   0  0  0  0  0  0  0  0  0  0  0  0
    7.8030    4.4980   23.0320 C   0  0  0  0  0  0  0  0  0  0  0  0
    8.4490    5.7430   23.1090 C   0  0  0  0  0  0  0  0  0  0  0  0
    7.6440    6.8160   22.9550 N   0  0  0  0  0  0  0  0  0  0  0  0
    7.4100    7.1620   21.5580 C   0  0  0  0  0  0  0  0  0  0  0  0
    7.2590    4.2680   21.7520 C   0  0  0  0  0  0  0  0  0  0  0  0
    6.7400    2.9740   22.1750 C   0  0  0  0  0  0  0  0  0  0  0  0
    6.0490    2.2950   21.1350 C   0  0  0  0  0  0  0  0  0  0  0  0
    7.4030    1.7620   20.8840 C   0  0  0  0  0  0  0  0  0  0  0  0
    6.6790    1.0340   19.7620 C   0  0  0  0  0  0  0  0  0  0  0  0
    5.2730    1.2760   19.6360 C   0  0  0  0  0  0  0  0  0  0  0  0
    4.4620    2.1470   20.4700 C   0  0  0  0  0  0  0  0  0  0  0  0
    4.9370    2.9200   21.5700 C   0  0  0  0  0  0  0  0  0  0  0  0
    3.6340    3.2570   21.5940 F   0  0  0  0  0  0  0  0  0  0  0  0
    9.7340   -1.6510   24.2990 C   0  0  0  0  0  0  0  0  0  0  0  0
    8.2710   -1.5650   23.8860 C   0  0  0  0  0  0  0  0  0  0  0  0
  1  2  1  0
  3  2  1  0
  3  4  2  0
  3  5  2  0
  3  6  1  0
  6  7  1  0
  7  8  1  0
  8  9  1  0
  9 10  1  0
 10 11  2  0
 10 12  1  0
 12 13  1  0
 12 14  1  0
 14 15  1  6
 14 16  1  0
 16 17  1  1
 17 18  2  0
 17 19  2  0
 17 20  1  0
 20 21  2  0
 21 22  1  0
 22 23  2  0
 23 24  1  0
 20 25  1  0
 24 25  2  0
 16 26  1  0
 26 27  2  0
 27 28  1  0
 28 29  1  0
 29 30  1  0
 27 31  1  0
 16 32  1  0
 31 32  2  0
 32 33  1  0
 33 34  2  0
 34 35  1  0
 35 36  2  0
 36 37  1  0
 33 38  1  0
 37 38  2  0
 38 39  1  0
  9 40  1  0
  6 41  1  0
 40 41  1  0
M  END
