MAK-UNK-3e0761f8-8-vinylsulfonamide
     RDKit          3D

 22 24  0  0  0  0  0  0  0  0999 V2000
    6.5440   -3.9200   19.7330 C   0  0  0  0  0  0  0  0  0  0  0  0
    7.0630   -3.1030   20.8780 C   0  0  0  0  0  0  0  0  0  0  0  0
    6.2010   -3.6100   22.3320 S   0  0  0  0  0  0  0  0  0  0  0  0
    4.8020   -3.8600   22.0280 O   0  0  0  0  0  0  0  0  0  0  0  0
    6.9940   -4.6240   22.9930 O   0  0  0  0  0  0  0  0  0  0  0  0
    6.3430   -2.2060   23.2320 N   0  0  0  0  0  0  0  0  0  0  0  0
    6.9700   -2.2250   24.5630 C   0  0  0  0  0  0  0  0  0  0  0  0
    8.3840   -1.6120   24.2700 C   0  0  2  0  0  0  0  0  0  0  0  0
    7.3290   -0.4680   23.9720 C   0  0  0  0  0  0  0  0  0  0  0  0
    6.8230   -0.9670   22.6320 C   0  0  1  0  0  0  0  0  0  0  0  0
    8.2590   -0.9610   22.0680 C   0  0  0  0  0  0  0  0  0  0  0  0
    8.9070   -0.4680   23.3750 C   0  0  2  0  0  0  0  0  0  0  0  0
   10.3760   -0.3740   23.1850 C   0  0  0  0  0  0  0  0  0  0  0  0
   11.0330    0.8910   23.1970 O   0  0  0  0  0  0  0  0  0  0  0  0
   10.9850   -1.5920   22.9750 N   0  0  0  0  0  0  0  0  0  0  0  0
   11.0230   -2.0270   21.6620 C   0  0  0  0  0  0  0  0  0  0  0  0
   11.4630   -2.4410   24.0230 C   0  0  0  0  0  0  0  0  0  0  0  0
   12.9780   -2.1950   24.8490 C   0  0  0  0  0  0  0  0  0  0  0  0
   13.0020   -1.2070   24.0360 C   0  0  0  0  0  0  0  0  0  0  0  0
   12.0030   -1.9170   23.9500 C   0  0  0  0  0  0  0  0  0  0  0  0
   11.5360   -3.0240   24.5600 C   0  0  0  0  0  0  0  0  0  0  0  0
   10.5680   -3.6330   24.4080 C   0  0  0  0  0  0  0  0  0  0  0  0
  1  2  1  0
  3  2  1  0
  3  4  2  0
  3  5  2  0
  3  6  1  0
  6  7  1  0
  8  7  1  6
  8  9  1  0
  6 10  1  0
  9 10  1  0
 10 11  1  6
  8 12  1  0
 11 12  1  0
 12 13  1  6
 13 14  2  0
 13 15  1  0
 15 16  1  0
 15 17  1  0
 17 18  2  0
 18 19  1  0
 19 20  2  0
 20 21  1  0
 17 22  1  0
 21 22  2  0
M  END
