MAK-UNK-8fdbca50-15-acrylamide
     RDKit          3D

 40 43  0  0  0  0  0  0  0  0999 V2000
    6.5690   -4.7220   20.6550 C   0  0  0  0  0  0  0  0  0  0  0  0
    7.2330   -3.3930   20.8480 C   0  0  0  0  0  0  0  0  0  0  0  0
    6.2900   -2.4650   21.5620 C   0  0  0  0  0  0  0  0  0  0  0  0
    5.1550   -3.3560   21.1300 O   0  0  0  0  0  0  0  0  0  0  0  0
    7.8510   -1.6700   21.7750 N   0  0  0  0  0  0  0  0  0  0  0  0
    8.2200   -0.4280   22.4800 C   0  0  0  0  0  0  0  0  0  0  0  0
    9.2830   -0.1430   23.5700 C   0  0  0  0  0  0  0  0  0  0  0  0
   10.6700   -0.5410   23.0440 C   0  0  0  0  0  0  0  0  0  0  0  0
   10.9960   -1.5080   24.1300 C   0  0  0  0  0  0  0  0  0  0  0  0
   12.0080   -1.6350   24.7840 O   0  0  0  0  0  0  0  0  0  0  0  0
   10.0600   -2.3810   24.0560 N   0  0  0  0  0  0  0  0  0  0  0  0
   10.5180   -2.6780   22.7450 C   0  0  0  0  0  0  0  0  0  0  0  0
    8.7540   -1.8710   23.9200 C   0  0  1  0  0  0  0  0  0  0  0  0
    7.8360   -1.4680   24.8470 C   0  0  0  0  0  0  0  0  0  0  0  0
    8.4870   -0.3350   23.5330 C   0  0  0  0  0  0  0  0  0  0  0  0
    8.4800    0.7480   24.6820 C   0  0  0  0  0  0  0  0  0  0  0  0
    8.2790    2.1480   24.2650 C   0  0  0  0  0  0  0  0  0  0  0  0
    8.1120    2.5730   22.9570 C   0  0  0  0  0  0  0  0  0  0  0  0
    8.1040    1.6430   22.0090 C   0  0  0  0  0  0  0  0  0  0  0  0
    7.8490    2.0560   20.7010 F   0  0  0  0  0  0  0  0  0  0  0  0
    8.2390    0.2560   22.2130 C   0  0  0  0  0  0  0  0  0  0  0  0
    8.1530   -0.6930   21.1180 C   0  0  0  0  0  0  0  0  0  0  0  0
    7.4640   -0.6910   20.0250 C   0  0  0  0  0  0  0  0  0  0  0  0
    7.6370   -1.7720   19.3560 C   0  0  0  0  0  0  0  0  0  0  0  0
    7.0790   -2.1810   18.0440 C   0  0  0  0  0  0  0  0  0  0  0  0
    7.4260   -1.5450   16.9170 N   0  0  0  0  0  0  0  0  0  0  0  0
    6.9110   -1.9750   15.6840 C   0  0  0  0  0  0  0  0  0  0  0  0
    8.5610   -2.4400   20.1100 C   0  0  0  0  0  0  0  0  0  0  0  0
    8.9240   -1.7160   21.2860 N   0  0  0  0  0  0  0  0  0  0  0  0
    9.2910   -0.7760   22.6590 S   0  0  0  0  0  0  0  0  0  0  0  0
    8.0060   -0.8210   23.3520 O   0  0  0  0  0  0  0  0  0  0  0  0
   10.1570    0.4110   22.3820 O   0  0  0  0  0  0  0  0  0  0  0  0
   10.3280   -2.1790   22.8030 C   0  0  0  0  0  0  0  0  0  0  0  0
   11.3250   -2.6830   23.8660 C   0  0  0  0  0  0  0  0  0  0  0  0
   12.1400   -3.8460   23.5320 C   0  0  0  0  0  0  0  0  0  0  0  0
   11.7230   -4.3830   22.1880 C   0  0  0  0  0  0  0  0  0  0  0  0
   10.8800   -4.0090   21.2590 N   0  0  0  0  0  0  0  0  0  0  0  0
   10.2280   -2.8830   21.6720 C   0  0  0  0  0  0  0  0  0  0  0  0
   10.4740   -1.0480   21.6430 C   0  0  0  0  0  0  0  0  0  0  0  0
    9.2510   -2.1710   21.5020 C   0  0  0  0  0  0  0  0  0  0  0  0
  1  2  1  0
  2  3  1  0
  3  4  2  0
  3  5  1  0
  5  6  1  0
  6  7  1  0
  7  8  1  0
  8  9  1  0
  9 10  2  0
  9 11  1  0
 11 12  1  0
 11 13  1  0
 13 14  1  1
 13 15  1  0
 15 16  2  0
 16 17  1  0
 17 18  2  0
 18 19  1  0
 19 20  1  0
 15 21  1  0
 19 21  2  0
 21 22  1  0
 22 23  2  0
 23 24  1  0
 24 25  1  0
 25 26  1  0
 26 27  1  0
 24 28  2  0
 22 29  1  0
 28 29  1  0
 29 30  1  0
 30 31  2  0
 30 32  2  0
 30 33  1  0
 33 34  2  0
 34 35  1  0
 35 36  2  0
 36 37  1  0
 33 38  1  0
 37 38  2  0
  8 39  1  0
  5 40  1  0
 39 40  1  0
M  END
