MAK-UNK-3e0761f8-4-acrylamide
     RDKit          3D

 25 27  0  0  0  0  0  0  0  0999 V2000
    7.6580   -2.8490   18.5700 C   0  0  0  0  0  0  0  0  0  0  0  0
    6.1990   -2.6700   18.8930 C   0  0  0  0  0  0  0  0  0  0  0  0
    5.8220   -3.3490   20.1570 C   0  0  0  0  0  0  0  0  0  0  0  0
    5.2310   -4.4290   20.0480 O   0  0  0  0  0  0  0  0  0  0  0  0
    6.2000   -2.7480   21.3570 N   0  0  0  0  0  0  0  0  0  0  0  0
    6.1080   -3.4010   22.6740 C   0  0  0  0  0  0  0  0  0  0  0  0
    6.9720   -2.4770   23.4530 C   0  0  2  0  0  0  0  0  0  0  0  0
    6.3160   -1.3980   22.8210 C   0  0  0  0  0  0  0  0  0  0  0  0
    6.8660   -1.4220   21.5620 C   0  0  1  0  0  0  0  0  0  0  0  0
    8.2210   -1.5310   21.9510 C   0  0  0  0  0  0  0  0  0  0  0  0
    8.2430   -1.8570   23.3400 N   0  0  0  0  0  0  0  0  0  0  0  0
    9.2770   -2.3010   24.1640 C   0  0  1  0  0  0  0  0  0  0  0  0
    9.4370   -3.6830   24.0380 C   0  0  0  0  0  0  0  0  0  0  0  0
    8.3210   -4.4860   24.2000 N   0  0  0  0  0  0  0  0  0  0  0  0
    8.6670   -6.1040   24.5820 S   0  0  0  0  0  0  0  0  0  0  0  0
    9.6460   -6.0060   25.9820 C   0  0  0  0  0  0  0  0  0  0  0  0
    7.4030   -6.7130   24.9240 O   0  0  0  0  0  0  0  0  0  0  0  0
    9.4590   -6.6190   23.4910 O   0  0  0  0  0  0  0  0  0  0  0  0
   10.3520   -1.4820   23.8830 C   0  0  0  0  0  0  0  0  0  0  0  0
   10.7030   -0.3000   24.5150 C   0  0  0  0  0  0  0  0  0  0  0  0
   11.7980    0.4400   24.1430 C   0  0  0  0  0  0  0  0  0  0  0  0
   12.6380    0.0760   23.1360 C   0  0  0  0  0  0  0  0  0  0  0  0
   12.4500   -1.0610   22.4060 C   0  0  0  0  0  0  0  0  0  0  0  0
   13.2940   -1.4270   21.3990 C   0  0  0  0  0  0  0  0  0  0  0  0
   11.2590   -1.7920   22.8490 C   0  0  0  0  0  0  0  0  0  0  0  0
  1  2  1  0
  2  3  1  0
  3  4  2  0
  3  5  1  0
  5  6  1  0
  7  6  1  6
  7  8  1  0
  5  9  1  0
  8  9  1  0
  9 10  1  1
  7 11  1  0
 10 11  1  0
 11 12  1  0
 12 13  1  6
 13 14  1  0
 15 14  1  0
 15 16  1  0
 15 17  2  0
 15 18  2  0
 12 19  1  0
 19 20  2  0
 20 21  1  0
 21 22  2  0
 22 23  1  0
 23 24  1  0
 19 25  1  0
 23 25  2  0
M  END
