MAK-UNK-6ca90168-14-chloroacetamide
     RDKit          3D

 18 19  0  0  0  0  0  0  0  0999 V2000
    7.1250   -2.9560   18.7490 C   0  0  0  0  0  0  0  0  0  0  0  0
    6.1950   -3.2970   19.8800 C   0  0  0  0  0  0  0  0  0  0  0  0
    5.3480   -4.1860   19.7680 O   0  0  0  0  0  0  0  0  0  0  0  0
    6.3390   -2.5800   21.0790 N   0  0  0  0  0  0  0  0  0  0  0  0
    6.1020   -3.1180   22.4120 C   0  0  0  0  0  0  0  0  0  0  0  0
    7.4410   -3.4750   23.0800 C   0  0  0  0  0  0  0  0  0  0  0  0
    8.4510   -2.4020   23.0600 N   0  0  0  0  0  0  0  0  0  0  0  0
    9.6220   -2.5170   23.8330 C   0  0  0  0  0  0  0  0  0  0  0  0
   10.4130   -1.3930   23.6990 C   0  0  0  0  0  0  0  0  0  0  0  0
   11.5830   -1.6460   22.9030 C   0  0  0  0  0  0  0  0  0  0  0  0
   12.4390   -0.5360   22.6860 C   0  0  0  0  0  0  0  0  0  0  0  0
   12.0390    0.7120   23.2810 C   0  0  0  0  0  0  0  0  0  0  0  0
   13.0110    1.8240   22.9460 C   0  0  0  0  0  0  0  0  0  0  0  0
   12.4930    3.1040   22.7170 N   0  0  0  0  0  0  0  0  0  0  0  0
   10.9420    0.9710   24.0510 C   0  0  0  0  0  0  0  0  0  0  0  0
   10.0530   -0.1990   24.2760 C   0  0  0  0  0  0  0  0  0  0  0  0
    8.5490   -1.7220   21.7520 C   0  0  0  0  0  0  0  0  0  0  0  0
    7.2690   -1.4340   21.0850 C   0  0  0  0  0  0  0  0  0  0  0  0
  1  2  1  0
  2  3  2  0
  2  4  1  0
  4  5  1  0
  5  6  1  0
  6  7  1  0
  7  8  1  0
  8  9  1  0
  9 10  2  0
 10 11  1  0
 11 12  2  0
 12 13  1  0
 13 14  3  0
 12 15  1  0
  9 16  1  0
 15 16  2  0
  7 17  1  0
  4 18  1  0
 17 18  1  0
M  END
