MAK-UNK-2084232d-7
     RDKit          3D

 26 29  0  0  0  0  0  0  0  0999 V2000
   12.2890   -4.3640   26.4000 N   0  0  0  0  0  0  0  0  0  0  0  0
   10.9410   -4.6950   26.2190 C   0  0  0  0  0  0  0  0  0  0  0  0
   10.1460   -3.7770   25.4010 C   0  0  2  0  0  0  0  0  0  0  0  0
    9.2890   -4.2840   24.6570 O   0  0  0  0  0  0  0  0  0  0  0  0
    9.1010   -3.6950   23.3670 C   0  0  1  0  0  0  0  0  0  0  0  0
    7.9860   -4.2320   22.7820 C   0  0  1  0  0  0  0  0  0  0  0  0
    7.5320   -5.3970   23.3680 C   0  0  0  0  0  0  0  0  0  0  0  0
    6.4360   -6.0110   22.7750 C   0  0  0  0  0  0  0  0  0  0  0  0
    5.5300   -5.2260   22.0430 C   0  0  0  0  0  0  0  0  0  0  0  0
    5.8950   -3.9100   21.7480 N   0  0  0  0  0  0  0  0  0  0  0  0
    6.1810   -3.5320   20.3660 C   0  0  0  0  0  0  0  0  0  0  0  0
    5.8000   -2.0740   20.0380 C   0  0  0  0  0  0  0  0  0  0  0  0
    5.9800   -1.5190   18.6420 C   0  0  0  0  0  0  0  0  0  0  0  0
    5.4730    0.1030   18.5570 S   0  0  0  0  0  0  0  0  0  0  0  0
    5.0720    0.0060   20.2400 C   0  0  0  0  0  0  0  0  0  0  0  0
    5.2870   -1.1680   20.9010 N   0  0  0  0  0  0  0  0  0  0  0  0
    6.9120   -3.3770   22.6830 C   0  0  0  0  0  0  0  0  0  0  0  0
    9.2130   -2.3290   23.4720 C   0  0  0  0  0  0  0  0  0  0  0  0
   10.6410   -2.0270   23.7440 C   0  0  0  0  0  0  0  0  0  0  0  0
   11.1160   -2.8100   24.7330 C   0  0  0  0  0  0  0  0  0  0  0  0
   12.4490   -2.7150   25.1000 C   0  0  0  0  0  0  0  0  0  0  0  0
   13.2610   -1.8140   24.4530 C   0  0  0  0  0  0  0  0  0  0  0  0
   12.7500   -1.0010   23.4430 C   0  0  0  0  0  0  0  0  0  0  0  0
   13.5070   -0.2170   22.8950 O   0  0  0  0  0  0  0  0  0  0  0  0
   11.4170   -1.1100   23.0840 C   0  0  0  0  0  0  0  0  0  0  0  0
   10.9350   -0.2740   22.0420 O   0  0  0  0  0  0  0  0  0  0  0  0
  1  2  1  0
  3  2  1  6
  3  4  1  0
  4  5  1  0
  5  6  1  0
  6  7  1  1
  7  8  1  0
  8  9  1  0
  9 10  1  0
 10 11  1  0
 11 12  1  0
 12 13  2  0
 13 14  1  0
 14 15  1  0
 12 16  1  0
 15 16  2  0
  6 17  1  0
 10 17  1  0
  5 18  1  1
 18 19  1  0
  3 20  1  0
 19 20  2  0
 20 21  1  0
 21 22  2  0
 22 23  1  0
 23 24  1  0
 19 25  1  0
 23 25  2  0
 25 26  1  0
M  END
