MAK-UNK-9159f8ed-2
     RDKit          3D

 29 31  0  0  0  0  0  0  0  0999 V2000
   11.6810   -0.7400   24.7540 C   0  0  0  0  0  0  0  0  0  0  0  0
   11.5420   -0.1390   23.4680 O   0  0  0  0  0  0  0  0  0  0  0  0
   10.8550    1.0470   23.3730 C   0  0  0  0  0  0  0  0  0  0  0  0
   11.2210    2.0320   23.9900 O   0  0  0  0  0  0  0  0  0  0  0  0
    9.6210    1.1810   22.4880 C   0  0  0  0  0  0  0  0  0  0  0  0
    9.0420    2.5930   22.4460 C   0  0  0  0  0  0  0  0  0  0  0  0
    7.8070    2.7980   21.5780 C   0  0  0  0  0  0  0  0  0  0  0  0
    7.2090    1.6310   20.8030 C   0  0  0  0  0  0  0  0  0  0  0  0
    7.9150    0.2820   20.9570 C   0  0  0  0  0  0  0  0  0  0  0  0
    7.4060   -0.8640   20.2500 N   0  0  0  0  0  0  0  0  0  0  0  0
    7.5970   -2.2990   21.1220 S   0  0  0  0  0  0  0  0  0  0  0  0
    8.8850   -2.8310   20.8300 O   0  0  0  0  0  0  0  0  0  0  0  0
    7.2320   -2.0090   22.4920 O   0  0  0  0  0  0  0  0  0  0  0  0
    6.3990   -3.5690   20.6390 C   0  0  0  0  0  0  0  0  0  0  0  0
    5.7010   -3.5820   19.6230 O   0  0  0  0  0  0  0  0  0  0  0  0
    6.4520   -4.5110   21.6560 N   0  0  0  0  0  0  0  0  0  0  0  0
    5.5120   -4.7460   22.6180 C   0  0  0  0  0  0  0  0  0  0  0  0
    5.1130   -6.0740   22.6150 C   0  0  0  0  0  0  0  0  0  0  0  0
    4.0740   -6.5510   23.6070 C   0  0  0  0  0  0  0  0  0  0  0  0
    3.6120   -5.5630   24.4590 C   0  0  0  0  0  0  0  0  0  0  0  0
    4.0200   -4.2230   24.4570 C   0  0  0  0  0  0  0  0  0  0  0  0
    3.5070   -3.3360   25.3330 N   0  0  0  0  0  0  0  0  0  0  0  0
    2.2550   -3.5820   25.7890 C   0  0  0  0  0  0  0  0  0  0  0  0
    2.0280   -2.5370   26.6840 C   0  0  0  0  0  0  0  0  0  0  0  0
    3.3560   -1.9670   27.0930 C   0  0  0  0  0  0  0  0  0  0  0  0
    4.2030   -2.4190   26.1530 C   0  0  0  0  0  0  0  0  0  0  0  0
    5.3640   -2.0440   26.0910 O   0  0  0  0  0  0  0  0  0  0  0  0
    4.9770   -3.8230   23.5210 C   0  0  0  0  0  0  0  0  0  0  0  0
    9.0540    0.1150   21.7660 C   0  0  0  0  0  0  0  0  0  0  0  0
  1  2  1  0
  2  3  1  0
  3  4  2  0
  3  5  1  0
  5  6  2  0
  6  7  1  0
  7  8  2  0
  8  9  1  0
  9 10  1  0
 10 11  1  0
 11 12  2  0
 11 13  2  0
 11 14  1  0
 14 15  2  0
 14 16  1  0
 16 17  1  0
 17 18  2  0
 18 19  1  0
 19 20  2  0
 20 21  1  0
 21 22  1  0
 22 23  1  0
 23 24  1  0
 24 25  1  0
 22 26  1  0
 25 26  1  0
 26 27  2  0
 17 28  1  0
 21 28  2  0
  5 29  1  0
  9 29  2  0
M  END
