MAK-UNK-902cc841-6
     RDKit          3D

 32 35  0  0  0  0  0  0  0  0999 V2000
    5.9760   -1.3170   18.4700 C   0  0  0  0  0  0  0  0  0  0  0  0
    5.5320   -1.6340   19.8730 C   0  0  0  0  0  0  0  0  0  0  0  0
    5.0940   -2.7550   20.1400 O   0  0  0  0  0  0  0  0  0  0  0  0
    5.6500   -0.6150   20.8210 N   0  0  0  0  0  0  0  0  0  0  0  0
    5.6480   -0.8630   22.2540 C   0  0  0  0  0  0  0  0  0  0  0  0
    6.9200   -0.7960   22.7910 C   0  0  0  0  0  0  0  0  0  0  0  0
    7.5220    0.4220   22.7090 N   0  0  0  0  0  0  0  0  0  0  0  0
    8.8590    0.4690   23.4230 C   0  0  1  0  0  0  0  0  0  0  0  0
    9.6350   -0.6750   23.1640 C   0  0  0  0  0  0  0  0  0  0  0  0
    9.6970   -1.1220   22.0230 O   0  0  0  0  0  0  0  0  0  0  0  0
   10.3260   -1.3000   24.2300 N   0  0  0  0  0  0  0  0  0  0  0  0
    9.5860   -2.2980   25.0230 C   0  0  0  0  0  0  0  0  0  0  0  0
   10.4050   -3.3630   25.7500 C   0  0  0  0  0  0  0  0  0  0  0  0
    9.6960   -4.4210   26.5830 C   0  0  0  0  0  0  0  0  0  0  0  0
    8.1680   -4.4110   26.6880 C   0  0  0  0  0  0  0  0  0  0  0  0
    7.4900   -5.3120   27.4060 F   0  0  0  0  0  0  0  0  0  0  0  0
    7.4730   -3.2870   25.9110 C   0  0  0  0  0  0  0  0  0  0  0  0
    8.1790   -2.3320   25.1530 C   0  0  0  0  0  0  0  0  0  0  0  0
   11.8190   -1.2630   24.3350 C   0  0  2  0  0  0  0  0  0  0  0  0
   12.5100   -0.1710   23.6730 C   0  0  0  0  0  0  0  0  0  0  0  0
   12.9720   -0.7050   22.3040 C   0  0  0  0  0  0  0  0  0  0  0  0
   12.4590   -2.3360   22.1140 S   0  0  0  0  0  0  0  0  0  0  0  0
   13.4580   -3.1240   21.4600 O   0  0  0  0  0  0  0  0  0  0  0  0
   11.0890   -2.3900   21.6920 O   0  0  0  0  0  0  0  0  0  0  0  0
   12.5100   -2.5450   23.8850 C   0  0  0  0  0  0  0  0  0  0  0  0
    9.6600    1.7320   23.1230 C   0  0  0  0  0  0  0  0  0  0  0  0
    9.1450    2.9620   22.7730 C   0  0  0  0  0  0  0  0  0  0  0  0
   10.1200    3.9110   22.5760 C   0  0  0  0  0  0  0  0  0  0  0  0
   11.6960    3.3200   22.8060 S   0  0  0  0  0  0  0  0  0  0  0  0
   11.0480    1.7860   23.1770 C   0  0  0  0  0  0  0  0  0  0  0  0
    7.5200    1.0020   21.3440 C   0  0  0  0  0  0  0  0  0  0  0  0
    6.3100    0.6330   20.4450 C   0  0  0  0  0  0  0  0  0  0  0  0
  1  2  1  0
  2  3  2  0
  2  4  1  0
  4  5  1  0
  5  6  1  0
  6  7  1  0
  7  8  1  0
  8  9  1  6
  9 10  2  0
  9 11  1  0
 11 12  1  0
 12 13  2  0
 13 14  1  0
 14 15  2  0
 15 16  1  0
 15 17  1  0
 12 18  1  0
 17 18  2  0
 19 11  1  6
 19 20  1  0
 20 21  2  0
 22 21  1  0
 22 23  2  0
 22 24  2  0
 19 25  1  0
 22 25  1  0
  8 26  1  0
 26 27  1  0
 27 28  2  0
 28 29  1  0
 26 30  2  0
 29 30  1  0
  7 31  1  0
  4 32  1  0
 31 32  1  0
M  END
