MAK-UNK-10799360-20-vinylsulfonamide
     RDKit          3D

 27 30  0  0  0  0  0  0  0  0999 V2000
    7.8160   -3.3330   19.8180 C   0  0  0  0  0  0  0  0  0  0  0  0
    6.9670   -2.4900   18.8870 C   0  0  0  0  0  0  0  0  0  0  0  0
    5.4750   -2.5540   19.7560 S   0  0  0  0  0  0  0  0  0  0  0  0
    4.9100   -3.8760   19.5270 O   0  0  0  0  0  0  0  0  0  0  0  0
    4.7730   -1.3060   19.5760 O   0  0  0  0  0  0  0  0  0  0  0  0
    6.1900   -2.5610   21.2710 N   0  0  0  0  0  0  0  0  0  0  0  0
    5.6830   -3.3130   22.3990 C   0  0  0  0  0  0  0  0  0  0  0  0
    6.8450   -2.9780   23.4020 C   0  0  2  0  0  0  0  0  0  0  0  0
    6.0010   -1.6550   23.2520 C   0  0  0  0  0  0  0  0  0  0  0  0
    6.5410   -1.3000   21.8620 C   0  0  1  0  0  0  0  0  0  0  0  0
    8.0160   -1.3080   22.2400 C   0  0  0  0  0  0  0  0  0  0  0  0
    7.7640   -1.8180   23.5990 N   0  0  0  0  0  0  0  0  0  0  0  0
    8.9400   -1.8390   24.4610 C   0  0  0  0  0  0  0  0  0  0  0  0
    9.8860   -0.6790   24.2050 C   0  0  0  0  0  0  0  0  0  0  0  0
    9.4320    0.6290   24.4520 C   0  0  0  0  0  0  0  0  0  0  0  0
   10.2530    1.7160   24.2250 C   0  0  0  0  0  0  0  0  0  0  0  0
   11.5130    1.4750   23.7700 C   0  0  0  0  0  0  0  0  0  0  0  0
   12.0000    0.2350   23.5250 C   0  0  0  0  0  0  0  0  0  0  0  0
   11.1900   -0.8960   23.7250 C   0  0  0  0  0  0  0  0  0  0  0  0
   11.5690   -2.2240   23.4830 C   0  0  0  0  0  0  0  0  0  0  0  0
   12.4860   -2.4130   22.4700 N   0  0  0  0  0  0  0  0  0  0  0  0
   12.1280   -3.1450   21.4280 C   0  0  0  0  0  0  0  0  0  0  0  0
   13.1330   -3.7280   20.6540 C   0  0  0  0  0  0  0  0  0  0  0  0
   10.8230   -3.2050   21.0880 O   0  0  0  0  0  0  0  0  0  0  0  0
   12.5080   -1.3550   21.6730 C   0  0  0  0  0  0  0  0  0  0  0  0
   13.4840   -0.6220   22.0280 C   0  0  0  0  0  0  0  0  0  0  0  0
   13.3800    0.2210   23.0580 C   0  0  0  0  0  0  0  0  0  0  0  0
  1  2  1  0
  3  2  1  0
  3  4  2  0
  3  5  2  0
  3  6  1  0
  6  7  1  0
  8  7  1  6
  8  9  1  0
  6 10  1  0
  9 10  1  0
 10 11  1  1
  8 12  1  0
 11 12  1  0
 12 13  1  0
 13 14  1  0
 14 15  2  0
 15 16  1  0
 16 17  2  0
 17 18  1  0
 14 19  1  0
 18 19  2  0
 19 20  1  0
 20 21  1  0
 21 22  1  0
 22 23  1  0
 22 24  2  0
 21 25  1  0
 25 26  1  0
 18 27  1  0
 26 27  1  0
M  END
