MAK-UNK-10799360-13-vinylsulfonamide
     RDKit          3D

 27 30  0  0  0  0  0  0  0  0999 V2000
    7.5830   -3.1870   19.2720 C   0  0  0  0  0  0  0  0  0  0  0  0
    6.5280   -3.7930   20.1650 C   0  0  0  0  0  0  0  0  0  0  0  0
    5.5480   -2.4850   20.7960 S   0  0  0  0  0  0  0  0  0  0  0  0
    4.6320   -3.1330   21.7250 O   0  0  0  0  0  0  0  0  0  0  0  0
    5.0360   -1.7690   19.6510 O   0  0  0  0  0  0  0  0  0  0  0  0
    6.7500   -1.4970   21.4680 N   0  0  0  0  0  0  0  0  0  0  0  0
    7.4020   -0.5530   20.5130 C   0  0  0  0  0  0  0  0  0  0  0  0
    6.8130    0.8210   20.9790 C   0  0  2  0  0  0  0  0  0  0  0  0
    7.8940    1.2920   21.9530 C   0  0  0  0  0  0  0  0  0  0  0  0
    7.7720    0.1590   23.0160 C   0  0  2  0  0  0  0  0  0  0  0  0
    9.1760   -0.5660   22.8530 C   0  0  0  0  0  0  0  0  0  0  0  0
   10.4910   -0.1840   22.7500 N   0  0  0  0  0  0  0  0  0  0  0  0
   11.1880   -1.6580   22.5850 C   0  0  0  0  0  0  0  0  0  0  0  0
    9.7820   -2.1300   22.7670 C   0  0  0  0  0  0  0  0  0  0  0  0
    9.3120   -3.4620   22.7690 C   0  0  0  0  0  0  0  0  0  0  0  0
    9.7190   -4.1410   23.9230 C   0  0  0  0  0  0  0  0  0  0  0  0
    8.7740   -5.6210   24.2490 S   0  0  0  0  0  0  0  0  0  0  0  0
    9.2180   -5.8510   25.8470 N   0  0  0  0  0  0  0  0  0  0  0  0
    7.3600   -5.3250   24.2660 O   0  0  0  0  0  0  0  0  0  0  0  0
    9.2760   -6.7430   23.4810 O   0  0  0  0  0  0  0  0  0  0  0  0
    8.9420   -0.9800   22.9690 C   0  0  0  0  0  0  0  0  0  0  0  0
    9.5060    0.3740   22.9680 C   0  0  0  0  0  0  0  0  0  0  0  0
   10.8910    0.5820   22.7690 C   0  0  0  0  0  0  0  0  0  0  0  0
   11.5510   -0.6020   22.5990 C   0  0  0  0  0  0  0  0  0  0  0  0
   10.1010   -1.8420   22.7070 S   0  0  0  0  0  0  0  0  0  0  0  0
    6.4610   -0.6230   22.6120 C   0  0  1  0  0  0  0  0  0  0  0  0
    5.6500    0.4490   21.9070 C   0  0  0  0  0  0  0  0  0  0  0  0
  1  2  1  0
  3  2  1  0
  3  4  2  0
  3  5  2  0
  3  6  1  0
  6  7  1  0
  8  7  1  1
  8  9  1  0
  9 10  1  0
 10 11  1  6
 11 12  2  0
 12 13  1  0
 13 14  2  0
 14 15  1  0
 15 16  1  0
 16 17  1  0
 17 18  1  0
 17 19  2  0
 17 20  2  0
 14 21  1  0
 21 22  2  0
 22 23  1  0
 13 24  1  0
 23 24  2  0
 11 25  1  0
 24 25  1  0
 26  6  1  6
 10 26  1  0
  8 27  1  0
 26 27  1  0
M  END
