MAK-UNK-0955449e-31
     RDKit          3D

 36 39  0  0  0  0  0  0  0  0999 V2000
    6.5100   -6.4210   21.9980 C   0  0  0  0  0  0  0  0  0  0  0  0
    7.3020   -5.2940   22.1100 N   0  0  0  0  0  0  0  0  0  0  0  0
    6.8880   -4.3560   23.0450 C   0  0  0  0  0  0  0  0  0  0  0  0
    7.5060   -3.0770   23.0530 C   0  0  0  0  0  0  0  0  0  0  0  0
    7.3540   -2.0520   22.2950 C   0  0  0  0  0  0  0  0  0  0  0  0
    6.8410   -3.2890   22.4030 C   0  0  0  0  0  0  0  0  0  0  0  0
    5.5690   -3.6110   21.1570 S   0  0  0  0  0  0  0  0  0  0  0  0
    4.3310   -3.7380   21.8700 O   0  0  0  0  0  0  0  0  0  0  0  0
    5.9020   -4.6670   20.2280 O   0  0  0  0  0  0  0  0  0  0  0  0
    5.4320   -2.0370   20.2920 C   0  0  0  0  0  0  0  0  0  0  0  0
    5.0620   -0.7920   21.0680 C   0  0  0  0  0  0  0  0  0  0  0  0
    4.9370    0.5250   20.3710 C   0  0  0  0  0  0  0  0  0  0  0  0
    5.2030    0.5300   18.8780 C   0  0  0  0  0  0  0  0  0  0  0  0
    5.5340   -0.5390   18.1640 N   0  0  0  0  0  0  0  0  0  0  0  0
    5.6420   -1.8550   18.9250 C   0  0  0  0  0  0  0  0  0  0  0  0
    7.5440   -4.2020   23.7130 C   0  0  0  0  0  0  0  0  0  0  0  0
    8.4340   -4.3770   24.8370 C   0  0  0  0  0  0  0  0  0  0  0  0
    7.6940   -4.9700   26.0340 C   0  0  0  0  0  0  0  0  0  0  0  0
    8.3390   -5.2440   27.2300 C   0  0  0  0  0  0  0  0  0  0  0  0
    9.8070   -4.9670   27.3980 C   0  0  0  0  0  0  0  0  0  0  0  0
   10.5660   -4.3780   26.2270 C   0  0  0  0  0  0  0  0  0  0  0  0
    9.8110   -4.0880   24.9230 C   0  0  0  0  0  0  0  0  0  0  0  0
   10.4820   -3.5700   23.9010 F   0  0  0  0  0  0  0  0  0  0  0  0
    8.3380   -2.9760   23.9930 N   0  0  0  0  0  0  0  0  0  0  0  0
    8.6460   -1.5470   23.6200 C   0  0  0  0  0  0  0  0  0  0  0  0
    7.4250   -0.8030   23.6600 C   0  0  0  0  0  0  0  0  0  0  0  0
    6.2010   -1.3110   24.0190 O   0  0  0  0  0  0  0  0  0  0  0  0
    7.4640    0.6780   23.2660 C   0  0  0  0  0  0  0  0  0  0  0  0
    8.7890    1.2810   22.8650 C   0  0  0  0  0  0  0  0  0  0  0  0
    8.7040    2.7460   22.4620 C   0  0  0  0  0  0  0  0  0  0  0  0
    8.0190    3.6240   22.9610 O   0  0  0  0  0  0  0  0  0  0  0  0
    9.5220    2.9750   21.4100 O   0  0  0  0  0  0  0  0  0  0  0  0
    9.9500    0.5050   22.8770 C   0  0  0  0  0  0  0  0  0  0  0  0
   11.1650    1.0340   22.5340 O   0  0  0  0  0  0  0  0  0  0  0  0
    9.9050   -0.9520   23.2600 C   0  0  0  0  0  0  0  0  0  0  0  0
   11.7970   -1.9200   23.1860 I   0  0  0  0  0  0  0  0  0  0  0  0
  1  2  1  0
  2  3  1  0
  3  4  1  0
  4  5  2  0
  5  6  1  0
  7  6  1  0
  7  8  2  0
  7  9  2  0
  7 10  1  0
 10 11  2  0
 11 12  1  0
 12 13  2  0
 13 14  1  0
 10 15  1  0
 14 15  2  0
  6 16  2  0
 16 17  1  0
 17 18  2  0
 18 19  1  0
 19 20  2  0
 20 21  1  0
 17 22  1  0
 21 22  2  0
 22 23  1  0
  4 24  1  0
 16 24  1  0
 24 25  1  0
 25 26  2  0
 26 27  1  0
 26 28  1  0
 28 29  2  0
 29 30  1  0
 30 31  2  0
 30 32  1  0
 29 33  1  0
 33 34  1  0
 25 35  1  0
 33 35  2  0
 35 36  1  0
M  END
