MAK-UNK-5e88aa6a-7
     RDKit          3D

 30 32  0  0  0  0  0  0  0  0999 V2000
   12.9200    4.4370   22.7430 C   0  0  0  0  0  0  0  0  0  0  0  0
   11.4390    4.4170   23.0540 C   0  0  1  0  0  0  0  0  0  0  0  0
   11.0360    3.5030   23.7910 O   0  0  0  0  0  0  0  0  0  0  0  0
   10.8980    2.2770   23.0670 C   0  0  1  0  0  0  0  0  0  0  0  0
   11.6470    1.2740   23.7190 C   0  0  0  0  0  0  0  0  0  0  0  0
   11.0050    0.3490   24.5040 C   0  0  0  0  0  0  0  0  0  0  0  0
   11.7110   -0.6850   25.1110 C   0  0  0  0  0  0  0  0  0  0  0  0
   10.9810   -1.8970   25.2820 O   0  0  0  0  0  0  0  0  0  0  0  0
   13.0580   -0.4470   25.4870 O   0  0  0  0  0  0  0  0  0  0  0  0
    9.5210    0.3910   24.7490 C   0  0  0  0  0  0  0  0  0  0  0  0
    8.8340    1.5030   23.9400 C   0  0  0  0  0  0  0  0  0  0  0  0
    9.5620    1.9110   22.8260 C   0  0  2  0  0  0  0  0  0  0  0  0
    9.5780    0.7330   21.9440 N   0  0  0  0  0  0  0  0  0  0  0  0
   10.4570   -0.4150   22.3740 C   0  0  0  0  0  0  0  0  0  0  0  0
   11.8710   -0.3540   22.4470 C   0  0  0  0  0  0  0  0  0  0  0  0
   12.6070   -1.8970   22.9910 S   0  0  0  0  0  0  0  0  0  0  0  0
   11.0000   -2.5660   23.1140 C   0  0  0  0  0  0  0  0  0  0  0  0
    9.9680   -1.6900   22.7580 C   0  0  0  0  0  0  0  0  0  0  0  0
    8.6190   -2.0550   22.7880 C   0  0  0  0  0  0  0  0  0  0  0  0
    8.2650   -3.1730   23.5590 N   0  0  0  0  0  0  0  0  0  0  0  0
    7.2630   -4.1850   23.2890 C   0  0  0  0  0  0  0  0  0  0  0  0
    7.3910   -5.3950   24.2550 C   0  0  0  0  0  0  0  0  0  0  0  0
    8.0570   -5.2270   25.4800 C   0  0  0  0  0  0  0  0  0  0  0  0
    7.0750   -5.2250   26.5200 O   0  0  0  0  0  0  0  0  0  0  0  0
    8.8650   -4.1100   25.6500 C   0  0  0  0  0  0  0  0  0  0  0  0
    8.4830   -2.9360   24.9920 C   0  0  0  0  0  0  0  0  0  0  0  0
   11.0620    5.9880   23.6200 S   0  0  0  0  0  0  0  0  0  0  0  0
    9.7520    6.4510   22.6630 N   0  0  0  0  0  0  0  0  0  0  0  0
   12.1020    6.9140   23.2460 O   0  0  0  0  0  0  0  0  0  0  0  0
   10.5230    5.9560   24.9600 O   0  0  0  0  0  0  0  0  0  0  0  0
  2  1  1  1
  2  3  1  0
  4  3  1  1
  4  5  1  0
  5  6  2  0
  6  7  1  0
  7  8  2  0
  7  9  1  0
  6 10  1  0
 10 11  1  0
  4 12  1  0
 11 12  1  0
 12 13  1  6
 13 14  1  0
 14 15  2  0
 15 16  1  0
 16 17  1  0
 14 18  1  0
 17 18  2  0
 18 19  1  0
 19 20  1  0
 20 21  1  0
 21 22  1  0
 22 23  1  0
 23 24  1  0
 23 25  1  0
 20 26  1  0
 25 26  1  0
  2 27  1  0
 27 28  1  0
 27 29  2  0
 27 30  2  0
M  END
