MAK-UNK-90d0606b-2-nitrile
     RDKit          3D

 24 26  0  0  0  0  0  0  0  0999 V2000
    7.3160   -3.7920   20.1930 C   0  0  0  0  0  0  0  0  0  0  0  0
    6.1060   -4.1730   19.8710 N   0  0  0  0  0  0  0  0  0  0  0  0
    7.7370   -3.2600   21.4300 N   0  0  0  0  0  0  0  0  0  0  0  0
    7.8580   -4.0480   22.6780 C   0  0  0  0  0  0  0  0  0  0  0  0
    8.9560   -3.2890   23.5000 C   0  0  1  0  0  0  0  0  0  0  0  0
    9.8370   -2.6830   22.3990 C   0  0  0  0  0  0  0  0  0  0  0  0
    8.6570   -2.0870   21.6270 C   0  0  2  0  0  0  0  0  0  0  0  0
    8.1740   -1.1220   22.7290 C   0  0  0  0  0  0  0  0  0  0  0  0
    8.5020   -1.9080   24.0200 C   0  0  1  0  0  0  0  0  0  0  0  0
    7.1120   -1.7480   24.7090 C   0  0  0  0  0  0  0  0  0  0  0  0
    6.7440   -2.5390   25.5740 O   0  0  0  0  0  0  0  0  0  0  0  0
    6.4100   -0.6550   24.2300 N   0  0  0  0  0  0  0  0  0  0  0  0
    6.6670   -0.1600   22.9290 C   0  0  0  0  0  0  0  0  0  0  0  0
    7.3490    1.1600   22.7850 C   0  0  0  0  0  0  0  0  0  0  0  0
    7.5950    1.5720   21.5220 C   0  0  0  0  0  0  0  0  0  0  0  0
    8.2210    2.7310   21.1590 O   0  0  0  0  0  0  0  0  0  0  0  0
    8.1730    3.8170   22.0740 C   0  0  0  0  0  0  0  0  0  0  0  0
    7.2240    0.8110   20.4200 C   0  0  0  0  0  0  0  0  0  0  0  0
    7.4940    1.2970   19.1630 O   0  0  0  0  0  0  0  0  0  0  0  0
    6.5030    0.8520   18.2280 C   0  0  0  0  0  0  0  0  0  0  0  0
    6.6020   -0.4110   20.5370 C   0  0  0  0  0  0  0  0  0  0  0  0
    6.3320   -1.0380   19.3700 O   0  0  0  0  0  0  0  0  0  0  0  0
    4.9950   -1.2070   19.0290 C   0  0  0  0  0  0  0  0  0  0  0  0
    6.3150   -0.8960   21.7960 C   0  0  0  0  0  0  0  0  0  0  0  0
  1  2  2  3
  1  3  1  0
  3  4  1  0
  5  4  1  6
  5  6  1  0
  3  7  1  0
  6  7  1  0
  7  8  1  1
  5  9  1  0
  8  9  1  0
  9 10  1  1
 10 11  2  0
 10 12  1  0
 12 13  1  0
 13 14  2  0
 14 15  1  0
 15 16  1  0
 16 17  1  0
 15 18  2  0
 18 19  1  0
 19 20  1  0
 18 21  1  0
 21 22  1  0
 22 23  1  0
 13 24  1  0
 21 24  2  0
M  END
