MAK-UNK-8fdbca50-24-acrylamide
     RDKit          3D

 40 43  0  0  0  0  0  0  0  0999 V2000
    6.0030   -5.1850   20.2730 C   0  0  0  0  0  0  0  0  0  0  0  0
    5.9760   -5.4120   21.7830 C   0  0  0  0  0  0  0  0  0  0  0  0
    4.8150   -4.6820   22.4580 C   0  0  0  0  0  0  0  0  0  0  0  0
    4.1590   -5.6320   22.1000 O   0  0  0  0  0  0  0  0  0  0  0  0
    5.8320   -3.7960   22.6960 N   0  0  0  0  0  0  0  0  0  0  0  0
    5.8150   -2.4830   22.2740 C   0  0  0  0  0  0  0  0  0  0  0  0
    5.9140   -1.3610   23.3100 C   0  0  0  0  0  0  0  0  0  0  0  0
    5.5620   -1.9230   24.6900 C   0  0  0  0  0  0  0  0  0  0  0  0
    6.0470   -0.8390   25.6470 C   0  0  0  0  0  0  0  0  0  0  0  0
    5.2970    0.1150   25.8510 O   0  0  0  0  0  0  0  0  0  0  0  0
    7.2200   -0.9140   26.2480 N   0  0  0  0  0  0  0  0  0  0  0  0
    8.2200   -0.4620   25.3800 C   0  0  0  0  0  0  0  0  0  0  0  0
    8.7490    0.8820   25.4730 C   0  0  0  0  0  0  0  0  0  0  0  0
    9.7230    1.2400   24.5820 C   0  0  0  0  0  0  0  0  0  0  0  0
   10.2570    0.3980   23.5720 C   0  0  0  0  0  0  0  0  0  0  0  0
    9.7340   -0.9370   23.4710 C   0  0  0  0  0  0  0  0  0  0  0  0
   10.4290   -1.8320   22.2170 S   0  0  0  0  0  0  0  0  0  0  0  0
    9.5730   -2.9260   21.9200 O   0  0  0  0  0  0  0  0  0  0  0  0
   10.6820   -0.8310   21.2940 O   0  0  0  0  0  0  0  0  0  0  0  0
   11.9210   -2.3600   22.8210 N   0  0  0  0  0  0  0  0  0  0  0  0
   12.1840   -2.0330   24.0770 C   0  0  0  0  0  0  0  0  0  0  0  0
   13.3310   -2.5050   24.4820 C   0  0  0  0  0  0  0  0  0  0  0  0
   13.8150   -2.3760   25.6870 C   0  0  0  0  0  0  0  0  0  0  0  0
   15.1020   -2.7380   25.8730 N   0  0  0  0  0  0  0  0  0  0  0  0
   15.3850   -4.0790   25.2910 C   0  0  0  0  0  0  0  0  0  0  0  0
   13.9350   -3.1640   23.5040 C   0  0  0  0  0  0  0  0  0  0  0  0
   13.1070   -3.1590   22.3990 C   0  0  0  0  0  0  0  0  0  0  0  0
   13.5800   -3.9170   21.2610 C   0  0  0  0  0  0  0  0  0  0  0  0
   12.8170   -3.9540   20.2750 C   0  0  0  0  0  0  0  0  0  0  0  0
   13.2190   -4.6790   19.2760 C   0  0  0  0  0  0  0  0  0  0  0  0
   14.4390   -5.3840   19.1310 C   0  0  0  0  0  0  0  0  0  0  0  0
   15.4410   -5.5170   20.0340 C   0  0  0  0  0  0  0  0  0  0  0  0
   14.8640   -4.7590   21.0930 C   0  0  0  0  0  0  0  0  0  0  0  0
   15.7690   -4.9330   22.1050 F   0  0  0  0  0  0  0  0  0  0  0  0
    8.7340   -1.3450   24.3700 C   0  0  0  0  0  0  0  0  0  0  0  0
    7.1770   -0.9690   27.7440 C   0  0  0  0  0  0  0  0  0  0  0  0
    8.2790   -0.5090   28.4460 C   0  0  0  0  0  0  0  0  0  0  0  0
    6.6930   -2.3200   28.2790 C   0  0  0  0  0  0  0  0  0  0  0  0
    6.1340   -3.2950   25.0480 C   0  0  0  0  0  0  0  0  0  0  0  0
    6.6790   -4.0340   23.8510 C   0  0  0  0  0  0  0  0  0  0  0  0
  1  2  1  0
  2  3  1  0
  3  4  2  0
  3  5  1  0
  5  6  1  0
  6  7  1  0
  7  8  1  0
  8  9  1  0
  9 10  2  0
  9 11  1  0
 11 12  1  0
 12 13  2  0
 13 14  1  0
 14 15  2  0
 15 16  1  0
 17 16  1  0
 17 18  2  0
 17 19  2  0
 17 20  1  0
 20 21  1  0
 21 22  2  0
 22 23  1  0
 23 24  1  0
 24 25  1  0
 22 26  1  0
 20 27  1  0
 26 27  2  0
 27 28  1  0
 28 29  2  0
 29 30  1  0
 30 31  2  0
 31 32  1  0
 28 33  1  0
 32 33  2  0
 33 34  1  0
 12 35  1  0
 16 35  2  0
 11 36  1  0
 36 37  1  0
 36 38  1  0
  8 39  1  0
  5 40  1  0
 39 40  1  0
M  END
