MAK-UNK-516d8086-5-vinylsulfonamide
     RDKit          3D

 25 27  0  0  0  0  0  0  0  0999 V2000
    8.0890   -3.7940   19.9450 C   0  0  0  0  0  0  0  0  0  0  0  0
    7.1820   -4.1870   21.0720 C   0  0  0  0  0  0  0  0  0  0  0  0
    6.1490   -2.7740   21.1250 S   0  0  0  0  0  0  0  0  0  0  0  0
    4.8160   -3.2640   21.6240 O   0  0  0  0  0  0  0  0  0  0  0  0
    6.1310   -2.3010   19.7550 O   0  0  0  0  0  0  0  0  0  0  0  0
    7.2350   -1.5310   22.1040 C   0  0  0  0  0  0  0  0  0  0  0  0
    6.5360   -0.4130   22.8450 C   0  0  0  0  0  0  0  0  0  0  0  0
    7.1820    0.5420   23.5710 N   0  0  0  0  0  0  0  0  0  0  0  0
    8.5550    0.5330   23.6740 C   0  0  0  0  0  0  0  0  0  0  0  0
    9.1420    1.5600   24.4600 N   0  0  0  0  0  0  0  0  0  0  0  0
   10.0730    2.3810   23.7040 C   0  0  0  0  0  0  0  0  0  0  0  0
   11.2970    1.7300   23.6950 C   0  0  0  0  0  0  0  0  0  0  0  0
    9.4470   -0.4310   23.0560 C   0  0  0  0  0  0  0  0  0  0  0  0
   10.9340   -0.4500   23.1790 C   0  0  0  0  0  0  0  0  0  0  0  0
   11.2620   -1.5340   24.0040 C   0  0  0  0  0  0  0  0  0  0  0  0
   12.5610   -1.2160   24.2110 C   0  0  0  0  0  0  0  0  0  0  0  0
   12.6470   -2.4350   25.0260 C   0  0  0  0  0  0  0  0  0  0  0  0
   11.2620   -2.8950   24.8810 C   0  0  0  0  0  0  0  0  0  0  0  0
   10.0970   -2.4630   24.2330 C   0  0  0  0  0  0  0  0  0  0  0  0
   10.0290   -1.4000   23.5230 C   0  0  0  0  0  0  0  0  0  0  0  0
    9.0140   -3.3760   24.4760 C   0  0  0  0  0  0  0  0  0  0  0  0
    7.8110   -3.1500   24.5150 O   0  0  0  0  0  0  0  0  0  0  0  0
    9.6320   -4.5550   24.6740 C   0  0  0  0  0  0  0  0  0  0  0  0
   10.8190   -4.1830   25.5660 C   0  0  0  0  0  0  0  0  0  0  0  0
    8.6600   -1.5670   22.1860 C   0  0  0  0  0  0  0  0  0  0  0  0
  1  2  1  0
  3  2  1  0
  3  4  2  0
  3  5  2  0
  3  6  1  0
  6  7  2  0
  7  8  1  0
  8  9  2  0
  9 10  1  0
 10 11  1  0
 11 12  1  0
  9 13  1  0
 13 14  1  0
 14 15  1  0
 15 16  2  0
 16 17  1  0
 17 18  2  0
 18 19  1  0
 15 20  1  0
 19 20  2  0
 19 21  1  0
 21 22  2  0
 21 23  1  0
 18 24  1  0
 23 24  1  0
  6 25  1  0
 13 25  2  0
M  END
