MAK-UNK-6c8f5f75-2-chloroacetamide
     RDKit          3D

 11 11  0  0  0  0  0  0  0  0999 V2000
    7.5360   -3.0260   18.8260 C   0  0  0  0  0  0  0  0  0  0  0  0
    6.7200   -3.3270   20.0560 C   0  0  0  0  0  0  0  0  0  0  0  0
    5.7180   -4.0890   19.8560 O   0  0  0  0  0  0  0  0  0  0  0  0
    7.2100   -2.7630   21.3080 N   0  0  0  0  0  0  0  0  0  0  0  0
    6.4650   -1.9300   22.2070 C   0  0  0  0  0  0  0  0  0  0  0  0
    7.2850   -1.9060   23.5120 C   0  0  0  0  0  0  0  0  0  0  0  0
    8.5960   -1.1100   23.4100 C   0  0  0  0  0  0  0  0  0  0  0  0
    9.2660   -1.4330   22.1010 C   0  0  1  0  0  0  0  0  0  0  0  0
   10.8190   -1.3410   22.2870 C   0  0  0  0  0  0  0  0  0  0  0  0
   11.9620   -1.1270   22.4810 N   0  0  0  0  0  0  0  0  0  0  0  0
    8.5910   -2.8340   21.8650 C   0  0  0  0  0  0  0  0  0  0  0  0
  1  2  1  0
  2  3  2  0
  2  4  1  0
  4  5  1  0
  5  6  1  0
  6  7  1  0
  7  8  1  0
  8  9  1  1
  9 10  3  0
  4 11  1  0
  8 11  1  0
M  END
