MAK-UNK-10dfa458-1-nitrile
     RDKit          3D

 14 15  0  0  0  0  0  0  0  0999 V2000
    6.3870   -4.5500   20.3840 C   0  0  0  0  0  0  0  0  0  0  0  0
    5.2650   -4.3350   19.8520 N   0  0  0  0  0  0  0  0  0  0  0  0
    6.4910   -5.0660   21.6580 N   0  0  0  0  0  0  0  0  0  0  0  0
    5.6800   -6.2170   22.0900 C   0  0  0  0  0  0  0  0  0  0  0  0
    4.6580   -5.5820   23.1030 C   0  0  0  0  0  0  0  0  0  0  0  0
    5.4590   -5.0930   24.2650 N   0  0  0  0  0  0  0  0  0  0  0  0
    4.7190   -4.9550   25.5680 C   0  0  0  0  0  0  0  0  0  0  0  0
    3.5070   -3.9590   25.5500 C   0  0  0  0  0  0  0  0  0  0  0  0
    3.9820   -2.5230   25.7820 C   0  0  0  0  0  0  0  0  0  0  0  0
    2.6610   -1.7900   25.7330 C   0  0  0  0  0  0  0  0  0  0  0  0
    1.2330   -2.6930   25.4700 S   0  0  0  0  0  0  0  0  0  0  0  0
    2.1440   -4.1490   25.3780 C   0  0  0  0  0  0  0  0  0  0  0  0
    6.2430   -4.0490   23.9120 C   0  0  0  0  0  0  0  0  0  0  0  0
    7.2290   -4.3970   22.7940 C   0  0  0  0  0  0  0  0  0  0  0  0
  1  2  2  3
  1  3  1  0
  3  4  1  0
  4  5  1  0
  5  6  1  0
  6  7  1  0
  7  8  1  0
  8  9  1  0
  9 10  2  0
 10 11  1  0
  8 12  2  0
 11 12  1  0
  6 13  1  0
  3 14  1  0
 13 14  1  0
M  END
