MAK-UNK-d4768348-9-nitrile
     RDKit          3D

 18 19  0  0  0  0  0  0  0  0999 V2000
    6.3680   -4.5900   20.3500 C   0  0  0  0  0  0  0  0  0  0  0  0
    5.2530   -4.3130   19.8380 N   0  0  0  0  0  0  0  0  0  0  0  0
    6.5610   -5.1320   21.5840 N   0  0  0  0  0  0  0  0  0  0  0  0
    7.3130   -4.4690   22.6380 C   0  0  0  0  0  0  0  0  0  0  0  0
    6.4060   -4.0980   23.8140 C   0  0  0  0  0  0  0  0  0  0  0  0
    5.4040   -5.1240   24.1630 N   0  0  0  0  0  0  0  0  0  0  0  0
    4.7420   -5.1030   25.7190 S   0  0  0  0  0  0  0  0  0  0  0  0
    4.1000   -6.3780   25.9300 O   0  0  0  0  0  0  0  0  0  0  0  0
    5.7500   -4.6130   26.6260 O   0  0  0  0  0  0  0  0  0  0  0  0
    3.4210   -3.9200   25.7000 C   0  0  0  0  0  0  0  0  0  0  0  0
    3.5870   -2.4610   26.1510 C   0  0  0  0  0  0  0  0  0  0  0  0
    2.5200   -1.5350   26.1630 C   0  0  0  0  0  0  0  0  0  0  0  0
    1.1950   -2.6080   25.5530 S   0  0  0  0  0  0  0  0  0  0  0  0
   -0.1900   -2.2950   25.3130 O   0  0  0  0  0  0  0  0  0  0  0  0
   -0.9680   -3.3710   24.8020 C   0  0  0  0  0  0  0  0  0  0  0  0
    1.9770   -4.1530   25.2800 C   0  0  0  0  0  0  0  0  0  0  0  0
    4.6950   -5.6440   23.1250 C   0  0  0  0  0  0  0  0  0  0  0  0
    5.6440   -6.1950   22.0430 C   0  0  0  0  0  0  0  0  0  0  0  0
  1  2  2  3
  1  3  1  0
  3  4  1  0
  4  5  1  0
  5  6  1  0
  6  7  1  0
  7  8  2  0
  7  9  2  0
  7 10  1  0
 10 11  2  0
 11 12  1  0
 12 13  1  0
 13 14  1  0
 14 15  1  0
 10 16  1  0
 13 16  2  0
  6 17  1  0
  3 18  1  0
 17 18  1  0
M  END
