MAK-UNK-f983951f-2-nitrile
     RDKit          3D

 16 18  0  0  0  0  0  0  0  0999 V2000
    6.8570   -4.1710   20.3260 C   0  0  0  0  0  0  0  0  0  0  0  0
    5.8530   -4.9080   20.0320 N   0  0  0  0  0  0  0  0  0  0  0  0
    7.0100   -3.7100   21.5930 N   0  0  0  0  0  0  0  0  0  0  0  0
    5.8150   -3.5430   22.3890 C   0  0  0  0  0  0  0  0  0  0  0  0
    4.6820   -3.8140   21.9970 O   0  0  0  0  0  0  0  0  0  0  0  0
    6.0410   -3.0420   23.6520 N   0  0  0  0  0  0  0  0  0  0  0  0
    4.9330   -2.9800   24.6210 C   0  0  2  0  0  0  0  0  0  0  0  0
    4.2450   -1.7560   24.5380 C   0  0  0  0  0  0  0  0  0  0  0  0
    3.2490   -1.6020   25.5330 C   0  0  1  0  0  0  0  0  0  0  0  0
    2.2080   -2.5350   25.4140 C   0  0  0  0  0  0  0  0  0  0  0  0
    2.7410   -3.8590   25.4690 C   0  0  2  0  0  0  0  0  0  0  0  0
    3.4960   -4.0430   26.6270 C   0  0  0  0  0  0  0  0  0  0  0  0
    4.4270   -3.0250   26.8940 C   0  0  2  0  0  0  0  0  0  0  0  0
    3.8270   -1.7710   26.7860 C   0  0  0  0  0  0  0  0  0  0  0  0
    5.5000   -3.1430   26.0260 C   0  0  0  0  0  0  0  0  0  0  0  0
    3.8650   -4.0720   24.4120 C   0  0  0  0  0  0  0  0  0  0  0  0
  1  2  2  3
  1  3  1  0
  3  4  1  0
  4  5  2  0
  4  6  1  0
  7  6  1  6
  7  8  1  0
  9  8  1  6
  9 10  1  0
 11 10  1  1
 11 12  1  0
 13 12  1  6
  9 14  1  0
 13 14  1  0
  7 15  1  0
 13 15  1  0
  7 16  1  0
 11 16  1  0
M  END
