MAK-UNK-72659d64-1-nitrile
     RDKit          3D

 11 11  0  0  0  0  0  0  0  0999 V2000
    6.9300   -4.2380   20.2590 C   0  0  0  0  0  0  0  0  0  0  0  0
    5.8280   -3.8770   19.7100 N   0  0  0  0  0  0  0  0  0  0  0  0
    6.9510   -5.0460   21.3910 N   0  0  0  0  0  0  0  0  0  0  0  0
    6.8090   -4.4970   22.7700 C   0  0  0  0  0  0  0  0  0  0  0  0
    6.0690   -5.8990   23.2360 C   0  0  0  0  0  0  0  0  0  0  0  0
    6.4690   -5.7870   21.9690 C   0  0  0  0  0  0  0  0  0  0  0  0
    6.8670   -4.6780   22.2910 N   0  0  0  0  0  0  0  0  0  0  0  0
    6.6000   -4.3740   23.6920 C   0  0  0  0  0  0  0  0  0  0  0  0
    5.9400   -5.0680   24.9050 C   0  0  0  0  0  0  0  0  0  0  0  0
    5.3610   -5.6570   25.9670 N   0  0  0  0  0  0  0  0  0  0  0  0
    7.0960   -3.3410   23.5530 N   0  0  0  0  0  0  0  0  0  0  0  0
  1  2  2  3
  1  3  1  0
  3  4  1  0
  4  5  2  0
  5  6  1  0
  6  7  2  0
  7  8  1  0
  8  9  1  0
  9 10  3  0
  4 11  1  0
  8 11  2  0
M  END
