MAK-UNK-3c359d2a-1-acrylamide
     RDKit          3D

 26 28  0  0  0  0  0  0  0  0999 V2000
    8.0350   -3.3970   19.7350 C   0  0  0  0  0  0  0  0  0  0  0  0
    6.9250   -2.6510   19.0670 C   0  0  0  0  0  0  0  0  0  0  0  0
    5.8550   -2.9980   20.0140 C   0  0  0  0  0  0  0  0  0  0  0  0
    5.0570   -3.9070   19.7600 O   0  0  0  0  0  0  0  0  0  0  0  0
    5.9300   -2.2660   21.1830 N   0  0  0  0  0  0  0  0  0  0  0  0
    6.7690   -1.0510   21.2480 C   0  0  0  0  0  0  0  0  0  0  0  0
    8.1740   -1.2980   21.8430 C   0  0  0  0  0  0  0  0  0  0  0  0
    8.1090   -1.9660   23.1490 N   0  0  0  0  0  0  0  0  0  0  0  0
    9.4520   -2.2390   23.6870 C   0  0  0  0  0  0  0  0  0  0  0  0
   10.4430   -1.0920   23.5590 C   0  0  0  0  0  0  0  0  0  0  0  0
   11.7370   -1.4080   23.0920 C   0  0  0  0  0  0  0  0  0  0  0  0
   12.7080   -0.4260   22.9420 C   0  0  0  0  0  0  0  0  0  0  0  0
   12.4130    0.9010   23.2560 C   0  0  0  0  0  0  0  0  0  0  0  0
   11.1350    1.2710   23.7250 C   0  0  0  0  0  0  0  0  0  0  0  0
   10.6700    2.5340   24.0890 O   0  0  0  0  0  0  0  0  0  0  0  0
   11.2070    3.7820   23.5630 C   0  0  1  0  0  0  0  0  0  0  0  0
   11.7170    3.6050   22.2980 C   0  0  0  0  0  0  0  0  0  0  0  0
   12.5350    4.6590   21.9360 C   0  0  0  0  0  0  0  0  0  0  0  0
   12.2260    5.7960   22.6920 C   0  0  0  0  0  0  0  0  0  0  0  0
   10.8680    6.0740   23.0370 C   0  0  2  0  0  0  0  0  0  0  0  0
   10.7360    6.8820   23.9640 O   0  0  0  0  0  0  0  0  0  0  0  0
   11.9570    7.2590   24.6320 C   0  0  0  0  0  0  0  0  0  0  0  0
   10.2150    4.7470   23.4810 C   0  0  0  0  0  0  0  0  0  0  0  0
   10.1710    0.2590   23.8670 C   0  0  0  0  0  0  0  0  0  0  0  0
    7.3240   -3.2130   23.0580 C   0  0  0  0  0  0  0  0  0  0  0  0
    5.9180   -3.0200   22.4420 C   0  0  0  0  0  0  0  0  0  0  0  0
  1  2  1  0
  2  3  1  0
  3  4  2  0
  3  5  1  0
  5  6  1  0
  6  7  1  0
  7  8  1  0
  8  9  1  0
  9 10  1  0
 10 11  2  0
 11 12  1  0
 12 13  2  0
 13 14  1  0
 14 15  1  0
 16 15  1  6
 16 17  1  0
 17 18  1  0
 18 19  1  0
 19 20  1  0
 20 21  1  1
 21 22  1  0
 16 23  1  0
 20 23  1  0
 10 24  1  0
 14 24  2  0
  8 25  1  0
  5 26  1  0
 25 26  1  0
M  END
