MAK-UNK-3c359d2a-1-acrylamide
     RDKit          3D

 26 28  0  0  0  0  0  0  0  0999 V2000
    7.8850   -3.2180   18.9970 C   0  0  0  0  0  0  0  0  0  0  0  0
    6.6720   -2.3610   18.8100 C   0  0  0  0  0  0  0  0  0  0  0  0
    5.7640   -2.7230   19.9250 C   0  0  0  0  0  0  0  0  0  0  0  0
    4.8760   -3.5330   19.6860 O   0  0  0  0  0  0  0  0  0  0  0  0
    6.0680   -2.1860   21.1730 N   0  0  0  0  0  0  0  0  0  0  0  0
    7.0400   -1.0790   21.1880 C   0  0  0  0  0  0  0  0  0  0  0  0
    8.4190   -1.5110   21.6980 C   0  0  0  0  0  0  0  0  0  0  0  0
    8.3260   -2.0430   23.0640 N   0  0  0  0  0  0  0  0  0  0  0  0
    9.5170   -2.2410   23.7660 C   0  0  0  0  0  0  0  0  0  0  0  0
   10.4680   -1.0690   23.6190 C   0  0  0  0  0  0  0  0  0  0  0  0
   11.7870   -1.6250   23.1250 C   0  0  0  0  0  0  0  0  0  0  0  0
   12.8680   -0.5770   22.9130 C   0  0  0  0  0  0  0  0  0  0  0  0
   12.4560    0.8620   23.2320 C   0  0  0  0  0  0  0  0  0  0  0  0
   11.0840    1.2940   23.7260 C   0  0  0  0  0  0  0  0  0  0  0  0
   10.6220    2.5760   24.0380 O   0  0  0  0  0  0  0  0  0  0  0  0
   11.2190    3.8560   23.6690 C   0  0  1  0  0  0  0  0  0  0  0  0
   12.2500    3.7450   22.7350 C   0  0  0  0  0  0  0  0  0  0  0  0
   12.6230    5.0550   22.0620 C   0  0  0  0  0  0  0  0  0  0  0  0
   12.3040    6.0500   23.1780 C   0  0  0  0  0  0  0  0  0  0  0  0
   10.7780    6.0810   23.1190 C   0  0  1  0  0  0  0  0  0  0  0  0
   10.2550    6.5230   22.1210 O   0  0  0  0  0  0  0  0  0  0  0  0
    8.9390    7.0290   22.2950 C   0  0  0  0  0  0  0  0  0  0  0  0
   10.2500    4.7930   23.3290 C   0  0  0  0  0  0  0  0  0  0  0  0
   10.1460    0.2720   23.8950 C   0  0  0  0  0  0  0  0  0  0  0  0
    7.4120   -3.1980   23.0990 C   0  0  0  0  0  0  0  0  0  0  0  0
    6.0330   -2.9790   22.4190 C   0  0  0  0  0  0  0  0  0  0  0  0
  1  2  1  0
  2  3  1  0
  3  4  2  0
  3  5  1  0
  5  6  1  0
  6  7  1  0
  7  8  1  0
  8  9  1  0
  9 10  1  0
 10 11  2  0
 11 12  1  0
 12 13  2  0
 13 14  1  0
 14 15  1  0
 16 15  1  6
 16 17  1  0
 17 18  1  0
 18 19  1  0
 19 20  1  0
 20 21  1  6
 21 22  1  0
 16 23  1  0
 20 23  1  0
 10 24  1  0
 14 24  2  0
  8 25  1  0
  5 26  1  0
 25 26  1  0
M  END
