MAK-UNK-72659d64-14-vinylsulfonamide
     RDKit          3D

 21 21  0  0  0  0  0  0  0  0999 V2000
    8.4010   -4.1260   20.8180 C   0  0  0  0  0  0  0  0  0  0  0  0
    7.3870   -3.0550   21.1900 C   0  0  0  0  0  0  0  0  0  0  0  0
    6.2580   -3.8160   22.3250 S   0  0  0  0  0  0  0  0  0  0  0  0
    5.1690   -4.3920   21.5350 O   0  0  0  0  0  0  0  0  0  0  0  0
    7.0720   -4.7380   23.1030 O   0  0  0  0  0  0  0  0  0  0  0  0
    5.5970   -2.6710   23.4540 N   0  0  0  0  0  0  0  0  0  0  0  0
    5.1060   -1.3160   23.1570 C   0  0  0  0  0  0  0  0  0  0  0  0
    4.6350   -3.4880   24.1430 C   0  0  0  0  0  0  0  0  0  0  0  0
    4.3000   -3.1140   22.7740 C   0  0  0  0  0  0  0  0  0  0  0  0
    5.2110   -2.2040   22.1860 C   0  0  0  0  0  0  0  0  0  0  0  0
    5.1700   -1.6050   20.9000 N   0  0  0  0  0  0  0  0  0  0  0  0
    4.8750   -0.1640   20.8510 C   0  0  0  0  0  0  0  0  0  0  0  0
    5.5360   -2.4100   19.7820 C   0  0  0  0  0  0  0  0  0  0  0  0
    5.2160   -3.6210   19.6680 O   0  0  0  0  0  0  0  0  0  0  0  0
    6.2670   -1.8030   18.7540 C   0  0  0  0  0  0  0  0  0  0  0  0
    5.5820   -0.2120   18.3290 Cl  0  0  0  0  0  0  0  0  0  0  0  0
    6.2850   -1.8650   23.1150 N   0  0  0  0  0  0  0  0  0  0  0  0
    6.3370   -2.4430   24.4730 C   0  0  0  0  0  0  0  0  0  0  0  0
    7.3800   -2.0230   25.2770 C   0  0  0  0  0  0  0  0  0  0  0  0
    7.0600   -1.4290   26.3810 N   0  0  0  0  0  0  0  0  0  0  0  0
    5.5850   -3.2160   24.9960 N   0  0  0  0  0  0  0  0  0  0  0  0
  1  2  1  0
  2  3  1  0
  3  4  2  0
  3  5  2  0
  3  6  1  0
  6  7  1  0
  6  8  1  0
  8  9  2  0
  9 10  1  0
 10 11  1  0
 11 12  1  0
 11 13  1  0
 13 14  2  0
 13 15  1  0
 15 16  1  0
 10 17  2  0
 17 18  1  0
 18 19  1  0
 19 20  3  0
  8 21  1  0
 18 21  2  0
M  END
