MAK-UNK-e4a48a85-20-chloroacetamide
     RDKit          3D

 21 23  0  0  0  0  0  0  0  0999 V2000
    7.1440   -2.9690   18.7790 C   0  0  0  0  0  0  0  0  0  0  0  0
    6.2140   -3.2690   19.8990 C   0  0  0  0  0  0  0  0  0  0  0  0
    5.3790   -4.1730   19.7690 O   0  0  0  0  0  0  0  0  0  0  0  0
    6.3510   -2.5120   21.0620 N   0  0  0  0  0  0  0  0  0  0  0  0
    7.1870   -1.3200   21.1480 C   0  0  0  0  0  0  0  0  0  0  0  0
    8.4620   -1.6310   21.6880 C   0  0  0  0  0  0  0  0  0  0  0  0
    8.3050   -2.3150   23.0200 N   0  0  0  0  0  0  0  0  0  0  0  0
    9.4380   -2.5610   23.7410 C   0  0  0  0  0  0  0  0  0  0  0  0
   10.2860   -1.4650   23.6250 C   0  0  0  0  0  0  0  0  0  0  0  0
   11.5870   -1.5300   23.3420 N   0  0  0  0  0  0  0  0  0  0  0  0
   12.5060   -0.3950   23.1860 C   0  0  0  0  0  0  0  0  0  0  0  0
   11.3180    0.6270   23.4830 C   0  0  0  0  0  0  0  0  0  0  0  0
   11.5850    1.9910   23.4500 C   0  0  0  0  0  0  0  0  0  0  0  0
   10.6500    2.8830   24.1810 C   0  0  0  0  0  0  0  0  0  0  0  0
    9.5540    2.5060   24.9560 C   0  0  0  0  0  0  0  0  0  0  0  0
    8.8850    3.5690   25.5100 C   0  0  0  0  0  0  0  0  0  0  0  0
    9.5940    5.0660   25.0890 S   0  0  0  0  0  0  0  0  0  0  0  0
   10.7970    4.2740   24.1590 C   0  0  0  0  0  0  0  0  0  0  0  0
    9.7290    0.0900   23.8220 S   0  0  0  0  0  0  0  0  0  0  0  0
    7.4180   -3.4620   22.9270 C   0  0  0  0  0  0  0  0  0  0  0  0
    6.1580   -3.2120   22.3210 C   0  0  0  0  0  0  0  0  0  0  0  0
  1  2  1  0
  2  3  2  0
  2  4  1  0
  4  5  1  0
  5  6  1  0
  6  7  1  0
  7  8  1  0
  8  9  1  0
  9 10  2  0
 10 11  1  0
 11 12  2  0
 12 13  1  0
 13 14  1  0
 14 15  1  0
 15 16  2  0
 16 17  1  0
 14 18  2  0
 17 18  1  0
  9 19  1  0
 12 19  1  0
  7 20  1  0
  4 21  1  0
 20 21  1  0
M  END
