MAK-UNK-987948f6-9-nitrile
     RDKit          3D

 17 18  0  0  0  0  0  0  0  0999 V2000
    6.0590   -4.2200   20.0150 C   0  0  0  0  0  0  0  0  0  0  0  0
    5.2610   -3.5110   19.3240 N   0  0  0  0  0  0  0  0  0  0  0  0
    5.6140   -4.5700   21.3260 N   0  0  0  0  0  0  0  0  0  0  0  0
    5.8850   -5.9220   21.8040 C   0  0  0  0  0  0  0  0  0  0  0  0
    7.1270   -5.8500   22.6810 C   0  0  0  0  0  0  0  0  0  0  0  0
    7.1660   -4.5300   23.3280 N   0  0  0  0  0  0  0  0  0  0  0  0
    7.7790   -3.4610   22.6550 C   0  0  0  0  0  0  0  0  0  0  0  0
    7.0710   -2.8080   21.8910 O   0  0  0  0  0  0  0  0  0  0  0  0
    9.1540   -3.0340   22.8470 C   0  0  0  0  0  0  0  0  0  0  0  0
    9.9150   -2.1960   22.0520 C   0  0  0  0  0  0  0  0  0  0  0  0
   11.1880   -2.0720   22.6580 C   0  0  0  0  0  0  0  0  0  0  0  0
   11.1370   -2.8390   23.7930 C   0  0  0  0  0  0  0  0  0  0  0  0
    9.9160   -3.4270   23.9160 O   0  0  0  0  0  0  0  0  0  0  0  0
    5.8090   -4.2110   23.7320 C   0  0  0  0  0  0  0  0  0  0  0  0
    5.0890   -3.7310   22.4590 C   0  0  1  0  0  0  0  0  0  0  0  0
    5.0660   -2.2560   22.3440 C   0  0  0  0  0  0  0  0  0  0  0  0
    5.1310   -1.0960   22.2960 N   0  0  0  0  0  0  0  0  0  0  0  0
  1  2  2  3
  1  3  1  0
  3  4  1  0
  4  5  1  0
  5  6  1  0
  6  7  1  0
  7  8  2  0
  7  9  1  0
  9 10  2  0
 10 11  1  0
 11 12  2  0
  9 13  1  0
 12 13  1  0
  6 14  1  0
  3 15  1  0
 14 15  1  0
 15 16  1  6
 16 17  3  0
M  END
