MAK-UNK-849bee6c-16-vinylsulfonamide
     RDKit          3D

 27 29  0  0  0  0  0  0  0  0999 V2000
    7.8290   -2.8260   18.5300 C   0  0  0  0  0  0  0  0  0  0  0  0
    6.4550   -2.9970   19.0380 C   0  0  0  0  0  0  0  0  0  0  0  0
    6.2880   -3.8210   20.5730 S   0  0  0  0  0  0  0  0  0  0  0  0
    5.2400   -4.7160   20.2230 O   0  0  0  0  0  0  0  0  0  0  0  0
    7.4680   -4.3590   21.2110 O   0  0  0  0  0  0  0  0  0  0  0  0
    5.9380   -2.4670   21.5060 N   0  0  0  0  0  0  0  0  0  0  0  0
    5.7020   -2.7490   22.7380 C   0  0  0  0  0  0  0  0  0  0  0  0
    7.0430   -3.0220   23.4430 C   0  0  0  0  0  0  0  0  0  0  0  0
    7.9920   -1.9070   23.2780 N   0  0  0  0  0  0  0  0  0  0  0  0
    9.2350   -2.1210   24.0700 C   0  0  0  0  0  0  0  0  0  0  0  0
   10.4140   -1.2120   23.7410 C   0  0  0  0  0  0  0  0  0  0  0  0
   11.7930   -1.7580   23.3780 C   0  0  0  0  0  0  0  0  0  0  0  0
   12.8130   -0.8470   23.1000 C   0  0  0  0  0  0  0  0  0  0  0  0
   12.5710    0.5280   23.1580 C   0  0  0  0  0  0  0  0  0  0  0  0
   11.3080    1.0300   23.4890 C   0  0  0  0  0  0  0  0  0  0  0  0
   11.0650    2.7930   23.5400 S   0  0  0  0  0  0  0  0  0  0  0  0
    9.6340    3.1140   24.5630 C   0  0  0  0  0  0  0  0  0  0  0  0
    9.1720    4.4340   24.6730 C   0  0  0  0  0  0  0  0  0  0  0  0
    8.0550    4.7210   25.4750 N   0  0  0  0  0  0  0  0  0  0  0  0
    7.3800    3.6580   26.1880 C   0  0  0  0  0  0  0  0  0  0  0  0
    6.2730    4.0250   26.9710 C   0  0  0  0  0  0  0  0  0  0  0  0
    6.5280    4.7640   28.1290 N   0  0  0  0  0  0  0  0  0  0  0  0
    7.7930    2.3360   26.1120 N   0  0  0  0  0  0  0  0  0  0  0  0
    8.9070    2.1280   25.2980 C   0  0  0  0  0  0  0  0  0  0  0  0
   10.2460    0.1680   23.7740 C   0  0  0  0  0  0  0  0  0  0  0  0
    8.1860   -1.6950   21.8440 C   0  0  0  0  0  0  0  0  0  0  0  0
    6.9360   -1.3810   21.2730 C   0  0  0  0  0  0  0  0  0  0  0  0
  1  2  1  0
  3  2  1  0
  3  4  2  0
  3  5  2  0
  3  6  1  0
  6  7  1  0
  7  8  1  0
  8  9  1  0
  9 10  1  0
 10 11  1  0
 11 12  2  0
 12 13  1  0
 13 14  2  0
 14 15  1  0
 15 16  1  0
 16 17  1  0
 17 18  2  0
 18 19  1  0
 19 20  2  0
 20 21  1  0
 21 22  3  0
 20 23  1  0
 17 24  1  0
 23 24  2  0
 11 25  1  0
 15 25  2  0
  9 26  1  0
  6 27  1  0
 26 27  1  0
M  END
