MAK-UNK-148caf23-12-nitrile
     RDKit          3D

 34 37  0  0  0  0  0  0  0  0999 V2000
    8.0540   -3.2610   19.7490 C   0  0  0  0  0  0  0  0  0  0  0  0
    7.6520   -2.6680   18.6560 N   0  0  0  0  0  0  0  0  0  0  0  0
    8.7120   -2.4780   21.1370 C   0  0  0  0  0  0  0  0  0  0  0  0
    8.3280   -2.9780   22.6570 C   0  0  0  0  0  0  0  0  0  0  0  0
    8.8220   -2.3340   24.0870 C   0  0  0  0  0  0  0  0  0  0  0  0
    9.6910   -1.1830   23.9220 C   0  0  0  0  0  0  0  0  0  0  0  0
   10.1910   -0.4740   24.9890 N   0  0  0  0  0  0  0  0  0  0  0  0
    9.0850    0.0080   25.7070 C   0  0  0  0  0  0  0  0  0  0  0  0
    8.3790   -0.6440   26.7700 C   0  0  0  0  0  0  0  0  0  0  0  0
    7.9810   -2.0180   26.9260 C   0  0  0  0  0  0  0  0  0  0  0  0
    8.1210   -3.2890   26.0940 C   0  0  0  0  0  0  0  0  0  0  0  0
    7.9940   -4.4330   27.0140 N   0  0  0  0  0  0  0  0  0  0  0  0
    8.8110   -5.5660   27.0880 C   0  0  0  0  0  0  0  0  0  0  0  0
    7.3000   -2.2360   28.1100 C   0  0  0  0  0  0  0  0  0  0  0  0
    7.2970   -0.9670   28.6420 C   0  0  0  0  0  0  0  0  0  0  0  0
    6.6860   -0.7050   29.8680 C   0  0  0  0  0  0  0  0  0  0  0  0
    7.3650   -0.0350   30.8840 C   0  0  0  0  0  0  0  0  0  0  0  0
    6.7280    0.2360   32.1170 C   0  0  0  0  0  0  0  0  0  0  0  0
    5.4150   -0.1630   32.3330 C   0  0  0  0  0  0  0  0  0  0  0  0
    4.7320   -0.8320   31.3350 C   0  0  0  0  0  0  0  0  0  0  0  0
    5.3610   -1.0980   30.1240 C   0  0  0  0  0  0  0  0  0  0  0  0
    4.5870   -1.7620   29.2180 F   0  0  0  0  0  0  0  0  0  0  0  0
    7.9210   -0.0320   27.8690 N   0  0  0  0  0  0  0  0  0  0  0  0
    8.0470    1.6340   28.2990 S   0  0  0  0  0  0  0  0  0  0  0  0
    8.8700    1.6650   29.4850 O   0  0  0  0  0  0  0  0  0  0  0  0
    8.4160    2.3670   27.1090 O   0  0  0  0  0  0  0  0  0  0  0  0
    6.4420    2.1810   28.7520 C   0  0  0  0  0  0  0  0  0  0  0  0
    5.3130    1.4240   28.4480 C   0  0  0  0  0  0  0  0  0  0  0  0
    4.0680    1.9060   28.8300 C   0  0  0  0  0  0  0  0  0  0  0  0
    3.9910    3.1260   29.5010 C   0  0  0  0  0  0  0  0  0  0  0  0
    5.0780    3.8750   29.8040 N   0  0  0  0  0  0  0  0  0  0  0  0
    6.2830    3.3840   29.4220 C   0  0  0  0  0  0  0  0  0  0  0  0
    9.5920   -1.3480   22.6910 N   0  0  0  0  0  0  0  0  0  0  0  0
    9.6190   -1.3480   21.4170 C   0  0  0  0  0  0  0  0  0  0  0  0
  1  2  2  3
  1  3  1  0
  3  4  2  0
  4  5  1  0
  5  6  2  0
  6  7  1  0
  7  8  1  0
  8  9  1  0
  9 10  2  0
 10 11  1  0
 11 12  1  0
 12 13  1  0
 10 14  1  0
 14 15  2  0
 15 16  1  0
 16 17  2  0
 17 18  1  0
 18 19  2  0
 19 20  1  0
 16 21  1  0
 20 21  2  0
 21 22  1  0
  9 23  1  0
 15 23  1  0
 23 24  1  0
 24 25  2  0
 24 26  2  0
 24 27  1  0
 27 28  2  0
 28 29  1  0
 29 30  2  0
 30 31  1  0
 27 32  1  0
 31 32  2  0
  6 33  1  0
  3 34  1  0
 33 34  2  0
M  END
