MAK-UNK-516d8086-22-vinylsulfonamide
     RDKit          3D

 25 27  0  0  0  0  0  0  0  0999 V2000
    8.3040   -3.8550   20.3490 C   0  0  0  0  0  0  0  0  0  0  0  0
    6.9810   -3.1120   20.2390 C   0  0  0  0  0  0  0  0  0  0  0  0
    5.8450   -3.9030   21.3310 S   0  0  0  0  0  0  0  0  0  0  0  0
    4.7130   -3.0480   21.4440 O   0  0  0  0  0  0  0  0  0  0  0  0
    5.6530   -5.2600   20.8630 O   0  0  0  0  0  0  0  0  0  0  0  0
    6.6710   -3.8810   22.9570 C   0  0  0  0  0  0  0  0  0  0  0  0
    8.1060   -4.0620   23.1070 C   0  0  0  0  0  0  0  0  0  0  0  0
    8.6810   -4.0240   24.4810 C   0  0  0  0  0  0  0  0  0  0  0  0
   10.0940   -4.2240   24.3920 C   0  0  0  0  0  0  0  0  0  0  0  0
   11.0530   -3.3100   24.9510 C   0  0  0  0  0  0  0  0  0  0  0  0
   11.6000   -3.9200   25.9320 C   0  0  0  0  0  0  0  0  0  0  0  0
   10.5930   -4.3190   25.0440 C   0  0  0  0  0  0  0  0  0  0  0  0
   10.2380   -3.2910   23.9880 C   0  0  0  0  0  0  0  0  0  0  0  0
   10.4990   -1.9380   23.4190 C   0  0  0  0  0  0  0  0  0  0  0  0
   11.2870   -2.0760   24.4780 C   0  0  0  0  0  0  0  0  0  0  0  0
    9.6720   -2.0710   22.4740 C   0  0  0  0  0  0  0  0  0  0  0  0
    8.5760   -1.7310   22.9190 O   0  0  0  0  0  0  0  0  0  0  0  0
   11.0720   -2.2060   22.7460 N   0  0  0  0  0  0  0  0  0  0  0  0
   11.1480   -2.3760   24.2730 C   0  0  0  0  0  0  0  0  0  0  0  0
    7.9540   -3.8260   25.7710 C   0  0  0  0  0  0  0  0  0  0  0  0
    9.2230   -3.9770   26.1150 N   0  0  0  0  0  0  0  0  0  0  0  0
    9.4310   -4.9920   27.0810 C   0  0  0  0  0  0  0  0  0  0  0  0
    8.5610   -4.9360   28.1540 C   0  0  0  0  0  0  0  0  0  0  0  0
    6.6650   -3.6900   25.2270 N   0  0  0  0  0  0  0  0  0  0  0  0
    6.0030   -3.6990   24.0440 N   0  0  0  0  0  0  0  0  0  0  0  0
  1  2  1  0
  3  2  1  0
  3  4  2  0
  3  5  2  0
  3  6  1  0
  6  7  2  0
  7  8  1  0
  8  9  1  0
  9 10  1  0
 10 11  2  0
 11 12  1  0
 12 13  2  0
 13 14  1  0
 10 15  1  0
 14 15  2  0
 14 16  1  0
 16 17  2  0
 16 18  1  0
 13 19  1  0
 18 19  1  0
  8 20  2  0
 20 21  1  0
 21 22  1  0
 22 23  1  0
 20 24  1  0
  6 25  1  0
 24 25  2  0
M  END
