MAK-UNK-10dfa458-14-nitrile
     RDKit          3D

 24 26  0  0  0  0  0  0  0  0999 V2000
    6.4150   -4.5960   20.4240 C   0  0  0  0  0  0  0  0  0  0  0  0
    5.2760   -4.4690   19.9000 N   0  0  0  0  0  0  0  0  0  0  0  0
    6.5670   -5.0420   21.7190 N   0  0  0  0  0  0  0  0  0  0  0  0
    7.3680   -4.4670   22.8280 C   0  0  0  0  0  0  0  0  0  0  0  0
    6.3030   -3.9380   23.8620 C   0  0  0  0  0  0  0  0  0  0  0  0
    5.4990   -5.1050   24.3240 N   0  0  0  0  0  0  0  0  0  0  0  0
    4.6380   -4.8960   25.5470 C   0  0  0  0  0  0  0  0  0  0  0  0
    3.6430   -3.6700   25.4890 C   0  0  0  0  0  0  0  0  0  0  0  0
    2.2570   -4.2630   25.7580 C   0  0  0  0  0  0  0  0  0  0  0  0
    1.1390   -3.1990   25.7500 C   0  0  0  0  0  0  0  0  0  0  0  0
    1.5350   -1.7310   25.4770 C   0  0  0  0  0  0  0  0  0  0  0  0
    2.9700   -1.3480   25.2270 C   0  0  0  0  0  0  0  0  0  0  0  0
    3.4210   -0.0810   24.9660 O   0  0  0  0  0  0  0  0  0  0  0  0
    2.6450    0.7550   24.0890 C   0  0  1  0  0  0  0  0  0  0  0  0
    2.4020    2.1070   24.4050 C   0  0  0  0  0  0  0  0  0  0  0  0
    1.7570    2.8380   23.4070 C   0  0  0  0  0  0  0  0  0  0  0  0
    2.4900    2.7850   22.1710 C   0  0  0  0  0  0  0  0  0  0  0  0
    2.5680    1.4790   21.6670 C   0  0  2  0  0  0  0  0  0  0  0  0
    1.4650    0.9630   21.4730 O   0  0  0  0  0  0  0  0  0  0  0  0
    0.6020    1.7630   20.6720 C   0  0  0  0  0  0  0  0  0  0  0  0
    3.3380    0.6740   22.7170 C   0  0  0  0  0  0  0  0  0  0  0  0
    3.9560   -2.3270   25.2480 C   0  0  0  0  0  0  0  0  0  0  0  0
    4.7600   -5.6450   23.1540 C   0  0  0  0  0  0  0  0  0  0  0  0
    5.6450   -6.1050   22.1660 C   0  0  0  0  0  0  0  0  0  0  0  0
  1  2  2  3
  1  3  1  0
  3  4  1  0
  4  5  1  0
  5  6  1  0
  6  7  1  0
  7  8  1  0
  8  9  2  0
  9 10  1  0
 10 11  2  0
 11 12  1  0
 12 13  1  0
 14 13  1  1
 14 15  1  0
 15 16  1  0
 16 17  1  0
 17 18  1  0
 18 19  1  1
 19 20  1  0
 14 21  1  0
 18 21  1  0
  8 22  1  0
 12 22  2  0
  6 23  1  0
  3 24  1  0
 23 24  1  0
M  END
