MAK-UNK-a7992eb3-27
     RDKit          3D

 34 34  0  0  0  0  0  0  0  0999 V2000
    4.5450   -6.7600   27.2350 C   0  0  0  0  0  0  0  0  0  0  0  0
    3.0870   -6.3970   27.4260 C   0  0  0  0  0  0  0  0  0  0  0  0
    2.6790   -5.7830   28.4180 O   0  0  0  0  0  0  0  0  0  0  0  0
    2.2220   -6.8560   26.3260 N   0  0  0  0  0  0  0  0  0  0  0  0
    1.2440   -5.8670   25.8580 C   0  0  1  0  0  0  0  0  0  0  0  0
    1.5780   -4.9320   24.8880 C   0  0  0  0  0  0  0  0  0  0  0  0
    2.2100   -3.7810   25.3360 C   0  0  0  0  0  0  0  0  0  0  0  0
    1.5290   -2.5790   25.4690 C   0  0  0  0  0  0  0  0  0  0  0  0
    2.2690   -1.5430   25.9220 C   0  0  0  0  0  0  0  0  0  0  0  0
    3.6850   -1.3080   26.3440 C   0  0  0  0  0  0  0  0  0  0  0  0
    4.2740   -0.0890   26.8150 O   0  0  0  0  0  0  0  0  0  0  0  0
    3.8010    0.2790   28.1190 C   0  0  2  0  0  0  0  0  0  0  0  0
    2.9910    1.5780   28.0920 C   0  0  0  0  0  0  0  0  0  0  0  0
    4.9290    0.3380   29.2220 C   0  0  2  0  0  0  0  0  0  0  0  0
    6.2390   -0.0280   28.7190 N   0  0  0  0  0  0  0  0  0  0  0  0
    7.4930    0.5000   29.3070 C   0  0  0  0  0  0  0  0  0  0  0  0
    8.7930   -0.3000   29.4160 C   0  0  0  0  0  0  0  0  0  0  0  0
    7.6430    1.6320   29.7680 O   0  0  0  0  0  0  0  0  0  0  0  0
    4.6560   -0.4880   30.3080 C   0  0  0  0  0  0  0  0  0  0  0  0
    5.2220   -1.5650   30.4130 O   0  0  0  0  0  0  0  0  0  0  0  0
    3.7430    0.0420   31.1730 N   0  0  0  0  0  0  0  0  0  0  0  0
    2.4240   -0.4140   31.3890 C   0  0  0  0  0  0  0  0  0  0  0  0
    1.4530    0.5480   31.0900 C   0  0  0  0  0  0  0  0  0  0  0  0
    0.3630    0.2340   30.2830 C   0  0  0  0  0  0  0  0  0  0  0  0
   -1.1370   -0.2000   29.1850 Br  0  0  0  0  0  0  0  0  0  0  0  0
    4.3350   -2.6420   26.1670 C   0  0  0  0  0  0  0  0  0  0  0  0
    3.6020   -3.7960   25.6850 C   0  0  0  0  0  0  0  0  0  0  0  0
    0.0830   -6.6910   25.2680 C   0  0  0  0  0  0  0  0  0  0  0  0
    0.2790   -7.6070   24.4660 O   0  0  0  0  0  0  0  0  0  0  0  0
   -1.1600   -6.3230   25.7040 N   0  0  0  0  0  0  0  0  0  0  0  0
   -2.4120   -6.7540   25.0930 C   0  0  0  0  0  0  0  0  0  0  0  0
   -3.5150   -6.5340   25.9320 C   0  0  0  0  0  0  0  0  0  0  0  0
   -3.8140   -7.4420   26.9470 C   0  0  0  0  0  0  0  0  0  0  0  0
   -4.2260   -8.6800   28.3400 Br  0  0  0  0  0  0  0  0  0  0  0  0
  1  2  1  0
  2  3  2  0
  2  4  1  0
  4  5  1  0
  5  6  1  6
  6  7  1  0
  7  8  2  0
  8  9  1  0
  9 10  2  0
 10 11  1  0
 11 12  1  0
 12 13  1  6
 12 14  1  0
 14 15  1  6
 15 16  1  0
 16 17  1  0
 16 18  2  0
 14 19  1  0
 19 20  2  0
 19 21  1  0
 21 22  1  0
 22 23  1  0
 23 24  3  0
 24 25  1  0
 10 26  1  0
  7 27  1  0
 26 27  2  0
  5 28  1  0
 28 29  2  0
 28 30  1  0
 30 31  1  0
 31 32  1  0
 32 33  3  0
 33 34  1  0
M  END
