MAR-KIN-1c1f987c-1
     RDKit          3D

 30 32  0  0  0  0  0  0  0  0999 V2000
    7.1430    3.8070   25.5230 C   0  0  0  0  0  0  0  0  0  0  0  0
    5.7260    2.9740   24.8560 S   0  0  0  0  0  0  0  0  0  0  0  0
    5.0090    3.9290   24.0340 O   0  0  0  0  0  0  0  0  0  0  0  0
    5.0520    2.2970   25.9480 O   0  0  0  0  0  0  0  0  0  0  0  0
    6.4390    1.7540   23.7730 C   0  0  0  0  0  0  0  0  0  0  0  0
    7.8040    1.6650   23.9640 C   0  0  0  0  0  0  0  0  0  0  0  0
    8.4270    0.4860   23.3280 N   0  0  0  0  0  0  0  0  0  0  0  0
    9.3280   -0.2870   24.2230 C   0  0  0  0  0  0  0  0  0  0  0  0
   10.6120   -0.2980   23.7390 C   0  0  0  0  0  0  0  0  0  0  0  0
   11.2730   -1.5250   23.4990 C   0  0  0  0  0  0  0  0  0  0  0  0
   12.5620   -1.5130   22.9830 C   0  0  0  0  0  0  0  0  0  0  0  0
   13.2500   -0.2280   22.6800 C   0  0  0  0  0  0  0  0  0  0  0  0
   12.5050    1.0570   22.9570 C   0  0  0  0  0  0  0  0  0  0  0  0
   13.2230    2.3550   22.6340 C   0  0  0  0  0  0  0  0  0  0  0  0
   12.5480    3.6770   22.8850 C   0  0  0  0  0  0  0  0  0  0  0  0
   11.1570    3.6740   23.4670 C   0  0  0  0  0  0  0  0  0  0  0  0
   10.4470    5.0050   23.7580 C   0  0  0  0  0  0  0  0  0  0  0  0
    9.2830    5.2160   22.9080 N   0  0  0  0  0  0  0  0  0  0  0  0
   10.4870    2.3220   23.7650 C   0  0  0  0  0  0  0  0  0  0  0  0
   11.2110    0.9930   23.4840 C   0  0  0  0  0  0  0  0  0  0  0  0
    8.4390    0.4670   21.8900 C   0  0  0  0  0  0  0  0  0  0  0  0
    9.0300    1.3630   21.2560 O   0  0  0  0  0  0  0  0  0  0  0  0
    7.7380   -0.5710   21.2290 C   0  0  0  0  0  0  0  0  0  0  0  0
    6.8260   -0.0960   20.2610 C   0  0  0  0  0  0  0  0  0  0  0  0
    7.1180   -0.2190   18.9140 C   0  0  0  0  0  0  0  0  0  0  0  0
    6.3350    0.2200   17.9090 N   0  0  0  0  0  0  0  0  0  0  0  0
    5.1890    0.8090   18.2470 C   0  0  0  0  0  0  0  0  0  0  0  0
    4.7830    0.9720   19.5480 C   0  0  0  0  0  0  0  0  0  0  0  0
    5.6110    0.5110   20.5750 C   0  0  0  0  0  0  0  0  0  0  0  0
    5.1960    0.6710   21.9060 N   0  0  0  0  0  0  0  0  0  0  0  0
  2  1  1  0
  2  3  2  0
  2  4  2  0
  2  5  1  0
  5  6  1  0
  6  7  1  0
  7  8  1  0
  8  9  1  0
  9 10  2  0
 10 11  1  0
 11 12  2  0
 12 13  1  0
 13 14  1  0
 14 15  2  0
 15 16  1  0
 16 17  1  0
 17 18  1  0
 16 19  2  0
  9 20  1  0
 13 20  2  0
 19 20  1  0
  7 21  1  0
 21 22  2  0
 21 23  1  0
 23 24  1  0
 24 25  2  0
 25 26  1  0
 26 27  2  0
 27 28  1  0
 24 29  1  0
 28 29  2  0
 29 30  1  0
M  END
