MAR-TRE-3724962b-8
     RDKit          3D

 28 30  0  0  0  0  0  0  0  0999 V2000
    5.0210    1.5440   17.7650 C   0  0  0  0  0  0  0  0  0  0  0  0
    5.7910    1.2300   19.0020 C   0  0  0  0  0  0  0  0  0  0  0  0
    5.8210    2.0260   20.2500 C   0  0  0  0  0  0  0  0  0  0  0  0
    6.7180    1.3380   21.2120 C   0  0  0  0  0  0  0  0  0  0  0  0
    7.0950    1.6320   22.4800 N   0  0  0  0  0  0  0  0  0  0  0  0
    7.9500    0.7170   23.0070 C   0  0  0  0  0  0  0  0  0  0  0  0
    8.4420   -0.5240   22.2400 C   0  0  0  0  0  0  0  0  0  0  0  0
    9.4060   -1.4390   22.9410 C   0  0  0  0  0  0  0  0  0  0  0  0
    9.5590   -1.2240   24.3190 O   0  0  0  0  0  0  0  0  0  0  0  0
   10.1430   -2.4210   22.2680 N   0  0  0  0  0  0  0  0  0  0  0  0
   11.3500   -2.3680   21.7820 C   0  0  0  0  0  0  0  0  0  0  0  0
   12.5850   -2.4140   22.4000 C   0  0  0  0  0  0  0  0  0  0  0  0
   12.6220   -2.5570   23.7940 C   0  0  0  0  0  0  0  0  0  0  0  0
   13.3310   -1.2290   22.0330 C   0  0  0  0  0  0  0  0  0  0  0  0
   13.4060   -3.5170   21.7950 N   0  0  0  0  0  0  0  0  0  0  0  0
   13.5330   -3.7230   20.4500 C   0  0  0  0  0  0  0  0  0  0  0  0
   14.2840   -4.8270   19.8180 C   0  0  0  0  0  0  0  0  0  0  0  0
   14.5460   -5.9800   20.6070 O   0  0  0  0  0  0  0  0  0  0  0  0
   14.7820   -4.9570   18.4850 N   0  0  0  0  0  0  0  0  0  0  0  0
   15.9920   -5.2000   18.3020 C   0  0  0  0  0  0  0  0  0  0  0  0
   15.9590   -5.8760   16.8830 C   0  0  0  0  0  0  0  0  0  0  0  0
   14.6860   -6.0840   16.3170 C   0  0  0  0  0  0  0  0  0  0  0  0
   14.3490   -5.0690   17.0100 C   0  0  2  0  0  0  0  0  0  0  0  0
   15.3480   -4.3170   16.4630 C   0  0  0  0  0  0  0  0  0  0  0  0
   16.0880   -3.5690   16.0580 N   0  0  0  0  0  0  0  0  0  0  0  0
    7.9870   -0.6920   20.9980 C   0  0  0  0  0  0  0  0  0  0  0  0
    7.1230    0.2200   20.4480 N   0  0  0  0  0  0  0  0  0  0  0  0
    6.5870    0.1580   19.1630 N   0  0  0  0  0  0  0  0  0  0  0  0
  1  2  1  0
  2  3  1  0
  3  4  2  0
  4  5  1  0
  5  6  2  0
  6  7  1  0
  7  8  1  0
  8  9  2  0
  8 10  1  0
 10 11  1  0
 11 12  1  0
 12 13  1  0
 12 14  1  0
 12 15  1  0
 15 16  1  0
 16 17  1  0
 17 18  2  0
 17 19  1  0
 19 20  1  0
 20 21  1  0
 21 22  1  0
 19 23  1  0
 22 23  1  0
 23 24  1  6
 24 25  3  0
  7 26  2  0
  4 27  1  0
 26 27  1  0
  2 28  2  0
 27 28  1  0
M  END
