MAR-TRE-3724962b-25
     RDKit          3D

 32 35  0  0  0  0  0  0  0  0999 V2000
    8.3870   -5.8710   27.7570 C   0  0  0  0  0  0  0  0  0  0  0  0
    8.0850   -4.6510   28.4690 N   0  0  0  0  0  0  0  0  0  0  0  0
    6.7800   -3.7200   28.0770 S   0  0  0  0  0  0  0  0  0  0  0  0
    6.5150   -3.9080   26.6800 O   0  0  0  0  0  0  0  0  0  0  0  0
    5.8000   -3.9370   29.1050 O   0  0  0  0  0  0  0  0  0  0  0  0
    7.4420   -2.0890   28.2990 C   0  0  0  0  0  0  0  0  0  0  0  0
    6.5430   -1.0390   28.9260 C   0  0  0  0  0  0  0  0  0  0  0  0
    7.0110   -0.5270   30.2990 C   0  0  0  0  0  0  0  0  0  0  0  0
    6.1380    0.5260   30.9530 C   0  0  0  0  0  0  0  0  0  0  0  0
    4.9240    0.9070   30.1270 C   0  0  0  0  0  0  0  0  0  0  0  0
    4.0240    1.8740   30.6070 N   0  0  0  0  0  0  0  0  0  0  0  0
    3.0280    1.9560   29.5580 C   0  0  0  0  0  0  0  0  0  0  0  0
    3.3220    1.0220   28.4110 C   0  0  0  0  0  0  0  0  0  0  0  0
    2.5680    0.8180   27.1920 C   0  0  0  0  0  0  0  0  0  0  0  0
    3.5100    0.3360   26.3150 C   0  0  0  0  0  0  0  0  0  0  0  0
    3.2020    0.4550   24.9060 C   0  0  0  0  0  0  0  0  0  0  0  0
    4.3610    0.4290   24.1510 N   0  0  0  0  0  0  0  0  0  0  0  0
    3.1780    0.8550   23.3930 C   0  0  0  0  0  0  0  0  0  0  0  0
    3.4530    1.0200   21.9670 C   0  0  0  0  0  0  0  0  0  0  0  0
    4.1830    0.0070   21.4580 N   0  0  0  0  0  0  0  0  0  0  0  0
    4.8740    0.2050   20.1810 C   0  0  0  0  0  0  0  0  0  0  0  0
    5.9380   -0.6460   19.9410 N   0  0  0  0  0  0  0  0  0  0  0  0
    6.5590   -0.4430   18.7480 C   0  0  0  0  0  0  0  0  0  0  0  0
    6.2620    0.5280   17.7170 N   0  0  0  0  0  0  0  0  0  0  0  0
    5.1370    1.3540   18.0840 C   0  0  0  0  0  0  0  0  0  0  0  0
    4.4520    1.2070   19.2820 C   0  0  0  0  0  0  0  0  0  0  0  0
    3.3880    1.9740   19.6490 O   0  0  0  0  0  0  0  0  0  0  0  0
    3.1370    3.1310   18.8650 C   0  0  0  0  0  0  0  0  0  0  0  0
    4.9910   -0.7770   22.3870 C   0  0  0  0  0  0  0  0  0  0  0  0
    4.7710   -0.8310   23.7540 C   0  0  0  0  0  0  0  0  0  0  0  0
    4.5550    0.3810   28.8490 C   0  0  0  0  0  0  0  0  0  0  0  0
    5.3850   -0.5930   28.2720 C   0  0  0  0  0  0  0  0  0  0  0  0
  1  2  1  0
  3  2  1  0
  3  4  2  0
  3  5  2  0
  3  6  1  0
  6  7  1  0
  7  8  2  0
  8  9  1  0
  9 10  2  0
 10 11  1  0
 11 12  1  0
 12 13  2  0
 13 14  1  0
 14 15  1  0
 15 16  1  0
 16 17  1  0
 17 18  1  0
 18 19  1  0
 19 20  1  0
 20 21  1  0
 21 22  2  0
 22 23  1  0
 23 24  2  0
 24 25  1  0
 21 26  1  0
 25 26  2  0
 26 27  1  0
 27 28  1  0
 20 29  1  0
 17 30  1  0
 29 30  1  0
 10 31  1  0
 13 31  1  0
  7 32  1  0
 31 32  2  0
M  END
