MAR-TRE-3724962b-13
     RDKit          3D

 20 21  0  0  0  0  0  0  0  0999 V2000
   -0.8590    3.5380   16.5280 C   0  0  0  0  0  0  0  0  0  0  0  0
   -1.1080    3.7870   17.9060 O   0  0  0  0  0  0  0  0  0  0  0  0
   -0.2880    3.1570   18.8010 C   0  0  0  0  0  0  0  0  0  0  0  0
    1.2140    3.3050   18.8200 C   0  0  0  0  0  0  0  0  0  0  0  0
    1.9860    2.5340   19.8710 C   0  0  0  0  0  0  0  0  0  0  0  0
    3.4940    2.7690   19.7980 C   0  0  0  0  0  0  0  0  0  0  0  0
    4.3880    1.5570   19.5310 C   0  0  0  0  0  0  0  0  0  0  0  0
    5.1150    1.6670   18.2220 C   0  0  0  0  0  0  0  0  0  0  0  0
    5.9590    0.7400   17.8180 N   0  0  0  0  0  0  0  0  0  0  0  0
    6.1100   -0.3920   18.7410 C   0  0  0  0  0  0  0  0  0  0  0  0
    6.9340   -1.3170   18.3770 N   0  0  0  0  0  0  0  0  0  0  0  0
    5.4770   -0.5370   19.9040 N   0  0  0  0  0  0  0  0  0  0  0  0
    4.6260    0.4240   20.2950 C   0  0  0  0  0  0  0  0  0  0  0  0
    3.9970    0.2120   21.5280 N   0  0  0  0  0  0  0  0  0  0  0  0
    1.2960    1.7180   20.7770 C   0  0  0  0  0  0  0  0  0  0  0  0
   -0.1070    1.6000   20.7350 C   0  0  0  0  0  0  0  0  0  0  0  0
   -0.7820    0.7970   21.6280 O   0  0  0  0  0  0  0  0  0  0  0  0
   -1.8250   -0.0710   21.1870 C   0  0  0  0  0  0  0  0  0  0  0  0
   -0.8800    2.3120   19.7650 C   0  0  0  0  0  0  0  0  0  0  0  0
   -2.7870    2.1400   19.7360 Br  0  0  0  0  0  0  0  0  0  0  0  0
  1  2  1  0
  2  3  1  0
  3  4  2  0
  4  5  1  0
  5  6  1  0
  6  7  1  0
  7  8  2  0
  8  9  1  0
  9 10  2  0
 10 11  1  0
 10 12  1  0
  7 13  1  0
 12 13  2  0
 13 14  1  0
  5 15  2  0
 15 16  1  0
 16 17  1  0
 17 18  1  0
  3 19  1  0
 16 19  2  0
 19 20  1  0
M  END
