MAR-TRE-3724962b-27
     RDKit          3D

 17 18  0  0  0  0  0  0  0  0999 V2000
    0.4360    2.5330   20.4210 C   0  0  0  0  0  0  0  0  0  0  0  0
    1.3400    3.4930   21.2050 C   0  0  2  0  0  0  0  0  0  0  0  0
    0.7740    4.2160   22.0180 O   0  0  0  0  0  0  0  0  0  0  0  0
    2.3400    4.1940   20.2890 C   0  0  1  0  0  0  0  0  0  0  0  0
    2.5930    5.2980   20.7520 O   0  0  0  0  0  0  0  0  0  0  0  0
    3.4830    3.2310   19.9430 C   0  0  2  0  0  0  0  0  0  0  0  0
    3.4920    3.2550   18.4780 C   0  0  0  0  0  0  0  0  0  0  0  0
    4.4920    2.5740   17.8750 N   0  0  0  0  0  0  0  0  0  0  0  0
    4.9790    1.5470   18.5870 C   0  0  0  0  0  0  0  0  0  0  0  0
    6.0410    0.7970   18.0610 N   0  0  0  0  0  0  0  0  0  0  0  0
    6.4710   -0.2950   18.9420 C   0  0  0  0  0  0  0  0  0  0  0  0
    7.4780   -0.9880   18.4440 N   0  0  0  0  0  0  0  0  0  0  0  0
    5.9070   -0.6350   20.2400 N   0  0  0  0  0  0  0  0  0  0  0  0
    4.9130    0.1540   20.6260 C   0  0  0  0  0  0  0  0  0  0  0  0
    4.3610   -0.1220   21.8410 N   0  0  0  0  0  0  0  0  0  0  0  0
    4.4050    1.2570   19.8580 C   0  0  0  0  0  0  0  0  0  0  0  0
    3.3850    1.9900   20.4010 N   0  0  0  0  0  0  0  0  0  0  0  0
  2  1  1  6
  2  3  1  0
  2  4  1  0
  4  5  1  1
  4  6  1  0
  6  7  1  6
  7  8  1  0
  8  9  1  0
  9 10  1  0
 10 11  2  0
 11 12  1  0
 11 13  1  0
 13 14  2  0
 14 15  1  0
  9 16  2  0
 14 16  1  0
  6 17  1  0
 16 17  1  0
M  END
