MAR-TRE-3724962b-29
     RDKit          3D

 27 30  0  0  0  0  0  0  0  0999 V2000
    3.2400    2.4100   19.3290 C   0  0  0  0  0  0  0  0  0  0  0  0
    3.6540    1.1020   18.9430 O   0  0  0  0  0  0  0  0  0  0  0  0
    4.8030    0.6950   19.5290 C   0  0  0  0  0  0  0  0  0  0  0  0
    4.8530   -0.0490   20.8570 C   0  0  0  0  0  0  0  0  0  0  0  0
    6.0100   -0.4360   21.4100 N   0  0  0  0  0  0  0  0  0  0  0  0
    7.1600   -0.1320   20.7180 C   0  0  0  0  0  0  0  0  0  0  0  0
    7.2810    0.5070   19.5600 N   0  0  0  0  0  0  0  0  0  0  0  0
    6.2030    0.9440   18.9090 C   0  0  0  0  0  0  0  0  0  0  0  0
    6.3440    1.6030   17.7080 N   0  0  0  0  0  0  0  0  0  0  0  0
    5.2460    1.9800   17.0790 C   0  0  0  0  0  0  0  0  0  0  0  0
    5.4480    2.7290   15.7510 C   0  0  0  0  0  0  0  0  0  0  0  0
    6.7100    2.0650   14.6390 N   0  0  0  0  0  0  0  0  0  0  0  0
    6.3140    1.9540   12.7460 C   0  0  0  0  0  0  0  0  0  0  0  0
    6.9840    1.5170   11.4570 C   0  0  0  0  0  0  0  0  0  0  0  0
    5.9710    0.8640   10.6450 C   0  0  0  0  0  0  0  0  0  0  0  0
    6.5610   -0.0990    9.9940 C   0  0  0  0  0  0  0  0  0  0  0  0
    7.7620    0.2500    9.8150 C   0  0  0  0  0  0  0  0  0  0  0  0
    8.3820   -0.7280    9.3600 N   0  0  0  0  0  0  0  0  0  0  0  0
    7.5000   -1.7560    9.2960 C   0  0  0  0  0  0  0  0  0  0  0  0
    7.8650   -3.0550    8.9750 C   0  0  0  0  0  0  0  0  0  0  0  0
    6.9000   -3.9000    8.8640 C   0  0  0  0  0  0  0  0  0  0  0  0
    5.6770   -3.4040    9.0940 C   0  0  0  0  0  0  0  0  0  0  0  0
    4.8440   -4.1300    8.9620 F   0  0  0  0  0  0  0  0  0  0  0  0
    5.2550   -2.1890    9.4350 C   0  0  0  0  0  0  0  0  0  0  0  0
    6.2460   -1.3190    9.5830 C   0  0  0  0  0  0  0  0  0  0  0  0
    7.6530    1.6110   15.5960 C   0  0  0  0  0  0  0  0  0  0  0  0
    7.1970    1.0280   16.8280 C   0  0  0  0  0  0  0  0  0  0  0  0
  1  2  1  0
  2  3  1  0
  3  4  2  0
  4  5  1  0
  5  6  2  0
  6  7  1  0
  3  8  1  0
  7  8  2  0
  8  9  1  0
  9 10  1  0
 10 11  1  0
 11 12  1  0
 12 13  1  0
 13 14  1  0
 14 15  1  0
 15 16  1  0
 16 17  2  0
 17 18  1  0
 18 19  1  0
 19 20  1  0
 20 21  2  0
 21 22  1  0
 22 23  1  0
 22 24  2  0
 16 25  1  0
 19 25  2  0
 24 25  1  0
 12 26  1  0
  9 27  1  0
 26 27  1  0
M  END
