MAR-TRE-3724962b-12
     RDKit          3D

 26 29  0  0  0  0  0  0  0  0999 V2000
    1.4570    4.9090   15.8900 C   0  0  0  0  0  0  0  0  0  0  0  0
    1.8430    5.8150   16.9160 O   0  0  0  0  0  0  0  0  0  0  0  0
    2.5880    5.3050   17.9450 C   0  0  0  0  0  0  0  0  0  0  0  0
    2.4750    3.8900   18.4570 C   0  0  0  0  0  0  0  0  0  0  0  0
    3.3750    3.4770   19.6000 C   0  0  0  0  0  0  0  0  0  0  0  0
    3.2020    2.0360   20.0690 C   0  0  0  0  0  0  0  0  0  0  0  0
    4.3690    1.1160   19.7170 C   0  0  0  0  0  0  0  0  0  0  0  0
    4.7980    1.1670   18.2850 C   0  0  0  0  0  0  0  0  0  0  0  0
    5.7870    0.4250   17.8300 N   0  0  0  0  0  0  0  0  0  0  0  0
    6.4230   -0.4280   18.8320 C   0  0  0  0  0  0  0  0  0  0  0  0
    7.4080   -1.1610   18.4410 N   0  0  0  0  0  0  0  0  0  0  0  0
    6.0810   -0.5100   20.1040 N   0  0  0  0  0  0  0  0  0  0  0  0
    5.0730    0.2470   20.5330 C   0  0  0  0  0  0  0  0  0  0  0  0
    4.7870    0.0910   21.8840 N   0  0  0  0  0  0  0  0  0  0  0  0
    4.2720    4.4010   20.1440 C   0  0  0  0  0  0  0  0  0  0  0  0
    4.3370    5.7100   19.6380 C   0  0  0  0  0  0  0  0  0  0  0  0
    3.5220    6.1470   18.5720 C   0  0  0  0  0  0  0  0  0  0  0  0
    3.6370    7.4450   18.1290 O   0  0  0  0  0  0  0  0  0  0  0  0
    2.4210    8.1500   18.3740 C   0  0  0  0  0  0  0  0  0  0  0  0
    5.1980    6.6650   20.1420 O   0  0  0  0  0  0  0  0  0  0  0  0
    6.0940    6.3310   21.2300 C   0  0  1  0  0  0  0  0  0  0  0  0
    5.9790    7.4190   22.2930 C   0  0  0  0  0  0  0  0  0  0  0  0
    7.1730    8.1800   22.8140 C   0  0  0  0  0  0  0  0  0  0  0  0
    6.1310    8.8840   21.9800 C   0  0  0  0  0  0  0  0  0  0  0  0
    5.9960    4.9280   21.7410 C   0  0  0  0  0  0  0  0  0  0  0  0
    5.1540    4.0240   21.2470 C   0  0  0  0  0  0  0  0  0  0  0  0
  1  2  1  0
  2  3  1  0
  3  4  2  0
  4  5  1  0
  5  6  1  0
  6  7  1  0
  7  8  2  0
  8  9  1  0
  9 10  2  0
 10 11  1  0
 10 12  1  0
  7 13  1  0
 12 13  2  0
 13 14  1  0
  5 15  2  0
 15 16  1  0
  3 17  1  0
 16 17  2  0
 17 18  1  0
 18 19  1  0
 16 20  1  0
 20 21  1  0
 21 22  1  1
 22 23  1  0
 22 24  1  0
 23 24  1  0
 21 25  1  0
 15 26  1  0
 25 26  2  0
M  END
