MAR-TRE-3724962b-2
     RDKit          3D

 33 35  0  0  0  0  0  0  0  0999 V2000
    2.3680    6.9290   15.6320 N   0  0  0  0  0  0  0  0  0  0  0  0
    1.2490    6.7240   16.3990 C   0  0  1  0  0  0  0  0  0  0  0  0
    1.3430    5.4630   17.2260 C   0  0  0  0  0  0  0  0  0  0  0  0
    2.5920    4.5920   17.0620 C   0  0  0  0  0  0  0  0  0  0  0  0
    3.2360    4.7120   15.9970 O   0  0  0  0  0  0  0  0  0  0  0  0
    2.9720    3.7220   18.0320 N   0  0  0  0  0  0  0  0  0  0  0  0
    2.6210    3.9950   19.3120 C   0  0  0  0  0  0  0  0  0  0  0  0
    2.9970    3.0720   20.4630 C   0  0  0  0  0  0  0  0  0  0  0  0
    3.9870    1.9840   20.0550 C   0  0  0  0  0  0  0  0  0  0  0  0
    4.6510    2.0990   18.7200 C   0  0  0  0  0  0  0  0  0  0  0  0
    5.5450    1.1770   18.2690 N   0  0  0  0  0  0  0  0  0  0  0  0
    5.7960    0.1380   19.1270 C   0  0  0  0  0  0  0  0  0  0  0  0
    6.6660   -0.8860   18.8570 C   0  0  0  0  0  0  0  0  0  0  0  0
    7.3290   -1.2670   19.9860 F   0  0  0  0  0  0  0  0  0  0  0  0
    7.6200   -0.5780   17.9660 F   0  0  0  0  0  0  0  0  0  0  0  0
    6.0140   -1.9770   18.3880 F   0  0  0  0  0  0  0  0  0  0  0  0
    5.2290   -0.0990   20.4570 N   0  0  0  0  0  0  0  0  0  0  0  0
    4.3140    0.8170   20.9540 C   0  0  0  0  0  0  0  0  0  0  0  0
    3.7090    0.7170   22.2110 C   0  0  0  0  0  0  0  0  0  0  0  0
    4.1920    1.6070   23.1240 F   0  0  0  0  0  0  0  0  0  0  0  0
    2.3630    0.9370   22.1780 F   0  0  0  0  0  0  0  0  0  0  0  0
    3.8770   -0.5060   22.7900 F   0  0  0  0  0  0  0  0  0  0  0  0
    4.3400    3.2150   17.9160 C   0  0  0  0  0  0  0  0  0  0  0  0
    0.8800    7.8660   17.2860 C   0  0  0  0  0  0  0  0  0  0  0  0
    1.1700    9.1120   16.7810 N   0  0  0  0  0  0  0  0  0  0  0  0
    0.9440    9.3300   15.3440 C   0  0  0  0  0  0  0  0  0  0  0  0
    0.6030   10.7930   14.9940 C   0  0  0  0  0  0  0  0  0  0  0  0
   -0.6720   10.8510   14.5340 F   0  0  0  0  0  0  0  0  0  0  0  0
    1.3760   11.1860   13.9500 F   0  0  0  0  0  0  0  0  0  0  0  0
    0.7570   11.8310   16.1270 C   0  0  0  0  0  0  0  0  0  0  0  0
    0.3560   11.3710   17.3810 C   0  0  0  0  0  0  0  0  0  0  0  0
    1.0850   10.2390   17.7170 C   0  0  0  0  0  0  0  0  0  0  0  0
    1.6900   10.3150   19.0070 O   0  0  0  0  0  0  0  0  0  0  0  0
  2  1  1  1
  2  3  1  0
  3  4  1  0
  4  5  2  0
  4  6  1  0
  6  7  1  0
  7  8  1  0
  8  9  1  0
  9 10  2  0
 10 11  1  0
 11 12  2  0
 12 13  1  0
 13 14  1  0
 13 15  1  0
 13 16  1  0
 12 17  1  0
  9 18  1  0
 17 18  2  0
 18 19  1  0
 19 20  1  0
 19 21  1  0
 19 22  1  0
  6 23  1  0
 10 23  1  0
  2 24  1  0
 24 25  1  0
 25 26  1  0
 26 27  1  0
 27 28  1  0
 27 29  1  0
 27 30  1  0
 30 31  1  0
 25 32  1  0
 31 32  1  0
 32 33  2  0
M  END
