MAR-TRE-3724962b-9
     RDKit          3D

 18 19  0  0  0  0  0  0  0  0999 V2000
    7.6270   -0.7560   17.3540 N   0  0  0  0  0  0  0  0  0  0  0  0
    6.6080    0.0290   17.8220 C   0  0  0  0  0  0  0  0  0  0  0  0
    6.0900   -0.3720   19.0490 N   0  0  0  0  0  0  0  0  0  0  0  0
    5.0020    0.3690   19.6500 C   0  0  0  0  0  0  0  0  0  0  0  0
    4.5100   -0.0010   20.8220 N   0  0  0  0  0  0  0  0  0  0  0  0
    4.4950    1.5780   18.8330 C   0  0  0  0  0  0  0  0  0  0  0  0
    3.4620    2.3380   19.3160 N   0  0  0  0  0  0  0  0  0  0  0  0
    3.4490    2.3810   20.5540 O   0  0  0  0  0  0  0  0  0  0  0  0
    5.1930    1.8790   17.4800 C   0  0  0  0  0  0  0  0  0  0  0  0
    4.7600    2.9240   16.7590 O   0  0  0  0  0  0  0  0  0  0  0  0
    5.2320    3.6080   15.4790 C   0  0  0  0  0  0  0  0  0  0  0  0
    4.3060    4.7010   14.8560 C   0  0  0  0  0  0  0  0  0  0  0  0
    2.8790    4.6670   15.3410 C   0  0  0  0  0  0  0  0  0  0  0  0
    2.2470    5.8680   15.0230 C   0  0  0  0  0  0  0  0  0  0  0  0
    2.9890    6.6680   14.1480 C   0  0  0  0  0  0  0  0  0  0  0  0
    3.6100    5.9690   13.0970 C   0  0  0  0  0  0  0  0  0  0  0  0
    4.3880    4.8550   13.5110 C   0  0  0  0  0  0  0  0  0  0  0  0
    6.2190    1.0750   17.0750 N   0  0  0  0  0  0  0  0  0  0  0  0
  1  2  1  0
  2  3  2  0
  3  4  1  0
  4  5  1  0
  4  6  2  0
  6  7  1  0
  7  8  2  0
  6  9  1  0
  9 10  1  0
 10 11  1  0
 11 12  1  0
 12 13  1  0
 13 14  1  0
 14 15  1  0
 15 16  1  0
 12 17  1  0
 16 17  1  0
  2 18  1  0
  9 18  2  0
M  END
