MAR-TRE-3724962b-7
     RDKit          3D

 20 21  0  0  0  0  0  0  0  0999 V2000
    3.3470    0.3570   22.3660 O   0  0  0  0  0  0  0  0  0  0  0  0
    4.0110    0.3270   21.3270 C   0  0  0  0  0  0  0  0  0  0  0  0
    4.8220   -0.7050   20.8950 N   0  0  0  0  0  0  0  0  0  0  0  0
    4.9080   -1.1240   19.5480 C   0  0  0  0  0  0  0  0  0  0  0  0
    4.8270   -2.4470   19.2360 O   0  0  0  0  0  0  0  0  0  0  0  0
    5.0640   -0.0860   18.6630 N   0  0  0  0  0  0  0  0  0  0  0  0
    6.3140   -0.1320   18.1720 C   0  0  1  0  0  0  0  0  0  0  0  0
    6.8780   -1.5320   17.9270 C   0  0  0  0  0  0  0  0  0  0  0  0
    7.3840   -1.5470   16.5180 C   0  0  2  0  0  0  0  0  0  0  0  0
    8.2940   -2.3320   16.3070 O   0  0  0  0  0  0  0  0  0  0  0  0
    7.7200   -0.1010   16.5080 C   0  0  1  0  0  0  0  0  0  0  0  0
    8.3910    0.3160   15.2510 C   0  0  0  0  0  0  0  0  0  0  0  0
    9.5780    0.0360   15.2560 O   0  0  0  0  0  0  0  0  0  0  0  0
    6.4690    0.4980   16.8760 O   0  0  0  0  0  0  0  0  0  0  0  0
    4.5600    1.0550   19.0920 C   0  0  0  0  0  0  0  0  0  0  0  0
    4.0170    1.4070   20.3330 C   0  0  0  0  0  0  0  0  0  0  0  0
    3.5020    2.6580   20.6790 C   0  0  0  0  0  0  0  0  0  0  0  0
    2.4100    2.4880   21.4820 F   0  0  0  0  0  0  0  0  0  0  0  0
    4.3860    3.4530   21.3330 F   0  0  0  0  0  0  0  0  0  0  0  0
    3.0600    3.3560   19.5950 F   0  0  0  0  0  0  0  0  0  0  0  0
  1  2  2  0
  2  3  1  0
  3  4  1  0
  4  5  2  0
  4  6  1  0
  7  6  1  6
  7  8  1  0
  8  9  1  0
  9 10  1  1
  9 11  1  0
 11 12  1  6
 12 13  1  0
  7 14  1  0
 11 14  1  0
  6 15  1  0
  2 16  1  0
 15 16  2  0
 16 17  1  0
 17 18  1  0
 17 19  1  0
 17 20  1  0
M  END
