MAR-TRE-3724962b-15
     RDKit          3D

 26 29  0  0  0  0  0  0  0  0999 V2000
    1.7760    4.9230   18.1770 C   0  0  0  0  0  0  0  0  0  0  0  0
    2.8400    3.8430   18.3750 C   0  0  0  0  0  0  0  0  0  0  0  0
    2.7930    3.0640   19.4590 N   0  0  0  0  0  0  0  0  0  0  0  0
    3.8110    2.2040   19.3970 C   0  0  0  0  0  0  0  0  0  0  0  0
    4.1100    1.1510   20.4280 C   0  0  0  0  0  0  0  0  0  0  0  0
    3.1890    1.0600   21.6440 C   0  0  0  0  0  0  0  0  0  0  0  0
    1.7750    1.4980   21.2180 C   0  0  0  0  0  0  0  0  0  0  0  0
    0.7470    1.5000   22.1890 N   0  0  0  0  0  0  0  0  0  0  0  0
    1.1460    1.0710   23.5390 C   0  0  0  0  0  0  0  0  0  0  0  0
    0.1070    1.0990   24.3950 N   0  0  0  0  0  0  0  0  0  0  0  0
    2.4900    0.6500   23.9600 N   0  0  0  0  0  0  0  0  0  0  0  0
    3.4090    0.6750   22.9810 C   0  0  0  0  0  0  0  0  0  0  0  0
    5.1620    0.4200   20.1640 N   0  0  0  0  0  0  0  0  0  0  0  0
    5.9030    0.6190   19.0420 C   0  0  0  0  0  0  0  0  0  0  0  0
    6.9380   -0.2600   19.0300 N   0  0  0  0  0  0  0  0  0  0  0  0
    7.4340   -0.6300   20.3800 C   0  0  0  0  0  0  0  0  0  0  0  0
    7.4730   -2.0710   20.5800 C   0  0  0  0  0  0  0  0  0  0  0  0
    6.2980   -2.7690   20.1450 O   0  0  0  0  0  0  0  0  0  0  0  0
    5.7810   -2.2560   18.9170 C   0  0  0  0  0  0  0  0  0  0  0  0
    6.7170   -1.4040   18.1890 C   0  0  0  0  0  0  0  0  0  0  0  0
    5.6840    1.5650   18.0360 N   0  0  0  0  0  0  0  0  0  0  0  0
    4.5920    2.3780   18.2520 C   0  0  0  0  0  0  0  0  0  0  0  0
    3.9270    3.4970   17.5650 N   0  0  0  0  0  0  0  0  0  0  0  0
    4.1690    4.2430   16.2840 C   0  0  0  0  0  0  0  0  0  0  0  0
    3.0160    4.5460   15.5760 C   0  0  0  0  0  0  0  0  0  0  0  0
    5.0650    3.6970   15.4190 C   0  0  0  0  0  0  0  0  0  0  0  0
  1  2  1  0
  2  3  2  0
  3  4  1  0
  4  5  2  0
  5  6  1  0
  6  7  2  0
  7  8  1  0
  8  9  2  0
  9 10  1  0
  9 11  1  0
  6 12  1  0
 11 12  2  0
  5 13  1  0
 13 14  2  0
 14 15  1  0
 15 16  1  0
 16 17  1  0
 17 18  1  0
 18 19  1  0
 15 20  1  0
 19 20  1  0
 14 21  1  0
  4 22  1  0
 21 22  2  0
  2 23  1  0
 22 23  1  0
 23 24  1  0
 24 25  1  0
 24 26  1  0
M  END
