MAR-TRE-3724962b-3
     RDKit          3D

 35 38  0  0  0  0  0  0  0  0999 V2000
    5.1460   -4.9190   23.4420 C   0  0  0  0  0  0  0  0  0  0  0  0
    5.6560   -3.8610   22.7070 N   0  0  0  0  0  0  0  0  0  0  0  0
    6.4250   -2.8180   23.2850 C   0  0  0  0  0  0  0  0  0  0  0  0
    7.8990   -2.9510   23.6380 C   0  0  0  0  0  0  0  0  0  0  0  0
    8.6990   -1.8260   24.2530 C   0  0  0  0  0  0  0  0  0  0  0  0
    8.1060   -0.4800   24.5750 C   0  0  0  0  0  0  0  0  0  0  0  0
    6.6240   -0.2980   24.2320 C   0  0  0  0  0  0  0  0  0  0  0  0
    5.7770   -1.4010   23.6060 C   0  0  0  0  0  0  0  0  0  0  0  0
    4.4200   -1.1450   23.3170 C   0  0  0  0  0  0  0  0  0  0  0  0
    4.0960    0.1720   22.9350 N   0  0  0  0  0  0  0  0  0  0  0  0
    4.2800    0.6660   21.5690 C   0  0  0  0  0  0  0  0  0  0  0  0
    4.6100   -0.3230   20.6010 N   0  0  0  0  0  0  0  0  0  0  0  0
    4.8210   -0.0890   19.2790 C   0  0  0  0  0  0  0  0  0  0  0  0
    5.0980   -1.2500   18.6010 N   0  0  0  0  0  0  0  0  0  0  0  0
    6.0990   -1.1270   17.8440 C   0  0  0  0  0  0  0  0  0  0  0  0
    6.8710   -2.2650   17.7780 C   0  0  0  0  0  0  0  0  0  0  0  0
    7.9890   -2.2750   17.0120 C   0  0  0  0  0  0  0  0  0  0  0  0
    8.3190   -1.0510   16.2760 C   0  0  0  0  0  0  0  0  0  0  0  0
    7.5200    0.1770   16.3150 C   0  0  0  0  0  0  0  0  0  0  0  0
    6.3250    0.0950   17.1790 C   0  0  0  0  0  0  0  0  0  0  0  0
    8.2460    1.1120   15.4410 C   0  0  0  0  0  0  0  0  0  0  0  0
    9.0950    0.1890   15.1950 C   0  0  0  0  0  0  0  0  0  0  0  0
    9.8440    0.4820   14.2900 O   0  0  0  0  0  0  0  0  0  0  0  0
    9.3350   -0.7530   15.4750 N   0  0  0  0  0  0  0  0  0  0  0  0
    4.7690    1.1060   18.7140 N   0  0  0  0  0  0  0  0  0  0  0  0
    4.4520    2.0820   19.5970 C   0  0  0  0  0  0  0  0  0  0  0  0
    4.1710    1.9730   21.1040 C   0  0  0  0  0  0  0  0  0  0  0  0
    3.8220    3.1370   21.9680 C   0  0  0  0  0  0  0  0  0  0  0  0
    4.8650    4.0090   22.1370 F   0  0  0  0  0  0  0  0  0  0  0  0
    3.4410    2.7930   23.2290 F   0  0  0  0  0  0  0  0  0  0  0  0
    2.8030    3.8920   21.4690 F   0  0  0  0  0  0  0  0  0  0  0  0
    6.3150   -4.3820   21.2700 S   0  0  0  0  0  0  0  0  0  0  0  0
    7.2100   -2.9130   20.7700 C   0  0  0  0  0  0  0  0  0  0  0  0
    5.2300   -4.5980   20.3210 O   0  0  0  0  0  0  0  0  0  0  0  0
    7.2580   -5.4380   21.5940 O   0  0  0  0  0  0  0  0  0  0  0  0
  1  2  1  0
  2  3  1  0
  3  4  2  0
  4  5  1  0
  5  6  2  0
  6  7  1  0
  3  8  1  0
  7  8  2  0
  8  9  1  0
  9 10  1  0
 10 11  1  0
 11 12  2  0
 12 13  1  0
 13 14  1  0
 14 15  1  0
 15 16  2  0
 16 17  1  0
 17 18  2  0
 18 19  1  0
 15 20  1  0
 19 20  2  0
 19 21  1  0
 21 22  1  0
 22 23  2  0
 18 24  1  0
 22 24  1  0
 13 25  2  0
 25 26  1  0
 11 27  1  0
 26 27  2  0
 27 28  1  0
 28 29  1  0
 28 30  1  0
 28 31  1  0
 32  2  1  0
 32 33  1  0
 32 34  2  0
 32 35  2  0
M  END
