MAR-TRE-3724962b-10
     RDKit          3D

 31 34  0  0  0  0  0  0  0  0999 V2000
   -4.7630    2.7720   19.5820 C   0  0  0  0  0  0  0  0  0  0  0  0
   -3.9660    3.9670   19.1310 C   0  0  0  0  0  0  0  0  0  0  0  0
   -3.5110    4.7530   20.1660 N   0  0  0  0  0  0  0  0  0  0  0  0
   -2.1820    5.3510   20.1510 C   0  0  0  0  0  0  0  0  0  0  0  0
   -1.7800    5.8950   19.1140 O   0  0  0  0  0  0  0  0  0  0  0  0
   -1.3750    5.3360   21.2350 N   0  0  0  0  0  0  0  0  0  0  0  0
   -0.2230    4.6230   21.1340 C   0  0  0  0  0  0  0  0  0  0  0  0
    0.6700    4.3720   22.2480 N   0  0  0  0  0  0  0  0  0  0  0  0
    1.7270    3.5820   21.6350 C   0  0  0  0  0  0  0  0  0  0  0  0
    2.9680    3.0250   22.3580 C   0  0  0  0  0  0  0  0  0  0  0  0
    3.1430    3.3070   23.8420 C   0  0  1  0  0  0  0  0  0  0  0  0
    4.4740    3.4000   24.2750 C   0  0  0  0  0  0  0  0  0  0  0  0
    4.6190    4.4880   25.0770 C   0  0  0  0  0  0  0  0  0  0  0  0
    3.3910    5.0880   25.1720 C   0  0  0  0  0  0  0  0  0  0  0  0
    2.5530    4.2680   24.4230 O   0  0  0  0  0  0  0  0  0  0  0  0
    3.8440    2.2850   21.5420 C   0  0  0  0  0  0  0  0  0  0  0  0
    4.9530    1.7670   22.1080 F   0  0  0  0  0  0  0  0  0  0  0  0
    3.6330    2.0510   20.1520 C   0  0  0  0  0  0  0  0  0  0  0  0
    4.5500    1.3030   19.4060 C   0  0  0  0  0  0  0  0  0  0  0  0
    4.9820    1.8090   18.0280 C   0  0  0  0  0  0  0  0  0  0  0  0
    5.8780    1.0700   17.3300 N   0  0  0  0  0  0  0  0  0  0  0  0
    6.3660   -0.1270   17.8850 C   0  0  0  0  0  0  0  0  0  0  0  0
    7.3730   -0.8020   16.9430 C   0  0  0  0  0  0  0  0  0  0  0  0
    7.9670   -0.0610   15.9330 C   0  0  0  0  0  0  0  0  0  0  0  0
    6.9660   -2.1140   16.3560 C   0  0  0  0  0  0  0  0  0  0  0  0
    8.3080   -1.1990   17.7660 O   0  0  0  0  0  0  0  0  0  0  0  0
    5.9840   -0.6660   19.2020 N   0  0  0  0  0  0  0  0  0  0  0  0
    5.0910    0.0910   19.8880 C   0  0  0  0  0  0  0  0  0  0  0  0
    2.4920    2.5830   19.5240 C   0  0  0  0  0  0  0  0  0  0  0  0
    1.5000    3.3760   20.2970 C   0  0  0  0  0  0  0  0  0  0  0  0
    0.3000    4.0160   19.9790 N   0  0  0  0  0  0  0  0  0  0  0  0
  1  2  1  0
  2  3  1  0
  3  4  1  0
  4  5  2  0
  4  6  1  0
  6  7  1  0
  7  8  2  0
  8  9  1  0
  9 10  2  0
 11 10  1  6
 11 12  1  0
 12 13  1  0
 13 14  1  0
 11 15  1  0
 14 15  1  0
 10 16  1  0
 16 17  1  0
 16 18  2  0
 18 19  1  0
 19 20  2  0
 20 21  1  0
 21 22  2  0
 22 23  1  0
 23 24  1  0
 23 25  1  0
 23 26  1  0
 22 27  1  0
 19 28  1  0
 27 28  2  0
 18 29  1  0
  9 30  1  0
 29 30  2  0
  7 31  1  0
 30 31  1  0
M  END
