MAR-TRE-3724962b-20
     RDKit          3D

 33 37  0  0  0  0  0  0  0  0999 V2000
    0.5990    7.1670   29.0850 C   0  0  0  0  0  0  0  0  0  0  0  0
    0.8310    8.6920   28.1950 S   0  0  0  0  0  0  0  0  0  0  0  0
   -0.2870    9.5450   28.4840 O   0  0  0  0  0  0  0  0  0  0  0  0
    2.1970    9.1150   28.3400 O   0  0  0  0  0  0  0  0  0  0  0  0
    0.6070    8.1820   26.6010 N   0  0  0  0  0  0  0  0  0  0  0  0
   -0.7000    8.1320   26.1230 C   0  0  0  0  0  0  0  0  0  0  0  0
   -1.0030    7.1970   24.9590 C   0  0  0  0  0  0  0  0  0  0  0  0
    0.0220    6.6080   24.3050 N   0  0  0  0  0  0  0  0  0  0  0  0
   -0.0400    5.2700   24.1570 C   0  0  0  0  0  0  0  0  0  0  0  0
    0.4960    4.6600   22.8700 C   0  0  0  0  0  0  0  0  0  0  0  0
    1.7440    3.8750   22.9420 C   0  0  0  0  0  0  0  0  0  0  0  0
    2.0280    3.4560   21.7660 N   0  0  0  0  0  0  0  0  0  0  0  0
    3.0880    2.7050   21.3920 C   0  0  0  0  0  0  0  0  0  0  0  0
    3.2470    2.3360   19.9410 C   0  0  0  0  0  0  0  0  0  0  0  0
    4.3240    1.5440   19.3840 C   0  0  0  0  0  0  0  0  0  0  0  0
    4.7300    0.5080   20.1880 C   0  0  0  0  0  0  0  0  0  0  0  0
    5.7140   -0.3800   19.9150 N   0  0  0  0  0  0  0  0  0  0  0  0
    6.3250   -0.2160   18.7790 C   0  0  0  0  0  0  0  0  0  0  0  0
    7.3080   -1.0750   18.4800 N   0  0  0  0  0  0  0  0  0  0  0  0
    6.0510    0.7380   17.8890 N   0  0  0  0  0  0  0  0  0  0  0  0
    5.0610    1.5950   18.1950 C   0  0  0  0  0  0  0  0  0  0  0  0
    2.2370    2.8250   19.1010 N   0  0  0  0  0  0  0  0  0  0  0  0
    1.1750    3.5600   19.5220 C   0  0  0  0  0  0  0  0  0  0  0  0
    0.2430    3.9500   18.5440 N   0  0  0  0  0  0  0  0  0  0  0  0
    0.6540    4.2230   17.1600 C   0  0  0  0  0  0  0  0  0  0  0  0
    0.1470    5.4580   16.8100 C   0  0  0  0  0  0  0  0  0  0  0  0
   -1.2000    5.4890   16.7450 O   0  0  0  0  0  0  0  0  0  0  0  0
   -1.8450    4.6110   17.6500 C   0  0  0  0  0  0  0  0  0  0  0  0
   -1.1550    4.3050   18.8230 C   0  0  0  0  0  0  0  0  0  0  0  0
    1.0430    3.9100   20.8940 C   0  0  0  0  0  0  0  0  0  0  0  0
    0.0850    4.6500   21.5370 N   0  0  0  0  0  0  0  0  0  0  0  0
    1.2720    7.1240   24.7050 C   0  0  0  0  0  0  0  0  0  0  0  0
    1.4470    7.1680   26.0900 C   0  0  0  0  0  0  0  0  0  0  0  0
  2  1  1  0
  2  3  2  0
  2  4  2  0
  2  5  1  0
  5  6  1  0
  6  7  1  0
  7  8  1  0
  8  9  1  0
  9 10  1  0
 10 11  2  0
 11 12  1  0
 12 13  1  0
 13 14  2  0
 14 15  1  0
 15 16  2  0
 16 17  1  0
 17 18  2  0
 18 19  1  0
 18 20  1  0
 15 21  1  0
 20 21  2  0
 14 22  1  0
 22 23  2  0
 23 24  1  0
 24 25  1  0
 25 26  1  0
 26 27  1  0
 27 28  1  0
 24 29  1  0
 28 29  1  0
 12 30  1  0
 23 30  1  0
 10 31  1  0
 30 31  2  0
  8 32  1  0
  5 33  1  0
 32 33  1  0
M  END
