MAR-TRE-3724962b-14
     RDKit          3D

 23 24  0  0  0  0  0  0  0  0999 V2000
    7.4510   -1.3430   18.4860 O   0  0  0  0  0  0  0  0  0  0  0  0
    6.6430   -0.4800   18.7560 C   0  0  0  0  0  0  0  0  0  0  0  0
    6.1100   -0.3630   20.0980 N   0  0  0  0  0  0  0  0  0  0  0  0
    4.9290    0.3350   20.1840 C   0  0  0  0  0  0  0  0  0  0  0  0
    4.4130    1.2540   19.1110 C   0  0  0  0  0  0  0  0  0  0  0  0
    3.2570    1.9610   19.1050 N   0  0  0  0  0  0  0  0  0  0  0  0
    3.0460    2.9660   19.9790 C   0  0  0  0  0  0  0  0  0  0  0  0
    4.2730    3.9260   20.5770 S   0  0  0  0  0  0  0  0  0  0  0  0
    1.7720    3.1840   20.3720 N   0  0  0  0  0  0  0  0  0  0  0  0
    1.1080    4.4080   19.9150 C   0  0  2  0  0  0  0  0  0  0  0  0
    0.8330    5.1840   21.0840 O   0  0  0  0  0  0  0  0  0  0  0  0
   -0.0120    6.3310   20.9120 C   0  0  2  0  0  0  0  0  0  0  0  0
   -0.6410    6.5280   22.3000 C   0  0  0  0  0  0  0  0  0  0  0  0
   -0.6290    7.9270   22.5850 O   0  0  0  0  0  0  0  0  0  0  0  0
   -1.1100    6.0140   19.9070 C   0  0  1  0  0  0  0  0  0  0  0  0
   -1.5420    7.0520   19.4130 O   0  0  0  0  0  0  0  0  0  0  0  0
   -0.7650    5.1920   18.7740 C   0  0  2  0  0  0  0  0  0  0  0  0
   -2.0040    4.6830   18.2880 O   0  0  0  0  0  0  0  0  0  0  0  0
   -0.0780    4.0910   19.2170 C   0  0  2  0  0  0  0  0  0  0  0  0
   -0.7520    3.3940   19.9690 O   0  0  0  0  0  0  0  0  0  0  0  0
    5.2230    1.3770   17.9810 C   0  0  0  0  0  0  0  0  0  0  0  0
    5.0670    2.3100   17.2060 O   0  0  0  0  0  0  0  0  0  0  0  0
    6.1930    0.4060   17.8060 N   0  0  0  0  0  0  0  0  0  0  0  0
  1  2  2  0
  2  3  1  0
  3  4  1  0
  4  5  2  0
  5  6  1  0
  6  7  1  0
  7  8  2  0
  7  9  1  0
 10  9  1  1
 10 11  1  0
 11 12  1  0
 12 13  1  1
 13 14  1  0
 12 15  1  0
 15 16  1  6
 15 17  1  0
 17 18  1  1
 10 19  1  0
 17 19  1  0
 19 20  1  1
  5 21  1  0
 21 22  2  0
  2 23  1  0
 21 23  1  0
M  END
