MAR-TRE-3724962b-19
     RDKit          3D

 30 32  0  0  0  0  0  0  0  0999 V2000
   11.7250   -6.8310   14.8710 C   0  0  0  0  0  0  0  0  0  0  0  0
   12.4610   -6.1550   15.7230 C   0  0  0  0  0  0  0  0  0  0  0  0
   11.5730   -5.5070   17.0650 N   0  0  0  0  0  0  0  0  0  0  0  0
   10.1060   -5.2120   17.7060 C   0  0  0  0  0  0  0  0  0  0  0  0
    9.4510   -5.7380   17.1530 O   0  0  0  0  0  0  0  0  0  0  0  0
    9.6730   -4.2560   18.7450 N   0  0  0  0  0  0  0  0  0  0  0  0
    8.4690   -3.3890   18.9640 C   0  0  0  0  0  0  0  0  0  0  0  0
    7.5730   -2.7410   17.8800 C   0  0  0  0  0  0  0  0  0  0  0  0
    6.4340   -1.8100   18.3600 C   0  0  0  0  0  0  0  0  0  0  0  0
    6.2910   -1.5980   19.8740 C   0  0  0  0  0  0  0  0  0  0  0  0
    5.2760   -0.7090   20.5690 C   0  0  0  0  0  0  0  0  0  0  0  0
    4.8480   -1.2080   21.7930 N   0  0  0  0  0  0  0  0  0  0  0  0
    3.9210   -0.4780   22.5960 C   0  0  0  0  0  0  0  0  0  0  0  0
    3.4940    0.6980   22.1160 C   0  0  0  0  0  0  0  0  0  0  0  0
    2.6820    1.8750   22.2730 C   0  0  0  0  0  0  0  0  0  0  0  0
    3.9420    1.2540   20.8130 C   0  0  0  0  0  0  0  0  0  0  0  0
    3.5050    2.4620   20.3380 N   0  0  0  0  0  0  0  0  0  0  0  0
    3.2440    2.4310   19.0180 C   0  0  2  0  0  0  0  0  0  0  0  0
    4.4490    2.6190   18.3830 C   0  0  0  0  0  0  0  0  0  0  0  0
    2.1600    3.4600   18.7120 C   0  0  0  0  0  0  0  0  0  0  0  0
    2.2110    4.3380   17.6580 C   0  0  0  0  0  0  0  0  0  0  0  0
    1.2100    5.2640   17.3980 C   0  0  0  0  0  0  0  0  0  0  0  0
    0.0630    5.3800   18.1930 C   0  0  0  0  0  0  0  0  0  0  0  0
   -0.0790    4.4780   19.3460 N   0  0  0  0  0  0  0  0  0  0  0  0
    1.0310    3.5430   19.5260 C   0  0  0  0  0  0  0  0  0  0  0  0
    4.8860    0.4650   20.0260 N   0  0  0  0  0  0  0  0  0  0  0  0
    7.1500   -2.2320   20.7130 C   0  0  0  0  0  0  0  0  0  0  0  0
    8.1530   -3.0480   20.3400 C   0  0  0  0  0  0  0  0  0  0  0  0
    8.8880   -3.5280   21.3570 O   0  0  0  0  0  0  0  0  0  0  0  0
    9.6780   -2.5840   22.0740 C   0  0  0  0  0  0  0  0  0  0  0  0
  1  2  1  0
  2  3  1  0
  3  4  1  0
  4  5  2  0
  4  6  1  0
  6  7  1  0
  7  8  2  0
  8  9  1  0
  9 10  2  0
 10 11  1  0
 11 12  2  0
 12 13  1  0
 13 14  2  0
 14 15  1  0
 14 16  1  0
 16 17  1  0
 17 18  1  0
 18 19  1  6
 18 20  1  0
 20 21  2  0
 21 22  1  0
 22 23  2  0
 23 24  1  0
 20 25  1  0
 24 25  2  0
 11 26  1  0
 16 26  2  0
 10 27  1  0
  7 28  1  0
 27 28  2  0
 28 29  1  0
 29 30  1  0
M  END
