MAT-GIT-deadff56-2-nitrile
     RDKit          3D

 18 19  0  0  0  0  0  0  0  0999 V2000
    8.0680   -3.1220   19.6790 C   0  0  0  0  0  0  0  0  0  0  0  0
    7.7360   -2.6960   18.4240 N   0  0  0  0  0  0  0  0  0  0  0  0
    8.5290   -1.9680   20.8460 C   0  0  0  0  0  0  0  0  0  0  0  0
    7.3000   -1.3830   21.2700 C   0  0  0  0  0  0  0  0  0  0  0  0
    7.1780   -0.2290   22.2880 C   0  0  0  0  0  0  0  0  0  0  0  0
    8.4500    0.3550   22.8280 C   0  0  0  0  0  0  0  0  0  0  0  0
    8.4220    1.4900   23.7530 N   0  0  0  0  0  0  0  0  0  0  0  0
    9.8300    1.7950   23.9880 C   0  0  0  0  0  0  0  0  0  0  0  0
   10.6040    0.7700   23.1540 C   0  0  0  0  0  0  0  0  0  0  0  0
   11.9800    1.0000   23.2170 C   0  0  0  0  0  0  0  0  0  0  0  0
   12.1520    2.4250   23.0190 C   0  0  0  0  0  0  0  0  0  0  0  0
   11.9500    3.5150   22.5370 N   0  0  0  0  0  0  0  0  0  0  0  0
   11.0590    4.4710   23.2910 C   0  0  0  0  0  0  0  0  0  0  0  0
    9.7270    4.4550   22.8640 C   0  0  0  0  0  0  0  0  0  0  0  0
   11.4260    5.2310   24.1870 O   0  0  0  0  0  0  0  0  0  0  0  0
    9.7660   -0.2060   22.4210 C   0  0  0  0  0  0  0  0  0  0  0  0
    9.8500   -1.3820   21.5250 C   0  0  0  0  0  0  0  0  0  0  0  0
   11.5100   -1.8830   21.3950 Cl  0  0  0  0  0  0  0  0  0  0  0  0
  1  2  2  3
  1  3  1  0
  3  4  2  0
  4  5  1  0
  5  6  2  0
  6  7  1  0
  7  8  1  0
  8  9  2  0
  9 10  1  0
 10 11  1  0
 11 12  1  0
 12 13  1  0
 13 14  1  0
 13 15  2  0
  6 16  1  0
  9 16  1  0
  3 17  1  0
 16 17  2  0
 17 18  1  0
M  END
