MAT-GIT-deadff56-2-chloroacetamide
     RDKit          3D

 19 20  0  0  0  0  0  0  0  0999 V2000
    7.6380   -4.4220   20.9880 C   0  0  0  0  0  0  0  0  0  0  0  0
    7.9880   -3.0820   20.3920 C   0  0  0  0  0  0  0  0  0  0  0  0
    7.3890   -3.0960   19.1400 O   0  0  0  0  0  0  0  0  0  0  0  0
    8.6650   -1.8390   21.2650 C   0  0  0  0  0  0  0  0  0  0  0  0
    7.3850   -1.1630   21.7290 C   0  0  0  0  0  0  0  0  0  0  0  0
    7.4010    0.0900   22.5960 C   0  0  0  0  0  0  0  0  0  0  0  0
    8.6910    0.7330   22.9890 C   0  0  0  0  0  0  0  0  0  0  0  0
    8.8790    1.8820   23.7420 N   0  0  0  0  0  0  0  0  0  0  0  0
   10.1540    2.0760   23.7850 C   0  0  0  0  0  0  0  0  0  0  0  0
   10.8690    1.1220   23.1070 C   0  0  0  0  0  0  0  0  0  0  0  0
   12.2400    1.3810   23.1070 C   0  0  0  0  0  0  0  0  0  0  0  0
   12.4290    2.7950   22.7700 C   0  0  0  0  0  0  0  0  0  0  0  0
   11.2780    3.5800   22.5100 N   0  0  0  0  0  0  0  0  0  0  0  0
   11.0850    4.7080   23.2950 C   0  0  0  0  0  0  0  0  0  0  0  0
    9.8940    5.3620   22.9360 C   0  0  0  0  0  0  0  0  0  0  0  0
   11.8050    5.1390   24.1940 O   0  0  0  0  0  0  0  0  0  0  0  0
    9.9960    0.0850   22.5260 C   0  0  0  0  0  0  0  0  0  0  0  0
   10.0080   -1.2070   21.7350 C   0  0  0  0  0  0  0  0  0  0  0  0
   11.5820   -1.8470   21.4520 Cl  0  0  0  0  0  0  0  0  0  0  0  0
  1  2  1  0
  2  3  2  0
  2  4  1  0
  4  5  2  0
  5  6  1  0
  6  7  2  0
  7  8  1  0
  8  9  1  0
  9 10  2  0
 10 11  1  0
 11 12  1  0
 12 13  1  0
 13 14  1  0
 14 15  1  0
 14 16  2  0
  7 17  1  0
 10 17  1  0
  4 18  1  0
 17 18  2  0
 18 19  1  0
M  END
