MAT-GIT-deadff56-4-vinylsulfonamide
     RDKit          3D

 35 38  0  0  0  0  0  0  0  0999 V2000
    8.5030   -3.8830   20.2070 C   0  0  0  0  0  0  0  0  0  0  0  0
    7.2890   -3.0170   19.9350 C   0  0  0  0  0  0  0  0  0  0  0  0
    6.6620   -2.7460   21.5100 S   0  0  0  0  0  0  0  0  0  0  0  0
    4.9960   -3.1320   21.2500 O   0  0  0  0  0  0  0  0  0  0  0  0
    7.2970   -3.7330   22.3900 O   0  0  0  0  0  0  0  0  0  0  0  0
    7.7760   -1.2040   21.9610 C   0  0  0  0  0  0  0  0  0  0  0  0
    8.4550   -0.8700   23.0080 C   0  0  0  0  0  0  0  0  0  0  0  0
    9.1020   -0.5040   23.9240 C   0  0  0  0  0  0  0  0  0  0  0  0
    9.5220   -0.7600   25.1410 C   0  0  0  0  0  0  0  0  0  0  0  0
    8.8010   -1.1000   26.2140 N   0  0  0  0  0  0  0  0  0  0  0  0
    9.7020   -1.1550   27.1270 C   0  0  0  0  0  0  0  0  0  0  0  0
   10.9640   -0.8450   26.6650 O   0  0  0  0  0  0  0  0  0  0  0  0
   10.8470   -0.5870   25.3280 C   0  0  0  0  0  0  0  0  0  0  0  0
   11.9660   -0.1770   24.4900 C   0  0  0  0  0  0  0  0  0  0  0  0
   11.3640   -0.1420   23.1600 C   0  0  0  0  0  0  0  0  0  0  0  0
   10.6350   -0.0850   22.1700 C   0  0  0  0  0  0  0  0  0  0  0  0
    9.5440    0.0250   21.2450 C   0  0  0  0  0  0  0  0  0  0  0  0
    9.0640    1.3950   21.0490 C   0  0  0  0  0  0  0  0  0  0  0  0
    7.9760    1.1190   20.1830 C   0  0  0  0  0  0  0  0  0  0  0  0
    7.4560   -0.0480   19.6340 C   0  0  0  0  0  0  0  0  0  0  0  0
    8.0210   -1.2570   19.8430 N   0  0  0  0  0  0  0  0  0  0  0  0
    9.0450   -1.1520   20.6880 C   0  0  0  0  0  0  0  0  0  0  0  0
    9.6550    0.6460   23.4190 C   0  0  0  0  0  0  0  0  0  0  0  0
   10.4610    1.2090   24.2500 N   0  0  0  0  0  0  0  0  0  0  0  0
   10.9280    2.2160   23.8120 C   0  0  0  0  0  0  0  0  0  0  0  0
   10.3880    2.3460   22.5830 C   0  0  0  0  0  0  0  0  0  0  0  0
   10.8840    3.6270   21.8500 C   0  0  0  0  0  0  0  0  0  0  0  0
   12.0490    4.4370   22.5300 C   0  0  0  0  0  0  0  0  0  0  0  0
   11.6320    5.7360   22.9730 N   0  0  0  0  0  0  0  0  0  0  0  0
   10.3370    6.0550   23.3990 C   0  0  0  0  0  0  0  0  0  0  0  0
    9.4090    6.5610   22.3200 C   0  0  0  0  0  0  0  0  0  0  0  0
   10.0120    5.9800   24.5500 O   0  0  0  0  0  0  0  0  0  0  0  0
    9.3750    1.2700   22.0350 C   0  0  0  0  0  0  0  0  0  0  0  0
    8.3140    0.1450   21.4600 C   0  0  0  0  0  0  0  0  0  0  0  0
    7.6920    0.6820   19.9180 Cl  0  0  0  0  0  0  0  0  0  0  0  0
  1  2  1  0
  3  2  1  0
  3  4  2  0
  3  5  2  0
  3  6  1  0
  6  7  2  0
  7  8  1  0
  8  9  1  0
  9 10  1  0
 10 11  2  0
 11 12  1  0
  9 13  2  0
 12 13  1  0
 13 14  1  0
 14 15  1  0
 15 16  3  0
 16 17  1  0
 17 18  2  0
 18 19  1  0
 19 20  2  0
 20 21  1  0
 17 22  1  0
 21 22  2  0
  8 23  2  0
 23 24  1  0
 24 25  1  0
 25 26  2  0
 26 27  1  0
 27 28  1  0
 28 29  1  0
 29 30  1  0
 30 31  1  0
 30 32  2  0
 23 33  1  0
 26 33  1  0
  6 34  1  0
 33 34  2  0
 34 35  1  0
M  END
