MAT-GIT-deadff56-2-acrylamide
     RDKit          3D

 20 21  0  0  0  0  0  0  0  0999 V2000
    7.8060   -3.3670   19.4060 C   0  0  0  0  0  0  0  0  0  0  0  0
    7.1090   -3.8990   20.6070 C   0  0  0  0  0  0  0  0  0  0  0  0
    6.5980   -2.7910   21.4150 C   0  0  0  0  0  0  0  0  0  0  0  0
    5.0360   -3.2100   21.3580 O   0  0  0  0  0  0  0  0  0  0  0  0
    7.8680   -1.5630   21.9710 C   0  0  0  0  0  0  0  0  0  0  0  0
    8.8420   -2.4190   21.5630 C   0  0  0  0  0  0  0  0  0  0  0  0
    9.6110   -1.1050   22.1410 C   0  0  0  0  0  0  0  0  0  0  0  0
    8.5290    0.0750   22.7260 C   0  0  0  0  0  0  0  0  0  0  0  0
    8.5060    1.3490   23.2950 N   0  0  0  0  0  0  0  0  0  0  0  0
    9.7090    1.9100   23.4580 C   0  0  0  0  0  0  0  0  0  0  0  0
   10.8690    1.2090   23.0600 C   0  0  0  0  0  0  0  0  0  0  0  0
   11.4940    2.4090   23.5390 C   0  0  0  0  0  0  0  0  0  0  0  0
   11.6730    3.6110   22.7830 C   0  0  0  0  0  0  0  0  0  0  0  0
   10.7270    4.6130   22.6190 N   0  0  0  0  0  0  0  0  0  0  0  0
   10.6520    5.5920   23.7490 C   0  0  0  0  0  0  0  0  0  0  0  0
    9.6970    6.1330   22.8490 C   0  0  0  0  0  0  0  0  0  0  0  0
   10.3440    6.5440   24.4580 O   0  0  0  0  0  0  0  0  0  0  0  0
    9.8820    0.1840   22.6810 C   0  0  0  0  0  0  0  0  0  0  0  0
    9.4890   -1.0830   22.1560 C   0  0  0  0  0  0  0  0  0  0  0  0
   11.0030   -1.9470   21.7460 Cl  0  0  0  0  0  0  0  0  0  0  0  0
  1  2  1  0
  2  3  1  0
  3  4  2  0
  3  5  1  0
  5  6  2  0
  6  7  1  0
  7  8  2  0
  8  9  1  0
  9 10  1  0
 10 11  2  0
 11 12  1  0
 12 13  1  0
 13 14  1  0
 14 15  1  0
 15 16  1  0
 15 17  2  0
  8 18  1  0
 11 18  1  0
  5 19  1  0
 18 19  2  0
 19 20  1  0
M  END
