MAT-GIT-deadff56-4-vinylsulfonamide
     RDKit          3D

 35 38  0  0  0  0  0  0  0  0999 V2000
    6.1140   -5.7490   19.8530 C   0  0  0  0  0  0  0  0  0  0  0  0
    5.8470   -5.7040   21.3190 C   0  0  0  0  0  0  0  0  0  0  0  0
    5.6060   -3.9730   21.4640 S   0  0  0  0  0  0  0  0  0  0  0  0
    4.4680   -3.7670   22.3160 O   0  0  0  0  0  0  0  0  0  0  0  0
    5.5200   -3.5440   20.0640 O   0  0  0  0  0  0  0  0  0  0  0  0
    7.1590   -3.4330   22.1750 C   0  0  0  0  0  0  0  0  0  0  0  0
    7.2330   -4.8980   22.6850 C   0  0  0  0  0  0  0  0  0  0  0  0
    8.6800   -4.4610   23.3380 C   0  0  0  0  0  0  0  0  0  0  0  0
    8.2140   -3.1010   22.6570 C   0  0  0  0  0  0  0  0  0  0  0  0
    8.0680   -2.3040   21.5260 N   0  0  0  0  0  0  0  0  0  0  0  0
    7.4240   -1.1150   22.2300 C   0  0  0  0  0  0  0  0  0  0  0  0
    7.2630   -1.3270   23.6530 O   0  0  0  0  0  0  0  0  0  0  0  0
    7.7040   -1.9790   22.7630 C   0  0  0  0  0  0  0  0  0  0  0  0
    7.5050   -1.1130   21.6530 C   0  0  0  0  0  0  0  0  0  0  0  0
    6.1750   -0.6480   21.6040 C   0  0  0  0  0  0  0  0  0  0  0  0
    5.3810   -0.7940   20.4590 C   0  0  0  0  0  0  0  0  0  0  0  0
    5.0320    0.3230   19.6840 C   0  0  0  0  0  0  0  0  0  0  0  0
    6.0570   -0.2150   18.9370 C   0  0  0  0  0  0  0  0  0  0  0  0
    5.6700    0.9170   18.1960 C   0  0  0  0  0  0  0  0  0  0  0  0
    4.6220    1.7620   18.6360 C   0  0  0  0  0  0  0  0  0  0  0  0
    3.8580    1.6330   19.7770 N   0  0  0  0  0  0  0  0  0  0  0  0
    4.1110    0.5020   20.6880 C   0  0  0  0  0  0  0  0  0  0  0  0
    9.9420   -3.7930   23.8180 C   0  0  0  0  0  0  0  0  0  0  0  0
   10.8460   -2.8140   24.0070 N   0  0  0  0  0  0  0  0  0  0  0  0
   11.5220   -1.5690   23.9930 C   0  0  0  0  0  0  0  0  0  0  0  0
   10.1600   -1.4690   23.2300 C   0  0  0  0  0  0  0  0  0  0  0  0
    9.8550   -0.0630   22.6450 C   0  0  0  0  0  0  0  0  0  0  0  0
   10.8140    1.0620   23.0590 C   0  0  0  0  0  0  0  0  0  0  0  0
   10.2680    2.4000   22.8670 N   0  0  0  0  0  0  0  0  0  0  0  0
   11.0130    3.6830   23.0410 C   0  0  0  0  0  0  0  0  0  0  0  0
   12.2690    3.7010   22.4300 C   0  0  0  0  0  0  0  0  0  0  0  0
   10.5360    4.6250   23.6720 O   0  0  0  0  0  0  0  0  0  0  0  0
    9.3990   -2.7800   23.2150 C   0  0  0  0  0  0  0  0  0  0  0  0
    8.2480   -3.6630   22.8580 C   0  0  0  0  0  0  0  0  0  0  0  0
    8.3010   -5.3080   23.4130 Cl  0  0  0  0  0  0  0  0  0  0  0  0
  1  2  1  0
  3  2  1  0
  3  4  2  0
  3  5  2  0
  3  6  1  0
  6  7  2  0
  7  8  1  0
  8  9  1  0
  9 10  1  0
 10 11  2  0
 11 12  1  0
  9 13  2  0
 12 13  1  0
 13 14  1  0
 14 15  1  0
 15 16  3  0
 16 17  1  0
 17 18  2  0
 18 19  1  0
 19 20  2  0
 20 21  1  0
 17 22  1  0
 21 22  2  0
  8 23  2  0
 23 24  1  0
 24 25  1  0
 25 26  2  0
 26 27  1  0
 27 28  1  0
 28 29  1  0
 29 30  1  0
 30 31  1  0
 30 32  2  0
 23 33  1  0
 26 33  1  0
  6 34  1  0
 33 34  2  0
 34 35  1  0
M  END
