MAT-GIT-deadff56-3-vinylsulfonamide
     RDKit          3D

 27 29  0  0  0  0  0  0  0  0999 V2000
    8.3360   -3.8490   20.1990 C   0  0  0  0  0  0  0  0  0  0  0  0
    7.0550   -4.5460   20.7360 C   0  0  0  0  0  0  0  0  0  0  0  0
    6.2250   -3.5940   21.9720 S   0  0  0  0  0  0  0  0  0  0  0  0
    4.8890   -3.2590   21.4580 O   0  0  0  0  0  0  0  0  0  0  0  0
    6.3160   -4.3700   23.1910 O   0  0  0  0  0  0  0  0  0  0  0  0
    7.3890   -2.2300   22.1180 C   0  0  0  0  0  0  0  0  0  0  0  0
    7.8570   -0.8220   22.0780 C   0  0  0  0  0  0  0  0  0  0  0  0
    9.4940   -0.5920   22.4690 C   0  0  0  0  0  0  0  0  0  0  0  0
    9.3530   -2.1580   22.6770 C   0  0  0  0  0  0  0  0  0  0  0  0
    9.2240   -3.5480   23.0120 N   0  0  0  0  0  0  0  0  0  0  0  0
    9.1460   -4.1620   24.2060 C   0  0  0  0  0  0  0  0  0  0  0  0
    9.2210   -3.0000   24.8600 O   0  0  0  0  0  0  0  0  0  0  0  0
    9.3290   -1.9080   24.0780 C   0  0  0  0  0  0  0  0  0  0  0  0
    9.3950   -0.7460   24.8870 C   0  0  0  0  0  0  0  0  0  0  0  0
   10.8330   -1.2010   22.8820 C   0  0  0  0  0  0  0  0  0  0  0  0
   11.4130   -0.0770   22.8950 N   0  0  0  0  0  0  0  0  0  0  0  0
   10.5480    0.8010   22.5650 C   0  0  0  0  0  0  0  0  0  0  0  0
    9.5970   -0.3490   22.4560 C   0  0  0  0  0  0  0  0  0  0  0  0
    8.3190    0.2270   22.0460 C   0  0  0  0  0  0  0  0  0  0  0  0
    8.4200    1.6440   21.7600 C   0  0  0  0  0  0  0  0  0  0  0  0
    8.6320    2.7830   22.0070 N   0  0  0  0  0  0  0  0  0  0  0  0
    9.1080    3.1520   23.3560 C   0  0  0  0  0  0  0  0  0  0  0  0
   10.5000    3.1390   23.4580 C   0  0  0  0  0  0  0  0  0  0  0  0
    8.2890    3.4900   24.4020 O   0  0  0  0  0  0  0  0  0  0  0  0
    9.8330   -1.9170   22.7110 C   0  0  0  0  0  0  0  0  0  0  0  0
    8.6090   -1.8190   22.3840 C   0  0  0  0  0  0  0  0  0  0  0  0
    8.6310   -0.0530   22.1820 Cl  0  0  0  0  0  0  0  0  0  0  0  0
  1  2  1  0
  3  2  1  0
  3  4  2  0
  3  5  2  0
  3  6  1  0
  6  7  2  0
  7  8  1  0
  8  9  1  0
  9 10  1  0
 10 11  2  0
 11 12  1  0
  9 13  2  0
 12 13  1  0
 13 14  1  0
  8 15  2  0
 15 16  1  0
 16 17  1  0
 17 18  2  0
 18 19  1  0
 19 20  1  0
 20 21  1  0
 21 22  1  0
 22 23  1  0
 22 24  2  0
 15 25  1  0
 18 25  1  0
  6 26  1  0
 25 26  2  0
 26 27  1  0
M  END
