MAT-GIT-deadff56-4-chloroacetamide
     RDKit          3D

 33 36  0  0  0  0  0  0  0  0999 V2000
    8.7220   -3.7830   20.1270 C   0  0  0  0  0  0  0  0  0  0  0  0
    8.1170   -2.5870   20.0920 C   0  0  0  0  0  0  0  0  0  0  0  0
    7.0460   -2.7730   19.1370 O   0  0  0  0  0  0  0  0  0  0  0  0
    8.8260   -1.4880   21.2180 C   0  0  0  0  0  0  0  0  0  0  0  0
    7.6440   -1.0170   21.9970 C   0  0  0  0  0  0  0  0  0  0  0  0
    7.8140    0.0270   23.0400 C   0  0  0  0  0  0  0  0  0  0  0  0
    6.5660    0.4310   23.8240 C   0  0  0  0  0  0  0  0  0  0  0  0
    5.4450    1.0830   23.3710 N   0  0  0  0  0  0  0  0  0  0  0  0
    4.6640    1.1890   24.4270 C   0  0  0  0  0  0  0  0  0  0  0  0
    5.1800    0.6540   25.5650 O   0  0  0  0  0  0  0  0  0  0  0  0
    6.4080    0.1640   25.1750 C   0  0  0  0  0  0  0  0  0  0  0  0
    7.1850   -0.4620   26.1610 C   0  0  0  0  0  0  0  0  0  0  0  0
    8.2740   -1.2420   25.7560 C   0  0  0  0  0  0  0  0  0  0  0  0
    8.0780   -2.5370   25.2600 C   0  0  0  0  0  0  0  0  0  0  0  0
    7.8380   -3.5990   26.1410 C   0  0  0  0  0  0  0  0  0  0  0  0
    8.6680   -4.7400   26.1520 C   0  0  0  0  0  0  0  0  0  0  0  0
    8.4350   -5.8010   27.0410 C   0  0  0  0  0  0  0  0  0  0  0  0
    7.3670   -5.7430   27.9300 C   0  0  0  0  0  0  0  0  0  0  0  0
    6.5130   -4.7030   27.9940 N   0  0  0  0  0  0  0  0  0  0  0  0
    6.7790   -3.6010   27.0590 C   0  0  0  0  0  0  0  0  0  0  0  0
    8.9670    0.6200   23.2530 C   0  0  0  0  0  0  0  0  0  0  0  0
    9.1220    1.6670   24.1170 N   0  0  0  0  0  0  0  0  0  0  0  0
   10.3880    2.2080   24.1280 C   0  0  0  0  0  0  0  0  0  0  0  0
   11.1080    1.3560   23.1490 C   0  0  0  0  0  0  0  0  0  0  0  0
   12.5370    1.9170   22.9790 C   0  0  0  0  0  0  0  0  0  0  0  0
   12.5930    3.5060   22.7480 C   0  0  0  0  0  0  0  0  0  0  0  0
   11.3160    4.2950   22.5900 N   0  0  0  0  0  0  0  0  0  0  0  0
   10.7440    5.4450   23.4030 C   0  0  0  0  0  0  0  0  0  0  0  0
    9.6800    6.1120   22.7720 C   0  0  0  0  0  0  0  0  0  0  0  0
   11.1750    5.7660   24.5090 O   0  0  0  0  0  0  0  0  0  0  0  0
   10.1510    0.2510   22.6050 C   0  0  0  0  0  0  0  0  0  0  0  0
   10.3130   -0.9990   21.5450 C   0  0  0  0  0  0  0  0  0  0  0  0
   11.7770   -0.2860   22.1280 Cl  0  0  0  0  0  0  0  0  0  0  0  0
  1  2  1  0
  2  3  2  0
  2  4  1  0
  4  5  2  0
  5  6  1  0
  6  7  1  0
  7  8  1  0
  8  9  2  0
  9 10  1  0
  7 11  2  0
 10 11  1  0
 11 12  1  0
 12 13  1  0
 13 14  3  0
 14 15  1  0
 15 16  2  0
 16 17  1  0
 17 18  2  0
 18 19  1  0
 15 20  1  0
 19 20  2  0
  6 21  2  0
 21 22  1  0
 22 23  1  0
 23 24  2  0
 24 25  1  0
 25 26  1  0
 26 27  1  0
 27 28  1  0
 28 29  1  0
 28 30  2  0
 21 31  1  0
 24 31  1  0
  4 32  1  0
 31 32  2  0
 32 33  1  0
M  END
