MED-UNK-7e7dab56-4
     RDKit          3D

 22 23  0  0  0  0  0  0  0  0999 V2000
   10.9500   -2.4310   23.8600 C   0  0  0  0  0  0  0  0  0  0  0  0
    9.9810   -1.4240   23.4430 N   0  0  0  0  0  0  0  0  0  0  0  0
    9.8260   -0.2320   24.1620 C   0  0  0  0  0  0  0  0  0  0  0  0
    9.1310   -0.2020   25.1690 O   0  0  0  0  0  0  0  0  0  0  0  0
   10.5040    1.0720   23.7220 C   0  0  0  0  0  0  0  0  0  0  0  0
    9.5990    2.2920   23.9270 C   0  0  0  0  0  0  0  0  0  0  0  0
   10.1110    3.6840   23.5430 C   0  0  0  0  0  0  0  0  0  0  0  0
    9.1510    5.1020   23.7460 S   0  0  0  0  0  0  0  0  0  0  0  0
    8.1260    4.9840   22.4400 N   0  0  0  0  0  0  0  0  0  0  0  0
    8.3600    4.9640   24.9460 O   0  0  0  0  0  0  0  0  0  0  0  0
    9.9630    6.2660   23.4830 O   0  0  0  0  0  0  0  0  0  0  0  0
   11.5290    3.7180   22.9730 C   0  0  0  0  0  0  0  0  0  0  0  0
   12.2970    2.3970   22.8370 C   0  0  0  0  0  0  0  0  0  0  0  0
   13.7030    2.5170   22.2660 C   0  0  0  0  0  0  0  0  0  0  0  0
   14.1460    1.5840   21.6150 O   0  0  0  0  0  0  0  0  0  0  0  0
   14.4210    3.6780   22.5670 N   0  0  0  0  0  0  0  0  0  0  0  0
   15.7990    3.7810   22.1320 C   0  0  1  0  0  0  0  0  0  0  0  0
   16.5150    4.6710   22.5170 C   0  0  0  0  0  0  0  0  0  0  0  0
   17.2540    3.8240   22.9940 C   0  0  1  0  0  0  0  0  0  0  0  0
   17.4240    4.0670   24.2120 F   0  0  0  0  0  0  0  0  0  0  0  0
   11.7880    1.1440   23.1980 C   0  0  0  0  0  0  0  0  0  0  0  0
   12.8000   -0.4580   22.9920 Br  0  0  0  0  0  0  0  0  0  0  0  0
  1  2  1  0
  2  3  1  0
  3  4  2  0
  3  5  1  0
  5  6  2  0
  6  7  1  0
  7  8  1  0
  8  9  1  0
  8 10  2  0
  8 11  2  0
  7 12  2  0
 12 13  1  0
 13 14  1  0
 14 15  2  0
 14 16  1  0
 17 16  1  1
 17 18  1  0
 17 19  1  0
 18 19  1  0
 19 20  1  1
  5 21  1  0
 13 21  2  0
 21 22  1  0
M  END
