MED-UNK-28939ac5-3
     RDKit          3D

 20 22  0  0  0  0  0  0  0  0999 V2000
    9.2080    3.0910   22.7800 N   0  0  0  0  0  0  0  0  0  0  0  0
    8.8050    1.7130   22.3850 C   0  0  0  0  0  0  0  0  0  0  0  0
    8.6720    1.3860   21.0090 O   0  0  0  0  0  0  0  0  0  0  0  0
    8.5250    0.7080   23.5930 C   0  0  1  0  0  0  0  0  0  0  0  0
    7.0920    0.2260   23.5170 C   0  0  0  0  0  0  0  0  0  0  0  0
    7.1780   -1.1570   22.8680 C   0  0  2  0  0  0  0  0  0  0  0  0
    6.5040   -1.9920   23.4730 O   0  0  0  0  0  0  0  0  0  0  0  0
    8.6750   -1.4710   22.8550 C   0  0  0  0  0  0  0  0  0  0  0  0
    9.3790   -0.4240   23.7330 C   0  0  1  0  0  0  0  0  0  0  0  0
   10.7200    0.0450   23.3480 C   0  0  0  0  0  0  0  0  0  0  0  0
   11.8080   -0.8830   22.9150 C   0  0  0  0  0  0  0  0  0  0  0  0
   13.2230    0.0930   22.5420 S   0  0  0  0  0  0  0  0  0  0  0  0
   12.1950    1.6000   22.9860 C   0  0  0  0  0  0  0  0  0  0  0  0
   12.3150    3.1340   23.0320 C   0  0  0  0  0  0  0  0  0  0  0  0
   13.5040    3.9550   22.7450 C   0  0  0  0  0  0  0  0  0  0  0  0
   13.3510    5.4570   22.8520 C   0  0  0  0  0  0  0  0  0  0  0  0
   12.1580    6.0730   23.2100 C   0  0  0  0  0  0  0  0  0  0  0  0
   11.0690    5.2230   23.4770 N   0  0  0  0  0  0  0  0  0  0  0  0
   11.1580    3.8600   23.3900 N   0  0  0  0  0  0  0  0  0  0  0  0
   10.9580    1.3350   23.3820 C   0  0  0  0  0  0  0  0  0  0  0  0
  1  2  1  0
  2  3  2  0
  4  2  1  6
  4  5  1  0
  5  6  1  0
  6  7  1  1
  6  8  1  0
  4  9  1  0
  8  9  1  0
  9 10  1  6
 10 11  2  0
 11 12  1  0
 12 13  1  0
 13 14  1  0
 14 15  2  0
 15 16  1  0
 16 17  2  0
 17 18  1  0
 14 19  1  0
 18 19  2  0
 10 20  1  0
 13 20  2  0
M  END
