MED-UNK-e6e8ef8a-7
     RDKit          3D

 17 18  0  0  0  0  0  0  0  0999 V2000
    9.1390    1.5450   21.3130 O   0  0  0  0  0  0  0  0  0  0  0  0
    8.6600    0.4930   21.7430 C   0  0  0  0  0  0  0  0  0  0  0  0
    7.6180   -0.2130   21.1970 N   0  0  0  0  0  0  0  0  0  0  0  0
    6.7900    0.2630   20.1790 C   0  0  0  0  0  0  0  0  0  0  0  0
    5.6970    1.0990   20.3760 C   0  0  0  0  0  0  0  0  0  0  0  0
    4.9450    1.5300   19.2860 C   0  0  0  0  0  0  0  0  0  0  0  0
    5.3180    1.1060   18.0330 C   0  0  0  0  0  0  0  0  0  0  0  0
    6.3590    0.2980   17.8090 N   0  0  0  0  0  0  0  0  0  0  0  0
    7.0650   -0.1060   18.8770 C   0  0  0  0  0  0  0  0  0  0  0  0
    9.2270   -0.0970   22.9800 C   0  0  1  0  0  0  0  0  0  0  0  0
    8.5450   -1.3400   23.2250 O   0  0  0  0  0  0  0  0  0  0  0  0
   10.5950   -0.3890   23.0280 C   0  0  0  0  0  0  0  0  0  0  0  0
   11.1360   -1.4710   22.3390 C   0  0  0  0  0  0  0  0  0  0  0  0
   12.3170   -2.0460   22.8300 C   0  0  0  0  0  0  0  0  0  0  0  0
   13.1530   -1.1260   23.4730 C   0  0  0  0  0  0  0  0  0  0  0  0
   12.5540   -0.4080   24.5110 C   0  0  0  0  0  0  0  0  0  0  0  0
   11.0550   -0.5520   24.4640 C   0  0  0  0  0  0  0  0  0  0  0  0
  1  2  2  0
  2  3  1  0
  3  4  1  0
  4  5  2  0
  5  6  1  0
  6  7  2  0
  7  8  1  0
  4  9  1  0
  8  9  2  0
  2 10  1  0
 10 11  1  6
 10 12  1  0
 12 13  1  0
 13 14  1  0
 14 15  1  0
 15 16  1  0
 12 17  1  0
 16 17  1  0
M  END
