MED-UNK-28939ac5-6
     RDKit          3D

 19 21  0  0  0  0  0  0  0  0999 V2000
   10.2210    3.3620   22.2570 N   0  0  0  0  0  0  0  0  0  0  0  0
    9.2530    2.2300   22.2180 C   0  0  0  0  0  0  0  0  0  0  0  0
    8.6840    1.7690   21.0050 O   0  0  0  0  0  0  0  0  0  0  0  0
    8.9060    1.6560   23.6260 C   0  0  1  0  0  0  0  0  0  0  0  0
    7.4090    1.3410   23.7290 C   0  0  0  0  0  0  0  0  0  0  0  0
    7.2460    0.0690   24.5480 C   0  0  2  0  0  0  0  0  0  0  0  0
    6.6190    0.2710   25.5890 O   0  0  0  0  0  0  0  0  0  0  0  0
    8.6760   -0.3810   24.7870 C   0  0  0  0  0  0  0  0  0  0  0  0
    9.6890    0.6150   24.1770 C   0  0  1  0  0  0  0  0  0  0  0  0
   10.6780   -0.1440   23.3350 C   0  0  0  0  0  0  0  0  0  0  0  0
   12.0550    0.3840   23.5940 C   0  0  0  0  0  0  0  0  0  0  0  0
   12.9730   -0.4300   22.7470 C   0  0  0  0  0  0  0  0  0  0  0  0
   12.2420   -1.6770   21.7810 S   0  0  0  0  0  0  0  0  0  0  0  0
   10.6290   -1.1870   22.4100 C   0  0  0  0  0  0  0  0  0  0  0  0
    9.3150   -1.8360   21.9870 C   0  0  0  0  0  0  0  0  0  0  0  0
    7.9440   -1.4950   22.3840 C   0  0  0  0  0  0  0  0  0  0  0  0
    7.0460   -2.3400   21.7610 C   0  0  0  0  0  0  0  0  0  0  0  0
    7.6700   -3.1560   21.0300 O   0  0  0  0  0  0  0  0  0  0  0  0
    9.0480   -2.8760   21.1430 C   0  0  0  0  0  0  0  0  0  0  0  0
  1  2  1  0
  2  3  2  0
  4  2  1  6
  4  5  1  0
  5  6  1  0
  6  7  1  1
  6  8  1  0
  4  9  1  0
  8  9  1  0
  9 10  1  6
 10 11  1  0
 11 12  2  0
 12 13  1  0
 10 14  2  0
 13 14  1  0
 14 15  1  0
 15 16  1  0
 16 17  2  0
 17 18  1  0
 15 19  2  0
 18 19  1  0
M  END
