MED-UNK-e6e8ef8a-2
     RDKit          3D

 17 18  0  0  0  0  0  0  0  0999 V2000
    9.1250    1.8250   21.2590 O   0  0  0  0  0  0  0  0  0  0  0  0
    8.7190    0.5680   21.7890 C   0  0  0  0  0  0  0  0  0  0  0  0
    9.4320    0.2290   23.0820 C   0  0  0  0  0  0  0  0  0  0  0  0
   10.2790   -0.8830   23.2590 C   0  0  1  0  0  0  0  0  0  0  0  0
   11.0560   -1.3840   22.2180 C   0  0  0  0  0  0  0  0  0  0  0  0
   12.3910   -1.6730   22.3650 C   0  0  0  0  0  0  0  0  0  0  0  0
   13.1210   -0.9290   23.2630 C   0  0  1  0  0  0  0  0  0  0  0  0
   13.6530    0.0890   22.5480 F   0  0  0  0  0  0  0  0  0  0  0  0
   12.3930   -0.3610   24.3510 C   0  0  0  0  0  0  0  0  0  0  0  0
   11.0950   -0.8050   24.5710 C   0  0  0  0  0  0  0  0  0  0  0  0
    7.7820   -0.2700   21.2950 N   0  0  0  0  0  0  0  0  0  0  0  0
    6.9470    0.1380   20.2340 C   0  0  0  0  0  0  0  0  0  0  0  0
    5.8050    1.0470   20.5830 C   0  0  0  0  0  0  0  0  0  0  0  0
    4.9110    1.5120   19.4240 C   0  0  0  0  0  0  0  0  0  0  0  0
    5.3160    0.9770   18.0650 C   0  0  0  0  0  0  0  0  0  0  0  0
    6.3560    0.1620   17.8660 N   0  0  0  0  0  0  0  0  0  0  0  0
    7.1190   -0.2300   18.9110 C   0  0  0  0  0  0  0  0  0  0  0  0
  1  2  2  0
  2  3  1  0
  4  3  1  6
  4  5  1  0
  5  6  1  0
  6  7  1  0
  7  8  1  6
  7  9  1  0
  4 10  1  0
  9 10  1  0
  2 11  1  0
 11 12  1  0
 12 13  2  0
 13 14  1  0
 14 15  2  0
 15 16  1  0
 12 17  1  0
 16 17  2  0
M  END
