MED-UNK-28939ac5-10
     RDKit          3D

 23 26  0  0  0  0  0  0  0  0999 V2000
    9.1230    2.9340   22.7950 N   0  0  0  0  0  0  0  0  0  0  0  0
    8.7450    1.5510   22.3810 C   0  0  0  0  0  0  0  0  0  0  0  0
    8.6560    1.2640   21.0020 O   0  0  0  0  0  0  0  0  0  0  0  0
    8.4290    0.5070   23.5620 C   0  0  1  0  0  0  0  0  0  0  0  0
    6.9840    0.0910   23.4440 C   0  0  0  0  0  0  0  0  0  0  0  0
    7.0350   -1.2540   22.7180 C   0  0  2  0  0  0  0  0  0  0  0  0
    6.3000   -2.0890   23.2430 O   0  0  0  0  0  0  0  0  0  0  0  0
    8.5190   -1.6380   22.7250 C   0  0  0  0  0  0  0  0  0  0  0  0
    9.2360   -0.6780   23.6740 C   0  0  1  0  0  0  0  0  0  0  0  0
   10.5730   -0.2060   23.3570 C   0  0  0  0  0  0  0  0  0  0  0  0
   11.8160   -0.9430   22.9990 C   0  0  0  0  0  0  0  0  0  0  0  0
   13.1060    0.2350   22.7260 S   0  0  0  0  0  0  0  0  0  0  0  0
   11.9180    1.6510   23.0890 C   0  0  0  0  0  0  0  0  0  0  0  0
   11.7500    3.1780   23.1620 C   0  0  0  0  0  0  0  0  0  0  0  0
   10.4390    3.6990   23.7920 C   0  0  0  0  0  0  0  0  0  0  0  0
   10.1550    5.2010   23.8890 C   0  0  0  0  0  0  0  0  0  0  0  0
   11.0850    6.0930   23.3960 C   0  0  0  0  0  0  0  0  0  0  0  0
   12.2870    5.4550   22.8120 C   0  0  0  0  0  0  0  0  0  0  0  0
   13.3470    6.2820   22.2250 C   0  0  0  0  0  0  0  0  0  0  0  0
   14.2180    5.1730   21.8100 C   0  0  0  0  0  0  0  0  0  0  0  0
   13.7790    4.0080   22.1200 N   0  0  0  0  0  0  0  0  0  0  0  0
   12.6150    4.1000   22.7010 C   0  0  0  0  0  0  0  0  0  0  0  0
   10.7280    1.2190   23.3910 C   0  0  0  0  0  0  0  0  0  0  0  0
  1  2  1  0
  2  3  2  0
  4  2  1  6
  4  5  1  0
  5  6  1  0
  6  7  1  1
  6  8  1  0
  4  9  1  0
  8  9  1  0
  9 10  1  6
 10 11  2  0
 11 12  1  0
 12 13  1  0
 13 14  1  0
 14 15  2  0
 15 16  1  0
 16 17  2  0
 17 18  1  0
 18 19  1  0
 19 20  2  0
 20 21  1  0
 14 22  1  0
 18 22  2  0
 21 22  1  0
 10 23  1  0
 13 23  2  0
M  END
