MED-UNK-e6e8ef8a-3
     RDKit          3D

 17 18  0  0  0  0  0  0  0  0999 V2000
   13.3150    0.0200   22.4730 C   0  0  0  0  0  0  0  0  0  0  0  0
   13.0790   -1.0780   23.4500 C   0  0  1  0  0  0  0  0  0  0  0  0
   12.4180   -0.7130   24.6030 C   0  0  0  0  0  0  0  0  0  0  0  0
   11.0780   -0.5700   24.4080 C   0  0  0  0  0  0  0  0  0  0  0  0
   10.5690   -0.3670   23.1540 C   0  0  2  0  0  0  0  0  0  0  0  0
    9.2000   -0.2370   22.9550 C   0  0  0  0  0  0  0  0  0  0  0  0
    8.6920    0.4600   21.7910 C   0  0  0  0  0  0  0  0  0  0  0  0
    9.1250    1.5440   21.3840 O   0  0  0  0  0  0  0  0  0  0  0  0
    7.6600   -0.2500   21.2200 N   0  0  0  0  0  0  0  0  0  0  0  0
    6.8150    0.2440   20.2240 C   0  0  0  0  0  0  0  0  0  0  0  0
    5.7210    1.0770   20.4490 C   0  0  0  0  0  0  0  0  0  0  0  0
    4.8640    1.5860   19.3530 C   0  0  0  0  0  0  0  0  0  0  0  0
    5.3200    1.0970   17.9820 C   0  0  0  0  0  0  0  0  0  0  0  0
    6.3790    0.2890   17.8190 N   0  0  0  0  0  0  0  0  0  0  0  0
    7.0800   -0.1110   18.9050 C   0  0  0  0  0  0  0  0  0  0  0  0
   11.1130   -1.4870   22.2150 C   0  0  0  0  0  0  0  0  0  0  0  0
   12.2420   -2.1270   22.7300 C   0  0  0  0  0  0  0  0  0  0  0  0
  2  1  1  6
  2  3  1  0
  3  4  1  0
  4  5  1  0
  5  6  1  1
  6  7  1  0
  7  8  2  0
  7  9  1  0
  9 10  1  0
 10 11  2  0
 11 12  1  0
 12 13  2  0
 13 14  1  0
 10 15  1  0
 14 15  2  0
  5 16  1  0
  2 17  1  0
 16 17  1  0
M  END
