MED-UNK-7e7dab56-9
     RDKit          3D

 30 32  0  0  0  0  0  0  0  0999 V2000
    7.8080    4.7590   22.6130 N   0  0  0  0  0  0  0  0  0  0  0  0
    8.6470    4.7110   24.0580 S   0  0  0  0  0  0  0  0  0  0  0  0
    7.7450    4.7910   25.1760 O   0  0  0  0  0  0  0  0  0  0  0  0
    9.7420    5.6290   23.9140 O   0  0  0  0  0  0  0  0  0  0  0  0
    9.3210    3.0680   24.0780 C   0  0  0  0  0  0  0  0  0  0  0  0
    8.5140    1.8630   24.5410 C   0  0  0  0  0  0  0  0  0  0  0  0
    9.1510    0.4820   24.5410 C   0  0  0  0  0  0  0  0  0  0  0  0
    8.1760   -0.6030   25.0400 C   0  0  0  0  0  0  0  0  0  0  0  0
    7.4290   -0.5030   25.9930 O   0  0  0  0  0  0  0  0  0  0  0  0
    8.2440   -1.6900   24.2870 N   0  0  0  0  0  0  0  0  0  0  0  0
    7.1090   -2.0330   23.6670 C   0  0  1  0  0  0  0  0  0  0  0  0
    7.2320   -3.0220   22.6090 C   0  0  0  0  0  0  0  0  0  0  0  0
    6.4970   -3.5390   23.7630 C   0  0  1  0  0  0  0  0  0  0  0  0
    7.1380   -4.4590   24.5770 F   0  0  0  0  0  0  0  0  0  0  0  0
   10.4920    0.3450   24.1050 C   0  0  0  0  0  0  0  0  0  0  0  0
   11.3740   -1.3490   24.0670 Br  0  0  0  0  0  0  0  0  0  0  0  0
   11.1860    1.5490   23.6830 C   0  0  0  0  0  0  0  0  0  0  0  0
   12.4860    1.4000   23.2640 C   0  0  0  0  0  0  0  0  0  0  0  0
   12.9480    0.2740   23.1240 O   0  0  0  0  0  0  0  0  0  0  0  0
   13.1630    2.6030   23.0230 N   0  0  0  0  0  0  0  0  0  0  0  0
   13.6340    2.7590   21.7160 C   0  0  1  0  0  0  0  0  0  0  0  0
   12.4650    3.4730   22.1800 C   0  0  0  0  0  0  0  0  0  0  0  0
   12.3490    4.5390   21.1990 C   0  0  0  0  0  0  0  0  0  0  0  0
   13.4160    5.3810   21.1290 C   0  0  1  0  0  0  0  0  0  0  0  0
   13.7230    5.6410   22.4210 C   0  0  0  0  0  0  0  0  0  0  0  0
   14.6210    5.0710   22.9970 O   0  0  0  0  0  0  0  0  0  0  0  0
   12.9450    6.5840   23.0020 O   0  0  0  0  0  0  0  0  0  0  0  0
   14.4640    4.6790   20.5450 C   0  0  0  0  0  0  0  0  0  0  0  0
   14.8520    3.6100   21.3300 C   0  0  0  0  0  0  0  0  0  0  0  0
   10.6290    2.8500   23.6710 C   0  0  0  0  0  0  0  0  0  0  0  0
  2  1  1  0
  2  3  2  0
  2  4  2  0
  2  5  1  0
  5  6  2  0
  6  7  1  0
  7  8  1  0
  8  9  2  0
  8 10  1  0
 11 10  1  1
 11 12  1  0
 11 13  1  0
 12 13  1  0
 13 14  1  1
  7 15  2  0
 15 16  1  0
 15 17  1  0
 17 18  1  0
 18 19  2  0
 18 20  1  0
 21 20  1  1
 21 22  1  0
 22 23  1  0
 23 24  1  0
 24 25  1  1
 25 26  2  0
 25 27  1  0
 24 28  1  0
 21 29  1  0
 28 29  1  0
  5 30  1  0
 17 30  2  0
M  END
