MED-UNK-e6e8ef8a-6
     RDKit          3D

 17 18  0  0  0  0  0  0  0  0999 V2000
    9.6620   -2.3800   23.2230 C   0  0  0  0  0  0  0  0  0  0  0  0
   10.2420   -0.9650   23.2180 C   0  0  0  0  0  0  0  0  0  0  0  0
    9.2400    0.0230   23.1240 C   0  0  0  0  0  0  0  0  0  0  0  0
    8.7940    0.4770   21.8580 C   0  0  0  0  0  0  0  0  0  0  0  0
    9.2180    1.5420   21.4100 O   0  0  0  0  0  0  0  0  0  0  0  0
    7.7980   -0.3740   21.2160 N   0  0  0  0  0  0  0  0  0  0  0  0
    6.9320    0.1270   20.2520 C   0  0  0  0  0  0  0  0  0  0  0  0
    5.8550    0.9840   20.5240 C   0  0  0  0  0  0  0  0  0  0  0  0
    4.9880    1.4760   19.3680 C   0  0  0  0  0  0  0  0  0  0  0  0
    5.3570    1.0150   18.1090 C   0  0  0  0  0  0  0  0  0  0  0  0
    6.3890    0.1940   17.8810 N   0  0  0  0  0  0  0  0  0  0  0  0
    7.1350   -0.2260   18.9250 C   0  0  0  0  0  0  0  0  0  0  0  0
   11.3400   -0.8830   22.1410 C   0  0  0  0  0  0  0  0  0  0  0  0
   12.4140   -1.6950   22.4840 C   0  0  0  0  0  0  0  0  0  0  0  0
   13.1920   -1.0380   23.4230 C   0  0  0  0  0  0  0  0  0  0  0  0
   12.3010   -0.3630   24.4670 C   0  0  0  0  0  0  0  0  0  0  0  0
   10.9670   -0.7470   24.5740 C   0  0  0  0  0  0  0  0  0  0  0  0
  2  1  1  0
  2  3  1  0
  3  4  1  0
  4  5  2  0
  4  6  1  0
  6  7  1  0
  7  8  2  0
  8  9  1  0
  9 10  2  0
 10 11  1  0
  7 12  1  0
 11 12  2  0
  2 13  1  0
 13 14  1  0
 14 15  1  0
 15 16  1  0
  2 17  1  0
 16 17  1  0
M  END
