MED-UNK-28939ac5-5
     RDKit          3D

 20 22  0  0  0  0  0  0  0  0999 V2000
    8.9860    3.2490   22.9930 N   0  0  0  0  0  0  0  0  0  0  0  0
    8.8050    1.8400   22.5270 C   0  0  0  0  0  0  0  0  0  0  0  0
    8.8240    1.5010   21.1410 O   0  0  0  0  0  0  0  0  0  0  0  0
    8.5670    0.8050   23.7110 C   0  0  1  0  0  0  0  0  0  0  0  0
    7.1420    0.2930   23.6510 C   0  0  0  0  0  0  0  0  0  0  0  0
    7.2350   -1.0880   23.0000 C   0  0  2  0  0  0  0  0  0  0  0  0
    6.5690   -1.9330   23.5950 O   0  0  0  0  0  0  0  0  0  0  0  0
    8.7340   -1.3880   22.9880 C   0  0  0  0  0  0  0  0  0  0  0  0
    9.4500   -0.3070   23.8170 C   0  0  1  0  0  0  0  0  0  0  0  0
   10.7910    0.1230   23.3660 C   0  0  0  0  0  0  0  0  0  0  0  0
   11.8240   -0.8910   23.0120 C   0  0  0  0  0  0  0  0  0  0  0  0
   13.2730   -0.0370   22.5220 S   0  0  0  0  0  0  0  0  0  0  0  0
   12.3550    1.5730   22.8170 C   0  0  0  0  0  0  0  0  0  0  0  0
   12.5990    3.1070   22.6810 C   0  0  0  0  0  0  0  0  0  0  0  0
   11.3070    3.9010   22.5690 C   0  0  0  0  0  0  0  0  0  0  0  0
   11.3600    5.4040   22.4490 C   0  0  0  0  0  0  0  0  0  0  0  0
   12.5090    6.0630   22.4370 N   0  0  0  0  0  0  0  0  0  0  0  0
   13.6170    5.2950   22.5360 C   0  0  0  0  0  0  0  0  0  0  0  0
   13.7680    3.8710   22.6510 N   0  0  0  0  0  0  0  0  0  0  0  0
   11.0960    1.4100   23.2640 C   0  0  0  0  0  0  0  0  0  0  0  0
  1  2  1  0
  2  3  2  0
  4  2  1  6
  4  5  1  0
  5  6  1  0
  6  7  1  1
  6  8  1  0
  4  9  1  0
  8  9  1  0
  9 10  1  6
 10 11  2  0
 11 12  1  0
 12 13  1  0
 13 14  1  0
 14 15  2  0
 15 16  1  0
 16 17  2  0
 17 18  1  0
 14 19  1  0
 18 19  2  0
 10 20  1  0
 13 20  2  0
M  END
