MED-UNK-7e7dab56-5
     RDKit          3D

 25 26  0  0  0  0  0  0  0  0999 V2000
    9.0680   -0.6250   27.0210 C   0  0  0  0  0  0  0  0  0  0  0  0
    8.2930   -1.7040   26.2490 C   0  0  0  0  0  0  0  0  0  0  0  0
    6.8290   -1.4050   25.9420 C   0  0  0  0  0  0  0  0  0  0  0  0
    9.0160   -2.0100   24.9260 C   0  0  0  0  0  0  0  0  0  0  0  0
    9.8600   -1.0210   24.5820 N   0  0  0  0  0  0  0  0  0  0  0  0
    9.3260    0.2040   24.5690 C   0  0  0  0  0  0  0  0  0  0  0  0
    8.2010    0.4200   24.9950 O   0  0  0  0  0  0  0  0  0  0  0  0
   10.0690    1.3990   24.0100 C   0  0  0  0  0  0  0  0  0  0  0  0
    9.2870    2.6570   24.3360 C   0  0  0  0  0  0  0  0  0  0  0  0
    9.8930    3.9410   23.8380 C   0  0  0  0  0  0  0  0  0  0  0  0
    9.2100    5.4930   24.0880 S   0  0  0  0  0  0  0  0  0  0  0  0
    8.1860    5.6100   22.7770 N   0  0  0  0  0  0  0  0  0  0  0  0
    8.4550    5.4720   25.3120 O   0  0  0  0  0  0  0  0  0  0  0  0
   10.2500    6.4670   23.8340 O   0  0  0  0  0  0  0  0  0  0  0  0
   11.0860    3.9220   23.1160 C   0  0  0  0  0  0  0  0  0  0  0  0
   11.7300    2.7530   22.8560 C   0  0  0  0  0  0  0  0  0  0  0  0
   12.8770    2.9970   22.1050 C   0  0  0  0  0  0  0  0  0  0  0  0
   12.8000    3.9450   21.3330 O   0  0  0  0  0  0  0  0  0  0  0  0
   13.9530    2.2350   22.2560 N   0  0  0  0  0  0  0  0  0  0  0  0
   13.9000    3.6270   21.7850 C   0  0  1  0  0  0  0  0  0  0  0  0
   14.2210    4.7510   22.5140 C   0  0  0  0  0  0  0  0  0  0  0  0
   15.2520    4.4660   21.7600 C   0  0  1  0  0  0  0  0  0  0  0  0
   16.3400    3.9450   22.4150 F   0  0  0  0  0  0  0  0  0  0  0  0
   11.2790    1.4640   23.2870 C   0  0  0  0  0  0  0  0  0  0  0  0
   12.2610   -0.1300   22.9020 Br  0  0  0  0  0  0  0  0  0  0  0  0
  1  2  1  0
  2  3  1  0
  2  4  1  0
  4  5  1  0
  5  6  1  0
  6  7  2  0
  6  8  1  0
  8  9  2  0
  9 10  1  0
 10 11  1  0
 11 12  1  0
 11 13  2  0
 11 14  2  0
 10 15  2  0
 15 16  1  0
 16 17  1  0
 17 18  2  0
 17 19  1  0
 20 19  1  1
 20 21  1  0
 20 22  1  0
 21 22  1  0
 22 23  1  1
  8 24  1  0
 16 24  2  0
 24 25  1  0
M  END
