MED-UNK-28939ac5-4
     RDKit          3D

 20 22  0  0  0  0  0  0  0  0999 V2000
    8.9980    4.0080   22.3540 N   0  0  0  0  0  0  0  0  0  0  0  0
    8.0400    2.9090   22.0780 C   0  0  0  0  0  0  0  0  0  0  0  0
    8.1870    2.0280   20.9700 O   0  0  0  0  0  0  0  0  0  0  0  0
    6.8490    2.8590   23.1050 C   0  0  1  0  0  0  0  0  0  0  0  0
    5.5270    2.6450   22.3750 C   0  0  0  0  0  0  0  0  0  0  0  0
    4.8180    1.4630   23.0150 C   0  0  2  0  0  0  0  0  0  0  0  0
    3.6760    1.7490   23.3510 O   0  0  0  0  0  0  0  0  0  0  0  0
    5.7140    1.0820   24.1750 C   0  0  0  0  0  0  0  0  0  0  0  0
    6.9530    1.9950   24.2210 C   0  0  1  0  0  0  0  0  0  0  0  0
    8.1780    1.1660   24.2530 C   0  0  0  0  0  0  0  0  0  0  0  0
    8.4570    0.5290   25.5670 C   0  0  0  0  0  0  0  0  0  0  0  0
    9.8990   -0.4190   25.5470 S   0  0  0  0  0  0  0  0  0  0  0  0
   10.1610   -0.0040   23.7910 C   0  0  0  0  0  0  0  0  0  0  0  0
   11.2760   -0.4620   22.9730 C   0  0  0  0  0  0  0  0  0  0  0  0
   12.4090    0.4980   22.8750 C   0  0  0  0  0  0  0  0  0  0  0  0
   13.5550    0.1180   22.0380 C   0  0  0  0  0  0  0  0  0  0  0  0
   13.6250   -1.0630   21.3700 N   0  0  0  0  0  0  0  0  0  0  0  0
   12.5930   -1.9060   21.4930 C   0  0  0  0  0  0  0  0  0  0  0  0
   11.3630   -1.6590   22.2950 C   0  0  0  0  0  0  0  0  0  0  0  0
    9.2130    0.8240   23.2260 C   0  0  0  0  0  0  0  0  0  0  0  0
  1  2  1  0
  2  3  2  0
  4  2  1  6
  4  5  1  0
  5  6  1  0
  6  7  1  1
  6  8  1  0
  4  9  1  0
  8  9  1  0
  9 10  1  6
 10 11  2  0
 11 12  1  0
 12 13  1  0
 13 14  1  0
 14 15  2  0
 15 16  1  0
 16 17  2  0
 17 18  1  0
 14 19  1  0
 18 19  2  0
 10 20  1  0
 13 20  2  0
M  END
