MED-UNK-e6e8ef8a-8
     RDKit          3D

 25 28  0  0  0  0  0  0  0  0999 V2000
    9.4080    1.3450   21.4500 O   0  0  0  0  0  0  0  0  0  0  0  0
    8.7000    0.5380   22.0530 C   0  0  0  0  0  0  0  0  0  0  0  0
    9.1190   -0.1550   23.3820 C   0  0  0  0  0  0  0  0  0  0  0  0
   10.4010   -0.7510   23.5210 C   0  0  0  0  0  0  0  0  0  0  0  0
   11.1810   -0.2650   24.5770 C   0  0  0  0  0  0  0  0  0  0  0  0
   12.5450   -0.5000   24.4320 C   0  0  0  0  0  0  0  0  0  0  0  0
   12.8770   -1.6560   23.7350 C   0  0  0  0  0  0  0  0  0  0  0  0
   12.2630   -1.7510   22.3620 C   0  0  0  0  0  0  0  0  0  0  0  0
   11.2150   -0.8320   22.2280 C   0  0  0  0  0  0  0  0  0  0  0  0
    7.4110    0.1440   21.7170 N   0  0  0  0  0  0  0  0  0  0  0  0
    6.6720    0.3110   20.5210 C   0  0  0  0  0  0  0  0  0  0  0  0
    6.4080    1.5200   19.9080 C   0  0  0  0  0  0  0  0  0  0  0  0
    5.6500    1.5480   18.7280 C   0  0  0  0  0  0  0  0  0  0  0  0
    5.2060    0.3740   18.1850 C   0  0  0  0  0  0  0  0  0  0  0  0
    5.4420   -0.8060   18.7540 N   0  0  0  0  0  0  0  0  0  0  0  0
    6.1470   -0.8150   19.9160 C   0  0  0  0  0  0  0  0  0  0  0  0
    6.2800   -2.0610   20.5080 C   0  0  0  0  0  0  0  0  0  0  0  0
    5.6060   -3.3660   20.1890 C   0  0  0  0  0  0  0  0  0  0  0  0
    6.1360   -4.3310   21.1900 C   0  0  0  0  0  0  0  0  0  0  0  0
    5.8720   -5.7240   21.3850 C   0  0  0  0  0  0  0  0  0  0  0  0
    6.4870   -6.3880   22.3810 C   0  0  0  0  0  0  0  0  0  0  0  0
    7.4600   -5.7400   23.3280 C   0  0  0  0  0  0  0  0  0  0  0  0
    7.7620   -4.2370   23.1320 C   0  0  0  0  0  0  0  0  0  0  0  0
    7.0130   -3.6070   21.9830 C   0  0  0  0  0  0  0  0  0  0  0  0
    7.1090   -2.2780   21.5940 O   0  0  0  0  0  0  0  0  0  0  0  0
  1  2  2  0
  2  3  1  0
  3  4  1  0
  4  5  1  0
  5  6  1  0
  6  7  1  0
  7  8  1  0
  4  9  1  0
  8  9  1  0
  2 10  1  0
 10 11  1  0
 11 12  2  0
 12 13  1  0
 13 14  2  0
 14 15  1  0
 11 16  1  0
 15 16  2  0
 16 17  1  0
 17 18  2  0
 18 19  1  0
 19 20  2  0
 20 21  1  0
 21 22  2  0
 22 23  1  0
 19 24  1  0
 23 24  2  0
 17 25  1  0
 24 25  1  0
M  END
