MED-UNK-28939ac5-8
     RDKit          3D

 20 22  0  0  0  0  0  0  0  0999 V2000
   10.2380    3.3390   22.4830 N   0  0  0  0  0  0  0  0  0  0  0  0
    9.3750    2.1300   22.3090 C   0  0  0  0  0  0  0  0  0  0  0  0
    8.8490    1.7200   21.0530 O   0  0  0  0  0  0  0  0  0  0  0  0
    9.0660    1.4010   23.6600 C   0  0  1  0  0  0  0  0  0  0  0  0
    7.5510    1.3350   23.8730 C   0  0  0  0  0  0  0  0  0  0  0  0
    7.1360   -0.1250   23.7270 C   0  0  2  0  0  0  0  0  0  0  0  0
    6.4100   -0.4890   24.6520 O   0  0  0  0  0  0  0  0  0  0  0  0
    8.4650   -0.8520   23.6610 C   0  0  0  0  0  0  0  0  0  0  0  0
    9.6260    0.1310   23.9240 C   0  0  1  0  0  0  0  0  0  0  0  0
   10.8710   -0.3290   23.2150 C   0  0  0  0  0  0  0  0  0  0  0  0
   11.9610    0.6780   23.3830 C   0  0  0  0  0  0  0  0  0  0  0  0
   13.1410    0.1230   22.6640 C   0  0  0  0  0  0  0  0  0  0  0  0
   12.9230   -1.4200   21.8980 S   0  0  0  0  0  0  0  0  0  0  0  0
   11.2230   -1.4550   22.4720 C   0  0  0  0  0  0  0  0  0  0  0  0
   10.2020   -2.5770   22.2390 C   0  0  0  0  0  0  0  0  0  0  0  0
    8.9130   -2.3560   21.4750 C   0  0  0  0  0  0  0  0  0  0  0  0
    7.9490   -3.3560   21.2750 C   0  0  0  0  0  0  0  0  0  0  0  0
    8.2040   -4.6390   21.8140 N   0  0  0  0  0  0  0  0  0  0  0  0
    9.3470   -4.9020   22.5040 N   0  0  0  0  0  0  0  0  0  0  0  0
   10.3320   -3.8670   22.7100 C   0  0  0  0  0  0  0  0  0  0  0  0
  1  2  1  0
  2  3  2  0
  4  2  1  6
  4  5  1  0
  5  6  1  0
  6  7  1  1
  6  8  1  0
  4  9  1  0
  8  9  1  0
  9 10  1  6
 10 11  1  0
 11 12  2  0
 12 13  1  0
 10 14  2  0
 13 14  1  0
 14 15  1  0
 15 16  2  0
 16 17  1  0
 17 18  2  0
 18 19  1  0
 15 20  1  0
 19 20  2  0
M  END
