MED-UNK-7e7dab56-10
     RDKit          3D

 26 27  0  0  0  0  0  0  0  0999 V2000
    8.8250   -4.2560   25.1280 C   0  0  0  0  0  0  0  0  0  0  0  0
    8.6710   -3.0220   24.3690 N   0  0  0  0  0  0  0  0  0  0  0  0
    8.6950   -3.1350   22.9790 C   0  0  0  0  0  0  0  0  0  0  0  0
    8.5260   -1.7730   24.9500 C   0  0  0  0  0  0  0  0  0  0  0  0
    8.4830   -0.5960   23.9520 C   0  0  0  0  0  0  0  0  0  0  0  0
    9.3320    0.3730   24.2630 N   0  0  0  0  0  0  0  0  0  0  0  0
   10.3080    0.5820   23.3620 C   0  0  0  0  0  0  0  0  0  0  0  0
   10.7180   -0.2870   22.6100 O   0  0  0  0  0  0  0  0  0  0  0  0
   10.9260    1.9730   23.2980 C   0  0  0  0  0  0  0  0  0  0  0  0
    9.9230    3.0540   23.6150 C   0  0  0  0  0  0  0  0  0  0  0  0
   10.4600    4.4560   23.5740 C   0  0  0  0  0  0  0  0  0  0  0  0
    9.4420    5.8070   23.9020 S   0  0  0  0  0  0  0  0  0  0  0  0
    8.3670    5.7370   22.6070 N   0  0  0  0  0  0  0  0  0  0  0  0
   10.2300    7.0010   23.7410 O   0  0  0  0  0  0  0  0  0  0  0  0
    8.6710    5.5380   25.1030 O   0  0  0  0  0  0  0  0  0  0  0  0
   11.8370    4.7020   23.2590 C   0  0  0  0  0  0  0  0  0  0  0  0
   12.7220    3.6610   22.9710 C   0  0  0  0  0  0  0  0  0  0  0  0
   14.0720    4.1760   22.6670 C   0  0  0  0  0  0  0  0  0  0  0  0
   14.2770    5.2760   23.0690 O   0  0  0  0  0  0  0  0  0  0  0  0
   15.0070    3.5180   21.8620 N   0  0  0  0  0  0  0  0  0  0  0  0
   15.3640    4.2970   20.6910 C   0  0  1  0  0  0  0  0  0  0  0  0
   16.5310    4.3150   20.0100 C   0  0  0  0  0  0  0  0  0  0  0  0
   15.7350    3.6210   19.2730 C   0  0  1  0  0  0  0  0  0  0  0  0
   16.0090    2.2740   19.1510 F   0  0  0  0  0  0  0  0  0  0  0  0
   12.2600    2.2760   22.9840 C   0  0  0  0  0  0  0  0  0  0  0  0
   13.3070    0.7440   22.5940 Br  0  0  0  0  0  0  0  0  0  0  0  0
  1  2  1  0
  2  3  1  0
  2  4  1  0
  4  5  1  0
  5  6  1  0
  6  7  1  0
  7  8  2  0
  7  9  1  0
  9 10  2  0
 10 11  1  0
 11 12  1  0
 12 13  1  0
 12 14  2  0
 12 15  2  0
 11 16  2  0
 16 17  1  0
 17 18  1  0
 18 19  2  0
 18 20  1  0
 21 20  1  1
 21 22  1  0
 21 23  1  0
 22 23  1  0
 23 24  1  1
  9 25  1  0
 17 25  2  0
 25 26  1  0
M  END
