MIC-UNK-2744a8e2-9
     RDKit          3D

 30 31  0  0  0  0  0  0  0  0999 V2000
    5.8900   -2.5680   21.7480 C   0  0  0  0  0  0  0  0  0  0  0  0
    5.9950   -1.6870   22.9700 C   0  0  0  0  0  0  0  0  0  0  0  0
    4.7850   -1.4590   23.8470 C   0  0  0  0  0  0  0  0  0  0  0  0
    4.9010   -0.5650   25.0620 C   0  0  0  0  0  0  0  0  0  0  0  0
    6.0150    0.0820   25.4740 N   0  0  0  0  0  0  0  0  0  0  0  0
    7.1120   -0.1370   24.6830 C   0  0  0  0  0  0  0  0  0  0  0  0
    7.1540   -1.0270   23.4070 C   0  0  0  0  0  0  0  0  0  0  0  0
    8.5210   -1.0970   22.7570 C   0  0  2  0  0  0  0  0  0  0  0  0
    9.4970   -1.5630   23.6440 N   0  0  0  0  0  0  0  0  0  0  0  0
    9.8250   -2.8290   23.8380 C   0  0  0  0  0  0  0  0  0  0  0  0
   10.7300   -3.3340   23.2000 O   0  0  0  0  0  0  0  0  0  0  0  0
    9.1290   -3.4960   24.7710 N   0  0  0  0  0  0  0  0  0  0  0  0
    8.9540   -4.9620   24.8350 C   0  0  0  0  0  0  0  0  0  0  0  0
    7.9390   -5.5850   24.1260 C   0  0  0  0  0  0  0  0  0  0  0  0
    7.2280   -4.8660   23.1700 C   0  0  0  0  0  0  0  0  0  0  0  0
    6.0290   -5.5210   22.7550 C   0  0  0  0  0  0  0  0  0  0  0  0
    6.0400   -5.7920   21.3990 C   0  0  0  0  0  0  0  0  0  0  0  0
    4.8970   -4.8150   23.1730 C   0  0  0  0  0  0  0  0  0  0  0  0
    5.8560   -6.5540   23.3950 O   0  0  0  0  0  0  0  0  0  0  0  0
    8.5840   -0.0810   21.6660 C   0  0  0  0  0  0  0  0  0  0  0  0
    9.0740    1.1970   21.4530 O   0  0  0  0  0  0  0  0  0  0  0  0
    7.9400   -0.7610   20.6430 N   0  0  0  0  0  0  0  0  0  0  0  0
    6.9000   -0.0690   19.9120 C   0  0  0  0  0  0  0  0  0  0  0  0
    7.0890   -0.1550   18.5440 C   0  0  0  0  0  0  0  0  0  0  0  0
    6.2120    0.4470   17.6990 C   0  0  0  0  0  0  0  0  0  0  0  0
    5.0480    1.1970   18.2110 C   0  0  0  0  0  0  0  0  0  0  0  0
    4.8650    1.2620   19.7210 C   0  0  0  0  0  0  0  0  0  0  0  0
    3.7280    1.9770   20.3940 C   0  0  0  0  0  0  0  0  0  0  0  0
    2.8320    2.5140   20.9000 N   0  0  0  0  0  0  0  0  0  0  0  0
    5.8230    0.6130   20.5170 C   0  0  0  0  0  0  0  0  0  0  0  0
  1  2  1  0
  2  3  2  0
  3  4  1  0
  4  5  2  0
  5  6  1  0
  2  7  1  0
  6  7  2  0
  7  8  1  0
  8  9  1  1
  9 10  1  0
 10 11  2  0
 10 12  1  0
 12 13  1  0
 13 14  1  0
 14 15  1  0
 15 16  1  0
 16 17  1  0
 16 18  1  0
 16 19  1  0
  8 20  1  0
 20 21  2  0
 20 22  1  0
 22 23  1  0
 23 24  2  0
 24 25  1  0
 25 26  2  0
 26 27  1  0
 27 28  1  0
 28 29  3  0
 23 30  1  0
 27 30  2  0
M  END
