MIC-UNK-2744a8e2-11
     RDKit          3D

 29 30  0  0  0  0  0  0  0  0999 V2000
    5.0330   -2.4290   19.4600 C   0  0  0  0  0  0  0  0  0  0  0  0
    5.1050   -1.0430   18.9090 C   0  0  0  0  0  0  0  0  0  0  0  0
    4.5990    0.0690   19.7970 C   0  0  0  0  0  0  0  0  0  0  0  0
    4.6950    1.4690   19.3190 C   0  0  0  0  0  0  0  0  0  0  0  0
    5.2220    1.8070   18.1530 N   0  0  0  0  0  0  0  0  0  0  0  0
    5.6740    0.7850   17.3710 C   0  0  0  0  0  0  0  0  0  0  0  0
    5.6360   -0.7600   17.6410 C   0  0  0  0  0  0  0  0  0  0  0  0
    6.1340   -2.0370   16.8110 C   0  0  1  0  0  0  0  0  0  0  0  0
    6.2510   -2.9990   17.8010 N   0  0  0  0  0  0  0  0  0  0  0  0
    5.9470   -3.1030   19.1210 C   0  0  0  0  0  0  0  0  0  0  0  0
    5.4620   -4.1970   19.4670 O   0  0  0  0  0  0  0  0  0  0  0  0
    6.1030   -2.2520   20.2650 C   0  0  0  0  0  0  0  0  0  0  0  0
    7.3560   -2.0080   20.8620 C   0  0  0  0  0  0  0  0  0  0  0  0
    7.8330   -2.8130   21.9120 C   0  0  0  0  0  0  0  0  0  0  0  0
    7.1800   -4.0130   22.2530 C   0  0  0  0  0  0  0  0  0  0  0  0
    7.5260   -4.4040   23.5500 C   0  0  0  0  0  0  0  0  0  0  0  0
    8.4800   -5.3830   23.7000 N   0  0  0  0  0  0  0  0  0  0  0  0
    6.9760   -3.8720   24.6580 N   0  0  0  0  0  0  0  0  0  0  0  0
    6.4680   -2.8130   15.3730 C   0  0  0  0  0  0  0  0  0  0  0  0
    7.6200   -3.1850   15.9260 O   0  0  0  0  0  0  0  0  0  0  0  0
    6.1460   -3.3430   13.6980 N   0  0  0  0  0  0  0  0  0  0  0  0
    4.5390   -3.6730   13.0280 C   0  0  0  0  0  0  0  0  0  0  0  0
    3.3750   -2.6580   12.6670 C   0  0  0  0  0  0  0  0  0  0  0  0
    2.2000   -3.1680   12.6300 C   0  0  0  0  0  0  0  0  0  0  0  0
    2.0540   -4.5730   12.7780 C   0  0  0  0  0  0  0  0  0  0  0  0
    3.3070   -5.2700   12.9780 C   0  0  0  0  0  0  0  0  0  0  0  0
    4.2070   -6.7140   13.2590 C   0  0  0  0  0  0  0  0  0  0  0  0
    4.7630   -7.6770   13.5310 N   0  0  0  0  0  0  0  0  0  0  0  0
    4.0980   -4.8360   13.0550 C   0  0  0  0  0  0  0  0  0  0  0  0
  1  2  1  0
  2  3  2  0
  3  4  1  0
  4  5  2  0
  5  6  1  0
  2  7  1  0
  6  7  2  0
  7  8  1  0
  8  9  1  6
  9 10  1  0
 10 11  2  0
 10 12  1  0
 12 13  1  0
 13 14  1  0
 14 15  1  0
 15 16  1  0
 16 17  2  3
 16 18  1  0
  8 19  1  0
 19 20  2  0
 19 21  1  0
 21 22  1  0
 22 23  2  0
 23 24  1  0
 24 25  2  0
 25 26  1  0
 26 27  1  0
 27 28  3  0
 22 29  1  0
 26 29  2  0
M  END
