MIC-UNK-2744a8e2-14
     RDKit          3D

 29 30  0  0  0  0  0  0  0  0999 V2000
    5.5360   -2.6410   18.1290 C   0  0  0  0  0  0  0  0  0  0  0  0
    5.6400   -1.2100   17.9140 C   0  0  0  0  0  0  0  0  0  0  0  0
    4.9970   -0.3980   19.0080 C   0  0  0  0  0  0  0  0  0  0  0  0
    5.0690    1.0680   18.9350 C   0  0  0  0  0  0  0  0  0  0  0  0
    5.6870    1.7070   17.9650 N   0  0  0  0  0  0  0  0  0  0  0  0
    6.2800    0.9710   16.9710 C   0  0  0  0  0  0  0  0  0  0  0  0
    6.2910   -0.5730   16.8140 C   0  0  0  0  0  0  0  0  0  0  0  0
    7.0610   -1.1790   15.5180 C   0  0  1  0  0  0  0  0  0  0  0  0
    7.8840   -1.9670   16.3490 N   0  0  0  0  0  0  0  0  0  0  0  0
    7.3620   -2.3760   17.5170 C   0  0  0  0  0  0  0  0  0  0  0  0
    6.3220   -2.9700   17.4120 O   0  0  0  0  0  0  0  0  0  0  0  0
    7.6520   -2.2620   18.9110 C   0  0  0  0  0  0  0  0  0  0  0  0
    6.7390   -2.4770   19.9630 C   0  0  0  0  0  0  0  0  0  0  0  0
    7.2840   -2.9040   21.1930 C   0  0  0  0  0  0  0  0  0  0  0  0
    7.2570   -4.1390   21.8220 N   0  0  0  0  0  0  0  0  0  0  0  0
    6.8310   -4.1810   23.1050 C   0  0  0  0  0  0  0  0  0  0  0  0
    7.0810   -3.1260   23.9590 N   0  0  0  0  0  0  0  0  0  0  0  0
    6.1470   -5.3060   23.5070 N   0  0  0  0  0  0  0  0  0  0  0  0
    6.4290   -2.3030   14.4090 C   0  0  0  0  0  0  0  0  0  0  0  0
    6.8370   -3.4150   15.0310 O   0  0  0  0  0  0  0  0  0  0  0  0
    5.8300   -2.4330   13.0960 N   0  0  0  0  0  0  0  0  0  0  0  0
    4.3620   -3.0030   12.7490 C   0  0  0  0  0  0  0  0  0  0  0  0
    2.9570   -2.6660   12.4710 C   0  0  0  0  0  0  0  0  0  0  0  0
    2.0810   -3.6470   12.5810 C   0  0  0  0  0  0  0  0  0  0  0  0
    2.3110   -4.8390   12.8050 C   0  0  0  0  0  0  0  0  0  0  0  0
    3.5740   -5.2730   13.0020 C   0  0  0  0  0  0  0  0  0  0  0  0
    4.2830   -6.7480   13.3740 C   0  0  0  0  0  0  0  0  0  0  0  0
    4.7690   -7.7260   13.6530 N   0  0  0  0  0  0  0  0  0  0  0  0
    4.3500   -4.2160   12.9390 C   0  0  0  0  0  0  0  0  0  0  0  0
  1  2  1  0
  2  3  2  0
  3  4  1  0
  4  5  2  0
  5  6  1  0
  2  7  1  0
  6  7  2  0
  7  8  1  0
  8  9  1  1
  9 10  1  0
 10 11  2  0
 10 12  1  0
 12 13  1  0
 13 14  1  0
 14 15  1  0
 15 16  1  0
 16 17  2  3
 16 18  1  0
  8 19  1  0
 19 20  2  0
 19 21  1  0
 21 22  1  0
 22 23  2  0
 23 24  1  0
 24 25  2  0
 25 26  1  0
 26 27  1  0
 27 28  3  0
 22 29  1  0
 26 29  2  0
M  END
