MIC-IOC-304754b1-1
     RDKit          3D

 35 39  0  0  0  0  0  0  0  0999 V2000
   -3.8620   -0.6770   28.2540 C   0  0  0  0  0  0  0  0  0  0  0  0
   -4.2350   -2.0400   27.7290 C   0  0  0  0  0  0  0  0  0  0  0  0
   -4.2650   -2.2140   26.2060 C   0  0  0  0  0  0  0  0  0  0  0  0
   -5.5080   -1.7510   25.5600 N   0  0  0  0  0  0  0  0  0  0  0  0
   -5.3690   -1.9300   24.2340 N   0  0  0  0  0  0  0  0  0  0  0  0
   -6.4440   -1.6800   23.3480 C   0  0  0  0  0  0  0  0  0  0  0  0
   -6.4310   -2.0040   21.8950 C   0  0  0  0  0  0  0  0  0  0  0  0
   -7.4400   -1.7880   20.9790 C   0  0  0  0  0  0  0  0  0  0  0  0
   -8.6380   -1.1980   21.4100 C   0  0  0  0  0  0  0  0  0  0  0  0
   -8.7660   -0.8460   22.7780 C   0  0  0  0  0  0  0  0  0  0  0  0
  -10.2280   -0.1200   23.3270 Cl  0  0  0  0  0  0  0  0  0  0  0  0
   -7.6430   -1.0930   23.7630 C   0  0  0  0  0  0  0  0  0  0  0  0
   -4.0590   -2.5560   24.0080 C   0  0  0  0  0  0  0  0  0  0  0  0
   -3.4250   -2.9580   23.0330 O   0  0  0  0  0  0  0  0  0  0  0  0
   -3.3610   -2.7100   25.3460 C   0  0  0  0  0  0  0  0  0  0  0  0
   -2.0690   -3.2560   25.4200 C   0  0  0  0  0  0  0  0  0  0  0  0
   -1.7350   -4.6150   25.3790 C   0  0  0  0  0  0  0  0  0  0  0  0
   -2.5600   -5.6820   25.2570 N   0  0  0  0  0  0  0  0  0  0  0  0
   -3.3350   -6.0320   26.3760 C   0  0  0  0  0  0  0  0  0  0  0  0
   -4.1170   -7.2200   26.3320 C   0  0  0  0  0  0  0  0  0  0  0  0
   -4.1640   -8.0740   25.2070 C   0  0  0  0  0  0  0  0  0  0  0  0
   -2.9770   -8.1390   24.4790 C   0  0  0  0  0  0  0  0  0  0  0  0
   -2.1740   -6.8530   24.5340 C   0  0  0  0  0  0  0  0  0  0  0  0
   -0.2320   -4.6760   25.5000 C   0  0  0  0  0  0  0  0  0  0  0  0
    0.3820   -5.7160   25.6780 O   0  0  0  0  0  0  0  0  0  0  0  0
    0.2330   -3.3940   25.3690 N   0  0  0  0  0  0  0  0  0  0  0  0
    1.6560   -3.1800   25.6550 C   0  0  0  0  0  0  0  0  0  0  0  0
    2.0750   -1.7290   25.7030 C   0  0  0  0  0  0  0  0  0  0  0  0
    3.4240   -1.4290   25.9550 C   0  0  0  0  0  0  0  0  0  0  0  0
    4.3500   -2.4590   26.1650 C   0  0  0  0  0  0  0  0  0  0  0  0
    3.8850   -3.9100   26.1230 C   0  0  0  0  0  0  0  0  0  0  0  0
    4.8930   -5.0430   26.3730 C   0  0  0  0  0  0  0  0  0  0  0  0
    2.5610   -4.1990   25.8670 C   0  0  0  0  0  0  0  0  0  0  0  0
   -0.8350   -2.4750   25.5590 C   0  0  0  0  0  0  0  0  0  0  0  0
   -0.8440   -1.2730   25.7950 O   0  0  0  0  0  0  0  0  0  0  0  0
  1  2  1  0
  2  3  1  0
  3  4  1  0
  4  5  1  0
  5  6  1  0
  6  7  2  0
  7  8  1  0
  8  9  2  0
  9 10  1  0
 10 11  1  0
  6 12  1  0
 10 12  2  0
  5 13  1  0
 13 14  2  0
  3 15  2  0
 13 15  1  0
 15 16  1  0
 16 17  2  0
 17 18  1  0
 18 19  1  0
 19 20  2  0
 20 21  1  0
 21 22  1  0
 18 23  1  0
 22 23  2  0
 17 24  1  0
 24 25  2  0
 24 26  1  0
 26 27  1  0
 27 28  2  0
 28 29  1  0
 29 30  2  0
 30 31  1  0
 31 32  1  0
 27 33  1  0
 31 33  2  0
 16 34  1  0
 26 34  1  0
 34 35  2  0
M  END
