MIC-UNK-1e397c67-1
     RDKit          3D

 26 28  0  0  0  0  0  0  0  0999 V2000
    4.6000    0.6620   23.1590 C   0  0  0  0  0  0  0  0  0  0  0  0
    4.1630    1.0770   21.7800 C   0  0  0  0  0  0  0  0  0  0  0  0
    3.1160    2.1460   21.5690 C   0  0  0  0  0  0  0  0  0  0  0  0
    2.7260    2.5180   20.1590 C   0  0  0  0  0  0  0  0  0  0  0  0
    3.2310    1.9790   19.0370 N   0  0  0  0  0  0  0  0  0  0  0  0
    4.1730    1.0160   19.2360 C   0  0  0  0  0  0  0  0  0  0  0  0
    4.6750    0.5300   20.6230 C   0  0  0  0  0  0  0  0  0  0  0  0
    5.7350   -0.5230   20.5730 C   0  0  2  0  0  0  0  0  0  0  0  0
    6.1550   -1.4400   21.5750 N   0  0  0  0  0  0  0  0  0  0  0  0
    5.6410   -2.6340   21.8670 C   0  0  0  0  0  0  0  0  0  0  0  0
    4.9320   -3.2030   21.0310 O   0  0  0  0  0  0  0  0  0  0  0  0
    5.7740   -3.4340   23.0060 C   0  0  0  0  0  0  0  0  0  0  0  0
    5.3390   -4.7600   22.9440 C   0  0  0  0  0  0  0  0  0  0  0  0
    5.9550   -5.6880   23.6000 C   0  0  0  0  0  0  0  0  0  0  0  0
    6.2270   -6.0560   22.3870 C   0  0  0  0  0  0  0  0  0  0  0  0
    6.6350    0.6510   20.4420 C   0  0  0  0  0  0  0  0  0  0  0  0
    7.4900    1.1320   21.4740 O   0  0  0  0  0  0  0  0  0  0  0  0
    6.5240    1.1970   19.1910 N   0  0  0  0  0  0  0  0  0  0  0  0
    6.8310    0.3100   18.1840 C   0  0  0  0  0  0  0  0  0  0  0  0
    6.3940   -1.1130   18.3520 C   0  0  0  0  0  0  0  0  0  0  0  0
    6.7880   -2.0530   17.2730 C   0  0  0  0  0  0  0  0  0  0  0  0
    7.5100   -1.6470   16.2130 C   0  0  0  0  0  0  0  0  0  0  0  0
    7.8900   -0.3390   16.0950 C   0  0  0  0  0  0  0  0  0  0  0  0
    8.7230    0.1190   14.9750 C   0  0  0  0  0  0  0  0  0  0  0  0
    9.4940    0.3510   14.1560 N   0  0  0  0  0  0  0  0  0  0  0  0
    7.5380    0.6080   17.0370 C   0  0  0  0  0  0  0  0  0  0  0  0
  1  2  1  0
  2  3  2  0
  3  4  1  0
  4  5  2  0
  5  6  1  0
  2  7  1  0
  6  7  2  0
  7  8  1  0
  8  9  1  1
  9 10  1  0
 10 11  2  0
 10 12  1  0
 12 13  1  0
 13 14  1  0
 13 15  1  0
 14 15  1  0
  8 16  1  0
 16 17  2  0
 16 18  1  0
 18 19  1  0
 19 20  2  0
 20 21  1  0
 21 22  2  0
 22 23  1  0
 23 24  1  0
 24 25  3  0
 19 26  1  0
 23 26  2  0
M  END
