MIC-UNK-2744a8e2-2
     RDKit          3D

 25 26  0  0  0  0  0  0  0  0999 V2000
    6.8190   -5.8050   23.0260 C   0  0  0  0  0  0  0  0  0  0  0  0
    5.5840   -5.0460   22.6090 C   0  0  0  0  0  0  0  0  0  0  0  0
    5.7480   -3.6820   22.5730 N   0  0  0  0  0  0  0  0  0  0  0  0
    5.3720   -2.8780   21.4170 C   0  0  0  0  0  0  0  0  0  0  0  0
    4.8380   -3.4250   20.4520 O   0  0  0  0  0  0  0  0  0  0  0  0
    5.5800   -1.5510   21.3870 N   0  0  0  0  0  0  0  0  0  0  0  0
    5.9370   -1.0690   20.1990 C   0  0  2  0  0  0  0  0  0  0  0  0
    7.3390   -0.7280   20.0970 C   0  0  0  0  0  0  0  0  0  0  0  0
    7.9210    0.1510   20.9850 O   0  0  0  0  0  0  0  0  0  0  0  0
    7.9290   -1.3250   19.1300 N   0  0  0  0  0  0  0  0  0  0  0  0
    7.6260   -1.3980   17.8880 C   0  0  0  0  0  0  0  0  0  0  0  0
    7.1250   -2.5070   17.0560 C   0  0  0  0  0  0  0  0  0  0  0  0
    6.8770   -2.4840   15.7080 C   0  0  0  0  0  0  0  0  0  0  0  0
    7.0850   -1.3870   15.0810 C   0  0  0  0  0  0  0  0  0  0  0  0
    7.5160   -0.3920   15.7810 C   0  0  0  0  0  0  0  0  0  0  0  0
    7.9150    0.8620   15.7150 C   0  0  0  0  0  0  0  0  0  0  0  0
    9.0920    0.7590   14.9660 N   0  0  0  0  0  0  0  0  0  0  0  0
    7.8060   -0.2540   17.1720 C   0  0  0  0  0  0  0  0  0  0  0  0
    5.3200    0.0940   19.8090 C   0  0  0  0  0  0  0  0  0  0  0  0
    5.4070    0.7850   18.2920 C   0  0  0  0  0  0  0  0  0  0  0  0
    4.7590    2.0870   17.8050 N   0  0  0  0  0  0  0  0  0  0  0  0
    3.9880    2.7210   18.8680 C   0  0  0  0  0  0  0  0  0  0  0  0
    4.4510    1.6060   19.5680 C   0  0  0  0  0  0  0  0  0  0  0  0
    4.5630    0.8770   20.5900 C   0  0  0  0  0  0  0  0  0  0  0  0
    4.1040    0.9190   21.8830 C   0  0  0  0  0  0  0  0  0  0  0  0
  1  2  1  0
  2  3  1  0
  3  4  1  0
  4  5  2  0
  4  6  1  0
  7  6  1  1
  7  8  1  0
  8  9  2  0
  8 10  1  0
 10 11  1  0
 11 12  2  0
 12 13  1  0
 13 14  2  0
 14 15  1  0
 15 16  1  0
 16 17  3  0
 11 18  1  0
 15 18  2  0
  7 19  1  0
 19 20  2  0
 20 21  1  0
 21 22  2  0
 22 23  1  0
 19 24  1  0
 23 24  2  0
 24 25  1  0
M  END
