MIC-UNK-2744a8e2-3
     RDKit          3D

 26 28  0  0  0  0  0  0  0  0999 V2000
    5.0110   -1.7030   19.8400 C   0  0  0  0  0  0  0  0  0  0  0  0
    5.3000   -0.7440   18.7610 C   0  0  0  0  0  0  0  0  0  0  0  0
    5.2160    0.6570   18.7580 C   0  0  0  0  0  0  0  0  0  0  0  0
    4.8460    1.6720   19.6480 C   0  0  0  0  0  0  0  0  0  0  0  0
    5.3030    1.9750   18.3750 N   0  0  0  0  0  0  0  0  0  0  0  0
    5.7100    0.9310   17.4080 C   0  0  0  0  0  0  0  0  0  0  0  0
    5.7160   -0.7250   17.5130 C   0  0  0  0  0  0  0  0  0  0  0  0
    6.0790   -2.0550   16.6910 C   0  0  2  0  0  0  0  0  0  0  0  0
    6.0720   -3.0380   17.6590 N   0  0  0  0  0  0  0  0  0  0  0  0
    6.0860   -3.0160   18.9860 C   0  0  0  0  0  0  0  0  0  0  0  0
    5.2400   -3.6110   19.6670 O   0  0  0  0  0  0  0  0  0  0  0  0
    7.1230   -2.3510   19.4950 N   0  0  0  0  0  0  0  0  0  0  0  0
    7.7390   -2.4400   20.8500 C   0  0  0  0  0  0  0  0  0  0  0  0
    7.2990   -1.9540   21.9080 C   0  0  0  0  0  0  0  0  0  0  0  0
    7.1840   -3.4080   21.9520 C   0  0  0  0  0  0  0  0  0  0  0  0
    6.5030   -2.8720   15.3250 C   0  0  0  0  0  0  0  0  0  0  0  0
    7.5150   -3.1730   15.8550 O   0  0  0  0  0  0  0  0  0  0  0  0
    6.1640   -3.3640   13.6920 N   0  0  0  0  0  0  0  0  0  0  0  0
    4.6250   -3.4760   12.9940 C   0  0  0  0  0  0  0  0  0  0  0  0
    3.5670   -2.4050   12.5850 C   0  0  0  0  0  0  0  0  0  0  0  0
    2.3130   -2.8760   12.4640 C   0  0  0  0  0  0  0  0  0  0  0  0
    2.1660   -4.4350   12.6430 C   0  0  0  0  0  0  0  0  0  0  0  0
    3.2340   -4.9410   12.8820 C   0  0  0  0  0  0  0  0  0  0  0  0
    3.9020   -6.0150   13.1600 C   0  0  0  0  0  0  0  0  0  0  0  0
    4.4240   -7.0570   13.4650 N   0  0  0  0  0  0  0  0  0  0  0  0
    4.1120   -4.5600   13.0040 C   0  0  0  0  0  0  0  0  0  0  0  0
  1  2  1  0
  2  3  2  0
  3  4  1  0
  4  5  2  0
  5  6  1  0
  2  7  1  0
  6  7  2  0
  7  8  1  0
  8  9  1  1
  9 10  1  0
 10 11  2  0
 10 12  1  0
 12 13  1  0
 13 14  1  0
 13 15  1  0
 14 15  1  0
  8 16  1  0
 16 17  2  0
 16 18  1  0
 18 19  1  0
 19 20  2  0
 20 21  1  0
 21 22  2  0
 22 23  1  0
 23 24  1  0
 24 25  3  0
 19 26  1  0
 23 26  2  0
M  END
