MIC-UNK-2744a8e2-6
     RDKit          3D

 29 30  0  0  0  0  0  0  0  0999 V2000
    7.0630   -2.1190   24.6300 C   0  0  0  0  0  0  0  0  0  0  0  0
    6.9230   -0.6230   24.6430 C   0  0  0  0  0  0  0  0  0  0  0  0
    5.8210    0.0070   25.4650 C   0  0  0  0  0  0  0  0  0  0  0  0
    5.6830    1.5140   25.4730 C   0  0  0  0  0  0  0  0  0  0  0  0
    6.4650    2.3840   24.8010 N   0  0  0  0  0  0  0  0  0  0  0  0
    7.4600    1.8010   24.0610 C   0  0  0  0  0  0  0  0  0  0  0  0
    7.7450    0.2770   23.9440 C   0  0  0  0  0  0  0  0  0  0  0  0
    8.9300   -0.0660   23.0410 C   0  0  1  0  0  0  0  0  0  0  0  0
    9.4030   -1.3790   22.8830 N   0  0  0  0  0  0  0  0  0  0  0  0
    8.7000   -2.4440   22.5770 C   0  0  0  0  0  0  0  0  0  0  0  0
    7.5850   -2.3870   22.0650 O   0  0  0  0  0  0  0  0  0  0  0  0
    9.2970   -3.5540   22.8890 N   0  0  0  0  0  0  0  0  0  0  0  0
    8.6300   -4.8240   23.1820 C   0  0  0  0  0  0  0  0  0  0  0  0
    8.0770   -5.0620   24.4180 C   0  0  0  0  0  0  0  0  0  0  0  0
    9.0100   -5.2230   25.4370 C   0  0  0  0  0  0  0  0  0  0  0  0
    8.5710   -4.9560   26.7490 N   0  0  0  0  0  0  0  0  0  0  0  0
    9.3880   -4.9820   27.8560 C   0  0  0  0  0  0  0  0  0  0  0  0
    7.1690   -5.0340   26.8440 C   0  0  0  0  0  0  0  0  0  0  0  0
    8.5740    0.3310   21.7610 C   0  0  0  0  0  0  0  0  0  0  0  0
    9.0880    1.4650   21.1820 O   0  0  0  0  0  0  0  0  0  0  0  0
    7.6290   -0.5800   21.2320 N   0  0  0  0  0  0  0  0  0  0  0  0
    6.8960   -0.0780   20.1020 C   0  0  0  0  0  0  0  0  0  0  0  0
    5.6620    0.7900   20.3680 C   0  0  0  0  0  0  0  0  0  0  0  0
    4.9580    1.3000   19.2810 C   0  0  0  0  0  0  0  0  0  0  0  0
    5.4010    1.0050   17.9980 C   0  0  0  0  0  0  0  0  0  0  0  0
    6.6130    0.1420   17.7710 C   0  0  0  0  0  0  0  0  0  0  0  0
    7.1210   -0.1870   16.3830 C   0  0  0  0  0  0  0  0  0  0  0  0
    7.5840   -0.4660   15.3700 N   0  0  0  0  0  0  0  0  0  0  0  0
    7.2980   -0.3660   18.8270 C   0  0  0  0  0  0  0  0  0  0  0  0
  1  2  1  0
  2  3  2  0
  3  4  1  0
  4  5  2  0
  5  6  1  0
  2  7  1  0
  6  7  2  0
  7  8  1  0
  8  9  1  6
  9 10  1  0
 10 11  2  0
 10 12  1  0
 12 13  1  0
 13 14  1  0
 14 15  1  0
 15 16  1  0
 16 17  1  0
 16 18  1  0
  8 19  1  0
 19 20  2  0
 19 21  1  0
 21 22  1  0
 22 23  2  0
 23 24  1  0
 24 25  2  0
 25 26  1  0
 26 27  1  0
 27 28  3  0
 22 29  1  0
 26 29  2  0
M  END
