MIH-UNI-e573136b-3-acrylamide
     RDKit          3D

 28 31  0  0  0  0  0  0  0  0999 V2000
    8.0570   -3.5360   19.4610 C   0  0  0  0  0  0  0  0  0  0  0  0
    7.0130   -2.4860   19.3350 C   0  0  0  0  0  0  0  0  0  0  0  0
    5.7910   -2.9080   20.0820 C   0  0  0  0  0  0  0  0  0  0  0  0
    4.9690   -3.1670   20.9650 O   0  0  0  0  0  0  0  0  0  0  0  0
    6.6530   -2.4740   21.1470 N   0  0  0  0  0  0  0  0  0  0  0  0
    6.4920   -3.1140   22.4370 C   0  0  0  0  0  0  0  0  0  0  0  0
    7.6870   -3.3430   23.1380 C   0  0  0  0  0  0  0  0  0  0  0  0
    8.7480   -2.4470   22.9950 N   0  0  0  0  0  0  0  0  0  0  0  0
    9.7860   -2.3210   23.9170 C   0  0  0  0  0  0  0  0  0  0  0  0
   10.8380   -1.5050   23.5150 C   0  0  0  0  0  0  0  0  0  0  0  0
   12.0050   -1.9280   22.8690 C   0  0  0  0  0  0  0  0  0  0  0  0
   13.0130   -1.0370   22.5080 C   0  0  0  0  0  0  0  0  0  0  0  0
   12.8910    0.4400   22.7930 C   0  0  0  0  0  0  0  0  0  0  0  0
   11.6330    0.9100   23.4760 C   0  0  0  0  0  0  0  0  0  0  0  0
   11.4200    2.2980   23.7620 C   0  0  0  0  0  0  0  0  0  0  0  0
   10.2610    2.7750   24.4070 C   0  0  0  0  0  0  0  0  0  0  0  0
    9.3020    1.8500   24.7800 C   0  0  0  0  0  0  0  0  0  0  0  0
    9.5130    0.5140   24.4910 C   0  0  0  0  0  0  0  0  0  0  0  0
   10.6230   -0.0180   23.8500 C   0  0  0  0  0  0  0  0  0  0  0  0
    8.9480   -1.9900   21.7230 C   0  0  0  0  0  0  0  0  0  0  0  0
    7.8250   -1.5470   21.0430 C   0  0  2  0  0  0  0  0  0  0  0  0
    7.2720   -0.2550   21.4750 C   0  0  0  0  0  0  0  0  0  0  0  0
    6.5530    0.2840   20.2940 C   0  0  0  0  0  0  0  0  0  0  0  0
    5.3260    1.0710   20.4450 C   0  0  0  0  0  0  0  0  0  0  0  0
    4.6520    1.5870   19.2330 C   0  0  0  0  0  0  0  0  0  0  0  0
    5.2120    1.3030   17.9930 C   0  0  0  0  0  0  0  0  0  0  0  0
    6.3490    0.5700   17.7650 N   0  0  0  0  0  0  0  0  0  0  0  0
    6.9900    0.0770   18.8850 C   0  0  0  0  0  0  0  0  0  0  0  0
  1  2  1  0
  2  3  1  0
  3  4  2  0
  3  5  1  0
  5  6  1  0
  6  7  1  0
  7  8  1  0
  8  9  1  0
  9 10  1  0
 10 11  2  0
 11 12  1  0
 12 13  2  0
 13 14  1  0
 14 15  1  0
 15 16  2  0
 16 17  1  0
 17 18  2  0
 10 19  1  0
 14 19  2  0
 18 19  1  0
  8 20  1  0
  5 21  1  0
 20 21  1  0
 21 22  1  1
 22 23  1  0
 23 24  2  0
 24 25  1  0
 25 26  2  0
 26 27  1  0
 23 28  1  0
 27 28  2  0
M  END
