MIH-UNI-e573136b-1-chloroacetamide
     RDKit          3D

 29 33  0  0  0  0  0  0  0  0999 V2000
    7.6940   -3.6660   19.7490 C   0  0  0  0  0  0  0  0  0  0  0  0
    6.4380   -2.9970   20.0260 C   0  0  0  0  0  0  0  0  0  0  0  0
    5.4340   -3.3510   19.3480 O   0  0  0  0  0  0  0  0  0  0  0  0
    6.5070   -2.0200   21.0530 N   0  0  0  0  0  0  0  0  0  0  0  0
    7.6830   -1.1120   20.8660 C   0  0  0  0  0  0  0  0  0  0  0  0
    8.9550   -1.5740   21.5940 C   0  0  0  0  0  0  0  0  0  0  0  0
    8.7770   -2.2010   22.8170 N   0  0  0  0  0  0  0  0  0  0  0  0
    9.8760   -2.3220   23.8110 C   0  0  0  0  0  0  0  0  0  0  0  0
   10.9160   -1.4720   23.4540 C   0  0  0  0  0  0  0  0  0  0  0  0
   12.0860   -1.8900   22.8060 C   0  0  0  0  0  0  0  0  0  0  0  0
   13.0730   -0.9560   22.4710 C   0  0  0  0  0  0  0  0  0  0  0  0
   12.8730    0.3890   22.7850 C   0  0  0  0  0  0  0  0  0  0  0  0
   11.6300    0.8820   23.4710 C   0  0  0  0  0  0  0  0  0  0  0  0
   11.4340    2.3570   23.7700 C   0  0  0  0  0  0  0  0  0  0  0  0
   10.2460    2.7750   24.4290 C   0  0  0  0  0  0  0  0  0  0  0  0
    9.2980    1.8150   24.7860 C   0  0  0  0  0  0  0  0  0  0  0  0
    9.5050    0.4770   24.4870 C   0  0  0  0  0  0  0  0  0  0  0  0
   10.6400   -0.0220   23.8320 C   0  0  0  0  0  0  0  0  0  0  0  0
    7.6730   -3.0150   22.8500 C   0  0  0  0  0  0  0  0  0  0  0  0
    6.5190   -2.2540   22.5200 C   0  0  2  0  0  0  0  0  0  0  0  0
    5.4620   -2.9340   23.0790 C   0  0  0  0  0  0  0  0  0  0  0  0
    4.2820   -2.3810   23.7660 C   0  0  0  0  0  0  0  0  0  0  0  0
    3.3780   -3.3590   24.2220 N   0  0  0  0  0  0  0  0  0  0  0  0
    3.8780   -4.5810   23.8880 C   0  0  0  0  0  0  0  0  0  0  0  0
    3.3150   -5.8240   24.1180 N   0  0  0  0  0  0  0  0  0  0  0  0
    4.1200   -6.8940   23.7500 C   0  0  0  0  0  0  0  0  0  0  0  0
    5.4680   -6.7770   23.1040 C   0  0  0  0  0  0  0  0  0  0  0  0
    5.9270   -5.5210   22.8620 C   0  0  0  0  0  0  0  0  0  0  0  0
    5.2350   -4.3640   23.1940 C   0  0  0  0  0  0  0  0  0  0  0  0
  1  2  1  0
  2  3  2  0
  2  4  1  0
  4  5  1  0
  5  6  1  0
  6  7  1  0
  7  8  1  0
  8  9  1  0
  9 10  2  0
 10 11  1  0
 11 12  2  0
 12 13  1  0
 13 14  1  0
 14 15  2  0
 15 16  1  0
 16 17  2  0
  9 18  1  0
 13 18  2  0
 17 18  1  0
  7 19  1  0
  4 20  1  0
 19 20  1  0
 20 21  1  6
 21 22  2  0
 22 23  1  0
 23 24  2  0
 24 25  1  0
 25 26  1  0
 26 27  2  0
 27 28  1  0
 21 29  1  0
 24 29  1  0
 28 29  2  0
M  END
