MIH-UNI-e573136b-4-vinylsulfonamide
     RDKit          3D

 26 28  0  0  0  0  0  0  0  0999 V2000
    7.9320   -3.8150   20.0060 C   0  0  0  0  0  0  0  0  0  0  0  0
    7.3620   -2.7770   19.0800 C   0  0  0  0  0  0  0  0  0  0  0  0
    5.8310   -2.4120   19.8220 S   0  0  0  0  0  0  0  0  0  0  0  0
    5.0980   -3.6140   20.0860 O   0  0  0  0  0  0  0  0  0  0  0  0
    5.2480   -1.3690   19.0550 O   0  0  0  0  0  0  0  0  0  0  0  0
    6.3920   -1.8310   21.3050 N   0  0  0  0  0  0  0  0  0  0  0  0
    7.5390   -0.9110   21.2330 C   0  0  0  0  0  0  0  0  0  0  0  0
    8.8400   -1.5290   21.7630 C   0  0  0  0  0  0  0  0  0  0  0  0
    8.6560   -2.1100   23.0970 N   0  0  0  0  0  0  0  0  0  0  0  0
    9.9400   -2.4840   23.6880 C   0  0  0  0  0  0  0  0  0  0  0  0
   10.9340   -1.3890   23.4270 C   0  0  0  0  0  0  0  0  0  0  0  0
   12.2070   -1.7950   22.7430 C   0  0  0  0  0  0  0  0  0  0  0  0
   13.1320   -0.7970   22.4690 C   0  0  0  0  0  0  0  0  0  0  0  0
   12.8930    0.5260   22.8030 C   0  0  0  0  0  0  0  0  0  0  0  0
   11.7210    0.9200   23.4260 C   0  0  0  0  0  0  0  0  0  0  0  0
   11.5360    2.2700   23.7040 C   0  0  0  0  0  0  0  0  0  0  0  0
   10.3550    2.6520   24.3370 C   0  0  0  0  0  0  0  0  0  0  0  0
    9.3580    1.7720   24.7150 C   0  0  0  0  0  0  0  0  0  0  0  0
    7.8970    2.3700   25.5400 S   0  0  0  0  0  0  0  0  0  0  0  0
    7.7960    1.3640   26.8860 N   0  0  0  0  0  0  0  0  0  0  0  0
    6.7440    2.0590   24.7290 O   0  0  0  0  0  0  0  0  0  0  0  0
    8.1680    3.7060   26.0090 O   0  0  0  0  0  0  0  0  0  0  0  0
    9.5350    0.4210   24.4260 C   0  0  0  0  0  0  0  0  0  0  0  0
   10.7080   -0.0300   23.7710 C   0  0  0  0  0  0  0  0  0  0  0  0
    7.6850   -3.2070   23.0400 C   0  0  0  0  0  0  0  0  0  0  0  0
    6.3260   -2.8290   22.3990 C   0  0  0  0  0  0  0  0  0  0  0  0
  1  2  1  0
  3  2  1  0
  3  4  2  0
  3  5  2  0
  3  6  1  0
  6  7  1  0
  7  8  1  0
  8  9  1  0
  9 10  1  0
 10 11  1  0
 11 12  2  0
 12 13  1  0
 13 14  2  0
 14 15  1  0
 15 16  1  0
 16 17  2  0
 17 18  1  0
 18 19  1  0
 19 20  1  0
 19 21  2  0
 19 22  2  0
 18 23  2  0
 11 24  1  0
 15 24  2  0
 23 24  1  0
  9 25  1  0
  6 26  1  0
 25 26  1  0
M  END
