MIH-UNI-e573136b-3-chloroacetamide
     RDKit          3D

 27 30  0  0  0  0  0  0  0  0999 V2000
    7.3570   -4.4140   20.5660 C   0  0  0  0  0  0  0  0  0  0  0  0
    6.3540   -3.4220   20.1910 C   0  0  0  0  0  0  0  0  0  0  0  0
    5.3680   -3.6340   19.4710 O   0  0  0  0  0  0  0  0  0  0  0  0
    6.6940   -2.2130   20.7120 N   0  0  0  0  0  0  0  0  0  0  0  0
    8.0940   -1.9400   20.3800 C   0  0  0  0  0  0  0  0  0  0  0  0
    9.1280   -1.7780   21.5040 C   0  0  0  0  0  0  0  0  0  0  0  0
    8.7800   -2.2060   22.7640 N   0  0  0  0  0  0  0  0  0  0  0  0
    9.8060   -2.3110   23.8360 C   0  0  0  0  0  0  0  0  0  0  0  0
   10.8720   -1.4830   23.4790 C   0  0  0  0  0  0  0  0  0  0  0  0
   12.0420   -1.9220   22.8460 C   0  0  0  0  0  0  0  0  0  0  0  0
   13.0490   -1.0080   22.5100 C   0  0  0  0  0  0  0  0  0  0  0  0
   12.8710    0.3470   22.8080 C   0  0  0  0  0  0  0  0  0  0  0  0
   11.6310    0.8640   23.4770 C   0  0  0  0  0  0  0  0  0  0  0  0
   11.4550    2.3480   23.7600 C   0  0  0  0  0  0  0  0  0  0  0  0
   10.2660    2.7860   24.4040 C   0  0  0  0  0  0  0  0  0  0  0  0
    9.3020    1.8440   24.7590 C   0  0  0  0  0  0  0  0  0  0  0  0
    9.4900    0.5000   24.4760 C   0  0  0  0  0  0  0  0  0  0  0  0
   10.6230   -0.0210   23.8380 C   0  0  0  0  0  0  0  0  0  0  0  0
    7.4520   -2.5150   22.9220 C   0  0  0  0  0  0  0  0  0  0  0  0
    6.5860   -1.7510   22.0560 C   0  0  1  0  0  0  0  0  0  0  0  0
    7.1600   -0.5300   21.7940 C   0  0  0  0  0  0  0  0  0  0  0  0
    6.5770    0.0610   20.5260 C   0  0  0  0  0  0  0  0  0  0  0  0
    5.3910    0.9210   20.6980 C   0  0  0  0  0  0  0  0  0  0  0  0
    4.7860    1.5050   19.4810 C   0  0  0  0  0  0  0  0  0  0  0  0
    5.3680    1.2280   18.1400 C   0  0  0  0  0  0  0  0  0  0  0  0
    6.4720    0.4340   17.9420 N   0  0  0  0  0  0  0  0  0  0  0  0
    7.0430   -0.1260   19.0970 C   0  0  0  0  0  0  0  0  0  0  0  0
  1  2  1  0
  2  3  2  0
  2  4  1  0
  4  5  1  0
  5  6  1  0
  6  7  1  0
  7  8  1  0
  8  9  1  0
  9 10  2  0
 10 11  1  0
 11 12  2  0
 12 13  1  0
 13 14  1  0
 14 15  2  0
 15 16  1  0
 16 17  2  0
  9 18  1  0
 13 18  2  0
 17 18  1  0
  7 19  1  0
  4 20  1  0
 19 20  1  0
 20 21  1  6
 21 22  1  0
 22 23  2  0
 23 24  1  0
 24 25  2  0
 25 26  1  0
 22 27  1  0
 26 27  2  0
M  END
