MIH-UNI-e573136b-5-chloroacetamide
     RDKit          3D

 22 23  0  0  0  0  0  0  0  0999 V2000
    7.6710   -3.5950   19.6240 C   0  0  0  0  0  0  0  0  0  0  0  0
    6.4080   -2.8970   19.8240 C   0  0  0  0  0  0  0  0  0  0  0  0
    5.4370   -3.1800   19.0970 O   0  0  0  0  0  0  0  0  0  0  0  0
    6.4420   -2.0250   20.9000 N   0  0  0  0  0  0  0  0  0  0  0  0
    6.1630   -2.5660   22.2380 C   0  0  0  0  0  0  0  0  0  0  0  0
    7.4530   -3.0160   22.9560 C   0  0  0  0  0  0  0  0  0  0  0  0
    8.4710   -1.9560   22.9620 N   0  0  0  0  0  0  0  0  0  0  0  0
    9.7390   -2.4000   23.5650 C   0  0  0  0  0  0  0  0  0  0  0  0
   10.8630   -1.3910   23.4230 C   0  0  0  0  0  0  0  0  0  0  0  0
   11.9440   -1.6890   22.4050 C   0  0  0  0  0  0  0  0  0  0  0  0
   12.9790   -0.7610   22.2610 C   0  0  0  0  0  0  0  0  0  0  0  0
   13.0040    0.3930   23.0280 C   0  0  0  0  0  0  0  0  0  0  0  0
   12.0100    0.6560   23.9650 C   0  0  0  0  0  0  0  0  0  0  0  0
   10.9370   -0.2160   24.1840 C   0  0  0  0  0  0  0  0  0  0  0  0
    9.9920    0.1410   25.1730 C   0  0  0  0  0  0  0  0  0  0  0  0
    9.3900    1.4180   25.1810 C   0  0  0  0  0  0  0  0  0  0  0  0
   10.0160    2.8110   24.2690 S   0  0  0  0  0  0  0  0  0  0  0  0
    8.7510    3.0880   23.2010 N   0  0  0  0  0  0  0  0  0  0  0  0
   11.1430    2.4770   23.4420 O   0  0  0  0  0  0  0  0  0  0  0  0
    9.9830    4.0000   25.0910 O   0  0  0  0  0  0  0  0  0  0  0  0
    8.6350   -1.4380   21.7160 C   0  0  0  0  0  0  0  0  0  0  0  0
    7.5190   -1.0060   20.9690 C   0  0  0  0  0  0  0  0  0  0  0  0
  1  2  1  0
  2  3  2  0
  2  4  1  0
  4  5  1  0
  5  6  1  0
  6  7  1  0
  7  8  1  0
  8  9  1  0
  9 10  2  0
 10 11  1  0
 11 12  2  0
 12 13  1  0
  9 14  1  0
 13 14  2  0
 14 15  1  0
 15 16  1  0
 16 17  1  0
 17 18  1  0
 17 19  2  0
 17 20  2  0
  7 21  1  0
  4 22  1  0
 21 22  1  0
M  END
