MIH-UNI-e573136b-2-chloroacetamide
     RDKit          3D

 26 29  0  0  0  0  0  0  0  0999 V2000
    7.5380   -3.7010   19.8150 C   0  0  0  0  0  0  0  0  0  0  0  0
    6.2680   -3.0620   20.0630 C   0  0  0  0  0  0  0  0  0  0  0  0
    5.3460   -3.3100   19.2600 O   0  0  0  0  0  0  0  0  0  0  0  0
    6.1870   -2.2920   21.2430 N   0  0  0  0  0  0  0  0  0  0  0  0
    6.2700   -3.0750   22.4840 C   0  0  0  0  0  0  0  0  0  0  0  0
    7.7050   -3.3560   22.8610 C   0  0  0  0  0  0  0  0  0  0  0  0
    8.5870   -2.2910   22.7230 N   0  0  0  0  0  0  0  0  0  0  0  0
    9.7310   -2.2370   23.6970 C   0  0  0  0  0  0  0  0  0  0  0  0
   10.8030   -1.4210   23.3490 C   0  0  0  0  0  0  0  0  0  0  0  0
   11.9650   -1.8680   22.6990 C   0  0  0  0  0  0  0  0  0  0  0  0
   12.9910   -0.9620   22.3940 C   0  0  0  0  0  0  0  0  0  0  0  0
   12.8330    0.3860   22.7380 C   0  0  0  0  0  0  0  0  0  0  0  0
   11.6030    0.9070   23.4230 C   0  0  0  0  0  0  0  0  0  0  0  0
   11.4530    2.3810   23.7550 C   0  0  0  0  0  0  0  0  0  0  0  0
   10.2750    2.8210   24.4160 C   0  0  0  0  0  0  0  0  0  0  0  0
    9.2950    1.8840   24.7450 C   0  0  0  0  0  0  0  0  0  0  0  0
    9.4610    0.5510   24.4150 C   0  0  0  0  0  0  0  0  0  0  0  0
   10.5800    0.0300   23.7550 C   0  0  0  0  0  0  0  0  0  0  0  0
    8.3600   -1.4420   21.6000 C   0  0  0  0  0  0  0  0  0  0  0  0
    6.9560   -1.0790   21.4840 C   0  0  1  0  0  0  0  0  0  0  0  0
    6.5890   -0.3190   20.3940 C   0  0  0  0  0  0  0  0  0  0  0  0
    5.5130    0.6980   20.5980 C   0  0  0  0  0  0  0  0  0  0  0  0
    5.0850    1.4820   19.4240 C   0  0  0  0  0  0  0  0  0  0  0  0
    5.7430    1.2180   18.1420 C   0  0  0  0  0  0  0  0  0  0  0  0
    6.7280    0.3030   17.9580 N   0  0  0  0  0  0  0  0  0  0  0  0
    7.1180   -0.4380   19.0900 C   0  0  0  0  0  0  0  0  0  0  0  0
  1  2  1  0
  2  3  2  0
  2  4  1  0
  4  5  1  0
  5  6  1  0
  6  7  1  0
  7  8  1  0
  8  9  1  0
  9 10  2  0
 10 11  1  0
 11 12  2  0
 12 13  1  0
 13 14  1  0
 14 15  2  0
 15 16  1  0
 16 17  2  0
  9 18  1  0
 13 18  2  0
 17 18  1  0
  7 19  1  0
  4 20  1  0
 19 20  1  0
 20 21  1  6
 21 22  2  0
 22 23  1  0
 23 24  2  0
 24 25  1  0
 21 26  1  0
 25 26  2  0
M  END
