MIH-UNI-e573136b-3-vinylsulfonamide
     RDKit          3D

 29 32  0  0  0  0  0  0  0  0999 V2000
    7.6400   -3.6480   20.1570 C   0  0  0  0  0  0  0  0  0  0  0  0
    7.1690   -2.6550   19.1260 C   0  0  0  0  0  0  0  0  0  0  0  0
    5.4650   -2.2960   19.4220 S   0  0  0  0  0  0  0  0  0  0  0  0
    4.7760   -3.5790   19.4920 O   0  0  0  0  0  0  0  0  0  0  0  0
    5.0710   -1.3230   18.4380 O   0  0  0  0  0  0  0  0  0  0  0  0
    5.4390   -1.5430   20.9580 N   0  0  0  0  0  0  0  0  0  0  0  0
    5.4530   -2.5010   22.1100 C   0  0  0  0  0  0  0  0  0  0  0  0
    6.7080   -2.4520   22.9810 C   0  0  0  0  0  0  0  0  0  0  0  0
    7.5190   -1.3340   22.8740 N   0  0  0  0  0  0  0  0  0  0  0  0
    8.3790   -0.8580   23.9930 C   0  0  0  0  0  0  0  0  0  0  0  0
    9.7550   -1.0100   23.7970 C   0  0  0  0  0  0  0  0  0  0  0  0
   10.4340   -2.2340   23.8650 C   0  0  0  0  0  0  0  0  0  0  0  0
   11.8090   -2.3320   23.6700 C   0  0  0  0  0  0  0  0  0  0  0  0
   12.5800   -1.2060   23.3890 C   0  0  0  0  0  0  0  0  0  0  0  0
   11.9110    0.1470   23.2970 C   0  0  0  0  0  0  0  0  0  0  0  0
   12.6860    1.4010   22.9950 C   0  0  0  0  0  0  0  0  0  0  0  0
   12.0460    2.6420   22.9150 C   0  0  0  0  0  0  0  0  0  0  0  0
   10.6770    2.7760   23.1110 C   0  0  0  0  0  0  0  0  0  0  0  0
    9.9720    1.6010   23.3900 C   0  0  0  0  0  0  0  0  0  0  0  0
   10.5190    0.2930   23.4920 C   0  0  0  0  0  0  0  0  0  0  0  0
    7.4960   -0.7130   21.6310 C   0  0  0  0  0  0  0  0  0  0  0  0
    6.1630   -0.2830   21.2520 C   0  0  1  0  0  0  0  0  0  0  0  0
    6.2430    0.6180   20.1300 C   0  0  0  0  0  0  0  0  0  0  0  0
    5.0700    1.5590   19.8630 C   0  0  0  0  0  0  0  0  0  0  0  0
    5.5910    1.3860   21.1800 C   0  0  0  0  0  0  0  0  0  0  0  0
    6.7460    0.4780   20.9960 C   0  0  0  0  0  0  0  0  0  0  0  0
    7.0950   -0.0390   19.5650 C   0  0  0  0  0  0  0  0  0  0  0  0
    6.4330    0.2500   18.3280 N   0  0  0  0  0  0  0  0  0  0  0  0
    5.3480    1.1100   18.4980 C   0  0  0  0  0  0  0  0  0  0  0  0
  1  2  1  0
  3  2  1  0
  3  4  2  0
  3  5  2  0
  3  6  1  0
  6  7  1  0
  7  8  1  0
  8  9  1  0
  9 10  1  0
 10 11  1  0
 11 12  2  0
 12 13  1  0
 13 14  2  0
 14 15  1  0
 15 16  1  0
 16 17  2  0
 17 18  1  0
 18 19  2  0
 11 20  1  0
 15 20  2  0
 19 20  1  0
  9 21  1  0
  6 22  1  0
 21 22  1  0
 22 23  1  6
 23 24  1  0
 24 25  2  0
 25 26  1  0
 26 27  2  0
 27 28  1  0
 24 29  1  0
 28 29  2  0
M  END
