MIK-MCD-9143301b-1-acrylamide
     RDKit          3D

 42 46  0  0  0  0  0  0  0  0999 V2000
    7.4260   -3.1260   18.9830 C   0  0  0  0  0  0  0  0  0  0  0  0
    7.0020   -3.2140   20.4120 C   0  0  0  0  0  0  0  0  0  0  0  0
    5.9400   -4.2510   20.6030 C   0  0  0  0  0  0  0  0  0  0  0  0
    5.1170   -4.6040   19.7740 O   0  0  0  0  0  0  0  0  0  0  0  0
    5.9380   -4.7360   21.8580 N   0  0  0  0  0  0  0  0  0  0  0  0
    7.0870   -5.2770   22.5640 C   0  0  0  0  0  0  0  0  0  0  0  0
    6.7050   -5.2770   24.0130 C   0  0  0  0  0  0  0  0  0  0  0  0
    5.3780   -5.3860   24.3910 N   0  0  0  0  0  0  0  0  0  0  0  0
    4.8130   -5.5340   25.9940 S   0  0  0  0  0  0  0  0  0  0  0  0
    5.8670   -5.0810   26.8650 O   0  0  0  0  0  0  0  0  0  0  0  0
    4.1740   -6.8240   26.1260 O   0  0  0  0  0  0  0  0  0  0  0  0
    3.5210   -4.3000   25.9510 C   0  0  0  0  0  0  0  0  0  0  0  0
    2.1810   -4.7110   25.7940 C   0  0  0  0  0  0  0  0  0  0  0  0
    1.1840   -3.7290   25.7590 C   0  0  0  0  0  0  0  0  0  0  0  0
    1.3930   -2.2620   25.8740 C   0  0  0  0  0  0  0  0  0  0  0  0
    2.8230   -1.7840   26.0420 C   0  0  0  0  0  0  0  0  0  0  0  0
    3.1330   -0.4850   26.1510 F   0  0  0  0  0  0  0  0  0  0  0  0
    3.8690   -2.9170   26.0730 C   0  0  0  0  0  0  0  0  0  0  0  0
    4.5520   -4.5280   23.5710 C   0  0  0  0  0  0  0  0  0  0  0  0
    5.3270   -3.7760   22.6990 C   0  0  1  0  0  0  0  0  0  0  0  0
    6.3240   -2.8490   23.1600 C   0  0  2  0  0  0  0  0  0  0  0  0
    6.8760   -2.9460   24.4430 C   0  0  0  0  0  0  0  0  0  0  0  0
    8.1230   -2.2980   24.5040 C   0  0  0  0  0  0  0  0  0  0  0  0
    8.0830   -1.0120   23.9340 C   0  0  1  0  0  0  0  0  0  0  0  0
    8.8330   -0.8080   22.7100 N   0  0  0  0  0  0  0  0  0  0  0  0
    8.2660   -0.0940   21.5950 C   0  0  0  0  0  0  0  0  0  0  0  0
    8.8470    1.1880   21.1910 O   0  0  0  0  0  0  0  0  0  0  0  0
    7.2170   -0.5560   20.9360 N   0  0  0  0  0  0  0  0  0  0  0  0
    6.4240    0.1590   19.9630 C   0  0  0  0  0  0  0  0  0  0  0  0
    5.2860    0.8170   20.2330 C   0  0  0  0  0  0  0  0  0  0  0  0
    4.5850    1.5250   19.0930 C   0  0  0  0  0  0  0  0  0  0  0  0
    5.1930    1.4240   17.8690 C   0  0  0  0  0  0  0  0  0  0  0  0
    6.3240    0.7530   17.6420 N   0  0  0  0  0  0  0  0  0  0  0  0
    6.8980    0.1470   18.6750 C   0  0  0  0  0  0  0  0  0  0  0  0
   10.1550   -0.4750   22.8420 C   0  0  0  0  0  0  0  0  0  0  0  0
   11.2110   -1.2310   22.2260 C   0  0  0  0  0  0  0  0  0  0  0  0
   12.6970   -0.9680   22.2620 C   0  0  0  0  0  0  0  0  0  0  0  0
   12.9780    0.3360   23.1110 C   0  0  0  0  0  0  0  0  0  0  0  0
   11.8060    1.1460   23.7850 C   0  0  0  0  0  0  0  0  0  0  0  0
   10.4830    0.5740   23.5300 C   0  0  0  0  0  0  0  0  0  0  0  0
    6.6100   -0.4990   23.7770 C   0  0  0  0  0  0  0  0  0  0  0  0
    5.7330   -1.4290   23.1730 C   0  0  0  0  0  0  0  0  0  0  0  0
  1  2  1  0
  2  3  1  0
  3  4  2  0
  3  5  1  0
  5  6  1  0
  6  7  1  0
  7  8  1  0
  8  9  1  0
  9 10  2  0
  9 11  2  0
  9 12  1  0
 12 13  2  0
 13 14  1  0
 14 15  2  0
 15 16  1  0
 16 17  1  0
 12 18  1  0
 16 18  2  0
  8 19  1  0
  5 20  1  0
 20 19  1  1
 20 21  1  0
 21 22  1  1
 22 23  1  0
 23 24  1  0
 24 25  1  6
 25 26  1  0
 26 27  2  0
 26 28  1  0
 28 29  1  0
 29 30  2  0
 30 31  1  0
 31 32  2  0
 32 33  1  0
 29 34  1  0
 33 34  2  0
 25 35  1  0
 35 36  2  0
 36 37  1  0
 37 38  2  0
 38 39  1  0
 35 40  1  0
 39 40  2  0
 24 41  1  0
 21 42  1  0
 41 42  1  0
M  END
