MIK-CHE-f7b1aeed-1
     RDKit          3D

 20 21  0  0  0  0  0  0  0  0999 V2000
   13.0950   -1.7460   21.5790 C   0  0  0  0  0  0  0  0  0  0  0  0
   12.0100   -1.1880   22.4730 C   0  0  1  0  0  0  0  0  0  0  0  0
   11.7050   -2.1460   23.4010 C   0  0  0  0  0  0  0  0  0  0  0  0
   10.3160   -2.3310   23.5610 O   0  0  0  0  0  0  0  0  0  0  0  0
    9.5790   -1.2520   24.1290 C   0  0  2  0  0  0  0  0  0  0  0  0
    8.8020   -0.7790   23.0710 C   0  0  0  0  0  0  0  0  0  0  0  0
    8.8450   -1.4090   21.8280 C   0  0  0  0  0  0  0  0  0  0  0  0
    8.0840   -1.0310   20.7190 C   0  0  0  0  0  0  0  0  0  0  0  0
    7.1280    0.1210   20.7780 C   0  0  0  0  0  0  0  0  0  0  0  0
    6.1700    0.5320   19.3280 S   0  0  2  0  0  0  0  0  0  0  0  0
    5.3740   -0.9430   18.7650 C   0  0  0  0  0  0  0  0  0  0  0  0
    7.0910    1.0330   18.2190 N   0  0  0  0  0  0  0  0  0  0  0  0
    5.1820    1.5410   19.6510 O   0  0  0  0  0  0  0  0  0  0  0  0
    7.0530    0.7990   21.9960 C   0  0  0  0  0  0  0  0  0  0  0  0
    7.9250    0.3250   23.1790 C   0  0  0  0  0  0  0  0  0  0  0  0
   10.4580   -0.1480   24.7680 C   0  0  0  0  0  0  0  0  0  0  0  0
   11.4060    0.6240   23.9590 N   0  0  0  0  0  0  0  0  0  0  0  0
   10.8880    1.9080   23.6690 C   0  0  0  0  0  0  0  0  0  0  0  0
   12.3700    0.0230   23.0250 C   0  0  0  0  0  0  0  0  0  0  0  0
   13.4390    0.5420   22.7430 O   0  0  0  0  0  0  0  0  0  0  0  0
  2  1  1  1
  2  3  1  0
  3  4  1  0
  4  5  1  0
  5  6  1  6
  6  7  2  0
  7  8  1  0
  8  9  2  0
  9 10  1  0
 10 11  1  6
 10 12  2  0
 10 13  2  0
  9 14  1  0
  6 15  1  0
 14 15  2  0
  5 16  1  0
 16 17  1  0
 17 18  1  0
  2 19  1  0
 17 19  1  0
 19 20  2  0
M  END
