
     RDKit          3D

 16 17  0  0  0  0  0  0  0  0999 V2000
    6.9370   -2.9310   21.0990 N   0  0  0  0  0  0  0  0  0  0  0  0
    7.4110   -2.5510   18.6880 C   0  0  0  0  0  0  0  0  0  0  0  0
    5.8640   -4.1400   19.5530 O   0  0  0  0  0  0  0  0  0  0  0  0
    6.6860   -3.2700   19.8160 C   0  0  0  0  0  0  0  0  0  0  0  0
    7.8900   -2.7850   23.7830 N   0  0  0  0  0  0  0  0  0  0  0  0
    6.1370   -2.1610   25.0570 O   0  0  0  0  0  0  0  0  0  0  0  0
    6.2820   -3.6610   22.1890 C   0  0  0  0  0  0  0  0  0  0  0  0
    8.4220    0.0140   25.2950 O   0  0  0  0  0  0  0  0  0  0  0  0
    7.2570   -4.0100   23.2930 C   0  0  0  0  0  0  0  0  0  0  0  0
    8.6550   -2.1390   22.7140 C   0  0  0  0  0  0  0  0  0  0  0  0
    7.7500   -1.7910   21.5470 C   0  0  0  0  0  0  0  0  0  0  0  0
    7.3370   -2.0870   24.8070 C   0  0  0  0  0  0  0  0  0  0  0  0
    8.1790   -1.2840   25.6610 C   0  0  0  0  0  0  0  0  0  0  0  0
    8.8100   -1.5640   26.8230 C   0  0  0  0  0  0  0  0  0  0  0  0
    9.4960   -0.3910   27.2170 C   0  0  0  0  0  0  0  0  0  0  0  0
    9.2320    0.5510   26.2490 C   0  0  0  0  0  0  0  0  0  0  0  0
  1  4  1  0
  1  7  1  0
  1 11  1  0
  2  4  1  0
  3  4  2  0
  5  9  1  0
  5 10  1  0
  5 12  1  0
  6 12  2  0
  7  9  1  0
  8 13  1  0
  8 16  1  0
 10 11  1  0
 12 13  1  0
 13 14  2  0
 14 15  1  0
 15 16  2  0
M  END
