
     RDKit          3D

 14 13  0  0  0  0  0  0  0  0999 V2000
    2.0580   -8.0370   24.6640 C   0  0  0  0  0  0  0  0  0  0  0  0
    1.9950   -5.4630   23.0470 N   0  0  0  0  0  0  0  0  0  0  0  0
    4.4360   -7.6850   24.6970 O   0  0  0  0  0  0  0  0  0  0  0  0
    3.1790   -7.0320   24.5090 C   0  0  1  0  0  0  0  0  0  0  0  0
    5.4270   -6.0050   22.2030 N   0  0  0  0  0  0  0  0  0  0  0  0
    0.7550   -6.8890   21.8320 O   0  0  0  0  0  0  0  0  0  0  0  0
    3.1700   -6.3190   23.1420 C   0  0  2  0  0  0  0  0  0  0  0  0
    4.4680   -4.3310   23.3760 O   0  0  0  0  0  0  0  0  0  0  0  0
    0.8590   -5.8280   22.4460 C   0  0  0  0  0  0  0  0  0  0  0  0
   -0.2860   -4.8690   22.5470 C   0  0  0  0  0  0  0  0  0  0  0  0
    4.4250   -5.4690   22.9140 C   0  0  0  0  0  0  0  0  0  0  0  0
    6.6560   -5.2730   21.8920 C   0  0  0  0  0  0  0  0  0  0  0  0
    6.7670   -4.8280   20.4760 C   0  0  0  0  0  0  0  0  0  0  0  0
    5.9520   -5.3030   19.5930 C   0  0  0  0  0  0  0  0  0  0  0  0
  4  1  1  6
  7  2  1  1
  2  9  1  0
  3  4  1  0
  4  7  1  0
  5 11  1  0
  5 12  1  0
  6  9  2  0
  7 11  1  0
  8 11  2  0
  9 10  1  0
 12 13  2  3
 13 14  1  0
M  END
