
     RDKit          3D

 17 18  0  0  0  0  0  0  0  0999 V2000
   22.4740  -22.5070   19.8360 N   0  0  0  0  0  0  0  0  0  0  0  0
   24.8960  -19.9010   19.9700 C   0  0  0  0  0  0  0  0  0  0  0  0
   23.7980  -20.7320   20.2510 O   0  0  0  0  0  0  0  0  0  0  0  0
   23.5700  -21.8020   19.4120 C   0  0  0  0  0  0  0  0  0  0  0  0
   21.1140  -24.9850   17.4770 N   0  0  0  0  0  0  0  0  0  0  0  0
   24.2490  -22.0500   18.4380 O   0  0  0  0  0  0  0  0  0  0  0  0
   22.0280  -23.6430   19.1860 C   0  0  0  0  0  0  0  0  0  0  0  0
   21.2920  -25.8340   18.4580 C   0  0  0  0  0  0  0  0  0  0  0  0
   20.9070  -27.2570   18.3710 C   0  0  0  0  0  0  0  0  0  0  0  0
   21.5290  -23.7040   17.8770 C   0  0  0  0  0  0  0  0  0  0  0  0
   21.3360  -22.6100   16.9180 C   0  0  0  0  0  0  0  0  0  0  0  0
   20.7840  -21.3960   17.3440 C   0  0  0  0  0  0  0  0  0  0  0  0
   20.5170  -20.3820   16.4180 C   0  0  0  0  0  0  0  0  0  0  0  0
   20.8060  -20.5770   15.0660 C   0  0  0  0  0  0  0  0  0  0  0  0
   21.3690  -21.7900   14.6400 C   0  0  0  0  0  0  0  0  0  0  0  0
   21.6380  -22.8090   15.5630 C   0  0  0  0  0  0  0  0  0  0  0  0
   21.9820  -25.1830   19.9300 S   0  0  0  0  0  0  0  0  0  0  0  0
  1  4  1  0
  1  7  1  0
  2  3  1  0
  3  4  1  0
  4  6  2  0
  5  8  2  0
  5 10  1  0
  7 10  2  0
  7 17  1  0
  8  9  1  0
  8 17  1  0
 10 11  1  0
 11 12  2  0
 11 16  1  0
 12 13  1  0
 13 14  2  0
 14 15  1  0
 15 16  2  0
M  END
