
     RDKit          3D

 15 16  0  0  0  0  0  0  0  0999 V2000
    8.3210   -1.3510   20.7970 C   0  0  0  0  0  0  0  0  0  0  0  0
    7.3620   -2.0310   19.9170 N   0  0  0  0  0  0  0  0  0  0  0  0
    7.2860   -1.6460   18.4960 C   0  0  0  0  0  0  0  0  0  0  0  0
    6.4430   -0.3560   18.3950 C   0  0  0  0  0  0  0  0  0  0  0  0
    5.4660    0.0450   19.3030 C   0  0  0  0  0  0  0  0  0  0  0  0
    4.9620    1.2370   18.8590 C   0  0  0  0  0  0  0  0  0  0  0  0
    3.8620    2.0560   19.5360 C   0  0  0  0  0  0  0  0  0  0  0  0
    5.6020    1.5440   17.7420 O   0  0  0  0  0  0  0  0  0  0  0  0
    6.5230    0.5870   17.4450 N   0  0  0  0  0  0  0  0  0  0  0  0
    6.4780   -3.0650   20.4600 C   0  0  0  0  0  0  0  0  0  0  0  0
    5.7050   -3.6090   19.7340 O   0  0  0  0  0  0  0  0  0  0  0  0
    6.5520   -3.4250   21.8840 N   0  0  0  0  0  0  0  0  0  0  0  0
    5.6750   -4.4640   22.4420 C   0  0  2  0  0  0  0  0  0  0  0  0
    6.3670   -5.4690   23.3670 C   0  0  0  0  0  0  0  0  0  0  0  0
    5.9460   -5.8890   21.9520 C   0  0  0  0  0  0  0  0  0  0  0  0
  1  2  1  0
  2  3  1  0
  2 10  1  0
  3  4  1  0
  4  5  1  0
  4  9  2  0
  5  6  2  0
  6  7  1  0
  6  8  1  0
  8  9  1  0
 10 11  2  0
 10 12  1  0
 13 12  1  6
 13 14  1  0
 13 15  1  0
 14 15  1  0
M  END
