
     RDKit          3D

 15 15  0  0  0  0  0  0  0  0999 V2000
    5.5660  -30.1070   10.8590 C   0  0  0  0  0  0  0  0  0  0  0  0
    5.0320  -29.9170    9.4380 C   0  0  0  0  0  0  0  0  0  0  0  0
    4.6860  -30.8800    8.8430 O   0  0  0  0  0  0  0  0  0  0  0  0
    4.9050  -28.6080    8.8010 N   0  0  0  0  0  0  0  0  0  0  0  0
    5.3310  -27.3890    9.4750 C   0  0  0  0  0  0  0  0  0  0  0  0
    4.3810  -26.2060    9.4330 C   0  0  0  0  0  0  0  0  0  0  0  0
    3.9320  -25.6290   10.6110 C   0  0  0  0  0  0  0  0  0  0  0  0
    3.0920  -24.5290   10.5540 C   0  0  0  0  0  0  0  0  0  0  0  0
    2.7180  -24.0100    9.3250 C   0  0  0  0  0  0  0  0  0  0  0  0
    3.1780  -24.5820    8.1620 C   0  0  0  0  0  0  0  0  0  0  0  0
    4.0100  -25.6740    8.2210 C   0  0  0  0  0  0  0  0  0  0  0  0
    1.6200  -22.5750    9.1960 S   0  0  2  0  0  0  0  0  0  0  0  0
    1.7980  -21.6540   10.3150 O   0  0  0  0  0  0  0  0  0  0  0  0
    0.2150  -22.9660    9.3350 O   0  0  0  0  0  0  0  0  0  0  0  0
    1.8840  -21.7410    7.7340 N   0  0  0  0  0  0  0  0  0  0  0  0
  1  2  1  0
  2  3  2  0
  2  4  1  0
  4  5  1  0
  5  6  1  0
  6  7  2  0
  6 11  1  0
  7  8  1  0
  8  9  2  0
  9 10  1  0
  9 12  1  0
 10 11  2  0
 12 13  2  0
 12 14  2  0
 12 15  1  6
M  END
