
     RDKit          3D

 20 22  0  0  0  0  0  0  0  0999 V2000
    6.8350   -2.1630   20.8120 N   0  0  0  0  0  0  0  0  0  0  0  0
    8.3020   -3.0200   19.1550 C   0  0  0  0  0  0  0  0  0  0  0  0
    5.9410   -3.3830   19.1190 O   0  0  0  0  0  0  0  0  0  0  0  0
    6.9090   -2.8730   19.6740 C   0  0  0  0  0  0  0  0  0  0  0  0
    8.7520   -2.0810   22.9630 N   0  0  0  0  0  0  0  0  0  0  0  0
    7.7860   -1.0540   20.9410 C   0  0  0  0  0  0  0  0  0  0  0  0
    9.0520   -1.4400   21.6810 C   0  0  0  0  0  0  0  0  0  0  0  0
    9.9860   -2.4160   23.6840 C   0  0  0  0  0  0  0  0  0  0  0  0
   11.0670   -1.3820   23.4820 C   0  0  0  0  0  0  0  0  0  0  0  0
   12.0880   -1.5930   22.5910 C   0  0  0  0  0  0  0  0  0  0  0  0
   13.0880   -0.6310   22.3700 C   0  0  0  0  0  0  0  0  0  0  0  0
   13.0470    0.5540   23.0260 C   0  0  0  0  0  0  0  0  0  0  0  0
   12.0030    0.8380   23.9380 C   0  0  0  0  0  0  0  0  0  0  0  0
   11.9400    2.0720   24.6210 C   0  0  0  0  0  0  0  0  0  0  0  0
   10.9270    2.3380   25.4850 C   0  0  0  0  0  0  0  0  0  0  0  0
    9.9380    1.3790   25.7390 C   0  0  0  0  0  0  0  0  0  0  0  0
    9.9660    0.1780   25.0970 C   0  0  0  0  0  0  0  0  0  0  0  0
   10.9950   -0.1390   24.1720 C   0  0  0  0  0  0  0  0  0  0  0  0
    7.9360   -3.2710   22.7290 C   0  0  0  0  0  0  0  0  0  0  0  0
    6.6290   -2.9060   22.0580 C   0  0  0  0  0  0  0  0  0  0  0  0
  1  4  1  0
  1  6  1  0
  1 20  1  0
  2  4  1  0
  3  4  2  0
  5  7  1  0
  5  8  1  0
  5 19  1  0
  6  7  1  0
  8  9  1  0
  9 10  2  0
  9 18  1  0
 10 11  1  0
 11 12  2  0
 12 13  1  0
 13 14  1  0
 13 18  2  0
 14 15  2  0
 15 16  1  0
 16 17  2  0
 17 18  1  0
 19 20  1  0
M  END
