
     RDKit          3D

 15 16  0  0  0  0  0  0  0  0999 V2000
    6.9840   -2.3180   20.7980 N   0  0  0  0  0  0  0  0  0  0  0  0
    7.2570   -2.4400   18.3430 C   0  0  0  0  0  0  0  0  0  0  0  0
    5.7580   -3.7770   19.6170 O   0  0  0  0  0  0  0  0  0  0  0  0
    6.6040   -2.8900   19.6370 C   0  0  0  0  0  0  0  0  0  0  0  0
    8.7050   -2.0670   23.0770 N   0  0  0  0  0  0  0  0  0  0  0  0
    6.5670   -2.8120   22.1080 C   0  0  0  0  0  0  0  0  0  0  0  0
    7.7790   -3.1940   22.9250 C   0  0  0  0  0  0  0  0  0  0  0  0
    9.8790   -2.4690   23.8520 C   0  0  0  0  0  0  0  0  0  0  0  0
   10.9560   -1.4150   23.8450 C   0  0  0  0  0  0  0  0  0  0  0  0
   12.0580   -1.3440   22.9400 C   0  0  0  0  0  0  0  0  0  0  0  0
   12.7640   -0.1960   23.0300 C   0  0  0  0  0  0  0  0  0  0  0  0
   10.9860   -0.3280   24.7110 C   0  0  0  0  0  0  0  0  0  0  0  0
    9.0890   -1.5770   21.7470 C   0  0  0  0  0  0  0  0  0  0  0  0
    7.8780   -1.1750   20.9390 C   0  0  0  0  0  0  0  0  0  0  0  0
   12.1240    0.8270   24.2110 S   0  0  0  0  0  0  0  0  0  0  0  0
  1  4  1  0
  1  6  1  0
  1 14  1  0
  2  4  1  0
  3  4  2  0
  5  7  1  0
  5  8  1  0
  5 13  1  0
  6  7  1  0
  8  9  1  0
  9 10  1  0
  9 12  2  0
 10 11  2  0
 11 15  1  0
 12 15  1  0
 13 14  1  0
M  END
