
     RDKit          3D

 13 14  0  0  0  0  0  0  0  0999 V2000
    4.5480    8.1090   10.7580 N   0  0  0  0  0  0  0  0  0  0  0  0
    1.9110    9.9650    9.5920 C   0  0  0  0  0  0  0  0  0  0  0  0
    1.5720    9.2670   10.7490 O   0  0  0  0  0  0  0  0  0  0  0  0
    3.2760    9.4670    9.0850 C   0  0  2  0  0  0  0  0  0  0  0  0
    4.2520    9.3570   10.2390 C   0  0  0  0  0  0  0  0  0  0  0  0
    5.4540    8.0610   11.7720 C   0  0  0  0  0  0  0  0  0  0  0  0
    6.0830    9.2010   12.3040 C   0  0  0  0  0  0  0  0  0  0  0  0
    5.7590   10.4480   11.7810 C   0  0  0  0  0  0  0  0  0  0  0  0
    4.8400   10.5400   10.7490 C   0  0  0  0  0  0  0  0  0  0  0  0
    3.8080   10.3840    7.9770 C   0  0  0  0  0  0  0  0  0  0  0  0
    3.3120    9.8040    6.6500 C   0  0  0  0  0  0  0  0  0  0  0  0
    2.6230    8.4870    6.9730 C   0  0  0  0  0  0  0  0  0  0  0  0
    3.1010    8.1120    8.3750 C   0  0  0  0  0  0  0  0  0  0  0  0
  1  5  2  0
  1  6  1  0
  2  3  1  0
  4  2  1  1
  4  5  1  0
  4 10  1  0
  4 13  1  0
  5  9  1  0
  6  7  2  0
  7  8  1  0
  8  9  2  0
 10 11  1  0
 11 12  1  0
 12 13  1  0
M  END
