NAA-THE-6df3c070-1
     RDKit          3D

 12 12  0  0  0  0  0  0  0  0999 V2000
   13.0210   -0.7410   23.4780 O   0  0  0  0  0  0  0  0  0  0  0  0
   12.0190   -0.3560   24.0530 C   0  0  0  0  0  0  0  0  0  0  0  0
   11.5050   -1.0790   25.0570 O   0  0  0  0  0  0  0  0  0  0  0  0
   11.3360    0.7610   23.7660 C   0  0  0  0  0  0  0  0  0  0  0  0
    9.8870    0.8780   24.0920 C   0  0  0  0  0  0  0  0  0  0  0  0
    9.1170    2.1500   23.7380 C   0  0  1  0  0  0  0  0  0  0  0  0
    8.6480    2.7900   24.9300 O   0  0  0  0  0  0  0  0  0  0  0  0
    9.8980    3.0820   22.9960 C   0  0  1  0  0  0  0  0  0  0  0  0
    9.5120    4.3640   23.5260 O   0  0  0  0  0  0  0  0  0  0  0  0
   11.3040    3.0770   23.1190 C   0  0  2  0  0  0  0  0  0  0  0  0
   11.8500    3.9250   22.1060 O   0  0  0  0  0  0  0  0  0  0  0  0
   12.0430    1.8890   23.1060 C   0  0  0  0  0  0  0  0  0  0  0  0
  1  2  2  0
  2  3  1  0
  2  4  1  0
  4  5  2  0
  5  6  1  0
  6  7  1  1
  6  8  1  0
  8  9  1  1
  8 10  1  0
 10 11  1  6
  4 12  1  0
 10 12  1  0
M  END
