NAU-LAT-42d4957e-3
     RDKit          3D

 23 25  0  0  0  0  0  0  0  0999 V2000
   11.4380    6.1370   23.3260 N   0  0  0  0  0  0  0  0  0  0  0  0
   10.3260    4.9840   23.8270 S   0  0  0  0  0  0  0  0  0  0  0  0
   10.1260    5.1620   25.2480 O   0  0  0  0  0  0  0  0  0  0  0  0
    9.1960    5.0950   22.9390 O   0  0  0  0  0  0  0  0  0  0  0  0
   11.1240    3.3900   23.5660 C   0  0  0  0  0  0  0  0  0  0  0  0
   12.4300    3.3520   22.8720 C   0  0  0  0  0  0  0  0  0  0  0  0
   13.0390    2.1430   22.6900 C   0  0  0  0  0  0  0  0  0  0  0  0
   12.4450    0.9340   23.1380 C   0  0  0  0  0  0  0  0  0  0  0  0
   11.2260    0.9310   23.7900 C   0  0  0  0  0  0  0  0  0  0  0  0
   10.5710    2.1760   24.0000 C   0  0  0  0  0  0  0  0  0  0  0  0
   10.6910   -0.3090   24.2290 N   0  0  0  0  0  0  0  0  0  0  0  0
    9.3400   -0.6390   24.2180 C   0  0  0  0  0  0  0  0  0  0  0  0
    8.1320   -0.6880   24.3770 O   0  0  0  0  0  0  0  0  0  0  0  0
    9.1630    0.4440   24.9740 N   0  0  0  0  0  0  0  0  0  0  0  0
    8.0680    1.1660   24.5030 C   0  0  0  0  0  0  0  0  0  0  0  0
    7.3040    1.7600   25.5110 C   0  0  0  0  0  0  0  0  0  0  0  0
    6.9730    0.7760   26.5600 C   0  0  0  0  0  0  0  0  0  0  0  0
    6.8480    1.4140   27.6000 O   0  0  0  0  0  0  0  0  0  0  0  0
    7.9400   -0.2000   26.8030 C   0  0  0  0  0  0  0  0  0  0  0  0
    9.1720    0.2820   26.3790 C   0  0  0  0  0  0  0  0  0  0  0  0
   11.5510   -1.4820   24.0330 C   0  0  0  0  0  0  0  0  0  0  0  0
   12.2810   -1.4360   22.8460 C   0  0  0  0  0  0  0  0  0  0  0  0
   13.1900   -0.3770   22.8860 C   0  0  0  0  0  0  0  0  0  0  0  0
  2  1  1  0
  2  3  2  0
  2  4  2  0
  2  5  1  0
  5  6  2  0
  6  7  1  0
  7  8  2  0
  8  9  1  0
  5 10  1  0
  9 10  2  0
  9 11  1  0
 11 12  1  0
 12 13  2  0
 12 14  1  0
 14 15  1  0
 15 16  1  0
 16 17  1  0
 17 18  1  0
 17 19  1  0
 14 20  1  0
 19 20  1  0
 11 21  1  0
 21 22  1  0
  8 23  1  0
 22 23  1  0
M  END
