NAU-LAT-445f63e5-6
     RDKit          3D

 23 25  0  0  0  0  0  0  0  0999 V2000
    8.9180    0.8260   21.4110 O   0  0  0  0  0  0  0  0  0  0  0  0
    8.4740   -0.2970   21.6090 C   0  0  0  0  0  0  0  0  0  0  0  0
    7.2370   -0.8660   21.0250 N   0  0  0  0  0  0  0  0  0  0  0  0
    6.5260   -0.0990   20.0490 C   0  0  0  0  0  0  0  0  0  0  0  0
    5.2590    0.6680   20.4160 C   0  0  0  0  0  0  0  0  0  0  0  0
    4.5550    1.4740   19.3060 C   0  0  0  0  0  0  0  0  0  0  0  0
    5.1880    1.4460   17.9110 C   0  0  0  0  0  0  0  0  0  0  0  0
    6.4090    0.6510   17.7240 N   0  0  0  0  0  0  0  0  0  0  0  0
    6.9870   -0.0520   18.7540 C   0  0  0  0  0  0  0  0  0  0  0  0
    9.0760   -1.2330   22.4370 N   0  0  0  0  0  0  0  0  0  0  0  0
   10.2970   -1.1480   23.0590 C   0  0  0  0  0  0  0  0  0  0  0  0
   10.4870   -2.3990   23.8630 C   0  0  0  0  0  0  0  0  0  0  0  0
    9.3370   -2.5700   24.8250 C   0  0  0  0  0  0  0  0  0  0  0  0
    9.2890   -1.4240   25.8250 C   0  0  0  0  0  0  0  0  0  0  0  0
    8.1820   -1.4550   26.8770 C   0  0  0  0  0  0  0  0  0  0  0  0
    7.1930   -2.6190   26.8760 C   0  0  0  0  0  0  0  0  0  0  0  0
    7.3160   -3.6360   25.9130 C   0  0  0  0  0  0  0  0  0  0  0  0
    8.4060   -3.6110   24.8690 C   0  0  0  0  0  0  0  0  0  0  0  0
   11.4240   -1.2400   22.0190 C   0  0  0  0  0  0  0  0  0  0  0  0
   12.7140   -0.6010   22.5140 C   0  0  0  0  0  0  0  0  0  0  0  0
   12.7040    0.5310   22.9600 O   0  0  0  0  0  0  0  0  0  0  0  0
   11.8150    0.7150   24.0480 C   0  0  0  0  0  0  0  0  0  0  0  0
   10.4020    0.1580   23.8820 C   0  0  0  0  0  0  0  0  0  0  0  0
  1  2  2  0
  2  3  1  0
  3  4  1  0
  4  5  2  0
  5  6  1  0
  6  7  2  0
  7  8  1  0
  4  9  1  0
  8  9  2  0
  2 10  1  0
 11 10  1  0
 11 12  1  0
 12 13  1  0
 13 14  2  0
 14 15  1  0
 15 16  2  0
 16 17  1  0
 13 18  1  0
 17 18  2  0
 11 19  1  0
 19 20  1  0
 20 21  1  0
 21 22  1  0
 11 23  1  0
 22 23  1  0
M  END
