NAU-LAT-445f63e5-1
     RDKit          3D

 18 19  0  0  0  0  0  0  0  0999 V2000
    6.8280   -0.2220   23.2690 O   0  0  0  0  0  0  0  0  0  0  0  0
    7.4990   -0.3140   21.9940 S   0  0  0  0  0  0  0  0  0  0  0  0
    8.0720    0.8510   21.3320 O   0  0  0  0  0  0  0  0  0  0  0  0
    8.7790   -1.4970   22.0610 C   0  0  0  0  0  0  0  0  0  0  0  0
    9.9500   -0.5350   22.0740 C   0  0  0  0  0  0  0  0  0  0  0  0
   11.2570   -1.0930   22.3590 C   0  0  0  0  0  0  0  0  0  0  0  0
   10.6040    0.1450   23.0460 C   0  0  0  0  0  0  0  0  0  0  0  0
   11.1710    0.9600   24.0940 C   0  0  0  0  0  0  0  0  0  0  0  0
   12.4340    0.3070   24.2920 C   0  0  0  0  0  0  0  0  0  0  0  0
   13.4340   -0.7000   24.0210 C   0  0  0  0  0  0  0  0  0  0  0  0
   12.5470   -1.3110   22.9390 C   0  0  0  0  0  0  0  0  0  0  0  0
    6.5200   -1.0170   20.8710 N   0  0  0  0  0  0  0  0  0  0  0  0
    6.0930   -0.1910   19.8340 C   0  0  0  0  0  0  0  0  0  0  0  0
    4.8590    0.6430   20.0510 C   0  0  0  0  0  0  0  0  0  0  0  0
    4.3580    1.5530   18.9810 C   0  0  0  0  0  0  0  0  0  0  0  0
    5.1930    1.5330   17.7270 C   0  0  0  0  0  0  0  0  0  0  0  0
    6.2980    0.7530   17.5960 N   0  0  0  0  0  0  0  0  0  0  0  0
    6.7120   -0.0590   18.6080 C   0  0  0  0  0  0  0  0  0  0  0  0
  1  2  2  0
  2  3  2  0
  2  4  1  0
  4  5  1  0
  5  6  1  0
  6  7  2  0
  7  8  1  0
  8  9  2  0
  9 10  1  0
  6 11  1  0
 10 11  2  0
  2 12  1  0
 12 13  1  0
 13 14  2  0
 14 15  1  0
 15 16  2  0
 16 17  1  0
 13 18  1  0
 17 18  2  0
M  END
