NAU-LAT-f723e322-2-acrylamide
     RDKit          3D

 29 31  0  0  0  0  0  0  0  0999 V2000
    7.2670   -5.2550   20.3890 C   0  0  0  0  0  0  0  0  0  0  0  0
    5.8230   -5.4160   20.4050 C   0  0  0  0  0  0  0  0  0  0  0  0
    5.1650   -4.2290   21.0080 C   0  0  0  0  0  0  0  0  0  0  0  0
    4.8300   -3.1410   21.4040 O   0  0  0  0  0  0  0  0  0  0  0  0
    6.3170   -3.4460   20.5330 C   0  0  0  0  0  0  0  0  0  0  0  0
    6.2470   -2.9240   19.2140 O   0  0  0  0  0  0  0  0  0  0  0  0
    7.3270   -3.3040   21.4630 N   0  0  0  0  0  0  0  0  0  0  0  0
    8.0390   -2.0150   21.6470 C   0  0  0  0  0  0  0  0  0  0  0  0
    7.5880   -1.3160   22.8010 C   0  0  0  0  0  0  0  0  0  0  0  0
    7.4410   -2.2570   23.7850 N   0  0  0  0  0  0  0  0  0  0  0  0
    7.6200   -1.9130   25.0950 C   0  0  0  0  0  0  0  0  0  0  0  0
    7.6830   -3.0480   26.1230 C   0  0  0  0  0  0  0  0  0  0  0  0
    8.7660   -3.9130   26.1520 C   0  0  0  0  0  0  0  0  0  0  0  0
    8.8400   -5.0200   27.1260 C   0  0  0  0  0  0  0  0  0  0  0  0
    9.9070   -5.7950   27.0740 F   0  0  0  0  0  0  0  0  0  0  0  0
    7.8620   -5.3060   28.0870 C   0  0  0  0  0  0  0  0  0  0  0  0
    6.7300   -4.5120   28.1610 C   0  0  0  0  0  0  0  0  0  0  0  0
    5.6660   -4.7110   29.0940 C   0  0  0  0  0  0  0  0  0  0  0  0
    4.4890   -4.6210   29.8390 C   0  0  0  0  0  0  0  0  0  0  0  0
    4.1270   -5.8430   30.4360 C   0  0  0  0  0  0  0  0  0  0  0  0
    2.7140   -6.0970   30.7240 N   0  0  0  0  0  0  0  0  0  0  0  0
    2.5810   -6.9480   31.9020 C   0  0  0  0  0  0  0  0  0  0  0  0
    3.1970   -8.1880   31.7310 C   0  0  0  0  0  0  0  0  0  0  0  0
    1.9040   -6.5750   33.1010 O   0  0  0  0  0  0  0  0  0  0  0  0
    4.8960   -3.5750   28.6020 C   0  0  0  0  0  0  0  0  0  0  0  0
    5.4100   -2.8520   27.5740 N   0  0  0  0  0  0  0  0  0  0  0  0
    6.6510   -3.3940   27.1840 C   0  0  0  0  0  0  0  0  0  0  0  0
    6.3910   -3.2380   23.5690 C   0  0  0  0  0  0  0  0  0  0  0  0
    6.9910   -4.0630   22.6680 C   0  0  0  0  0  0  0  0  0  0  0  0
  1  2  1  0
  2  3  1  0
  3  4  2  0
  3  5  1  0
  5  6  2  0
  5  7  1  0
  7  8  1  0
  8  9  1  0
  9 10  1  0
 10 11  1  0
 11 12  1  0
 12 13  2  0
 13 14  1  0
 14 15  1  0
 14 16  2  0
 16 17  1  0
 17 18  1  0
 18 19  1  0
 19 20  1  0
 20 21  1  0
 21 22  1  0
 22 23  1  0
 22 24  2  0
 18 25  2  0
 25 26  1  0
 12 27  1  0
 17 27  2  0
 26 27  1  0
 10 28  1  0
  7 29  1  0
 28 29  1  0
M  END
