NAU-LAT-81109c57-7
     RDKit          3D

 30 33  0  0  0  0  0  0  0  0999 V2000
    8.9690    6.6820   22.4850 C   0  0  0  0  0  0  0  0  0  0  0  0
   10.1090    6.2260   23.3550 C   0  0  0  0  0  0  0  0  0  0  0  0
   10.0770    6.4060   24.5750 O   0  0  0  0  0  0  0  0  0  0  0  0
   11.1640    5.6060   22.7300 N   0  0  0  0  0  0  0  0  0  0  0  0
   12.2540    4.9930   23.4900 C   0  0  0  0  0  0  0  0  0  0  0  0
   12.6700    3.7860   22.6620 C   0  0  0  0  0  0  0  0  0  0  0  0
   11.6480    2.7720   23.2090 C   0  0  0  0  0  0  0  0  0  0  0  0
   10.3380    3.0490   23.9090 C   0  0  0  0  0  0  0  0  0  0  0  0
    9.7720    1.6930   24.1620 N   0  0  0  0  0  0  0  0  0  0  0  0
   10.7540    0.6980   23.6110 C   0  0  0  0  0  0  0  0  0  0  0  0
   10.5340   -0.8360   23.6440 C   0  0  0  0  0  0  0  0  0  0  0  0
    9.2550   -1.4370   24.2450 C   0  0  0  0  0  0  0  0  0  0  0  0
    7.9620   -1.7740   24.4000 N   0  0  0  0  0  0  0  0  0  0  0  0
    6.9190   -0.8400   23.9330 C   0  0  0  0  0  0  0  0  0  0  0  0
    6.9890    0.3810   24.0910 O   0  0  0  0  0  0  0  0  0  0  0  0
    5.8300   -1.4620   23.2920 C   0  0  0  0  0  0  0  0  0  0  0  0
    4.6300   -0.8110   23.6030 C   0  0  0  0  0  0  0  0  0  0  0  0
    4.1770    0.3860   23.0660 C   0  0  0  0  0  0  0  0  0  0  0  0
    2.9800    0.7390   23.5860 N   0  0  0  0  0  0  0  0  0  0  0  0
    2.5490   -0.1820   24.4940 C   0  0  0  0  0  0  0  0  0  0  0  0
    1.3660   -0.1610   25.2310 N   0  0  0  0  0  0  0  0  0  0  0  0
    1.2290   -1.3280   26.1170 C   0  0  0  0  0  0  0  0  0  0  0  0
    2.2450   -2.2990   26.1380 C   0  0  0  0  0  0  0  0  0  0  0  0
    3.4400   -2.2860   25.3700 C   0  0  0  0  0  0  0  0  0  0  0  0
    3.6560   -1.2250   24.5050 C   0  0  0  0  0  0  0  0  0  0  0  0
   11.5010   -1.7040   23.1110 C   0  0  0  0  0  0  0  0  0  0  0  0
   12.6470   -1.1030   22.5700 C   0  0  0  0  0  0  0  0  0  0  0  0
   13.5520   -1.9280   22.0660 F   0  0  0  0  0  0  0  0  0  0  0  0
   12.9190    0.2980   22.5070 C   0  0  0  0  0  0  0  0  0  0  0  0
   11.9260    1.2700   23.0360 C   0  0  0  0  0  0  0  0  0  0  0  0
  1  2  1  0
  2  3  2  0
  2  4  1  0
  4  5  1  0
  5  6  1  0
  6  7  1  0
  7  8  2  0
  8  9  1  0
  9 10  1  0
 10 11  1  0
 11 12  1  0
 12 13  1  0
 13 14  1  0
 14 15  2  0
 14 16  1  0
 16 17  1  0
 17 18  2  0
 18 19  1  0
 19 20  1  0
 20 21  1  0
 21 22  2  0
 22 23  1  0
 23 24  2  0
 17 25  1  0
 20 25  2  0
 24 25  1  0
 11 26  2  0
 26 27  1  0
 27 28  1  0
 27 29  2  0
  7 30  1  0
 10 30  2  0
 29 30  1  0
M  END
