NAU-LAT-445f63e5-2
     RDKit          3D

 18 19  0  0  0  0  0  0  0  0999 V2000
    7.0520    0.2280   23.0850 O   0  0  0  0  0  0  0  0  0  0  0  0
    7.8080   -0.2050   21.9310 S   0  0  0  0  0  0  0  0  0  0  0  0
    8.5910    0.7390   21.1580 O   0  0  0  0  0  0  0  0  0  0  0  0
    8.8450   -1.5630   22.3870 C   0  0  0  0  0  0  0  0  0  0  0  0
   10.1980   -0.8750   22.6180 C   0  0  0  0  0  0  0  0  0  0  0  0
   11.3980   -1.5740   22.0300 C   0  0  0  0  0  0  0  0  0  0  0  0
   12.7530   -0.9310   22.1650 C   0  0  0  0  0  0  0  0  0  0  0  0
   12.7800    0.3960   22.8960 C   0  0  0  0  0  0  0  0  0  0  0  0
   13.9090    0.9740   22.9720 F   0  0  0  0  0  0  0  0  0  0  0  0
   11.5440    1.0610   23.5110 C   0  0  0  0  0  0  0  0  0  0  0  0
   10.2610    0.3350   23.3160 C   0  0  0  0  0  0  0  0  0  0  0  0
    6.8020   -0.9710   20.8560 N   0  0  0  0  0  0  0  0  0  0  0  0
    6.1660   -0.1130   19.9270 C   0  0  0  0  0  0  0  0  0  0  0  0
    4.9010    0.6420   20.2880 C   0  0  0  0  0  0  0  0  0  0  0  0
    4.4550    1.4780   19.0990 C   0  0  0  0  0  0  0  0  0  0  0  0
    5.2510    1.4570   17.8210 C   0  0  0  0  0  0  0  0  0  0  0  0
    6.3560    0.7300   17.6530 N   0  0  0  0  0  0  0  0  0  0  0  0
    6.7820   -0.0200   18.6810 C   0  0  0  0  0  0  0  0  0  0  0  0
  1  2  2  0
  2  3  2  0
  2  4  1  0
  4  5  1  0
  5  6  2  0
  6  7  1  0
  7  8  2  0
  8  9  1  0
  8 10  1  0
  5 11  1  0
 10 11  2  0
  2 12  1  0
 12 13  1  0
 13 14  2  0
 14 15  1  0
 15 16  2  0
 16 17  1  0
 13 18  1  0
 17 18  2  0
M  END
