NAU-LAT-f723e322-4-acrylamide
     RDKit          3D

 20 21  0  0  0  0  0  0  0  0999 V2000
    7.9610   -1.7610   20.1590 C   0  0  0  0  0  0  0  0  0  0  0  0
    6.5920   -1.2160   20.4930 C   0  0  0  0  0  0  0  0  0  0  0  0
    6.1450   -1.8440   21.8230 C   0  0  0  0  0  0  0  0  0  0  0  0
    4.9170   -2.9330   21.2260 O   0  0  0  0  0  0  0  0  0  0  0  0
    7.3700   -0.6950   22.0610 N   0  0  0  0  0  0  0  0  0  0  0  0
    7.0320    0.6740   21.6050 C   0  0  0  0  0  0  0  0  0  0  0  0
    7.0360    1.5940   22.6550 C   0  0  0  0  0  0  0  0  0  0  0  0
    8.1810    1.8200   23.4210 N   0  0  0  0  0  0  0  0  0  0  0  0
    8.9240    3.3330   23.6870 S   0  0  0  0  0  0  0  0  0  0  0  0
   10.2770    3.3090   22.5240 C   0  0  0  0  0  0  0  0  0  0  0  0
    7.9990    4.3670   23.2780 O   0  0  0  0  0  0  0  0  0  0  0  0
    9.4760    3.3260   25.0260 O   0  0  0  0  0  0  0  0  0  0  0  0
    8.8950    0.7030   23.6200 C   0  0  0  0  0  0  0  0  0  0  0  0
    8.7260   -0.6410   22.8340 C   0  0  2  0  0  0  0  0  0  0  0  0
   10.0780   -0.9420   22.3840 C   0  0  0  0  0  0  0  0  0  0  0  0
   10.4070   -0.4760   23.7790 C   0  0  0  0  0  0  0  0  0  0  0  0
   11.7440   -0.4620   24.2170 C   0  0  0  0  0  0  0  0  0  0  0  0
   12.6250   -0.9040   23.2580 C   0  0  0  0  0  0  0  0  0  0  0  0
   12.6660   -1.3730   21.9750 C   0  0  0  0  0  0  0  0  0  0  0  0
   11.4780   -1.0020   22.6330 C   0  0  0  0  0  0  0  0  0  0  0  0
  1  2  1  0
  2  3  1  0
  3  4  2  0
  3  5  1  0
  5  6  1  0
  6  7  1  0
  7  8  1  0
  8  9  1  0
  9 10  1  0
  9 11  2  0
  9 12  2  0
  8 13  1  0
  5 14  1  0
 13 14  1  0
 14 15  1  6
 15 16  2  0
 16 17  1  0
 17 18  2  0
 18 19  1  0
 15 20  1  0
 19 20  2  0
M  END
