NAU-LAT-81109c57-2
     RDKit          3D

 20 22  0  0  0  0  0  0  0  0999 V2000
   10.1810    6.2770   24.7700 O   0  0  0  0  0  0  0  0  0  0  0  0
   10.0440    6.0810   23.5690 C   0  0  0  0  0  0  0  0  0  0  0  0
   11.1570    5.7810   22.6750 N   0  0  0  0  0  0  0  0  0  0  0  0
   12.2070    5.0260   23.3780 C   0  0  0  0  0  0  0  0  0  0  0  0
   12.6350    3.7180   22.6510 C   0  0  0  0  0  0  0  0  0  0  0  0
   11.7190    2.6390   23.2360 C   0  0  0  0  0  0  0  0  0  0  0  0
   10.5140    3.0550   23.9950 C   0  0  0  0  0  0  0  0  0  0  0  0
    9.9550    1.7180   24.3240 N   0  0  0  0  0  0  0  0  0  0  0  0
   10.8060    0.6170   23.7740 C   0  0  0  0  0  0  0  0  0  0  0  0
   10.4450   -0.8450   23.9580 C   0  0  0  0  0  0  0  0  0  0  0  0
   11.4550   -1.8250   23.2950 C   0  0  0  0  0  0  0  0  0  0  0  0
   12.6790   -1.2600   22.5570 C   0  0  0  0  0  0  0  0  0  0  0  0
   13.5450   -2.0650   21.9790 F   0  0  0  0  0  0  0  0  0  0  0  0
   12.8400    0.2330   22.5180 C   0  0  0  0  0  0  0  0  0  0  0  0
   11.9460    1.1150   23.0810 C   0  0  0  0  0  0  0  0  0  0  0  0
    8.6660    6.1350   22.8840 C   0  0  2  0  0  0  0  0  0  0  0  0
    8.4910    7.3940   22.3630 C   0  0  0  0  0  0  0  0  0  0  0  0
    7.3960    7.8900   23.0000 C   0  0  0  0  0  0  0  0  0  0  0  0
    6.9780    6.8390   23.8300 C   0  0  0  0  0  0  0  0  0  0  0  0
    7.8670    5.7710   23.6710 N   0  0  0  0  0  0  0  0  0  0  0  0
  1  2  2  0
  2  3  1  0
  3  4  1  0
  4  5  1  0
  5  6  1  0
  6  7  2  0
  7  8  1  0
  8  9  1  0
  9 10  1  0
 10 11  2  0
 11 12  1  0
 12 13  1  0
 12 14  2  0
  6 15  1  0
  9 15  2  0
 14 15  1  0
 16  2  1  1
 16 17  1  0
 17 18  1  0
 18 19  1  0
 16 20  1  0
 19 20  1  0
M  END
