NAU-LAT-ec9c7557-6
     RDKit          3D

 31 35  0  0  0  0  0  0  0  0999 V2000
   -2.4600   -4.8290   25.4290 O   0  0  0  0  0  0  0  0  0  0  0  0
   -2.0020   -4.3600   24.3870 C   0  0  0  0  0  0  0  0  0  0  0  0
   -1.6190   -5.1290   23.3480 O   0  0  0  0  0  0  0  0  0  0  0  0
   -1.8270   -2.8650   24.1660 C   0  0  0  0  0  0  0  0  0  0  0  0
   -0.8270   -2.2240   25.0740 C   0  0  0  0  0  0  0  0  0  0  0  0
   -0.5040   -0.8770   25.0450 C   0  0  0  0  0  0  0  0  0  0  0  0
   -1.2440   -0.1730   24.0440 C   0  0  0  0  0  0  0  0  0  0  0  0
   -0.8830    1.1580   24.0590 C   0  0  0  0  0  0  0  0  0  0  0  0
   -0.4810    1.3290   22.7550 N   0  0  0  0  0  0  0  0  0  0  0  0
    0.7390    1.7400   22.4640 C   0  0  0  0  0  0  0  0  0  0  0  0
    0.9310    1.8500   21.0770 C   0  0  0  0  0  0  0  0  0  0  0  0
    2.2720    2.3220   20.4680 C   0  0  0  0  0  0  0  0  0  0  0  0
    3.3630    1.2970   20.3140 N   0  0  0  0  0  0  0  0  0  0  0  0
    3.8630    1.4140   19.0630 N   0  0  0  0  0  0  0  0  0  0  0  0
    4.7610    0.4350   19.2570 C   0  0  0  0  0  0  0  0  0  0  0  0
    5.7780   -0.0390   18.2580 C   0  0  0  0  0  0  0  0  0  0  0  0
    6.2520    0.9460   17.4720 C   0  0  0  0  0  0  0  0  0  0  0  0
    7.2790    0.7430   16.4280 C   0  0  0  0  0  0  0  0  0  0  0  0
    7.8130   -0.6720   16.2380 C   0  0  0  0  0  0  0  0  0  0  0  0
    7.3220   -1.6720   17.0280 C   0  0  0  0  0  0  0  0  0  0  0  0
    6.2520   -1.3440   18.0960 C   0  0  0  0  0  0  0  0  0  0  0  0
    4.6040   -0.1090   20.6690 C   0  0  0  0  0  0  0  0  0  0  0  0
    5.5400   -1.0070   20.6070 C   0  0  0  0  0  0  0  0  0  0  0  0
    4.8610    0.1410   19.6270 C   0  0  0  0  0  0  0  0  0  0  0  0
    3.6460    1.1840   19.9640 C   0  0  0  0  0  0  0  0  0  0  0  0
    2.9410    1.2370   21.2950 C   0  0  0  0  0  0  0  0  0  0  0  0
    3.7000    0.4000   21.4590 C   0  0  0  0  0  0  0  0  0  0  0  0
   -0.2070    1.4980   20.4200 N   0  0  0  0  0  0  0  0  0  0  0  0
   -1.1160    1.1600   21.5110 N   0  0  0  0  0  0  0  0  0  0  0  0
   -2.1970   -0.7430   23.1710 C   0  0  0  0  0  0  0  0  0  0  0  0
   -2.4920   -2.0850   23.2290 C   0  0  0  0  0  0  0  0  0  0  0  0
  1  2  2  0
  2  3  1  0
  2  4  1  0
  4  5  2  0
  5  6  1  0
  6  7  2  0
  7  8  1  0
  8  9  1  0
  9 10  1  0
 10 11  2  0
 11 12  1  0
 12 13  1  0
 13 14  1  0
 14 15  2  0
 15 16  1  0
 16 17  2  0
 17 18  1  0
 18 19  2  0
 19 20  1  0
 16 21  1  0
 20 21  2  0
 15 22  1  0
 22 23  1  0
 23 24  2  0
 24 25  1  0
 25 26  2  0
 13 27  1  0
 22 27  2  0
 26 27  1  0
 11 28  1  0
  9 29  1  0
 28 29  2  0
  7 30  1  0
  4 31  1  0
 30 31  2  0
M  END
