NAU-LAT-81109c57-8
     RDKit          3D

 18 19  0  0  0  0  0  0  0  0999 V2000
    6.4460    6.5930   22.9940 N   0  0  0  0  0  0  0  0  0  0  0  0
    7.7110    5.9180   22.6640 C   0  0  0  0  0  0  0  0  0  0  0  0
    8.8830    6.8680   22.6790 C   0  0  0  0  0  0  0  0  0  0  0  0
   10.1150    6.2960   23.4520 C   0  0  0  0  0  0  0  0  0  0  0  0
   10.1510    6.2750   24.6810 O   0  0  0  0  0  0  0  0  0  0  0  0
   11.2240    5.7960   22.6090 N   0  0  0  0  0  0  0  0  0  0  0  0
   12.1510    4.9680   23.4210 C   0  0  0  0  0  0  0  0  0  0  0  0
   12.7000    3.7890   22.6330 C   0  0  0  0  0  0  0  0  0  0  0  0
   11.9480    2.5090   23.1110 C   0  0  0  0  0  0  0  0  0  0  0  0
   10.7210    2.8610   23.8800 C   0  0  0  0  0  0  0  0  0  0  0  0
   10.0940    1.7320   24.2660 N   0  0  0  0  0  0  0  0  0  0  0  0
   10.8490    0.6510   23.7830 C   0  0  0  0  0  0  0  0  0  0  0  0
   10.5490   -0.8280   23.9480 C   0  0  0  0  0  0  0  0  0  0  0  0
   11.5430   -1.7330   23.3050 C   0  0  0  0  0  0  0  0  0  0  0  0
   12.6530   -1.2460   22.6230 C   0  0  0  0  0  0  0  0  0  0  0  0
   13.4960   -2.0950   22.0630 F   0  0  0  0  0  0  0  0  0  0  0  0
   12.8860    0.1290   22.5170 C   0  0  0  0  0  0  0  0  0  0  0  0
   12.0120    1.0780   23.0670 C   0  0  0  0  0  0  0  0  0  0  0  0
  1  2  1  0
  2  3  1  0
  3  4  1  0
  4  5  2  0
  4  6  1  0
  6  7  1  0
  7  8  1  0
  8  9  1  0
  9 10  2  0
 10 11  1  0
 11 12  1  0
 12 13  1  0
 13 14  2  0
 14 15  1  0
 15 16  1  0
 15 17  2  0
  9 18  1  0
 12 18  2  0
 17 18  1  0
M  END
