NAU-LAT-81109c57-6-nitrile
     RDKit          3D

 26 28  0  0  0  0  0  0  0  0999 V2000
    7.1800   -3.9750   20.2740 C   0  0  0  0  0  0  0  0  0  0  0  0
    6.0350   -3.9680   19.6820 N   0  0  0  0  0  0  0  0  0  0  0  0
    7.4050   -3.3000   21.4390 N   0  0  0  0  0  0  0  0  0  0  0  0
    7.7370   -3.9780   22.7050 C   0  0  0  0  0  0  0  0  0  0  0  0
    7.2640   -2.9380   23.7770 C   0  0  0  0  0  0  0  0  0  0  0  0
    8.0600   -1.6970   23.5490 N   0  0  0  0  0  0  0  0  0  0  0  0
    9.4650   -2.0010   23.8440 C   0  0  0  0  0  0  0  0  0  0  0  0
    9.9290   -3.2570   24.3600 O   0  0  0  0  0  0  0  0  0  0  0  0
   10.4820   -0.9280   23.4880 C   0  0  0  0  0  0  0  0  0  0  0  0
   11.5510   -1.8390   22.8380 C   0  0  0  0  0  0  0  0  0  0  0  0
   12.7670   -1.0630   22.3370 C   0  0  0  0  0  0  0  0  0  0  0  0
   13.7510   -1.6600   21.7500 F   0  0  0  0  0  0  0  0  0  0  0  0
   12.8130    0.4670   22.5240 C   0  0  0  0  0  0  0  0  0  0  0  0
   11.6540    1.1380   23.1550 C   0  0  0  0  0  0  0  0  0  0  0  0
   11.4930    2.5900   23.3570 C   0  0  0  0  0  0  0  0  0  0  0  0
   12.3890    3.6100   22.9510 C   0  0  0  0  0  0  0  0  0  0  0  0
   12.1040    4.9330   23.2810 C   0  0  0  0  0  0  0  0  0  0  0  0
   11.3020    5.7890   22.5480 N   0  0  0  0  0  0  0  0  0  0  0  0
   10.3470    6.2120   23.3440 C   0  0  0  0  0  0  0  0  0  0  0  0
    9.1860    6.5540   22.6460 C   0  0  0  0  0  0  0  0  0  0  0  0
   10.4350    6.3170   24.5700 O   0  0  0  0  0  0  0  0  0  0  0  0
   10.2930    2.8120   24.0010 C   0  0  0  0  0  0  0  0  0  0  0  0
    9.6970    1.5610   24.1840 N   0  0  0  0  0  0  0  0  0  0  0  0
   10.5700    0.4860   23.6190 C   0  0  0  0  0  0  0  0  0  0  0  0
    7.9150   -1.2590   22.2510 C   0  0  0  0  0  0  0  0  0  0  0  0
    6.9530   -2.0030   21.5700 C   0  0  0  0  0  0  0  0  0  0  0  0
  1  2  2  3
  1  3  1  0
  3  4  1  0
  4  5  1  0
  5  6  1  0
  6  7  1  0
  7  8  2  0
  7  9  1  0
  9 10  2  0
 10 11  1  0
 11 12  1  0
 11 13  2  0
 13 14  1  0
 14 15  1  0
 15 16  1  0
 16 17  1  0
 17 18  1  0
 18 19  1  0
 19 20  1  0
 19 21  2  0
 15 22  2  0
 22 23  1  0
  9 24  1  0
 14 24  2  0
 23 24  1  0
  6 25  1  0
  3 26  1  0
 25 26  1  0
M  END
