NAU-LAT-f723e322-2-vinylsulfonamide
     RDKit          3D

 30 32  0  0  0  0  0  0  0  0999 V2000
    6.9880   -3.0560   18.8490 C   0  0  0  0  0  0  0  0  0  0  0  0
    6.9040   -2.1580   20.0420 C   0  0  0  0  0  0  0  0  0  0  0  0
    6.1070   -3.0530   21.3340 S   0  0  0  0  0  0  0  0  0  0  0  0
    4.6820   -2.9040   21.2620 O   0  0  0  0  0  0  0  0  0  0  0  0
    6.8290   -2.8200   22.5680 O   0  0  0  0  0  0  0  0  0  0  0  0
    6.1200   -4.7290   20.9370 C   0  0  0  0  0  0  0  0  0  0  0  0
    5.5690   -5.0510   19.8930 O   0  0  0  0  0  0  0  0  0  0  0  0
    6.7130   -5.6180   21.8610 N   0  0  0  0  0  0  0  0  0  0  0  0
    5.8480   -6.6430   22.3430 C   0  0  0  0  0  0  0  0  0  0  0  0
    5.0770   -6.1520   23.3680 C   0  0  0  0  0  0  0  0  0  0  0  0
    5.6030   -5.3490   24.3760 N   0  0  0  0  0  0  0  0  0  0  0  0
    5.1840   -5.2480   25.7320 C   0  0  0  0  0  0  0  0  0  0  0  0
    4.1260   -4.3320   25.8860 C   0  0  0  0  0  0  0  0  0  0  0  0
    4.3970   -2.8790   26.3290 C   0  0  0  0  0  0  0  0  0  0  0  0
    3.3680   -1.9440   26.4790 C   0  0  0  0  0  0  0  0  0  0  0  0
    3.6430   -0.6870   26.8660 F   0  0  0  0  0  0  0  0  0  0  0  0
    1.9740   -2.3580   26.2050 C   0  0  0  0  0  0  0  0  0  0  0  0
    1.7540   -3.6750   25.8090 C   0  0  0  0  0  0  0  0  0  0  0  0
    0.5550   -4.2690   25.5090 C   0  0  0  0  0  0  0  0  0  0  0  0
   -0.6860   -3.6250   25.5560 C   0  0  0  0  0  0  0  0  0  0  0  0
   -0.9600   -3.1550   26.8360 C   0  0  0  0  0  0  0  0  0  0  0  0
   -2.3870   -2.7350   26.9130 N   0  0  0  0  0  0  0  0  0  0  0  0
   -2.6360   -1.4280   26.3020 C   0  0  0  0  0  0  0  0  0  0  0  0
   -4.1300   -1.1660   25.9720 C   0  0  0  0  0  0  0  0  0  0  0  0
   -1.7580   -0.6010   26.0640 O   0  0  0  0  0  0  0  0  0  0  0  0
    0.6860   -5.6080   25.1460 C   0  0  0  0  0  0  0  0  0  0  0  0
    2.0390   -5.8310   25.2350 N   0  0  0  0  0  0  0  0  0  0  0  0
    2.7710   -4.6230   25.6550 C   0  0  0  0  0  0  0  0  0  0  0  0
    7.0220   -5.0370   24.1480 C   0  0  0  0  0  0  0  0  0  0  0  0
    7.5620   -5.0110   22.8640 C   0  0  0  0  0  0  0  0  0  0  0  0
  1  2  1  0
  2  3  1  0
  3  4  2  0
  3  5  2  0
  3  6  1  0
  6  7  2  0
  6  8  1  0
  8  9  1  0
  9 10  1  0
 10 11  1  0
 11 12  1  0
 12 13  1  0
 13 14  2  0
 14 15  1  0
 15 16  1  0
 15 17  2  0
 17 18  1  0
 18 19  1  0
 19 20  1  0
 20 21  1  0
 21 22  1  0
 22 23  1  0
 23 24  1  0
 23 25  2  0
 19 26  2  0
 26 27  1  0
 13 28  1  0
 18 28  2  0
 27 28  1  0
 11 29  1  0
  8 30  1  0
 29 30  1  0
M  END
