NAU-LAT-f723e322-2-nitrile
     RDKit          3D

 27 29  0  0  0  0  0  0  0  0999 V2000
    7.0640   -3.2420   19.1450 C   0  0  0  0  0  0  0  0  0  0  0  0
    6.3120   -2.9740   18.1560 N   0  0  0  0  0  0  0  0  0  0  0  0
    6.3940   -3.6880   20.3240 C   0  0  0  0  0  0  0  0  0  0  0  0
    5.4570   -4.4450   20.0890 O   0  0  0  0  0  0  0  0  0  0  0  0
    6.8160   -3.2840   21.4930 N   0  0  0  0  0  0  0  0  0  0  0  0
    7.8050   -2.3270   21.6920 C   0  0  0  0  0  0  0  0  0  0  0  0
    7.5860   -1.5680   22.8880 C   0  0  0  0  0  0  0  0  0  0  0  0
    7.3400   -2.4010   23.9420 N   0  0  0  0  0  0  0  0  0  0  0  0
    7.4560   -1.9480   25.3060 C   0  0  0  0  0  0  0  0  0  0  0  0
    7.6590   -3.1040   26.0740 C   0  0  0  0  0  0  0  0  0  0  0  0
    8.7890   -3.8930   25.8760 C   0  0  0  0  0  0  0  0  0  0  0  0
    9.0430   -5.1640   26.6800 C   0  0  0  0  0  0  0  0  0  0  0  0
   10.1270   -5.8720   26.4420 F   0  0  0  0  0  0  0  0  0  0  0  0
    8.1220   -5.5540   27.6400 C   0  0  0  0  0  0  0  0  0  0  0  0
    6.9430   -4.6950   27.8210 C   0  0  0  0  0  0  0  0  0  0  0  0
    5.9460   -4.9380   28.7070 C   0  0  0  0  0  0  0  0  0  0  0  0
    5.9010   -6.0330   29.5460 C   0  0  0  0  0  0  0  0  0  0  0  0
    5.0460   -7.0370   29.0790 C   0  0  0  0  0  0  0  0  0  0  0  0
    3.7370   -6.5580   29.5360 N   0  0  0  0  0  0  0  0  0  0  0  0
    2.9270   -7.6520   30.0790 C   0  0  0  0  0  0  0  0  0  0  0  0
    2.0440   -8.2260   29.1470 C   0  0  0  0  0  0  0  0  0  0  0  0
    2.9980   -8.0440   31.2420 O   0  0  0  0  0  0  0  0  0  0  0  0
    4.9910   -3.9290   28.6290 C   0  0  0  0  0  0  0  0  0  0  0  0
    5.4580   -3.0550   27.6300 N   0  0  0  0  0  0  0  0  0  0  0  0
    6.7520   -3.5470   27.0740 C   0  0  0  0  0  0  0  0  0  0  0  0
    6.2220   -3.3470   23.6890 C   0  0  0  0  0  0  0  0  0  0  0  0
    6.5190   -4.1680   22.6020 C   0  0  0  0  0  0  0  0  0  0  0  0
  1  2  2  3
  1  3  1  0
  3  4  2  0
  3  5  1  0
  5  6  1  0
  6  7  1  0
  7  8  1  0
  8  9  1  0
  9 10  1  0
 10 11  2  0
 11 12  1  0
 12 13  1  0
 12 14  2  0
 14 15  1  0
 15 16  1  0
 16 17  1  0
 17 18  1  0
 18 19  1  0
 19 20  1  0
 20 21  1  0
 20 22  2  0
 16 23  2  0
 23 24  1  0
 10 25  1  0
 15 25  2  0
 24 25  1  0
  8 26  1  0
  5 27  1  0
 26 27  1  0
M  END
