NAU-LAT-81109c57-6-acrylamide
     RDKit          3D

 28 30  0  0  0  0  0  0  0  0999 V2000
    7.1750   -3.2950   19.5930 C   0  0  0  0  0  0  0  0  0  0  0  0
    5.8210   -2.7520   20.0510 C   0  0  0  0  0  0  0  0  0  0  0  0
    5.6070   -2.9370   21.5430 C   0  0  0  0  0  0  0  0  0  0  0  0
    4.8000   -3.7570   21.9770 O   0  0  0  0  0  0  0  0  0  0  0  0
    6.3320   -2.1510   22.3950 N   0  0  0  0  0  0  0  0  0  0  0  0
    7.4630   -1.3610   21.9020 C   0  0  0  0  0  0  0  0  0  0  0  0
    7.6200   -0.3180   23.0070 C   0  0  0  0  0  0  0  0  0  0  0  0
    8.0400   -1.1030   24.2240 N   0  0  0  0  0  0  0  0  0  0  0  0
    9.3390   -1.7560   24.0140 C   0  0  0  0  0  0  0  0  0  0  0  0
    9.5390   -2.9600   24.1290 O   0  0  0  0  0  0  0  0  0  0  0  0
   10.4340   -0.7990   23.5830 C   0  0  0  0  0  0  0  0  0  0  0  0
   11.5040   -1.7050   22.9550 C   0  0  0  0  0  0  0  0  0  0  0  0
   12.7340   -1.0060   22.4140 C   0  0  0  0  0  0  0  0  0  0  0  0
   13.6950   -1.6900   21.8500 F   0  0  0  0  0  0  0  0  0  0  0  0
   12.7560    0.4920   22.5590 C   0  0  0  0  0  0  0  0  0  0  0  0
   11.7310    1.2400   23.1260 C   0  0  0  0  0  0  0  0  0  0  0  0
   11.6000    2.6260   23.2790 C   0  0  0  0  0  0  0  0  0  0  0  0
   12.4940    3.6150   22.8430 C   0  0  0  0  0  0  0  0  0  0  0  0
   12.2830    4.9290   23.2750 C   0  0  0  0  0  0  0  0  0  0  0  0
   11.2770    5.5820   22.6200 N   0  0  0  0  0  0  0  0  0  0  0  0
   10.2920    6.1570   23.3440 C   0  0  0  0  0  0  0  0  0  0  0  0
    9.2000    6.6090   22.5990 C   0  0  0  0  0  0  0  0  0  0  0  0
   10.3530    6.2990   24.7680 O   0  0  0  0  0  0  0  0  0  0  0  0
   10.4270    2.9290   23.9200 C   0  0  0  0  0  0  0  0  0  0  0  0
    9.7200    1.6760   24.1910 N   0  0  0  0  0  0  0  0  0  0  0  0
   10.5890    0.6050   23.6470 C   0  0  0  0  0  0  0  0  0  0  0  0
    7.0590   -1.9830   24.6290 C   0  0  0  0  0  0  0  0  0  0  0  0
    5.9310   -1.8670   23.7920 C   0  0  0  0  0  0  0  0  0  0  0  0
  1  2  1  0
  2  3  1  0
  3  4  2  0
  3  5  1  0
  5  6  1  0
  6  7  1  0
  7  8  1  0
  8  9  1  0
  9 10  2  0
  9 11  1  0
 11 12  2  0
 12 13  1  0
 13 14  1  0
 13 15  2  0
 15 16  1  0
 16 17  1  0
 17 18  1  0
 18 19  1  0
 19 20  1  0
 20 21  1  0
 21 22  1  0
 21 23  2  0
 17 24  2  0
 24 25  1  0
 11 26  1  0
 16 26  2  0
 25 26  1  0
  8 27  1  0
  5 28  1  0
 27 28  1  0
M  END
