NAU-LAT-f723e322-1-chloroacetamide
     RDKit          3D

 26 28  0  0  0  0  0  0  0  0999 V2000
    7.3010   -3.0430   18.8760 C   0  0  0  0  0  0  0  0  0  0  0  0
    6.4210   -3.4690   19.9960 C   0  0  0  0  0  0  0  0  0  0  0  0
    5.4430   -4.1970   19.7860 O   0  0  0  0  0  0  0  0  0  0  0  0
    6.7780   -3.0510   21.2720 N   0  0  0  0  0  0  0  0  0  0  0  0
    7.9200   -2.1820   21.5640 C   0  0  0  0  0  0  0  0  0  0  0  0
    7.7350   -1.4730   22.7810 C   0  0  0  0  0  0  0  0  0  0  0  0
    7.5220   -2.4550   23.9030 N   0  0  0  0  0  0  0  0  0  0  0  0
    7.4670   -2.0280   25.1980 C   0  0  0  0  0  0  0  0  0  0  0  0
    7.6490   -3.1010   26.0780 C   0  0  0  0  0  0  0  0  0  0  0  0
    8.7830   -3.9000   26.0030 C   0  0  0  0  0  0  0  0  0  0  0  0
    8.9710   -5.0650   26.9620 C   0  0  0  0  0  0  0  0  0  0  0  0
   10.0420   -5.8210   26.8830 F   0  0  0  0  0  0  0  0  0  0  0  0
    7.9870   -5.2980   27.9040 C   0  0  0  0  0  0  0  0  0  0  0  0
    6.7910   -4.4380   27.9640 C   0  0  0  0  0  0  0  0  0  0  0  0
    5.7710   -4.6930   28.9430 C   0  0  0  0  0  0  0  0  0  0  0  0
    4.6140   -4.6310   29.7200 C   0  0  0  0  0  0  0  0  0  0  0  0
    4.3060   -3.3880   30.3190 C   0  0  0  0  0  0  0  0  0  0  0  0
    3.0660   -2.8600   29.9300 N   0  0  0  0  0  0  0  0  0  0  0  0
    2.6210   -1.5110   30.3400 C   0  0  0  0  0  0  0  0  0  0  0  0
    1.8100   -1.5110   31.4910 C   0  0  0  0  0  0  0  0  0  0  0  0
    2.9210   -0.4780   29.7490 O   0  0  0  0  0  0  0  0  0  0  0  0
    4.9670   -3.5600   28.4540 C   0  0  0  0  0  0  0  0  0  0  0  0
    5.4850   -2.8220   27.3860 N   0  0  0  0  0  0  0  0  0  0  0  0
    6.6870   -3.4090   27.0680 C   0  0  0  0  0  0  0  0  0  0  0  0
    6.4950   -3.2420   23.6100 C   0  0  0  0  0  0  0  0  0  0  0  0
    6.4020   -3.9160   22.3890 C   0  0  0  0  0  0  0  0  0  0  0  0
  1  2  1  0
  2  3  2  0
  2  4  1  0
  4  5  1  0
  5  6  1  0
  6  7  1  0
  7  8  1  0
  8  9  1  0
  9 10  2  0
 10 11  1  0
 11 12  1  0
 11 13  2  0
 13 14  1  0
 14 15  1  0
 15 16  1  0
 16 17  1  0
 17 18  1  0
 18 19  1  0
 19 20  1  0
 19 21  2  0
 15 22  2  0
 22 23  1  0
  9 24  1  0
 14 24  2  0
 23 24  1  0
  7 25  1  0
  4 26  1  0
 25 26  1  0
M  END
