NAU-LAT-81109c57-1
     RDKit          3D

 20 21  0  0  0  0  0  0  0  0999 V2000
    8.1080    4.7280   22.4150 C   0  0  0  0  0  0  0  0  0  0  0  0
    7.8130    6.2050   22.5200 C   0  0  0  0  0  0  0  0  0  0  0  0
    7.1170    6.7380   21.2280 C   0  0  0  0  0  0  0  0  0  0  0  0
    9.0700    7.0480   22.7820 C   0  0  1  0  0  0  0  0  0  0  0  0
    8.6330    8.2240   23.4940 O   0  0  0  0  0  0  0  0  0  0  0  0
   10.1670    6.2450   23.4670 C   0  0  0  0  0  0  0  0  0  0  0  0
   10.0650    6.1640   24.8920 O   0  0  0  0  0  0  0  0  0  0  0  0
   11.1530    5.6940   22.6930 N   0  0  0  0  0  0  0  0  0  0  0  0
   12.2430    4.9740   23.3760 C   0  0  0  0  0  0  0  0  0  0  0  0
   12.6430    3.7320   22.6030 C   0  0  0  0  0  0  0  0  0  0  0  0
   11.7510    2.5930   23.1940 C   0  0  0  0  0  0  0  0  0  0  0  0
   10.4880    2.8650   23.9800 C   0  0  0  0  0  0  0  0  0  0  0  0
    9.9060    1.5830   24.3550 N   0  0  0  0  0  0  0  0  0  0  0  0
   10.8340    0.5830   23.7820 C   0  0  0  0  0  0  0  0  0  0  0  0
   10.6800   -0.7890   23.8770 C   0  0  0  0  0  0  0  0  0  0  0  0
   11.5840   -1.6620   23.3050 C   0  0  0  0  0  0  0  0  0  0  0  0
   12.6700   -1.1050   22.6350 C   0  0  0  0  0  0  0  0  0  0  0  0
   13.5540   -1.9060   22.0640 F   0  0  0  0  0  0  0  0  0  0  0  0
   12.8480    0.2860   22.5450 C   0  0  0  0  0  0  0  0  0  0  0  0
   11.9230    1.1740   23.1070 C   0  0  0  0  0  0  0  0  0  0  0  0
  1  2  1  0
  2  3  1  0
  2  4  1  0
  4  5  1  1
  4  6  1  0
  6  7  2  0
  6  8  1  0
  8  9  1  0
  9 10  1  0
 10 11  1  0
 11 12  2  0
 12 13  1  0
 13 14  1  0
 14 15  1  0
 15 16  2  0
 16 17  1  0
 17 18  1  0
 17 19  2  0
 11 20  1  0
 14 20  2  0
 19 20  1  0
M  END
