NAU-LAT-f723e322-1-acrylamide
     RDKit          3D

 27 29  0  0  0  0  0  0  0  0999 V2000
    8.1610   -3.4720   19.7630 C   0  0  0  0  0  0  0  0  0  0  0  0
    6.9750   -2.7510   19.1550 C   0  0  0  0  0  0  0  0  0  0  0  0
    5.9940   -3.3300   20.0780 C   0  0  0  0  0  0  0  0  0  0  0  0
    5.0740   -4.0630   19.7240 O   0  0  0  0  0  0  0  0  0  0  0  0
    6.3080   -3.0300   21.3720 N   0  0  0  0  0  0  0  0  0  0  0  0
    7.4970   -2.1670   21.5960 C   0  0  0  0  0  0  0  0  0  0  0  0
    7.1480   -1.4050   22.8740 C   0  0  0  0  0  0  0  0  0  0  0  0
    7.2370   -2.4120   23.9660 N   0  0  0  0  0  0  0  0  0  0  0  0
    7.2840   -1.8680   25.3250 C   0  0  0  0  0  0  0  0  0  0  0  0
    7.4190   -3.0930   26.3130 C   0  0  0  0  0  0  0  0  0  0  0  0
    8.7690   -3.7430   26.0090 C   0  0  0  0  0  0  0  0  0  0  0  0
    9.2150   -4.9750   26.7910 C   0  0  0  0  0  0  0  0  0  0  0  0
   10.3710   -5.5150   26.5110 F   0  0  0  0  0  0  0  0  0  0  0  0
    8.2650   -5.5160   27.8720 C   0  0  0  0  0  0  0  0  0  0  0  0
    6.9550   -4.7490   28.0440 C   0  0  0  0  0  0  0  0  0  0  0  0
    5.9750   -5.2790   29.1130 C   0  0  0  0  0  0  0  0  0  0  0  0
    4.7580   -5.4460   30.0210 C   0  0  0  0  0  0  0  0  0  0  0  0
    3.9160   -6.4840   29.2760 C   0  0  0  0  0  0  0  0  0  0  0  0
    3.0270   -7.1380   30.0570 N   0  0  0  0  0  0  0  0  0  0  0  0
    2.0540   -6.3950   30.6120 C   0  0  0  0  0  0  0  0  0  0  0  0
    1.2230   -5.4090   29.7490 C   0  0  0  0  0  0  0  0  0  0  0  0
    1.7770   -6.5000   31.9400 O   0  0  0  0  0  0  0  0  0  0  0  0
    5.0230   -4.2310   28.8250 C   0  0  0  0  0  0  0  0  0  0  0  0
    5.3420   -3.3310   27.8540 N   0  0  0  0  0  0  0  0  0  0  0  0
    6.6040   -3.6450   27.3160 C   0  0  0  0  0  0  0  0  0  0  0  0
    6.1550   -3.3780   23.8240 C   0  0  0  0  0  0  0  0  0  0  0  0
    6.2110   -4.0510   22.4650 C   0  0  0  0  0  0  0  0  0  0  0  0
  1  2  1  0
  2  3  1  0
  3  4  2  0
  3  5  1  0
  5  6  1  0
  6  7  1  0
  7  8  1  0
  8  9  1  0
  9 10  1  0
 10 11  2  0
 11 12  1  0
 12 13  1  0
 12 14  2  0
 14 15  1  0
 15 16  1  0
 16 17  1  0
 17 18  1  0
 18 19  1  0
 19 20  1  0
 20 21  1  0
 20 22  2  0
 16 23  2  0
 23 24  1  0
 10 25  1  0
 15 25  2  0
 24 25  1  0
  8 26  1  0
  5 27  1  0
 26 27  1  0
M  END
