NAU-LAT-81109c57-3
     RDKit          3D

 26 28  0  0  0  0  0  0  0  0999 V2000
    8.9590    6.6360   22.5000 C   0  0  0  0  0  0  0  0  0  0  0  0
   10.1450    6.2320   23.3330 C   0  0  0  0  0  0  0  0  0  0  0  0
   10.1730    6.4630   24.5450 O   0  0  0  0  0  0  0  0  0  0  0  0
   11.1830    5.5980   22.6890 N   0  0  0  0  0  0  0  0  0  0  0  0
   12.2860    4.9840   23.4250 C   0  0  0  0  0  0  0  0  0  0  0  0
   12.6990    3.7780   22.5890 C   0  0  0  0  0  0  0  0  0  0  0  0
   11.7450    2.7260   23.1890 C   0  0  0  0  0  0  0  0  0  0  0  0
   10.5060    3.1080   23.9330 C   0  0  0  0  0  0  0  0  0  0  0  0
    9.9330    1.7750   24.2770 N   0  0  0  0  0  0  0  0  0  0  0  0
   10.8670    0.7250   23.7120 C   0  0  0  0  0  0  0  0  0  0  0  0
   10.6060   -0.7800   23.8440 C   0  0  0  0  0  0  0  0  0  0  0  0
    9.3620   -1.1560   24.5690 N   0  0  0  0  0  0  0  0  0  0  0  0
    8.1110   -1.9100   23.6770 S   0  0  0  0  0  0  0  0  0  0  0  0
    6.9380   -1.9760   24.5220 O   0  0  0  0  0  0  0  0  0  0  0  0
    8.6870   -3.1080   23.1060 O   0  0  0  0  0  0  0  0  0  0  0  0
    7.7740   -0.7480   22.3630 C   0  0  0  0  0  0  0  0  0  0  0  0
    8.0430    0.7290   22.5040 C   0  0  0  0  0  0  0  0  0  0  0  0
    7.7560    1.5930   21.4300 C   0  0  0  0  0  0  0  0  0  0  0  0
    7.2230    1.0840   20.2390 C   0  0  0  0  0  0  0  0  0  0  0  0
    6.9760   -0.2840   20.1170 C   0  0  0  0  0  0  0  0  0  0  0  0
    7.2430   -1.1730   21.1520 C   0  0  0  0  0  0  0  0  0  0  0  0
   11.5330   -1.6560   23.2790 C   0  0  0  0  0  0  0  0  0  0  0  0
   12.6520   -1.1100   22.6350 C   0  0  0  0  0  0  0  0  0  0  0  0
   13.5010   -2.0190   22.1100 F   0  0  0  0  0  0  0  0  0  0  0  0
   12.9050    0.2830   22.5190 C   0  0  0  0  0  0  0  0  0  0  0  0
   12.0140    1.2150   23.0390 C   0  0  0  0  0  0  0  0  0  0  0  0
  1  2  1  0
  2  3  2  0
  2  4  1  0
  4  5  1  0
  5  6  1  0
  6  7  1  0
  7  8  2  0
  8  9  1  0
  9 10  1  0
 10 11  1  0
 11 12  1  0
 13 12  1  0
 13 14  2  0
 13 15  2  0
 13 16  1  0
 16 17  2  0
 17 18  1  0
 18 19  2  0
 19 20  1  0
 16 21  1  0
 20 21  2  0
 11 22  2  0
 22 23  1  0
 23 24  1  0
 23 25  2  0
  7 26  1  0
 10 26  2  0
 25 26  1  0
M  END
