NAU-LAT-ec9c7557-1
     RDKit          3D

 22 24  0  0  0  0  0  0  0  0999 V2000
   -0.6590    1.9450   20.6930 C   0  0  0  0  0  0  0  0  0  0  0  0
   -0.4820    3.4210   20.3530 C   0  0  0  0  0  0  0  0  0  0  0  0
   -1.4390    4.1160   20.0410 O   0  0  0  0  0  0  0  0  0  0  0  0
    0.9230    3.8150   20.4620 N   0  0  0  0  0  0  0  0  0  0  0  0
    1.9010    2.8210   20.4700 C   0  0  0  0  0  0  0  0  0  0  0  0
    2.9600    2.5560   19.4690 C   0  0  0  0  0  0  0  0  0  0  0  0
    4.1280    1.4560   19.3220 C   0  0  0  0  0  0  0  0  0  0  0  0
    3.9120    0.6680   20.5120 C   0  0  0  0  0  0  0  0  0  0  0  0
    4.8500    0.0710   20.0260 O   0  0  0  0  0  0  0  0  0  0  0  0
    5.1120    0.7070   18.8200 C   0  0  0  0  0  0  0  0  0  0  0  0
    6.1640    0.1190   17.9610 C   0  0  0  0  0  0  0  0  0  0  0  0
    6.6200   -1.2960   18.2130 C   0  0  0  0  0  0  0  0  0  0  0  0
    7.6600   -1.7450   17.2860 C   0  0  0  0  0  0  0  0  0  0  0  0
    8.2500   -0.9690   16.2100 C   0  0  0  0  0  0  0  0  0  0  0  0
    7.8120    0.2900   16.0110 C   0  0  0  0  0  0  0  0  0  0  0  0
    6.7490    0.8410   16.9000 C   0  0  0  0  0  0  0  0  0  0  0  0
    4.4160    1.8570   18.4240 C   0  0  0  0  0  0  0  0  0  0  0  0
    4.7080    2.4840   17.2580 O   0  0  0  0  0  0  0  0  0  0  0  0
    3.3880    2.3990   19.2150 C   0  0  0  0  0  0  0  0  0  0  0  0
    2.7930    3.4340   18.9020 O   0  0  0  0  0  0  0  0  0  0  0  0
    3.1340    1.5420   20.4750 C   0  0  0  0  0  0  0  0  0  0  0  0
    2.0780    1.9350   21.3260 C   0  0  0  0  0  0  0  0  0  0  0  0
  1  2  1  0
  2  3  2  0
  2  4  1  0
  4  5  1  0
  5  6  2  0
  6  7  1  0
  7  8  2  0
  8  9  1  0
  9 10  1  0
 10 11  1  0
 11 12  2  0
 12 13  1  0
 13 14  2  0
 14 15  1  0
 11 16  1  0
 15 16  2  0
 10 17  2  0
 17 18  1  0
 17 19  1  0
 19 20  2  0
  8 21  1  0
 19 21  1  0
  5 22  1  0
 21 22  2  0
M  END
