NAU-LAT-ec9c7557-3
     RDKit          3D

 26 29  0  0  0  0  0  0  0  0999 V2000
   12.8930   -1.9450   24.6340 C   0  0  0  0  0  0  0  0  0  0  0  0
   11.7200   -1.3790   24.1590 N   0  0  0  0  0  0  0  0  0  0  0  0
   11.0460   -2.2470   23.3030 C   0  0  0  0  0  0  0  0  0  0  0  0
   10.1290   -1.5070   22.3690 C   0  0  0  0  0  0  0  0  0  0  0  0
    9.7740   -0.1940   22.6380 N   0  0  0  0  0  0  0  0  0  0  0  0
    8.8890    0.3940   21.6140 C   0  0  0  0  0  0  0  0  0  0  0  0
    8.9960    1.5810   21.2420 O   0  0  0  0  0  0  0  0  0  0  0  0
    7.9240   -0.5310   21.1040 C   0  0  0  0  0  0  0  0  0  0  0  0
    7.2470   -0.0280   19.9450 O   0  0  0  0  0  0  0  0  0  0  0  0
    5.9350    0.4470   20.0360 C   0  0  0  0  0  0  0  0  0  0  0  0
    5.1790    0.3920   21.2190 C   0  0  0  0  0  0  0  0  0  0  0  0
    3.8040    0.8640   21.4540 C   0  0  0  0  0  0  0  0  0  0  0  0
    3.1920    1.4650   20.2470 C   0  0  0  0  0  0  0  0  0  0  0  0
    4.2070    1.3890   19.1820 C   0  0  0  0  0  0  0  0  0  0  0  0
    5.3830    1.0230   18.8420 C   0  0  0  0  0  0  0  0  0  0  0  0
    6.0520    1.0560   17.8740 C   0  0  0  0  0  0  0  0  0  0  0  0
    6.6510    0.4910   18.8760 N   0  0  0  0  0  0  0  0  0  0  0  0
    5.3840    0.6920   19.8070 N   0  0  0  0  0  0  0  0  0  0  0  0
    5.4760    0.1770   21.0990 C   0  0  0  0  0  0  0  0  0  0  0  0
    5.2980   -1.3750   21.0640 C   0  0  0  0  0  0  0  0  0  0  0  0
    5.3430   -2.1410   22.2150 C   0  0  0  0  0  0  0  0  0  0  0  0
    5.5740   -1.4730   23.5880 C   0  0  0  0  0  0  0  0  0  0  0  0
    5.7590    0.0460   23.6970 C   0  0  0  0  0  0  0  0  0  0  0  0
    5.7130    0.9040   22.4410 C   0  0  0  0  0  0  0  0  0  0  0  0
   10.8030    0.6480   23.2680 C   0  0  0  0  0  0  0  0  0  0  0  0
   11.9790   -0.0690   23.5320 C   0  0  0  0  0  0  0  0  0  0  0  0
  1  2  1  0
  2  3  1  0
  3  4  1  0
  4  5  1  0
  5  6  1  0
  6  7  2  0
  6  8  1  0
  8  9  1  0
  9 10  1  0
 10 11  2  0
 11 12  1  0
 12 13  2  0
 13 14  1  0
 10 15  1  0
 14 15  2  0
 15 16  1  0
 16 17  2  0
 14 18  1  0
 17 18  1  0
 18 19  1  0
 19 20  2  0
 20 21  1  0
 21 22  2  0
 22 23  1  0
 19 24  1  0
 23 24  2  0
  5 25  1  0
  2 26  1  0
 25 26  1  0
M  END
