NEH-REV-107bcf72-4-nitrile
     RDKit          3D

 18 19  0  0  0  0  0  0  0  0999 V2000
    6.7140   -3.6720   20.0280 C   0  0  0  0  0  0  0  0  0  0  0  0
    5.7520   -4.5070   19.8990 N   0  0  0  0  0  0  0  0  0  0  0  0
    6.7580   -2.7620   21.0720 N   0  0  0  0  0  0  0  0  0  0  0  0
    6.3500   -3.2720   22.3970 C   0  0  0  0  0  0  0  0  0  0  0  0
    7.6320   -3.4490   23.2650 C   0  0  0  0  0  0  0  0  0  0  0  0
    8.4130   -2.2000   23.2910 N   0  0  0  0  0  0  0  0  0  0  0  0
    9.6130   -2.2460   24.1360 C   0  0  0  0  0  0  0  0  0  0  0  0
   10.7680   -1.3620   23.7060 C   0  0  0  0  0  0  0  0  0  0  0  0
   10.6040    0.1120   23.9810 C   0  0  0  0  0  0  0  0  0  0  0  0
   11.5740    1.0300   23.6290 C   0  0  0  0  0  0  0  0  0  0  0  0
   11.4110    2.3710   23.8600 O   0  0  0  0  0  0  0  0  0  0  0  0
   12.8900    0.5340   22.9350 C   0  0  0  0  0  0  0  0  0  0  0  0
   12.9900   -0.8250   22.7050 C   0  0  0  0  0  0  0  0  0  0  0  0
   11.9130   -1.8270   23.0940 C   0  0  0  0  0  0  0  0  0  0  0  0
   12.0610   -3.0080   22.8740 O   0  0  0  0  0  0  0  0  0  0  0  0
    8.6230   -1.6520   21.9440 C   0  0  0  0  0  0  0  0  0  0  0  0
    7.3770   -1.5910   21.0800 C   0  0  2  0  0  0  0  0  0  0  0  0
    6.4700   -0.5700   21.5120 O   0  0  0  0  0  0  0  0  0  0  0  0
  1  2  2  3
  1  3  1  0
  3  4  1  0
  4  5  1  0
  5  6  1  0
  6  7  1  0
  7  8  1  0
  8  9  2  0
  9 10  1  0
 10 11  1  0
 10 12  2  0
 12 13  1  0
  8 14  1  0
 13 14  2  0
 14 15  1  0
  6 16  1  0
  3 17  1  0
 16 17  1  0
 17 18  1  1
M  END
