NEH-REV-107bcf72-1-chloroacetamide
     RDKit          3D

 23 25  0  0  0  0  0  0  0  0999 V2000
    7.1120   -3.0040   18.8790 C   0  0  0  0  0  0  0  0  0  0  0  0
    6.2090   -3.4150   20.0050 C   0  0  0  0  0  0  0  0  0  0  0  0
    5.3260   -4.2540   19.7900 O   0  0  0  0  0  0  0  0  0  0  0  0
    6.4100   -2.8570   21.2620 N   0  0  0  0  0  0  0  0  0  0  0  0
    6.2800   -3.5930   22.5200 C   0  0  0  0  0  0  0  0  0  0  0  0
    7.5490   -3.5840   23.4180 C   0  0  0  0  0  0  0  0  0  0  0  0
    8.3060   -2.2900   23.5910 N   0  0  0  0  0  0  0  0  0  0  0  0
    9.7480   -2.5930   23.7650 C   0  0  0  0  0  0  0  0  0  0  0  0
   10.7620   -1.4810   23.5270 C   0  0  0  0  0  0  0  0  0  0  0  0
   10.5980   -0.1770   23.9900 C   0  0  0  0  0  0  0  0  0  0  0  0
   11.6980    0.9020   23.6720 C   0  0  0  0  0  0  0  0  0  0  0  0
   11.5600    2.0370   24.0480 O   0  0  0  0  0  0  0  0  0  0  0  0
   12.8060    0.5570   22.9680 C   0  0  0  0  0  0  0  0  0  0  0  0
   12.9980   -0.8370   22.4690 C   0  0  0  0  0  0  0  0  0  0  0  0
   11.8890   -1.8670   22.7920 C   0  0  0  0  0  0  0  0  0  0  0  0
   11.9940   -3.0000   22.4140 O   0  0  0  0  0  0  0  0  0  0  0  0
    7.9560   -1.3800   22.7030 C   0  0  0  0  0  0  0  0  0  0  0  0
    8.4180   -0.0860   22.7860 C   0  0  0  0  0  0  0  0  0  0  0  0
    8.1760    1.0180   21.9980 N   0  0  0  0  0  0  0  0  0  0  0  0
    7.3140    0.8410   20.9150 C   0  0  0  0  0  0  0  0  0  0  0  0
    7.0180    1.8790   20.1060 N   0  0  0  0  0  0  0  0  0  0  0  0
    6.7450   -0.3890   20.6520 C   0  0  0  0  0  0  0  0  0  0  0  0
    7.0250   -1.5820   21.5300 C   0  0  0  0  0  0  0  0  0  0  0  0
  1  2  1  0
  2  3  2  0
  2  4  1  0
  4  5  1  0
  5  6  1  0
  6  7  1  0
  7  8  1  0
  8  9  1  0
  9 10  2  0
 10 11  1  0
 11 12  1  0
 11 13  2  0
 13 14  1  0
  9 15  1  0
 14 15  2  0
 15 16  1  0
  7 17  1  0
 17 18  1  0
 18 19  2  0
 19 20  1  0
 20 21  1  0
 20 22  2  0
  4 23  1  0
 17 23  2  0
 22 23  1  0
M  END
