NEH-REV-107bcf72-2-nitrile
     RDKit          3D

 22 24  0  0  0  0  0  0  0  0999 V2000
    6.5260   -4.5770   19.8770 C   0  0  0  0  0  0  0  0  0  0  0  0
    5.9190   -5.7010   19.9900 N   0  0  0  0  0  0  0  0  0  0  0  0
    6.4480   -3.6430   20.8270 N   0  0  0  0  0  0  0  0  0  0  0  0
    7.6010   -3.5690   21.7020 C   0  0  0  0  0  0  0  0  0  0  0  0
    8.4440   -2.3650   21.1140 C   0  0  0  0  0  0  0  0  0  0  0  0
    8.1240   -1.3550   21.9820 N   0  0  0  0  0  0  0  0  0  0  0  0
    9.1480   -1.8890   22.8920 C   0  0  1  0  0  0  0  0  0  0  0  0
   10.2360   -0.8890   23.0650 C   0  0  0  0  0  0  0  0  0  0  0  0
   11.6040   -1.2870   22.5410 C   0  0  0  0  0  0  0  0  0  0  0  0
   12.6790   -0.4620   22.6110 C   0  0  0  0  0  0  0  0  0  0  0  0
   12.4960    0.9420   23.2410 C   0  0  0  0  0  0  0  0  0  0  0  0
   11.2400    1.2870   23.7110 C   0  0  0  0  0  0  0  0  0  0  0  0
   11.1160    2.3900   24.1830 O   0  0  0  0  0  0  0  0  0  0  0  0
   10.0340    0.3460   23.6400 C   0  0  0  0  0  0  0  0  0  0  0  0
    8.7970   -3.0150   23.9480 C   0  0  0  0  0  0  0  0  0  0  0  0
    7.3380   -3.0850   24.1430 C   0  0  0  0  0  0  0  0  0  0  0  0
    6.7490   -3.9700   24.9860 C   0  0  0  0  0  0  0  0  0  0  0  0
    7.6760   -4.8550   25.6990 N   0  0  0  0  0  0  0  0  0  0  0  0
    9.0540   -4.7280   25.4500 C   0  0  0  0  0  0  0  0  0  0  0  0
    9.6060   -3.9680   24.7220 N   0  0  0  0  0  0  0  0  0  0  0  0
    6.6570   -1.5850   21.9110 C   0  0  0  0  0  0  0  0  0  0  0  0
    6.2860   -2.2410   20.5440 C   0  0  0  0  0  0  0  0  0  0  0  0
  1  2  2  3
  1  3  1  0
  3  4  1  0
  4  5  1  0
  5  6  1  0
  6  7  1  0
  7  8  1  1
  8  9  2  0
  9 10  1  0
 10 11  2  0
 11 12  1  0
 12 13  1  0
  8 14  1  0
 12 14  2  0
  7 15  1  0
 15 16  2  0
 16 17  1  0
 17 18  2  0
 18 19  1  0
 15 20  1  0
 19 20  2  0
  6 21  1  0
  3 22  1  0
 21 22  1  0
M  END
