NEH-REV-107bcf72-1-vinylsulfonamide
     RDKit          3D

 25 27  0  0  0  0  0  0  0  0999 V2000
    7.8610   -4.1180   20.1620 C   0  0  0  0  0  0  0  0  0  0  0  0
    6.9800   -3.0560   19.6370 C   0  0  0  0  0  0  0  0  0  0  0  0
    5.5150   -3.3970   20.5270 S   0  0  0  0  0  0  0  0  0  0  0  0
    4.4990   -3.0480   19.6270 O   0  0  0  0  0  0  0  0  0  0  0  0
    5.4080   -4.6980   21.1470 O   0  0  0  0  0  0  0  0  0  0  0  0
    5.7110   -2.4180   21.8630 N   0  0  0  0  0  0  0  0  0  0  0  0
    5.9600   -3.1930   23.0870 C   0  0  0  0  0  0  0  0  0  0  0  0
    7.4520   -3.4200   23.4370 C   0  0  0  0  0  0  0  0  0  0  0  0
    8.3040   -2.1960   23.5400 N   0  0  0  0  0  0  0  0  0  0  0  0
    9.7370   -2.5720   23.6500 C   0  0  0  0  0  0  0  0  0  0  0  0
   10.7570   -1.4500   23.4630 C   0  0  0  0  0  0  0  0  0  0  0  0
   10.5870   -0.1640   23.9560 C   0  0  0  0  0  0  0  0  0  0  0  0
   11.6950    0.9210   23.6790 C   0  0  0  0  0  0  0  0  0  0  0  0
   11.5250    2.0270   24.0870 O   0  0  0  0  0  0  0  0  0  0  0  0
   12.8280    0.6340   22.9860 C   0  0  0  0  0  0  0  0  0  0  0  0
   13.0270   -0.7510   22.4560 C   0  0  0  0  0  0  0  0  0  0  0  0
   11.9040   -1.7750   22.7430 C   0  0  0  0  0  0  0  0  0  0  0  0
   12.0770   -3.0090   22.2660 O   0  0  0  0  0  0  0  0  0  0  0  0
    7.9270   -1.2800   22.6490 C   0  0  0  0  0  0  0  0  0  0  0  0
    8.6530   -0.1360   22.4210 C   0  0  0  0  0  0  0  0  0  0  0  0
    8.4280    0.9310   21.5800 N   0  0  0  0  0  0  0  0  0  0  0  0
    7.2740    0.8740   20.7950 C   0  0  0  0  0  0  0  0  0  0  0  0
    6.9740    1.8700   19.9460 N   0  0  0  0  0  0  0  0  0  0  0  0
    6.4090   -0.1860   20.8670 C   0  0  0  0  0  0  0  0  0  0  0  0
    6.6640   -1.3350   21.7960 C   0  0  0  0  0  0  0  0  0  0  0  0
  1  2  1  0
  3  2  1  0
  3  4  2  0
  3  5  2  0
  3  6  1  0
  6  7  1  0
  7  8  1  0
  8  9  1  0
  9 10  1  0
 10 11  1  0
 11 12  2  0
 12 13  1  0
 13 14  1  0
 13 15  2  0
 15 16  1  0
 11 17  1  0
 16 17  2  0
 17 18  1  0
  9 19  1  0
 19 20  1  0
 20 21  2  0
 21 22  1  0
 22 23  1  0
 22 24  2  0
  6 25  1  0
 19 25  2  0
 24 25  1  0
M  END
