NEH-REV-107bcf72-2-acrylamide
     RDKit          3D

 24 26  0  0  0  0  0  0  0  0999 V2000
    7.3350   -3.0180   18.5320 C   0  0  0  0  0  0  0  0  0  0  0  0
    6.7110   -1.9590   19.3950 C   0  0  0  0  0  0  0  0  0  0  0  0
    6.0400   -2.5420   20.6080 C   0  0  0  0  0  0  0  0  0  0  0  0
    5.0700   -3.3270   20.5110 O   0  0  0  0  0  0  0  0  0  0  0  0
    6.6140   -2.1500   21.7980 N   0  0  0  0  0  0  0  0  0  0  0  0
    6.3580   -2.9660   22.9790 C   0  0  0  0  0  0  0  0  0  0  0  0
    7.5610   -3.7580   23.4450 C   0  0  0  0  0  0  0  0  0  0  0  0
    8.8330   -3.0520   23.2080 N   0  0  0  0  0  0  0  0  0  0  0  0
    9.5540   -2.5060   24.3650 C   0  0  1  0  0  0  0  0  0  0  0  0
   10.5430   -1.6270   23.8980 C   0  0  0  0  0  0  0  0  0  0  0  0
   10.4820   -0.1730   24.5110 C   0  0  0  0  0  0  0  0  0  0  0  0
   11.4720    0.6920   24.0620 C   0  0  0  0  0  0  0  0  0  0  0  0
   12.5580    0.3140   23.0530 C   0  0  0  0  0  0  0  0  0  0  0  0
   12.6000   -1.1360   22.4460 C   0  0  0  0  0  0  0  0  0  0  0  0
   13.4360   -1.5010   21.6330 O   0  0  0  0  0  0  0  0  0  0  0  0
   11.5110   -2.0380   22.9610 C   0  0  0  0  0  0  0  0  0  0  0  0
    8.8170   -2.1010   25.4990 C   0  0  0  0  0  0  0  0  0  0  0  0
    7.7660   -2.9290   25.9930 C   0  0  0  0  0  0  0  0  0  0  0  0
    7.0300   -2.5740   27.1020 C   0  0  0  0  0  0  0  0  0  0  0  0
    7.2760   -1.3330   27.8400 N   0  0  0  0  0  0  0  0  0  0  0  0
    8.3700   -0.5480   27.2660 C   0  0  0  0  0  0  0  0  0  0  0  0
    9.1220   -0.8460   26.1870 N   0  0  0  0  0  0  0  0  0  0  0  0
    8.9520   -2.2010   22.0220 C   0  0  0  0  0  0  0  0  0  0  0  0
    7.8540   -1.3600   21.7790 C   0  0  0  0  0  0  0  0  0  0  0  0
  1  2  1  0
  2  3  1  0
  3  4  2  0
  3  5  1  0
  5  6  1  0
  6  7  1  0
  7  8  1  0
  8  9  1  0
  9 10  1  6
 10 11  2  0
 11 12  1  0
 12 13  2  0
 13 14  1  0
 14 15  1  0
 10 16  1  0
 14 16  2  0
  9 17  1  0
 17 18  2  0
 18 19  1  0
 19 20  2  0
 20 21  1  0
 17 22  1  0
 21 22  2  0
  8 23  1  0
  5 24  1  0
 23 24  1  0
M  END
