NEH-REV-107bcf72-3-acrylamide
     RDKit          3D

 21 23  0  0  0  0  0  0  0  0999 V2000
    7.7840   -3.3970   19.7200 C   0  0  0  0  0  0  0  0  0  0  0  0
    6.7360   -2.6510   18.9270 C   0  0  0  0  0  0  0  0  0  0  0  0
    6.0930   -3.0390   20.2250 C   0  0  0  0  0  0  0  0  0  0  0  0
    5.2490   -3.9440   20.2490 O   0  0  0  0  0  0  0  0  0  0  0  0
    6.4940   -2.3720   21.3890 N   0  0  0  0  0  0  0  0  0  0  0  0
    6.2490   -3.0810   22.6640 C   0  0  0  0  0  0  0  0  0  0  0  0
    7.5000   -3.3040   23.5150 C   0  0  0  0  0  0  0  0  0  0  0  0
    8.4490   -2.2050   23.3030 N   0  0  0  0  0  0  0  0  0  0  0  0
    9.6710   -2.2900   24.0880 C   0  0  0  0  0  0  0  0  0  0  0  0
   10.5680   -1.2970   23.7710 C   0  0  0  0  0  0  0  0  0  0  0  0
   11.8410   -1.8370   23.0050 C   0  0  0  0  0  0  0  0  0  0  0  0
   12.7730   -0.8640   22.6610 C   0  0  0  0  0  0  0  0  0  0  0  0
   13.7220   -1.3470   22.0670 O   0  0  0  0  0  0  0  0  0  0  0  0
   12.5970    0.6210   23.0000 C   0  0  0  0  0  0  0  0  0  0  0  0
   11.3110    1.1010   23.7530 C   0  0  0  0  0  0  0  0  0  0  0  0
   10.3660    0.0420   24.0860 C   0  0  0  0  0  0  0  0  0  0  0  0
    9.2840    0.6430   24.7380 O   0  0  0  0  0  0  0  0  0  0  0  0
    9.4890    2.0300   24.4350 C   0  0  0  0  0  0  0  0  0  0  0  0
   10.8900    2.3430   24.1630 O   0  0  0  0  0  0  0  0  0  0  0  0
    8.7500   -2.0490   22.0530 C   0  0  0  0  0  0  0  0  0  0  0  0
    7.7080   -1.5100   21.3430 C   0  0  0  0  0  0  0  0  0  0  0  0
  1  2  1  0
  2  3  1  0
  3  4  2  0
  3  5  1  0
  5  6  1  0
  6  7  1  0
  7  8  1  0
  8  9  1  0
  9 10  1  0
 10 11  2  0
 11 12  1  0
 12 13  1  0
 12 14  2  0
 14 15  1  0
 10 16  1  0
 15 16  2  0
 16 17  1  0
 17 18  1  0
 15 19  1  0
 18 19  1  0
  8 20  1  0
  5 21  1  0
 20 21  1  0
M  END
