NEH-REV-107bcf72-4-acrylamide
     RDKit          3D

 20 21  0  0  0  0  0  0  0  0999 V2000
    7.5810   -3.2040   19.1750 C   0  0  0  0  0  0  0  0  0  0  0  0
    6.3130   -2.4700   19.4990 C   0  0  0  0  0  0  0  0  0  0  0  0
    5.9990   -2.8160   20.9260 C   0  0  0  0  0  0  0  0  0  0  0  0
    5.1110   -3.5850   21.2630 O   0  0  0  0  0  0  0  0  0  0  0  0
    6.8270   -2.2170   21.8410 N   0  0  0  0  0  0  0  0  0  0  0  0
    8.0350   -1.5080   21.4930 C   0  0  0  0  0  0  0  0  0  0  0  0
    9.2020   -2.1870   22.1270 C   0  0  0  0  0  0  0  0  0  0  0  0
    9.1430   -2.9600   23.2630 N   0  0  0  0  0  0  0  0  0  0  0  0
    9.7680   -2.3670   24.3360 C   0  0  0  0  0  0  0  0  0  0  0  0
   10.6940   -1.3960   23.9010 C   0  0  0  0  0  0  0  0  0  0  0  0
   10.3490   -0.0270   23.9750 C   0  0  0  0  0  0  0  0  0  0  0  0
   11.2970    1.0560   23.5250 C   0  0  0  0  0  0  0  0  0  0  0  0
   10.8360    2.4050   23.6390 O   0  0  0  0  0  0  0  0  0  0  0  0
   12.6310    0.5810   22.9930 C   0  0  0  0  0  0  0  0  0  0  0  0
   12.9120   -0.9040   22.9460 C   0  0  0  0  0  0  0  0  0  0  0  0
   11.9590   -1.8220   23.3980 C   0  0  0  0  0  0  0  0  0  0  0  0
   12.2650   -3.1310   23.3550 O   0  0  0  0  0  0  0  0  0  0  0  0
    7.7950   -3.4990   23.6060 C   0  0  0  0  0  0  0  0  0  0  0  0
    6.7560   -2.6300   23.2360 C   0  0  2  0  0  0  0  0  0  0  0  0
    5.4710   -3.0520   23.4360 O   0  0  0  0  0  0  0  0  0  0  0  0
  1  2  1  0
  2  3  1  0
  3  4  2  0
  3  5  1  0
  5  6  1  0
  6  7  1  0
  7  8  1  0
  8  9  1  0
  9 10  1  0
 10 11  2  0
 11 12  1  0
 12 13  1  0
 12 14  2  0
 14 15  1  0
 10 16  1  0
 15 16  2  0
 16 17  1  0
  8 18  1  0
  5 19  1  0
 18 19  1  0
 19 20  1  6
M  END
