NEH-REV-107bcf72-5-vinylsulfonamide
     RDKit          3D

 20 21  0  0  0  0  0  0  0  0999 V2000
    7.9190   -3.3830   19.6600 C   0  0  0  0  0  0  0  0  0  0  0  0
    6.9900   -2.5070   18.8790 C   0  0  0  0  0  0  0  0  0  0  0  0
    5.6200   -2.5730   19.9290 S   0  0  0  0  0  0  0  0  0  0  0  0
    5.1030   -3.9280   19.8390 O   0  0  0  0  0  0  0  0  0  0  0  0
    4.8500   -1.3690   19.7400 O   0  0  0  0  0  0  0  0  0  0  0  0
    6.4860   -2.3270   21.3610 N   0  0  0  0  0  0  0  0  0  0  0  0
    6.2790   -3.2170   22.4840 C   0  0  0  0  0  0  0  0  0  0  0  0
    7.5280   -3.4000   23.3640 C   0  0  0  0  0  0  0  0  0  0  0  0
    8.4920   -2.2520   23.3230 N   0  0  0  0  0  0  0  0  0  0  0  0
    9.6580   -2.1200   24.1300 C   0  0  0  0  0  0  0  0  0  0  0  0
   10.6750   -1.2640   23.7210 C   0  0  0  0  0  0  0  0  0  0  0  0
   10.6010    0.0870   23.9990 C   0  0  0  0  0  0  0  0  0  0  0  0
   11.5600    1.0510   23.6450 C   0  0  0  0  0  0  0  0  0  0  0  0
   11.3460    2.2090   23.9410 O   0  0  0  0  0  0  0  0  0  0  0  0
   12.8040    0.6900   22.9180 C   0  0  0  0  0  0  0  0  0  0  0  0
   12.9350   -0.7780   22.5780 C   0  0  0  0  0  0  0  0  0  0  0  0
   11.8190   -1.7170   23.0130 C   0  0  0  0  0  0  0  0  0  0  0  0
   12.0120   -3.0300   22.6660 O   0  0  0  0  0  0  0  0  0  0  0  0
    8.6730   -1.7480   21.9600 C   0  0  0  0  0  0  0  0  0  0  0  0
    7.4570   -1.2470   21.5000 C   0  0  0  0  0  0  0  0  0  0  0  0
  1  2  1  0
  3  2  1  0
  3  4  2  0
  3  5  2  0
  3  6  1  0
  6  7  1  0
  7  8  1  0
  8  9  1  0
  9 10  1  0
 10 11  1  0
 11 12  2  0
 12 13  1  0
 13 14  1  0
 13 15  2  0
 15 16  1  0
 11 17  1  0
 16 17  2  0
 17 18  1  0
  9 19  1  0
  6 20  1  0
 19 20  1  0
M  END
