NEH-REV-107bcf72-4-chloroacetamide
     RDKit          3D

 19 20  0  0  0  0  0  0  0  0999 V2000
    7.3230   -3.0090   18.8590 C   0  0  0  0  0  0  0  0  0  0  0  0
    6.4450   -3.3720   20.0190 C   0  0  0  0  0  0  0  0  0  0  0  0
    5.5150   -4.1770   19.8300 O   0  0  0  0  0  0  0  0  0  0  0  0
    6.7940   -2.7620   21.2320 N   0  0  0  0  0  0  0  0  0  0  0  0
    6.3430   -3.2510   22.5240 C   0  0  0  0  0  0  0  0  0  0  0  0
    7.4770   -3.4270   23.5470 C   0  0  0  0  0  0  0  0  0  0  0  0
    8.6220   -2.4610   23.3790 N   0  0  0  0  0  0  0  0  0  0  0  0
    9.6400   -2.0910   24.2990 C   0  0  0  0  0  0  0  0  0  0  0  0
   10.6460   -1.2220   23.8760 C   0  0  0  0  0  0  0  0  0  0  0  0
   10.4800    0.1720   24.0420 C   0  0  0  0  0  0  0  0  0  0  0  0
   11.4810    1.0910   23.6260 C   0  0  0  0  0  0  0  0  0  0  0  0
   11.2610    2.2820   23.7990 O   0  0  0  0  0  0  0  0  0  0  0  0
   12.7560    0.6450   22.9940 C   0  0  0  0  0  0  0  0  0  0  0  0
   12.9550   -0.8280   22.8000 C   0  0  0  0  0  0  0  0  0  0  0  0
   11.8310   -1.7180   23.2850 C   0  0  0  0  0  0  0  0  0  0  0  0
   12.0560   -3.1060   23.1060 O   0  0  0  0  0  0  0  0  0  0  0  0
    8.9500   -2.1370   21.9950 C   0  0  0  0  0  0  0  0  0  0  0  0
    7.7960   -1.6870   21.3470 C   0  0  2  0  0  0  0  0  0  0  0  0
    7.2110   -0.7290   22.2180 O   0  0  0  0  0  0  0  0  0  0  0  0
  1  2  1  0
  2  3  2  0
  2  4  1  0
  4  5  1  0
  5  6  1  0
  6  7  1  0
  7  8  1  0
  8  9  1  0
  9 10  2  0
 10 11  1  0
 11 12  1  0
 11 13  2  0
 13 14  1  0
  9 15  1  0
 14 15  2  0
 15 16  1  0
  7 17  1  0
  4 18  1  0
 17 18  1  0
 18 19  1  1
M  END
