NEH-REV-107bcf72-3-nitrile
     RDKit          3D

 19 21  0  0  0  0  0  0  0  0999 V2000
    6.6440   -3.7620   20.0850 C   0  0  0  0  0  0  0  0  0  0  0  0
    5.6700   -4.5780   19.9340 N   0  0  0  0  0  0  0  0  0  0  0  0
    6.6520   -2.8570   21.1370 N   0  0  0  0  0  0  0  0  0  0  0  0
    7.2900   -1.5200   21.0370 C   0  0  0  0  0  0  0  0  0  0  0  0
    8.5590   -1.5310   21.9390 C   0  0  0  0  0  0  0  0  0  0  0  0
    8.2970   -2.1700   23.2460 N   0  0  0  0  0  0  0  0  0  0  0  0
    9.5080   -2.3060   24.0660 C   0  0  0  0  0  0  0  0  0  0  0  0
   10.6290   -1.3740   23.6510 C   0  0  0  0  0  0  0  0  0  0  0  0
   10.4950    0.0690   24.0740 C   0  0  0  0  0  0  0  0  0  0  0  0
   11.4450    1.0160   23.7350 C   0  0  0  0  0  0  0  0  0  0  0  0
   11.3220    2.3200   24.0760 O   0  0  0  0  0  0  0  0  0  0  0  0
   12.7080    0.6090   22.9150 C   0  0  0  0  0  0  0  0  0  0  0  0
   12.7470   -0.7100   22.5660 C   0  0  0  0  0  0  0  0  0  0  0  0
   11.7330   -1.7320   22.9150 C   0  0  0  0  0  0  0  0  0  0  0  0
   11.9970   -2.8170   22.4870 O   0  0  0  0  0  0  0  0  0  0  0  0
   12.9510   -2.3450   21.4710 C   0  0  0  0  0  0  0  0  0  0  0  0
   13.6900   -1.3940   21.8180 O   0  0  0  0  0  0  0  0  0  0  0  0
    7.5610   -3.4310   23.1130 C   0  0  0  0  0  0  0  0  0  0  0  0
    6.4040   -3.2560   22.3680 C   0  0  0  0  0  0  0  0  0  0  0  0
  1  2  2  3
  1  3  1  0
  3  4  1  0
  4  5  1  0
  5  6  1  0
  6  7  1  0
  7  8  1  0
  8  9  2  0
  9 10  1  0
 10 11  1  0
 10 12  2  0
 12 13  1  0
  8 14  1  0
 13 14  2  0
 14 15  1  0
 15 16  1  0
 13 17  1  0
 16 17  1  0
  6 18  1  0
  3 19  1  0
 18 19  1  0
M  END
