NEL-UNI-1464a899-3-vinylsulfonamide
     RDKit          3D

 21 21  0  0  0  0  0  0  0  0999 V2000
    7.7410   -3.1250   20.8950 C   0  0  0  0  0  0  0  0  0  0  0  0
    7.2460   -3.2020   22.4070 C   0  0  0  0  0  0  0  0  0  0  0  0
    5.9770   -2.0080   22.3280 S   0  0  0  0  0  0  0  0  0  0  0  0
    4.8260   -3.0810   21.5560 O   0  0  0  0  0  0  0  0  0  0  0  0
    6.0830   -0.6430   21.8210 O   0  0  0  0  0  0  0  0  0  0  0  0
    7.8980   -1.9700   22.0330 C   0  0  0  0  0  0  0  0  0  0  0  0
    9.3510   -1.9410   21.8110 C   0  0  0  0  0  0  0  0  0  0  0  0
   10.7400   -1.6060   21.9070 C   0  0  0  0  0  0  0  0  0  0  0  0
   11.3470   -0.6450   22.7550 C   0  0  0  0  0  0  0  0  0  0  0  0
   12.2480   -1.4610   21.8050 C   0  0  0  0  0  0  0  0  0  0  0  0
   13.5880   -1.3200   21.8830 C   0  0  0  0  0  0  0  0  0  0  0  0
   13.8670   -1.6490   20.5540 C   0  0  0  0  0  0  0  0  0  0  0  0
   14.2350   -3.0920   20.3550 N   0  0  0  0  0  0  0  0  0  0  0  0
   15.2300   -3.3340   19.2440 C   0  0  0  0  0  0  0  0  0  0  0  0
   15.2990   -2.3250   18.3360 O   0  0  0  0  0  0  0  0  0  0  0  0
   16.2200   -4.4280   19.0380 C   0  0  0  0  0  0  0  0  0  0  0  0
   16.8600   -4.2040   17.7810 C   0  0  0  0  0  0  0  0  0  0  0  0
   17.1790   -5.3410   16.9750 O   0  0  0  0  0  0  0  0  0  0  0  0
   18.0860   -3.5320   17.7980 O   0  0  0  0  0  0  0  0  0  0  0  0
   10.0060   -0.3440   23.2660 C   0  0  0  0  0  0  0  0  0  0  0  0
    8.4690   -0.9030   22.9690 C   0  0  0  0  0  0  0  0  0  0  0  0
  1  2  1  0
  3  2  1  0
  3  4  2  0
  3  5  2  0
  3  6  1  0
  6  7  2  0
  7  8  1  0
  8  9  2  0
  9 10  1  0
 10 11  1  0
 11 12  1  0
 12 13  1  0
 13 14  1  0
 14 15  2  0
 14 16  1  0
 16 17  1  0
 17 18  1  0
 17 19  1  0
  9 20  1  0
  6 21  1  0
 20 21  2  0
M  END
