NEL-UNI-1464a899-8-nitrile
     RDKit          3D

 18 18  0  0  0  0  0  0  0  0999 V2000
    8.3310   -3.4310   19.8830 C   0  0  0  0  0  0  0  0  0  0  0  0
    7.0180   -3.5170   19.6530 N   0  0  0  0  0  0  0  0  0  0  0  0
    9.0040   -2.4700   21.1280 C   0  0  0  0  0  0  0  0  0  0  0  0
   10.5260   -1.9860   21.5700 C   0  0  0  0  0  0  0  0  0  0  0  0
   11.2720   -1.0720   22.6880 C   0  0  0  0  0  0  0  0  0  0  0  0
    9.9530   -0.6660   23.4330 C   0  0  0  0  0  0  0  0  0  0  0  0
   10.0070    0.2650   24.6610 C   0  0  0  0  0  0  0  0  0  0  0  0
    8.5760    0.7320   25.0550 C   0  0  0  0  0  0  0  0  0  0  0  0
    8.0990    1.6080   24.0780 C   0  0  0  0  0  0  0  0  0  0  0  0
    8.1660    2.4020   23.2230 N   0  0  0  0  0  0  0  0  0  0  0  0
    7.2560    3.5560   23.0850 C   0  0  0  0  0  0  0  0  0  0  0  0
    6.0360    3.4600   23.1170 O   0  0  0  0  0  0  0  0  0  0  0  0
    7.9390    4.7660   22.8990 C   0  0  0  0  0  0  0  0  0  0  0  0
    7.1200    5.9110   22.3780 C   0  0  2  0  0  0  0  0  0  0  0  0
    7.7510    6.8440   21.5410 C   0  0  0  0  0  0  0  0  0  0  0  0
    6.5130    6.4700   23.4560 O   0  0  0  0  0  0  0  0  0  0  0  0
    8.5340   -1.0600   23.1250 C   0  0  0  0  0  0  0  0  0  0  0  0
    8.1260   -1.9380   21.9950 C   0  0  0  0  0  0  0  0  0  0  0  0
  1  2  2  3
  1  3  1  0
  3  4  2  0
  4  5  1  0
  5  6  2  0
  6  7  1  0
  7  8  1  0
  8  9  1  0
  9 10  1  0
 10 11  1  0
 11 12  2  0
 11 13  1  0
 13 14  1  0
 14 15  1  1
 14 16  1  0
  6 17  1  0
  3 18  1  0
 17 18  2  0
M  END
