NEL-UNI-1464a899-8-nitrile
     RDKit          3D

 18 18  0  0  0  0  0  0  0  0999 V2000
    8.2230   -3.2100   19.7440 C   0  0  0  0  0  0  0  0  0  0  0  0
    7.9080   -2.7190   18.4840 N   0  0  0  0  0  0  0  0  0  0  0  0
    8.9060   -2.3120   21.0440 C   0  0  0  0  0  0  0  0  0  0  0  0
   10.4300   -1.9330   21.5290 C   0  0  0  0  0  0  0  0  0  0  0  0
   10.7880   -1.1130   22.6660 C   0  0  0  0  0  0  0  0  0  0  0  0
    9.7910   -0.5740   23.4700 C   0  0  0  0  0  0  0  0  0  0  0  0
   10.0110    0.2430   24.5880 C   0  0  0  0  0  0  0  0  0  0  0  0
    8.8970    0.9050   25.1410 C   0  0  0  0  0  0  0  0  0  0  0  0
    7.7940    1.5090   24.2260 C   0  0  0  0  0  0  0  0  0  0  0  0
    8.1570    2.6190   23.3360 N   0  0  0  0  0  0  0  0  0  0  0  0
    8.7210    3.8020   23.9730 C   0  0  0  0  0  0  0  0  0  0  0  0
    8.6310    4.0700   25.1660 O   0  0  0  0  0  0  0  0  0  0  0  0
    9.4240    4.6670   22.9180 C   0  0  0  0  0  0  0  0  0  0  0  0
   10.3190    5.8390   23.3660 C   0  0  1  0  0  0  0  0  0  0  0  0
   11.4550    5.4180   24.3170 C   0  0  0  0  0  0  0  0  0  0  0  0
   10.8280    6.4310   22.4210 O   0  0  0  0  0  0  0  0  0  0  0  0
    8.4920   -0.8710   23.1310 C   0  0  0  0  0  0  0  0  0  0  0  0
    8.0410   -1.7210   21.9420 C   0  0  0  0  0  0  0  0  0  0  0  0
  1  2  2  3
  1  3  1  0
  3  4  2  0
  4  5  1  0
  5  6  2  0
  6  7  1  0
  7  8  1  0
  8  9  1  0
  9 10  1  0
 10 11  1  0
 11 12  2  0
 11 13  1  0
 13 14  1  0
 14 15  1  1
 14 16  1  0
  6 17  1  0
  3 18  1  0
 17 18  2  0
M  END
