NEL-UNI-1464a899-8-vinylsulfonamide
     RDKit          3D

 21 21  0  0  0  0  0  0  0  0999 V2000
    7.5830   -3.7390   20.8720 C   0  0  0  0  0  0  0  0  0  0  0  0
    7.0780   -3.9290   22.3150 C   0  0  0  0  0  0  0  0  0  0  0  0
    6.0610   -2.5500   22.4460 S   0  0  0  0  0  0  0  0  0  0  0  0
    4.9460   -3.1980   21.3930 O   0  0  0  0  0  0  0  0  0  0  0  0
    5.6520   -2.4150   23.8330 O   0  0  0  0  0  0  0  0  0  0  0  0
    7.8640   -1.8490   22.4040 C   0  0  0  0  0  0  0  0  0  0  0  0
    7.8340   -0.7000   22.7280 C   0  0  0  0  0  0  0  0  0  0  0  0
    9.0700   -1.6200   22.3570 C   0  0  0  0  0  0  0  0  0  0  0  0
   10.4760   -1.3070   22.3200 C   0  0  0  0  0  0  0  0  0  0  0  0
   11.7120   -1.9750   22.0430 C   0  0  0  0  0  0  0  0  0  0  0  0
   13.1280   -1.3040   22.0190 C   0  0  0  0  0  0  0  0  0  0  0  0
   13.6540   -1.3600   20.5620 C   0  0  0  0  0  0  0  0  0  0  0  0
   14.2390   -0.1050   19.9400 N   0  0  0  0  0  0  0  0  0  0  0  0
   15.2260    0.2390   18.9410 C   0  0  0  0  0  0  0  0  0  0  0  0
   15.5760    1.4090   18.8450 O   0  0  0  0  0  0  0  0  0  0  0  0
   15.8390   -0.7890   17.9670 C   0  0  0  0  0  0  0  0  0  0  0  0
   17.3410   -0.8390   17.6840 C   0  0  2  0  0  0  0  0  0  0  0  0
   17.6740   -2.1510   16.9560 C   0  0  0  0  0  0  0  0  0  0  0  0
   18.1040   -0.7400   18.6280 O   0  0  0  0  0  0  0  0  0  0  0  0
   10.1140   -0.2050   22.6410 C   0  0  0  0  0  0  0  0  0  0  0  0
    8.7260   -0.5410   22.6780 C   0  0  0  0  0  0  0  0  0  0  0  0
  1  2  1  0
  3  2  1  0
  3  4  2  0
  3  5  2  0
  3  6  1  0
  6  7  2  0
  7  8  1  0
  8  9  2  0
  9 10  1  0
 10 11  1  0
 11 12  1  0
 12 13  1  0
 13 14  1  0
 14 15  2  0
 14 16  1  0
 16 17  1  0
 17 18  1  1
 17 19  1  0
  9 20  1  0
  6 21  1  0
 20 21  2  0
M  END
