NEL-UNI-1464a899-8-chloroacetamide
     RDKit          3D

 19 19  0  0  0  0  0  0  0  0999 V2000
    8.4990   -4.0690   20.1750 C   0  0  0  0  0  0  0  0  0  0  0  0
    7.8330   -2.8140   19.9770 C   0  0  0  0  0  0  0  0  0  0  0  0
    6.8590   -2.8720   19.0610 O   0  0  0  0  0  0  0  0  0  0  0  0
    8.4250   -1.7610   20.9520 C   0  0  0  0  0  0  0  0  0  0  0  0
    7.6740   -0.4850   21.2400 C   0  0  0  0  0  0  0  0  0  0  0  0
    8.2750    0.5030   22.2540 C   0  0  0  0  0  0  0  0  0  0  0  0
    9.5920    0.1520   22.9230 C   0  0  0  0  0  0  0  0  0  0  0  0
   10.0090    1.1880   23.9300 C   0  0  0  0  0  0  0  0  0  0  0  0
    9.0310    1.1490   24.9020 C   0  0  0  0  0  0  0  0  0  0  0  0
    7.8410    1.7350   24.4490 C   0  0  0  0  0  0  0  0  0  0  0  0
    8.1870    2.9400   23.7130 N   0  0  0  0  0  0  0  0  0  0  0  0
    7.3430    4.1600   23.7480 C   0  0  0  0  0  0  0  0  0  0  0  0
    6.7130    4.5730   24.7180 O   0  0  0  0  0  0  0  0  0  0  0  0
    7.2660    4.9390   22.4720 C   0  0  0  0  0  0  0  0  0  0  0  0
    7.2010    6.3310   22.5430 C   0  0  1  0  0  0  0  0  0  0  0  0
    7.7310    7.0270   21.4620 C   0  0  0  0  0  0  0  0  0  0  0  0
    5.8920    6.6280   22.7540 O   0  0  0  0  0  0  0  0  0  0  0  0
   10.2650   -1.0000   22.6240 C   0  0  0  0  0  0  0  0  0  0  0  0
    9.6770   -1.9750   21.6240 C   0  0  0  0  0  0  0  0  0  0  0  0
  1  2  1  0
  2  3  2  0
  2  4  1  0
  4  5  2  0
  5  6  1  0
  6  7  2  0
  7  8  1  0
  8  9  1  0
  9 10  1  0
 10 11  1  0
 11 12  1  0
 12 13  2  0
 12 14  1  0
 14 15  1  0
 15 16  1  6
 15 17  1  0
  7 18  1  0
  4 19  1  0
 18 19  2  0
M  END
