NEL-UNI-1464a899-5
     RDKit          3D

 18 18  0  0  0  0  0  0  0  0999 V2000
    2.6390    2.3540   24.3420 O   0  0  0  0  0  0  0  0  0  0  0  0
    3.5750    1.6790   23.9130 C   0  0  0  0  0  0  0  0  0  0  0  0
    4.0640    0.6190   24.6010 O   0  0  0  0  0  0  0  0  0  0  0  0
    4.2820    1.9370   22.5980 C   0  0  0  0  0  0  0  0  0  0  0  0
    5.7150    1.4510   22.6340 C   0  0  0  0  0  0  0  0  0  0  0  0
    6.3830    1.4740   21.3890 O   0  0  0  0  0  0  0  0  0  0  0  0
    6.2350    1.0380   23.8170 N   0  0  0  0  0  0  0  0  0  0  0  0
    7.4950    1.4340   24.1190 C   0  0  0  0  0  0  0  0  0  0  0  0
    8.1860    0.6910   25.0530 C   0  0  0  0  0  0  0  0  0  0  0  0
    9.5400    0.9280   25.1640 C   0  0  0  0  0  0  0  0  0  0  0  0
   10.4090    0.3310   24.2800 C   0  0  0  0  0  0  0  0  0  0  0  0
   10.0370   -1.0810   23.7890 C   0  0  0  0  0  0  0  0  0  0  0  0
   10.9440   -1.8060   22.8040 C   0  0  0  0  0  0  0  0  0  0  0  0
   12.1890   -1.1160   22.3420 C   0  0  0  0  0  0  0  0  0  0  0  0
   13.1060   -1.7960   21.3680 C   0  0  0  0  0  0  0  0  0  0  0  0
   13.3880   -3.0580   21.9170 O   0  0  0  0  0  0  0  0  0  0  0  0
   12.5470    0.3090   22.8590 C   0  0  0  0  0  0  0  0  0  0  0  0
   11.5850    0.9730   23.8360 C   0  0  0  0  0  0  0  0  0  0  0  0
  1  2  2  0
  2  3  1  0
  2  4  1  0
  4  5  1  0
  5  6  2  0
  5  7  1  0
  7  8  1  0
  8  9  1  0
  9 10  1  0
 10 11  1  0
 11 12  2  0
 12 13  1  0
 13 14  2  0
 14 15  1  0
 15 16  1  0
 14 17  1  0
 11 18  1  0
 17 18  2  0
M  END
