NEL-UNI-1464a899-2
     RDKit          3D

 17 17  0  0  0  0  0  0  0  0999 V2000
   13.1150   -1.8790   21.2880 C   0  0  0  0  0  0  0  0  0  0  0  0
   12.2120   -1.2560   22.3040 C   0  0  0  0  0  0  0  0  0  0  0  0
   12.5920    0.0690   22.9450 C   0  0  0  0  0  0  0  0  0  0  0  0
   11.7450    0.6560   23.8950 C   0  0  0  0  0  0  0  0  0  0  0  0
   10.5230    0.0420   24.2870 C   0  0  0  0  0  0  0  0  0  0  0  0
    9.6600    0.6020   25.2350 C   0  0  0  0  0  0  0  0  0  0  0  0
    8.2860    0.5250   24.9860 C   0  0  0  0  0  0  0  0  0  0  0  0
    7.5650    1.4440   23.9670 C   0  0  0  0  0  0  0  0  0  0  0  0
    8.1530    2.7670   23.7870 N   0  0  0  0  0  0  0  0  0  0  0  0
    9.5060    2.9880   23.6130 C   0  0  0  0  0  0  0  0  0  0  0  0
   10.3810    2.3530   24.1580 O   0  0  0  0  0  0  0  0  0  0  0  0
    9.8450    4.1180   22.6560 C   0  0  0  0  0  0  0  0  0  0  0  0
   10.8610    5.1910   23.1040 C   0  0  0  0  0  0  0  0  0  0  0  0
   10.9040    6.1820   22.3850 O   0  0  0  0  0  0  0  0  0  0  0  0
   10.6320    5.6610   24.4160 O   0  0  0  0  0  0  0  0  0  0  0  0
   10.1900   -1.1680   23.6940 C   0  0  0  0  0  0  0  0  0  0  0  0
   11.0400   -1.8590   22.6700 C   0  0  0  0  0  0  0  0  0  0  0  0
  1  2  1  0
  2  3  2  0
  3  4  1  0
  4  5  2  0
  5  6  1  0
  6  7  1  0
  7  8  1  0
  8  9  1  0
  9 10  1  0
 10 11  2  0
 10 12  1  0
 12 13  1  0
 13 14  1  0
 13 15  1  0
  5 16  1  0
  2 17  1  0
 16 17  2  0
M  END
