NIC-BIO-96ee2ca4-2
     RDKit          3D

 29 32  0  0  0  0  0  0  0  0999 V2000
   13.2850   -1.4830   22.5000 C   0  0  0  0  0  0  0  0  0  0  0  0
   12.2730   -1.0380   23.4110 N   0  0  0  0  0  0  0  0  0  0  0  0
   12.0180    0.3960   23.5400 C   0  0  0  0  0  0  0  0  0  0  0  0
   10.5880    0.7410   23.1470 C   0  0  0  0  0  0  0  0  0  0  0  0
    9.9230   -0.0930   22.3250 N   0  0  0  0  0  0  0  0  0  0  0  0
    8.9510    0.3840   21.5620 C   0  0  0  0  0  0  0  0  0  0  0  0
    8.7230    1.7450   21.1460 O   0  0  0  0  0  0  0  0  0  0  0  0
    7.9830   -0.6560   21.0500 C   0  0  0  0  0  0  0  0  0  0  0  0
    7.1540   -0.2430   20.0300 C   0  0  0  0  0  0  0  0  0  0  0  0
    7.3370   -0.5380   18.6960 C   0  0  0  0  0  0  0  0  0  0  0  0
    6.3760    0.0270   17.9650 N   0  0  0  0  0  0  0  0  0  0  0  0
    5.4630    0.7430   18.8170 C   0  0  0  0  0  0  0  0  0  0  0  0
    4.3660    1.4430   18.4650 N   0  0  0  0  0  0  0  0  0  0  0  0
    3.6820    2.0120   19.4800 C   0  0  0  0  0  0  0  0  0  0  0  0
    4.0720    1.9010   20.8160 C   0  0  0  0  0  0  0  0  0  0  0  0
    5.2190    1.1690   21.0930 C   0  0  0  0  0  0  0  0  0  0  0  0
    5.9640    0.5570   20.1070 C   0  0  0  0  0  0  0  0  0  0  0  0
    9.7670   -1.4050   22.7690 C   0  0  2  0  0  0  0  0  0  0  0  0
    8.7740   -1.5350   23.7350 C   0  0  0  0  0  0  0  0  0  0  0  0
    9.0530   -1.3840   24.9210 O   0  0  0  0  0  0  0  0  0  0  0  0
    8.1850   -1.9680   25.7870 C   0  0  0  0  0  0  0  0  0  0  0  0
    7.1930   -1.4340   26.2820 O   0  0  0  0  0  0  0  0  0  0  0  0
    8.5560   -3.2700   26.0460 C   0  0  0  0  0  0  0  0  0  0  0  0
    8.9790   -3.6330   27.2900 C   0  0  0  0  0  0  0  0  0  0  0  0
    9.4200   -5.0540   27.6560 C   0  0  0  0  0  0  0  0  0  0  0  0
    9.3510   -6.0860   26.4950 C   0  0  0  0  0  0  0  0  0  0  0  0
    8.8550   -5.6270   25.0960 C   0  0  0  0  0  0  0  0  0  0  0  0
    8.4850   -4.1550   25.0110 C   0  0  0  0  0  0  0  0  0  0  0  0
   11.0850   -1.9400   23.3940 C   0  0  0  0  0  0  0  0  0  0  0  0
  1  2  1  0
  2  3  1  0
  3  4  1  0
  4  5  1  0
  5  6  1  0
  6  7  2  0
  6  8  1  0
  8  9  1  0
  9 10  2  0
 10 11  1  0
 11 12  1  0
 12 13  1  0
 13 14  2  0
 14 15  1  0
 15 16  2  0
  9 17  1  0
 12 17  2  0
 16 17  1  0
  5 18  1  0
 18 19  1  1
 19 20  1  0
 20 21  1  0
 21 22  2  0
 21 23  1  0
 23 24  2  0
 24 25  1  0
 25 26  2  0
 26 27  1  0
 23 28  1  0
 27 28  2  0
  2 29  1  0
 18 29  1  0
M  END
