NIC-BIO-a68395b7-1
     RDKit          3D

 24 25  0  0  0  0  0  0  0  0999 V2000
    7.4060    4.5730   22.1230 C   0  0  0  0  0  0  0  0  0  0  0  0
    6.9840    3.4370   23.0550 C   0  0  0  0  0  0  0  0  0  0  0  0
    5.8910    3.4120   23.6030 O   0  0  0  0  0  0  0  0  0  0  0  0
    7.9530    2.4770   23.2260 N   0  0  0  0  0  0  0  0  0  0  0  0
    7.6490    1.0460   23.1960 C   0  0  1  0  0  0  0  0  0  0  0  0
    6.2550    0.6640   22.6850 C   0  0  0  0  0  0  0  0  0  0  0  0
    6.1400    0.6850   21.1800 C   0  0  0  0  0  0  0  0  0  0  0  0
    5.2940    1.5830   20.5430 C   0  0  0  0  0  0  0  0  0  0  0  0
    5.1290    1.6640   19.1810 C   0  0  0  0  0  0  0  0  0  0  0  0
    5.8650    0.7800   18.4050 C   0  0  0  0  0  0  0  0  0  0  0  0
    5.7060    0.8550   17.0830 O   0  0  0  0  0  0  0  0  0  0  0  0
    6.7350   -0.1500   18.9860 C   0  0  0  0  0  0  0  0  0  0  0  0
    6.8820   -0.2070   20.3760 C   0  0  0  0  0  0  0  0  0  0  0  0
    8.7030    0.4170   22.2750 C   0  0  0  0  0  0  0  0  0  0  0  0
    9.3050    1.1140   21.4910 O   0  0  0  0  0  0  0  0  0  0  0  0
    8.9130   -0.9510   22.4270 N   0  0  0  0  0  0  0  0  0  0  0  0
   10.1850   -1.5550   22.4430 C   0  0  0  0  0  0  0  0  0  0  0  0
   11.2580   -0.7180   22.7460 C   0  0  0  0  0  0  0  0  0  0  0  0
   11.3220   -0.4250   24.1040 C   0  0  0  0  0  0  0  0  0  0  0  0
   12.5430   -0.7900   24.6350 C   0  0  0  0  0  0  0  0  0  0  0  0
   12.8070   -2.0940   24.5640 N   0  0  0  0  0  0  0  0  0  0  0  0
   13.6580   -2.5950   25.4680 C   0  0  0  0  0  0  0  0  0  0  0  0
   13.0960   -2.3990   23.2950 C   0  0  0  0  0  0  0  0  0  0  0  0
   12.5840   -1.3560   22.3100 C   0  0  0  0  0  0  0  0  0  0  0  0
  1  2  1  0
  2  3  2  0
  2  4  1  0
  4  5  1  0
  5  6  1  6
  6  7  1  0
  7  8  2  0
  8  9  1  0
  9 10  2  0
 10 11  1  0
 10 12  1  0
  7 13  1  0
 12 13  2  0
  5 14  1  0
 14 15  2  0
 14 16  1  0
 16 17  1  0
 17 18  1  0
 18 19  1  0
 19 20  1  0
 20 21  1  0
 21 22  1  0
 21 23  1  0
 18 24  1  0
 23 24  1  0
M  END
