NIC-BIO-a68395b7-2-vinylsulfonamide
     RDKit          3D

 28 29  0  0  0  0  0  0  0  0999 V2000
    6.3110   -5.5940   19.9960 C   0  0  0  0  0  0  0  0  0  0  0  0
    6.5280   -5.0540   21.3780 C   0  0  0  0  0  0  0  0  0  0  0  0
    6.2790   -3.3520   21.1270 S   0  0  0  0  0  0  0  0  0  0  0  0
    4.8450   -3.2640   21.5890 O   0  0  0  0  0  0  0  0  0  0  0  0
    6.3990   -3.1390   19.7050 O   0  0  0  0  0  0  0  0  0  0  0  0
    7.8060   -2.3560   21.8190 C   0  0  0  0  0  0  0  0  0  0  0  0
    7.1380   -1.3130   22.8110 C   0  0  0  0  0  0  0  0  0  0  0  0
    8.4200   -0.5620   23.2300 C   0  0  0  0  0  0  0  0  0  0  0  0
    9.0020   -1.5430   22.3310 C   0  0  0  0  0  0  0  0  0  0  0  0
   10.1530   -0.6810   22.7640 C   0  0  0  0  0  0  0  0  0  0  0  0
    9.7150    0.5380   23.2870 N   0  0  0  0  0  0  0  0  0  0  0  0
    8.8740    1.3400   22.4380 C   0  0  0  0  0  0  0  0  0  0  0  0
    9.2490    1.8790   21.1880 O   0  0  0  0  0  0  0  0  0  0  0  0
    7.4830    1.5970   22.9750 C   0  0  2  0  0  0  0  0  0  0  0  0
    6.3280    0.9600   22.5100 C   0  0  0  0  0  0  0  0  0  0  0  0
    6.1700    0.8170   21.0140 C   0  0  0  0  0  0  0  0  0  0  0  0
    5.1310    1.6730   20.5690 C   0  0  0  0  0  0  0  0  0  0  0  0
    5.0470    1.4810   19.1350 C   0  0  0  0  0  0  0  0  0  0  0  0
    5.8400    0.6170   18.3610 C   0  0  0  0  0  0  0  0  0  0  0  0
    5.6390    0.5740   17.1770 O   0  0  0  0  0  0  0  0  0  0  0  0
    6.8000   -0.1530   18.8980 C   0  0  0  0  0  0  0  0  0  0  0  0
    6.9980   -0.0640   20.3140 C   0  0  0  0  0  0  0  0  0  0  0  0
    7.0230    2.7860   22.2660 N   0  0  0  0  0  0  0  0  0  0  0  0
    6.8980    4.0340   22.9920 C   0  0  0  0  0  0  0  0  0  0  0  0
    7.6400    5.1920   22.3780 C   0  0  0  0  0  0  0  0  0  0  0  0
    6.2310    4.1240   24.0230 O   0  0  0  0  0  0  0  0  0  0  0  0
   10.0540   -2.0090   21.7730 C   0  0  0  0  0  0  0  0  0  0  0  0
    9.1470   -2.8030   21.2430 C   0  0  0  0  0  0  0  0  0  0  0  0
  1  2  1  0
  3  2  1  0
  3  4  2  0
  3  5  2  0
  3  6  1  0
  6  7  2  0
  7  8  1  0
  8  9  2  0
  9 10  1  0
 10 11  1  0
 11 12  1  0
 12 13  2  0
 12 14  1  0
 14 15  1  6
 15 16  1  0
 16 17  2  0
 17 18  1  0
 18 19  2  0
 19 20  1  0
 19 21  1  0
 16 22  1  0
 21 22  2  0
 14 23  1  0
 23 24  1  0
 24 25  1  0
 24 26  2  0
  9 27  1  0
  6 28  1  0
 27 28  2  0
M  END
