NIC-BIO-3276ca7f-2
     RDKit          3D

 22 23  0  0  0  0  0  0  0  0999 V2000
    7.3730    4.3540   21.9690 C   0  0  0  0  0  0  0  0  0  0  0  0
    7.2590    3.4330   23.1520 C   0  0  0  0  0  0  0  0  0  0  0  0
    6.4270    3.6240   24.0310 O   0  0  0  0  0  0  0  0  0  0  0  0
    8.1950    2.4130   23.0820 N   0  0  0  0  0  0  0  0  0  0  0  0
    8.0560    1.0590   23.4670 C   0  0  1  0  0  0  0  0  0  0  0  0
    6.9720    0.2740   23.0450 C   0  0  0  0  0  0  0  0  0  0  0  0
    6.6130    0.4920   21.7190 C   0  0  0  0  0  0  0  0  0  0  0  0
    6.9850   -0.1140   20.5630 C   0  0  0  0  0  0  0  0  0  0  0  0
    6.2650    0.5440   19.4390 N   0  0  0  0  0  0  0  0  0  0  0  0
    5.3140    1.6690   19.6060 C   0  0  0  0  0  0  0  0  0  0  0  0
    5.0710    1.7100   18.0690 C   0  0  0  0  0  0  0  0  0  0  0  0
    5.9920    0.6140   17.9420 C   0  0  0  0  0  0  0  0  0  0  0  0
    6.7880   -0.1730   18.8250 C   0  0  0  0  0  0  0  0  0  0  0  0
    6.6460    0.2170   20.2160 C   0  0  0  0  0  0  0  0  0  0  0  0
    5.8570    1.2540   20.9760 C   0  0  0  0  0  0  0  0  0  0  0  0
    9.3650    0.3070   23.1030 C   0  0  0  0  0  0  0  0  0  0  0  0
   10.3900    0.8800   22.7410 O   0  0  0  0  0  0  0  0  0  0  0  0
    9.2910   -1.0660   23.2230 N   0  0  0  0  0  0  0  0  0  0  0  0
    9.8290   -1.9280   22.1980 C   0  0  0  0  0  0  0  0  0  0  0  0
   11.2050   -1.7380   22.0760 C   0  0  0  0  0  0  0  0  0  0  0  0
   12.0440   -2.0030   23.1500 C   0  0  0  0  0  0  0  0  0  0  0  0
   13.1670   -2.3740   24.6360 Br  0  0  0  0  0  0  0  0  0  0  0  0
  1  2  1  0
  2  3  2  0
  2  4  1  0
  4  5  1  0
  5  6  1  6
  6  7  1  0
  7  8  2  0
  8  9  1  0
  9 10  1  0
 10 11  1  0
 11 12  2  0
 12 13  1  0
 13 14  2  0
  7 15  1  0
 10 15  2  0
 14 15  1  0
  5 16  1  0
 16 17  2  0
 16 18  1  0
 18 19  1  0
 19 20  1  0
 20 21  3  0
 21 22  1  0
M  END
