NIC-BIO-3276ca7f-1
     RDKit          3D

 22 23  0  0  0  0  0  0  0  0999 V2000
    7.6180    5.0740   22.2970 C   0  0  0  0  0  0  0  0  0  0  0  0
    7.0850    3.8200   22.9430 C   0  0  0  0  0  0  0  0  0  0  0  0
    6.0300    3.8320   23.5680 O   0  0  0  0  0  0  0  0  0  0  0  0
    7.9090    2.7280   22.7430 N   0  0  0  0  0  0  0  0  0  0  0  0
    7.6530    1.3990   23.1520 C   0  0  1  0  0  0  0  0  0  0  0  0
    6.4320    0.7870   22.8270 C   0  0  0  0  0  0  0  0  0  0  0  0
    6.3140    0.5770   21.4650 C   0  0  0  0  0  0  0  0  0  0  0  0
    6.6270   -0.2470   20.5840 C   0  0  0  0  0  0  0  0  0  0  0  0
    7.2120   -1.2790   20.6010 N   0  0  0  0  0  0  0  0  0  0  0  0
    6.5780   -0.4780   19.5400 C   0  0  0  0  0  0  0  0  0  0  0  0
    6.5020   -0.7500   18.1980 N   0  0  0  0  0  0  0  0  0  0  0  0
    5.9370    0.3190   18.4190 C   0  0  0  0  0  0  0  0  0  0  0  0
    5.2060    1.4770   17.9530 C   0  0  0  0  0  0  0  0  0  0  0  0
    5.1920    1.9190   19.3650 C   0  0  0  0  0  0  0  0  0  0  0  0
    5.9110    0.8940   20.1740 C   0  0  0  0  0  0  0  0  0  0  0  0
    8.8240    0.5330   22.6250 C   0  0  0  0  0  0  0  0  0  0  0  0
    9.7810    1.0330   22.0430 O   0  0  0  0  0  0  0  0  0  0  0  0
    8.7180   -0.8280   22.8660 N   0  0  0  0  0  0  0  0  0  0  0  0
    9.6410   -1.7780   22.2640 C   0  0  0  0  0  0  0  0  0  0  0  0
   10.9390   -1.2730   22.2100 C   0  0  0  0  0  0  0  0  0  0  0  0
   11.8950   -1.7020   23.1240 C   0  0  0  0  0  0  0  0  0  0  0  0
   13.1770   -2.2940   24.3960 Br  0  0  0  0  0  0  0  0  0  0  0  0
  1  2  1  0
  2  3  2  0
  2  4  1  0
  4  5  1  0
  5  6  1  6
  6  7  1  0
  7  8  2  0
  8  9  1  0
  9 10  1  0
 10 11  1  0
 11 12  2  0
 12 13  1  0
 13 14  2  0
  7 15  1  0
 10 15  2  0
 14 15  1  0
  5 16  1  0
 16 17  2  0
 16 18  1  0
 18 19  1  0
 19 20  1  0
 20 21  3  0
 21 22  1  0
M  END
