NIC-BIO-96ee2ca4-1
     RDKit          3D

 24 26  0  0  0  0  0  0  0  0999 V2000
    9.6350   -5.0220   26.3340 C   0  0  0  0  0  0  0  0  0  0  0  0
   10.2700   -3.8980   25.5070 C   0  0  0  0  0  0  0  0  0  0  0  0
   11.4700   -3.6630   25.5530 O   0  0  0  0  0  0  0  0  0  0  0  0
    9.3510   -3.2310   24.7480 O   0  0  0  0  0  0  0  0  0  0  0  0
    9.5110   -1.7890   24.6380 C   0  0  0  0  0  0  0  0  0  0  0  0
    9.7770   -1.4150   23.1630 C   0  0  2  0  0  0  0  0  0  0  0  0
   11.1880   -1.8030   22.8620 C   0  0  0  0  0  0  0  0  0  0  0  0
   12.1350   -1.0990   23.4940 N   0  0  0  0  0  0  0  0  0  0  0  0
   13.3630   -1.6020   23.4260 C   0  0  0  0  0  0  0  0  0  0  0  0
   12.0020    0.3480   23.2570 C   0  0  0  0  0  0  0  0  0  0  0  0
   10.6490    0.7080   23.3270 C   0  0  0  0  0  0  0  0  0  0  0  0
    9.6770   -0.1250   22.7290 N   0  0  0  0  0  0  0  0  0  0  0  0
    8.8740    0.2430   21.6560 C   0  0  0  0  0  0  0  0  0  0  0  0
    8.9170    1.4040   21.2120 O   0  0  0  0  0  0  0  0  0  0  0  0
    8.0310   -0.7440   21.1150 C   0  0  0  0  0  0  0  0  0  0  0  0
    7.1800   -0.2680   20.1170 C   0  0  0  0  0  0  0  0  0  0  0  0
    7.3110   -0.4910   18.7740 C   0  0  0  0  0  0  0  0  0  0  0  0
    6.4210    0.0560   18.0050 N   0  0  0  0  0  0  0  0  0  0  0  0
    5.5430    0.7340   18.8330 C   0  0  0  0  0  0  0  0  0  0  0  0
    4.4690    1.4410   18.4470 N   0  0  0  0  0  0  0  0  0  0  0  0
    3.7900    1.9880   19.4750 C   0  0  0  0  0  0  0  0  0  0  0  0
    4.1480    1.8530   20.8020 C   0  0  0  0  0  0  0  0  0  0  0  0
    5.2510    1.1360   21.1900 C   0  0  0  0  0  0  0  0  0  0  0  0
    6.0030    0.5370   20.1800 C   0  0  0  0  0  0  0  0  0  0  0  0
  1  2  1  0
  2  3  2  0
  2  4  1  0
  4  5  1  0
  6  5  1  1
  6  7  1  0
  7  8  1  0
  8  9  1  0
  8 10  1  0
 10 11  1  0
  6 12  1  0
 11 12  1  0
 12 13  1  0
 13 14  2  0
 13 15  1  0
 15 16  1  0
 16 17  2  0
 17 18  1  0
 18 19  1  0
 19 20  1  0
 20 21  2  0
 21 22  1  0
 22 23  2  0
 16 24  1  0
 19 24  2  0
 23 24  1  0
M  END
