NIC-BIO-a68395b7-2-nitrile
     RDKit          3D

 25 26  0  0  0  0  0  0  0  0999 V2000
    7.3100   -3.6920   20.0530 C   0  0  0  0  0  0  0  0  0  0  0  0
    6.0830   -3.9540   19.6990 N   0  0  0  0  0  0  0  0  0  0  0  0
    7.7400   -3.4590   21.5830 C   0  0  0  0  0  0  0  0  0  0  0  0
    9.2640   -3.1280   21.9130 C   0  0  0  0  0  0  0  0  0  0  0  0
    9.5580   -2.9660   23.3860 C   0  0  0  0  0  0  0  0  0  0  0  0
    8.2220   -3.2360   22.8180 C   0  0  0  0  0  0  0  0  0  0  0  0
    6.8570   -3.4740   22.6970 C   0  0  0  0  0  0  0  0  0  0  0  0
    6.1220   -2.3520   23.0960 N   0  0  0  0  0  0  0  0  0  0  0  0
    6.9090   -1.1290   23.4000 C   0  0  0  0  0  0  0  0  0  0  0  0
    8.1010   -1.0630   23.7260 O   0  0  0  0  0  0  0  0  0  0  0  0
    6.1960    0.0680   23.2940 C   0  0  2  0  0  0  0  0  0  0  0  0
    5.0720   -0.0360   22.4820 C   0  0  0  0  0  0  0  0  0  0  0  0
    5.2920    0.2040   21.1270 C   0  0  0  0  0  0  0  0  0  0  0  0
    6.3920   -0.3410   20.4630 C   0  0  0  0  0  0  0  0  0  0  0  0
    6.6220   -0.1100   19.1160 C   0  0  0  0  0  0  0  0  0  0  0  0
    5.7330    0.6900   18.4000 C   0  0  0  0  0  0  0  0  0  0  0  0
    5.8640    0.9390   17.2260 O   0  0  0  0  0  0  0  0  0  0  0  0
    4.6330    1.2430   19.0340 C   0  0  0  0  0  0  0  0  0  0  0  0
    4.4090    1.0060   20.3870 C   0  0  0  0  0  0  0  0  0  0  0  0
    7.0070    1.2020   23.0150 N   0  0  0  0  0  0  0  0  0  0  0  0
    6.4720    2.4190   22.7540 C   0  0  0  0  0  0  0  0  0  0  0  0
    6.7660    2.8990   21.4800 C   0  0  0  0  0  0  0  0  0  0  0  0
    5.7950    3.0560   23.5580 O   0  0  0  0  0  0  0  0  0  0  0  0
    7.6720   -3.2630   24.0240 C   0  0  0  0  0  0  0  0  0  0  0  0
    6.7020   -3.5530   22.8490 C   0  0  0  0  0  0  0  0  0  0  0  0
  1  2  2  3
  1  3  1  0
  3  4  2  0
  4  5  1  0
  5  6  2  0
  6  7  1  0
  7  8  1  0
  8  9  1  0
  9 10  2  0
  9 11  1  0
 11 12  1  6
 12 13  1  0
 13 14  2  0
 14 15  1  0
 15 16  2  0
 16 17  1  0
 16 18  1  0
 13 19  1  0
 18 19  2  0
 11 20  1  0
 20 21  1  0
 21 22  1  0
 21 23  2  0
  6 24  1  0
  3 25  1  0
 24 25  2  0
M  END
