NIC-BIO-25446079-2
     RDKit          3D

 19 21  0  0  0  0  0  0  0  0999 V2000
   13.4610   -1.4440   23.6630 N   0  0  0  0  0  0  0  0  0  0  0  0
   12.2960   -1.0790   23.0940 C   0  0  0  0  0  0  0  0  0  0  0  0
   11.1800   -2.0190   23.4170 C   0  0  0  0  0  0  0  0  0  0  0  0
    9.7770   -1.4920   23.1880 C   0  0  0  0  0  0  0  0  0  0  0  0
    9.8680   -0.1790   22.5830 N   0  0  0  0  0  0  0  0  0  0  0  0
    8.9430    0.2850   21.6210 C   0  0  0  0  0  0  0  0  0  0  0  0
    8.9800    1.4660   21.2570 O   0  0  0  0  0  0  0  0  0  0  0  0
    7.9400   -0.6790   21.0600 C   0  0  0  0  0  0  0  0  0  0  0  0
    7.1450   -0.2540   20.0180 C   0  0  0  0  0  0  0  0  0  0  0  0
    7.3870   -0.5800   18.7060 C   0  0  0  0  0  0  0  0  0  0  0  0
    6.4060    0.0430   18.0120 N   0  0  0  0  0  0  0  0  0  0  0  0
    5.4950    0.7790   18.8720 C   0  0  0  0  0  0  0  0  0  0  0  0
    4.4260    1.4910   18.4660 N   0  0  0  0  0  0  0  0  0  0  0  0
    3.7600    2.0580   19.4900 C   0  0  0  0  0  0  0  0  0  0  0  0
    4.1330    1.9460   20.9550 C   0  0  0  0  0  0  0  0  0  0  0  0
    5.3570    1.1270   21.2620 C   0  0  0  0  0  0  0  0  0  0  0  0
    6.0230    0.5480   20.1890 C   0  0  0  0  0  0  0  0  0  0  0  0
   10.6860    0.8440   23.2510 C   0  0  0  0  0  0  0  0  0  0  0  0
   12.0010    0.3890   23.4800 C   0  0  0  0  0  0  0  0  0  0  0  0
  1  2  1  0
  2  3  1  0
  3  4  1  0
  4  5  1  0
  5  6  1  0
  6  7  2  0
  6  8  1  0
  8  9  1  0
  9 10  2  0
 10 11  1  0
 11 12  1  0
 12 13  1  0
 13 14  2  0
 14 15  1  0
 15 16  2  0
  9 17  1  0
 12 17  2  0
 16 17  1  0
  5 18  1  0
  2 19  1  0
 18 19  1  0
M  END
