NIC-BIO-174c9b04-1
     RDKit          3D

 20 22  0  0  0  0  0  0  0  0999 V2000
    8.6310   -1.8480   21.3050 C   0  0  0  0  0  0  0  0  0  0  0  0
    7.9250   -0.5380   21.4590 C   0  0  1  0  0  0  0  0  0  0  0  0
    8.9350    0.5080   21.8290 C   0  0  0  0  0  0  0  0  0  0  0  0
    9.0090    1.6020   21.2500 O   0  0  0  0  0  0  0  0  0  0  0  0
    9.7950    0.1630   22.8720 N   0  0  0  0  0  0  0  0  0  0  0  0
    9.8220   -1.1490   23.5300 C   0  0  0  0  0  0  0  0  0  0  0  0
   11.0560   -1.7390   23.3450 C   0  0  0  0  0  0  0  0  0  0  0  0
   12.0970   -1.0250   23.7270 N   0  0  0  0  0  0  0  0  0  0  0  0
   13.3390   -1.7250   23.4510 C   0  0  0  0  0  0  0  0  0  0  0  0
   12.0530    0.2690   23.3270 C   0  0  0  0  0  0  0  0  0  0  0  0
   10.8470    0.9820   23.2210 C   0  0  0  0  0  0  0  0  0  0  0  0
    7.1550   -0.2020   20.2030 C   0  0  0  0  0  0  0  0  0  0  0  0
    7.4000   -0.5900   18.8790 C   0  0  0  0  0  0  0  0  0  0  0  0
    6.4680   -0.0410   18.0710 N   0  0  0  0  0  0  0  0  0  0  0  0
    5.5580    0.7280   18.9000 C   0  0  0  0  0  0  0  0  0  0  0  0
    4.4350    1.4630   18.4760 N   0  0  0  0  0  0  0  0  0  0  0  0
    3.5840    2.1870   19.3710 C   0  0  0  0  0  0  0  0  0  0  0  0
    3.9340    2.1580   20.8950 C   0  0  0  0  0  0  0  0  0  0  0  0
    5.1980    1.3220   21.2450 C   0  0  0  0  0  0  0  0  0  0  0  0
    5.9900    0.6130   20.1900 C   0  0  0  0  0  0  0  0  0  0  0  0
  2  1  1  6
  2  3  1  0
  3  4  2  0
  3  5  1  0
  5  6  1  0
  6  7  1  0
  7  8  1  0
  8  9  1  0
  8 10  1  0
  5 11  1  0
 10 11  1  0
  2 12  1  0
 12 13  2  0
 13 14  1  0
 14 15  1  0
 15 16  1  0
 16 17  2  0
 17 18  1  0
 18 19  2  0
 12 20  1  0
 15 20  2  0
 19 20  1  0
M  END
