NIC-BIO-a68395b7-2-nitrile
     RDKit          3D

 25 26  0  0  0  0  0  0  0  0999 V2000
    7.7060   -3.8260   19.9700 C   0  0  0  0  0  0  0  0  0  0  0  0
    6.4170   -4.0730   19.7930 N   0  0  0  0  0  0  0  0  0  0  0  0
    8.4250   -3.8600   21.3150 C   0  0  0  0  0  0  0  0  0  0  0  0
    8.8730   -2.4150   21.2080 C   0  0  0  0  0  0  0  0  0  0  0  0
    9.2640   -3.2300   22.3810 C   0  0  0  0  0  0  0  0  0  0  0  0
    9.8790   -1.9510   22.6760 C   0  0  0  0  0  0  0  0  0  0  0  0
   10.6680   -1.1090   23.5890 C   0  0  0  0  0  0  0  0  0  0  0  0
   10.0120    0.1270   23.8070 N   0  0  0  0  0  0  0  0  0  0  0  0
    9.1490    0.6680   22.7180 C   0  0  0  0  0  0  0  0  0  0  0  0
    9.3900    0.5970   21.5270 O   0  0  0  0  0  0  0  0  0  0  0  0
    7.8900    1.3770   23.2060 C   0  0  2  0  0  0  0  0  0  0  0  0
    6.6150    0.7040   22.6710 C   0  0  0  0  0  0  0  0  0  0  0  0
    6.2740    0.7900   21.3070 C   0  0  0  0  0  0  0  0  0  0  0  0
    7.0270   -0.0630   20.2980 C   0  0  0  0  0  0  0  0  0  0  0  0
    6.6220    0.0830   18.9870 C   0  0  0  0  0  0  0  0  0  0  0  0
    5.6060    0.9270   18.5170 C   0  0  0  0  0  0  0  0  0  0  0  0
    5.2170    1.0590   17.2180 O   0  0  0  0  0  0  0  0  0  0  0  0
    4.9620    1.6780   19.4870 C   0  0  0  0  0  0  0  0  0  0  0  0
    5.2540    1.6400   20.8440 C   0  0  0  0  0  0  0  0  0  0  0  0
    8.0130    2.7200   22.7640 N   0  0  0  0  0  0  0  0  0  0  0  0
    7.0150    3.6090   22.9610 C   0  0  0  0  0  0  0  0  0  0  0  0
    7.1350    4.6780   22.1600 C   0  0  0  0  0  0  0  0  0  0  0  0
    6.1230    3.4760   23.7590 O   0  0  0  0  0  0  0  0  0  0  0  0
    9.9690   -3.0220   23.5550 C   0  0  0  0  0  0  0  0  0  0  0  0
    9.2230   -3.3680   22.4330 C   0  0  0  0  0  0  0  0  0  0  0  0
  1  2  2  3
  1  3  1  0
  3  4  2  0
  4  5  1  0
  5  6  2  0
  6  7  1  0
  7  8  1  0
  8  9  1  0
  9 10  2  0
  9 11  1  0
 11 12  1  6
 12 13  1  0
 13 14  2  0
 14 15  1  0
 15 16  2  0
 16 17  1  0
 16 18  1  0
 13 19  1  0
 18 19  2  0
 11 20  1  0
 20 21  1  0
 21 22  1  0
 21 23  2  0
  6 24  1  0
  3 25  1  0
 24 25  2  0
M  END
