NIC-BIO-a68395b7-2-vinylsulfonamide
     RDKit          3D

 28 29  0  0  0  0  0  0  0  0999 V2000
    6.2190   -3.5720   19.3950 C   0  0  0  0  0  0  0  0  0  0  0  0
    5.9600   -2.4670   20.4020 C   0  0  0  0  0  0  0  0  0  0  0  0
    5.5960   -3.1810   21.9660 S   0  0  0  0  0  0  0  0  0  0  0  0
    5.0780   -4.5080   21.7100 O   0  0  0  0  0  0  0  0  0  0  0  0
    4.7230   -2.2790   22.6880 O   0  0  0  0  0  0  0  0  0  0  0  0
    7.2590   -3.2430   22.7500 C   0  0  0  0  0  0  0  0  0  0  0  0
    7.9230   -4.1390   23.8140 C   0  0  0  0  0  0  0  0  0  0  0  0
    9.3330   -3.2080   23.6230 C   0  0  0  0  0  0  0  0  0  0  0  0
    9.6980   -2.0270   22.7620 C   0  0  0  0  0  0  0  0  0  0  0  0
    8.3770   -2.4000   22.5800 C   0  0  0  0  0  0  0  0  0  0  0  0
    7.6770   -1.6240   23.5260 N   0  0  0  0  0  0  0  0  0  0  0  0
    8.0340   -0.2820   23.4930 C   0  0  0  0  0  0  0  0  0  0  0  0
    9.2210    0.0340   23.6670 O   0  0  0  0  0  0  0  0  0  0  0  0
    7.0050    0.6600   23.3020 C   0  0  2  0  0  0  0  0  0  0  0  0
    5.8810    0.1180   22.6880 C   0  0  0  0  0  0  0  0  0  0  0  0
    5.8270    0.3480   21.3060 C   0  0  0  0  0  0  0  0  0  0  0  0
    4.7200    0.9920   20.7330 C   0  0  0  0  0  0  0  0  0  0  0  0
    4.6700    1.2100   19.3600 C   0  0  0  0  0  0  0  0  0  0  0  0
    5.7310    0.7770   18.5930 C   0  0  0  0  0  0  0  0  0  0  0  0
    5.6650    1.0000   17.1980 O   0  0  0  0  0  0  0  0  0  0  0  0
    6.8370    0.1420   19.1260 C   0  0  0  0  0  0  0  0  0  0  0  0
    6.8800   -0.0680   20.4800 C   0  0  0  0  0  0  0  0  0  0  0  0
    7.3190    1.7680   22.4980 N   0  0  0  0  0  0  0  0  0  0  0  0
    7.4300    3.0180   23.0100 C   0  0  0  0  0  0  0  0  0  0  0  0
    7.9400    4.0260   21.9800 C   0  0  0  0  0  0  0  0  0  0  0  0
    7.1550    3.3400   24.1630 O   0  0  0  0  0  0  0  0  0  0  0  0
    8.9460   -1.3710   21.8760 C   0  0  0  0  0  0  0  0  0  0  0  0
    8.4610   -2.4920   22.6290 C   0  0  0  0  0  0  0  0  0  0  0  0
  1  2  1  0
  3  2  1  0
  3  4  2  0
  3  5  2  0
  3  6  1  0
  6  7  2  0
  7  8  1  0
  8  9  2  0
  9 10  1  0
 10 11  1  0
 11 12  1  0
 12 13  2  0
 12 14  1  0
 14 15  1  6
 15 16  1  0
 16 17  2  0
 17 18  1  0
 18 19  2  0
 19 20  1  0
 19 21  1  0
 16 22  1  0
 21 22  2  0
 14 23  1  0
 23 24  1  0
 24 25  1  0
 24 26  2  0
  9 27  1  0
  6 28  1  0
 27 28  2  0
M  END
