NIC-BIO-b40446ce-1
     RDKit          3D

 26 27  0  0  0  0  0  0  0  0999 V2000
    7.5800    6.1160   21.7480 C   0  0  0  0  0  0  0  0  0  0  0  0
    7.4310    4.7500   22.3910 C   0  0  0  0  0  0  0  0  0  0  0  0
    6.5430    4.5540   23.2270 O   0  0  0  0  0  0  0  0  0  0  0  0
    8.2700    3.7160   22.0780 N   0  0  0  0  0  0  0  0  0  0  0  0
    8.6770    2.5410   22.8880 C   0  0  1  0  0  0  0  0  0  0  0  0
    7.8560    1.4030   22.8220 C   0  0  0  0  0  0  0  0  0  0  0  0
    7.2040    1.0940   21.4940 C   0  0  0  0  0  0  0  0  0  0  0  0
    7.1670   -0.0470   20.6780 C   0  0  0  0  0  0  0  0  0  0  0  0
    6.2960    0.6020   19.6050 N   0  0  0  0  0  0  0  0  0  0  0  0
    5.7450    1.9410   19.5270 C   0  0  0  0  0  0  0  0  0  0  0  0
    5.1000    1.5760   18.1860 C   0  0  0  0  0  0  0  0  0  0  0  0
    5.5610    0.2680   18.1720 C   0  0  0  0  0  0  0  0  0  0  0  0
    6.2930   -0.4420   19.0030 C   0  0  0  0  0  0  0  0  0  0  0  0
    6.7020    0.3110   20.1810 C   0  0  0  0  0  0  0  0  0  0  0  0
    7.4820   -0.4850   21.0900 O   0  0  0  0  0  0  0  0  0  0  0  0
    6.8770   -1.6310   21.6710 C   0  0  0  0  0  0  0  0  0  0  0  0
    5.4440   -1.8000   21.1610 C   0  0  0  0  0  0  0  0  0  0  0  0
    7.3850   -2.4110   22.4730 O   0  0  0  0  0  0  0  0  0  0  0  0
    6.4600    1.7710   20.6470 C   0  0  0  0  0  0  0  0  0  0  0  0
   10.2020    2.2120   22.7950 C   0  0  0  0  0  0  0  0  0  0  0  0
   11.0520    3.0390   22.4780 O   0  0  0  0  0  0  0  0  0  0  0  0
   10.4990    1.1140   23.0600 N   0  0  0  0  0  0  0  0  0  0  0  0
   11.8120    0.5960   22.6550 C   0  0  0  0  0  0  0  0  0  0  0  0
   12.7310    0.2930   23.7520 C   0  0  0  0  0  0  0  0  0  0  0  0
   12.9180   -1.0170   24.1970 C   0  0  0  0  0  0  0  0  0  0  0  0
   13.1850   -2.7640   24.8550 Br  0  0  0  0  0  0  0  0  0  0  0  0
  1  2  1  0
  2  3  2  0
  2  4  1  0
  4  5  1  0
  5  6  1  6
  6  7  1  0
  7  8  2  0
  8  9  1  0
  9 10  1  0
 10 11  1  0
 11 12  2  0
 12 13  1  0
 13 14  2  0
 14 15  1  0
 15 16  1  0
 16 17  1  0
 16 18  2  0
  7 19  1  0
 10 19  2  0
 14 19  1  0
  5 20  1  0
 20 21  2  0
 20 22  1  0
 22 23  1  0
 23 24  1  0
 24 25  3  0
 25 26  1  0
M  END
