NIC-BIO-7d400292-2
     RDKit          3D

 25 26  0  0  0  0  0  0  0  0999 V2000
    7.2010    5.0890   22.3640 C   0  0  0  0  0  0  0  0  0  0  0  0
    7.0140    3.7160   22.9680 C   0  0  0  0  0  0  0  0  0  0  0  0
    6.1520    3.4600   23.8100 O   0  0  0  0  0  0  0  0  0  0  0  0
    7.9670    2.7480   22.4410 N   0  0  0  0  0  0  0  0  0  0  0  0
    7.8160    1.3710   22.8980 C   0  0  1  0  0  0  0  0  0  0  0  0
    6.6350    0.7220   22.5960 C   0  0  0  0  0  0  0  0  0  0  0  0
    6.3790    0.6880   21.2450 C   0  0  0  0  0  0  0  0  0  0  0  0
    7.0510   -0.1650   20.3780 C   0  0  0  0  0  0  0  0  0  0  0  0
    6.8140   -0.1960   19.0320 C   0  0  0  0  0  0  0  0  0  0  0  0
    5.7840    0.7120   18.3840 C   0  0  0  0  0  0  0  0  0  0  0  0
    5.5690    0.6630   17.0120 O   0  0  0  0  0  0  0  0  0  0  0  0
    4.9890    1.6840   19.2860 C   0  0  0  0  0  0  0  0  0  0  0  0
    4.0470    2.5450   18.8810 F   0  0  0  0  0  0  0  0  0  0  0  0
    5.3990    1.5700   20.7570 C   0  0  0  0  0  0  0  0  0  0  0  0
    8.8950    0.5960   22.5610 C   0  0  0  0  0  0  0  0  0  0  0  0
   10.1450    1.1940   22.3330 O   0  0  0  0  0  0  0  0  0  0  0  0
    8.7120   -0.8150   22.4170 N   0  0  0  0  0  0  0  0  0  0  0  0
    9.8300   -1.4950   21.7690 C   0  0  0  0  0  0  0  0  0  0  0  0
   10.9790   -1.7540   22.6900 C   0  0  0  0  0  0  0  0  0  0  0  0
   10.7570   -2.8700   23.5830 C   0  0  0  0  0  0  0  0  0  0  0  0
   11.7920   -3.0330   24.3850 C   0  0  0  0  0  0  0  0  0  0  0  0
   12.9020   -2.2340   24.3550 C   0  0  0  0  0  0  0  0  0  0  0  0
   14.0060   -2.6950   25.5510 Cl  0  0  0  0  0  0  0  0  0  0  0  0
   13.3020   -1.1320   23.5670 C   0  0  0  0  0  0  0  0  0  0  0  0
   12.1620   -1.0180   22.7370 C   0  0  0  0  0  0  0  0  0  0  0  0
  1  2  1  0
  2  3  2  0
  2  4  1  0
  4  5  1  0
  5  6  1  6
  6  7  1  0
  7  8  2  0
  8  9  1  0
  9 10  2  0
 10 11  1  0
 10 12  1  0
 12 13  1  0
  7 14  1  0
 12 14  2  0
  5 15  1  0
 15 16  2  0
 15 17  1  0
 17 18  1  0
 18 19  1  0
 19 20  2  0
 20 21  1  0
 21 22  2  0
 22 23  1  0
 22 24  1  0
 19 25  1  0
 24 25  2  0
M  END
