NIM-UNI-310206f0-66-vinylsulfonamide
     RDKit          3D

 40 44  0  0  0  0  0  0  0  0999 V2000
    7.7750   -3.7540   19.9930 C   0  0  0  0  0  0  0  0  0  0  0  0
    6.9390   -3.2770   21.1690 C   0  0  0  0  0  0  0  0  0  0  0  0
    5.2650   -3.1580   20.6370 S   0  0  0  0  0  0  0  0  0  0  0  0
    4.4690   -3.0630   21.8380 O   0  0  0  0  0  0  0  0  0  0  0  0
    4.9690   -4.2120   19.7000 O   0  0  0  0  0  0  0  0  0  0  0  0
    5.1430   -1.7490   19.6540 N   0  0  0  0  0  0  0  0  0  0  0  0
    4.8010   -0.4510   20.2340 C   0  0  0  0  0  0  0  0  0  0  0  0
    5.7680    0.5900   19.6800 C   0  0  0  0  0  0  0  0  0  0  0  0
    7.1020    0.1060   19.9910 N   0  0  0  0  0  0  0  0  0  0  0  0
    7.2020   -0.2440   21.3280 C   0  0  0  0  0  0  0  0  0  0  0  0
    6.2040    0.4030   22.2910 C   0  0  0  0  0  0  0  0  0  0  0  0
    5.2530    1.2900   21.9510 F   0  0  0  0  0  0  0  0  0  0  0  0
    6.3570   -0.0380   23.7290 C   0  0  0  0  0  0  0  0  0  0  0  0
    7.2890   -0.9250   24.1600 C   0  0  0  0  0  0  0  0  0  0  0  0
    7.2120   -1.1400   25.5880 N   0  0  0  0  0  0  0  0  0  0  0  0
    7.8400    0.0150   26.2430 C   0  0  0  0  0  0  0  0  0  0  0  0
    7.2740    0.8100   27.0050 O   0  0  0  0  0  0  0  0  0  0  0  0
    9.1410    0.2160   25.9680 N   0  0  0  0  0  0  0  0  0  0  0  0
    9.6930   -0.8170   25.2880 C   0  0  0  0  0  0  0  0  0  0  0  0
   10.8690   -0.4150   24.4820 C   0  0  0  0  0  0  0  0  0  0  0  0
   11.9130   -1.3230   24.3100 C   0  0  0  0  0  0  0  0  0  0  0  0
   13.0440   -1.0500   23.5830 C   0  0  0  0  0  0  0  0  0  0  0  0
   13.1620    0.3000   22.9470 C   0  0  0  0  0  0  0  0  0  0  0  0
   12.0210    1.2770   23.1410 C   0  0  0  0  0  0  0  0  0  0  0  0
   12.0520    2.5010   22.6060 F   0  0  0  0  0  0  0  0  0  0  0  0
   10.9180    0.8660   23.9010 C   0  0  0  0  0  0  0  0  0  0  0  0
    7.4460   -2.4970   26.0550 C   0  0  0  0  0  0  0  0  0  0  0  0
    8.4640   -3.2610   25.4500 C   0  0  0  0  0  0  0  0  0  0  0  0
    8.7640   -4.5670   25.8440 C   0  0  0  0  0  0  0  0  0  0  0  0
    8.0360   -5.1590   26.8790 C   0  0  0  0  0  0  0  0  0  0  0  0
    6.9550   -4.3770   27.5340 C   0  0  0  0  0  0  0  0  0  0  0  0
    6.1030   -4.7150   28.5600 N   0  0  0  0  0  0  0  0  0  0  0  0
    5.2770   -3.6660   28.8240 C   0  0  0  0  0  0  0  0  0  0  0  0
    5.6330   -2.6230   27.9130 C   0  0  0  0  0  0  0  0  0  0  0  0
    6.6700   -3.0700   27.1220 C   0  0  0  0  0  0  0  0  0  0  0  0
    8.1790   -1.4870   23.2510 C   0  0  0  0  0  0  0  0  0  0  0  0
    8.1310   -1.1530   21.8970 C   0  0  0  0  0  0  0  0  0  0  0  0
    9.0490   -1.7740   21.1620 F   0  0  0  0  0  0  0  0  0  0  0  0
    7.3940   -1.0010   19.0650 C   0  0  0  0  0  0  0  0  0  0  0  0
    6.1020   -1.6380   18.5700 C   0  0  0  0  0  0  0  0  0  0  0  0
  1  2  1  0
  3  2  1  0
  3  4  2  0
  3  5  2  0
  3  6  1  0
  6  7  1  0
  7  8  1  0
  8  9  1  0
  9 10  1  0
 10 11  2  0
 11 12  1  0
 11 13  1  0
 13 14  2  0
 14 15  1  0
 15 16  1  0
 16 17  2  0
 16 18  1  0
 18 19  1  0
 19 20  1  0
 20 21  2  0
 21 22  1  0
 22 23  2  0
 23 24  1  0
 24 25  1  0
 20 26  1  0
 24 26  2  0
 15 27  1  0
 27 28  2  0
 28 29  1  0
 29 30  2  0
 30 31  1  0
 31 32  1  0
 32 33  1  0
 33 34  2  0
 27 35  1  0
 31 35  2  0
 34 35  1  0
 14 36  1  0
 10 37  1  0
 36 37  2  0
 37 38  1  0
  9 39  1  0
  6 40  1  0
 39 40  1  0
M  END
