NIM-UNI-310206f0-65-chloroacetamide
     RDKit          3D

 35 39  0  0  0  0  0  0  0  0999 V2000
    6.9540   -3.0570   19.0550 C   0  0  0  0  0  0  0  0  0  0  0  0
    6.0130   -3.6200   20.1200 C   0  0  0  0  0  0  0  0  0  0  0  0
    5.1410   -4.4080   19.7980 O   0  0  0  0  0  0  0  0  0  0  0  0
    6.1600   -3.2790   21.4590 N   0  0  0  0  0  0  0  0  0  0  0  0
    6.1420   -1.8970   21.8960 C   0  0  0  0  0  0  0  0  0  0  0  0
    6.3680   -1.8860   23.3990 C   0  0  0  0  0  0  0  0  0  0  0  0
    7.6640   -2.4820   23.7030 N   0  0  0  0  0  0  0  0  0  0  0  0
    8.6190   -1.5270   23.5190 C   0  0  0  0  0  0  0  0  0  0  0  0
    9.2030   -0.7810   22.4050 C   0  0  0  0  0  0  0  0  0  0  0  0
    8.8980   -0.8980   21.1090 F   0  0  0  0  0  0  0  0  0  0  0  0
   10.3210    0.2870   23.0160 C   0  0  0  0  0  0  0  0  0  0  0  0
   10.8000    0.5840   24.4580 C   0  0  0  0  0  0  0  0  0  0  0  0
   11.4520    1.4210   23.4700 N   0  0  0  0  0  0  0  0  0  0  0  0
   12.7470    1.0110   23.0290 C   0  0  0  0  0  0  0  0  0  0  0  0
   13.6300    1.6770   22.5700 O   0  0  0  0  0  0  0  0  0  0  0  0
   12.9680   -0.3060   23.2560 C   0  0  0  0  0  0  0  0  0  0  0  0
   13.2550   -1.4140   22.3440 C   0  0  0  0  0  0  0  0  0  0  0  0
   13.4540   -2.6560   22.9160 C   0  0  0  0  0  0  0  0  0  0  0  0
   13.3860   -2.8560   24.3020 C   0  0  0  0  0  0  0  0  0  0  0  0
   13.1160   -1.9550   25.2210 N   0  0  0  0  0  0  0  0  0  0  0  0
   12.8980   -0.6680   24.7240 C   0  0  0  0  0  0  0  0  0  0  0  0
   10.8790    2.7120   23.3040 C   0  0  0  0  0  0  0  0  0  0  0  0
    9.4940    2.8400   23.4380 C   0  0  0  0  0  0  0  0  0  0  0  0
    8.8290    4.0600   23.3030 C   0  0  0  0  0  0  0  0  0  0  0  0
    9.5290    5.2130   23.0280 C   0  0  0  0  0  0  0  0  0  0  0  0
   10.8920    5.1360   22.8880 C   0  0  0  0  0  0  0  0  0  0  0  0
   11.7710    6.1740   22.6150 N   0  0  0  0  0  0  0  0  0  0  0  0
   13.0340    5.7040   22.5530 C   0  0  0  0  0  0  0  0  0  0  0  0
   12.9080    4.2530   22.8100 C   0  0  0  0  0  0  0  0  0  0  0  0
   11.6050    3.9120   23.0160 C   0  0  0  0  0  0  0  0  0  0  0  0
    9.9930   -0.3540   25.0460 C   0  0  0  0  0  0  0  0  0  0  0  0
    9.4570   -0.7630   24.0530 C   0  0  0  0  0  0  0  0  0  0  0  0
   10.0180   -0.0890   23.0510 F   0  0  0  0  0  0  0  0  0  0  0  0
    7.8700   -3.7710   23.0480 C   0  0  0  0  0  0  0  0  0  0  0  0
    6.7140   -4.2430   22.4120 C   0  0  0  0  0  0  0  0  0  0  0  0
  1  2  1  0
  2  3  2  0
  2  4  1  0
  4  5  1  0
  5  6  1  0
  6  7  1  0
  7  8  1  0
  8  9  2  0
  9 10  1  0
  9 11  1  0
 11 12  2  0
 12 13  1  0
 13 14  1  0
 14 15  2  0
 14 16  1  0
 16 17  2  0
 17 18  1  0
 18 19  2  0
 19 20  1  0
 16 21  1  0
 20 21  2  0
 13 22  1  0
 22 23  2  0
 23 24  1  0
 24 25  2  0
 25 26  1  0
 26 27  1  0
 27 28  1  0
 28 29  2  0
 22 30  1  0
 26 30  2  0
 29 30  1  0
 12 31  1  0
  8 32  1  0
 31 32  2  0
 32 33  1  0
  7 34  1  0
  4 35  1  0
 34 35  1  0
M  END
