NIM-UNI-05f93fcc-2-chloroacetamide
     RDKit          3D

 23 25  0  0  0  0  0  0  0  0999 V2000
    7.0900   -3.3820   19.9120 C   0  0  0  0  0  0  0  0  0  0  0  0
    6.3060   -4.4940   20.5730 C   0  0  0  0  0  0  0  0  0  0  0  0
    5.3330   -4.9360   19.9760 O   0  0  0  0  0  0  0  0  0  0  0  0
    6.6210   -5.0400   21.8080 N   0  0  0  0  0  0  0  0  0  0  0  0
    7.2560   -4.3060   22.8920 C   0  0  0  0  0  0  0  0  0  0  0  0
    6.3100   -4.2500   24.0880 C   0  0  0  0  0  0  0  0  0  0  0  0
    5.5200   -5.3250   24.2950 N   0  0  0  0  0  0  0  0  0  0  0  0
    4.7080   -5.5330   25.7720 S   0  0  0  0  0  0  0  0  0  0  0  0
    4.0190   -6.8030   25.7620 O   0  0  0  0  0  0  0  0  0  0  0  0
    5.6540   -5.2120   26.8210 O   0  0  0  0  0  0  0  0  0  0  0  0
    3.4490   -4.2800   25.8190 C   0  0  0  0  0  0  0  0  0  0  0  0
    2.1290   -4.3350   25.7090 C   0  0  0  0  0  0  0  0  0  0  0  0
    1.5170   -3.1240   25.8030 C   0  0  0  0  0  0  0  0  0  0  0  0
    2.1780   -1.8770   26.0030 C   0  0  0  0  0  0  0  0  0  0  0  0
    3.2040   -0.9850   26.1900 C   0  0  0  0  0  0  0  0  0  0  0  0
    3.2740    0.3820   26.3570 C   0  0  0  0  0  0  0  0  0  0  0  0
    4.5560    0.9950   26.5340 C   0  0  0  0  0  0  0  0  0  0  0  0
    5.7990    0.2560   26.5460 C   0  0  0  0  0  0  0  0  0  0  0  0
    5.7590   -1.1480   26.3740 C   0  0  0  0  0  0  0  0  0  0  0  0
    4.4640   -1.4670   26.2320 C   0  0  0  0  0  0  0  0  0  0  0  0
    3.7680   -2.6580   26.0360 S   0  0  0  0  0  0  0  0  0  0  0  0
    5.0250   -5.9670   23.1490 C   0  0  0  0  0  0  0  0  0  0  0  0
    6.0130   -6.2160   22.2070 C   0  0  0  0  0  0  0  0  0  0  0  0
  1  2  1  0
  2  3  2  0
  2  4  1  0
  4  5  1  0
  5  6  1  0
  6  7  1  0
  7  8  1  0
  8  9  2  0
  8 10  2  0
  8 11  1  0
 11 12  2  0
 12 13  1  0
 13 14  2  0
 14 15  1  0
 15 16  2  0
 16 17  1  0
 17 18  2  0
 18 19  1  0
 15 20  1  0
 19 20  2  0
 11 21  1  0
 14 21  1  0
  7 22  1  0
  4 23  1  0
 22 23  1  0
M  END
