NIM-UNI-b87c0f72-3
     RDKit          3D

 32 35  0  0  0  0  0  0  0  0999 V2000
    7.4870   -1.7990   19.3620 C   0  0  0  0  0  0  0  0  0  0  0  0
    6.1310   -2.2320   19.3020 O   0  0  0  0  0  0  0  0  0  0  0  0
    5.7910   -3.2290   20.1450 C   0  0  0  0  0  0  0  0  0  0  0  0
    5.3220   -4.3090   19.7930 O   0  0  0  0  0  0  0  0  0  0  0  0
    6.0540   -2.9300   21.4810 C   0  0  2  0  0  0  0  0  0  0  0  0
    5.6160   -3.9140   22.3410 C   0  0  0  0  0  0  0  0  0  0  0  0
    4.8130   -4.7670   21.9740 O   0  0  0  0  0  0  0  0  0  0  0  0
    6.0610   -3.8400   23.6520 C   0  0  0  0  0  0  0  0  0  0  0  0
    5.4870   -2.7030   24.2390 C   0  0  1  0  0  0  0  0  0  0  0  0
    6.2000   -2.2980   25.5120 C   0  0  0  0  0  0  0  0  0  0  0  0
    7.2410   -1.2760   25.1400 C   0  0  0  0  0  0  0  0  0  0  0  0
    6.8980    0.1770   25.4030 C   0  0  0  0  0  0  0  0  0  0  0  0
    7.9270    1.2120   25.0100 C   0  0  0  0  0  0  0  0  0  0  0  0
    9.2210    0.7220   24.3950 C   0  0  0  0  0  0  0  0  0  0  0  0
   10.1850    1.6390   24.0250 C   0  0  0  0  0  0  0  0  0  0  0  0
   11.4820    1.1840   23.4090 C   0  0  0  0  0  0  0  0  0  0  0  0
   11.7460   -0.2350   23.1830 C   0  0  0  0  0  0  0  0  0  0  0  0
   13.1970   -0.8230   22.4780 S   0  0  0  0  0  0  0  0  0  0  0  0
   12.6660   -1.8200   21.2400 N   0  0  0  0  0  0  0  0  0  0  0  0
   13.7590   -1.7560   23.4230 O   0  0  0  0  0  0  0  0  0  0  0  0
   13.8470    0.3410   21.9450 O   0  0  0  0  0  0  0  0  0  0  0  0
   10.6600   -1.2190   23.6070 C   0  0  0  0  0  0  0  0  0  0  0  0
    9.4130   -0.6410   24.2130 C   0  0  0  0  0  0  0  0  0  0  0  0
    8.4530   -1.6310   24.5730 C   0  0  0  0  0  0  0  0  0  0  0  0
    5.6500   -1.5540   23.3660 O   0  0  0  0  0  0  0  0  0  0  0  0
    5.2210   -1.7580   22.0140 C   0  0  1  0  0  0  0  0  0  0  0  0
    5.2990   -0.5520   21.3180 C   0  0  0  0  0  0  0  0  0  0  0  0
    4.8730   -0.5900   20.0090 C   0  0  0  0  0  0  0  0  0  0  0  0
    4.9020    0.6990   19.1710 C   0  0  0  0  0  0  0  0  0  0  0  0
    5.4260    1.9180   19.9280 C   0  0  0  0  0  0  0  0  0  0  0  0
    5.8280    1.8610   21.2160 N   0  0  0  0  0  0  0  0  0  0  0  0
    5.7580    0.6580   21.8650 C   0  0  0  0  0  0  0  0  0  0  0  0
  1  2  1  0
  2  3  1  0
  3  4  2  0
  5  3  1  6
  5  6  1  0
  6  7  2  0
  6  8  1  0
  8  9  1  0
  9 10  1  1
 10 11  1  0
 11 12  2  0
 12 13  1  0
 13 14  2  0
 14 15  1  0
 15 16  2  0
 16 17  1  0
 17 18  1  0
 18 19  1  0
 18 20  2  0
 18 21  2  0
 17 22  2  0
 14 23  1  0
 22 23  1  0
 11 24  1  0
 23 24  2  0
  9 25  1  0
  5 26  1  0
 25 26  1  0
 26 27  1  6
 27 28  2  0
 28 29  1  0
 29 30  2  0
 30 31  1  0
 27 32  1  0
 31 32  2  0
M  END
