NIM-UNI-43fe0159-1-acrylamide
     RDKit          3D

 17 18  0  0  0  0  0  0  0  0999 V2000
    8.1910   -3.4960   19.8290 C   0  0  0  0  0  0  0  0  0  0  0  0
    7.0030   -2.8030   19.2920 C   0  0  0  0  0  0  0  0  0  0  0  0
    6.0860   -3.3810   20.2870 C   0  0  0  0  0  0  0  0  0  0  0  0
    5.1980   -4.1780   19.9630 O   0  0  0  0  0  0  0  0  0  0  0  0
    6.4140   -2.9790   21.5830 N   0  0  0  0  0  0  0  0  0  0  0  0
    6.8590   -1.6100   21.7120 C   0  0  0  0  0  0  0  0  0  0  0  0
    7.5120   -1.5440   22.8950 C   0  0  0  0  0  0  0  0  0  0  0  0
    8.7320   -2.0970   22.9450 C   0  0  1  0  0  0  0  0  0  0  0  0
    9.5870   -1.4240   23.8350 C   0  0  0  0  0  0  0  0  0  0  0  0
   10.7790   -0.6580   24.5360 C   0  0  0  0  0  0  0  0  0  0  0  0
   12.0120   -0.2650   24.0520 C   0  0  0  0  0  0  0  0  0  0  0  0
   12.3370   -0.5840   22.7150 C   0  0  0  0  0  0  0  0  0  0  0  0
   13.5640   -0.2130   22.1890 N   0  0  0  0  0  0  0  0  0  0  0  0
   11.4200   -1.2500   21.9970 C   0  0  0  0  0  0  0  0  0  0  0  0
   10.2050   -1.5990   22.5400 C   0  0  0  0  0  0  0  0  0  0  0  0
    8.3550   -3.5000   23.1130 O   0  0  0  0  0  0  0  0  0  0  0  0
    7.0120   -3.8630   22.6120 C   0  0  0  0  0  0  0  0  0  0  0  0
  1  2  1  0
  2  3  1  0
  3  4  2  0
  3  5  1  0
  5  6  1  0
  6  7  1  0
  7  8  1  0
  8  9  1  1
  9 10  2  0
 10 11  1  0
 11 12  2  0
 12 13  1  0
 12 14  1  0
  9 15  1  0
 14 15  2  0
  8 16  1  0
  5 17  1  0
 16 17  1  0
M  END
