NIM-UNI-43fe0159-11-chloroacetamide
     RDKit          3D

 19 20  0  0  0  0  0  0  0  0999 V2000
    7.2670   -3.0750   18.9130 C   0  0  0  0  0  0  0  0  0  0  0  0
    6.3150   -3.4650   19.9970 C   0  0  0  0  0  0  0  0  0  0  0  0
    5.3570   -4.2020   19.7660 O   0  0  0  0  0  0  0  0  0  0  0  0
    6.5710   -2.9960   21.2690 N   0  0  0  0  0  0  0  0  0  0  0  0
    7.2030   -1.7090   21.4650 C   0  0  0  0  0  0  0  0  0  0  0  0
    7.9610   -1.7490   22.6620 C   0  0  0  0  0  0  0  0  0  0  0  0
    9.0510   -2.5720   22.4860 C   0  0  2  0  0  0  0  0  0  0  0  0
   10.2600   -1.9040   22.3410 C   0  0  0  0  0  0  0  0  0  0  0  0
    9.3990   -1.8840   23.3790 C   0  0  0  0  0  0  0  0  0  0  0  0
    9.5970   -1.1540   24.5150 C   0  0  0  0  0  0  0  0  0  0  0  0
   10.3130   -0.3930   25.1080 C   0  0  0  0  0  0  0  0  0  0  0  0
    9.7000    0.0600   26.6970 S   0  0  0  0  0  0  0  0  0  0  0  0
    7.9500   -0.0850   26.5400 C   0  0  0  0  0  0  0  0  0  0  0  0
    7.2440   -0.8280   27.4860 C   0  0  0  0  0  0  0  0  0  0  0  0
    7.2700    0.5270   25.5180 O   0  0  0  0  0  0  0  0  0  0  0  0
   11.3820   -0.2150   24.1940 C   0  0  0  0  0  0  0  0  0  0  0  0
   11.3090   -0.9550   22.8980 C   0  0  0  0  0  0  0  0  0  0  0  0
    8.6570   -3.7150   21.7640 O   0  0  0  0  0  0  0  0  0  0  0  0
    7.2780   -3.9360   22.0810 C   0  0  0  0  0  0  0  0  0  0  0  0
  1  2  1  0
  2  3  2  0
  2  4  1  0
  4  5  1  0
  5  6  1  0
  6  7  1  0
  7  8  1  6
  8  9  2  0
  9 10  1  0
 10 11  2  0
 11 12  1  0
 12 13  1  0
 13 14  1  0
 13 15  2  0
 11 16  1  0
  8 17  1  0
 16 17  2  0
  7 18  1  0
  4 19  1  0
 18 19  1  0
M  END
