NIM-UNI-310206f0-69-chloroacetamide
     RDKit          3D

 23 25  0  0  0  0  0  0  0  0999 V2000
    6.9520   -3.0110   18.9710 C   0  0  0  0  0  0  0  0  0  0  0  0
    5.9690   -3.4780   20.0520 C   0  0  0  0  0  0  0  0  0  0  0  0
    5.2300   -4.4270   19.8220 O   0  0  0  0  0  0  0  0  0  0  0  0
    5.9020   -2.8630   21.3010 N   0  0  0  0  0  0  0  0  0  0  0  0
    6.6490   -1.6280   21.5710 C   0  0  0  0  0  0  0  0  0  0  0  0
    7.6090   -1.8020   22.7400 C   0  0  0  0  0  0  0  0  0  0  0  0
    6.9410   -2.4480   23.8840 N   0  0  0  0  0  0  0  0  0  0  0  0
    7.6970   -2.3180   25.3810 S   0  0  0  0  0  0  0  0  0  0  0  0
    7.9820   -3.6300   25.9020 O   0  0  0  0  0  0  0  0  0  0  0  0
    6.9630   -1.3490   26.1650 O   0  0  0  0  0  0  0  0  0  0  0  0
    9.1900   -1.6050   24.8330 C   0  0  0  0  0  0  0  0  0  0  0  0
    9.6740   -0.2580   25.4300 C   0  0  0  0  0  0  0  0  0  0  0  0
   10.8530   -0.3150   24.4500 C   0  0  0  0  0  0  0  0  0  0  0  0
   11.0320   -1.3130   23.5750 C   0  0  0  0  0  0  0  0  0  0  0  0
   11.9610   -1.3160   22.7160 C   0  0  0  0  0  0  0  0  0  0  0  0
   12.1330   -2.3790   21.9220 C   0  0  0  0  0  0  0  0  0  0  0  0
   13.1210   -2.4120   20.8870 C   0  0  0  0  0  0  0  0  0  0  0  0
   13.8310   -1.3150   20.7530 N   0  0  0  0  0  0  0  0  0  0  0  0
   13.6110   -0.2060   21.6550 C   0  0  0  0  0  0  0  0  0  0  0  0
   12.7500   -0.0890   22.6480 C   0  0  0  0  0  0  0  0  0  0  0  0
    9.9860   -2.5410   23.5710 S   0  0  0  0  0  0  0  0  0  0  0  0
    6.5190   -3.7690   23.5440 C   0  0  0  0  0  0  0  0  0  0  0  0
    5.4720   -3.6890   22.4430 C   0  0  0  0  0  0  0  0  0  0  0  0
  1  2  1  0
  2  3  2  0
  2  4  1  0
  4  5  1  0
  5  6  1  0
  6  7  1  0
  7  8  1  0
  8  9  2  0
  8 10  2  0
  8 11  1  0
 11 12  2  0
 12 13  1  0
 13 14  2  0
 14 15  1  0
 15 16  2  0
 16 17  1  0
 17 18  2  0
 18 19  1  0
 15 20  1  0
 19 20  2  0
 11 21  1  0
 14 21  1  0
  7 22  1  0
  4 23  1  0
 22 23  1  0
M  END
