NIM-UNI-310206f0-62-nitrile
     RDKit          3D

 35 39  0  0  0  0  0  0  0  0999 V2000
    6.4380   -3.8700   19.9360 C   0  0  0  0  0  0  0  0  0  0  0  0
    5.5810   -3.4090   19.1090 N   0  0  0  0  0  0  0  0  0  0  0  0
    6.3000   -3.6260   21.2940 N   0  0  0  0  0  0  0  0  0  0  0  0
    5.7120   -2.3480   21.7360 C   0  0  0  0  0  0  0  0  0  0  0  0
    5.3470   -2.4520   23.2160 C   0  0  0  0  0  0  0  0  0  0  0  0
    6.4710   -3.0230   23.9480 N   0  0  0  0  0  0  0  0  0  0  0  0
    7.6070   -2.2040   23.9340 C   0  0  0  0  0  0  0  0  0  0  0  0
    8.2530   -1.1270   24.5020 C   0  0  0  0  0  0  0  0  0  0  0  0
    9.4040   -0.9420   23.8710 F   0  0  0  0  0  0  0  0  0  0  0  0
    8.1600   -0.1870   25.4550 C   0  0  0  0  0  0  0  0  0  0  0  0
    9.5480    0.2970   24.9520 C   0  0  0  0  0  0  0  0  0  0  0  0
   10.8210    0.5250   24.2870 N   0  0  0  0  0  0  0  0  0  0  0  0
   11.7480   -0.5450   24.2180 C   0  0  0  0  0  0  0  0  0  0  0  0
   12.5360   -0.8100   25.3060 C   0  0  0  0  0  0  0  0  0  0  0  0
   13.4470   -1.8400   25.3250 C   0  0  0  0  0  0  0  0  0  0  0  0
   13.6150   -2.6680   24.1520 C   0  0  0  0  0  0  0  0  0  0  0  0
   12.8600   -2.3950   23.0880 C   0  0  0  0  0  0  0  0  0  0  0  0
   12.9360   -3.0780   21.9340 N   0  0  0  0  0  0  0  0  0  0  0  0
   12.0710   -2.6190   21.0770 C   0  0  0  0  0  0  0  0  0  0  0  0
   11.3130   -1.4920   21.6930 C   0  0  0  0  0  0  0  0  0  0  0  0
   11.9050   -1.3630   23.0670 C   0  0  0  0  0  0  0  0  0  0  0  0
   10.9140    1.5140   22.9190 S   0  0  0  0  0  0  0  0  0  0  0  0
    9.6740    1.4260   22.1650 O   0  0  0  0  0  0  0  0  0  0  0  0
   12.1760    1.1070   22.3690 O   0  0  0  0  0  0  0  0  0  0  0  0
   11.1470    3.2290   23.2570 C   0  0  0  0  0  0  0  0  0  0  0  0
   12.3540    3.8600   22.9430 C   0  0  0  0  0  0  0  0  0  0  0  0
   12.5270    5.2090   23.2010 C   0  0  0  0  0  0  0  0  0  0  0  0
   11.4860    5.9190   23.7730 C   0  0  0  0  0  0  0  0  0  0  0  0
   10.2950    5.3420   24.0910 N   0  0  0  0  0  0  0  0  0  0  0  0
   10.1380    4.0150   23.8320 C   0  0  0  0  0  0  0  0  0  0  0  0
    9.6460   -0.8140   23.8240 C   0  0  0  0  0  0  0  0  0  0  0  0
    8.8020   -1.9730   23.3090 C   0  0  0  0  0  0  0  0  0  0  0  0
    9.2540   -2.6970   22.2870 F   0  0  0  0  0  0  0  0  0  0  0  0
    6.7020   -4.4440   23.5290 C   0  0  0  0  0  0  0  0  0  0  0  0
    6.1490   -4.7300   22.2770 C   0  0  0  0  0  0  0  0  0  0  0  0
  1  2  2  3
  1  3  1  0
  3  4  1  0
  4  5  1  0
  5  6  1  0
  6  7  1  0
  7  8  2  0
  8  9  1  0
  8 10  1  0
 10 11  2  0
 11 12  1  0
 12 13  1  0
 13 14  2  0
 14 15  1  0
 15 16  2  0
 16 17  1  0
 17 18  1  0
 18 19  1  0
 19 20  2  0
 13 21  1  0
 17 21  2  0
 20 21  1  0
 22 12  1  0
 22 23  2  0
 22 24  2  0
 22 25  1  0
 25 26  2  0
 26 27  1  0
 27 28  2  0
 28 29  1  0
 25 30  1  0
 29 30  2  0
 11 31  1  0
  7 32  1  0
 31 32  2  0
 32 33  1  0
  6 34  1  0
  3 35  1  0
 34 35  1  0
M  END
