NIM-UNI-05f93fcc-2-acrylamide
     RDKit          3D

 24 26  0  0  0  0  0  0  0  0999 V2000
    7.4940   -3.0830   19.0480 C   0  0  0  0  0  0  0  0  0  0  0  0
    7.0830   -3.0640   20.4980 C   0  0  0  0  0  0  0  0  0  0  0  0
    6.2020   -4.2570   20.7690 C   0  0  0  0  0  0  0  0  0  0  0  0
    5.2240   -4.4840   20.0210 O   0  0  0  0  0  0  0  0  0  0  0  0
    6.5330   -5.0650   21.8420 N   0  0  0  0  0  0  0  0  0  0  0  0
    5.7020   -6.2320   22.1480 C   0  0  0  0  0  0  0  0  0  0  0  0
    4.9350   -6.0230   23.4160 C   0  0  0  0  0  0  0  0  0  0  0  0
    5.5990   -5.3550   24.4740 N   0  0  0  0  0  0  0  0  0  0  0  0
    4.8940   -5.2940   26.0140 S   0  0  0  0  0  0  0  0  0  0  0  0
    5.9250   -5.1730   27.0130 O   0  0  0  0  0  0  0  0  0  0  0  0
    3.8960   -6.3410   26.0790 O   0  0  0  0  0  0  0  0  0  0  0  0
    4.0330   -3.7420   26.0190 C   0  0  0  0  0  0  0  0  0  0  0  0
    4.5130   -2.5130   26.0720 C   0  0  0  0  0  0  0  0  0  0  0  0
    3.5080   -1.5730   26.0560 C   0  0  0  0  0  0  0  0  0  0  0  0
    2.1090   -1.8830   25.9860 C   0  0  0  0  0  0  0  0  0  0  0  0
    0.9180   -2.5740   25.9150 C   0  0  0  0  0  0  0  0  0  0  0  0
    0.9020   -3.8190   25.2660 C   0  0  0  0  0  0  0  0  0  0  0  0
   -0.2840   -4.5240   25.1880 C   0  0  0  0  0  0  0  0  0  0  0  0
   -1.4530   -4.0380   25.7340 C   0  0  0  0  0  0  0  0  0  0  0  0
   -1.4730   -2.8160   26.3800 C   0  0  0  0  0  0  0  0  0  0  0  0
   -0.2830   -2.0740   26.4760 C   0  0  0  0  0  0  0  0  0  0  0  0
    2.3890   -3.6160   25.9540 S   0  0  0  0  0  0  0  0  0  0  0  0
    6.2450   -4.1970   24.0010 C   0  0  0  0  0  0  0  0  0  0  0  0
    7.1950   -4.4860   23.0240 C   0  0  0  0  0  0  0  0  0  0  0  0
  1  2  1  0
  2  3  1  0
  3  4  2  0
  3  5  1  0
  5  6  1  0
  6  7  1  0
  7  8  1  0
  8  9  1  0
  9 10  2  0
  9 11  2  0
  9 12  1  0
 12 13  2  0
 13 14  1  0
 14 15  2  0
 15 16  1  0
 16 17  2  0
 17 18  1  0
 18 19  2  0
 19 20  1  0
 16 21  1  0
 20 21  2  0
 12 22  1  0
 15 22  1  0
  8 23  1  0
  5 24  1  0
 23 24  1  0
M  END
