NIM-UNI-310206f0-71-nitrile
     RDKit          3D

 21 23  0  0  0  0  0  0  0  0999 V2000
    6.5930   -3.5650   19.7140 C   0  0  0  0  0  0  0  0  0  0  0  0
    5.7400   -3.2260   18.8350 N   0  0  0  0  0  0  0  0  0  0  0  0
    6.4140   -3.3010   21.0540 N   0  0  0  0  0  0  0  0  0  0  0  0
    6.1110   -4.3740   22.0320 C   0  0  0  0  0  0  0  0  0  0  0  0
    7.0230   -4.2910   23.2640 C   0  0  0  0  0  0  0  0  0  0  0  0
    7.2220   -2.9120   23.7000 N   0  0  0  0  0  0  0  0  0  0  0  0
    8.1050   -2.7110   25.1530 S   0  0  0  0  0  0  0  0  0  0  0  0
    7.3950   -1.7190   25.9350 O   0  0  0  0  0  0  0  0  0  0  0  0
    8.4660   -4.0050   25.6770 O   0  0  0  0  0  0  0  0  0  0  0  0
    9.5350   -1.9140   24.5450 C   0  0  0  0  0  0  0  0  0  0  0  0
    9.9270   -0.5810   25.2950 C   0  0  0  0  0  0  0  0  0  0  0  0
   11.0710   -0.4200   24.3160 C   0  0  0  0  0  0  0  0  0  0  0  0
   11.3700   -1.3630   23.2100 C   0  0  0  0  0  0  0  0  0  0  0  0
   12.3090   -1.1410   22.3740 C   0  0  0  0  0  0  0  0  0  0  0  0
   12.6270   -1.9130   21.3260 C   0  0  0  0  0  0  0  0  0  0  0  0
   13.5930   -1.3010   20.6940 N   0  0  0  0  0  0  0  0  0  0  0  0
   13.7610   -0.1850   21.4490 N   0  0  0  0  0  0  0  0  0  0  0  0
   12.9990   -0.0510   22.5270 C   0  0  0  0  0  0  0  0  0  0  0  0
   10.2680   -2.6750   23.2220 S   0  0  0  0  0  0  0  0  0  0  0  0
    7.6980   -2.0470   22.5600 C   0  0  0  0  0  0  0  0  0  0  0  0
    6.7120   -1.9790   21.5810 C   0  0  0  0  0  0  0  0  0  0  0  0
  1  2  2  3
  1  3  1  0
  3  4  1  0
  4  5  1  0
  5  6  1  0
  6  7  1  0
  7  8  2  0
  7  9  2  0
  7 10  1  0
 10 11  2  0
 11 12  1  0
 12 13  2  0
 13 14  1  0
 14 15  1  0
 15 16  2  0
 16 17  1  0
 14 18  2  0
 17 18  1  0
 10 19  1  0
 13 19  1  0
  6 20  1  0
  3 21  1  0
 20 21  1  0
M  END
