NIM-UNI-310206f0-64-nitrile
     RDKit          3D

 34 38  0  0  0  0  0  0  0  0999 V2000
    6.2070   -4.5980   20.1710 C   0  0  0  0  0  0  0  0  0  0  0  0
    5.7220   -5.7510   19.9830 N   0  0  0  0  0  0  0  0  0  0  0  0
    5.8700   -3.9500   21.3340 N   0  0  0  0  0  0  0  0  0  0  0  0
    6.0650   -4.5990   22.6300 C   0  0  0  0  0  0  0  0  0  0  0  0
    7.2990   -4.0100   23.3010 C   0  0  0  0  0  0  0  0  0  0  0  0
    7.4200   -2.5550   23.1690 N   0  0  0  0  0  0  0  0  0  0  0  0
    8.6520   -2.0260   23.4290 C   0  0  0  0  0  0  0  0  0  0  0  0
   10.0100   -2.2640   23.9220 C   0  0  0  0  0  0  0  0  0  0  0  0
   10.5640   -3.3810   24.3830 F   0  0  0  0  0  0  0  0  0  0  0  0
   10.8070   -0.8190   23.8050 C   0  0  0  0  0  0  0  0  0  0  0  0
   10.2580    0.6870   23.2350 C   0  0  0  0  0  0  0  0  0  0  0  0
   11.5870    1.0080   23.5720 N   0  0  0  0  0  0  0  0  0  0  0  0
   12.3980    0.0840   24.3240 C   0  0  0  0  0  0  0  0  0  0  0  0
   12.7820    0.0570   25.4620 O   0  0  0  0  0  0  0  0  0  0  0  0
   12.7970   -1.0300   23.7150 C   0  0  0  0  0  0  0  0  0  0  0  0
   12.7620   -1.1010   22.4180 C   0  0  0  0  0  0  0  0  0  0  0  0
   13.2090   -2.3670   22.0410 C   0  0  0  0  0  0  0  0  0  0  0  0
   13.2900   -2.7490   20.7830 C   0  0  0  0  0  0  0  0  0  0  0  0
   13.5230   -3.0520   23.1600 O   0  0  0  0  0  0  0  0  0  0  0  0
   13.2600   -2.2010   24.2430 N   0  0  0  0  0  0  0  0  0  0  0  0
   11.6510    2.3570   23.3950 C   0  0  0  0  0  0  0  0  0  0  0  0
   10.4570    3.1150   23.9550 C   0  0  0  0  0  0  0  0  0  0  0  0
   10.4310    4.6250   23.7930 C   0  0  0  0  0  0  0  0  0  0  0  0
   11.4740    5.2670   23.1500 C   0  0  0  0  0  0  0  0  0  0  0  0
   12.5450    4.5350   22.6460 C   0  0  0  0  0  0  0  0  0  0  0  0
   13.6500    5.0340   21.9810 N   0  0  0  0  0  0  0  0  0  0  0  0
   14.4700    4.0100   21.6490 C   0  0  0  0  0  0  0  0  0  0  0  0
   13.8720    2.8690   22.1010 C   0  0  0  0  0  0  0  0  0  0  0  0
   12.6660    3.1190   22.7430 C   0  0  0  0  0  0  0  0  0  0  0  0
    9.0300    0.1850   22.9760 C   0  0  0  0  0  0  0  0  0  0  0  0
    9.2260   -0.9340   23.3290 C   0  0  0  0  0  0  0  0  0  0  0  0
   10.4770   -1.0430   23.7550 F   0  0  0  0  0  0  0  0  0  0  0  0
    6.9120   -1.9270   21.9080 C   0  0  0  0  0  0  0  0  0  0  0  0
    5.7680   -2.4890   21.4180 C   0  0  0  0  0  0  0  0  0  0  0  0
  1  2  2  3
  1  3  1  0
  3  4  1  0
  4  5  1  0
  5  6  1  0
  6  7  1  0
  7  8  2  0
  8  9  1  0
  8 10  1  0
 10 11  2  0
 11 12  1  0
 12 13  1  0
 13 14  2  0
 13 15  1  0
 15 16  1  0
 16 17  2  0
 17 18  1  0
 17 19  1  0
 15 20  2  0
 19 20  1  0
 12 21  1  0
 21 22  2  0
 22 23  1  0
 23 24  2  0
 24 25  1  0
 25 26  1  0
 26 27  1  0
 27 28  2  0
 21 29  1  0
 25 29  2  0
 28 29  1  0
 11 30  1  0
  7 31  1  0
 30 31  2  0
 31 32  1  0
  6 33  1  0
  3 34  1  0
 33 34  1  0
M  END
