NIM-UNI-43fe0159-2-vinylsulfonamide
     RDKit          3D

 19 20  0  0  0  0  0  0  0  0999 V2000
    7.9110   -3.8370   20.2850 C   0  0  0  0  0  0  0  0  0  0  0  0
    6.7130   -3.0570   20.0440 C   0  0  0  0  0  0  0  0  0  0  0  0
    5.5990   -3.8370   21.1060 S   0  0  0  0  0  0  0  0  0  0  0  0
    4.6310   -2.8730   21.3110 O   0  0  0  0  0  0  0  0  0  0  0  0
    5.2830   -5.0970   20.4540 O   0  0  0  0  0  0  0  0  0  0  0  0
    6.1870   -3.9970   22.6850 N   0  0  0  0  0  0  0  0  0  0  0  0
    5.9960   -2.8340   23.5190 C   0  0  0  0  0  0  0  0  0  0  0  0
    7.0710   -1.9550   23.2560 C   0  0  0  0  0  0  0  0  0  0  0  0
    8.2810   -2.5540   23.5260 C   0  0  2  0  0  0  0  0  0  0  0  0
    9.3910   -1.7340   23.4290 C   0  0  0  0  0  0  0  0  0  0  0  0
   10.3760   -1.9770   22.4790 C   0  0  0  0  0  0  0  0  0  0  0  0
   11.5560   -1.0310   22.4290 C   0  0  0  0  0  0  0  0  0  0  0  0
   11.6140    0.0220   23.3040 C   0  0  0  0  0  0  0  0  0  0  0  0
   12.7090    0.9430   23.2750 C   0  0  0  0  0  0  0  0  0  0  0  0
   12.3580    2.2650   22.9350 N   0  0  0  0  0  0  0  0  0  0  0  0
   10.5960    0.2050   24.2350 C   0  0  0  0  0  0  0  0  0  0  0  0
    9.5220   -0.6450   24.2980 C   0  0  0  0  0  0  0  0  0  0  0  0
    8.4650   -3.8050   22.8490 O   0  0  0  0  0  0  0  0  0  0  0  0
    7.3830   -4.7190   22.9860 C   0  0  0  0  0  0  0  0  0  0  0  0
  1  2  1  0
  3  2  1  0
  3  4  2  0
  3  5  2  0
  3  6  1  0
  6  7  1  0
  7  8  1  0
  8  9  1  0
  9 10  1  6
 10 11  2  0
 11 12  1  0
 12 13  2  0
 13 14  1  0
 14 15  1  0
 13 16  1  0
 10 17  1  0
 16 17  2  0
  9 18  1  0
  6 19  1  0
 18 19  1  0
M  END
