NIM-UNI-310206f0-63-chloroacetamide
     RDKit          3D

 30 33  0  0  0  0  0  0  0  0999 V2000
    7.2020   -3.6770   19.7370 C   0  0  0  0  0  0  0  0  0  0  0  0
    5.8240   -3.4030   20.2060 C   0  0  0  0  0  0  0  0  0  0  0  0
    4.9270   -3.7170   19.4270 O   0  0  0  0  0  0  0  0  0  0  0  0
    5.6600   -2.9160   21.5000 N   0  0  0  0  0  0  0  0  0  0  0  0
    5.9990   -1.5190   21.7320 C   0  0  0  0  0  0  0  0  0  0  0  0
    6.2420   -1.2840   23.2220 C   0  0  0  0  0  0  0  0  0  0  0  0
    7.3310   -2.1280   23.7130 N   0  0  0  0  0  0  0  0  0  0  0  0
    8.5310   -1.5090   23.4660 C   0  0  0  0  0  0  0  0  0  0  0  0
    9.6410   -0.9050   23.9620 C   0  0  0  0  0  0  0  0  0  0  0  0
   10.4270   -0.5280   22.9510 F   0  0  0  0  0  0  0  0  0  0  0  0
   10.2170   -0.5570   25.1150 C   0  0  0  0  0  0  0  0  0  0  0  0
   11.2700    0.0040   24.4400 C   0  0  0  0  0  0  0  0  0  0  0  0
   12.0940    0.4320   23.3310 N   0  0  0  0  0  0  0  0  0  0  0  0
   13.2760   -0.3320   22.9830 C   0  0  0  0  0  0  0  0  0  0  0  0
   13.0030   -1.4110   22.1550 C   0  0  0  0  0  0  0  0  0  0  0  0
   12.0240   -2.2480   22.4290 C   0  0  0  0  0  0  0  0  0  0  0  0
   13.3670   -2.6930   22.7630 C   0  0  0  0  0  0  0  0  0  0  0  0
   11.8670    1.8190   22.9100 C   0  0  0  0  0  0  0  0  0  0  0  0
   10.7560    2.3110   22.6770 O   0  0  0  0  0  0  0  0  0  0  0  0
   12.8720    2.6790   22.7560 N   0  0  0  0  0  0  0  0  0  0  0  0
   12.5790    3.9220   22.1230 C   0  0  0  0  0  0  0  0  0  0  0  0
   13.6660    4.9640   22.0420 C   0  0  0  0  0  0  0  0  0  0  0  0
   13.0950    6.1850   22.1780 C   0  0  0  0  0  0  0  0  0  0  0  0
   11.8240    6.0360   22.6880 C   0  0  0  0  0  0  0  0  0  0  0  0
   11.4650    4.7040   22.8730 C   0  0  0  0  0  0  0  0  0  0  0  0
   10.6180   -0.3860   23.0360 C   0  0  0  0  0  0  0  0  0  0  0  0
    9.3420   -1.0950   22.4880 C   0  0  0  0  0  0  0  0  0  0  0  0
    9.0860   -1.2560   21.1910 F   0  0  0  0  0  0  0  0  0  0  0  0
    7.2490   -3.4910   23.1940 C   0  0  0  0  0  0  0  0  0  0  0  0
    5.9970   -3.7550   22.6660 C   0  0  0  0  0  0  0  0  0  0  0  0
  1  2  1  0
  2  3  2  0
  2  4  1  0
  4  5  1  0
  5  6  1  0
  6  7  1  0
  7  8  1  0
  8  9  2  0
  9 10  1  0
  9 11  1  0
 11 12  2  0
 12 13  1  0
 13 14  1  0
 14 15  1  0
 15 16  1  0
 15 17  1  0
 16 17  1  0
 13 18  1  0
 18 19  2  0
 18 20  1  0
 20 21  1  0
 21 22  1  0
 22 23  1  0
 23 24  1  0
 21 25  1  0
 24 25  1  0
 12 26  1  0
  8 27  1  0
 26 27  2  0
 27 28  1  0
  7 29  1  0
  4 30  1  0
 29 30  1  0
M  END
