NIM-UNI-05f93fcc-5-chloroacetamide
     RDKit          3D

 22 24  0  0  0  0  0  0  0  0999 V2000
    7.8240   -3.6150   20.2880 C   0  0  0  0  0  0  0  0  0  0  0  0
    6.5770   -4.4030   20.6450 C   0  0  0  0  0  0  0  0  0  0  0  0
    5.5850   -4.4220   19.8940 O   0  0  0  0  0  0  0  0  0  0  0  0
    6.5810   -5.0850   21.8440 N   0  0  0  0  0  0  0  0  0  0  0  0
    7.3330   -4.6230   22.9940 C   0  0  0  0  0  0  0  0  0  0  0  0
    6.3560   -4.4460   24.1390 C   0  0  0  0  0  0  0  0  0  0  0  0
    5.4820   -5.4490   24.3200 N   0  0  0  0  0  0  0  0  0  0  0  0
    4.5980   -5.6250   25.7610 S   0  0  0  0  0  0  0  0  0  0  0  0
    3.8590   -6.8620   25.7210 O   0  0  0  0  0  0  0  0  0  0  0  0
    5.5260   -5.3500   26.8400 O   0  0  0  0  0  0  0  0  0  0  0  0
    3.4040   -4.3100   25.7930 C   0  0  0  0  0  0  0  0  0  0  0  0
    2.0790   -4.2820   25.6900 C   0  0  0  0  0  0  0  0  0  0  0  0
    1.5450   -3.0310   25.7700 C   0  0  0  0  0  0  0  0  0  0  0  0
    2.2960   -1.8280   25.9490 C   0  0  0  0  0  0  0  0  0  0  0  0
    3.4120   -1.0510   26.1150 C   0  0  0  0  0  0  0  0  0  0  0  0
    4.7400   -1.6680   26.1050 C   0  0  0  0  0  0  0  0  0  0  0  0
    5.3460   -0.4000   26.3100 C   0  0  0  0  0  0  0  0  0  0  0  0
    4.5560    0.7080   26.4170 C   0  0  0  0  0  0  0  0  0  0  0  0
    3.3470    0.3160   26.2970 N   0  0  0  0  0  0  0  0  0  0  0  0
    3.8280   -2.7140   25.9840 S   0  0  0  0  0  0  0  0  0  0  0  0
    4.8620   -5.9270   23.1470 C   0  0  0  0  0  0  0  0  0  0  0  0
    5.7540   -6.2090   22.1130 C   0  0  0  0  0  0  0  0  0  0  0  0
  1  2  1  0
  2  3  2  0
  2  4  1  0
  4  5  1  0
  5  6  1  0
  6  7  1  0
  7  8  1  0
  8  9  2  0
  8 10  2  0
  8 11  1  0
 11 12  2  0
 12 13  1  0
 13 14  2  0
 14 15  1  0
 15 16  2  0
 16 17  1  0
 17 18  2  0
 15 19  1  0
 18 19  1  0
 11 20  1  0
 14 20  1  0
  7 21  1  0
  4 22  1  0
 21 22  1  0
M  END
