NIM-UNI-43fe0159-5-nitrile
     RDKit          3D

 15 16  0  0  0  0  0  0  0  0999 V2000
    6.5380   -4.9250   20.4040 C   0  0  0  0  0  0  0  0  0  0  0  0
    5.6140   -5.7150   20.0090 N   0  0  0  0  0  0  0  0  0  0  0  0
    6.4190   -4.1700   21.5890 N   0  0  0  0  0  0  0  0  0  0  0  0
    6.1850   -2.7360   21.5470 C   0  0  0  0  0  0  0  0  0  0  0  0
    7.3930   -2.1360   21.4820 C   0  0  0  0  0  0  0  0  0  0  0  0
    8.4120   -2.6800   22.3350 C   0  0  1  0  0  0  0  0  0  0  0  0
    9.3570   -1.7760   22.7310 C   0  0  0  0  0  0  0  0  0  0  0  0
    9.1880   -0.8110   23.7490 C   0  0  0  0  0  0  0  0  0  0  0  0
   10.2360    0.0710   24.0140 C   0  0  0  0  0  0  0  0  0  0  0  0
   11.5340   -0.0110   23.2200 C   0  0  0  0  0  0  0  0  0  0  0  0
   12.8670    1.0510   23.4250 S   0  0  0  0  0  0  0  0  0  0  0  0
   11.6550   -0.9700   22.2790 C   0  0  0  0  0  0  0  0  0  0  0  0
   10.5560   -1.8590   22.0290 C   0  0  0  0  0  0  0  0  0  0  0  0
    7.8490   -3.4900   23.3620 O   0  0  0  0  0  0  0  0  0  0  0  0
    7.0590   -4.5490   22.7820 C   0  0  0  0  0  0  0  0  0  0  0  0
  1  2  2  3
  1  3  1  0
  3  4  1  0
  4  5  1  0
  5  6  1  0
  6  7  1  1
  7  8  2  0
  8  9  1  0
  9 10  2  0
 10 11  1  0
 10 12  1  0
  7 13  1  0
 12 13  2  0
  6 14  1  0
  3 15  1  0
 14 15  1  0
M  END
