NIM-UNI-05f93fcc-4-acrylamide
     RDKit          3D

 27 30  0  0  0  0  0  0  0  0999 V2000
    7.5020   -3.0860   19.0220 C   0  0  0  0  0  0  0  0  0  0  0  0
    7.0580   -3.0430   20.4630 C   0  0  0  0  0  0  0  0  0  0  0  0
    6.1760   -4.2370   20.7350 C   0  0  0  0  0  0  0  0  0  0  0  0
    5.2100   -4.4730   19.9800 O   0  0  0  0  0  0  0  0  0  0  0  0
    6.4850   -5.0370   21.8230 N   0  0  0  0  0  0  0  0  0  0  0  0
    7.1110   -4.4030   23.0050 C   0  0  0  0  0  0  0  0  0  0  0  0
    6.1430   -4.3230   24.1380 C   0  0  0  0  0  0  0  0  0  0  0  0
    5.3520   -5.4700   24.3730 N   0  0  0  0  0  0  0  0  0  0  0  0
    4.5420   -5.6510   25.8520 S   0  0  0  0  0  0  0  0  0  0  0  0
    3.7610   -6.8650   25.8360 O   0  0  0  0  0  0  0  0  0  0  0  0
    5.5040   -5.3750   26.9000 O   0  0  0  0  0  0  0  0  0  0  0  0
    3.3780   -4.3080   25.8400 C   0  0  0  0  0  0  0  0  0  0  0  0
    2.0550   -4.2850   25.7430 C   0  0  0  0  0  0  0  0  0  0  0  0
    1.5630   -2.9930   25.7820 C   0  0  0  0  0  0  0  0  0  0  0  0
    2.3920   -1.8220   25.9110 C   0  0  0  0  0  0  0  0  0  0  0  0
    3.5360   -1.0660   26.0400 C   0  0  0  0  0  0  0  0  0  0  0  0
    4.7760   -1.8050   26.1260 C   0  0  0  0  0  0  0  0  0  0  0  0
    6.0070   -1.1630   26.2560 C   0  0  0  0  0  0  0  0  0  0  0  0
    5.9940    0.2030   26.2990 C   0  0  0  0  0  0  0  0  0  0  0  0
    7.0180    1.1160   26.4170 C   0  0  0  0  0  0  0  0  0  0  0  0
    6.4360    2.3760   26.4060 C   0  0  0  0  0  0  0  0  0  0  0  0
    5.0940    2.3000   26.2870 N   0  0  0  0  0  0  0  0  0  0  0  0
    4.7630    0.9830   26.2150 C   0  0  0  0  0  0  0  0  0  0  0  0
    3.5290    0.3610   26.0860 C   0  0  0  0  0  0  0  0  0  0  0  0
    3.8690   -2.7480   25.9640 S   0  0  0  0  0  0  0  0  0  0  0  0
    4.7560   -5.9380   23.2500 C   0  0  0  0  0  0  0  0  0  0  0  0
    5.7860   -6.1770   22.1230 C   0  0  0  0  0  0  0  0  0  0  0  0
  1  2  1  0
  2  3  1  0
  3  4  2  0
  3  5  1  0
  5  6  1  0
  6  7  1  0
  7  8  1  0
  8  9  1  0
  9 10  2  0
  9 11  2  0
  9 12  1  0
 12 13  2  0
 13 14  1  0
 14 15  2  0
 15 16  1  0
 16 17  2  0
 17 18  1  0
 18 19  2  0
 19 20  1  0
 20 21  2  0
 21 22  1  0
 19 23  1  0
 22 23  1  0
 16 24  1  0
 23 24  2  0
 12 25  1  0
 15 25  1  0
  8 26  1  0
  5 27  1  0
 26 27  1  0
M  END
