NIM-UNI-310206f0-66-chloroacetamide
     RDKit          3D

 38 42  0  0  0  0  0  0  0  0999 V2000
    7.3180   -4.6420   20.7870 C   0  0  0  0  0  0  0  0  0  0  0  0
    6.3490   -3.5310   20.3770 C   0  0  0  0  0  0  0  0  0  0  0  0
    5.4000   -3.7340   19.5970 O   0  0  0  0  0  0  0  0  0  0  0  0
    6.6590   -2.2970   20.9470 N   0  0  0  0  0  0  0  0  0  0  0  0
    6.0980   -2.0010   22.2770 C   0  0  0  0  0  0  0  0  0  0  0  0
    6.9660   -1.0460   23.1340 C   0  0  0  0  0  0  0  0  0  0  0  0
    8.3850   -1.4560   23.2560 N   0  0  0  0  0  0  0  0  0  0  0  0
    9.3360   -0.4550   23.0830 C   0  0  0  0  0  0  0  0  0  0  0  0
   10.6300   -0.0880   23.3150 C   0  0  0  0  0  0  0  0  0  0  0  0
   10.8310    1.1120   22.7950 F   0  0  0  0  0  0  0  0  0  0  0  0
   11.7690   -0.5250   23.8860 C   0  0  0  0  0  0  0  0  0  0  0  0
   12.4750    0.6260   23.5480 C   0  0  0  0  0  0  0  0  0  0  0  0
   12.8580    1.9770   23.0120 N   0  0  0  0  0  0  0  0  0  0  0  0
   14.0500    2.0380   22.0880 C   0  0  0  0  0  0  0  0  0  0  0  0
   14.1520    1.1210   21.3070 O   0  0  0  0  0  0  0  0  0  0  0  0
   15.1650    2.9140   22.0290 N   0  0  0  0  0  0  0  0  0  0  0  0
   15.3130    4.2620   22.3240 C   0  0  0  0  0  0  0  0  0  0  0  0
   16.8180    4.7120   22.4640 C   0  0  0  0  0  0  0  0  0  0  0  0
   17.7330    4.4800   21.4910 C   0  0  0  0  0  0  0  0  0  0  0  0
   19.0880    4.9110   21.5400 C   0  0  0  0  0  0  0  0  0  0  0  0
   19.6250    5.6440   22.6570 C   0  0  0  0  0  0  0  0  0  0  0  0
   18.6740    5.9030   23.7160 C   0  0  0  0  0  0  0  0  0  0  0  0
   19.1470    6.5950   24.7650 F   0  0  0  0  0  0  0  0  0  0  0  0
   17.3200    5.4170   23.5670 C   0  0  0  0  0  0  0  0  0  0  0  0
   11.9030    3.0330   23.2110 C   0  0  0  0  0  0  0  0  0  0  0  0
   10.7000    2.7820   23.9040 C   0  0  0  0  0  0  0  0  0  0  0  0
    9.7400    3.7580   24.1370 C   0  0  0  0  0  0  0  0  0  0  0  0
    9.9750    5.0480   23.6790 C   0  0  0  0  0  0  0  0  0  0  0  0
   11.2420    5.3190   22.9540 C   0  0  0  0  0  0  0  0  0  0  0  0
   11.7170    6.4630   22.4150 N   0  0  0  0  0  0  0  0  0  0  0  0
   12.9320    6.2100   21.8390 C   0  0  0  0  0  0  0  0  0  0  0  0
   13.2160    4.8520   22.0340 C   0  0  0  0  0  0  0  0  0  0  0  0
   12.1730    4.3140   22.7270 C   0  0  0  0  0  0  0  0  0  0  0  0
   11.1470    1.2010   22.8600 C   0  0  0  0  0  0  0  0  0  0  0  0
    9.6540    0.7790   22.5970 C   0  0  0  0  0  0  0  0  0  0  0  0
    8.8090    1.6010   21.9430 F   0  0  0  0  0  0  0  0  0  0  0  0
    8.6330   -2.5740   22.3590 C   0  0  0  0  0  0  0  0  0  0  0  0
    8.1030   -2.1550   20.9860 C   0  0  0  0  0  0  0  0  0  0  0  0
  1  2  1  0
  2  3  2  0
  2  4  1  0
  4  5  1  0
  5  6  1  0
  6  7  1  0
  7  8  1  0
  8  9  2  0
  9 10  1  0
  9 11  1  0
 11 12  2  0
 12 13  1  0
 13 14  1  0
 14 15  2  0
 14 16  1  0
 16 17  1  0
 17 18  1  0
 18 19  2  0
 19 20  1  0
 20 21  2  0
 21 22  1  0
 22 23  1  0
 18 24  1  0
 22 24  2  0
 13 25  1  0
 25 26  2  0
 26 27  1  0
 27 28  2  0
 28 29  1  0
 29 30  1  0
 30 31  1  0
 31 32  2  0
 25 33  1  0
 29 33  2  0
 32 33  1  0
 12 34  1  0
  8 35  1  0
 34 35  2  0
 35 36  1  0
  7 37  1  0
  4 38  1  0
 37 38  1  0
M  END
