NIM-UNI-43fe0159-1-vinylsulfonamide
     RDKit          3D

 18 19  0  0  0  0  0  0  0  0999 V2000
    6.2450   -4.4840   20.0150 C   0  0  0  0  0  0  0  0  0  0  0  0
    7.0110   -3.2120   20.0200 C   0  0  0  0  0  0  0  0  0  0  0  0
    6.0690   -2.3940   21.2100 S   0  0  0  0  0  0  0  0  0  0  0  0
    4.7720   -2.9420   21.0540 O   0  0  0  0  0  0  0  0  0  0  0  0
    6.3480   -0.9700   21.2120 O   0  0  0  0  0  0  0  0  0  0  0  0
    6.4990   -3.1110   22.6420 N   0  0  0  0  0  0  0  0  0  0  0  0
    7.7790   -3.7750   22.6330 C   0  0  0  0  0  0  0  0  0  0  0  0
    8.4910   -3.4050   23.7790 C   0  0  0  0  0  0  0  0  0  0  0  0
    8.5640   -2.0410   23.9910 C   0  0  1  0  0  0  0  0  0  0  0  0
    9.7210   -1.3670   23.7020 C   0  0  0  0  0  0  0  0  0  0  0  0
   10.6390   -1.8540   22.7680 C   0  0  0  0  0  0  0  0  0  0  0  0
   11.9170   -1.0640   22.5000 C   0  0  0  0  0  0  0  0  0  0  0  0
   12.1330    0.1080   23.1790 C   0  0  0  0  0  0  0  0  0  0  0  0
   13.2540    0.8980   23.0150 N   0  0  0  0  0  0  0  0  0  0  0  0
   11.1210    0.5440   24.1260 C   0  0  0  0  0  0  0  0  0  0  0  0
    9.9660   -0.1670   24.3780 C   0  0  0  0  0  0  0  0  0  0  0  0
    7.3910   -1.3280   23.6590 O   0  0  0  0  0  0  0  0  0  0  0  0
    6.2900   -2.1810   23.7030 C   0  0  0  0  0  0  0  0  0  0  0  0
  1  2  1  0
  3  2  1  0
  3  4  2  0
  3  5  2  0
  3  6  1  0
  6  7  1  0
  7  8  1  0
  8  9  1  0
  9 10  1  6
 10 11  2  0
 11 12  1  0
 12 13  2  0
 13 14  1  0
 13 15  1  0
 10 16  1  0
 15 16  2  0
  9 17  1  0
  6 18  1  0
 17 18  1  0
M  END
