NIM-UNI-05f93fcc-2-nitrile
     RDKit          3D

 22 24  0  0  0  0  0  0  0  0999 V2000
    6.5490   -4.6580   20.4860 C   0  0  0  0  0  0  0  0  0  0  0  0
    5.4310   -4.9250   19.9920 N   0  0  0  0  0  0  0  0  0  0  0  0
    6.8690   -5.0670   21.7500 N   0  0  0  0  0  0  0  0  0  0  0  0
    7.3050   -4.2020   22.6910 C   0  0  0  0  0  0  0  0  0  0  0  0
    6.5560   -4.1420   24.0330 C   0  0  0  0  0  0  0  0  0  0  0  0
    5.8620   -5.2850   24.3550 N   0  0  0  0  0  0  0  0  0  0  0  0
    4.9910   -5.2710   25.8250 S   0  0  0  0  0  0  0  0  0  0  0  0
    5.9400   -5.2040   26.9050 O   0  0  0  0  0  0  0  0  0  0  0  0
    3.9880   -6.3160   25.7840 O   0  0  0  0  0  0  0  0  0  0  0  0
    4.1550   -3.7140   25.9240 C   0  0  0  0  0  0  0  0  0  0  0  0
    4.5160   -2.3480   26.0690 C   0  0  0  0  0  0  0  0  0  0  0  0
    3.4590   -1.5030   26.0940 C   0  0  0  0  0  0  0  0  0  0  0  0
    2.0890   -1.8580   25.9920 C   0  0  0  0  0  0  0  0  0  0  0  0
    0.9220   -2.5880   25.8640 C   0  0  0  0  0  0  0  0  0  0  0  0
    1.0830   -3.9130   25.3200 C   0  0  0  0  0  0  0  0  0  0  0  0
   -0.2950   -4.2760   25.3640 C   0  0  0  0  0  0  0  0  0  0  0  0
   -1.4630   -3.6430   25.7730 C   0  0  0  0  0  0  0  0  0  0  0  0
   -1.4360   -2.3890   26.2670 C   0  0  0  0  0  0  0  0  0  0  0  0
   -0.1950   -1.8440   26.3090 C   0  0  0  0  0  0  0  0  0  0  0  0
    2.4720   -3.5910   25.8460 S   0  0  0  0  0  0  0  0  0  0  0  0
    5.2350   -5.8030   23.2070 C   0  0  0  0  0  0  0  0  0  0  0  0
    6.1730   -6.2070   22.2480 C   0  0  0  0  0  0  0  0  0  0  0  0
  1  2  2  3
  1  3  1  0
  3  4  1  0
  4  5  1  0
  5  6  1  0
  6  7  1  0
  7  8  2  0
  7  9  2  0
  7 10  1  0
 10 11  2  0
 11 12  1  0
 12 13  2  0
 13 14  1  0
 14 15  2  0
 15 16  1  0
 16 17  2  0
 17 18  1  0
 14 19  1  0
 18 19  2  0
 10 20  1  0
 13 20  1  0
  6 21  1  0
  3 22  1  0
 21 22  1  0
M  END
