NIM-UNI-310206f0-67-chloroacetamide
     RDKit          3D

 23 25  0  0  0  0  0  0  0  0999 V2000
    6.9980   -2.9980   18.9630 C   0  0  0  0  0  0  0  0  0  0  0  0
    5.9980   -3.4650   20.0210 C   0  0  0  0  0  0  0  0  0  0  0  0
    5.1340   -4.2790   19.7280 O   0  0  0  0  0  0  0  0  0  0  0  0
    6.0650   -3.0050   21.3250 N   0  0  0  0  0  0  0  0  0  0  0  0
    6.5020   -1.6320   21.5920 C   0  0  0  0  0  0  0  0  0  0  0  0
    7.4410   -1.5690   22.7930 C   0  0  0  0  0  0  0  0  0  0  0  0
    6.9520   -2.4150   23.9010 N   0  0  0  0  0  0  0  0  0  0  0  0
    7.7350   -2.2300   25.3670 S   0  0  0  0  0  0  0  0  0  0  0  0
    8.0360   -3.5280   25.9290 O   0  0  0  0  0  0  0  0  0  0  0  0
    7.0170   -1.2270   26.1260 O   0  0  0  0  0  0  0  0  0  0  0  0
    9.2210   -1.5420   24.7650 C   0  0  0  0  0  0  0  0  0  0  0  0
    9.7550   -0.2240   25.3790 C   0  0  0  0  0  0  0  0  0  0  0  0
   10.9020   -0.2860   24.3670 C   0  0  0  0  0  0  0  0  0  0  0  0
   11.0510   -1.2560   23.4550 C   0  0  0  0  0  0  0  0  0  0  0  0
   11.9920   -1.2560   22.5900 C   0  0  0  0  0  0  0  0  0  0  0  0
   12.0110   -2.3930   21.8180 C   0  0  0  0  0  0  0  0  0  0  0  0
   12.8920   -2.5120   20.8830 N   0  0  0  0  0  0  0  0  0  0  0  0
   13.7500   -1.3440   20.7920 C   0  0  0  0  0  0  0  0  0  0  0  0
   13.7230   -0.2590   21.5540 N   0  0  0  0  0  0  0  0  0  0  0  0
   12.8250   -0.2380   22.4630 C   0  0  0  0  0  0  0  0  0  0  0  0
    9.9600   -2.4550   23.4440 S   0  0  0  0  0  0  0  0  0  0  0  0
    6.7200   -3.7880   23.5540 C   0  0  0  0  0  0  0  0  0  0  0  0
    5.6840   -3.8480   22.4550 C   0  0  0  0  0  0  0  0  0  0  0  0
  1  2  1  0
  2  3  2  0
  2  4  1  0
  4  5  1  0
  5  6  1  0
  6  7  1  0
  7  8  1  0
  8  9  2  0
  8 10  2  0
  8 11  1  0
 11 12  2  0
 12 13  1  0
 13 14  2  0
 14 15  1  0
 15 16  2  0
 16 17  1  0
 17 18  2  0
 18 19  1  0
 15 20  1  0
 19 20  2  0
 11 21  1  0
 14 21  1  0
  7 22  1  0
  4 23  1  0
 22 23  1  0
M  END
