NIM-UNI-ed9fc491-3-chloroacetamide
     RDKit          3D

 32 34  0  0  0  0  0  0  0  0999 V2000
    6.2820   -5.0110   20.2460 C   0  0  0  0  0  0  0  0  0  0  0  0
    6.6130   -3.5740   20.1080 C   0  0  0  0  0  0  0  0  0  0  0  0
    6.1780   -3.0700   19.0710 O   0  0  0  0  0  0  0  0  0  0  0  0
    7.3790   -2.9300   21.1200 N   0  0  0  0  0  0  0  0  0  0  0  0
    8.8020   -3.2720   21.3100 C   0  0  0  0  0  0  0  0  0  0  0  0
    9.5700   -2.4020   22.0830 C   0  0  0  0  0  0  0  0  0  0  0  0
    8.9330   -2.2460   23.3910 N   0  0  0  0  0  0  0  0  0  0  0  0
    8.5150   -0.8590   23.5290 C   0  0  1  0  0  0  0  0  0  0  0  0
    8.0650   -0.1890   22.3980 N   0  0  0  0  0  0  0  0  0  0  0  0
    8.2890    1.2150   22.2050 C   0  0  0  0  0  0  0  0  0  0  0  0
    9.1710    1.6900   21.4730 O   0  0  0  0  0  0  0  0  0  0  0  0
    7.4400    2.0960   22.8590 C   0  0  2  0  0  0  0  0  0  0  0  0
    6.1010    1.7640   22.6810 C   0  0  0  0  0  0  0  0  0  0  0  0
    5.7890    1.6480   21.2350 C   0  0  0  0  0  0  0  0  0  0  0  0
    6.5010    0.7800   20.3570 C   0  0  0  0  0  0  0  0  0  0  0  0
    6.3760    0.5950   19.2650 C   0  0  0  0  0  0  0  0  0  0  0  0
    5.5240    1.0980   18.3360 C   0  0  0  0  0  0  0  0  0  0  0  0
    5.4110    0.8780   17.1520 O   0  0  0  0  0  0  0  0  0  0  0  0
    4.6740    2.0280   18.9930 C   0  0  0  0  0  0  0  0  0  0  0  0
    4.7900    2.3120   20.4260 C   0  0  0  0  0  0  0  0  0  0  0  0
    7.6130    3.3540   22.3220 N   0  0  0  0  0  0  0  0  0  0  0  0
    6.7580    4.4720   22.7080 C   0  0  0  0  0  0  0  0  0  0  0  0
    7.0370    5.7090   21.8520 C   0  0  0  0  0  0  0  0  0  0  0  0
    5.9190    4.4340   23.6070 O   0  0  0  0  0  0  0  0  0  0  0  0
    7.5360   -0.7200   24.5350 C   0  0  0  0  0  0  0  0  0  0  0  0
    6.1510   -0.7680   24.2510 C   0  0  0  0  0  0  0  0  0  0  0  0
    5.2140   -0.6310   25.2650 C   0  0  0  0  0  0  0  0  0  0  0  0
    5.5920   -0.4290   26.7010 C   0  0  0  0  0  0  0  0  0  0  0  0
    7.0930   -0.3890   26.9220 C   0  0  0  0  0  0  0  0  0  0  0  0
    7.9730   -0.5320   25.8540 C   0  0  0  0  0  0  0  0  0  0  0  0
    7.7870   -3.1350   23.4920 C   0  0  0  0  0  0  0  0  0  0  0  0
    6.8370   -2.7310   22.3680 C   0  0  0  0  0  0  0  0  0  0  0  0
  1  2  1  0
  2  3  2  0
  2  4  1  0
  4  5  1  0
  5  6  1  0
  6  7  1  0
  7  8  1  0
  8  9  1  6
  9 10  1  0
 10 11  2  0
 10 12  1  0
 12 13  1  6
 13 14  1  0
 14 15  2  0
 15 16  1  0
 16 17  2  0
 17 18  1  0
 17 19  1  0
 14 20  1  0
 19 20  2  0
 12 21  1  0
 21 22  1  0
 22 23  1  0
 22 24  2  0
  8 25  1  0
 25 26  2  0
 26 27  1  0
 27 28  2  0
 28 29  1  0
 25 30  1  0
 29 30  2  0
  7 31  1  0
  4 32  1  0
 31 32  1  0
M  END
