NIM-UNI-534877e5-2
     RDKit          3D

 36 40  0  0  0  0  0  0  0  0999 V2000
    3.5950   -8.1670   24.6380 O   0  0  0  0  0  0  0  0  0  0  0  0
    3.2060   -7.0560   24.3390 C   0  0  0  0  0  0  0  0  0  0  0  0
    4.0160   -5.8080   24.5630 C   0  0  0  0  0  0  0  0  0  0  0  0
    4.1670   -4.7060   25.4800 C   0  0  0  0  0  0  0  0  0  0  0  0
    5.2240   -3.6250   25.2620 C   0  0  0  0  0  0  0  0  0  0  0  0
    6.0640   -3.8210   24.0260 C   0  0  0  0  0  0  0  0  0  0  0  0
    7.1350   -2.8110   23.7440 C   0  0  0  0  0  0  0  0  0  0  0  0
    7.6250   -2.7120   22.4940 N   0  0  0  0  0  0  0  0  0  0  0  0
    8.8310   -2.2600   22.6990 C   0  0  0  0  0  0  0  0  0  0  0  0
    9.2480   -1.0220   22.2470 C   0  0  0  0  0  0  0  0  0  0  0  0
   10.4980   -0.5280   22.4830 C   0  0  0  0  0  0  0  0  0  0  0  0
   11.7210   -1.1610   22.3910 C   0  0  0  0  0  0  0  0  0  0  0  0
   12.8590   -0.4100   22.6730 C   0  0  0  0  0  0  0  0  0  0  0  0
   12.7320    0.9450   23.0270 C   0  0  0  0  0  0  0  0  0  0  0  0
   11.4580    1.5410   23.1020 C   0  0  0  0  0  0  0  0  0  0  0  0
   11.1390    3.3550   23.5240 Br  0  0  0  0  0  0  0  0  0  0  0  0
   10.3430    0.7920   22.8370 C   0  0  0  0  0  0  0  0  0  0  0  0
    8.2830   -0.1910   21.4830 C   0  0  0  0  0  0  0  0  0  0  0  0
    8.6380    0.9460   21.1440 O   0  0  0  0  0  0  0  0  0  0  0  0
    7.0770   -0.7070   21.1870 N   0  0  0  0  0  0  0  0  0  0  0  0
    6.3850    0.0010   20.1090 C   0  0  0  0  0  0  0  0  0  0  0  0
    5.2050    0.7340   20.3050 C   0  0  0  0  0  0  0  0  0  0  0  0
    4.5660    1.4180   19.2710 C   0  0  0  0  0  0  0  0  0  0  0  0
    5.2130    1.3320   17.8950 C   0  0  0  0  0  0  0  0  0  0  0  0
    6.3230    0.6460   17.6570 N   0  0  0  0  0  0  0  0  0  0  0  0
    6.9010   -0.0280   18.8120 C   0  0  0  0  0  0  0  0  0  0  0  0
    6.7060   -2.0710   21.5550 C   0  0  0  0  0  0  0  0  0  0  0  0
    5.7070   -2.6770   21.1490 O   0  0  0  0  0  0  0  0  0  0  0  0
    5.8710   -4.8810   23.1780 C   0  0  0  0  0  0  0  0  0  0  0  0
    4.8910   -5.8290   23.4420 C   0  0  0  0  0  0  0  0  0  0  0  0
    1.9440   -6.8880   23.7850 N   0  0  0  0  0  0  0  0  0  0  0  0
    0.9410   -7.9240   24.0320 C   0  0  0  0  0  0  0  0  0  0  0  0
   -0.1340   -7.3410   24.9720 C   0  0  0  0  0  0  0  0  0  0  0  0
   -0.7110   -6.1210   24.4740 O   0  0  0  0  0  0  0  0  0  0  0  0
    0.2630   -5.1120   24.1980 C   0  0  0  0  0  0  0  0  0  0  0  0
    1.4060   -5.6240   23.3010 C   0  0  0  0  0  0  0  0  0  0  0  0
  1  2  2  0
  2  3  1  0
  3  4  2  0
  4  5  1  0
  5  6  2  0
  6  7  1  0
  7  8  1  0
  8  9  1  0
  9 10  2  0
 10 11  1  0
 11 12  2  0
 12 13  1  0
 13 14  2  0
 14 15  1  0
 15 16  1  0
 11 17  1  0
 15 17  2  0
 10 18  1  0
 18 19  2  0
 18 20  1  0
 20 21  1  0
 21 22  2  0
 22 23  1  0
 23 24  2  0
 24 25  1  0
 21 26  1  0
 25 26  2  0
  8 27  1  0
 20 27  1  0
 27 28  2  0
  6 29  1  0
  3 30  1  0
 29 30  2  0
  2 31  1  0
 31 32  1  0
 32 33  1  0
 33 34  1  0
 34 35  1  0
 31 36  1  0
 35 36  1  0
M  END
