NIM-UNI-310206f0-56-chloroacetamide
     RDKit          3D

 35 39  0  0  0  0  0  0  0  0999 V2000
    7.0680   -3.9330   20.1940 C   0  0  0  0  0  0  0  0  0  0  0  0
    5.5990   -3.6090   20.3570 C   0  0  0  0  0  0  0  0  0  0  0  0
    4.9000   -3.6740   19.3550 O   0  0  0  0  0  0  0  0  0  0  0  0
    5.0820   -3.3120   21.6210 N   0  0  0  0  0  0  0  0  0  0  0  0
    5.1380   -1.9420   22.1110 C   0  0  0  0  0  0  0  0  0  0  0  0
    4.7090   -1.9590   23.5640 C   0  0  0  0  0  0  0  0  0  0  0  0
    5.7790   -2.6460   24.2450 N   0  0  0  0  0  0  0  0  0  0  0  0
    6.9060   -1.8660   24.1350 C   0  0  0  0  0  0  0  0  0  0  0  0
    8.3540   -1.9310   23.8960 C   0  0  0  0  0  0  0  0  0  0  0  0
    9.0750   -3.0390   23.6890 F   0  0  0  0  0  0  0  0  0  0  0  0
    8.9670   -0.3570   23.9190 C   0  0  0  0  0  0  0  0  0  0  0  0
    8.3050    1.0400   24.1400 C   0  0  0  0  0  0  0  0  0  0  0  0
    9.7460    1.2160   23.9150 N   0  0  0  0  0  0  0  0  0  0  0  0
   10.6080    0.2330   24.5820 C   0  0  0  0  0  0  0  0  0  0  0  0
   10.4310   -0.1790   25.7300 O   0  0  0  0  0  0  0  0  0  0  0  0
   11.6150   -0.3210   23.9320 N   0  0  0  0  0  0  0  0  0  0  0  0
   11.3980   -1.6170   23.7180 C   0  0  0  0  0  0  0  0  0  0  0  0
   11.2710   -1.8020   22.2300 C   0  0  0  0  0  0  0  0  0  0  0  0
   12.4860   -2.2510   21.7230 C   0  0  0  0  0  0  0  0  0  0  0  0
   13.3630   -2.4610   22.7620 C   0  0  0  0  0  0  0  0  0  0  0  0
   12.6690   -2.3550   24.0820 C   0  0  0  0  0  0  0  0  0  0  0  0
   10.1490    2.5660   23.6900 C   0  0  0  0  0  0  0  0  0  0  0  0
    9.2710    3.6000   24.0180 C   0  0  0  0  0  0  0  0  0  0  0  0
    9.5220    4.9620   23.8500 C   0  0  0  0  0  0  0  0  0  0  0  0
   10.7320    5.3670   23.3160 C   0  0  0  0  0  0  0  0  0  0  0  0
   11.6440    4.3850   22.9720 C   0  0  0  0  0  0  0  0  0  0  0  0
   12.9090    4.5990   22.4220 N   0  0  0  0  0  0  0  0  0  0  0  0
   13.5280    3.4130   22.2110 C   0  0  0  0  0  0  0  0  0  0  0  0
   12.5460    2.4020   22.6750 C   0  0  0  0  0  0  0  0  0  0  0  0
   11.4010    2.9910   23.1380 C   0  0  0  0  0  0  0  0  0  0  0  0
    7.0700    0.4800   24.3000 C   0  0  0  0  0  0  0  0  0  0  0  0
    7.3230   -0.6870   24.1650 C   0  0  0  0  0  0  0  0  0  0  0  0
    8.6340   -0.7440   23.9490 F   0  0  0  0  0  0  0  0  0  0  0  0
    5.9180   -4.0450   23.8010 C   0  0  0  0  0  0  0  0  0  0  0  0
    5.1060   -4.3500   22.6800 C   0  0  0  0  0  0  0  0  0  0  0  0
  1  2  1  0
  2  3  2  0
  2  4  1  0
  4  5  1  0
  5  6  1  0
  6  7  1  0
  7  8  1  0
  8  9  2  0
  9 10  1  0
  9 11  1  0
 11 12  2  0
 12 13  1  0
 13 14  1  0
 14 15  2  0
 14 16  1  0
 16 17  1  0
 17 18  1  0
 18 19  1  0
 19 20  1  0
 17 21  1  0
 20 21  1  0
 13 22  1  0
 22 23  2  0
 23 24  1  0
 24 25  2  0
 25 26  1  0
 26 27  1  0
 27 28  1  0
 28 29  2  0
 22 30  1  0
 26 30  2  0
 29 30  1  0
 12 31  1  0
  8 32  1  0
 31 32  2  0
 32 33  1  0
  7 34  1  0
  4 35  1  0
 34 35  1  0
M  END
