NIM-UNI-43fe0159-4-nitrile
     RDKit          3D

 16 17  0  0  0  0  0  0  0  0999 V2000
    6.8600   -3.9560   19.8260 C   0  0  0  0  0  0  0  0  0  0  0  0
    6.0280   -3.4090   19.0060 N   0  0  0  0  0  0  0  0  0  0  0  0
    6.5220   -3.9100   21.2170 N   0  0  0  0  0  0  0  0  0  0  0  0
    6.3160   -2.5690   21.6790 C   0  0  0  0  0  0  0  0  0  0  0  0
    7.5060   -2.0500   21.3620 C   0  0  0  0  0  0  0  0  0  0  0  0
    8.6190   -2.6000   22.0980 C   0  0  1  0  0  0  0  0  0  0  0  0
    9.5080   -1.7190   22.6480 C   0  0  0  0  0  0  0  0  0  0  0  0
    9.2500   -0.8510   23.7220 C   0  0  0  0  0  0  0  0  0  0  0  0
   10.2760   -0.0150   24.1360 C   0  0  0  0  0  0  0  0  0  0  0  0
   11.6220   -0.0650   23.4280 C   0  0  0  0  0  0  0  0  0  0  0  0
   12.6360    0.7250   23.7820 C   0  0  0  0  0  0  0  0  0  0  0  0
   13.4890    0.6760   22.9100 O   0  0  0  0  0  0  0  0  0  0  0  0
   11.8030   -0.9440   22.3990 C   0  0  0  0  0  0  0  0  0  0  0  0
   10.7640   -1.7520   22.0200 C   0  0  0  0  0  0  0  0  0  0  0  0
    8.1800   -3.6410   22.9730 O   0  0  0  0  0  0  0  0  0  0  0  0
    7.2710   -4.4840   22.2600 C   0  0  0  0  0  0  0  0  0  0  0  0
  1  2  2  3
  1  3  1  0
  3  4  1  0
  4  5  1  0
  5  6  1  0
  6  7  1  1
  7  8  2  0
  8  9  1  0
  9 10  2  0
 10 11  1  0
 11 12  1  0
 10 13  1  0
  7 14  1  0
 13 14  2  0
  6 15  1  0
  3 16  1  0
 15 16  1  0
M  END
