NIM-UNI-36e12f95-1
     RDKit          3D

 19 21  0  0  0  0  0  0  0  0999 V2000
    7.4860   -2.5230   19.5130 C   0  0  0  0  0  0  0  0  0  0  0  0
    6.6060   -3.3680   20.3830 C   0  0  0  0  0  0  0  0  0  0  0  0
    5.6850   -4.0360   19.8610 O   0  0  0  0  0  0  0  0  0  0  0  0
    6.8450   -3.4130   21.7700 N   0  0  0  0  0  0  0  0  0  0  0  0
    6.0320   -4.4910   22.4250 C   0  0  0  0  0  0  0  0  0  0  0  0
    6.7510   -5.8570   22.6450 C   0  0  0  0  0  0  0  0  0  0  0  0
    7.9460   -5.6400   23.4410 N   0  0  0  0  0  0  0  0  0  0  0  0
    7.9320   -4.2140   23.5300 C   0  0  1  0  0  0  0  0  0  0  0  0
    8.8180   -3.6530   24.3480 N   0  0  0  0  0  0  0  0  0  0  0  0
    8.4770   -2.2350   24.5070 C   0  0  0  0  0  0  0  0  0  0  0  0
    8.3480   -1.0390   24.2760 O   0  0  0  0  0  0  0  0  0  0  0  0
    9.0830   -2.3410   23.2390 N   0  0  0  0  0  0  0  0  0  0  0  0
   10.4280   -1.7070   23.1720 C   0  0  0  0  0  0  0  0  0  0  0  0
   11.9270   -1.2120   23.2890 C   0  0  0  0  0  0  0  0  0  0  0  0
   13.0730   -1.6980   24.1500 C   0  0  0  0  0  0  0  0  0  0  0  0
   12.8150   -2.8150   25.0300 C   0  0  0  0  0  0  0  0  0  0  0  0
   11.6040   -3.2830   24.9770 N   0  0  0  0  0  0  0  0  0  0  0  0
   10.6170   -2.7580   24.1550 C   0  0  0  0  0  0  0  0  0  0  0  0
    8.2610   -3.3440   22.3400 C   0  0  2  0  0  0  0  0  0  0  0  0
  1  2  1  0
  2  3  2  0
  2  4  1  0
  4  5  1  0
  5  6  1  0
  6  7  1  0
  8  7  1  6
  8  9  1  0
  9 10  1  0
 10 11  2  0
 10 12  1  0
 12 13  1  0
 13 14  2  0
 14 15  1  0
 15 16  2  0
 16 17  1  0
 13 18  1  0
 17 18  2  0
 19  4  1  1
  8 19  1  0
 12 19  1  0
M  END
