NIM-UNI-363644a0-2-nitrile
     RDKit          3D

 41 45  0  0  0  0  0  0  0  0999 V2000
    6.5960   -3.6970   20.0540 C   0  0  0  0  0  0  0  0  0  0  0  0
    5.6090   -4.4850   19.8960 N   0  0  0  0  0  0  0  0  0  0  0  0
    6.5090   -2.9820   21.1950 N   0  0  0  0  0  0  0  0  0  0  0  0
    6.2490   -3.6070   22.4650 C   0  0  0  0  0  0  0  0  0  0  0  0
    6.9550   -2.9510   23.4700 C   0  0  0  0  0  0  0  0  0  0  0  0
    8.1070   -2.2300   22.8520 N   0  0  0  0  0  0  0  0  0  0  0  0
    8.9010   -1.7760   23.9590 C   0  0  0  0  0  0  0  0  0  0  0  0
    9.9470   -0.8970   23.7180 C   0  0  0  0  0  0  0  0  0  0  0  0
    9.7290    0.3900   24.4570 C   0  0  0  0  0  0  0  0  0  0  0  0
   10.8060    1.4060   24.3090 C   0  0  0  0  0  0  0  0  0  0  0  0
   12.0140    1.1380   23.5220 C   0  0  0  0  0  0  0  0  0  0  0  0
   12.0710   -0.1800   22.8450 C   0  0  0  0  0  0  0  0  0  0  0  0
   13.3120   -0.3110   22.0820 C   0  0  0  0  0  0  0  0  0  0  0  0
   13.4470   -1.5900   21.3330 C   0  0  0  0  0  0  0  0  0  0  0  0
   12.4730   -2.5890   21.3870 C   0  0  0  0  0  0  0  0  0  0  0  0
   12.9040   -3.9520   20.4650 S   0  0  0  0  0  0  0  0  0  0  0  0
   11.5260   -4.2980   19.6260 N   0  0  0  0  0  0  0  0  0  0  0  0
   14.1010   -3.4490   19.9420 O   0  0  0  0  0  0  0  0  0  0  0  0
   13.1930   -5.2490   20.8440 O   0  0  0  0  0  0  0  0  0  0  0  0
   11.2520   -2.2710   22.2120 C   0  0  0  0  0  0  0  0  0  0  0  0
   11.0820   -1.1300   22.9200 C   0  0  0  0  0  0  0  0  0  0  0  0
    7.6810   -1.0990   21.9660 C   0  0  0  0  0  0  0  0  0  0  0  0
    6.3730   -1.5070   21.3470 C   0  0  1  0  0  0  0  0  0  0  0  0
    6.0260   -0.5590   20.1700 C   0  0  0  0  0  0  0  0  0  0  0  0
    6.7480   -0.4680   18.8430 C   0  0  0  0  0  0  0  0  0  0  0  0
    6.4410    0.3710   17.8210 N   0  0  0  0  0  0  0  0  0  0  0  0
    5.4120    1.2140   17.9540 C   0  0  0  0  0  0  0  0  0  0  0  0
    4.4920    1.3690   19.1560 C   0  0  0  0  0  0  0  0  0  0  0  0
    4.8340    0.4280   20.3090 C   0  0  0  0  0  0  0  0  0  0  0  0
    3.8920    0.6200   21.4920 C   0  0  0  0  0  0  0  0  0  0  0  0
    4.2590    1.7950   22.4150 C   0  0  0  0  0  0  0  0  0  0  0  0
    3.1280    2.4580   23.0390 N   0  0  0  0  0  0  0  0  0  0  0  0
    2.1740    1.7610   23.7430 C   0  0  0  0  0  0  0  0  0  0  0  0
    2.1470    0.5320   23.8480 O   0  0  0  0  0  0  0  0  0  0  0  0
    1.2570    2.6360   24.3090 N   0  0  0  0  0  0  0  0  0  0  0  0
    1.6310    3.9210   24.9110 C   0  0  0  0  0  0  0  0  0  0  0  0
    0.2310    4.3790   24.4950 C   0  0  0  0  0  0  0  0  0  0  0  0
   -0.8140    4.0590   25.5650 C   0  0  0  0  0  0  0  0  0  0  0  0
   -0.4880    2.7660   26.3110 C   0  0  0  0  0  0  0  0  0  0  0  0
    0.8800    2.8040   27.0260 C   0  0  0  0  0  0  0  0  0  0  0  0
    2.0860    3.1220   26.1180 C   0  0  0  0  0  0  0  0  0  0  0  0
  1  2  2  3
  1  3  1  0
  3  4  1  0
  4  5  1  0
  5  6  1  0
  6  7  1  0
  7  8  1  0
  8  9  2  0
  9 10  1  0
 10 11  2  0
 11 12  1  0
 12 13  1  0
 13 14  2  0
 14 15  1  0
 15 16  1  0
 16 17  1  0
 16 18  2  0
 16 19  2  0
 15 20  2  0
  8 21  1  0
 12 21  2  0
 20 21  1  0
  6 22  1  0
  3 23  1  0
 22 23  1  0
 23 24  1  6
 24 25  2  0
 25 26  1  0
 26 27  2  0
 27 28  1  0
 24 29  1  0
 28 29  2  0
 29 30  1  0
 30 31  1  0
 31 32  1  0
 32 33  1  0
 33 34  2  0
 33 35  1  0
 35 36  1  0
 36 37  1  0
 37 38  1  0
 38 39  1  0
 39 40  1  0
 36 41  1  0
 40 41  1  0
M  END
