NIM-UNI-43fe0159-3-nitrile
     RDKit          3D

 15 16  0  0  0  0  0  0  0  0999 V2000
    6.5650   -4.8360   20.4220 C   0  0  0  0  0  0  0  0  0  0  0  0
    5.6310   -5.6180   20.0220 N   0  0  0  0  0  0  0  0  0  0  0  0
    6.4470   -4.0520   21.5870 N   0  0  0  0  0  0  0  0  0  0  0  0
    6.2860   -2.6070   21.5190 C   0  0  0  0  0  0  0  0  0  0  0  0
    7.5200   -2.0310   21.4500 C   0  0  0  0  0  0  0  0  0  0  0  0
    8.5720   -2.5480   22.3010 C   0  0  1  0  0  0  0  0  0  0  0  0
    9.5270   -1.6750   22.8090 C   0  0  0  0  0  0  0  0  0  0  0  0
    9.3340   -0.8600   23.9460 C   0  0  0  0  0  0  0  0  0  0  0  0
   10.3710   -0.0150   24.3760 C   0  0  0  0  0  0  0  0  0  0  0  0
   11.7150    0.0510   23.6460 C   0  0  0  0  0  0  0  0  0  0  0  0
   12.6870    0.8730   24.0750 O   0  0  0  0  0  0  0  0  0  0  0  0
   11.8640   -0.7600   22.5550 C   0  0  0  0  0  0  0  0  0  0  0  0
   10.7600   -1.6280   22.1360 C   0  0  0  0  0  0  0  0  0  0  0  0
    8.0760   -3.4520   23.3090 O   0  0  0  0  0  0  0  0  0  0  0  0
    7.1150   -4.3660   22.7660 C   0  0  0  0  0  0  0  0  0  0  0  0
  1  2  2  3
  1  3  1  0
  3  4  1  0
  4  5  1  0
  5  6  1  0
  6  7  1  1
  7  8  2  0
  8  9  1  0
  9 10  2  0
 10 11  1  0
 10 12  1  0
  7 13  1  0
 12 13  2  0
  6 14  1  0
  3 15  1  0
 14 15  1  0
M  END
