NIM-UNI-310206f0-50-acrylamide
     RDKit          3D

 37 41  0  0  0  0  0  0  0  0999 V2000
    7.3170   -2.9030   18.7120 C   0  0  0  0  0  0  0  0  0  0  0  0
    6.5570   -2.0800   19.7500 C   0  0  0  0  0  0  0  0  0  0  0  0
    5.5760   -3.0350   20.3780 C   0  0  0  0  0  0  0  0  0  0  0  0
    4.9280   -3.7640   19.6240 O   0  0  0  0  0  0  0  0  0  0  0  0
    5.4830   -3.1280   21.7700 N   0  0  0  0  0  0  0  0  0  0  0  0
    5.6510   -2.0180   22.7120 C   0  0  0  0  0  0  0  0  0  0  0  0
    6.0610   -2.5200   24.1120 C   0  0  0  0  0  0  0  0  0  0  0  0
    7.3680   -3.1660   24.0760 N   0  0  0  0  0  0  0  0  0  0  0  0
    8.3320   -2.2320   23.7540 C   0  0  0  0  0  0  0  0  0  0  0  0
    9.0940   -1.7270   22.6040 C   0  0  0  0  0  0  0  0  0  0  0  0
    9.0100   -2.1850   21.3560 F   0  0  0  0  0  0  0  0  0  0  0  0
   10.0040   -0.5680   22.9880 C   0  0  0  0  0  0  0  0  0  0  0  0
   10.3300    0.1960   24.3270 C   0  0  0  0  0  0  0  0  0  0  0  0
   11.0930    0.8480   23.3250 N   0  0  0  0  0  0  0  0  0  0  0  0
   12.5480    0.6590   23.3180 C   0  0  0  0  0  0  0  0  0  0  0  0
   13.1010    0.0140   24.2010 O   0  0  0  0  0  0  0  0  0  0  0  0
   13.2760    1.1610   22.2990 N   0  0  0  0  0  0  0  0  0  0  0  0
   13.2940    2.5180   22.0820 C   0  0  0  0  0  0  0  0  0  0  0  0
   14.3390    3.2620   21.5420 C   0  0  0  0  0  0  0  0  0  0  0  0
   14.2750    4.6320   21.3400 C   0  0  0  0  0  0  0  0  0  0  0  0
   13.2270    5.4270   21.6330 N   0  0  0  0  0  0  0  0  0  0  0  0
   12.1760    4.8020   22.1510 C   0  0  0  0  0  0  0  0  0  0  0  0
   12.0510    3.3160   22.4430 C   0  0  0  0  0  0  0  0  0  0  0  0
   10.3250    2.0290   23.0680 C   0  0  0  0  0  0  0  0  0  0  0  0
   10.6550    3.2940   23.5700 C   0  0  0  0  0  0  0  0  0  0  0  0
    9.8830    4.4300   23.3530 C   0  0  0  0  0  0  0  0  0  0  0  0
    8.7270    4.3420   22.6120 C   0  0  0  0  0  0  0  0  0  0  0  0
    8.3550    3.1090   22.0850 C   0  0  0  0  0  0  0  0  0  0  0  0
    7.2500    2.7830   21.3220 N   0  0  0  0  0  0  0  0  0  0  0  0
    7.2880    1.4610   21.0210 C   0  0  0  0  0  0  0  0  0  0  0  0
    8.4050    0.9280   21.5860 C   0  0  0  0  0  0  0  0  0  0  0  0
    9.1210    1.9500   22.2850 C   0  0  0  0  0  0  0  0  0  0  0  0
    9.4860   -0.6140   25.0600 C   0  0  0  0  0  0  0  0  0  0  0  0
    9.0670   -1.3180   24.1660 C   0  0  0  0  0  0  0  0  0  0  0  0
    9.7260   -0.9000   23.0830 F   0  0  0  0  0  0  0  0  0  0  0  0
    7.3490   -4.2460   23.0540 C   0  0  0  0  0  0  0  0  0  0  0  0
    5.9280   -4.3790   22.4270 C   0  0  0  0  0  0  0  0  0  0  0  0
  1  2  1  0
  2  3  1  0
  3  4  2  0
  3  5  1  0
  5  6  1  0
  6  7  1  0
  7  8  1  0
  8  9  1  0
  9 10  2  0
 10 11  1  0
 10 12  1  0
 12 13  2  0
 13 14  1  0
 14 15  1  0
 15 16  2  0
 15 17  1  0
 17 18  1  0
 18 19  2  0
 19 20  1  0
 20 21  2  0
 21 22  1  0
 18 23  1  0
 22 23  2  0
 14 24  1  0
 24 25  2  0
 25 26  1  0
 26 27  2  0
 27 28  1  0
 28 29  1  0
 29 30  1  0
 30 31  2  0
 24 32  1  0
 28 32  2  0
 31 32  1  0
 13 33  1  0
  9 34  1  0
 33 34  2  0
 34 35  1  0
  8 36  1  0
  5 37  1  0
 36 37  1  0
M  END
