NIM-UNI-43fe0159-6-vinylsulfonamide
     RDKit          3D

 19 20  0  0  0  0  0  0  0  0999 V2000
    6.1390   -4.6520   20.0720 C   0  0  0  0  0  0  0  0  0  0  0  0
    6.7270   -3.2810   20.1240 C   0  0  0  0  0  0  0  0  0  0  0  0
    6.0110   -2.6160   21.5810 S   0  0  0  0  0  0  0  0  0  0  0  0
    4.6500   -2.9740   21.4650 O   0  0  0  0  0  0  0  0  0  0  0  0
    6.4220   -1.2360   21.7550 O   0  0  0  0  0  0  0  0  0  0  0  0
    6.3930   -3.5350   22.9520 N   0  0  0  0  0  0  0  0  0  0  0  0
    6.1820   -2.8530   24.2230 C   0  0  0  0  0  0  0  0  0  0  0  0
    7.2780   -1.9800   24.4230 C   0  0  0  0  0  0  0  0  0  0  0  0
    8.2760   -2.3460   23.5540 C   0  0  1  0  0  0  0  0  0  0  0  0
    9.4230   -1.6210   23.4640 C   0  0  0  0  0  0  0  0  0  0  0  0
   10.3010   -1.9520   22.4470 C   0  0  0  0  0  0  0  0  0  0  0  0
   11.5570   -1.1540   22.3310 C   0  0  0  0  0  0  0  0  0  0  0  0
   11.7850   -0.1430   23.2110 C   0  0  0  0  0  0  0  0  0  0  0  0
   12.9730    0.6100   23.0640 C   0  0  0  0  0  0  0  0  0  0  0  0
   12.5170    2.3580   22.9520 S   0  0  0  0  0  0  0  0  0  0  0  0
   10.8690    0.1440   24.2240 C   0  0  0  0  0  0  0  0  0  0  0  0
    9.7130   -0.5800   24.3500 C   0  0  0  0  0  0  0  0  0  0  0  0
    8.5310   -3.7320   23.6400 O   0  0  0  0  0  0  0  0  0  0  0  0
    7.5290   -4.4020   22.9300 C   0  0  0  0  0  0  0  0  0  0  0  0
  1  2  1  0
  3  2  1  0
  3  4  2  0
  3  5  2  0
  3  6  1  0
  6  7  1  0
  7  8  1  0
  8  9  1  0
  9 10  1  1
 10 11  2  0
 11 12  1  0
 12 13  2  0
 13 14  1  0
 14 15  1  0
 13 16  1  0
 10 17  1  0
 16 17  2  0
  9 18  1  0
  6 19  1  0
 18 19  1  0
M  END
