NIM-UNI-05f93fcc-4-chloroacetamide
     RDKit          3D

 26 29  0  0  0  0  0  0  0  0999 V2000
    7.2920   -3.3920   19.8870 C   0  0  0  0  0  0  0  0  0  0  0  0
    6.3690   -4.4130   20.5240 C   0  0  0  0  0  0  0  0  0  0  0  0
    5.3120   -4.6420   19.9360 O   0  0  0  0  0  0  0  0  0  0  0  0
    6.6480   -5.1310   21.6890 N   0  0  0  0  0  0  0  0  0  0  0  0
    5.9100   -6.3260   22.0150 C   0  0  0  0  0  0  0  0  0  0  0  0
    4.9790   -6.0250   23.1750 C   0  0  0  0  0  0  0  0  0  0  0  0
    5.5190   -5.5090   24.2920 N   0  0  0  0  0  0  0  0  0  0  0  0
    4.6470   -5.6020   25.7560 S   0  0  0  0  0  0  0  0  0  0  0  0
    5.5800   -5.3160   26.8290 O   0  0  0  0  0  0  0  0  0  0  0  0
    3.8900   -6.8300   25.7540 O   0  0  0  0  0  0  0  0  0  0  0  0
    3.4490   -4.2850   25.7760 C   0  0  0  0  0  0  0  0  0  0  0  0
    2.1230   -4.2460   25.6990 C   0  0  0  0  0  0  0  0  0  0  0  0
    1.6040   -2.9830   25.7620 C   0  0  0  0  0  0  0  0  0  0  0  0
    2.3740   -1.7830   25.8980 C   0  0  0  0  0  0  0  0  0  0  0  0
    3.5120   -1.0130   26.0240 C   0  0  0  0  0  0  0  0  0  0  0  0
    3.6210    0.3990   25.9960 C   0  0  0  0  0  0  0  0  0  0  0  0
    4.8530    1.0860   26.1340 C   0  0  0  0  0  0  0  0  0  0  0  0
    6.0010    0.3090   26.3040 C   0  0  0  0  0  0  0  0  0  0  0  0
    7.3500    0.5820   26.4680 C   0  0  0  0  0  0  0  0  0  0  0  0
    8.0380   -0.5930   26.5900 C   0  0  0  0  0  0  0  0  0  0  0  0
    7.2530   -1.6700   26.5220 N   0  0  0  0  0  0  0  0  0  0  0  0
    5.9030   -1.0760   26.3320 C   0  0  0  0  0  0  0  0  0  0  0  0
    4.7240   -1.7360   26.2010 C   0  0  0  0  0  0  0  0  0  0  0  0
    3.8850   -2.6870   25.9170 S   0  0  0  0  0  0  0  0  0  0  0  0
    6.1860   -4.3340   24.0430 C   0  0  0  0  0  0  0  0  0  0  0  0
    7.2110   -4.4690   22.8760 C   0  0  0  0  0  0  0  0  0  0  0  0
  1  2  1  0
  2  3  2  0
  2  4  1  0
  4  5  1  0
  5  6  1  0
  6  7  1  0
  7  8  1  0
  8  9  2  0
  8 10  2  0
  8 11  1  0
 11 12  2  0
 12 13  1  0
 13 14  2  0
 14 15  1  0
 15 16  2  0
 16 17  1  0
 17 18  2  0
 18 19  1  0
 19 20  2  0
 20 21  1  0
 18 22  1  0
 21 22  1  0
 15 23  1  0
 22 23  2  0
 11 24  1  0
 14 24  1  0
  7 25  1  0
  4 26  1  0
 25 26  1  0
M  END
