NIM-UNI-05f93fcc-9-chloroacetamide
     RDKit          3D

 22 24  0  0  0  0  0  0  0  0999 V2000
    7.2760   -3.3900   19.9000 C   0  0  0  0  0  0  0  0  0  0  0  0
    6.3560   -4.4120   20.5430 C   0  0  0  0  0  0  0  0  0  0  0  0
    5.3260   -4.7060   19.9430 O   0  0  0  0  0  0  0  0  0  0  0  0
    6.6160   -5.0380   21.7560 N   0  0  0  0  0  0  0  0  0  0  0  0
    7.3500   -4.4320   22.8560 C   0  0  0  0  0  0  0  0  0  0  0  0
    6.4210   -4.3170   24.0690 C   0  0  0  0  0  0  0  0  0  0  0  0
    5.5810   -5.3490   24.3180 N   0  0  0  0  0  0  0  0  0  0  0  0
    4.7380   -5.4870   25.7900 S   0  0  0  0  0  0  0  0  0  0  0  0
    3.9930   -6.7270   25.7870 O   0  0  0  0  0  0  0  0  0  0  0  0
    5.6770   -5.1990   26.8530 O   0  0  0  0  0  0  0  0  0  0  0  0
    3.5350   -4.1830   25.8180 C   0  0  0  0  0  0  0  0  0  0  0  0
    2.2120   -4.2050   25.7780 C   0  0  0  0  0  0  0  0  0  0  0  0
    1.6380   -2.9750   25.8230 C   0  0  0  0  0  0  0  0  0  0  0  0
    2.3380   -1.7320   25.9040 C   0  0  0  0  0  0  0  0  0  0  0  0
    3.3790   -0.8380   25.9760 C   0  0  0  0  0  0  0  0  0  0  0  0
    3.1810    0.4830   26.2650 N   0  0  0  0  0  0  0  0  0  0  0  0
    4.4390    1.0320   26.2450 C   0  0  0  0  0  0  0  0  0  0  0  0
    5.3890    0.0560   25.9470 C   0  0  0  0  0  0  0  0  0  0  0  0
    4.7380   -1.1420   25.7730 O   0  0  0  0  0  0  0  0  0  0  0  0
    3.9170   -2.5550   25.9070 S   0  0  0  0  0  0  0  0  0  0  0  0
    5.0550   -5.9890   23.1830 C   0  0  0  0  0  0  0  0  0  0  0  0
    5.9180   -6.1920   22.1030 C   0  0  0  0  0  0  0  0  0  0  0  0
  1  2  1  0
  2  3  2  0
  2  4  1  0
  4  5  1  0
  5  6  1  0
  6  7  1  0
  7  8  1  0
  8  9  2  0
  8 10  2  0
  8 11  1  0
 11 12  2  0
 12 13  1  0
 13 14  2  0
 14 15  1  0
 15 16  2  0
 16 17  1  0
 17 18  2  0
 15 19  1  0
 18 19  1  0
 11 20  1  0
 14 20  1  0
  7 21  1  0
  4 22  1  0
 21 22  1  0
M  END
