NIM-UNI-534877e5-3
     RDKit          3D

 36 40  0  0  0  0  0  0  0  0999 V2000
    3.8750   -8.0270   24.9460 O   0  0  0  0  0  0  0  0  0  0  0  0
    3.4020   -7.0780   24.3610 C   0  0  0  0  0  0  0  0  0  0  0  0
    4.1710   -5.9110   23.8280 C   0  0  0  0  0  0  0  0  0  0  0  0
    5.2410   -5.4930   22.9590 C   0  0  0  0  0  0  0  0  0  0  0  0
    5.5660   -4.0010   22.7710 C   0  0  0  0  0  0  0  0  0  0  0  0
    4.6670   -3.0490   23.5770 C   0  0  0  0  0  0  0  0  0  0  0  0
    4.7980   -1.5350   23.4810 C   0  0  0  0  0  0  0  0  0  0  0  0
    5.1640   -1.3200   22.3320 O   0  0  0  0  0  0  0  0  0  0  0  0
    6.4560   -1.0870   22.3830 C   0  0  0  0  0  0  0  0  0  0  0  0
    7.0630   -1.4420   23.5880 N   0  0  0  0  0  0  0  0  0  0  0  0
    8.3200   -1.1900   23.6530 C   0  0  0  0  0  0  0  0  0  0  0  0
    8.9280   -0.3940   22.7230 C   0  0  0  0  0  0  0  0  0  0  0  0
   10.2240   -0.1860   22.8750 C   0  0  0  0  0  0  0  0  0  0  0  0
   10.7270    0.8140   23.6690 C   0  0  0  0  0  0  0  0  0  0  0  0
   12.0900    0.9540   23.7580 C   0  0  0  0  0  0  0  0  0  0  0  0
   12.9290    0.0970   23.0610 C   0  0  0  0  0  0  0  0  0  0  0  0
   12.3470   -0.8900   22.2860 C   0  0  0  0  0  0  0  0  0  0  0  0
   13.2090   -2.1450   21.2670 Br  0  0  0  0  0  0  0  0  0  0  0  0
   11.0260   -1.0280   22.1960 C   0  0  0  0  0  0  0  0  0  0  0  0
    8.2310    0.1530   21.6680 C   0  0  0  0  0  0  0  0  0  0  0  0
    8.6690    1.1990   21.1320 O   0  0  0  0  0  0  0  0  0  0  0  0
    7.1320   -0.5220   21.3460 N   0  0  0  0  0  0  0  0  0  0  0  0
    6.4600    0.0770   20.1930 C   0  0  0  0  0  0  0  0  0  0  0  0
    5.2800    0.7880   20.4270 C   0  0  0  0  0  0  0  0  0  0  0  0
    4.5510    1.4560   19.2540 C   0  0  0  0  0  0  0  0  0  0  0  0
    5.1950    1.2890   17.8750 C   0  0  0  0  0  0  0  0  0  0  0  0
    6.3210    0.5930   17.7030 N   0  0  0  0  0  0  0  0  0  0  0  0
    6.9390   -0.0130   18.8860 C   0  0  0  0  0  0  0  0  0  0  0  0
    3.7020   -3.5470   24.3960 C   0  0  0  0  0  0  0  0  0  0  0  0
    3.4760   -4.8910   24.5090 C   0  0  0  0  0  0  0  0  0  0  0  0
    2.0250   -6.9970   24.1140 N   0  0  0  0  0  0  0  0  0  0  0  0
    1.4940   -5.9160   23.2710 C   0  0  0  0  0  0  0  0  0  0  0  0
    0.4240   -5.1500   24.0740 C   0  0  0  0  0  0  0  0  0  0  0  0
   -0.2420   -5.9660   25.0560 O   0  0  0  0  0  0  0  0  0  0  0  0
   -0.3210   -7.3670   24.7460 C   0  0  0  0  0  0  0  0  0  0  0  0
    1.0380   -8.0210   24.4320 C   0  0  0  0  0  0  0  0  0  0  0  0
  1  2  2  0
  2  3  1  0
  3  4  2  0
  4  5  1  0
  5  6  2  0
  6  7  1  0
  7  8  1  0
  8  9  1  0
  9 10  2  0
 10 11  1  0
 11 12  2  0
 12 13  1  0
 13 14  2  0
 14 15  1  0
 15 16  2  0
 16 17  1  0
 17 18  1  0
 13 19  1  0
 17 19  2  0
 12 20  1  0
 20 21  2  0
  9 22  1  0
 20 22  1  0
 22 23  1  0
 23 24  2  0
 24 25  1  0
 25 26  2  0
 26 27  1  0
 23 28  1  0
 27 28  2  0
  6 29  1  0
  3 30  1  0
 29 30  2  0
  2 31  1  0
 31 32  1  0
 32 33  1  0
 33 34  1  0
 34 35  1  0
 31 36  1  0
 35 36  1  0
M  END
