NIM-UNI-7ba87d62-5-nitrile
     RDKit          3D

 23 25  0  0  0  0  0  0  0  0999 V2000
    6.9300   -3.3070   19.2570 C   0  0  0  0  0  0  0  0  0  0  0  0
    6.5870   -3.0360   18.0820 N   0  0  0  0  0  0  0  0  0  0  0  0
    6.1480   -2.9050   20.2670 N   0  0  0  0  0  0  0  0  0  0  0  0
    6.8950   -2.6870   21.4720 C   0  0  0  0  0  0  0  0  0  0  0  0
    8.0050   -1.7160   21.4560 N   0  0  0  0  0  0  0  0  0  0  0  0
    8.7720   -1.6150   22.5740 C   0  0  0  0  0  0  0  0  0  0  0  0
    9.3140   -0.5680   22.9080 O   0  0  0  0  0  0  0  0  0  0  0  0
    8.8710   -2.8030   23.2930 N   0  0  0  0  0  0  0  0  0  0  0  0
    9.9000   -3.0070   24.3090 C   0  0  0  0  0  0  0  0  0  0  0  0
    9.3730   -3.9930   25.3170 C   0  0  0  0  0  0  0  0  0  0  0  0
    9.8390   -5.2820   25.5340 C   0  0  0  0  0  0  0  0  0  0  0  0
    9.2050   -5.9950   26.5050 C   0  0  0  0  0  0  0  0  0  0  0  0
    8.1810   -5.3160   27.1300 C   0  0  0  0  0  0  0  0  0  0  0  0
    7.0500   -5.9420   28.5260 Br  0  0  0  0  0  0  0  0  0  0  0  0
    8.0210   -3.6760   26.4400 S   0  0  0  0  0  0  0  0  0  0  0  0
    7.6420   -3.5530   23.5850 C   0  0  0  0  0  0  0  0  0  0  0  0
    6.5930   -3.5060   22.6850 C   0  0  0  0  0  0  0  0  0  0  0  0
    5.4130   -4.1940   22.9830 C   0  0  0  0  0  0  0  0  0  0  0  0
    5.1450   -5.6130   22.4620 C   0  0  0  0  0  0  0  0  0  0  0  0
    3.8160   -6.2430   22.8780 C   0  0  0  0  0  0  0  0  0  0  0  0
    2.9070   -5.3920   23.7650 C   0  0  0  0  0  0  0  0  0  0  0  0
    3.2320   -4.1460   24.1770 N   0  0  0  0  0  0  0  0  0  0  0  0
    4.4240   -3.5930   23.7940 C   0  0  0  0  0  0  0  0  0  0  0  0
  1  2  2  3
  1  3  1  0
  3  4  1  0
  4  5  2  0
  5  6  1  0
  6  7  2  0
  6  8  1  0
  8  9  1  0
  9 10  1  0
 10 11  2  0
 11 12  1  0
 12 13  2  0
 13 14  1  0
 10 15  1  0
 13 15  1  0
  8 16  1  0
  4 17  1  0
 16 17  2  0
 17 18  1  0
 18 19  2  0
 19 20  1  0
 20 21  2  0
 21 22  1  0
 18 23  1  0
 22 23  2  0
M  END
