NIM-UNI-ed9fc491-2-chloroacetamide
     RDKit          3D

 27 28  0  0  0  0  0  0  0  0999 V2000
    8.7010   -5.0910   20.5720 C   0  0  0  0  0  0  0  0  0  0  0  0
    7.8150   -3.9360   20.5590 C   0  0  0  0  0  0  0  0  0  0  0  0
    6.7550   -3.9230   19.7350 O   0  0  0  0  0  0  0  0  0  0  0  0
    8.3810   -3.0080   21.5000 N   0  0  0  0  0  0  0  0  0  0  0  0
    9.8880   -2.8770   21.4620 C   0  0  0  0  0  0  0  0  0  0  0  0
   10.6900   -3.2730   22.5600 C   0  0  0  0  0  0  0  0  0  0  0  0
   10.3330   -2.4580   23.6690 N   0  0  0  0  0  0  0  0  0  0  0  0
   11.0680   -1.2170   23.5300 C   0  0  0  0  0  0  0  0  0  0  0  0
   10.7580   -0.5810   22.2920 C   0  0  0  0  0  0  0  0  0  0  0  0
    9.2910   -0.4500   22.3930 N   0  0  0  0  0  0  0  0  0  0  0  0
    8.7650    0.8760   22.1550 C   0  0  0  0  0  0  0  0  0  0  0  0
    9.2040    1.7190   21.3760 O   0  0  0  0  0  0  0  0  0  0  0  0
    7.6560    1.3530   22.8290 C   0  0  2  0  0  0  0  0  0  0  0  0
    6.4430    0.5310   22.6060 C   0  0  0  0  0  0  0  0  0  0  0  0
    5.9590    0.8920   21.2740 C   0  0  0  0  0  0  0  0  0  0  0  0
    5.3310    1.4320   20.4350 C   0  0  0  0  0  0  0  0  0  0  0  0
    5.0110    1.6390   19.1020 C   0  0  0  0  0  0  0  0  0  0  0  0
    5.7560    0.8640   18.2820 C   0  0  0  0  0  0  0  0  0  0  0  0
    5.7030    0.8300   17.0860 O   0  0  0  0  0  0  0  0  0  0  0  0
    6.6460    0.0620   18.9950 C   0  0  0  0  0  0  0  0  0  0  0  0
    6.7570    0.0600   20.4060 C   0  0  0  0  0  0  0  0  0  0  0  0
    7.4480    2.6280   22.1660 N   0  0  0  0  0  0  0  0  0  0  0  0
    7.0460    3.7140   22.8570 C   0  0  0  0  0  0  0  0  0  0  0  0
    7.5940    4.8880   22.3500 C   0  0  0  0  0  0  0  0  0  0  0  0
    6.1500    3.6670   23.9820 O   0  0  0  0  0  0  0  0  0  0  0  0
    8.8410   -2.3620   23.8080 C   0  0  0  0  0  0  0  0  0  0  0  0
    7.8980   -2.8480   22.8830 C   0  0  0  0  0  0  0  0  0  0  0  0
  1  2  1  0
  2  3  2  0
  2  4  1  0
  4  5  1  0
  5  6  1  0
  6  7  1  0
  7  8  1  0
  8  9  1  0
  9 10  1  0
 10 11  1  0
 11 12  2  0
 11 13  1  0
 13 14  1  6
 14 15  1  0
 15 16  2  0
 16 17  1  0
 17 18  2  0
 18 19  1  0
 18 20  1  0
 15 21  1  0
 20 21  2  0
 13 22  1  0
 22 23  1  0
 23 24  1  0
 23 25  2  0
  7 26  1  0
  4 27  1  0
 26 27  1  0
M  END
