NIM-UNI-ed9fc491-4-acrylamide
     RDKit          3D

 34 36  0  0  0  0  0  0  0  0999 V2000
    6.4600   -5.0860   20.4020 C   0  0  0  0  0  0  0  0  0  0  0  0
    5.7360   -3.9830   21.1070 C   0  0  0  0  0  0  0  0  0  0  0  0
    5.1980   -4.4940   22.4070 C   0  0  0  0  0  0  0  0  0  0  0  0
    4.1180   -5.0410   22.4820 O   0  0  0  0  0  0  0  0  0  0  0  0
    6.0030   -4.2800   23.4790 N   0  0  0  0  0  0  0  0  0  0  0  0
    7.0120   -5.2510   23.8950 C   0  0  0  0  0  0  0  0  0  0  0  0
    8.3080   -4.8030   23.6400 C   0  0  0  0  0  0  0  0  0  0  0  0
    8.6440   -3.4500   24.1160 N   0  0  0  0  0  0  0  0  0  0  0  0
    9.4880   -2.6240   23.1990 C   0  0  0  0  0  0  0  0  0  0  0  0
    9.0340   -1.3100   23.1410 C   0  0  1  0  0  0  0  0  0  0  0  0
    9.7550   -0.3450   22.4400 N   0  0  0  0  0  0  0  0  0  0  0  0
    9.6220    1.0890   22.7670 C   0  0  0  0  0  0  0  0  0  0  0  0
   10.5620    1.8660   22.7520 O   0  0  0  0  0  0  0  0  0  0  0  0
    8.2500    1.5650   23.1260 C   0  0  2  0  0  0  0  0  0  0  0  0
    7.4900    1.3850   21.9050 C   0  0  0  0  0  0  0  0  0  0  0  0
    7.2630    0.8140   20.9050 C   0  0  0  0  0  0  0  0  0  0  0  0
    7.3510   -0.1760   19.8850 C   0  0  0  0  0  0  0  0  0  0  0  0
    6.6610   -0.2700   18.7150 C   0  0  0  0  0  0  0  0  0  0  0  0
    5.7120    0.5830   18.2600 C   0  0  0  0  0  0  0  0  0  0  0  0
    5.2010    0.4010   17.2110 O   0  0  0  0  0  0  0  0  0  0  0  0
    5.4030    1.6400   19.0580 C   0  0  0  0  0  0  0  0  0  0  0  0
    6.1480    1.7840   20.3690 C   0  0  0  0  0  0  0  0  0  0  0  0
    8.3930    2.9960   23.3730 N   0  0  0  0  0  0  0  0  0  0  0  0
    7.2920    3.8200   23.1580 C   0  0  0  0  0  0  0  0  0  0  0  0
    7.4880    4.6910   22.0860 C   0  0  0  0  0  0  0  0  0  0  0  0
    6.0880    3.7880   23.9380 O   0  0  0  0  0  0  0  0  0  0  0  0
    7.7700   -1.1400   22.5920 C   0  0  0  0  0  0  0  0  0  0  0  0
    6.6600   -0.4710   23.3490 C   0  0  0  0  0  0  0  0  0  0  0  0
    5.3300   -0.3290   22.6450 C   0  0  0  0  0  0  0  0  0  0  0  0
    5.1420   -0.8050   21.3490 C   0  0  0  0  0  0  0  0  0  0  0  0
    6.2110   -1.4920   20.5480 C   0  0  0  0  0  0  0  0  0  0  0  0
    7.5560   -1.6280   21.2530 C   0  0  0  0  0  0  0  0  0  0  0  0
    7.4570   -2.7630   24.7400 C   0  0  0  0  0  0  0  0  0  0  0  0
    6.2000   -2.8990   23.9280 C   0  0  0  0  0  0  0  0  0  0  0  0
  1  2  1  0
  2  3  1  0
  3  4  2  0
  3  5  1  0
  5  6  1  0
  6  7  1  0
  7  8  1  0
  8  9  1  0
 10  9  1  6
 10 11  1  0
 11 12  1  0
 12 13  2  0
 12 14  1  0
 14 15  1  6
 15 16  1  0
 16 17  2  0
 17 18  1  0
 18 19  2  0
 19 20  1  0
 19 21  1  0
 16 22  1  0
 21 22  2  0
 14 23  1  0
 23 24  1  0
 24 25  1  0
 24 26  2  0
 10 27  1  0
 27 28  2  0
 28 29  1  0
 29 30  2  0
 30 31  1  0
 27 32  1  0
 31 32  2  0
  8 33  1  0
  5 34  1  0
 33 34  1  0
M  END
