NIM-UNI-bb610069-1-chloroacetamide
     RDKit          3D

 27 29  0  0  0  0  0  0  0  0999 V2000
    8.2750   -4.4280   20.7870 C   0  0  0  0  0  0  0  0  0  0  0  0
    6.7770   -4.2050   20.9210 C   0  0  0  0  0  0  0  0  0  0  0  0
    5.9410   -4.3540   19.9640 O   0  0  0  0  0  0  0  0  0  0  0  0
    6.3820   -3.8460   22.2400 N   0  0  0  0  0  0  0  0  0  0  0  0
    7.2700   -2.9280   23.1170 C   0  0  0  0  0  0  0  0  0  0  0  0
    6.6330   -2.6890   24.3490 C   0  0  0  0  0  0  0  0  0  0  0  0
    6.6180   -1.4680   23.7300 C   0  0  0  0  0  0  0  0  0  0  0  0
    7.4260   -2.3410   22.8060 N   0  0  0  0  0  0  0  0  0  0  0  0
    7.9990   -1.7440   21.5630 C   0  0  0  0  0  0  0  0  0  0  0  0
    8.1620   -0.3570   21.7300 C   0  0  0  0  0  0  0  0  0  0  0  0
    9.3170    0.0670   21.8610 O   0  0  0  0  0  0  0  0  0  0  0  0
    7.0710    0.5230   21.7400 N   0  0  0  0  0  0  0  0  0  0  0  0
    6.4730    0.8200   20.4480 C   0  0  0  0  0  0  0  0  0  0  0  0
    5.4960    1.9150   20.3910 C   0  0  0  0  0  0  0  0  0  0  0  0
    5.1290    1.9320   19.0170 C   0  0  0  0  0  0  0  0  0  0  0  0
    5.1920    1.5420   17.9270 C   0  0  0  0  0  0  0  0  0  0  0  0
    6.0890    0.4920   17.8520 N   0  0  0  0  0  0  0  0  0  0  0  0
    6.6930    0.1630   19.0800 C   0  0  0  0  0  0  0  0  0  0  0  0
    7.6580   -3.6980   23.1000 N   0  0  0  0  0  0  0  0  0  0  0  0
    7.0540   -3.9330   24.2550 N   0  0  0  0  0  0  0  0  0  0  0  0
    5.5590   -4.7900   23.1000 C   0  0  1  0  0  0  0  0  0  0  0  0
    4.3260   -4.2300   23.4630 C   0  0  0  0  0  0  0  0  0  0  0  0
    3.5840   -5.1450   24.2110 C   0  0  0  0  0  0  0  0  0  0  0  0
    3.7760   -6.6940   23.5240 S   0  0  0  0  0  0  0  0  0  0  0  0
    2.6270   -6.8960   22.6710 O   0  0  0  0  0  0  0  0  0  0  0  0
    4.1440   -7.6680   24.5460 O   0  0  0  0  0  0  0  0  0  0  0  0
    5.2050   -6.2150   22.5450 C   0  0  0  0  0  0  0  0  0  0  0  0
  1  2  1  0
  2  3  2  0
  2  4  1  0
  4  5  1  0
  5  6  1  0
  6  7  2  0
  7  8  1  0
  8  9  1  0
  9 10  1  0
 10 11  2  0
 10 12  1  0
 12 13  1  0
 13 14  2  0
 14 15  1  0
 15 16  2  0
 16 17  1  0
 13 18  1  0
 17 18  2  0
  8 19  1  0
  6 20  1  0
 19 20  2  0
 21  4  1  6
 21 22  1  0
 22 23  1  0
 24 23  1  0
 24 25  2  0
 24 26  2  0
 21 27  1  0
 24 27  1  0
M  END
