NIM-UNI-ed9fc491-1-acrylamide
     RDKit          3D

 27 28  0  0  0  0  0  0  0  0999 V2000
    8.9130   -5.3300   20.6360 C   0  0  0  0  0  0  0  0  0  0  0  0
    7.3910   -5.6280   20.7020 C   0  0  0  0  0  0  0  0  0  0  0  0
    6.6810   -4.3970   21.2600 C   0  0  0  0  0  0  0  0  0  0  0  0
    5.3220   -4.2430   21.1920 O   0  0  0  0  0  0  0  0  0  0  0  0
    7.6850   -3.4700   21.8110 N   0  0  0  0  0  0  0  0  0  0  0  0
    8.9910   -3.7300   22.6670 C   0  0  0  0  0  0  0  0  0  0  0  0
   10.2330   -3.1530   22.2480 C   0  0  0  0  0  0  0  0  0  0  0  0
   10.1460   -1.7810   21.7890 N   0  0  0  0  0  0  0  0  0  0  0  0
   10.7230   -0.8500   22.7300 C   0  0  0  0  0  0  0  0  0  0  0  0
    9.6150   -0.0610   23.3040 N   0  0  0  0  0  0  0  0  0  0  0  0
    8.9370    0.9280   22.4670 C   0  0  0  0  0  0  0  0  0  0  0  0
    9.3320    1.4100   21.3980 O   0  0  0  0  0  0  0  0  0  0  0  0
    7.7130    1.4440   22.8720 C   0  0  2  0  0  0  0  0  0  0  0  0
    6.5480    0.5750   22.5390 C   0  0  0  0  0  0  0  0  0  0  0  0
    6.0060    0.9720   21.2330 C   0  0  0  0  0  0  0  0  0  0  0  0
    5.3450    1.5330   20.4310 C   0  0  0  0  0  0  0  0  0  0  0  0
    4.9640    1.7670   19.1180 C   0  0  0  0  0  0  0  0  0  0  0  0
    5.6570    1.0000   18.2450 C   0  0  0  0  0  0  0  0  0  0  0  0
    5.5410    0.9860   17.0520 O   0  0  0  0  0  0  0  0  0  0  0  0
    6.5710    0.1810   18.9020 C   0  0  0  0  0  0  0  0  0  0  0  0
    6.7480    0.1570   20.3050 C   0  0  0  0  0  0  0  0  0  0  0  0
    7.5930    2.6890   22.1360 N   0  0  0  0  0  0  0  0  0  0  0  0
    7.0410    3.7540   22.7490 C   0  0  0  0  0  0  0  0  0  0  0  0
    7.5510    4.9580   22.2730 C   0  0  0  0  0  0  0  0  0  0  0  0
    6.0420    3.6640   23.7850 O   0  0  0  0  0  0  0  0  0  0  0  0
    8.7510   -1.3950   21.5440 C   0  0  0  0  0  0  0  0  0  0  0  0
    7.8400   -2.2680   21.0110 C   0  0  0  0  0  0  0  0  0  0  0  0
  1  2  1  0
  2  3  1  0
  3  4  2  0
  3  5  1  0
  5  6  1  0
  6  7  1  0
  7  8  1  0
  8  9  1  0
  9 10  1  0
 10 11  1  0
 11 12  2  0
 11 13  1  0
 13 14  1  6
 14 15  1  0
 15 16  2  0
 16 17  1  0
 17 18  2  0
 18 19  1  0
 18 20  1  0
 15 21  1  0
 20 21  2  0
 13 22  1  0
 22 23  1  0
 23 24  1  0
 23 25  2  0
  8 26  1  0
  5 27  1  0
 26 27  1  0
M  END
