NIM-UNI-43fe0159-6-nitrile
     RDKit          3D

 16 17  0  0  0  0  0  0  0  0999 V2000
    6.9680   -4.7190   20.2930 C   0  0  0  0  0  0  0  0  0  0  0  0
    6.1800   -5.6780   19.9810 N   0  0  0  0  0  0  0  0  0  0  0  0
    6.7640   -4.0770   21.5190 N   0  0  0  0  0  0  0  0  0  0  0  0
    6.4070   -2.6810   21.5960 C   0  0  0  0  0  0  0  0  0  0  0  0
    7.5750   -2.0660   21.4020 C   0  0  0  0  0  0  0  0  0  0  0  0
    8.6400   -2.5840   22.2320 C   0  0  1  0  0  0  0  0  0  0  0  0
    9.5530   -1.6890   22.6830 C   0  0  0  0  0  0  0  0  0  0  0  0
    9.3130   -0.7610   23.7030 C   0  0  0  0  0  0  0  0  0  0  0  0
   10.3360    0.1010   24.0390 C   0  0  0  0  0  0  0  0  0  0  0  0
   11.6650    0.0170   23.3080 C   0  0  0  0  0  0  0  0  0  0  0  0
   12.6510    0.8630   23.6020 C   0  0  0  0  0  0  0  0  0  0  0  0
   12.4110    2.4970   22.9600 S   0  0  0  0  0  0  0  0  0  0  0  0
   11.8410   -0.9270   22.3360 C   0  0  0  0  0  0  0  0  0  0  0  0
   10.7980   -1.7610   22.0320 C   0  0  0  0  0  0  0  0  0  0  0  0
    8.1080   -3.4140   23.2610 O   0  0  0  0  0  0  0  0  0  0  0  0
    7.4000   -4.5110   22.6880 C   0  0  0  0  0  0  0  0  0  0  0  0
  1  2  2  3
  1  3  1  0
  3  4  1  0
  4  5  1  0
  5  6  1  0
  6  7  1  1
  7  8  2  0
  8  9  1  0
  9 10  2  0
 10 11  1  0
 11 12  1  0
 10 13  1  0
  7 14  1  0
 13 14  2  0
  6 15  1  0
  3 16  1  0
 15 16  1  0
M  END
