NIM-UNI-310206f0-54-vinylsulfonamide
     RDKit          3D

 35 38  0  0  0  0  0  0  0  0999 V2000
    8.1970   -4.0420   19.6730 C   0  0  0  0  0  0  0  0  0  0  0  0
    7.2810   -5.0050   20.4250 C   0  0  0  0  0  0  0  0  0  0  0  0
    5.8380   -4.0500   20.6700 S   0  0  0  0  0  0  0  0  0  0  0  0
    4.9900   -4.2930   19.5450 O   0  0  0  0  0  0  0  0  0  0  0  0
    6.2630   -2.7050   20.9930 O   0  0  0  0  0  0  0  0  0  0  0  0
    5.1550   -4.7260   22.0760 N   0  0  0  0  0  0  0  0  0  0  0  0
    5.2830   -6.1620   22.2700 C   0  0  0  0  0  0  0  0  0  0  0  0
    4.3090   -6.5400   23.3740 C   0  0  0  0  0  0  0  0  0  0  0  0
    4.3720   -5.5050   24.4090 N   0  0  0  0  0  0  0  0  0  0  0  0
    5.5900   -5.3840   24.9690 C   0  0  0  0  0  0  0  0  0  0  0  0
    5.8130   -5.9920   26.3320 C   0  0  0  0  0  0  0  0  0  0  0  0
    4.9000   -6.6690   27.0550 F   0  0  0  0  0  0  0  0  0  0  0  0
    7.2140   -5.7430   26.8070 C   0  0  0  0  0  0  0  0  0  0  0  0
    8.1510   -5.0460   26.0820 C   0  0  0  0  0  0  0  0  0  0  0  0
    9.3750   -4.9140   26.7870 N   0  0  0  0  0  0  0  0  0  0  0  0
    9.0100   -4.7770   28.1910 C   0  0  0  0  0  0  0  0  0  0  0  0
    7.6030   -4.6650   28.3080 C   0  0  0  0  0  0  0  0  0  0  0  0
    6.9260   -3.6330   28.7680 C   0  0  0  0  0  0  0  0  0  0  0  0
    6.8610   -3.8300   27.3270 C   0  0  0  0  0  0  0  0  0  0  0  0
   10.3300   -4.0090   26.1320 C   0  0  0  0  0  0  0  0  0  0  0  0
   11.6590   -4.2710   26.0690 O   0  0  0  0  0  0  0  0  0  0  0  0
    9.8400   -2.8670   25.5970 N   0  0  0  0  0  0  0  0  0  0  0  0
    9.9700   -2.6400   24.1950 C   0  0  0  0  0  0  0  0  0  0  0  0
   10.9730   -1.6110   23.7560 C   0  0  0  0  0  0  0  0  0  0  0  0
   11.0510   -0.3630   24.3460 C   0  0  0  0  0  0  0  0  0  0  0  0
   11.9810    0.5600   23.9270 C   0  0  0  0  0  0  0  0  0  0  0  0
   12.8760    0.3120   22.9220 C   0  0  0  0  0  0  0  0  0  0  0  0
   12.8040   -0.9390   22.3190 C   0  0  0  0  0  0  0  0  0  0  0  0
   13.6440   -1.2310   21.3300 F   0  0  0  0  0  0  0  0  0  0  0  0
   11.8660   -1.8950   22.7260 C   0  0  0  0  0  0  0  0  0  0  0  0
    7.9050   -4.5200   24.8310 C   0  0  0  0  0  0  0  0  0  0  0  0
    6.6590   -4.6960   24.3160 C   0  0  0  0  0  0  0  0  0  0  0  0
    6.5060   -4.1380   23.1010 F   0  0  0  0  0  0  0  0  0  0  0  0
    3.9570   -4.1500   24.0270 C   0  0  0  0  0  0  0  0  0  0  0  0
    3.9860   -4.1090   22.6850 C   0  0  0  0  0  0  0  0  0  0  0  0
  1  2  1  0
  3  2  1  0
  3  4  2  0
  3  5  2  0
  3  6  1  0
  6  7  1  0
  7  8  1  0
  8  9  1  0
  9 10  1  0
 10 11  2  0
 11 12  1  0
 11 13  1  0
 13 14  2  0
 14 15  1  0
 15 16  1  0
 16 17  1  0
 17 18  1  0
 17 19  1  0
 18 19  1  0
 15 20  1  0
 20 21  2  0
 20 22  1  0
 22 23  1  0
 23 24  1  0
 24 25  2  0
 25 26  1  0
 26 27  2  0
 27 28  1  0
 28 29  1  0
 24 30  1  0
 28 30  2  0
 14 31  1  0
 10 32  1  0
 31 32  2  0
 32 33  1  0
  9 34  1  0
  6 35  1  0
 34 35  1  0
M  END
