NIM-UNI-b87c0f72-2
     RDKit          3D

 25 27  0  0  0  0  0  0  0  0999 V2000
    0.2230    3.6640   17.8300 C   0  0  0  0  0  0  0  0  0  0  0  0
    0.7620    3.0400   18.9950 O   0  0  0  0  0  0  0  0  0  0  0  0
    2.1050    3.2360   19.1830 C   0  0  0  0  0  0  0  0  0  0  0  0
    2.8860    3.6610   18.3710 O   0  0  0  0  0  0  0  0  0  0  0  0
    2.4300    2.8850   20.4750 C   0  0  1  0  0  0  0  0  0  0  0  0
    1.5180    1.9310   20.8820 C   0  0  0  0  0  0  0  0  0  0  0  0
    0.5030    1.6690   20.2350 O   0  0  0  0  0  0  0  0  0  0  0  0
    1.8060    1.3270   22.0600 C   0  0  0  0  0  0  0  0  0  0  0  0
    2.5990    2.1930   22.7600 C   0  0  1  0  0  0  0  0  0  0  0  0
    2.5460    1.8100   24.2060 C   0  0  0  0  0  0  0  0  0  0  0  0
    1.4010    2.6060   24.8260 C   0  0  0  0  0  0  0  0  0  0  0  0
    0.0340    1.9510   24.8000 C   0  0  0  0  0  0  0  0  0  0  0  0
   -1.1250    2.7280   25.4000 C   0  0  0  0  0  0  0  0  0  0  0  0
   -0.8640    4.1110   25.9930 C   0  0  0  0  0  0  0  0  0  0  0  0
    0.4200    4.6960   26.0030 C   0  0  0  0  0  0  0  0  0  0  0  0
    0.6530    6.2630   26.6840 Cl  0  0  0  0  0  0  0  0  0  0  0  0
    1.5660    3.8870   25.3900 C   0  0  0  0  0  0  0  0  0  0  0  0
    3.8990    2.1520   22.1740 O   0  0  0  0  0  0  0  0  0  0  0  0
    3.8350    2.6360   20.7990 C   0  0  1  0  0  0  0  0  0  0  0  0
    4.6680    1.6520   19.9380 C   0  0  0  0  0  0  0  0  0  0  0  0
    5.4310    0.5450   20.6800 C   0  0  0  0  0  0  0  0  0  0  0  0
    6.2140   -0.3530   19.8650 C   0  0  0  0  0  0  0  0  0  0  0  0
    6.2110   -0.1490   18.5100 C   0  0  0  0  0  0  0  0  0  0  0  0
    5.5710    0.7960   17.7940 N   0  0  0  0  0  0  0  0  0  0  0  0
    4.7710    1.7240   18.5600 C   0  0  0  0  0  0  0  0  0  0  0  0
  1  2  1  0
  2  3  1  0
  3  4  2  0
  5  3  1  6
  5  6  1  0
  6  7  2  0
  6  8  1  0
  8  9  1  0
  9 10  1  1
 10 11  1  0
 11 12  2  0
 12 13  1  0
 13 14  2  0
 14 15  1  0
 15 16  1  0
 11 17  1  0
 15 17  2  0
  9 18  1  0
  5 19  1  0
 18 19  1  0
 19 20  1  6
 20 21  2  0
 21 22  1  0
 22 23  2  0
 23 24  1  0
 20 25  1  0
 24 25  2  0
M  END
