NIM-UNI-43fe0159-8-vinylsulfonamide
     RDKit          3D

 22 23  0  0  0  0  0  0  0  0999 V2000
    6.1460   -4.6180   20.0480 C   0  0  0  0  0  0  0  0  0  0  0  0
    6.7850   -3.2770   20.1090 C   0  0  0  0  0  0  0  0  0  0  0  0
    6.0370   -2.6080   21.5350 S   0  0  0  0  0  0  0  0  0  0  0  0
    4.6800   -2.9440   21.3470 O   0  0  0  0  0  0  0  0  0  0  0  0
    6.4590   -1.2340   21.7280 O   0  0  0  0  0  0  0  0  0  0  0  0
    6.3000   -3.5240   22.9340 N   0  0  0  0  0  0  0  0  0  0  0  0
    7.4690   -4.3330   23.0500 C   0  0  0  0  0  0  0  0  0  0  0  0
    8.5630   -3.4620   22.9790 C   0  0  0  0  0  0  0  0  0  0  0  0
    8.4750   -2.3950   23.8180 C   0  0  1  0  0  0  0  0  0  0  0  0
    9.4650   -1.4810   23.6730 C   0  0  0  0  0  0  0  0  0  0  0  0
    9.4190   -0.3310   24.4260 C   0  0  0  0  0  0  0  0  0  0  0  0
   10.5210    0.6670   24.2170 C   0  0  0  0  0  0  0  0  0  0  0  0
   11.5160    0.4080   23.3120 C   0  0  0  0  0  0  0  0  0  0  0  0
   12.5360    1.3870   23.1110 C   0  0  0  0  0  0  0  0  0  0  0  0
   12.0690    2.7230   23.1440 N   0  0  0  0  0  0  0  0  0  0  0  0
   12.7000    3.8960   22.7180 C   0  0  0  0  0  0  0  0  0  0  0  0
   12.2340    4.3340   21.5180 C   0  0  0  0  0  0  0  0  0  0  0  0
   13.5670    4.5210   23.3040 O   0  0  0  0  0  0  0  0  0  0  0  0
   11.5270   -0.7770   22.5910 C   0  0  0  0  0  0  0  0  0  0  0  0
   10.5200   -1.7050   22.7630 C   0  0  0  0  0  0  0  0  0  0  0  0
    7.1930   -1.7470   23.9080 O   0  0  0  0  0  0  0  0  0  0  0  0
    6.1620   -2.6860   24.0810 C   0  0  0  0  0  0  0  0  0  0  0  0
  1  2  1  0
  3  2  1  0
  3  4  2  0
  3  5  2  0
  3  6  1  0
  6  7  1  0
  7  8  1  0
  8  9  1  0
  9 10  1  6
 10 11  2  0
 11 12  1  0
 12 13  2  0
 13 14  1  0
 14 15  1  0
 15 16  1  0
 16 17  1  0
 16 18  2  0
 13 19  1  0
 10 20  1  0
 19 20  2  0
  9 21  1  0
  6 22  1  0
 21 22  1  0
M  END
