NIM-UNI-310206f0-52-acrylamide
     RDKit          3D

 37 41  0  0  0  0  0  0  0  0999 V2000
    7.7940   -3.1120   19.1970 C   0  0  0  0  0  0  0  0  0  0  0  0
    6.5120   -2.2640   19.2310 C   0  0  0  0  0  0  0  0  0  0  0  0
    5.4410   -2.9760   19.9930 C   0  0  0  0  0  0  0  0  0  0  0  0
    4.7370   -3.7510   19.3740 O   0  0  0  0  0  0  0  0  0  0  0  0
    5.3370   -2.7830   21.3690 N   0  0  0  0  0  0  0  0  0  0  0  0
    5.4260   -3.9120   22.3230 C   0  0  0  0  0  0  0  0  0  0  0  0
    6.6120   -3.8030   23.3040 C   0  0  0  0  0  0  0  0  0  0  0  0
    6.7200   -2.4360   23.7870 N   0  0  0  0  0  0  0  0  0  0  0  0
    7.9630   -1.8400   23.7240 C   0  0  0  0  0  0  0  0  0  0  0  0
    8.7080   -0.8590   24.3310 C   0  0  0  0  0  0  0  0  0  0  0  0
    9.8820   -0.8190   23.7020 F   0  0  0  0  0  0  0  0  0  0  0  0
    8.7440   -0.0170   25.1950 C   0  0  0  0  0  0  0  0  0  0  0  0
   10.0050    0.4240   24.8950 C   0  0  0  0  0  0  0  0  0  0  0  0
   11.3060    0.6400   24.3370 N   0  0  0  0  0  0  0  0  0  0  0  0
   12.0880   -0.5730   24.1770 C   0  0  0  0  0  0  0  0  0  0  0  0
   12.8470   -0.9460   25.3710 C   0  0  0  0  0  0  0  0  0  0  0  0
   13.6280   -2.0800   25.4110 C   0  0  0  0  0  0  0  0  0  0  0  0
   13.6990   -2.8370   24.2980 C   0  0  0  0  0  0  0  0  0  0  0  0
   12.9740   -2.4780   23.0870 C   0  0  0  0  0  0  0  0  0  0  0  0
   12.9830   -3.1340   21.9190 N   0  0  0  0  0  0  0  0  0  0  0  0
   12.1840   -2.5190   21.0890 C   0  0  0  0  0  0  0  0  0  0  0  0
   11.6730   -1.4510   21.7630 C   0  0  0  0  0  0  0  0  0  0  0  0
   12.1650   -1.3730   23.0290 C   0  0  0  0  0  0  0  0  0  0  0  0
   11.3660    1.5140   22.9070 S   0  0  0  0  0  0  0  0  0  0  0  0
   12.6180    1.1110   22.3450 O   0  0  0  0  0  0  0  0  0  0  0  0
   10.0970    1.2290   22.2750 O   0  0  0  0  0  0  0  0  0  0  0  0
   11.4100    3.2580   23.0600 C   0  0  0  0  0  0  0  0  0  0  0  0
   12.4860    3.9780   22.6740 C   0  0  0  0  0  0  0  0  0  0  0  0
   12.2450    5.3020   22.8760 C   0  0  0  0  0  0  0  0  0  0  0  0
   13.1940    6.3950   22.5560 C   0  0  0  0  0  0  0  0  0  0  0  0
   10.9940    5.4370   23.4110 O   0  0  0  0  0  0  0  0  0  0  0  0
   10.4370    4.1380   23.5340 N   0  0  0  0  0  0  0  0  0  0  0  0
   10.0900   -0.6530   23.7370 C   0  0  0  0  0  0  0  0  0  0  0  0
    9.1630   -1.7720   23.1190 C   0  0  0  0  0  0  0  0  0  0  0  0
    9.5530   -2.5410   22.1000 F   0  0  0  0  0  0  0  0  0  0  0  0
    5.6090   -1.5500   23.4010 C   0  0  0  0  0  0  0  0  0  0  0  0
    5.6080   -1.4790   21.9950 C   0  0  0  0  0  0  0  0  0  0  0  0
  1  2  1  0
  2  3  1  0
  3  4  2  0
  3  5  1  0
  5  6  1  0
  6  7  1  0
  7  8  1  0
  8  9  1  0
  9 10  2  0
 10 11  1  0
 10 12  1  0
 12 13  2  0
 13 14  1  0
 14 15  1  0
 15 16  2  0
 16 17  1  0
 17 18  2  0
 18 19  1  0
 19 20  1  0
 20 21  1  0
 21 22  2  0
 15 23  1  0
 19 23  2  0
 22 23  1  0
 24 14  1  0
 24 25  2  0
 24 26  2  0
 24 27  1  0
 27 28  1  0
 28 29  2  0
 29 30  1  0
 29 31  1  0
 27 32  2  0
 31 32  1  0
 13 33  1  0
  9 34  1  0
 33 34  2  0
 34 35  1  0
  8 36  1  0
  5 37  1  0
 36 37  1  0
M  END
