NIM-UNI-6eebfcd4-2
     RDKit          3D

 24 25  0  0  0  0  0  0  0  0999 V2000
    7.6650   -4.5880   21.3560 O   0  0  0  0  0  0  0  0  0  0  0  0
    7.7310   -3.3610   21.2580 C   0  0  0  0  0  0  0  0  0  0  0  0
    8.9350   -2.6090   21.7770 C   0  0  0  0  0  0  0  0  0  0  0  0
    8.9380   -2.7810   23.5390 Cl  0  0  0  0  0  0  0  0  0  0  0  0
    6.6620   -2.5180   20.5960 C   0  0  0  0  0  0  0  0  0  0  0  0
    7.3070   -1.4670   19.8030 N   0  0  0  0  0  0  0  0  0  0  0  0
    6.4140   -0.3850   19.4310 C   0  0  0  0  0  0  0  0  0  0  0  0
    6.5040    0.1610   18.1720 C   0  0  0  0  0  0  0  0  0  0  0  0
    5.6390    1.2510   17.7160 N   0  0  0  0  0  0  0  0  0  0  0  0
    4.6480    1.7600   18.6680 C   0  0  0  0  0  0  0  0  0  0  0  0
    4.5310    1.2250   19.9580 C   0  0  0  0  0  0  0  0  0  0  0  0
    3.5870    1.7150   20.8490 C   0  0  0  0  0  0  0  0  0  0  0  0
    4.0350    1.4810   22.2420 C   0  0  0  0  0  0  0  0  0  0  0  0
    3.2460    2.3830   23.0680 N   0  0  0  0  0  0  0  0  0  0  0  0
    2.1370    1.8990   23.8880 C   0  0  0  0  0  0  0  0  0  0  0  0
    1.8080    0.7180   23.9040 O   0  0  0  0  0  0  0  0  0  0  0  0
    1.6020    2.7530   24.5470 C   0  0  0  0  0  0  0  0  0  0  0  0
    1.4570    3.9370   25.3320 C   0  0  0  0  0  0  0  0  0  0  0  0
    0.3490    4.5080   25.9300 C   0  0  0  0  0  0  0  0  0  0  0  0
   -0.9110    3.9750   25.8560 C   0  0  0  0  0  0  0  0  0  0  0  0
   -1.1190    2.8110   25.1540 C   0  0  0  0  0  0  0  0  0  0  0  0
   -2.6810    2.1020   25.0270 Cl  0  0  0  0  0  0  0  0  0  0  0  0
    0.1190    2.1730   24.4870 C   0  0  0  0  0  0  0  0  0  0  0  0
    5.4250    0.1660   20.2940 C   0  0  0  0  0  0  0  0  0  0  0  0
  1  2  2  0
  2  3  1  0
  3  4  1  0
  2  5  1  0
  5  6  1  0
  6  7  1  0
  7  8  2  0
  8  9  1  0
  9 10  2  0
 10 11  1  0
 11 12  1  0
 12 13  1  0
 13 14  1  0
 14 15  1  0
 15 16  2  0
 15 17  1  0
 17 18  2  0
 18 19  1  0
 19 20  2  0
 20 21  1  0
 21 22  1  0
 17 23  1  0
 21 23  2  0
  7 24  1  0
 11 24  2  0
M  END
