NIM-UNI-310206f0-53-acrylamide
     RDKit          3D

 38 42  0  0  0  0  0  0  0  0999 V2000
    7.8380   -3.2430   19.5620 C   0  0  0  0  0  0  0  0  0  0  0  0
    6.6150   -2.3460   19.8600 C   0  0  0  0  0  0  0  0  0  0  0  0
    5.4110   -3.1360   20.2920 C   0  0  0  0  0  0  0  0  0  0  0  0
    4.8030   -3.7790   19.4390 O   0  0  0  0  0  0  0  0  0  0  0  0
    5.0500   -3.1310   21.6470 N   0  0  0  0  0  0  0  0  0  0  0  0
    5.0150   -4.3590   22.4890 C   0  0  0  0  0  0  0  0  0  0  0  0
    5.6440   -4.2350   23.9020 C   0  0  0  0  0  0  0  0  0  0  0  0
    5.4470   -2.9100   24.5040 N   0  0  0  0  0  0  0  0  0  0  0  0
    6.6070   -2.1660   24.6190 C   0  0  0  0  0  0  0  0  0  0  0  0
    7.9130   -1.9820   23.9350 C   0  0  0  0  0  0  0  0  0  0  0  0
    8.2910   -2.6600   22.8400 F   0  0  0  0  0  0  0  0  0  0  0  0
    8.8270   -0.9300   24.5760 C   0  0  0  0  0  0  0  0  0  0  0  0
    8.7740    0.0580   25.8140 C   0  0  0  0  0  0  0  0  0  0  0  0
   10.0600    0.2990   25.2020 N   0  0  0  0  0  0  0  0  0  0  0  0
   11.0220   -0.7990   25.0920 C   0  0  0  0  0  0  0  0  0  0  0  0
   10.8090   -1.9860   25.2010 O   0  0  0  0  0  0  0  0  0  0  0  0
   12.4020   -0.4950   24.7010 C   0  0  0  0  0  0  0  0  0  0  0  0
   12.4190   -1.2420   23.5820 C   0  0  0  0  0  0  0  0  0  0  0  0
   13.3610   -2.1920   23.2880 C   0  0  0  0  0  0  0  0  0  0  0  0
   13.1990   -2.9470   22.0050 C   0  0  0  0  0  0  0  0  0  0  0  0
   12.0440   -2.6440   21.1280 C   0  0  0  0  0  0  0  0  0  0  0  0
   11.1700   -1.6700   21.5550 C   0  0  0  0  0  0  0  0  0  0  0  0
   11.3550   -0.9970   22.7200 C   0  0  0  0  0  0  0  0  0  0  0  0
   10.4370   -0.0720   23.0030 F   0  0  0  0  0  0  0  0  0  0  0  0
   10.2020    1.4680   24.3790 C   0  0  0  0  0  0  0  0  0  0  0  0
   11.4360    1.7190   23.7910 C   0  0  0  0  0  0  0  0  0  0  0  0
   11.6220    2.8460   22.9960 C   0  0  0  0  0  0  0  0  0  0  0  0
   10.5160    3.8220   22.7420 C   0  0  0  0  0  0  0  0  0  0  0  0
    9.3200    3.5150   23.3450 C   0  0  0  0  0  0  0  0  0  0  0  0
    8.1100    4.2150   23.3000 N   0  0  0  0  0  0  0  0  0  0  0  0
    7.1660    3.5580   24.0440 C   0  0  0  0  0  0  0  0  0  0  0  0
    7.8020    2.4670   24.5370 C   0  0  0  0  0  0  0  0  0  0  0  0
    9.1310    2.3750   24.1490 C   0  0  0  0  0  0  0  0  0  0  0  0
    7.5060   -0.3800   26.1720 C   0  0  0  0  0  0  0  0  0  0  0  0
    7.2890   -1.3020   25.2010 C   0  0  0  0  0  0  0  0  0  0  0  0
    8.4180   -1.2400   24.4950 F   0  0  0  0  0  0  0  0  0  0  0  0
    4.3750   -2.1830   23.8470 C   0  0  0  0  0  0  0  0  0  0  0  0
    4.8930   -1.8990   22.4300 C   0  0  0  0  0  0  0  0  0  0  0  0
  1  2  1  0
  2  3  1  0
  3  4  2  0
  3  5  1  0
  5  6  1  0
  6  7  1  0
  7  8  1  0
  8  9  1  0
  9 10  2  0
 10 11  1  0
 10 12  1  0
 12 13  2  0
 13 14  1  0
 14 15  1  0
 15 16  2  0
 15 17  1  0
 17 18  1  0
 18 19  2  0
 19 20  1  0
 20 21  2  0
 21 22  1  0
 18 23  1  0
 22 23  2  0
 23 24  1  0
 14 25  1  0
 25 26  2  0
 26 27  1  0
 27 28  2  0
 28 29  1  0
 29 30  1  0
 30 31  1  0
 31 32  2  0
 25 33  1  0
 29 33  2  0
 32 33  1  0
 13 34  1  0
  9 35  1  0
 34 35  2  0
 35 36  1  0
  8 37  1  0
  5 38  1  0
 37 38  1  0
M  END
