NIM-UNI-05f93fcc-7-nitrile
     RDKit          3D

 24 26  0  0  0  0  0  0  0  0999 V2000
    6.4870   -4.4410   20.2950 C   0  0  0  0  0  0  0  0  0  0  0  0
    5.3490   -4.2050   19.8040 N   0  0  0  0  0  0  0  0  0  0  0  0
    6.6700   -4.9190   21.5870 N   0  0  0  0  0  0  0  0  0  0  0  0
    7.2310   -4.1570   22.5540 C   0  0  0  0  0  0  0  0  0  0  0  0
    6.5860   -4.1760   23.9440 C   0  0  0  0  0  0  0  0  0  0  0  0
    5.8430   -5.3010   24.2110 N   0  0  0  0  0  0  0  0  0  0  0  0
    5.0120   -5.3080   25.7120 S   0  0  0  0  0  0  0  0  0  0  0  0
    5.9880   -5.2760   26.7680 O   0  0  0  0  0  0  0  0  0  0  0  0
    3.9980   -6.3440   25.6810 O   0  0  0  0  0  0  0  0  0  0  0  0
    4.1870   -3.7520   25.8910 C   0  0  0  0  0  0  0  0  0  0  0  0
    4.5380   -2.3910   26.1280 C   0  0  0  0  0  0  0  0  0  0  0  0
    3.4730   -1.5540   26.1810 C   0  0  0  0  0  0  0  0  0  0  0  0
    2.1100   -1.9140   26.0260 C   0  0  0  0  0  0  0  0  0  0  0  0
    0.9710   -2.6650   25.8210 C   0  0  0  0  0  0  0  0  0  0  0  0
    1.0350   -3.7590   24.9830 C   0  0  0  0  0  0  0  0  0  0  0  0
   -0.0010   -4.6260   24.6500 C   0  0  0  0  0  0  0  0  0  0  0  0
    0.2460   -5.6820   23.7660 C   0  0  0  0  0  0  0  0  0  0  0  0
   -1.2610   -4.2450   25.3260 C   0  0  0  0  0  0  0  0  0  0  0  0
   -1.4750   -3.1670   26.2070 C   0  0  0  0  0  0  0  0  0  0  0  0
   -2.7460   -3.0030   26.7250 C   0  0  0  0  0  0  0  0  0  0  0  0
   -0.2480   -2.3800   26.4130 C   0  0  0  0  0  0  0  0  0  0  0  0
    2.5090   -3.6300   25.7890 S   0  0  0  0  0  0  0  0  0  0  0  0
    5.1100   -5.6480   23.1110 C   0  0  0  0  0  0  0  0  0  0  0  0
    5.9490   -6.0110   22.0300 C   0  0  0  0  0  0  0  0  0  0  0  0
  1  2  2  3
  1  3  1  0
  3  4  1  0
  4  5  1  0
  5  6  1  0
  6  7  1  0
  7  8  2  0
  7  9  2  0
  7 10  1  0
 10 11  2  0
 11 12  1  0
 12 13  2  0
 13 14  1  0
 14 15  2  0
 15 16  1  0
 16 17  1  0
 16 18  2  0
 18 19  1  0
 19 20  1  0
 14 21  1  0
 19 21  2  0
 10 22  1  0
 13 22  1  0
  6 23  1  0
  3 24  1  0
 23 24  1  0
M  END
