NIM-UNI-43fe0159-9-chloroacetamide
     RDKit          3D

 19 20  0  0  0  0  0  0  0  0999 V2000
    7.2480   -3.0740   19.0790 C   0  0  0  0  0  0  0  0  0  0  0  0
    6.3450   -3.5410   20.1830 C   0  0  0  0  0  0  0  0  0  0  0  0
    5.4770   -4.3850   19.9040 O   0  0  0  0  0  0  0  0  0  0  0  0
    6.5190   -2.9940   21.4810 N   0  0  0  0  0  0  0  0  0  0  0  0
    7.0220   -1.6700   21.7160 C   0  0  0  0  0  0  0  0  0  0  0  0
    8.4240   -1.7420   21.8620 C   0  0  0  0  0  0  0  0  0  0  0  0
    8.8040   -2.4270   22.9680 C   0  0  2  0  0  0  0  0  0  0  0  0
   10.1880   -2.2020   23.1260 C   0  0  0  0  0  0  0  0  0  0  0  0
    9.3930   -1.0540   23.3240 C   0  0  0  0  0  0  0  0  0  0  0  0
    9.6770    0.3880   23.6520 C   0  0  0  0  0  0  0  0  0  0  0  0
   10.9410    0.7680   23.8050 C   0  0  0  0  0  0  0  0  0  0  0  0
   11.2680    2.0640   24.0730 O   0  0  0  0  0  0  0  0  0  0  0  0
   10.2180    2.9970   24.1280 C   0  0  0  0  0  0  0  0  0  0  0  0
    9.0990    2.6670   24.8960 C   0  0  0  0  0  0  0  0  0  0  0  0
   10.2210    4.2590   23.4700 O   0  0  0  0  0  0  0  0  0  0  0  0
   11.8660   -0.2240   23.6630 C   0  0  0  0  0  0  0  0  0  0  0  0
   11.4910   -1.5670   23.3580 C   0  0  0  0  0  0  0  0  0  0  0  0
    8.3090   -3.7930   22.8080 O   0  0  0  0  0  0  0  0  0  0  0  0
    6.8780   -3.8290   22.6240 C   0  0  0  0  0  0  0  0  0  0  0  0
  1  2  1  0
  2  3  2  0
  2  4  1  0
  4  5  1  0
  5  6  1  0
  6  7  1  0
  7  8  1  6
  8  9  2  0
  9 10  1  0
 10 11  2  0
 11 12  1  0
 12 13  1  0
 13 14  1  0
 13 15  2  0
 11 16  1  0
  8 17  1  0
 16 17  2  0
  7 18  1  0
  4 19  1  0
 18 19  1  0
M  END
