NIM-UNI-310206f0-59-nitrile
     RDKit          3D

 36 40  0  0  0  0  0  0  0  0999 V2000
    6.3850   -3.7120   19.6100 C   0  0  0  0  0  0  0  0  0  0  0  0
    5.7110   -3.1690   18.6700 N   0  0  0  0  0  0  0  0  0  0  0  0
    5.9760   -3.5910   20.9130 N   0  0  0  0  0  0  0  0  0  0  0  0
    5.9490   -4.7510   21.8480 C   0  0  0  0  0  0  0  0  0  0  0  0
    6.2770   -4.3350   23.2960 C   0  0  0  0  0  0  0  0  0  0  0  0
    6.0660   -2.9000   23.5450 N   0  0  0  0  0  0  0  0  0  0  0  0
    7.2430   -2.1710   23.6160 C   0  0  0  0  0  0  0  0  0  0  0  0
    8.6820   -2.3840   23.7060 C   0  0  0  0  0  0  0  0  0  0  0  0
    9.2970   -3.5480   23.7480 F   0  0  0  0  0  0  0  0  0  0  0  0
    9.4680   -0.9270   23.7450 C   0  0  0  0  0  0  0  0  0  0  0  0
    8.8740    0.6730   23.7000 C   0  0  0  0  0  0  0  0  0  0  0  0
   10.2940    0.7800   23.7960 N   0  0  0  0  0  0  0  0  0  0  0  0
   10.9600    0.0080   24.7600 C   0  0  0  0  0  0  0  0  0  0  0  0
   10.4330   -0.4590   25.7570 O   0  0  0  0  0  0  0  0  0  0  0  0
   12.2880   -0.1580   24.5020 N   0  0  0  0  0  0  0  0  0  0  0  0
   12.8520   -1.4330   24.1720 C   0  0  0  0  0  0  0  0  0  0  0  0
   12.5660   -1.9190   22.9430 C   0  0  0  0  0  0  0  0  0  0  0  0
   11.7120   -1.3130   21.9460 C   0  0  0  0  0  0  0  0  0  0  0  0
   13.1630   -3.0520   22.7280 N   0  0  0  0  0  0  0  0  0  0  0  0
   13.8380   -3.3250   23.8920 O   0  0  0  0  0  0  0  0  0  0  0  0
   13.6400   -2.3510   24.7790 C   0  0  0  0  0  0  0  0  0  0  0  0
   14.2620   -2.5570   25.9700 C   0  0  0  0  0  0  0  0  0  0  0  0
   10.9010    2.0310   23.4060 C   0  0  0  0  0  0  0  0  0  0  0  0
   12.3330    2.1140   22.8920 C   0  0  0  0  0  0  0  0  0  0  0  0
   12.8660    3.3560   22.5270 C   0  0  0  0  0  0  0  0  0  0  0  0
   12.1150    4.5250   22.6240 C   0  0  0  0  0  0  0  0  0  0  0  0
   10.8090    4.4740   23.0930 C   0  0  0  0  0  0  0  0  0  0  0  0
    9.8920    5.5320   23.2670 N   0  0  0  0  0  0  0  0  0  0  0  0
    8.6920    5.0730   23.7550 C   0  0  0  0  0  0  0  0  0  0  0  0
    8.8530    3.7170   23.8930 C   0  0  0  0  0  0  0  0  0  0  0  0
   10.1950    3.2590   23.4820 C   0  0  0  0  0  0  0  0  0  0  0  0
    7.5700    0.2320   23.6160 C   0  0  0  0  0  0  0  0  0  0  0  0
    7.7540   -1.0150   23.6390 C   0  0  0  0  0  0  0  0  0  0  0  0
    9.0730   -1.1800   23.7250 F   0  0  0  0  0  0  0  0  0  0  0  0
    5.0140   -2.3580   22.6950 C   0  0  0  0  0  0  0  0  0  0  0  0
    5.5960   -2.2670   21.4360 C   0  0  0  0  0  0  0  0  0  0  0  0
  1  2  2  3
  1  3  1  0
  3  4  1  0
  4  5  1  0
  5  6  1  0
  6  7  1  0
  7  8  2  0
  8  9  1  0
  8 10  1  0
 10 11  2  0
 11 12  1  0
 12 13  1  0
 13 14  2  0
 13 15  1  0
 15 16  1  0
 16 17  1  0
 17 18  1  0
 17 19  2  0
 19 20  1  0
 16 21  2  0
 20 21  1  0
 21 22  1  0
 12 23  1  0
 23 24  2  0
 24 25  1  0
 25 26  2  0
 26 27  1  0
 27 28  1  0
 28 29  1  0
 29 30  2  0
 23 31  1  0
 27 31  2  0
 30 31  1  0
 11 32  1  0
  7 33  1  0
 32 33  2  0
 33 34  1  0
  6 35  1  0
  3 36  1  0
 35 36  1  0
M  END
