NIM-UNI-363644a0-2-acrylamide
     RDKit          3D

 43 47  0  0  0  0  0  0  0  0999 V2000
    7.7000   -2.9030   18.8130 C   0  0  0  0  0  0  0  0  0  0  0  0
    6.2120   -2.6230   18.8850 C   0  0  0  0  0  0  0  0  0  0  0  0
    5.6220   -3.2420   20.1010 C   0  0  0  0  0  0  0  0  0  0  0  0
    5.2110   -4.3960   20.0020 O   0  0  0  0  0  0  0  0  0  0  0  0
    5.6060   -2.4660   21.2460 N   0  0  0  0  0  0  0  0  0  0  0  0
    5.6500   -3.1140   22.5240 C   0  0  0  0  0  0  0  0  0  0  0  0
    6.9860   -3.3150   22.8670 C   0  0  0  0  0  0  0  0  0  0  0  0
    7.9790   -2.4080   22.6240 N   0  0  0  0  0  0  0  0  0  0  0  0
    8.7460   -2.0680   23.8520 C   0  0  0  0  0  0  0  0  0  0  0  0
    9.9190   -1.1080   23.6290 C   0  0  0  0  0  0  0  0  0  0  0  0
    9.8070    0.1950   24.3660 C   0  0  0  0  0  0  0  0  0  0  0  0
   10.8480    1.2700   24.3030 C   0  0  0  0  0  0  0  0  0  0  0  0
   12.0630    0.9850   23.4760 C   0  0  0  0  0  0  0  0  0  0  0  0
   12.0860   -0.3370   22.7720 C   0  0  0  0  0  0  0  0  0  0  0  0
   13.2600   -0.4620   22.0290 C   0  0  0  0  0  0  0  0  0  0  0  0
   13.4520   -1.7080   21.2120 C   0  0  0  0  0  0  0  0  0  0  0  0
   12.5870   -2.7530   21.1540 C   0  0  0  0  0  0  0  0  0  0  0  0
   12.9600   -4.1280   20.1610 S   0  0  0  0  0  0  0  0  0  0  0  0
   13.5380   -5.5540   20.6320 N   0  0  0  0  0  0  0  0  0  0  0  0
   11.8560   -4.5390   19.3560 O   0  0  0  0  0  0  0  0  0  0  0  0
   14.2790   -3.7600   19.7740 O   0  0  0  0  0  0  0  0  0  0  0  0
   11.3620   -2.5310   21.9790 C   0  0  0  0  0  0  0  0  0  0  0  0
   11.0900   -1.3240   22.8150 C   0  0  0  0  0  0  0  0  0  0  0  0
    7.6700   -1.2260   21.7270 C   0  0  0  0  0  0  0  0  0  0  0  0
    6.1740   -1.1220   21.3930 C   0  0  1  0  0  0  0  0  0  0  0  0
    5.8130   -0.2370   20.3410 C   0  0  0  0  0  0  0  0  0  0  0  0
    6.6960   -0.2580   19.0920 C   0  0  0  0  0  0  0  0  0  0  0  0
    6.5350    0.4750   17.9650 N   0  0  0  0  0  0  0  0  0  0  0  0
    5.5020    1.3280   17.9160 C   0  0  0  0  0  0  0  0  0  0  0  0
    4.5060    1.5190   19.0470 C   0  0  0  0  0  0  0  0  0  0  0  0
    4.7170    0.6650   20.3100 C   0  0  0  0  0  0  0  0  0  0  0  0
    3.7140    0.8660   21.4270 C   0  0  0  0  0  0  0  0  0  0  0  0
    4.1700    1.9270   22.4420 C   0  0  0  0  0  0  0  0  0  0  0  0
    3.0920    2.4870   23.2460 N   0  0  0  0  0  0  0  0  0  0  0  0
    2.2250    1.6620   23.9230 C   0  0  0  0  0  0  0  0  0  0  0  0
    2.2700    0.4400   23.8700 O   0  0  0  0  0  0  0  0  0  0  0  0
    1.2980    2.3730   24.6650 N   0  0  0  0  0  0  0  0  0  0  0  0
    1.6080    3.6430   25.3160 C   0  0  0  0  0  0  0  0  0  0  0  0
    0.7130    3.8540   26.5320 C   0  0  0  0  0  0  0  0  0  0  0  0
   -0.7570    3.9930   26.1440 C   0  0  0  0  0  0  0  0  0  0  0  0
   -0.9710    4.0370   24.6310 C   0  0  0  0  0  0  0  0  0  0  0  0
   -0.0260    5.0370   23.9580 C   0  0  0  0  0  0  0  0  0  0  0  0
    1.4390    4.8230   24.3590 C   0  0  0  0  0  0  0  0  0  0  0  0
  1  2  1  0
  2  3  1  0
  3  4  2  0
  3  5  1  0
  5  6  1  0
  6  7  1  0
  7  8  1  0
  8  9  1  0
  9 10  1  0
 10 11  2  0
 11 12  1  0
 12 13  2  0
 13 14  1  0
 14 15  1  0
 15 16  2  0
 16 17  1  0
 17 18  1  0
 18 19  1  0
 18 20  2  0
 18 21  2  0
 17 22  2  0
 10 23  1  0
 14 23  2  0
 22 23  1  0
  8 24  1  0
  5 25  1  0
 24 25  1  0
 25 26  1  6
 26 27  2  0
 27 28  1  0
 28 29  2  0
 29 30  1  0
 26 31  1  0
 30 31  2  0
 31 32  1  0
 32 33  1  0
 33 34  1  0
 34 35  1  0
 35 36  2  0
 35 37  1  0
 37 38  1  0
 38 39  1  0
 39 40  1  0
 40 41  1  0
 41 42  1  0
 38 43  1  0
 42 43  1  0
M  END
