NIM-UNI-310206f0-58-chloroacetamide
     RDKit          3D

 34 37  0  0  0  0  0  0  0  0999 V2000
    6.6700   -3.5490   19.7540 C   0  0  0  0  0  0  0  0  0  0  0  0
    5.8980   -4.5840   20.6010 C   0  0  0  0  0  0  0  0  0  0  0  0
    5.3830   -5.5180   20.0150 O   0  0  0  0  0  0  0  0  0  0  0  0
    5.7660   -4.4550   21.9990 N   0  0  0  0  0  0  0  0  0  0  0  0
    5.8200   -5.6900   22.8030 C   0  0  0  0  0  0  0  0  0  0  0  0
    5.9930   -5.4310   24.3060 C   0  0  0  0  0  0  0  0  0  0  0  0
    5.6340   -4.0570   24.6560 N   0  0  0  0  0  0  0  0  0  0  0  0
    6.6400   -3.1340   24.4370 C   0  0  0  0  0  0  0  0  0  0  0  0
    7.6740   -2.8290   23.4290 C   0  0  0  0  0  0  0  0  0  0  0  0
    7.8680   -3.5350   22.3170 F   0  0  0  0  0  0  0  0  0  0  0  0
    8.5890   -1.4670   23.8400 C   0  0  0  0  0  0  0  0  0  0  0  0
    8.6050   -0.4450   25.0390 C   0  0  0  0  0  0  0  0  0  0  0  0
    9.6410   -0.1350   24.0340 N   0  0  0  0  0  0  0  0  0  0  0  0
   10.9270   -0.8800   23.9920 C   0  0  0  0  0  0  0  0  0  0  0  0
   11.6610   -0.8510   25.1420 C   0  0  0  0  0  0  0  0  0  0  0  0
   12.9760   -1.5580   25.2470 C   0  0  0  0  0  0  0  0  0  0  0  0
   13.4480   -2.2490   24.1710 C   0  0  0  0  0  0  0  0  0  0  0  0
   12.7030   -2.2640   23.0320 C   0  0  0  0  0  0  0  0  0  0  0  0
   13.0580   -2.9090   21.8890 N   0  0  0  0  0  0  0  0  0  0  0  0
   12.0470   -2.6980   20.9670 C   0  0  0  0  0  0  0  0  0  0  0  0
   11.0160   -1.8570   21.6280 C   0  0  0  0  0  0  0  0  0  0  0  0
   11.4380   -1.5960   22.9000 C   0  0  0  0  0  0  0  0  0  0  0  0
    9.0220    0.9090   22.8120 S   0  0  0  0  0  0  0  0  0  0  0  0
    7.6780    1.2960   23.1700 O   0  0  0  0  0  0  0  0  0  0  0  0
    9.3110    0.2750   21.5520 O   0  0  0  0  0  0  0  0  0  0  0  0
    9.9870    2.3670   22.9050 C   0  0  0  0  0  0  0  0  0  0  0  0
   11.2890    2.1640   23.2930 C   0  0  0  0  0  0  0  0  0  0  0  0
   11.9420    3.4260   23.2310 O   0  0  0  0  0  0  0  0  0  0  0  0
   13.1520    3.3270   22.4910 C   0  0  0  0  0  0  0  0  0  0  0  0
    7.5560   -1.0390   25.7220 C   0  0  0  0  0  0  0  0  0  0  0  0
    7.3410   -2.0080   24.8540 C   0  0  0  0  0  0  0  0  0  0  0  0
    8.2490   -1.8020   23.9020 F   0  0  0  0  0  0  0  0  0  0  0  0
    4.4820   -3.5820   23.8820 C   0  0  0  0  0  0  0  0  0  0  0  0
    4.9370   -3.3610   22.5480 C   0  0  0  0  0  0  0  0  0  0  0  0
  1  2  1  0
  2  3  2  0
  2  4  1  0
  4  5  1  0
  5  6  1  0
  6  7  1  0
  7  8  1  0
  8  9  2  0
  9 10  1  0
  9 11  1  0
 11 12  2  0
 12 13  1  0
 13 14  1  0
 14 15  2  0
 15 16  1  0
 16 17  2  0
 17 18  1  0
 18 19  1  0
 19 20  1  0
 20 21  2  0
 14 22  1  0
 18 22  2  0
 21 22  1  0
 23 13  1  0
 23 24  2  0
 23 25  2  0
 23 26  1  0
 26 27  1  0
 27 28  1  0
 28 29  1  0
 12 30  1  0
  8 31  1  0
 30 31  2  0
 31 32  1  0
  7 33  1  0
  4 34  1  0
 33 34  1  0
M  END
