NIM-UNI-ed9fc491-2-acrylamide
     RDKit          3D

 28 29  0  0  0  0  0  0  0  0999 V2000
    7.6410   -3.2460   19.4270 C   0  0  0  0  0  0  0  0  0  0  0  0
    6.1800   -3.2470   19.8090 C   0  0  0  0  0  0  0  0  0  0  0  0
    6.0240   -3.2090   21.3030 C   0  0  0  0  0  0  0  0  0  0  0  0
    4.9300   -3.6510   21.7710 O   0  0  0  0  0  0  0  0  0  0  0  0
    7.1440   -2.6740   22.0360 N   0  0  0  0  0  0  0  0  0  0  0  0
    7.2830   -2.6620   23.5050 C   0  0  0  0  0  0  0  0  0  0  0  0
    8.4070   -1.8960   23.9270 C   0  0  0  0  0  0  0  0  0  0  0  0
    9.7310   -2.1440   23.2720 N   0  0  0  0  0  0  0  0  0  0  0  0
   10.8180   -1.2540   23.6590 C   0  0  0  0  0  0  0  0  0  0  0  0
   10.7000   -0.0840   22.9300 C   0  0  0  0  0  0  0  0  0  0  0  0
    9.5830    0.0910   22.1090 N   0  0  0  0  0  0  0  0  0  0  0  0
    8.8790    1.3650   22.0550 C   0  0  0  0  0  0  0  0  0  0  0  0
    9.1320    2.2890   21.3030 O   0  0  0  0  0  0  0  0  0  0  0  0
    7.7460    1.4840   22.9920 C   0  0  2  0  0  0  0  0  0  0  0  0
    6.5070    1.3180   22.2290 C   0  0  0  0  0  0  0  0  0  0  0  0
    5.8150    1.4690   21.2650 C   0  0  0  0  0  0  0  0  0  0  0  0
    4.8410    1.8500   20.3300 C   0  0  0  0  0  0  0  0  0  0  0  0
    4.8440    1.3420   19.0440 C   0  0  0  0  0  0  0  0  0  0  0  0
    5.7260    0.4200   18.4470 C   0  0  0  0  0  0  0  0  0  0  0  0
    5.4980    0.1410   17.2910 O   0  0  0  0  0  0  0  0  0  0  0  0
    6.8470   -0.2290   19.0230 C   0  0  0  0  0  0  0  0  0  0  0  0
    6.5670    0.5070   20.3190 C   0  0  0  0  0  0  0  0  0  0  0  0
    7.8580    2.8290   23.5590 N   0  0  0  0  0  0  0  0  0  0  0  0
    6.9830    3.8150   23.1330 C   0  0  0  0  0  0  0  0  0  0  0  0
    7.5060    4.5900   22.0910 C   0  0  0  0  0  0  0  0  0  0  0  0
    5.6840    4.0280   23.6990 O   0  0  0  0  0  0  0  0  0  0  0  0
    9.6140   -2.1850   21.8340 C   0  0  0  0  0  0  0  0  0  0  0  0
    8.1890   -1.8070   21.3960 C   0  0  0  0  0  0  0  0  0  0  0  0
  1  2  1  0
  2  3  1  0
  3  4  2  0
  3  5  1  0
  5  6  1  0
  6  7  1  0
  7  8  1  0
  8  9  1  0
  9 10  1  0
 10 11  1  0
 11 12  1  0
 12 13  2  0
 12 14  1  0
 14 15  1  6
 15 16  1  0
 16 17  2  0
 17 18  1  0
 18 19  2  0
 19 20  1  0
 19 21  1  0
 16 22  1  0
 21 22  2  0
 14 23  1  0
 23 24  1  0
 24 25  1  0
 24 26  2  0
  8 27  1  0
  5 28  1  0
 27 28  1  0
M  END
