NIM-UNI-43fe0159-9-vinylsulfonamide
     RDKit          3D

 21 22  0  0  0  0  0  0  0  0999 V2000
    6.1260   -4.6690   20.0460 C   0  0  0  0  0  0  0  0  0  0  0  0
    6.6770   -3.2820   20.0120 C   0  0  0  0  0  0  0  0  0  0  0  0
    6.0080   -2.6030   21.4740 S   0  0  0  0  0  0  0  0  0  0  0  0
    4.6440   -2.9470   21.4270 O   0  0  0  0  0  0  0  0  0  0  0  0
    6.4540   -1.2360   21.6570 O   0  0  0  0  0  0  0  0  0  0  0  0
    6.4160   -3.5560   22.7960 N   0  0  0  0  0  0  0  0  0  0  0  0
    7.6440   -4.2880   22.7160 C   0  0  0  0  0  0  0  0  0  0  0  0
    8.5170   -3.5820   23.5290 C   0  0  0  0  0  0  0  0  0  0  0  0
    8.3390   -2.2860   23.2470 C   0  0  2  0  0  0  0  0  0  0  0  0
    9.3970   -1.4750   23.4240 C   0  0  0  0  0  0  0  0  0  0  0  0
   10.5480   -1.6300   22.6640 C   0  0  0  0  0  0  0  0  0  0  0  0
   11.6720   -0.6620   22.9480 C   0  0  0  0  0  0  0  0  0  0  0  0
   11.4790    0.2970   23.9260 C   0  0  0  0  0  0  0  0  0  0  0  0
   12.4330    1.1590   24.1790 O   0  0  0  0  0  0  0  0  0  0  0  0
   13.0220    1.4970   23.0230 C   0  0  0  0  0  0  0  0  0  0  0  0
   12.7450    2.8480   22.7490 C   0  0  0  0  0  0  0  0  0  0  0  0
   13.6640    0.6990   22.3740 O   0  0  0  0  0  0  0  0  0  0  0  0
   10.3030    0.3820   24.6390 C   0  0  0  0  0  0  0  0  0  0  0  0
    9.2820   -0.4890   24.3930 C   0  0  0  0  0  0  0  0  0  0  0  0
    7.2430   -1.8410   24.0480 O   0  0  0  0  0  0  0  0  0  0  0  0
    6.2420   -2.8430   24.0450 C   0  0  0  0  0  0  0  0  0  0  0  0
  1  2  1  0
  3  2  1  0
  3  4  2  0
  3  5  2  0
  3  6  1  0
  6  7  1  0
  7  8  1  0
  8  9  1  0
  9 10  1  1
 10 11  2  0
 11 12  1  0
 12 13  2  0
 13 14  1  0
 14 15  1  0
 15 16  1  0
 15 17  2  0
 13 18  1  0
 10 19  1  0
 18 19  2  0
  9 20  1  0
  6 21  1  0
 20 21  1  0
M  END
