NIM-UNI-310206f0-69-nitrile
     RDKit          3D

 22 24  0  0  0  0  0  0  0  0999 V2000
    6.4140   -4.0570   20.0690 C   0  0  0  0  0  0  0  0  0  0  0  0
    5.7410   -5.1330   20.0190 N   0  0  0  0  0  0  0  0  0  0  0  0
    6.2980   -3.3520   21.2380 N   0  0  0  0  0  0  0  0  0  0  0  0
    6.5800   -1.8990   21.3900 C   0  0  0  0  0  0  0  0  0  0  0  0
    7.1820   -1.5890   22.7810 C   0  0  0  0  0  0  0  0  0  0  0  0
    6.7720   -2.5100   23.8820 N   0  0  0  0  0  0  0  0  0  0  0  0
    7.4840   -2.1730   25.3900 S   0  0  0  0  0  0  0  0  0  0  0  0
    6.7890   -1.0560   26.0010 O   0  0  0  0  0  0  0  0  0  0  0  0
    7.7470   -3.4130   26.0830 O   0  0  0  0  0  0  0  0  0  0  0  0
    8.9680   -1.5480   24.7670 C   0  0  0  0  0  0  0  0  0  0  0  0
    9.3590   -0.1320   25.3250 C   0  0  0  0  0  0  0  0  0  0  0  0
   10.5510   -0.1590   24.4270 C   0  0  0  0  0  0  0  0  0  0  0  0
   10.8560   -1.2690   23.5270 C   0  0  0  0  0  0  0  0  0  0  0  0
   11.8200   -1.2410   22.7550 C   0  0  0  0  0  0  0  0  0  0  0  0
   12.6370   -0.2060   22.8900 C   0  0  0  0  0  0  0  0  0  0  0  0
   13.6130   -0.1940   22.0400 C   0  0  0  0  0  0  0  0  0  0  0  0
   13.7970   -1.1520   21.0890 N   0  0  0  0  0  0  0  0  0  0  0  0
   12.9500   -2.1690   21.0270 C   0  0  0  0  0  0  0  0  0  0  0  0
   11.9260   -2.2340   21.8620 C   0  0  0  0  0  0  0  0  0  0  0  0
    9.7310   -2.5560   23.6420 S   0  0  0  0  0  0  0  0  0  0  0  0
    6.6470   -3.9180   23.5210 C   0  0  0  0  0  0  0  0  0  0  0  0
    5.6950   -3.9920   22.3650 C   0  0  0  0  0  0  0  0  0  0  0  0
  1  2  2  3
  1  3  1  0
  3  4  1  0
  4  5  1  0
  5  6  1  0
  6  7  1  0
  7  8  2  0
  7  9  2  0
  7 10  1  0
 10 11  2  0
 11 12  1  0
 12 13  2  0
 13 14  1  0
 14 15  2  0
 15 16  1  0
 16 17  2  0
 17 18  1  0
 14 19  1  0
 18 19  2  0
 10 20  1  0
 13 20  1  0
  6 21  1  0
  3 22  1  0
 21 22  1  0
M  END
