NIM-UNI-310206f0-50-nitrile
     RDKit          3D

 35 39  0  0  0  0  0  0  0  0999 V2000
    6.4750   -3.9580   19.8360 C   0  0  0  0  0  0  0  0  0  0  0  0
    5.7070   -3.3360   19.0220 N   0  0  0  0  0  0  0  0  0  0  0  0
    6.1310   -4.1840   21.1530 N   0  0  0  0  0  0  0  0  0  0  0  0
    5.3790   -3.1300   21.8330 C   0  0  0  0  0  0  0  0  0  0  0  0
    4.8130   -3.7090   23.1200 C   0  0  0  0  0  0  0  0  0  0  0  0
    5.9650   -4.1890   23.8450 N   0  0  0  0  0  0  0  0  0  0  0  0
    6.8260   -3.1100   24.0080 C   0  0  0  0  0  0  0  0  0  0  0  0
    8.2480   -2.7330   24.0020 C   0  0  0  0  0  0  0  0  0  0  0  0
    9.3000   -3.5340   23.7970 F   0  0  0  0  0  0  0  0  0  0  0  0
    8.3740   -1.0920   24.2900 C   0  0  0  0  0  0  0  0  0  0  0  0
    7.1810    0.1070   24.5670 C   0  0  0  0  0  0  0  0  0  0  0  0
    8.4170    0.8560   24.6210 N   0  0  0  0  0  0  0  0  0  0  0  0
    9.6200    0.3680   25.1540 C   0  0  0  0  0  0  0  0  0  0  0  0
    9.7280   -0.2550   26.1980 O   0  0  0  0  0  0  0  0  0  0  0  0
   10.7200    0.6690   24.3830 N   0  0  0  0  0  0  0  0  0  0  0  0
   11.2710   -0.2650   23.4410 C   0  0  0  0  0  0  0  0  0  0  0  0
   12.6180   -0.3560   23.1930 C   0  0  0  0  0  0  0  0  0  0  0  0
   13.0930   -1.3450   22.2110 C   0  0  0  0  0  0  0  0  0  0  0  0
   12.3110   -2.1800   21.5250 N   0  0  0  0  0  0  0  0  0  0  0  0
   10.9870   -2.0970   21.7610 C   0  0  0  0  0  0  0  0  0  0  0  0
   10.3710   -1.2230   22.6490 C   0  0  0  0  0  0  0  0  0  0  0  0
    8.3450    2.2620   24.2940 C   0  0  0  0  0  0  0  0  0  0  0  0
    7.0540    3.0350   24.5520 C   0  0  0  0  0  0  0  0  0  0  0  0
    6.9770    4.3930   24.2430 C   0  0  0  0  0  0  0  0  0  0  0  0
    8.0820    5.0480   23.6960 C   0  0  0  0  0  0  0  0  0  0  0  0
    9.2690    4.3860   23.4470 C   0  0  0  0  0  0  0  0  0  0  0  0
   10.4620    4.9070   22.9050 N   0  0  0  0  0  0  0  0  0  0  0  0
   11.4280    3.9380   22.8040 C   0  0  0  0  0  0  0  0  0  0  0  0
   10.8410    2.7970   23.2870 C   0  0  0  0  0  0  0  0  0  0  0  0
    9.4350    3.0090   23.7280 C   0  0  0  0  0  0  0  0  0  0  0  0
    6.1720   -0.8310   24.4650 C   0  0  0  0  0  0  0  0  0  0  0  0
    6.8480   -1.8680   24.2370 C   0  0  0  0  0  0  0  0  0  0  0  0
    8.1210   -1.4840   24.2410 F   0  0  0  0  0  0  0  0  0  0  0  0
    6.5000   -5.4200   23.2130 C   0  0  0  0  0  0  0  0  0  0  0  0
    6.1300   -5.5020   21.8450 C   0  0  0  0  0  0  0  0  0  0  0  0
  1  2  2  3
  1  3  1  0
  3  4  1  0
  4  5  1  0
  5  6  1  0
  6  7  1  0
  7  8  2  0
  8  9  1  0
  8 10  1  0
 10 11  2  0
 11 12  1  0
 12 13  1  0
 13 14  2  0
 13 15  1  0
 15 16  1  0
 16 17  2  0
 17 18  1  0
 18 19  2  0
 19 20  1  0
 16 21  1  0
 20 21  2  0
 12 22  1  0
 22 23  2  0
 23 24  1  0
 24 25  2  0
 25 26  1  0
 26 27  1  0
 27 28  1  0
 28 29  2  0
 22 30  1  0
 26 30  2  0
 29 30  1  0
 11 31  1  0
  7 32  1  0
 31 32  2  0
 32 33  1  0
  6 34  1  0
  3 35  1  0
 34 35  1  0
M  END
