NIM-UNI-310206f0-62-chloroacetamide
     RDKit          3D

 36 40  0  0  0  0  0  0  0  0999 V2000
    7.0170   -3.0890   19.1140 C   0  0  0  0  0  0  0  0  0  0  0  0
    5.9890   -3.5840   20.1290 C   0  0  0  0  0  0  0  0  0  0  0  0
    5.1120   -4.3570   19.7790 O   0  0  0  0  0  0  0  0  0  0  0  0
    6.0660   -3.1730   21.4520 N   0  0  0  0  0  0  0  0  0  0  0  0
    6.0440   -4.2090   22.4840 C   0  0  0  0  0  0  0  0  0  0  0  0
    6.9290   -3.8650   23.6760 C   0  0  0  0  0  0  0  0  0  0  0  0
    6.9470   -2.4220   23.9100 N   0  0  0  0  0  0  0  0  0  0  0  0
    8.1720   -1.8070   23.8200 C   0  0  0  0  0  0  0  0  0  0  0  0
    8.9220   -0.7830   24.2990 C   0  0  0  0  0  0  0  0  0  0  0  0
   10.1120   -0.7850   23.7070 F   0  0  0  0  0  0  0  0  0  0  0  0
    8.8230    0.2200   25.1780 C   0  0  0  0  0  0  0  0  0  0  0  0
   10.0870    0.6610   24.9100 C   0  0  0  0  0  0  0  0  0  0  0  0
   11.4310    0.7610   24.3250 N   0  0  0  0  0  0  0  0  0  0  0  0
   12.1860   -0.4950   24.2560 C   0  0  0  0  0  0  0  0  0  0  0  0
   12.8660   -0.8730   25.3690 C   0  0  0  0  0  0  0  0  0  0  0  0
   13.6510   -2.1240   25.4070 C   0  0  0  0  0  0  0  0  0  0  0  0
   13.6850   -2.8690   24.2790 C   0  0  0  0  0  0  0  0  0  0  0  0
   13.0170   -2.4800   23.1740 C   0  0  0  0  0  0  0  0  0  0  0  0
   12.9970   -3.1440   21.9880 N   0  0  0  0  0  0  0  0  0  0  0  0
   12.1790   -2.4500   21.1300 C   0  0  0  0  0  0  0  0  0  0  0  0
   11.6890   -1.2830   21.8790 C   0  0  0  0  0  0  0  0  0  0  0  0
   12.2380   -1.3080   23.1270 C   0  0  0  0  0  0  0  0  0  0  0  0
   11.4130    1.6690   22.8980 S   0  0  0  0  0  0  0  0  0  0  0  0
   12.6160    1.2270   22.2630 O   0  0  0  0  0  0  0  0  0  0  0  0
   10.0980    1.4470   22.3370 O   0  0  0  0  0  0  0  0  0  0  0  0
   11.6200    3.4170   23.0330 C   0  0  0  0  0  0  0  0  0  0  0  0
   10.6240    4.2400   23.5160 C   0  0  0  0  0  0  0  0  0  0  0  0
   10.8440    5.6090   23.5870 C   0  0  0  0  0  0  0  0  0  0  0  0
   12.0960    6.0710   23.1470 C   0  0  0  0  0  0  0  0  0  0  0  0
   13.1190    5.2940   22.6540 N   0  0  0  0  0  0  0  0  0  0  0  0
   12.8220    3.9610   22.6210 C   0  0  0  0  0  0  0  0  0  0  0  0
   10.2390   -0.5250   23.8530 C   0  0  0  0  0  0  0  0  0  0  0  0
    9.3890   -1.7380   23.2710 C   0  0  0  0  0  0  0  0  0  0  0  0
    9.8650   -2.5640   22.3380 F   0  0  0  0  0  0  0  0  0  0  0  0
    5.8200   -1.7060   23.2950 C   0  0  0  0  0  0  0  0  0  0  0  0
    5.9410   -1.7820   21.9050 C   0  0  0  0  0  0  0  0  0  0  0  0
  1  2  1  0
  2  3  2  0
  2  4  1  0
  4  5  1  0
  5  6  1  0
  6  7  1  0
  7  8  1  0
  8  9  2  0
  9 10  1  0
  9 11  1  0
 11 12  2  0
 12 13  1  0
 13 14  1  0
 14 15  2  0
 15 16  1  0
 16 17  2  0
 17 18  1  0
 18 19  1  0
 19 20  1  0
 20 21  2  0
 14 22  1  0
 18 22  2  0
 21 22  1  0
 23 13  1  0
 23 24  2  0
 23 25  2  0
 23 26  1  0
 26 27  2  0
 27 28  1  0
 28 29  2  0
 29 30  1  0
 26 31  1  0
 30 31  2  0
 12 32  1  0
  8 33  1  0
 32 33  2  0
 33 34  1  0
  7 35  1  0
  4 36  1  0
 35 36  1  0
M  END
