NIM-UNI-310206f0-64-vinylsulfonamide
     RDKit          3D

 37 41  0  0  0  0  0  0  0  0999 V2000
    7.2360   -2.9470   18.7320 C   0  0  0  0  0  0  0  0  0  0  0  0
    6.6590   -2.4480   20.0590 C   0  0  0  0  0  0  0  0  0  0  0  0
    5.7120   -3.7410   20.8380 S   0  0  0  0  0  0  0  0  0  0  0  0
    4.6760   -3.1010   21.5820 O   0  0  0  0  0  0  0  0  0  0  0  0
    5.3890   -4.7880   19.8900 O   0  0  0  0  0  0  0  0  0  0  0  0
    6.7550   -4.3190   22.0440 N   0  0  0  0  0  0  0  0  0  0  0  0
    7.5170   -3.1630   22.3970 C   0  0  0  0  0  0  0  0  0  0  0  0
    6.4910   -2.2480   23.0360 C   0  0  0  0  0  0  0  0  0  0  0  0
    6.2970   -2.7440   24.3830 N   0  0  0  0  0  0  0  0  0  0  0  0
    6.9570   -1.8900   25.2430 C   0  0  0  0  0  0  0  0  0  0  0  0
    7.9790   -1.5540   24.1430 C   0  0  0  0  0  0  0  0  0  0  0  0
    7.9550   -2.0780   22.9100 F   0  0  0  0  0  0  0  0  0  0  0  0
    9.1520   -0.5050   24.5050 C   0  0  0  0  0  0  0  0  0  0  0  0
    9.5550    0.2810   25.6700 C   0  0  0  0  0  0  0  0  0  0  0  0
   10.4960    0.5540   24.5690 N   0  0  0  0  0  0  0  0  0  0  0  0
   11.7920   -0.1550   24.6050 C   0  0  0  0  0  0  0  0  0  0  0  0
   12.4330   -0.4310   25.6020 O   0  0  0  0  0  0  0  0  0  0  0  0
   12.3660   -0.5940   23.4510 C   0  0  0  0  0  0  0  0  0  0  0  0
   12.2000   -1.9300   22.8870 C   0  0  0  0  0  0  0  0  0  0  0  0
   12.9370   -2.0020   21.7670 C   0  0  0  0  0  0  0  0  0  0  0  0
   13.1090   -3.0550   20.9090 C   0  0  0  0  0  0  0  0  0  0  0  0
   13.5740   -0.7490   21.5800 O   0  0  0  0  0  0  0  0  0  0  0  0
   13.1940    0.0960   22.6410 N   0  0  0  0  0  0  0  0  0  0  0  0
   10.2610    1.9320   24.0010 C   0  0  0  0  0  0  0  0  0  0  0  0
    8.8350    2.4030   24.2310 C   0  0  0  0  0  0  0  0  0  0  0  0
    8.4460    3.6580   23.7750 C   0  0  0  0  0  0  0  0  0  0  0  0
    9.3500    4.4900   23.1130 C   0  0  0  0  0  0  0  0  0  0  0  0
   10.6570    4.0780   22.8930 C   0  0  0  0  0  0  0  0  0  0  0  0
   11.6890    4.7850   22.2520 N   0  0  0  0  0  0  0  0  0  0  0  0
   12.8450    4.0550   22.2240 C   0  0  0  0  0  0  0  0  0  0  0  0
   12.5380    2.8700   22.8550 C   0  0  0  0  0  0  0  0  0  0  0  0
   11.1430    2.8140   23.3180 C   0  0  0  0  0  0  0  0  0  0  0  0
    8.4860   -0.2830   26.2910 C   0  0  0  0  0  0  0  0  0  0  0  0
    7.9640   -1.0630   25.3650 C   0  0  0  0  0  0  0  0  0  0  0  0
    8.6800   -0.9680   24.2410 F   0  0  0  0  0  0  0  0  0  0  0  0
    6.5050   -4.2250   24.4630 C   0  0  0  0  0  0  0  0  0  0  0  0
    6.0970   -4.8620   23.2580 C   0  0  0  0  0  0  0  0  0  0  0  0
  1  2  1  0
  3  2  1  0
  3  4  2  0
  3  5  2  0
  3  6  1  0
  6  7  1  0
  7  8  1  0
  8  9  1  0
  9 10  1  0
 10 11  2  0
 11 12  1  0
 11 13  1  0
 13 14  2  0
 14 15  1  0
 15 16  1  0
 16 17  2  0
 16 18  1  0
 18 19  1  0
 19 20  2  0
 20 21  1  0
 20 22  1  0
 18 23  2  0
 22 23  1  0
 15 24  1  0
 24 25  2  0
 25 26  1  0
 26 27  2  0
 27 28  1  0
 28 29  1  0
 29 30  1  0
 30 31  2  0
 24 32  1  0
 28 32  2  0
 31 32  1  0
 14 33  1  0
 10 34  1  0
 33 34  2  0
 34 35  1  0
  9 36  1  0
  6 37  1  0
 36 37  1  0
M  END
