NIM-UNI-310206f0-60-acrylamide
     RDKit          3D

 33 36  0  0  0  0  0  0  0  0999 V2000
    7.2420   -2.7270   18.4490 C   0  0  0  0  0  0  0  0  0  0  0  0
    6.1720   -2.0820   19.3320 C   0  0  0  0  0  0  0  0  0  0  0  0
    5.5190   -3.1470   20.1990 C   0  0  0  0  0  0  0  0  0  0  0  0
    5.0610   -4.1740   19.6890 O   0  0  0  0  0  0  0  0  0  0  0  0
    5.5050   -2.9650   21.5700 N   0  0  0  0  0  0  0  0  0  0  0  0
    6.0960   -3.9280   22.5180 C   0  0  0  0  0  0  0  0  0  0  0  0
    7.3710   -3.4370   23.2470 C   0  0  0  0  0  0  0  0  0  0  0  0
    7.4860   -1.9780   23.3450 N   0  0  0  0  0  0  0  0  0  0  0  0
    8.7270   -1.4170   23.4940 C   0  0  0  0  0  0  0  0  0  0  0  0
    9.7860   -0.9650   22.5930 C   0  0  0  0  0  0  0  0  0  0  0  0
    9.7210   -1.0450   21.2760 F   0  0  0  0  0  0  0  0  0  0  0  0
   10.9870   -0.3680   23.2950 C   0  0  0  0  0  0  0  0  0  0  0  0
   11.4190   -0.0930   24.7780 C   0  0  0  0  0  0  0  0  0  0  0  0
   12.4730    0.3660   23.9500 N   0  0  0  0  0  0  0  0  0  0  0  0
   13.1640   -0.7430   23.3070 C   0  0  0  0  0  0  0  0  0  0  0  0
   13.7310   -1.6970   23.8310 O   0  0  0  0  0  0  0  0  0  0  0  0
   13.0770   -0.6760   21.8730 C   0  0  0  0  0  0  0  0  0  0  0  0
   13.7440   -1.6340   21.1040 O   0  0  0  0  0  0  0  0  0  0  0  0
   13.0080   -2.8280   21.0850 C   0  0  0  0  0  0  0  0  0  0  0  0
   12.1770    1.7320   23.3800 C   0  0  0  0  0  0  0  0  0  0  0  0
   10.7580    2.1270   23.7620 C   0  0  0  0  0  0  0  0  0  0  0  0
   10.2290    3.4690   23.3370 C   0  0  0  0  0  0  0  0  0  0  0  0
   11.0220    4.3310   22.6190 C   0  0  0  0  0  0  0  0  0  0  0  0
   12.3170    3.9620   22.2710 C   0  0  0  0  0  0  0  0  0  0  0  0
   13.2060    4.7220   21.5690 N   0  0  0  0  0  0  0  0  0  0  0  0
   14.3300    4.0470   21.4270 C   0  0  0  0  0  0  0  0  0  0  0  0
   14.2100    2.8260   22.0230 C   0  0  0  0  0  0  0  0  0  0  0  0
   12.9360    2.7010   22.6050 C   0  0  0  0  0  0  0  0  0  0  0  0
   10.2520   -0.6190   25.3000 C   0  0  0  0  0  0  0  0  0  0  0  0
    9.7670   -0.9030   24.2570 C   0  0  0  0  0  0  0  0  0  0  0  0
   10.6860   -0.5470   23.3620 F   0  0  0  0  0  0  0  0  0  0  0  0
    6.8620   -1.2200   22.2410 C   0  0  0  0  0  0  0  0  0  0  0  0
    5.5730   -1.6000   22.0530 C   0  0  0  0  0  0  0  0  0  0  0  0
  1  2  1  0
  2  3  1  0
  3  4  2  0
  3  5  1  0
  5  6  1  0
  6  7  1  0
  7  8  1  0
  8  9  1  0
  9 10  2  0
 10 11  1  0
 10 12  1  0
 12 13  2  0
 13 14  1  0
 14 15  1  0
 15 16  2  0
 15 17  1  0
 17 18  1  0
 18 19  1  0
 14 20  1  0
 20 21  2  0
 21 22  1  0
 22 23  2  0
 23 24  1  0
 24 25  1  0
 25 26  1  0
 26 27  2  0
 20 28  1  0
 24 28  2  0
 27 28  1  0
 13 29  1  0
  9 30  1  0
 29 30  2  0
 30 31  1  0
  8 32  1  0
  5 33  1  0
 32 33  1  0
M  END
