NIM-UNI-05f93fcc-9-nitrile
     RDKit          3D

 21 23  0  0  0  0  0  0  0  0999 V2000
    6.5330   -4.2280   20.2260 C   0  0  0  0  0  0  0  0  0  0  0  0
    5.4520   -3.8330   19.6810 N   0  0  0  0  0  0  0  0  0  0  0  0
    6.6160   -4.8600   21.4750 N   0  0  0  0  0  0  0  0  0  0  0  0
    7.1770   -4.2440   22.5460 C   0  0  0  0  0  0  0  0  0  0  0  0
    6.4500   -4.2890   23.9060 C   0  0  0  0  0  0  0  0  0  0  0  0
    5.6170   -5.3770   24.0910 N   0  0  0  0  0  0  0  0  0  0  0  0
    4.7940   -5.5190   25.5960 S   0  0  0  0  0  0  0  0  0  0  0  0
    5.7220   -5.1570   26.6410 O   0  0  0  0  0  0  0  0  0  0  0  0
    4.1040   -6.7910   25.6340 O   0  0  0  0  0  0  0  0  0  0  0  0
    3.5400   -4.2620   25.6910 C   0  0  0  0  0  0  0  0  0  0  0  0
    2.1130   -4.1780   25.6460 C   0  0  0  0  0  0  0  0  0  0  0  0
    1.6390   -2.9150   25.7730 C   0  0  0  0  0  0  0  0  0  0  0  0
    2.4090   -1.7300   25.9370 C   0  0  0  0  0  0  0  0  0  0  0  0
    3.4860   -0.8720   26.0750 C   0  0  0  0  0  0  0  0  0  0  0  0
    4.7340   -1.2140   25.6190 N   0  0  0  0  0  0  0  0  0  0  0  0
    5.4150   -0.1800   25.9450 C   0  0  0  0  0  0  0  0  0  0  0  0
    4.6210    0.7390   26.5610 C   0  0  0  0  0  0  0  0  0  0  0  0
    3.4560    0.2910   26.6240 O   0  0  0  0  0  0  0  0  0  0  0  0
    3.9450   -2.6350   25.8940 S   0  0  0  0  0  0  0  0  0  0  0  0
    4.9740   -5.7800   22.8990 C   0  0  0  0  0  0  0  0  0  0  0  0
    5.8210   -6.0050   21.7860 C   0  0  0  0  0  0  0  0  0  0  0  0
  1  2  2  3
  1  3  1  0
  3  4  1  0
  4  5  1  0
  5  6  1  0
  6  7  1  0
  7  8  2  0
  7  9  2  0
  7 10  1  0
 10 11  2  0
 11 12  1  0
 12 13  2  0
 13 14  1  0
 14 15  2  0
 15 16  1  0
 16 17  2  0
 14 18  1  0
 17 18  1  0
 10 19  1  0
 13 19  1  0
  6 20  1  0
  3 21  1  0
 20 21  1  0
M  END
