NIM-UNI-bb9030bf-15-vinylsulfonamide
     RDKit          3D

 22 23  0  0  0  0  0  0  0  0999 V2000
    7.3530   -3.3700   19.5380 C   0  0  0  0  0  0  0  0  0  0  0  0
    6.0300   -2.7760   19.9720 C   0  0  0  0  0  0  0  0  0  0  0  0
    5.9260   -2.8830   21.7240 S   0  0  0  0  0  0  0  0  0  0  0  0
    4.5830   -3.3850   22.0110 O   0  0  0  0  0  0  0  0  0  0  0  0
    7.0550   -3.6470   22.2260 O   0  0  0  0  0  0  0  0  0  0  0  0
    6.1440   -1.3030   22.2850 N   0  0  0  0  0  0  0  0  0  0  0  0
    6.8760   -0.2010   21.6200 C   0  0  1  0  0  0  0  0  0  0  0  0
    8.4280   -0.1720   21.5830 C   0  0  0  0  0  0  0  0  0  0  0  0
    9.0080    1.0370   21.3870 O   0  0  0  0  0  0  0  0  0  0  0  0
    9.2520   -1.2460   21.7150 N   0  0  0  0  0  0  0  0  0  0  0  0
   10.1240   -1.2780   22.7600 C   0  0  0  0  0  0  0  0  0  0  0  0
   11.2180   -0.4520   22.9260 C   0  0  0  0  0  0  0  0  0  0  0  0
   11.2800    0.7010   23.7120 C   0  0  0  0  0  0  0  0  0  0  0  0
   12.5090    1.1640   23.5690 N   0  0  0  0  0  0  0  0  0  0  0  0
   13.1480    0.2430   22.6910 C   0  0  0  0  0  0  0  0  0  0  0  0
   12.4490   -0.6990   22.2990 O   0  0  0  0  0  0  0  0  0  0  0  0
    6.3300    0.2500   20.2410 C   0  0  0  0  0  0  0  0  0  0  0  0
    5.1530    0.9690   20.2640 C   0  0  0  0  0  0  0  0  0  0  0  0
    4.5870    1.4440   19.0930 C   0  0  0  0  0  0  0  0  0  0  0  0
    5.2350    1.1800   17.8890 C   0  0  0  0  0  0  0  0  0  0  0  0
    6.3390    0.5010   17.8350 N   0  0  0  0  0  0  0  0  0  0  0  0
    6.8940    0.0270   18.9920 C   0  0  0  0  0  0  0  0  0  0  0  0
  1  2  1  0
  2  3  1  0
  3  4  2  0
  3  5  2  0
  3  6  1  0
  7  6  1  6
  7  8  1  0
  8  9  2  0
  8 10  1  0
 10 11  1  0
 11 12  1  0
 12 13  2  0
 13 14  1  0
 14 15  2  0
 12 16  1  0
 15 16  1  0
  7 17  1  0
 17 18  2  0
 18 19  1  0
 19 20  2  0
 20 21  1  0
 17 22  1  0
 21 22  2  0
M  END
