NIM-UNI-310206f0-58-nitrile
     RDKit          3D

 33 36  0  0  0  0  0  0  0  0999 V2000
    6.3930   -4.5960   20.3390 C   0  0  0  0  0  0  0  0  0  0  0  0
    5.7390   -5.6360   20.0190 N   0  0  0  0  0  0  0  0  0  0  0  0
    6.2610   -3.9970   21.5730 N   0  0  0  0  0  0  0  0  0  0  0  0
    5.7750   -2.6080   21.6580 C   0  0  0  0  0  0  0  0  0  0  0  0
    5.3880   -2.3340   23.1100 C   0  0  0  0  0  0  0  0  0  0  0  0
    6.4330   -2.8320   24.0080 N   0  0  0  0  0  0  0  0  0  0  0  0
    7.6050   -2.0770   23.9620 C   0  0  0  0  0  0  0  0  0  0  0  0
    8.3070   -1.0330   24.5180 C   0  0  0  0  0  0  0  0  0  0  0  0
    9.4550   -0.8970   23.8710 F   0  0  0  0  0  0  0  0  0  0  0  0
    8.2570   -0.0970   25.4780 C   0  0  0  0  0  0  0  0  0  0  0  0
    9.6510    0.3320   24.9570 C   0  0  0  0  0  0  0  0  0  0  0  0
   10.9140    0.5040   24.2720 N   0  0  0  0  0  0  0  0  0  0  0  0
   11.8180   -0.5750   24.2080 C   0  0  0  0  0  0  0  0  0  0  0  0
   12.5970   -0.8490   25.2990 C   0  0  0  0  0  0  0  0  0  0  0  0
   13.4900   -1.8930   25.3170 C   0  0  0  0  0  0  0  0  0  0  0  0
   13.6390   -2.7120   24.1350 C   0  0  0  0  0  0  0  0  0  0  0  0
   12.8930   -2.4290   23.0700 C   0  0  0  0  0  0  0  0  0  0  0  0
   12.9590   -3.1060   21.9120 N   0  0  0  0  0  0  0  0  0  0  0  0
   12.1010   -2.6290   21.0550 C   0  0  0  0  0  0  0  0  0  0  0  0
   11.3620   -1.4960   21.6820 C   0  0  0  0  0  0  0  0  0  0  0  0
   11.9580   -1.3870   23.0530 C   0  0  0  0  0  0  0  0  0  0  0  0
   11.0250    1.4710   22.8990 S   0  0  0  0  0  0  0  0  0  0  0  0
    9.7330    1.5860   22.2430 O   0  0  0  0  0  0  0  0  0  0  0  0
   12.1810    0.8950   22.2800 O   0  0  0  0  0  0  0  0  0  0  0  0
   11.5540    3.0910   23.2890 C   0  0  0  0  0  0  0  0  0  0  0  0
   11.2990    4.0960   22.3640 C   0  0  0  0  0  0  0  0  0  0  0  0
   12.1890    5.1790   22.6540 O   0  0  0  0  0  0  0  0  0  0  0  0
   13.5370    4.9120   22.2760 C   0  0  0  0  0  0  0  0  0  0  0  0
    9.7030   -0.7690   23.8240 C   0  0  0  0  0  0  0  0  0  0  0  0
    8.7950   -1.9140   23.3060 C   0  0  0  0  0  0  0  0  0  0  0  0
    9.1890   -2.6660   22.2770 F   0  0  0  0  0  0  0  0  0  0  0  0
    6.6820   -4.3090   23.9090 C   0  0  0  0  0  0  0  0  0  0  0  0
    6.0180   -4.8070   22.7990 C   0  0  0  0  0  0  0  0  0  0  0  0
  1  2  2  3
  1  3  1  0
  3  4  1  0
  4  5  1  0
  5  6  1  0
  6  7  1  0
  7  8  2  0
  8  9  1  0
  8 10  1  0
 10 11  2  0
 11 12  1  0
 12 13  1  0
 13 14  2  0
 14 15  1  0
 15 16  2  0
 16 17  1  0
 17 18  1  0
 18 19  1  0
 19 20  2  0
 13 21  1  0
 17 21  2  0
 20 21  1  0
 22 12  1  0
 22 23  2  0
 22 24  2  0
 22 25  1  0
 25 26  1  0
 26 27  1  0
 27 28  1  0
 11 29  1  0
  7 30  1  0
 29 30  2  0
 30 31  1  0
  6 32  1  0
  3 33  1  0
 32 33  1  0
M  END
