NIM-UNI-310206f0-67-acrylamide
     RDKit          3D

 24 26  0  0  0  0  0  0  0  0999 V2000
    7.1570   -3.3890   19.6990 C   0  0  0  0  0  0  0  0  0  0  0  0
    5.8410   -2.8610   20.3180 C   0  0  0  0  0  0  0  0  0  0  0  0
    5.6690   -3.2750   21.7770 C   0  0  0  0  0  0  0  0  0  0  0  0
    4.7450   -4.0010   22.1230 O   0  0  0  0  0  0  0  0  0  0  0  0
    6.5590   -2.8150   22.7220 N   0  0  0  0  0  0  0  0  0  0  0  0
    7.7010   -1.9500   22.4460 C   0  0  0  0  0  0  0  0  0  0  0  0
    9.0550   -2.6380   22.6340 C   0  0  0  0  0  0  0  0  0  0  0  0
    9.0950   -3.7200   23.6330 N   0  0  0  0  0  0  0  0  0  0  0  0
   10.1330   -3.4570   24.9250 S   0  0  0  0  0  0  0  0  0  0  0  0
   10.8590   -4.6370   25.2940 O   0  0  0  0  0  0  0  0  0  0  0  0
    9.3280   -2.7970   25.9030 O   0  0  0  0  0  0  0  0  0  0  0  0
   11.3220   -2.2520   24.3740 C   0  0  0  0  0  0  0  0  0  0  0  0
   11.9520   -1.0810   25.1900 C   0  0  0  0  0  0  0  0  0  0  0  0
   12.7070   -0.5450   24.1590 C   0  0  0  0  0  0  0  0  0  0  0  0
   12.7430   -1.0370   22.8970 C   0  0  0  0  0  0  0  0  0  0  0  0
   13.4370   -0.3970   21.9180 C   0  0  0  0  0  0  0  0  0  0  0  0
   13.7300   -1.0540   20.6240 C   0  0  0  0  0  0  0  0  0  0  0  0
   14.3580   -0.3520   19.6470 N   0  0  0  0  0  0  0  0  0  0  0  0
   14.7590    1.0460   19.9110 C   0  0  0  0  0  0  0  0  0  0  0  0
   14.5290    1.6650   21.0820 N   0  0  0  0  0  0  0  0  0  0  0  0
   13.8750    0.9280   22.0400 C   0  0  0  0  0  0  0  0  0  0  0  0
   11.7830   -2.4380   22.6870 S   0  0  0  0  0  0  0  0  0  0  0  0
    7.8990   -4.4630   23.9630 C   0  0  0  0  0  0  0  0  0  0  0  0
    6.6650   -3.5750   23.9720 C   0  0  0  0  0  0  0  0  0  0  0  0
  1  2  1  0
  2  3  1  0
  3  4  2  0
  3  5  1  0
  5  6  1  0
  6  7  1  0
  7  8  1  0
  8  9  1  0
  9 10  2  0
  9 11  2  0
  9 12  1  0
 12 13  2  0
 13 14  1  0
 14 15  2  0
 15 16  1  0
 16 17  2  0
 17 18  1  0
 18 19  2  0
 19 20  1  0
 16 21  1  0
 20 21  2  0
 12 22  1  0
 15 22  1  0
  8 23  1  0
  5 24  1  0
 23 24  1  0
M  END
