NIM-UNI-363644a0-2-chloroacetamide
     RDKit          3D

 42 46  0  0  0  0  0  0  0  0999 V2000
    7.2610   -3.2290   19.3900 C   0  0  0  0  0  0  0  0  0  0  0  0
    5.9130   -3.0760   19.9850 C   0  0  0  0  0  0  0  0  0  0  0  0
    5.0070   -3.7030   19.4430 O   0  0  0  0  0  0  0  0  0  0  0  0
    5.7690   -2.3510   21.1610 N   0  0  0  0  0  0  0  0  0  0  0  0
    5.7420   -3.0560   22.4360 C   0  0  0  0  0  0  0  0  0  0  0  0
    7.0120   -3.1360   22.9930 C   0  0  0  0  0  0  0  0  0  0  0  0
    7.7330   -1.8210   23.1060 N   0  0  0  0  0  0  0  0  0  0  0  0
    8.9720   -1.9520   23.8900 C   0  0  0  0  0  0  0  0  0  0  0  0
   10.1910   -1.0840   23.5740 C   0  0  0  0  0  0  0  0  0  0  0  0
   10.2990    0.2090   24.3440 C   0  0  0  0  0  0  0  0  0  0  0  0
   11.4600    1.1150   24.1450 C   0  0  0  0  0  0  0  0  0  0  0  0
   12.5190    0.7120   23.2050 C   0  0  0  0  0  0  0  0  0  0  0  0
   12.3440   -0.5830   22.4770 C   0  0  0  0  0  0  0  0  0  0  0  0
   13.5690   -0.6840   21.6220 C   0  0  0  0  0  0  0  0  0  0  0  0
   13.3430   -1.9070   20.9960 C   0  0  0  0  0  0  0  0  0  0  0  0
   12.3150   -2.8950   20.9990 C   0  0  0  0  0  0  0  0  0  0  0  0
   12.5600   -4.2920   20.0080 S   0  0  0  0  0  0  0  0  0  0  0  0
   13.4030   -5.5240   20.6250 N   0  0  0  0  0  0  0  0  0  0  0  0
   13.8840   -4.1190   19.5400 O   0  0  0  0  0  0  0  0  0  0  0  0
   11.4180   -4.8000   19.3000 O   0  0  0  0  0  0  0  0  0  0  0  0
   11.2860   -2.5710   21.7940 C   0  0  0  0  0  0  0  0  0  0  0  0
   11.2490   -1.3960   22.6400 C   0  0  0  0  0  0  0  0  0  0  0  0
    7.7970   -1.1960   21.7790 C   0  0  0  0  0  0  0  0  0  0  0  0
    6.3450   -1.0080   21.3040 C   0  0  1  0  0  0  0  0  0  0  0  0
    5.9910   -0.1430   20.0940 C   0  0  0  0  0  0  0  0  0  0  0  0
    6.7320   -0.1850   18.9330 C   0  0  0  0  0  0  0  0  0  0  0  0
    6.5230    0.5190   17.8040 N   0  0  0  0  0  0  0  0  0  0  0  0
    5.4850    1.3730   17.7530 C   0  0  0  0  0  0  0  0  0  0  0  0
    4.5000    1.6280   18.8790 C   0  0  0  0  0  0  0  0  0  0  0  0
    4.7850    0.8100   20.1220 C   0  0  0  0  0  0  0  0  0  0  0  0
    3.8020    1.0410   21.2840 C   0  0  0  0  0  0  0  0  0  0  0  0
    4.2830    1.9220   22.4170 C   0  0  0  0  0  0  0  0  0  0  0  0
    3.1900    2.5760   23.1210 N   0  0  0  0  0  0  0  0  0  0  0  0
    2.1420    1.8830   23.6830 C   0  0  0  0  0  0  0  0  0  0  0  0
    2.1050    0.6650   23.7770 O   0  0  0  0  0  0  0  0  0  0  0  0
    1.1410    2.7240   24.1220 N   0  0  0  0  0  0  0  0  0  0  0  0
    1.4630    3.9440   24.8640 C   0  0  0  0  0  0  0  0  0  0  0  0
    2.0020    3.6000   26.2330 C   0  0  0  0  0  0  0  0  0  0  0  0
    0.9130    2.9130   27.0660 C   0  0  0  0  0  0  0  0  0  0  0  0
   -0.4450    2.8260   26.3360 C   0  0  0  0  0  0  0  0  0  0  0  0
   -0.9020    4.1610   25.7520 C   0  0  0  0  0  0  0  0  0  0  0  0
    0.2400    4.8520   25.0260 C   0  0  0  0  0  0  0  0  0  0  0  0
  1  2  1  0
  2  3  2  0
  2  4  1  0
  4  5  1  0
  5  6  1  0
  6  7  1  0
  7  8  1  0
  8  9  1  0
  9 10  2  0
 10 11  1  0
 11 12  2  0
 12 13  1  0
 13 14  1  0
 14 15  2  0
 15 16  1  0
 16 17  1  0
 17 18  1  0
 17 19  2  0
 17 20  2  0
 16 21  2  0
  9 22  1  0
 13 22  2  0
 21 22  1  0
  7 23  1  0
  4 24  1  0
 23 24  1  0
 24 25  1  6
 25 26  2  0
 26 27  1  0
 27 28  2  0
 28 29  1  0
 25 30  1  0
 29 30  2  0
 30 31  1  0
 31 32  1  0
 32 33  1  0
 33 34  1  0
 34 35  2  0
 34 36  1  0
 36 37  1  0
 37 38  1  0
 38 39  1  0
 39 40  1  0
 40 41  1  0
 37 42  1  0
 41 42  1  0
M  END
