NIM-UNI-310206f0-64-acrylamide
     RDKit          3D

 36 40  0  0  0  0  0  0  0  0999 V2000
    7.3070   -2.8070   18.5930 C   0  0  0  0  0  0  0  0  0  0  0  0
    6.4650   -2.0140   19.5930 C   0  0  0  0  0  0  0  0  0  0  0  0
    5.6080   -3.0290   20.3090 C   0  0  0  0  0  0  0  0  0  0  0  0
    4.9570   -3.8310   19.6330 O   0  0  0  0  0  0  0  0  0  0  0  0
    5.6440   -3.0880   21.6990 N   0  0  0  0  0  0  0  0  0  0  0  0
    5.5870   -1.9030   22.5520 C   0  0  0  0  0  0  0  0  0  0  0  0
    6.1280   -2.1910   23.9580 C   0  0  0  0  0  0  0  0  0  0  0  0
    7.4300   -2.8330   23.8720 N   0  0  0  0  0  0  0  0  0  0  0  0
    8.4200   -1.8810   23.7220 C   0  0  0  0  0  0  0  0  0  0  0  0
    9.1710   -1.1960   22.6570 C   0  0  0  0  0  0  0  0  0  0  0  0
    9.0370   -1.4070   21.3430 F   0  0  0  0  0  0  0  0  0  0  0  0
   10.1420   -0.1720   23.2110 C   0  0  0  0  0  0  0  0  0  0  0  0
   10.5270    0.3090   24.6590 C   0  0  0  0  0  0  0  0  0  0  0  0
   11.3370    1.1080   23.8140 N   0  0  0  0  0  0  0  0  0  0  0  0
   12.4850    0.5610   23.0920 C   0  0  0  0  0  0  0  0  0  0  0  0
   12.8410   -0.6120   22.9690 O   0  0  0  0  0  0  0  0  0  0  0  0
   13.2600    1.6410   22.4740 C   0  0  0  0  0  0  0  0  0  0  0  0
   12.9010    2.9460   22.5870 C   0  0  0  0  0  0  0  0  0  0  0  0
   13.7710    3.7410   21.9460 C   0  0  0  0  0  0  0  0  0  0  0  0
   13.7180    5.2380   21.8370 C   0  0  0  0  0  0  0  0  0  0  0  0
   14.7060    2.9330   21.4130 O   0  0  0  0  0  0  0  0  0  0  0  0
   14.3700    1.5980   21.7440 N   0  0  0  0  0  0  0  0  0  0  0  0
   10.7610    2.3910   23.5470 C   0  0  0  0  0  0  0  0  0  0  0  0
   11.5140    3.5390   23.2490 C   0  0  0  0  0  0  0  0  0  0  0  0
   10.9200    4.7810   22.9990 C   0  0  0  0  0  0  0  0  0  0  0  0
    9.5540    4.9460   23.0310 C   0  0  0  0  0  0  0  0  0  0  0  0
    8.7680    3.8560   23.3210 C   0  0  0  0  0  0  0  0  0  0  0  0
    7.3640    3.8030   23.4080 N   0  0  0  0  0  0  0  0  0  0  0  0
    6.9780    2.5380   23.7180 C   0  0  0  0  0  0  0  0  0  0  0  0
    8.2440    1.8020   23.8180 C   0  0  0  0  0  0  0  0  0  0  0  0
    9.3380    2.5770   23.5810 C   0  0  0  0  0  0  0  0  0  0  0  0
    9.6510   -0.5680   25.2630 C   0  0  0  0  0  0  0  0  0  0  0  0
    9.2150   -1.0640   24.2630 C   0  0  0  0  0  0  0  0  0  0  0  0
    9.8860   -0.4720   23.2720 F   0  0  0  0  0  0  0  0  0  0  0  0
    7.4460   -4.0350   23.0320 C   0  0  0  0  0  0  0  0  0  0  0  0
    6.1810   -4.2560   22.4330 C   0  0  0  0  0  0  0  0  0  0  0  0
  1  2  1  0
  2  3  1  0
  3  4  2  0
  3  5  1  0
  5  6  1  0
  6  7  1  0
  7  8  1  0
  8  9  1  0
  9 10  2  0
 10 11  1  0
 10 12  1  0
 12 13  2  0
 13 14  1  0
 14 15  1  0
 15 16  2  0
 15 17  1  0
 17 18  1  0
 18 19  2  0
 19 20  1  0
 19 21  1  0
 17 22  2  0
 21 22  1  0
 14 23  1  0
 23 24  2  0
 24 25  1  0
 25 26  2  0
 26 27  1  0
 27 28  1  0
 28 29  1  0
 29 30  2  0
 23 31  1  0
 27 31  2  0
 30 31  1  0
 13 32  1  0
  9 33  1  0
 32 33  2  0
 33 34  1  0
  8 35  1  0
  5 36  1  0
 35 36  1  0
M  END
