NIM-UNI-05f93fcc-4-nitrile
     RDKit          3D

 25 28  0  0  0  0  0  0  0  0999 V2000
    6.4500   -4.4850   20.3070 C   0  0  0  0  0  0  0  0  0  0  0  0
    5.3050   -4.2030   19.8390 N   0  0  0  0  0  0  0  0  0  0  0  0
    6.6480   -4.9270   21.6110 N   0  0  0  0  0  0  0  0  0  0  0  0
    7.1720   -4.1360   22.5740 C   0  0  0  0  0  0  0  0  0  0  0  0
    6.5250   -4.1610   23.9670 C   0  0  0  0  0  0  0  0  0  0  0  0
    5.8390   -5.3190   24.2700 N   0  0  0  0  0  0  0  0  0  0  0  0
    4.9700   -5.3180   25.7490 S   0  0  0  0  0  0  0  0  0  0  0  0
    5.9160   -5.2850   26.8320 O   0  0  0  0  0  0  0  0  0  0  0  0
    3.9490   -6.3430   25.6940 O   0  0  0  0  0  0  0  0  0  0  0  0
    4.1580   -3.7500   25.8880 C   0  0  0  0  0  0  0  0  0  0  0  0
    4.5390   -2.3890   26.0310 C   0  0  0  0  0  0  0  0  0  0  0  0
    3.4890   -1.5340   26.0900 C   0  0  0  0  0  0  0  0  0  0  0  0
    2.1160   -1.8720   26.0260 C   0  0  0  0  0  0  0  0  0  0  0  0
    0.9270   -2.5720   25.9310 C   0  0  0  0  0  0  0  0  0  0  0  0
   -0.2820   -2.0870   26.4670 C   0  0  0  0  0  0  0  0  0  0  0  0
   -1.4740   -2.7930   26.3690 C   0  0  0  0  0  0  0  0  0  0  0  0
   -1.4790   -4.0130   25.7230 C   0  0  0  0  0  0  0  0  0  0  0  0
   -2.4720   -4.9390   25.4580 C   0  0  0  0  0  0  0  0  0  0  0  0
   -1.9300   -5.9770   24.7830 C   0  0  0  0  0  0  0  0  0  0  0  0
   -0.6280   -5.7720   24.5930 N   0  0  0  0  0  0  0  0  0  0  0  0
   -0.2910   -4.5460   25.1660 C   0  0  0  0  0  0  0  0  0  0  0  0
    0.9070   -3.8370   25.2660 C   0  0  0  0  0  0  0  0  0  0  0  0
    2.4740   -3.6050   25.8680 S   0  0  0  0  0  0  0  0  0  0  0  0
    5.1440   -5.7530   23.1830 C   0  0  0  0  0  0  0  0  0  0  0  0
    5.9640   -6.0290   22.0680 C   0  0  0  0  0  0  0  0  0  0  0  0
  1  2  2  3
  1  3  1  0
  3  4  1  0
  4  5  1  0
  5  6  1  0
  6  7  1  0
  7  8  2  0
  7  9  2  0
  7 10  1  0
 10 11  2  0
 11 12  1  0
 12 13  2  0
 13 14  1  0
 14 15  2  0
 15 16  1  0
 16 17  2  0
 17 18  1  0
 18 19  2  0
 19 20  1  0
 17 21  1  0
 20 21  1  0
 14 22  1  0
 21 22  2  0
 10 23  1  0
 13 23  1  0
  6 24  1  0
  3 25  1  0
 24 25  1  0
M  END
