NIM-UNI-05f93fcc-10-acrylamide
     RDKit          3D

 28 30  0  0  0  0  0  0  0  0999 V2000
    8.3230   -3.7580   20.3370 C   0  0  0  0  0  0  0  0  0  0  0  0
    7.0020   -3.1030   20.5580 C   0  0  0  0  0  0  0  0  0  0  0  0
    6.0950   -4.2710   20.7140 C   0  0  0  0  0  0  0  0  0  0  0  0
    5.1770   -4.4560   19.9050 O   0  0  0  0  0  0  0  0  0  0  0  0
    6.3950   -5.1020   21.7750 N   0  0  0  0  0  0  0  0  0  0  0  0
    7.1920   -4.5510   22.8860 C   0  0  0  0  0  0  0  0  0  0  0  0
    6.3990   -4.5270   24.1680 C   0  0  0  0  0  0  0  0  0  0  0  0
    5.4160   -5.5340   24.3980 N   0  0  0  0  0  0  0  0  0  0  0  0
    4.6120   -5.6260   25.8910 S   0  0  0  0  0  0  0  0  0  0  0  0
    5.5560   -5.2420   26.9250 O   0  0  0  0  0  0  0  0  0  0  0  0
    3.8900   -6.8730   25.9480 O   0  0  0  0  0  0  0  0  0  0  0  0
    3.3990   -4.3290   25.8150 C   0  0  0  0  0  0  0  0  0  0  0  0
    2.1080   -4.3670   25.5180 C   0  0  0  0  0  0  0  0  0  0  0  0
    1.5320   -3.1140   25.5810 C   0  0  0  0  0  0  0  0  0  0  0  0
    2.2420   -1.9180   25.9250 C   0  0  0  0  0  0  0  0  0  0  0  0
    3.2850   -1.0990   26.2860 C   0  0  0  0  0  0  0  0  0  0  0  0
    3.1220    0.1710   26.7710 C   0  0  0  0  0  0  0  0  0  0  0  0
    4.2460    0.8880   27.1100 C   0  0  0  0  0  0  0  0  0  0  0  0
    5.5720    0.4590   27.0130 C   0  0  0  0  0  0  0  0  0  0  0  0
    6.5300    1.3670   27.4230 C   0  0  0  0  0  0  0  0  0  0  0  0
    7.7820    0.8380   27.4590 F   0  0  0  0  0  0  0  0  0  0  0  0
    6.5910    2.4540   26.6070 F   0  0  0  0  0  0  0  0  0  0  0  0
    6.3010    1.8540   28.6760 F   0  0  0  0  0  0  0  0  0  0  0  0
    5.7510   -0.9370   26.4750 C   0  0  0  0  0  0  0  0  0  0  0  0
    4.5860   -1.6270   26.1440 C   0  0  0  0  0  0  0  0  0  0  0  0
    3.7600   -2.7620   26.1420 S   0  0  0  0  0  0  0  0  0  0  0  0
    4.6670   -5.8800   23.3130 C   0  0  0  0  0  0  0  0  0  0  0  0
    5.6040   -6.2540   22.1570 C   0  0  0  0  0  0  0  0  0  0  0  0
  1  2  1  0
  2  3  1  0
  3  4  2  0
  3  5  1  0
  5  6  1  0
  6  7  1  0
  7  8  1  0
  8  9  1  0
  9 10  2  0
  9 11  2  0
  9 12  1  0
 12 13  2  0
 13 14  1  0
 14 15  2  0
 15 16  1  0
 16 17  2  0
 17 18  1  0
 18 19  2  0
 19 20  1  0
 20 21  1  0
 20 22  1  0
 20 23  1  0
 19 24  1  0
 16 25  1  0
 24 25  2  0
 12 26  1  0
 15 26  1  0
  8 27  1  0
  5 28  1  0
 27 28  1  0
M  END
