NIM-UNI-310206f0-62-acrylamide
     RDKit          3D

 37 41  0  0  0  0  0  0  0  0999 V2000
    7.2520   -2.8050   18.4960 C   0  0  0  0  0  0  0  0  0  0  0  0
    6.1200   -2.3620   19.4240 C   0  0  0  0  0  0  0  0  0  0  0  0
    5.6330   -3.4790   20.3150 C   0  0  0  0  0  0  0  0  0  0  0  0
    5.1570   -4.5220   19.8650 O   0  0  0  0  0  0  0  0  0  0  0  0
    5.7450   -3.2650   21.6660 N   0  0  0  0  0  0  0  0  0  0  0  0
    6.0070   -4.3580   22.6230 C   0  0  0  0  0  0  0  0  0  0  0  0
    6.9570   -4.0050   23.7840 C   0  0  0  0  0  0  0  0  0  0  0  0
    6.9230   -2.5820   24.0970 N   0  0  0  0  0  0  0  0  0  0  0  0
    8.1120   -1.8930   23.9610 C   0  0  0  0  0  0  0  0  0  0  0  0
    8.8190   -0.8590   24.4960 C   0  0  0  0  0  0  0  0  0  0  0  0
    9.9460   -0.7740   23.7940 F   0  0  0  0  0  0  0  0  0  0  0  0
    8.8650    0.0080   25.3230 C   0  0  0  0  0  0  0  0  0  0  0  0
   10.0920    0.4790   24.9330 C   0  0  0  0  0  0  0  0  0  0  0  0
   11.3530    0.7250   24.2970 N   0  0  0  0  0  0  0  0  0  0  0  0
   12.1120   -0.5200   24.1450 C   0  0  0  0  0  0  0  0  0  0  0  0
   12.8540   -0.8990   25.3540 C   0  0  0  0  0  0  0  0  0  0  0  0
   13.6130   -2.0510   25.4190 C   0  0  0  0  0  0  0  0  0  0  0  0
   13.6850   -2.8280   24.3260 C   0  0  0  0  0  0  0  0  0  0  0  0
   12.9750   -2.4790   23.0990 C   0  0  0  0  0  0  0  0  0  0  0  0
   12.9740   -3.1550   21.9370 N   0  0  0  0  0  0  0  0  0  0  0  0
   12.1890   -2.5400   21.0940 C   0  0  0  0  0  0  0  0  0  0  0  0
   11.6970   -1.4490   21.7440 C   0  0  0  0  0  0  0  0  0  0  0  0
   12.1830   -1.3500   23.0120 C   0  0  0  0  0  0  0  0  0  0  0  0
   11.3700    1.6540   22.8900 S   0  0  0  0  0  0  0  0  0  0  0  0
   10.0770    1.4730   22.2700 O   0  0  0  0  0  0  0  0  0  0  0  0
   12.5960    1.1820   22.3040 O   0  0  0  0  0  0  0  0  0  0  0  0
   11.6050    3.3940   23.0530 C   0  0  0  0  0  0  0  0  0  0  0  0
   10.5950    4.2000   23.5440 C   0  0  0  0  0  0  0  0  0  0  0  0
   10.8460    5.5660   23.6310 C   0  0  0  0  0  0  0  0  0  0  0  0
   12.1720    6.0710   23.1900 C   0  0  0  0  0  0  0  0  0  0  0  0
   13.1700    5.2660   22.7010 N   0  0  0  0  0  0  0  0  0  0  0  0
   12.8360    3.9280   22.6540 C   0  0  0  0  0  0  0  0  0  0  0  0
   10.1690   -0.6170   23.7880 C   0  0  0  0  0  0  0  0  0  0  0  0
    9.2730   -1.7510   23.2880 C   0  0  0  0  0  0  0  0  0  0  0  0
    9.6440   -2.5130   22.2570 F   0  0  0  0  0  0  0  0  0  0  0  0
    5.7350   -1.8880   23.6170 C   0  0  0  0  0  0  0  0  0  0  0  0
    5.7440   -1.9060   22.2250 C   0  0  0  0  0  0  0  0  0  0  0  0
  1  2  1  0
  2  3  1  0
  3  4  2  0
  3  5  1  0
  5  6  1  0
  6  7  1  0
  7  8  1  0
  8  9  1  0
  9 10  2  0
 10 11  1  0
 10 12  1  0
 12 13  2  0
 13 14  1  0
 14 15  1  0
 15 16  2  0
 16 17  1  0
 17 18  2  0
 18 19  1  0
 19 20  1  0
 20 21  1  0
 21 22  2  0
 15 23  1  0
 19 23  2  0
 22 23  1  0
 24 14  1  0
 24 25  2  0
 24 26  2  0
 24 27  1  0
 27 28  2  0
 28 29  1  0
 29 30  2  0
 30 31  1  0
 27 32  1  0
 31 32  2  0
 13 33  1  0
  9 34  1  0
 33 34  2  0
 34 35  1  0
  8 36  1  0
  5 37  1  0
 36 37  1  0
M  END
