NIM-UNI-bb610069-3-vinylsulfonamide
     RDKit          3D

 27 29  0  0  0  0  0  0  0  0999 V2000
    7.4190   -2.9750   18.7410 C   0  0  0  0  0  0  0  0  0  0  0  0
    6.9590   -2.6240   20.1320 C   0  0  0  0  0  0  0  0  0  0  0  0
    6.1390   -4.0050   20.8850 S   0  0  0  0  0  0  0  0  0  0  0  0
    5.1830   -4.5470   19.9390 O   0  0  0  0  0  0  0  0  0  0  0  0
    7.1310   -4.8880   21.4860 O   0  0  0  0  0  0  0  0  0  0  0  0
    5.3220   -3.2640   22.1740 N   0  0  0  0  0  0  0  0  0  0  0  0
    5.5850   -2.0130   22.3530 C   0  0  0  0  0  0  0  0  0  0  0  0
    6.9170   -1.9020   23.1260 C   0  0  0  0  0  0  0  0  0  0  0  0
    7.0630   -2.8910   24.2230 N   0  0  0  0  0  0  0  0  0  0  0  0
    8.1090   -2.5470   25.2260 C   0  0  0  0  0  0  0  0  0  0  0  0
    9.2380   -1.6650   24.6770 C   0  0  0  0  0  0  0  0  0  0  0  0
    9.2770   -0.3720   24.0330 C   0  0  0  0  0  0  0  0  0  0  0  0
    9.9320    0.4020   23.5860 N   0  0  0  0  0  0  0  0  0  0  0  0
   11.1480    0.9640   23.1920 C   0  0  0  0  0  0  0  0  0  0  0  0
   12.1990    0.1840   22.7640 C   0  0  0  0  0  0  0  0  0  0  0  0
   13.3710    0.7840   22.4000 C   0  0  0  0  0  0  0  0  0  0  0  0
   13.5320    2.1620   22.4660 C   0  0  0  0  0  0  0  0  0  0  0  0
   12.4920    2.9790   22.9090 C   0  0  0  0  0  0  0  0  0  0  0  0
   12.5950    4.7930   23.0720 S   0  0  0  0  0  0  0  0  0  0  0  0
   14.1330    5.1280   22.4930 N   0  0  0  0  0  0  0  0  0  0  0  0
   12.6810    5.2180   24.4320 O   0  0  0  0  0  0  0  0  0  0  0  0
   11.6340    5.4600   22.2330 O   0  0  0  0  0  0  0  0  0  0  0  0
   11.3160    2.3530   23.2390 C   0  0  0  0  0  0  0  0  0  0  0  0
   10.9150   -0.5850   23.9820 N   0  0  0  0  0  0  0  0  0  0  0  0
   10.5530   -1.7810   24.6070 N   0  0  0  0  0  0  0  0  0  0  0  0
    6.3600   -4.1730   24.1140 C   0  0  0  0  0  0  0  0  0  0  0  0
    5.1660   -4.0520   23.3980 C   0  0  0  0  0  0  0  0  0  0  0  0
  1  2  1  0
  3  2  1  0
  3  4  2  0
  3  5  2  0
  3  6  1  0
  6  7  1  0
  7  8  1  0
  8  9  1  0
  9 10  1  0
 10 11  1  0
 11 12  2  0
 12 13  1  0
 13 14  1  0
 14 15  2  0
 15 16  1  0
 16 17  2  0
 17 18  1  0
 18 19  1  0
 19 20  1  0
 19 21  2  0
 19 22  2  0
 14 23  1  0
 18 23  2  0
 13 24  1  0
 11 25  1  0
 24 25  2  0
  9 26  1  0
  6 27  1  0
 26 27  1  0
M  END
