NIM-UNI-310206f0-56-acrylamide
     RDKit          3D

 36 40  0  0  0  0  0  0  0  0999 V2000
    7.2490   -2.9070   18.7980 C   0  0  0  0  0  0  0  0  0  0  0  0
    6.4650   -2.1110   19.8520 C   0  0  0  0  0  0  0  0  0  0  0  0
    5.3750   -3.0340   20.3270 C   0  0  0  0  0  0  0  0  0  0  0  0
    4.7980   -3.7080   19.4700 O   0  0  0  0  0  0  0  0  0  0  0  0
    5.0970   -3.1530   21.6950 N   0  0  0  0  0  0  0  0  0  0  0  0
    5.0030   -2.0370   22.6440 C   0  0  0  0  0  0  0  0  0  0  0  0
    5.3570   -2.4560   24.0770 C   0  0  0  0  0  0  0  0  0  0  0  0
    6.7120   -2.9980   24.1390 N   0  0  0  0  0  0  0  0  0  0  0  0
    7.7270   -2.0640   23.9190 C   0  0  0  0  0  0  0  0  0  0  0  0
    8.6090   -1.5300   22.8540 C   0  0  0  0  0  0  0  0  0  0  0  0
    8.6260   -1.9290   21.5770 F   0  0  0  0  0  0  0  0  0  0  0  0
    9.5410   -0.4290   23.3590 C   0  0  0  0  0  0  0  0  0  0  0  0
    9.7860    0.2680   24.7530 C   0  0  0  0  0  0  0  0  0  0  0  0
   10.7250    0.9430   23.8810 N   0  0  0  0  0  0  0  0  0  0  0  0
   12.0560    0.3640   23.5550 C   0  0  0  0  0  0  0  0  0  0  0  0
   12.8090   -0.1540   24.3800 O   0  0  0  0  0  0  0  0  0  0  0  0
   12.3780    0.4240   22.2370 N   0  0  0  0  0  0  0  0  0  0  0  0
   13.6370    0.0180   21.8310 C   0  0  0  0  0  0  0  0  0  0  0  0
   13.8100   -0.9800   20.7470 C   0  0  0  0  0  0  0  0  0  0  0  0
   14.5410   -0.4590   19.5000 C   0  0  0  0  0  0  0  0  0  0  0  0
   15.3310    0.8350   19.7170 C   0  0  0  0  0  0  0  0  0  0  0  0
   14.5320    1.2800   21.3380 C   0  0  0  0  0  0  0  0  0  0  0  0
   10.4600    2.3380   23.8260 C   0  0  0  0  0  0  0  0  0  0  0  0
   11.4310    3.2860   23.5520 C   0  0  0  0  0  0  0  0  0  0  0  0
   11.2100    4.6640   23.5040 C   0  0  0  0  0  0  0  0  0  0  0  0
    9.9310    5.1490   23.7370 C   0  0  0  0  0  0  0  0  0  0  0  0
    8.9260    4.2190   24.0130 C   0  0  0  0  0  0  0  0  0  0  0  0
    7.5810    4.4490   24.2780 N   0  0  0  0  0  0  0  0  0  0  0  0
    6.9330    3.2640   24.4990 C   0  0  0  0  0  0  0  0  0  0  0  0
    7.8760    2.2870   24.3730 C   0  0  0  0  0  0  0  0  0  0  0  0
    9.1520    2.8410   24.0640 C   0  0  0  0  0  0  0  0  0  0  0  0
    8.8120   -0.5170   25.3830 C   0  0  0  0  0  0  0  0  0  0  0  0
    8.4530   -1.1810   24.4240 C   0  0  0  0  0  0  0  0  0  0  0  0
    9.2100   -0.7490   23.4170 F   0  0  0  0  0  0  0  0  0  0  0  0
    6.8420   -4.1640   23.2170 C   0  0  0  0  0  0  0  0  0  0  0  0
    5.5270   -4.3810   22.4090 C   0  0  0  0  0  0  0  0  0  0  0  0
  1  2  1  0
  2  3  1  0
  3  4  2  0
  3  5  1  0
  5  6  1  0
  6  7  1  0
  7  8  1  0
  8  9  1  0
  9 10  2  0
 10 11  1  0
 10 12  1  0
 12 13  2  0
 13 14  1  0
 14 15  1  0
 15 16  2  0
 15 17  1  0
 17 18  1  0
 18 19  1  0
 19 20  1  0
 20 21  1  0
 18 22  1  0
 21 22  1  0
 14 23  1  0
 23 24  2  0
 24 25  1  0
 25 26  2  0
 26 27  1  0
 27 28  1  0
 28 29  1  0
 29 30  2  0
 23 31  1  0
 27 31  2  0
 30 31  1  0
 13 32  1  0
  9 33  1  0
 32 33  2  0
 33 34  1  0
  8 35  1  0
  5 36  1  0
 35 36  1  0
M  END
