NIM-UNI-310206f0-65-nitrile
     RDKit          3D

 34 38  0  0  0  0  0  0  0  0999 V2000
    6.5150   -4.2250   20.2700 C   0  0  0  0  0  0  0  0  0  0  0  0
    5.7120   -5.1880   20.0210 N   0  0  0  0  0  0  0  0  0  0  0  0
    6.4760   -3.5890   21.4870 N   0  0  0  0  0  0  0  0  0  0  0  0
    6.9200   -4.3510   22.6700 C   0  0  0  0  0  0  0  0  0  0  0  0
    8.0970   -3.6190   23.3170 C   0  0  0  0  0  0  0  0  0  0  0  0
    7.7440   -2.2510   23.6690 N   0  0  0  0  0  0  0  0  0  0  0  0
    8.7230   -1.3190   23.4380 C   0  0  0  0  0  0  0  0  0  0  0  0
    9.3190   -0.6730   22.2760 C   0  0  0  0  0  0  0  0  0  0  0  0
    8.9980   -0.8970   21.0050 F   0  0  0  0  0  0  0  0  0  0  0  0
   10.4580    0.4100   22.7680 C   0  0  0  0  0  0  0  0  0  0  0  0
   10.9960    0.8520   24.3080 C   0  0  0  0  0  0  0  0  0  0  0  0
   11.7390    1.6260   23.3530 N   0  0  0  0  0  0  0  0  0  0  0  0
   12.8090    1.0180   22.7250 C   0  0  0  0  0  0  0  0  0  0  0  0
   13.5760    1.5000   21.9090 O   0  0  0  0  0  0  0  0  0  0  0  0
   13.0020   -0.2560   23.1660 C   0  0  0  0  0  0  0  0  0  0  0  0
   12.9560   -0.5450   24.5060 C   0  0  0  0  0  0  0  0  0  0  0  0
   13.1920   -1.8910   24.9850 C   0  0  0  0  0  0  0  0  0  0  0  0
   13.4400   -2.8390   24.0710 C   0  0  0  0  0  0  0  0  0  0  0  0
   13.4780   -2.6650   22.7270 N   0  0  0  0  0  0  0  0  0  0  0  0
   13.2740   -1.4250   22.2390 C   0  0  0  0  0  0  0  0  0  0  0  0
   11.5250    3.0510   23.2300 C   0  0  0  0  0  0  0  0  0  0  0  0
   12.6780    4.0210   22.9970 C   0  0  0  0  0  0  0  0  0  0  0  0
   12.4350    5.3900   22.8910 C   0  0  0  0  0  0  0  0  0  0  0  0
   11.1360    5.8860   22.9960 C   0  0  0  0  0  0  0  0  0  0  0  0
   10.0720    5.0200   23.2060 C   0  0  0  0  0  0  0  0  0  0  0  0
    8.7130    5.3270   23.3360 N   0  0  0  0  0  0  0  0  0  0  0  0
    7.9520    4.1950   23.5350 C   0  0  0  0  0  0  0  0  0  0  0  0
    8.8490    3.1370   23.5350 C   0  0  0  0  0  0  0  0  0  0  0  0
   10.2310    3.6290   23.3240 C   0  0  0  0  0  0  0  0  0  0  0  0
   10.1290   -0.0320   24.9400 C   0  0  0  0  0  0  0  0  0  0  0  0
    9.5760   -0.5260   23.9300 C   0  0  0  0  0  0  0  0  0  0  0  0
   10.1690    0.0600   22.8890 F   0  0  0  0  0  0  0  0  0  0  0  0
    6.4560   -1.8610   23.0730 C   0  0  0  0  0  0  0  0  0  0  0  0
    6.4220   -2.1370   21.6960 C   0  0  0  0  0  0  0  0  0  0  0  0
  1  2  2  3
  1  3  1  0
  3  4  1  0
  4  5  1  0
  5  6  1  0
  6  7  1  0
  7  8  2  0
  8  9  1  0
  8 10  1  0
 10 11  2  0
 11 12  1  0
 12 13  1  0
 13 14  2  0
 13 15  1  0
 15 16  2  0
 16 17  1  0
 17 18  2  0
 18 19  1  0
 15 20  1  0
 19 20  2  0
 12 21  1  0
 21 22  2  0
 22 23  1  0
 23 24  2  0
 24 25  1  0
 25 26  1  0
 26 27  1  0
 27 28  2  0
 21 29  1  0
 25 29  2  0
 28 29  1  0
 11 30  1  0
  7 31  1  0
 30 31  2  0
 31 32  1  0
  6 33  1  0
  3 34  1  0
 33 34  1  0
M  END
