NIM-UNI-7ba87d62-1-chloroacetamide
     RDKit          3D

 32 35  0  0  0  0  0  0  0  0999 V2000
    7.5040   -4.0700   20.1220 C   0  0  0  0  0  0  0  0  0  0  0  0
    6.6460   -3.1570   19.3410 C   0  0  0  0  0  0  0  0  0  0  0  0
    6.6310   -3.0570   18.1330 O   0  0  0  0  0  0  0  0  0  0  0  0
    5.8740   -2.4590   20.1860 N   0  0  0  0  0  0  0  0  0  0  0  0
    6.6080   -2.2080   21.4030 C   0  0  0  0  0  0  0  0  0  0  0  0
    6.7620   -3.1510   22.3470 N   0  0  0  0  0  0  0  0  0  0  0  0
    7.5560   -2.7520   23.3470 C   0  0  0  0  0  0  0  0  0  0  0  0
    7.2130   -3.0290   24.7070 O   0  0  0  0  0  0  0  0  0  0  0  0
    8.7930   -2.0180   22.9680 N   0  0  0  0  0  0  0  0  0  0  0  0
    9.7510   -1.9960   24.0790 C   0  0  0  0  0  0  0  0  0  0  0  0
   10.7180   -1.1010   23.7200 C   0  0  0  0  0  0  0  0  0  0  0  0
   12.0100   -1.5330   23.0400 C   0  0  0  0  0  0  0  0  0  0  0  0
   13.0550   -0.5180   22.6390 C   0  0  0  0  0  0  0  0  0  0  0  0
   12.7600    0.9180   22.9280 C   0  0  0  0  0  0  0  0  0  0  0  0
   11.4590    1.2510   23.5960 C   0  0  0  0  0  0  0  0  0  0  0  0
   11.1530    2.5930   23.8610 C   0  0  0  0  0  0  0  0  0  0  0  0
    9.9940    2.9840   24.4870 C   0  0  0  0  0  0  0  0  0  0  0  0
    9.0660    2.0640   24.8960 C   0  0  0  0  0  0  0  0  0  0  0  0
    7.5500    2.4590   25.7360 S   0  0  0  0  0  0  0  0  0  0  0  0
    7.8700    2.0490   27.3380 N   0  0  0  0  0  0  0  0  0  0  0  0
    6.4960    1.5960   25.2540 O   0  0  0  0  0  0  0  0  0  0  0  0
    7.4000    3.8980   25.7180 O   0  0  0  0  0  0  0  0  0  0  0  0
    9.3350    0.7280   24.6310 C   0  0  0  0  0  0  0  0  0  0  0  0
   10.5010    0.2590   23.9810 C   0  0  0  0  0  0  0  0  0  0  0  0
    8.4470   -0.8410   22.3400 C   0  0  0  0  0  0  0  0  0  0  0  0
    7.1880   -0.8760   21.4420 C   0  0  0  0  0  0  0  0  0  0  0  0
    6.5820    0.1520   20.7270 C   0  0  0  0  0  0  0  0  0  0  0  0
    6.5460    0.1080   19.2240 C   0  0  0  0  0  0  0  0  0  0  0  0
    5.9050    1.1270   18.5530 C   0  0  0  0  0  0  0  0  0  0  0  0
    5.2780    2.2340   19.3940 C   0  0  0  0  0  0  0  0  0  0  0  0
    5.3250    2.2650   20.7430 N   0  0  0  0  0  0  0  0  0  0  0  0
    5.9610    1.2480   21.3740 C   0  0  0  0  0  0  0  0  0  0  0  0
  1  2  1  0
  2  3  2  0
  2  4  1  0
  4  5  1  0
  5  6  2  0
  6  7  1  0
  7  8  2  0
  7  9  1  0
  9 10  1  0
 10 11  1  0
 11 12  2  0
 12 13  1  0
 13 14  2  0
 14 15  1  0
 15 16  1  0
 16 17  2  0
 17 18  1  0
 18 19  1  0
 19 20  1  0
 19 21  2  0
 19 22  2  0
 18 23  2  0
 11 24  1  0
 15 24  2  0
 23 24  1  0
  9 25  1  0
  5 26  1  0
 25 26  2  0
 26 27  1  0
 27 28  2  0
 28 29  1  0
 29 30  2  0
 30 31  1  0
 27 32  1  0
 31 32  2  0
M  END
