NIM-UNI-310206f0-65-vinylsulfonamide
     RDKit          3D

 37 41  0  0  0  0  0  0  0  0999 V2000
    7.7840   -3.6710   20.0990 C   0  0  0  0  0  0  0  0  0  0  0  0
    7.1310   -2.6040   19.2070 C   0  0  0  0  0  0  0  0  0  0  0  0
    5.4810   -2.4900   19.8010 S   0  0  0  0  0  0  0  0  0  0  0  0
    4.7970   -3.7140   19.4490 O   0  0  0  0  0  0  0  0  0  0  0  0
    4.9870   -1.1990   19.3940 O   0  0  0  0  0  0  0  0  0  0  0  0
    5.7540   -2.4290   21.4910 N   0  0  0  0  0  0  0  0  0  0  0  0
    5.3620   -1.1810   22.1210 C   0  0  0  0  0  0  0  0  0  0  0  0
    5.0500   -1.4820   23.5790 C   0  0  0  0  0  0  0  0  0  0  0  0
    6.1620   -2.2760   24.0860 N   0  0  0  0  0  0  0  0  0  0  0  0
    7.3140   -1.5170   24.0220 C   0  0  0  0  0  0  0  0  0  0  0  0
    8.2620   -1.0320   23.0150 C   0  0  0  0  0  0  0  0  0  0  0  0
    8.2660   -1.2350   21.6890 F   0  0  0  0  0  0  0  0  0  0  0  0
    9.3710   -0.1410   23.8630 C   0  0  0  0  0  0  0  0  0  0  0  0
    9.6360    0.2690   25.3150 C   0  0  0  0  0  0  0  0  0  0  0  0
   10.6490    0.8180   24.4230 N   0  0  0  0  0  0  0  0  0  0  0  0
   11.8970    0.0650   24.2940 C   0  0  0  0  0  0  0  0  0  0  0  0
   12.8350    0.0440   25.0660 O   0  0  0  0  0  0  0  0  0  0  0  0
   11.9610   -0.7580   23.2170 C   0  0  0  0  0  0  0  0  0  0  0  0
   10.9110   -1.6560   22.7480 C   0  0  0  0  0  0  0  0  0  0  0  0
   11.1380   -2.4250   21.6510 C   0  0  0  0  0  0  0  0  0  0  0  0
   12.3460   -2.3950   20.9740 C   0  0  0  0  0  0  0  0  0  0  0  0
   13.4000   -1.6220   21.2770 N   0  0  0  0  0  0  0  0  0  0  0  0
   13.2310   -0.7720   22.4120 C   0  0  0  0  0  0  0  0  0  0  0  0
   10.3540    2.1120   23.9120 C   0  0  0  0  0  0  0  0  0  0  0  0
    9.0490    2.5950   24.1070 C   0  0  0  0  0  0  0  0  0  0  0  0
    8.6430    3.8480   23.6580 C   0  0  0  0  0  0  0  0  0  0  0  0
    9.5100    4.6850   22.9970 C   0  0  0  0  0  0  0  0  0  0  0  0
   10.8020    4.2580   22.7800 C   0  0  0  0  0  0  0  0  0  0  0  0
   11.8260    4.9600   22.1310 N   0  0  0  0  0  0  0  0  0  0  0  0
   12.9430    4.2040   22.1190 C   0  0  0  0  0  0  0  0  0  0  0  0
   12.5460    2.9670   22.8100 C   0  0  0  0  0  0  0  0  0  0  0  0
   11.2550    2.9810   23.2200 C   0  0  0  0  0  0  0  0  0  0  0  0
    8.5270   -0.4140   25.7730 C   0  0  0  0  0  0  0  0  0  0  0  0
    8.1630   -0.8370   24.6870 C   0  0  0  0  0  0  0  0  0  0  0  0
    9.0520   -0.3790   23.8070 F   0  0  0  0  0  0  0  0  0  0  0  0
    6.2050   -3.6270   23.4990 C   0  0  0  0  0  0  0  0  0  0  0  0
    5.4690   -3.6290   22.2980 C   0  0  0  0  0  0  0  0  0  0  0  0
  1  2  1  0
  3  2  1  0
  3  4  2  0
  3  5  2  0
  3  6  1  0
  6  7  1  0
  7  8  1  0
  8  9  1  0
  9 10  1  0
 10 11  2  0
 11 12  1  0
 11 13  1  0
 13 14  2  0
 14 15  1  0
 15 16  1  0
 16 17  2  0
 16 18  1  0
 18 19  2  0
 19 20  1  0
 20 21  2  0
 21 22  1  0
 18 23  1  0
 22 23  2  0
 15 24  1  0
 24 25  2  0
 25 26  1  0
 26 27  2  0
 27 28  1  0
 28 29  1  0
 29 30  1  0
 30 31  2  0
 24 32  1  0
 28 32  2  0
 31 32  1  0
 14 33  1  0
 10 34  1  0
 33 34  2  0
 34 35  1  0
  9 36  1  0
  6 37  1  0
 36 37  1  0
M  END
