NIM-UNI-43fe0159-12-nitrile
     RDKit          3D

 19 20  0  0  0  0  0  0  0  0999 V2000
    6.9740   -5.0070   20.4180 C   0  0  0  0  0  0  0  0  0  0  0  0
    5.8810   -5.5660   20.0070 N   0  0  0  0  0  0  0  0  0  0  0  0
    6.9830   -4.0680   21.3700 N   0  0  0  0  0  0  0  0  0  0  0  0
    7.5640   -2.7900   21.0430 C   0  0  0  0  0  0  0  0  0  0  0  0
    7.0490   -2.0600   21.9260 C   0  0  0  0  0  0  0  0  0  0  0  0
    7.7680   -2.1840   23.1650 C   0  0  2  0  0  0  0  0  0  0  0  0
    8.9890   -1.5300   23.2090 C   0  0  0  0  0  0  0  0  0  0  0  0
   10.0020   -1.7780   22.2590 C   0  0  0  0  0  0  0  0  0  0  0  0
   11.1980   -1.0910   22.3530 C   0  0  0  0  0  0  0  0  0  0  0  0
   11.4120   -0.0850   23.4590 C   0  0  0  0  0  0  0  0  0  0  0  0
   12.5550    0.6190   23.5810 C   0  0  0  0  0  0  0  0  0  0  0  0
   12.5870    2.2610   22.8850 S   0  0  0  0  0  0  0  0  0  0  0  0
   11.0690    3.0680   23.2860 C   0  0  0  0  0  0  0  0  0  0  0  0
    9.8980    2.3490   23.4750 C   0  0  0  0  0  0  0  0  0  0  0  0
   11.0400    4.2940   23.3850 O   0  0  0  0  0  0  0  0  0  0  0  0
   10.3820    0.0960   24.3610 C   0  0  0  0  0  0  0  0  0  0  0  0
    9.2010   -0.6080   24.2380 C   0  0  0  0  0  0  0  0  0  0  0  0
    8.0560   -3.5660   23.4310 O   0  0  0  0  0  0  0  0  0  0  0  0
    7.1970   -4.4760   22.7480 C   0  0  0  0  0  0  0  0  0  0  0  0
  1  2  2  3
  1  3  1  0
  3  4  1  0
  4  5  1  0
  5  6  1  0
  6  7  1  6
  7  8  2  0
  8  9  1  0
  9 10  2  0
 10 11  1  0
 11 12  1  0
 12 13  1  0
 13 14  1  0
 13 15  2  0
 10 16  1  0
  7 17  1  0
 16 17  2  0
  6 18  1  0
  3 19  1  0
 18 19  1  0
M  END
