NIM-UNI-310206f0-60-nitrile
     RDKit          3D

 31 34  0  0  0  0  0  0  0  0999 V2000
    6.4820   -4.1170   20.1680 C   0  0  0  0  0  0  0  0  0  0  0  0
    5.4340   -3.7670   19.5390 N   0  0  0  0  0  0  0  0  0  0  0  0
    6.6150   -3.7250   21.4790 N   0  0  0  0  0  0  0  0  0  0  0  0
    6.4300   -4.7250   22.5560 C   0  0  0  0  0  0  0  0  0  0  0  0
    7.0500   -4.2370   23.8710 C   0  0  0  0  0  0  0  0  0  0  0  0
    7.0190   -2.7770   23.9890 N   0  0  0  0  0  0  0  0  0  0  0  0
    8.2490   -2.1570   23.8080 C   0  0  0  0  0  0  0  0  0  0  0  0
    9.3350   -2.1150   22.8330 C   0  0  0  0  0  0  0  0  0  0  0  0
    9.4130   -2.7780   21.6910 F   0  0  0  0  0  0  0  0  0  0  0  0
   10.5040   -1.0850   23.3540 C   0  0  0  0  0  0  0  0  0  0  0  0
   10.6060   -0.1420   24.7630 C   0  0  0  0  0  0  0  0  0  0  0  0
   11.7970    0.0980   24.0120 N   0  0  0  0  0  0  0  0  0  0  0  0
   12.7000   -0.9780   23.7470 C   0  0  0  0  0  0  0  0  0  0  0  0
   13.4080   -1.4940   24.6090 O   0  0  0  0  0  0  0  0  0  0  0  0
   12.8040   -1.5580   22.4620 C   0  0  0  0  0  0  0  0  0  0  0  0
   13.5740   -0.8860   21.7920 O   0  0  0  0  0  0  0  0  0  0  0  0
   13.5110    0.4680   22.1790 C   0  0  0  0  0  0  0  0  0  0  0  0
   11.8790    1.3540   23.4400 C   0  0  0  0  0  0  0  0  0  0  0  0
   13.0350    1.8170   22.7640 C   0  0  0  0  0  0  0  0  0  0  0  0
   13.1050    3.0860   22.1970 C   0  0  0  0  0  0  0  0  0  0  0  0
   11.9510    4.0320   22.2720 C   0  0  0  0  0  0  0  0  0  0  0  0
   10.7310    3.5370   22.9890 C   0  0  0  0  0  0  0  0  0  0  0  0
    9.5020    4.1600   23.2340 N   0  0  0  0  0  0  0  0  0  0  0  0
    8.7160    3.2960   23.9270 C   0  0  0  0  0  0  0  0  0  0  0  0
    9.4720    2.1630   24.0960 C   0  0  0  0  0  0  0  0  0  0  0  0
   10.7290    2.2350   23.5430 C   0  0  0  0  0  0  0  0  0  0  0  0
    9.3860   -0.5810   25.2230 C   0  0  0  0  0  0  0  0  0  0  0  0
    9.0940   -1.3420   24.2980 C   0  0  0  0  0  0  0  0  0  0  0  0
   10.1130   -1.2790   23.4360 F   0  0  0  0  0  0  0  0  0  0  0  0
    5.9650   -2.1820   23.1310 C   0  0  0  0  0  0  0  0  0  0  0  0
    6.4350   -2.2860   21.8390 C   0  0  0  0  0  0  0  0  0  0  0  0
  1  2  2  3
  1  3  1  0
  3  4  1  0
  4  5  1  0
  5  6  1  0
  6  7  1  0
  7  8  2  0
  8  9  1  0
  8 10  1  0
 10 11  2  0
 11 12  1  0
 12 13  1  0
 13 14  2  0
 13 15  1  0
 15 16  1  0
 16 17  1  0
 12 18  1  0
 18 19  2  0
 19 20  1  0
 20 21  2  0
 21 22  1  0
 22 23  1  0
 23 24  1  0
 24 25  2  0
 18 26  1  0
 22 26  2  0
 25 26  1  0
 11 27  1  0
  7 28  1  0
 27 28  2  0
 28 29  1  0
  6 30  1  0
  3 31  1  0
 30 31  1  0
M  END
