NIM-UNI-363644a0-1-nitrile
     RDKit          3D

 29 32  0  0  0  0  0  0  0  0999 V2000
    6.6000   -3.1980   19.7890 C   0  0  0  0  0  0  0  0  0  0  0  0
    6.0620   -2.8850   18.6820 N   0  0  0  0  0  0  0  0  0  0  0  0
    6.3320   -2.2690   20.8870 N   0  0  0  0  0  0  0  0  0  0  0  0
    6.9580   -1.9990   22.1960 C   0  0  0  0  0  0  0  0  0  0  0  0
    6.0020   -1.7910   23.2710 C   0  0  0  0  0  0  0  0  0  0  0  0
    5.2490   -0.4680   23.1420 N   0  0  0  0  0  0  0  0  0  0  0  0
    4.2580   -0.1970   24.2940 C   0  0  0  0  0  0  0  0  0  0  0  0
    3.2420    0.8540   24.2920 C   0  0  0  0  0  0  0  0  0  0  0  0
    3.6590    2.2490   23.7760 C   0  0  0  0  0  0  0  0  0  0  0  0
    2.6060    3.3590   23.7810 C   0  0  0  0  0  0  0  0  0  0  0  0
    1.2200    3.0760   24.2770 C   0  0  0  0  0  0  0  0  0  0  0  0
    0.9290    1.6610   24.7670 C   0  0  0  0  0  0  0  0  0  0  0  0
   -0.5080    1.5190   25.2470 C   0  0  0  0  0  0  0  0  0  0  0  0
   -0.9000    0.1490   25.7720 C   0  0  0  0  0  0  0  0  0  0  0  0
    0.0760   -0.9020   25.7850 C   0  0  0  0  0  0  0  0  0  0  0  0
   -0.3850   -2.4150   26.3900 S   0  0  0  0  0  0  0  0  0  0  0  0
   -1.7070   -2.7980   25.4140 N   0  0  0  0  0  0  0  0  0  0  0  0
    0.6730   -3.3630   26.1500 O   0  0  0  0  0  0  0  0  0  0  0  0
   -0.9170   -2.2220   27.7230 O   0  0  0  0  0  0  0  0  0  0  0  0
    1.4930   -0.6230   25.2630 C   0  0  0  0  0  0  0  0  0  0  0  0
    1.8950    0.6230   24.7710 C   0  0  0  0  0  0  0  0  0  0  0  0
    4.5860   -0.4620   21.8160 C   0  0  0  0  0  0  0  0  0  0  0  0
    5.2520   -1.2680   20.6590 C   0  0  1  0  0  0  0  0  0  0  0  0
    5.4110   -0.2070   19.6260 C   0  0  0  0  0  0  0  0  0  0  0  0
    6.5690    0.0560   18.7220 C   0  0  0  0  0  0  0  0  0  0  0  0
    6.3840    1.1160   17.8690 C   0  0  0  0  0  0  0  0  0  0  0  0
    5.0950    1.9340   17.8650 C   0  0  0  0  0  0  0  0  0  0  0  0
    4.0620    1.7200   18.6680 N   0  0  0  0  0  0  0  0  0  0  0  0
    4.1870    0.7050   19.5130 C   0  0  0  0  0  0  0  0  0  0  0  0
  1  2  2  3
  1  3  1  0
  3  4  1  0
  4  5  1  0
  5  6  1  0
  6  7  1  0
  7  8  1  0
  8  9  2  0
  9 10  1  0
 10 11  2  0
 11 12  1  0
 12 13  1  0
 13 14  2  0
 14 15  1  0
 15 16  1  0
 16 17  1  0
 16 18  2  0
 16 19  2  0
 15 20  2  0
  8 21  1  0
 12 21  2  0
 20 21  1  0
  6 22  1  0
  3 23  1  0
 22 23  1  0
 23 24  1  6
 24 25  2  0
 25 26  1  0
 26 27  2  0
 27 28  1  0
 24 29  1  0
 28 29  2  0
M  END
