NIM-UNI-bb9030bf-15-chloroacetamide
     RDKit          3D

 20 21  0  0  0  0  0  0  0  0999 V2000
    7.0800   -4.3770   20.7200 C   0  0  0  0  0  0  0  0  0  0  0  0
    6.6200   -3.2240   19.9020 C   0  0  0  0  0  0  0  0  0  0  0  0
    5.6360   -3.3340   19.1530 O   0  0  0  0  0  0  0  0  0  0  0  0
    7.3320   -2.0500   20.0660 N   0  0  0  0  0  0  0  0  0  0  0  0
    6.8970   -0.9490   20.8840 C   0  0  1  0  0  0  0  0  0  0  0  0
    8.0950   -0.2920   21.5650 C   0  0  0  0  0  0  0  0  0  0  0  0
    8.3240    1.0210   21.0470 O   0  0  0  0  0  0  0  0  0  0  0  0
    8.8520   -0.8680   22.5260 N   0  0  0  0  0  0  0  0  0  0  0  0
   10.1430   -0.6300   22.3630 C   0  0  0  0  0  0  0  0  0  0  0  0
   10.8530    0.1350   23.2440 C   0  0  0  0  0  0  0  0  0  0  0  0
   11.9240    0.7500   23.9480 C   0  0  0  0  0  0  0  0  0  0  0  0
   13.1190    0.4200   23.5530 N   0  0  0  0  0  0  0  0  0  0  0  0
   12.8860   -0.4480   22.5540 C   0  0  0  0  0  0  0  0  0  0  0  0
   11.6630   -0.5470   22.4500 O   0  0  0  0  0  0  0  0  0  0  0  0
    6.2750   -0.0270   19.8430 C   0  0  0  0  0  0  0  0  0  0  0  0
    5.1100    0.6570   20.1150 C   0  0  0  0  0  0  0  0  0  0  0  0
    4.5490    1.4750   19.1500 C   0  0  0  0  0  0  0  0  0  0  0  0
    5.1990    1.5760   17.9200 C   0  0  0  0  0  0  0  0  0  0  0  0
    6.3010    0.9420   17.6410 N   0  0  0  0  0  0  0  0  0  0  0  0
    6.8330    0.1460   18.6000 C   0  0  0  0  0  0  0  0  0  0  0  0
  1  2  1  0
  2  3  2  0
  2  4  1  0
  5  4  1  6
  5  6  1  0
  6  7  2  0
  6  8  1  0
  8  9  1  0
  9 10  1  0
 10 11  2  0
 11 12  1  0
 12 13  2  0
 10 14  1  0
 13 14  1  0
  5 15  1  0
 15 16  2  0
 16 17  1  0
 17 18  2  0
 18 19  1  0
 15 20  1  0
 19 20  2  0
M  END
