NIM-UNI-bb9030bf-15-acrylamide
     RDKit          3D

 21 22  0  0  0  0  0  0  0  0999 V2000
    7.9290   -3.6690   20.0840 C   0  0  0  0  0  0  0  0  0  0  0  0
    6.7610   -2.8020   19.6720 C   0  0  0  0  0  0  0  0  0  0  0  0
    5.6180   -3.1700   20.5660 C   0  0  0  0  0  0  0  0  0  0  0  0
    4.8190   -3.2180   21.5100 O   0  0  0  0  0  0  0  0  0  0  0  0
    6.2330   -2.1520   21.3280 N   0  0  0  0  0  0  0  0  0  0  0  0
    7.1790   -1.2110   20.6510 C   0  0  2  0  0  0  0  0  0  0  0  0
    8.2060   -0.4880   21.4890 C   0  0  0  0  0  0  0  0  0  0  0  0
    8.3680    0.7170   21.2440 O   0  0  0  0  0  0  0  0  0  0  0  0
    8.9750   -1.1390   22.4860 N   0  0  0  0  0  0  0  0  0  0  0  0
   10.0200   -0.2680   22.9860 C   0  0  0  0  0  0  0  0  0  0  0  0
   11.2700   -0.7250   22.6270 C   0  0  0  0  0  0  0  0  0  0  0  0
   12.6330   -0.7180   22.5340 C   0  0  0  0  0  0  0  0  0  0  0  0
   13.2130    0.3160   23.1000 N   0  0  0  0  0  0  0  0  0  0  0  0
   12.4120    1.1960   23.6730 C   0  0  0  0  0  0  0  0  0  0  0  0
   11.3850    0.5240   23.3510 O   0  0  0  0  0  0  0  0  0  0  0  0
    6.4020   -0.2460   19.7960 C   0  0  0  0  0  0  0  0  0  0  0  0
    5.1930    0.3450   20.1790 C   0  0  0  0  0  0  0  0  0  0  0  0
    4.5590    1.2220   19.2890 C   0  0  0  0  0  0  0  0  0  0  0  0
    5.1500    1.4780   18.0580 C   0  0  0  0  0  0  0  0  0  0  0  0
    6.3130    0.9140   17.6860 N   0  0  0  0  0  0  0  0  0  0  0  0
    6.8980    0.0730   18.5620 C   0  0  0  0  0  0  0  0  0  0  0  0
  1  2  1  0
  2  3  1  0
  3  4  2  0
  3  5  1  0
  6  5  1  1
  6  7  1  0
  7  8  2  0
  7  9  1  0
  9 10  1  0
 10 11  1  0
 11 12  2  0
 12 13  1  0
 13 14  2  0
 11 15  1  0
 14 15  1  0
  6 16  1  0
 16 17  2  0
 17 18  1  0
 18 19  2  0
 19 20  1  0
 16 21  1  0
 20 21  2  0
M  END
