NIM-UNI-43fe0159-5-acrylamide
     RDKit          3D

 17 18  0  0  0  0  0  0  0  0999 V2000
    7.2460   -3.2460   19.1480 C   0  0  0  0  0  0  0  0  0  0  0  0
    5.9930   -2.6860   19.7490 C   0  0  0  0  0  0  0  0  0  0  0  0
    5.9440   -3.1320   21.1870 C   0  0  0  0  0  0  0  0  0  0  0  0
    5.0100   -3.7530   21.6580 O   0  0  0  0  0  0  0  0  0  0  0  0
    7.0400   -2.8440   21.9680 N   0  0  0  0  0  0  0  0  0  0  0  0
    8.0400   -1.9270   21.5090 C   0  0  0  0  0  0  0  0  0  0  0  0
    8.4510   -1.3410   22.6560 C   0  0  0  0  0  0  0  0  0  0  0  0
    9.2730   -2.0690   23.4860 C   0  0  2  0  0  0  0  0  0  0  0  0
   10.6740   -1.8880   23.4080 C   0  0  0  0  0  0  0  0  0  0  0  0
    9.9210   -0.4670   23.2590 C   0  0  0  0  0  0  0  0  0  0  0  0
   10.4290    0.8150   23.0790 C   0  0  0  0  0  0  0  0  0  0  0  0
   11.7980    0.7010   23.0500 C   0  0  0  0  0  0  0  0  0  0  0  0
   11.1350   -0.9030   23.2790 S   0  0  0  0  0  0  0  0  0  0  0  0
   12.7200   -0.1970   23.1310 C   0  0  0  0  0  0  0  0  0  0  0  0
   12.1150   -1.4660   23.3010 C   0  0  0  0  0  0  0  0  0  0  0  0
    8.8570   -3.4550   23.3820 O   0  0  0  0  0  0  0  0  0  0  0  0
    7.4510   -3.6110   23.1290 C   0  0  0  0  0  0  0  0  0  0  0  0
  1  2  1  0
  2  3  1  0
  3  4  2  0
  3  5  1  0
  5  6  1  0
  6  7  1  0
  7  8  1  0
  8  9  1  6
  9 10  2  0
 10 11  1  0
 11 12  2  0
 12 13  1  0
 12 14  1  0
  9 15  1  0
 14 15  2  0
  8 16  1  0
  5 17  1  0
 16 17  1  0
M  END
