NIM-UNI-36e12f95-2
     RDKit          3D

 26 29  0  0  0  0  0  0  0  0999 V2000
    6.3300   -2.1620   18.8480 C   0  0  0  0  0  0  0  0  0  0  0  0
    5.9840   -3.0580   20.0170 C   0  0  0  0  0  0  0  0  0  0  0  0
    5.4430   -4.1580   19.8230 O   0  0  0  0  0  0  0  0  0  0  0  0
    6.3130   -2.5770   21.2840 N   0  0  0  0  0  0  0  0  0  0  0  0
    7.1300   -1.3710   21.4160 C   0  0  0  0  0  0  0  0  0  0  0  0
    8.5340   -1.6930   21.9210 C   0  0  0  0  0  0  0  0  0  0  0  0
    8.4450   -2.2590   23.2620 N   0  0  0  0  0  0  0  0  0  0  0  0
    9.7180   -2.3830   23.9840 C   0  0  0  0  0  0  0  0  0  0  0  0
   10.7720   -1.3260   23.6350 C   0  0  0  0  0  0  0  0  0  0  0  0
   10.4940    0.0300   24.2380 C   0  0  0  0  0  0  0  0  0  0  0  0
   11.4670    1.1510   23.9600 C   0  0  0  0  0  0  0  0  0  0  0  0
   12.6890    0.8890   23.0950 C   0  0  0  0  0  0  0  0  0  0  0  0
   12.9420   -0.4890   22.5020 C   0  0  0  0  0  0  0  0  0  0  0  0
   11.9010   -1.5440   22.8410 C   0  0  0  0  0  0  0  0  0  0  0  0
    7.5980   -3.4480   23.3000 C   0  0  1  0  0  0  0  0  0  0  0  0
    7.1530   -3.7580   24.5990 N   0  0  0  0  0  0  0  0  0  0  0  0
    5.9550   -3.0730   24.7130 C   0  0  0  0  0  0  0  0  0  0  0  0
    5.6650   -2.3730   25.6750 O   0  0  0  0  0  0  0  0  0  0  0  0
    5.2370   -3.3820   23.5380 N   0  0  0  0  0  0  0  0  0  0  0  0
    4.0960   -4.2240   23.6150 C   0  0  0  0  0  0  0  0  0  0  0  0
    2.9810   -3.8640   24.3870 C   0  0  0  0  0  0  0  0  0  0  0  0
    1.8780   -4.7210   24.4410 C   0  0  0  0  0  0  0  0  0  0  0  0
    1.9040   -5.9130   23.7290 C   0  0  0  0  0  0  0  0  0  0  0  0
    2.9470   -6.2960   22.9810 N   0  0  0  0  0  0  0  0  0  0  0  0
    4.0110   -5.4490   22.9440 C   0  0  0  0  0  0  0  0  0  0  0  0
    6.2520   -3.4430   22.4900 C   0  0  1  0  0  0  0  0  0  0  0  0
  1  2  1  0
  2  3  2  0
  2  4  1  0
  4  5  1  0
  5  6  1  0
  6  7  1  0
  7  8  1  0
  8  9  1  0
  9 10  2  0
 10 11  1  0
 11 12  2  0
 12 13  1  0
  9 14  1  0
 13 14  2  0
  7 15  1  0
 15 16  1  1
 16 17  1  0
 17 18  2  0
 17 19  1  0
 19 20  1  0
 20 21  2  0
 21 22  1  0
 22 23  2  0
 23 24  1  0
 20 25  1  0
 24 25  2  0
 26  4  1  6
 15 26  1  0
 19 26  1  0
M  END
