NIM-UNI-310206f0-71-vinylsulfonamide
     RDKit          3D

 24 26  0  0  0  0  0  0  0  0999 V2000
    7.2500   -2.8110   18.3600 C   0  0  0  0  0  0  0  0  0  0  0  0
    6.4790   -2.1830   19.5230 C   0  0  0  0  0  0  0  0  0  0  0  0
    5.6880   -3.4420   20.4800 S   0  0  0  0  0  0  0  0  0  0  0  0
    4.6660   -2.9270   21.3120 O   0  0  0  0  0  0  0  0  0  0  0  0
    5.4310   -4.6300   19.7050 O   0  0  0  0  0  0  0  0  0  0  0  0
    6.8700   -3.7120   21.6180 N   0  0  0  0  0  0  0  0  0  0  0  0
    6.3450   -4.5550   22.6770 C   0  0  0  0  0  0  0  0  0  0  0  0
    7.3730   -4.7560   23.7660 C   0  0  0  0  0  0  0  0  0  0  0  0
    8.0520   -3.5020   24.0510 N   0  0  0  0  0  0  0  0  0  0  0  0
    9.0020   -3.4130   25.4420 S   0  0  0  0  0  0  0  0  0  0  0  0
    9.7870   -4.6260   25.5830 O   0  0  0  0  0  0  0  0  0  0  0  0
    8.1050   -2.9590   26.4670 O   0  0  0  0  0  0  0  0  0  0  0  0
   10.0680   -2.1260   24.8900 C   0  0  0  0  0  0  0  0  0  0  0  0
   10.2810   -0.6340   25.3440 C   0  0  0  0  0  0  0  0  0  0  0  0
   11.2910   -0.4940   24.2270 C   0  0  0  0  0  0  0  0  0  0  0  0
   11.6550   -1.4220   23.3590 C   0  0  0  0  0  0  0  0  0  0  0  0
   12.4900   -1.1390   22.4200 C   0  0  0  0  0  0  0  0  0  0  0  0
   12.7290   -1.9030   21.3460 C   0  0  0  0  0  0  0  0  0  0  0  0
   13.5860   -1.2640   20.6010 N   0  0  0  0  0  0  0  0  0  0  0  0
   13.7850   -0.1300   21.3150 N   0  0  0  0  0  0  0  0  0  0  0  0
   13.1380   -0.0180   22.4790 C   0  0  0  0  0  0  0  0  0  0  0  0
   10.9220   -2.8270   23.6060 S   0  0  0  0  0  0  0  0  0  0  0  0
    8.4950   -2.7110   22.9180 C   0  0  0  0  0  0  0  0  0  0  0  0
    7.4680   -2.4790   22.0470 C   0  0  0  0  0  0  0  0  0  0  0  0
  1  2  1  0
  3  2  1  0
  3  4  2  0
  3  5  2  0
  3  6  1  0
  6  7  1  0
  7  8  1  0
  8  9  1  0
  9 10  1  0
 10 11  2  0
 10 12  2  0
 10 13  1  0
 13 14  2  0
 14 15  1  0
 15 16  2  0
 16 17  1  0
 17 18  1  0
 18 19  2  0
 19 20  1  0
 17 21  2  0
 20 21  1  0
 13 22  1  0
 16 22  1  0
  9 23  1  0
  6 24  1  0
 23 24  1  0
M  END
