NIM-UNI-ed9fc491-2-vinylsulfonamide
     RDKit          3D

 29 30  0  0  0  0  0  0  0  0999 V2000
    9.0350   -5.3060   20.9710 C   0  0  0  0  0  0  0  0  0  0  0  0
    7.6620   -5.8620   21.4430 C   0  0  0  0  0  0  0  0  0  0  0  0
    6.6080   -4.5870   22.1620 S   0  0  0  0  0  0  0  0  0  0  0  0
    5.2800   -4.2830   21.3360 O   0  0  0  0  0  0  0  0  0  0  0  0
    6.3760   -5.0560   23.5200 O   0  0  0  0  0  0  0  0  0  0  0  0
    7.9160   -3.4110   22.4280 N   0  0  0  0  0  0  0  0  0  0  0  0
    8.9610   -3.2700   21.3660 C   0  0  0  0  0  0  0  0  0  0  0  0
   10.3330   -3.6070   21.7180 C   0  0  0  0  0  0  0  0  0  0  0  0
   10.7590   -2.8560   22.8940 N   0  0  0  0  0  0  0  0  0  0  0  0
   10.7360   -1.4750   22.5190 C   0  0  0  0  0  0  0  0  0  0  0  0
    9.6670   -0.8390   23.2890 C   0  0  0  0  0  0  0  0  0  0  0  0
    9.9100    0.5770   23.1170 N   0  0  0  0  0  0  0  0  0  0  0  0
    8.9990    1.2350   22.1940 C   0  0  0  0  0  0  0  0  0  0  0  0
    9.3270    1.4430   20.9130 O   0  0  0  0  0  0  0  0  0  0  0  0
    7.7460    1.6800   22.6640 C   0  0  2  0  0  0  0  0  0  0  0  0
    6.5850    0.7640   22.5190 C   0  0  0  0  0  0  0  0  0  0  0  0
    5.9400    1.0050   21.2120 C   0  0  0  0  0  0  0  0  0  0  0  0
    5.4420    1.1910   20.2040 C   0  0  0  0  0  0  0  0  0  0  0  0
    4.8490    1.4140   19.0040 C   0  0  0  0  0  0  0  0  0  0  0  0
    5.6380    0.7380   18.1330 C   0  0  0  0  0  0  0  0  0  0  0  0
    5.4590    0.6770   16.9420 O   0  0  0  0  0  0  0  0  0  0  0  0
    6.6870    0.1580   18.8940 C   0  0  0  0  0  0  0  0  0  0  0  0
    6.8530    0.2580   20.3380 C   0  0  0  0  0  0  0  0  0  0  0  0
    7.4920    2.9150   21.9860 N   0  0  0  0  0  0  0  0  0  0  0  0
    7.0880    4.0080   22.6720 C   0  0  0  0  0  0  0  0  0  0  0  0
    7.6830    5.1860   22.1550 C   0  0  0  0  0  0  0  0  0  0  0  0
    6.2040    3.9760   23.7650 O   0  0  0  0  0  0  0  0  0  0  0  0
    9.7770   -3.1730   23.9480 C   0  0  0  0  0  0  0  0  0  0  0  0
    8.3720   -3.1790   23.8330 C   0  0  0  0  0  0  0  0  0  0  0  0
  1  2  1  0
  3  2  1  0
  3  4  2  0
  3  5  2  0
  3  6  1  0
  6  7  1  0
  7  8  1  0
  8  9  1  0
  9 10  1  0
 10 11  1  0
 11 12  1  0
 12 13  1  0
 13 14  2  0
 13 15  1  0
 15 16  1  6
 16 17  1  0
 17 18  2  0
 18 19  1  0
 19 20  2  0
 20 21  1  0
 20 22  1  0
 17 23  1  0
 22 23  2  0
 15 24  1  0
 24 25  1  0
 25 26  1  0
 25 27  2  0
  9 28  1  0
  6 29  1  0
 28 29  1  0
M  END
