NIM-UNI-310206f0-64-chloroacetamide
     RDKit          3D

 35 39  0  0  0  0  0  0  0  0999 V2000
    6.9850   -3.1150   19.0600 C   0  0  0  0  0  0  0  0  0  0  0  0
    5.9890   -3.6260   20.1060 C   0  0  0  0  0  0  0  0  0  0  0  0
    5.1140   -4.4050   19.7830 O   0  0  0  0  0  0  0  0  0  0  0  0
    6.0950   -3.2300   21.4290 N   0  0  0  0  0  0  0  0  0  0  0  0
    6.5320   -1.8740   21.6480 C   0  0  0  0  0  0  0  0  0  0  0  0
    8.0140   -1.8790   21.9270 C   0  0  0  0  0  0  0  0  0  0  0  0
    8.3790   -2.8330   22.9820 N   0  0  0  0  0  0  0  0  0  0  0  0
    9.2470   -2.2410   23.8610 C   0  0  0  0  0  0  0  0  0  0  0  0
    9.6660   -1.2320   22.7880 C   0  0  0  0  0  0  0  0  0  0  0  0
    9.1690   -1.2470   21.5400 F   0  0  0  0  0  0  0  0  0  0  0  0
   10.7580   -0.0750   23.1680 C   0  0  0  0  0  0  0  0  0  0  0  0
   11.4770    0.2020   24.4350 C   0  0  0  0  0  0  0  0  0  0  0  0
   11.8410    1.1710   23.4240 N   0  0  0  0  0  0  0  0  0  0  0  0
   13.0160    0.9600   22.6010 C   0  0  0  0  0  0  0  0  0  0  0  0
   13.5760   -0.0860   22.2790 O   0  0  0  0  0  0  0  0  0  0  0  0
   13.4590    2.1810   22.1860 C   0  0  0  0  0  0  0  0  0  0  0  0
   12.6450    3.3800   22.3060 C   0  0  0  0  0  0  0  0  0  0  0  0
   13.3120    4.4520   21.8380 C   0  0  0  0  0  0  0  0  0  0  0  0
   12.8700    5.7680   21.8050 C   0  0  0  0  0  0  0  0  0  0  0  0
   14.5150    3.9900   21.4050 O   0  0  0  0  0  0  0  0  0  0  0  0
   14.6140    2.5850   21.6350 N   0  0  0  0  0  0  0  0  0  0  0  0
   10.8960    2.3670   23.2210 C   0  0  0  0  0  0  0  0  0  0  0  0
   11.4980    3.7640   23.4130 C   0  0  0  0  0  0  0  0  0  0  0  0
   10.7090    4.9060   23.2560 C   0  0  0  0  0  0  0  0  0  0  0  0
    9.3700    4.7780   22.9160 C   0  0  0  0  0  0  0  0  0  0  0  0
    8.7840    3.5430   22.7240 C   0  0  0  0  0  0  0  0  0  0  0  0
    7.4490    3.2610   22.3730 N   0  0  0  0  0  0  0  0  0  0  0  0
    7.2430    1.9090   22.2740 C   0  0  0  0  0  0  0  0  0  0  0  0
    8.4580    1.3380   22.5670 C   0  0  0  0  0  0  0  0  0  0  0  0
    9.5100    2.3310   22.8680 C   0  0  0  0  0  0  0  0  0  0  0  0
   10.8520   -0.8450   24.9650 C   0  0  0  0  0  0  0  0  0  0  0  0
   10.1050   -1.2920   24.0110 C   0  0  0  0  0  0  0  0  0  0  0  0
   10.2910   -0.5630   22.9130 F   0  0  0  0  0  0  0  0  0  0  0  0
    7.2590   -3.6300   23.5200 C   0  0  0  0  0  0  0  0  0  0  0  0
    6.4680   -4.1780   22.4930 C   0  0  0  0  0  0  0  0  0  0  0  0
  1  2  1  0
  2  3  2  0
  2  4  1  0
  4  5  1  0
  5  6  1  0
  6  7  1  0
  7  8  1  0
  8  9  2  0
  9 10  1  0
  9 11  1  0
 11 12  2  0
 12 13  1  0
 13 14  1  0
 14 15  2  0
 14 16  1  0
 16 17  1  0
 17 18  2  0
 18 19  1  0
 18 20  1  0
 16 21  2  0
 20 21  1  0
 13 22  1  0
 22 23  2  0
 23 24  1  0
 24 25  2  0
 25 26  1  0
 26 27  1  0
 27 28  1  0
 28 29  2  0
 22 30  1  0
 26 30  2  0
 29 30  1  0
 12 31  1  0
  8 32  1  0
 31 32  2  0
 32 33  1  0
  7 34  1  0
  4 35  1  0
 34 35  1  0
M  END
