NIM-UNI-43fe0159-5-chloroacetamide
     RDKit          3D

 16 17  0  0  0  0  0  0  0  0999 V2000
    7.3940   -3.0070   18.8670 C   0  0  0  0  0  0  0  0  0  0  0  0
    6.5410   -3.4010   20.0720 C   0  0  0  0  0  0  0  0  0  0  0  0
    5.6260   -4.2540   19.8820 O   0  0  0  0  0  0  0  0  0  0  0  0
    6.8330   -2.8200   21.3410 N   0  0  0  0  0  0  0  0  0  0  0  0
    7.7730   -1.7780   21.3840 C   0  0  0  0  0  0  0  0  0  0  0  0
    9.0020   -2.3960   21.6870 C   0  0  0  0  0  0  0  0  0  0  0  0
    9.1420   -2.4460   23.0550 C   0  0  1  0  0  0  0  0  0  0  0  0
    9.7930   -1.3260   23.7150 C   0  0  0  0  0  0  0  0  0  0  0  0
   10.8600   -1.9600   22.7730 C   0  0  0  0  0  0  0  0  0  0  0  0
   12.3940   -1.6280   22.4200 C   0  0  0  0  0  0  0  0  0  0  0  0
   11.6790   -1.0110   23.2220 C   0  0  0  0  0  0  0  0  0  0  0  0
   10.0750   -1.7720   23.3040 S   0  0  0  0  0  0  0  0  0  0  0  0
   11.7460    0.0230   24.0140 C   0  0  0  0  0  0  0  0  0  0  0  0
   10.4670   -0.1670   24.3990 C   0  0  0  0  0  0  0  0  0  0  0  0
    7.8390   -2.9280   23.5560 O   0  0  0  0  0  0  0  0  0  0  0  0
    7.0510   -3.6550   22.5440 C   0  0  0  0  0  0  0  0  0  0  0  0
  1  2  1  0
  2  3  2  0
  2  4  1  0
  4  5  1  0
  5  6  1  0
  6  7  1  0
  7  8  1  1
  8  9  2  0
  9 10  1  0
 10 11  2  0
 11 12  1  0
 11 13  1  0
  8 14  1  0
 13 14  2  0
  7 15  1  0
  4 16  1  0
 15 16  1  0
M  END
