NIM-UNI-05f93fcc-3-chloroacetamide
     RDKit          3D

 24 26  0  0  0  0  0  0  0  0999 V2000
    7.8530   -3.6110   20.3350 C   0  0  0  0  0  0  0  0  0  0  0  0
    6.5740   -4.3770   20.6270 C   0  0  0  0  0  0  0  0  0  0  0  0
    5.5920   -4.3370   19.8620 O   0  0  0  0  0  0  0  0  0  0  0  0
    6.5290   -5.1120   21.7940 N   0  0  0  0  0  0  0  0  0  0  0  0
    7.3930   -4.8100   22.9140 C   0  0  0  0  0  0  0  0  0  0  0  0
    6.6330   -4.9830   24.2180 C   0  0  0  0  0  0  0  0  0  0  0  0
    5.3490   -5.3940   24.2180 N   0  0  0  0  0  0  0  0  0  0  0  0
    4.5490   -5.6200   25.7010 S   0  0  0  0  0  0  0  0  0  0  0  0
    5.5230   -5.3910   26.7530 O   0  0  0  0  0  0  0  0  0  0  0  0
    3.7900   -6.8430   25.6460 O   0  0  0  0  0  0  0  0  0  0  0  0
    3.3810   -4.2870   25.7960 C   0  0  0  0  0  0  0  0  0  0  0  0
    2.0570   -4.2200   25.7300 C   0  0  0  0  0  0  0  0  0  0  0  0
    1.5650   -2.9520   25.8500 C   0  0  0  0  0  0  0  0  0  0  0  0
    2.3610   -1.7740   26.0290 C   0  0  0  0  0  0  0  0  0  0  0  0
    3.5070   -1.0220   26.1770 C   0  0  0  0  0  0  0  0  0  0  0  0
    4.7480   -1.6490   26.0860 C   0  0  0  0  0  0  0  0  0  0  0  0
    5.9280   -0.9670   26.2260 C   0  0  0  0  0  0  0  0  0  0  0  0
    5.8930    0.4090   26.4680 C   0  0  0  0  0  0  0  0  0  0  0  0
    4.6440    1.0730   26.5660 C   0  0  0  0  0  0  0  0  0  0  0  0
    3.4510    0.3480   26.4190 C   0  0  0  0  0  0  0  0  0  0  0  0
    1.9610    1.2240   26.5550 Cl  0  0  0  0  0  0  0  0  0  0  0  0
    3.8540   -2.7060   26.0020 S   0  0  0  0  0  0  0  0  0  0  0  0
    4.7830   -5.8910   23.0270 C   0  0  0  0  0  0  0  0  0  0  0  0
    5.6780   -6.1710   22.0030 C   0  0  0  0  0  0  0  0  0  0  0  0
  1  2  1  0
  2  3  2  0
  2  4  1  0
  4  5  1  0
  5  6  1  0
  6  7  1  0
  7  8  1  0
  8  9  2  0
  8 10  2  0
  8 11  1  0
 11 12  2  0
 12 13  1  0
 13 14  2  0
 14 15  1  0
 15 16  2  0
 16 17  1  0
 17 18  2  0
 18 19  1  0
 15 20  1  0
 19 20  2  0
 20 21  1  0
 11 22  1  0
 14 22  1  0
  7 23  1  0
  4 24  1  0
 23 24  1  0
M  END
