NIM-UNI-43fe0159-8-acrylamide
     RDKit          3D

 21 22  0  0  0  0  0  0  0  0999 V2000
    6.8630   -3.0420   18.9930 C   0  0  0  0  0  0  0  0  0  0  0  0
    5.6970   -3.5920   19.7810 C   0  0  0  0  0  0  0  0  0  0  0  0
    5.7080   -3.2360   21.2470 C   0  0  0  0  0  0  0  0  0  0  0  0
    4.7640   -3.6000   21.9420 O   0  0  0  0  0  0  0  0  0  0  0  0
    6.7630   -2.5180   21.7890 N   0  0  0  0  0  0  0  0  0  0  0  0
    7.0370   -1.1870   21.2690 C   0  0  0  0  0  0  0  0  0  0  0  0
    8.1280   -0.6660   21.9270 C   0  0  0  0  0  0  0  0  0  0  0  0
    9.0920   -1.5370   22.4460 C   0  0  1  0  0  0  0  0  0  0  0  0
   10.2140   -0.9240   23.0320 C   0  0  0  0  0  0  0  0  0  0  0  0
   11.6050   -0.3020   23.6020 C   0  0  0  0  0  0  0  0  0  0  0  0
   12.9320   -0.5100   23.2230 C   0  0  0  0  0  0  0  0  0  0  0  0
   12.9330   -1.4180   22.1870 C   0  0  0  0  0  0  0  0  0  0  0  0
   11.6690   -1.1830   22.6440 C   0  0  0  0  0  0  0  0  0  0  0  0
   11.3140   -2.1660   23.6270 N   0  0  0  0  0  0  0  0  0  0  0  0
   12.0930   -2.6380   24.6820 C   0  0  0  0  0  0  0  0  0  0  0  0
   11.4070   -3.5280   25.5120 C   0  0  0  0  0  0  0  0  0  0  0  0
   13.2560   -2.3180   24.8840 O   0  0  0  0  0  0  0  0  0  0  0  0
   12.0700   -2.1090   21.4950 C   0  0  0  0  0  0  0  0  0  0  0  0
   10.7310   -1.8340   21.9460 C   0  0  0  0  0  0  0  0  0  0  0  0
    8.5200   -2.4090   23.4320 O   0  0  0  0  0  0  0  0  0  0  0  0
    7.1480   -2.6990   23.2030 C   0  0  0  0  0  0  0  0  0  0  0  0
  1  2  1  0
  2  3  1  0
  3  4  2  0
  3  5  1  0
  5  6  1  0
  6  7  1  0
  7  8  1  0
  8  9  1  1
  9 10  2  0
 10 11  1  0
 11 12  2  0
 12 13  1  0
 13 14  1  0
 14 15  1  0
 15 16  1  0
 15 17  2  0
 12 18  1  0
  9 19  1  0
 18 19  2  0
  8 20  1  0
  5 21  1  0
 20 21  1  0
M  END
