NIM-UNI-05f93fcc-7-chloroacetamide
     RDKit          3D

 25 27  0  0  0  0  0  0  0  0999 V2000
    7.2340   -3.3820   19.7960 C   0  0  0  0  0  0  0  0  0  0  0  0
    6.3570   -4.3980   20.5080 C   0  0  0  0  0  0  0  0  0  0  0  0
    5.3120   -4.7200   19.9510 O   0  0  0  0  0  0  0  0  0  0  0  0
    6.7030   -4.9800   21.7200 N   0  0  0  0  0  0  0  0  0  0  0  0
    7.4320   -4.3350   22.7900 C   0  0  0  0  0  0  0  0  0  0  0  0
    6.5280   -4.2160   24.0170 C   0  0  0  0  0  0  0  0  0  0  0  0
    5.7770   -5.2840   24.3910 N   0  0  0  0  0  0  0  0  0  0  0  0
    4.9630   -5.2690   25.8810 S   0  0  0  0  0  0  0  0  0  0  0  0
    5.9280   -5.2340   26.9500 O   0  0  0  0  0  0  0  0  0  0  0  0
    3.9630   -6.3150   25.8420 O   0  0  0  0  0  0  0  0  0  0  0  0
    4.0700   -3.7420   25.9880 C   0  0  0  0  0  0  0  0  0  0  0  0
    4.4860   -2.5030   26.1640 C   0  0  0  0  0  0  0  0  0  0  0  0
    3.4910   -1.5830   26.1970 C   0  0  0  0  0  0  0  0  0  0  0  0
    2.0990   -1.8620   26.0560 C   0  0  0  0  0  0  0  0  0  0  0  0
    0.9270   -2.5610   25.8800 C   0  0  0  0  0  0  0  0  0  0  0  0
   -0.2910   -2.2220   26.4250 C   0  0  0  0  0  0  0  0  0  0  0  0
   -1.4480   -2.9580   26.2150 C   0  0  0  0  0  0  0  0  0  0  0  0
   -2.6110   -2.4900   26.8360 C   0  0  0  0  0  0  0  0  0  0  0  0
   -1.3510   -4.0900   25.4070 C   0  0  0  0  0  0  0  0  0  0  0  0
   -0.1880   -4.5560   24.7860 C   0  0  0  0  0  0  0  0  0  0  0  0
   -0.2230   -5.7020   23.9940 C   0  0  0  0  0  0  0  0  0  0  0  0
    0.9730   -3.7060   25.0810 C   0  0  0  0  0  0  0  0  0  0  0  0
    2.4050   -3.6010   25.8770 S   0  0  0  0  0  0  0  0  0  0  0  0
    5.0040   -5.7200   23.3560 C   0  0  0  0  0  0  0  0  0  0  0  0
    5.8890   -6.1180   22.1630 C   0  0  0  0  0  0  0  0  0  0  0  0
  1  2  1  0
  2  3  2  0
  2  4  1  0
  4  5  1  0
  5  6  1  0
  6  7  1  0
  7  8  1  0
  8  9  2  0
  8 10  2  0
  8 11  1  0
 11 12  2  0
 12 13  1  0
 13 14  2  0
 14 15  1  0
 15 16  2  0
 16 17  1  0
 17 18  1  0
 17 19  2  0
 19 20  1  0
 20 21  1  0
 15 22  1  0
 20 22  2  0
 11 23  1  0
 14 23  1  0
  7 24  1  0
  4 25  1  0
 24 25  1  0
M  END
