NIM-UNI-36e12f95-4
     RDKit          3D

 27 30  0  0  0  0  0  0  0  0999 V2000
    5.4450   -2.6630   19.3250 C   0  0  0  0  0  0  0  0  0  0  0  0
    5.7340   -2.9350   20.7660 C   0  0  0  0  0  0  0  0  0  0  0  0
    5.0430   -3.7380   21.4150 O   0  0  0  0  0  0  0  0  0  0  0  0
    6.8900   -2.1410   21.3390 C   0  0  0  0  0  0  0  0  0  0  0  0
    7.3840   -0.8730   20.7910 C   0  0  0  0  0  0  0  0  0  0  0  0
    8.5840   -0.6200   21.8140 C   0  0  0  0  0  0  0  0  0  0  0  0
    8.9020   -1.7000   23.0580 C   0  0  0  0  0  0  0  0  0  0  0  0
   10.1500   -1.2730   23.9540 C   0  0  0  0  0  0  0  0  0  0  0  0
   10.6820    0.1480   23.6710 C   0  0  0  0  0  0  0  0  0  0  0  0
   12.1450    0.1900   23.2450 C   0  0  0  0  0  0  0  0  0  0  0  0
   12.7540    1.5470   22.9340 C   0  0  0  0  0  0  0  0  0  0  0  0
   11.9070    2.8210   23.0410 C   0  0  0  0  0  0  0  0  0  0  0  0
   12.6360    4.5200   22.6410 Br  0  0  0  0  0  0  0  0  0  0  0  0
   10.4370    2.6910   23.4880 C   0  0  0  0  0  0  0  0  0  0  0  0
    9.8960    1.3000   23.7920 C   0  0  0  0  0  0  0  0  0  0  0  0
    8.1070   -2.9340   23.2810 C   0  0  0  0  0  0  0  0  0  0  0  0
    9.0050   -2.9500   24.2640 N   0  0  0  0  0  0  0  0  0  0  0  0
    9.0630   -1.5380   24.1640 C   0  0  0  0  0  0  0  0  0  0  0  0
    9.2570   -0.7680   25.1120 O   0  0  0  0  0  0  0  0  0  0  0  0
    8.7910   -1.2420   22.7090 N   0  0  0  0  0  0  0  0  0  0  0  0
    9.6550   -0.4830   21.8750 C   0  0  0  0  0  0  0  0  0  0  0  0
    9.9790   -1.7570   21.9130 C   0  0  0  0  0  0  0  0  0  0  0  0
    9.1300   -2.6060   22.6980 C   0  0  0  0  0  0  0  0  0  0  0  0
    8.1150   -1.5630   23.2060 C   0  0  0  0  0  0  0  0  0  0  0  0
    7.8890   -0.1640   23.0790 N   0  0  0  0  0  0  0  0  0  0  0  0
    8.7850    0.4240   22.3090 C   0  0  0  0  0  0  0  0  0  0  0  0
    7.7770   -2.1690   22.3140 C   0  0  0  0  0  0  0  0  0  0  0  0
  1  2  1  0
  2  3  2  0
  2  4  1  0
  4  5  2  0
  5  6  1  0
  6  7  2  0
  7  8  1  0
  8  9  1  0
  9 10  2  0
 10 11  1  0
 11 12  2  0
 12 13  1  0
 12 14  1  0
  9 15  1  0
 14 15  2  0
  7 16  1  0
 16 17  1  0
 17 18  1  0
 18 19  2  0
 18 20  1  0
 20 21  1  0
 21 22  2  0
 22 23  1  0
 23 24  2  0
 24 25  1  0
 21 26  1  0
 25 26  2  0
  4 27  1  0
 16 27  2  0
 20 27  1  0
M  END
