NIM-UNI-310206f0-67-vinylsulfonamide
     RDKit          3D

 25 27  0  0  0  0  0  0  0  0999 V2000
    7.7490   -3.6040   20.0450 C   0  0  0  0  0  0  0  0  0  0  0  0
    7.0750   -2.5820   19.1150 C   0  0  0  0  0  0  0  0  0  0  0  0
    5.4280   -2.4490   19.7150 S   0  0  0  0  0  0  0  0  0  0  0  0
    4.7390   -3.6800   19.3960 O   0  0  0  0  0  0  0  0  0  0  0  0
    4.9350   -1.1480   19.3140 O   0  0  0  0  0  0  0  0  0  0  0  0
    5.6830   -2.3970   21.3990 N   0  0  0  0  0  0  0  0  0  0  0  0
    6.1650   -1.1460   21.9560 C   0  0  0  0  0  0  0  0  0  0  0  0
    7.1780   -1.4350   23.0500 C   0  0  0  0  0  0  0  0  0  0  0  0
    6.6910   -2.4640   23.9910 N   0  0  0  0  0  0  0  0  0  0  0  0
    7.4880   -2.4460   25.4940 S   0  0  0  0  0  0  0  0  0  0  0  0
    7.9130   -3.7920   25.8490 O   0  0  0  0  0  0  0  0  0  0  0  0
    6.7420   -1.6070   26.4130 O   0  0  0  0  0  0  0  0  0  0  0  0
    8.9060   -1.5290   25.0070 C   0  0  0  0  0  0  0  0  0  0  0  0
    9.4220   -0.1360   25.5170 C   0  0  0  0  0  0  0  0  0  0  0  0
   10.5640   -0.2400   24.5110 C   0  0  0  0  0  0  0  0  0  0  0  0
   10.7960   -1.2240   23.6550 C   0  0  0  0  0  0  0  0  0  0  0  0
   11.7880   -1.2240   22.7830 C   0  0  0  0  0  0  0  0  0  0  0  0
   11.7920   -2.3320   21.9520 C   0  0  0  0  0  0  0  0  0  0  0  0
   12.7110   -2.4500   21.0330 N   0  0  0  0  0  0  0  0  0  0  0  0
   13.6310   -1.3240   21.0180 C   0  0  0  0  0  0  0  0  0  0  0  0
   13.6490   -0.2570   21.8040 N   0  0  0  0  0  0  0  0  0  0  0  0
   12.7000   -0.2250   22.7060 C   0  0  0  0  0  0  0  0  0  0  0  0
    9.6970   -2.4220   23.7900 S   0  0  0  0  0  0  0  0  0  0  0  0
    6.2950   -3.7280   23.4050 C   0  0  0  0  0  0  0  0  0  0  0  0
    5.2970   -3.5130   22.2720 C   0  0  0  0  0  0  0  0  0  0  0  0
  1  2  1  0
  3  2  1  0
  3  4  2  0
  3  5  2  0
  3  6  1  0
  6  7  1  0
  7  8  1  0
  8  9  1  0
  9 10  1  0
 10 11  2  0
 10 12  2  0
 10 13  1  0
 13 14  2  0
 14 15  1  0
 15 16  2  0
 16 17  1  0
 17 18  2  0
 18 19  1  0
 19 20  2  0
 20 21  1  0
 17 22  1  0
 21 22  2  0
 13 23  1  0
 16 23  1  0
  9 24  1  0
  6 25  1  0
 24 25  1  0
M  END
