NIM-UNI-310206f0-68-nitrile
     RDKit          3D

 22 24  0  0  0  0  0  0  0  0999 V2000
    6.1380   -4.7590   20.0880 C   0  0  0  0  0  0  0  0  0  0  0  0
    5.7210   -5.9470   19.8690 N   0  0  0  0  0  0  0  0  0  0  0  0
    5.5330   -4.0390   21.1000 N   0  0  0  0  0  0  0  0  0  0  0  0
    5.9200   -2.6580   21.4470 C   0  0  0  0  0  0  0  0  0  0  0  0
    6.9860   -2.6960   22.5530 C   0  0  0  0  0  0  0  0  0  0  0  0
    7.4280   -4.0540   22.9480 N   0  0  0  0  0  0  0  0  0  0  0  0
    8.4280   -4.0350   24.2960 S   0  0  0  0  0  0  0  0  0  0  0  0
    7.7980   -3.0750   25.1760 O   0  0  0  0  0  0  0  0  0  0  0  0
    8.6020   -5.4160   24.6670 O   0  0  0  0  0  0  0  0  0  0  0  0
   10.0230   -3.3370   23.9330 C   0  0  0  0  0  0  0  0  0  0  0  0
   11.1170   -3.7860   24.9610 C   0  0  0  0  0  0  0  0  0  0  0  0
   12.1860   -2.9460   24.2460 C   0  0  0  0  0  0  0  0  0  0  0  0
   11.9380   -2.1280   23.0390 C   0  0  0  0  0  0  0  0  0  0  0  0
   12.7820   -1.3460   22.3340 C   0  0  0  0  0  0  0  0  0  0  0  0
   13.1870   -0.1600   22.9190 C   0  0  0  0  0  0  0  0  0  0  0  0
   13.8760    0.8010   22.2140 C   0  0  0  0  0  0  0  0  0  0  0  0
   14.0050    0.5140   20.8140 O   0  0  0  0  0  0  0  0  0  0  0  0
   13.8840   -0.8410   20.2990 C   0  0  0  0  0  0  0  0  0  0  0  0
   13.1180   -1.7000   21.0630 C   0  0  0  0  0  0  0  0  0  0  0  0
   10.2320   -2.3090   22.6080 S   0  0  0  0  0  0  0  0  0  0  0  0
    6.4350   -5.1570   22.9790 C   0  0  0  0  0  0  0  0  0  0  0  0
    5.1620   -4.7760   22.2720 C   0  0  0  0  0  0  0  0  0  0  0  0
  1  2  2  3
  1  3  1  0
  3  4  1  0
  4  5  1  0
  5  6  1  0
  6  7  1  0
  7  8  2  0
  7  9  2  0
  7 10  1  0
 10 11  2  0
 11 12  1  0
 12 13  2  0
 13 14  1  0
 14 15  2  0
 15 16  1  0
 16 17  1  0
 17 18  1  0
 14 19  1  0
 18 19  1  0
 10 20  1  0
 13 20  1  0
  6 21  1  0
  3 22  1  0
 21 22  1  0
M  END
