NIM-UNI-ed9fc491-1-chloroacetamide
     RDKit          3D

 26 27  0  0  0  0  0  0  0  0999 V2000
    8.3210   -3.6700   19.6300 C   0  0  0  0  0  0  0  0  0  0  0  0
    7.5320   -2.4120   19.7600 C   0  0  0  0  0  0  0  0  0  0  0  0
    7.1600   -2.7630   18.5520 O   0  0  0  0  0  0  0  0  0  0  0  0
    8.1940   -2.4080   21.0950 N   0  0  0  0  0  0  0  0  0  0  0  0
    9.6630   -2.4500   21.4300 C   0  0  0  0  0  0  0  0  0  0  0  0
    9.9690   -2.8200   22.7280 C   0  0  0  0  0  0  0  0  0  0  0  0
    9.4920   -1.7310   23.5030 N   0  0  0  0  0  0  0  0  0  0  0  0
   10.1090   -0.5250   22.9590 C   0  0  0  0  0  0  0  0  0  0  0  0
    9.6490    0.7190   23.3060 N   0  0  0  0  0  0  0  0  0  0  0  0
    8.8000    1.4050   22.3980 C   0  0  0  0  0  0  0  0  0  0  0  0
    9.1360    1.6880   21.2500 O   0  0  0  0  0  0  0  0  0  0  0  0
    7.5380    1.7910   22.8390 C   0  0  2  0  0  0  0  0  0  0  0  0
    6.4860    0.9070   22.6260 C   0  0  0  0  0  0  0  0  0  0  0  0
    6.1020    0.9750   21.2090 C   0  0  0  0  0  0  0  0  0  0  0  0
    6.8250    0.2610   20.2160 C   0  0  0  0  0  0  0  0  0  0  0  0
    6.6840    0.1980   19.1120 C   0  0  0  0  0  0  0  0  0  0  0  0
    5.7510    0.7950   18.3080 C   0  0  0  0  0  0  0  0  0  0  0  0
    5.5970    0.7340   17.1160 O   0  0  0  0  0  0  0  0  0  0  0  0
    4.8830    1.5880   19.1070 C   0  0  0  0  0  0  0  0  0  0  0  0
    5.0380    1.6920   20.5520 C   0  0  0  0  0  0  0  0  0  0  0  0
    7.2130    2.9590   22.1940 N   0  0  0  0  0  0  0  0  0  0  0  0
    6.9090    4.1650   22.9410 C   0  0  0  0  0  0  0  0  0  0  0  0
    7.5750    5.3810   22.2920 C   0  0  0  0  0  0  0  0  0  0  0  0
    6.2110    4.2010   23.9470 O   0  0  0  0  0  0  0  0  0  0  0  0
    8.0110   -1.7230   23.4340 C   0  0  0  0  0  0  0  0  0  0  0  0
    7.3730   -2.3510   22.3230 C   0  0  0  0  0  0  0  0  0  0  0  0
  1  2  1  0
  2  3  2  0
  2  4  1  0
  4  5  1  0
  5  6  1  0
  6  7  1  0
  7  8  1  0
  8  9  1  0
  9 10  1  0
 10 11  2  0
 10 12  1  0
 12 13  1  6
 13 14  1  0
 14 15  2  0
 15 16  1  0
 16 17  2  0
 17 18  1  0
 17 19  1  0
 14 20  1  0
 19 20  2  0
 12 21  1  0
 21 22  1  0
 22 23  1  0
 22 24  2  0
  7 25  1  0
  4 26  1  0
 25 26  1  0
M  END
