NIM-UNI-310206f0-54-chloroacetamide
     RDKit          3D

 33 36  0  0  0  0  0  0  0  0999 V2000
    7.0560   -2.9260   18.7770 C   0  0  0  0  0  0  0  0  0  0  0  0
    5.9040   -3.1270   19.7660 C   0  0  0  0  0  0  0  0  0  0  0  0
    5.3250   -4.2240   19.7820 O   0  0  0  0  0  0  0  0  0  0  0  0
    5.5510   -2.0500   20.5990 N   0  0  0  0  0  0  0  0  0  0  0  0
    5.3890   -2.2780   22.0390 C   0  0  0  0  0  0  0  0  0  0  0  0
    6.4560   -1.6030   22.8960 C   0  0  0  0  0  0  0  0  0  0  0  0
    6.8990   -0.3160   22.3480 N   0  0  0  0  0  0  0  0  0  0  0  0
    8.2760   -0.0720   22.4460 C   0  0  0  0  0  0  0  0  0  0  0  0
    9.2920    0.8380   22.5640 C   0  0  0  0  0  0  0  0  0  0  0  0
   10.4420    0.1750   22.6000 F   0  0  0  0  0  0  0  0  0  0  0  0
    9.5510    2.1530   22.6570 C   0  0  0  0  0  0  0  0  0  0  0  0
   10.9300    1.9550   22.7450 C   0  0  0  0  0  0  0  0  0  0  0  0
   12.2800    1.2980   22.8050 N   0  0  0  0  0  0  0  0  0  0  0  0
   12.3920   -0.0270   23.4710 C   0  0  0  0  0  0  0  0  0  0  0  0
   12.9280   -1.0170   22.6440 C   0  0  0  0  0  0  0  0  0  0  0  0
   13.0660   -2.2210   23.1680 C   0  0  0  0  0  0  0  0  0  0  0  0
   12.0220   -2.0730   22.1530 C   0  0  0  0  0  0  0  0  0  0  0  0
   13.5730    2.0270   22.5440 C   0  0  0  0  0  0  0  0  0  0  0  0
   14.5400    1.3790   22.2590 O   0  0  0  0  0  0  0  0  0  0  0  0
   13.9620    3.3610   22.7120 N   0  0  0  0  0  0  0  0  0  0  0  0
   15.2680    3.8990   22.1460 C   0  0  0  0  0  0  0  0  0  0  0  0
   16.7950    4.2680   22.5370 C   0  0  0  0  0  0  0  0  0  0  0  0
   17.4530    4.3060   23.7510 C   0  0  0  0  0  0  0  0  0  0  0  0
   18.8150    4.6630   23.9450 C   0  0  0  0  0  0  0  0  0  0  0  0
   19.6070    5.0460   22.9330 C   0  0  0  0  0  0  0  0  0  0  0  0
   19.0370    5.0400   21.7320 C   0  0  0  0  0  0  0  0  0  0  0  0
   19.8490    5.4300   20.7610 F   0  0  0  0  0  0  0  0  0  0  0  0
   17.6990    4.6500   21.5310 C   0  0  0  0  0  0  0  0  0  0  0  0
   10.7070    0.3620   22.6340 C   0  0  0  0  0  0  0  0  0  0  0  0
    9.5180   -0.6310   22.4940 C   0  0  0  0  0  0  0  0  0  0  0  0
    9.7320   -1.9540   22.4320 F   0  0  0  0  0  0  0  0  0  0  0  0
    6.1330    0.2120   21.1920 C   0  0  0  0  0  0  0  0  0  0  0  0
    5.9590   -0.6970   20.1670 C   0  0  0  0  0  0  0  0  0  0  0  0
  1  2  1  0
  2  3  2  0
  2  4  1  0
  4  5  1  0
  5  6  1  0
  6  7  1  0
  7  8  1  0
  8  9  2  0
  9 10  1  0
  9 11  1  0
 11 12  2  0
 12 13  1  0
 13 14  1  0
 14 15  1  0
 15 16  1  0
 15 17  1  0
 16 17  1  0
 13 18  1  0
 18 19  2  0
 18 20  1  0
 20 21  1  0
 21 22  1  0
 22 23  2  0
 23 24  1  0
 24 25  2  0
 25 26  1  0
 26 27  1  0
 22 28  1  0
 26 28  2  0
 12 29  1  0
  8 30  1  0
 29 30  2  0
 30 31  1  0
  7 32  1  0
  4 33  1  0
 32 33  1  0
M  END
