NIM-UNI-05f93fcc-6-vinylsulfonamide
     RDKit          3D

 25 27  0  0  0  0  0  0  0  0999 V2000
    7.4680   -3.0690   18.8990 C   0  0  0  0  0  0  0  0  0  0  0  0
    7.1130   -2.8500   20.3440 C   0  0  0  0  0  0  0  0  0  0  0  0
    5.8730   -4.0090   20.8190 S   0  0  0  0  0  0  0  0  0  0  0  0
    4.8520   -3.2750   21.5160 O   0  0  0  0  0  0  0  0  0  0  0  0
    5.4460   -4.8290   19.7060 O   0  0  0  0  0  0  0  0  0  0  0  0
    6.6280   -4.9730   21.9450 N   0  0  0  0  0  0  0  0  0  0  0  0
    7.2590   -4.2570   23.0360 C   0  0  0  0  0  0  0  0  0  0  0  0
    6.3360   -4.2160   24.2150 C   0  0  0  0  0  0  0  0  0  0  0  0
    5.8040   -5.3940   24.5420 N   0  0  0  0  0  0  0  0  0  0  0  0
    5.0030   -5.4230   26.0160 S   0  0  0  0  0  0  0  0  0  0  0  0
    5.9590   -5.3010   27.0850 O   0  0  0  0  0  0  0  0  0  0  0  0
    4.0100   -6.4740   25.9860 O   0  0  0  0  0  0  0  0  0  0  0  0
    4.0860   -3.9360   26.0710 C   0  0  0  0  0  0  0  0  0  0  0  0
    4.3820   -2.5710   26.0540 C   0  0  0  0  0  0  0  0  0  0  0  0
    3.2670   -1.7760   26.1160 C   0  0  0  0  0  0  0  0  0  0  0  0
    2.1200   -2.5450   26.1830 C   0  0  0  0  0  0  0  0  0  0  0  0
    0.8320   -2.1470   26.2550 C   0  0  0  0  0  0  0  0  0  0  0  0
   -0.1310   -3.0010   25.7890 C   0  0  0  0  0  0  0  0  0  0  0  0
   -0.4040   -1.7940   26.3200 C   0  0  0  0  0  0  0  0  0  0  0  0
   -1.7280   -1.9140   26.1600 C   0  0  0  0  0  0  0  0  0  0  0  0
   -1.2970   -0.7790   26.7100 N   0  0  0  0  0  0  0  0  0  0  0  0
    0.1510   -0.9580   26.7430 C   0  0  0  0  0  0  0  0  0  0  0  0
    2.4140   -4.2030   26.1680 S   0  0  0  0  0  0  0  0  0  0  0  0
    5.1760   -5.9640   23.4790 C   0  0  0  0  0  0  0  0  0  0  0  0
    5.9490   -6.1660   22.3220 C   0  0  0  0  0  0  0  0  0  0  0  0
  1  2  1  0
  3  2  1  0
  3  4  2  0
  3  5  2  0
  3  6  1  0
  6  7  1  0
  7  8  1  0
  8  9  1  0
  9 10  1  0
 10 11  2  0
 10 12  2  0
 10 13  1  0
 13 14  2  0
 14 15  1  0
 15 16  2  0
 16 17  1  0
 17 18  2  0
 18 19  1  0
 19 20  2  0
 20 21  1  0
 17 22  1  0
 21 22  2  0
 13 23  1  0
 16 23  1  0
  9 24  1  0
  6 25  1  0
 24 25  1  0
M  END
