NIR-THE-0d6461ce-8-acrylamide
     RDKit          3D

 19 20  0  0  0  0  0  0  0  0999 V2000
    8.0630   -3.4510   19.7740 C   0  0  0  0  0  0  0  0  0  0  0  0
    6.9550   -2.6700   19.1570 C   0  0  0  0  0  0  0  0  0  0  0  0
    5.9460   -3.0800   20.1310 C   0  0  0  0  0  0  0  0  0  0  0  0
    5.0940   -3.9210   19.8300 O   0  0  0  0  0  0  0  0  0  0  0  0
    6.1400   -2.5090   21.3660 N   0  0  0  0  0  0  0  0  0  0  0  0
    6.9970   -1.2840   21.4610 C   0  0  0  0  0  0  0  0  0  0  0  0
    8.3470   -1.7070   22.0990 C   0  0  0  0  0  0  0  0  0  0  0  0
    7.7580   -2.3130   23.3780 C   0  0  0  0  0  0  0  0  0  0  0  0
    9.0040   -2.4100   24.2700 C   0  0  0  0  0  0  0  0  0  0  0  0
   10.0900   -1.4450   23.7410 C   0  0  0  0  0  0  0  0  0  0  0  0
    9.9950    0.0270   24.0990 C   0  0  0  0  0  0  0  0  0  0  0  0
   11.0410    0.9660   23.5880 C   0  0  0  0  0  0  0  0  0  0  0  0
   11.1100    2.3420   23.7790 C   0  0  0  0  0  0  0  0  0  0  0  0
   12.1530    0.3580   22.7490 C   0  0  0  0  0  0  0  0  0  0  0  0
   12.1240   -1.0110   22.4860 C   0  0  0  0  0  0  0  0  0  0  0  0
   13.3360   -1.6870   21.5250 Cl  0  0  0  0  0  0  0  0  0  0  0  0
   11.1480   -1.8810   22.9530 C   0  0  0  0  0  0  0  0  0  0  0  0
    7.0240   -3.4980   23.2900 C   0  0  0  0  0  0  0  0  0  0  0  0
    5.8310   -3.2250   22.6170 C   0  0  0  0  0  0  0  0  0  0  0  0
  1  2  1  0
  2  3  1  0
  3  4  2  0
  3  5  1  0
  5  6  1  0
  6  7  1  0
  7  8  1  0
  8  9  1  0
  9 10  1  0
 10 11  2  0
 11 12  1  0
 12 13  1  0
 12 14  2  0
 14 15  1  0
 15 16  1  0
 10 17  1  0
 15 17  2  0
  8 18  1  0
  5 19  1  0
 18 19  1  0
M  END
