NIR-THE-0d6461ce-10-vinylsulfonamide
     RDKit          3D

 25 27  0  0  0  0  0  0  0  0999 V2000
    7.6490   -3.0480   18.3010 C   0  0  0  0  0  0  0  0  0  0  0  0
    7.0770   -2.3530   19.4760 C   0  0  0  0  0  0  0  0  0  0  0  0
    5.8050   -3.3400   20.2060 S   0  0  0  0  0  0  0  0  0  0  0  0
    4.5300   -3.0930   19.6090 O   0  0  0  0  0  0  0  0  0  0  0  0
    6.1780   -4.6990   20.3930 O   0  0  0  0  0  0  0  0  0  0  0  0
    5.8420   -2.6360   21.7110 N   0  0  0  0  0  0  0  0  0  0  0  0
    6.7620   -1.4990   21.8880 C   0  0  0  0  0  0  0  0  0  0  0  0
    8.1330   -2.1490   21.7930 C   0  0  0  0  0  0  0  0  0  0  0  0
    8.0620   -2.7450   23.1800 C   0  0  0  0  0  0  0  0  0  0  0  0
    9.4330   -2.9770   23.6800 N   0  0  0  0  0  0  0  0  0  0  0  0
    9.9460   -1.5910   23.4360 C   0  0  0  0  0  0  0  0  0  0  0  0
   10.7720   -2.4470   24.0020 C   0  0  0  0  0  0  0  0  0  0  0  0
   11.8480   -1.4310   23.1750 C   0  0  0  0  0  0  0  0  0  0  0  0
   11.9520    0.1280   22.6180 C   0  0  0  0  0  0  0  0  0  0  0  0
   11.1030    0.8660   23.4900 C   0  0  0  0  0  0  0  0  0  0  0  0
   11.3600    2.1880   23.7640 C   0  0  0  0  0  0  0  0  0  0  0  0
   10.5570   -0.3800   23.8780 C   0  0  0  0  0  0  0  0  0  0  0  0
    9.1150   -3.7930   24.8890 C   0  0  0  0  0  0  0  0  0  0  0  0
    9.7860   -4.9750   25.2100 C   0  0  0  0  0  0  0  0  0  0  0  0
    9.3490   -5.6490   26.3120 C   0  0  0  0  0  0  0  0  0  0  0  0
    8.3020   -5.0350   26.9350 C   0  0  0  0  0  0  0  0  0  0  0  0
    7.3820   -5.6550   28.4740 Br  0  0  0  0  0  0  0  0  0  0  0  0
    7.8740   -3.5240   26.0870 S   0  0  0  0  0  0  0  0  0  0  0  0
    7.2160   -3.9260   22.7260 C   0  0  0  0  0  0  0  0  0  0  0  0
    5.8960   -3.5190   22.8660 C   0  0  0  0  0  0  0  0  0  0  0  0
  1  2  1  0
  3  2  1  0
  3  4  2  0
  3  5  2  0
  3  6  1  0
  6  7  1  0
  7  8  1  0
  8  9  1  0
  9 10  1  0
 10 11  1  0
 11 12  2  0
 12 13  1  0
 13 14  2  0
 14 15  1  0
 15 16  1  0
 11 17  1  0
 15 17  2  0
 10 18  1  0
 18 19  2  0
 19 20  1  0
 20 21  2  0
 21 22  1  0
 18 23  1  0
 21 23  1  0
  9 24  1  0
  6 25  1  0
 24 25  1  0
M  END
