NIR-THE-0d6461ce-10-nitrile
     RDKit          3D

 22 24  0  0  0  0  0  0  0  0999 V2000
    6.8200   -3.6680   19.9800 C   0  0  0  0  0  0  0  0  0  0  0  0
    5.7050   -3.6910   19.3760 N   0  0  0  0  0  0  0  0  0  0  0  0
    7.0000   -2.8950   21.0730 N   0  0  0  0  0  0  0  0  0  0  0  0
    7.5220   -1.5310   21.0830 C   0  0  0  0  0  0  0  0  0  0  0  0
    8.1620   -1.5070   22.5020 C   0  0  0  0  0  0  0  0  0  0  0  0
    8.5350   -2.9800   22.6910 C   0  0  0  0  0  0  0  0  0  0  0  0
    9.5450   -2.9180   23.7700 N   0  0  0  0  0  0  0  0  0  0  0  0
   10.4760   -1.7670   23.6290 C   0  0  0  0  0  0  0  0  0  0  0  0
   11.8770   -2.0830   23.0350 C   0  0  0  0  0  0  0  0  0  0  0  0
   12.8600   -0.9150   22.8390 C   0  0  0  0  0  0  0  0  0  0  0  0
   12.4230    0.5190   23.2270 C   0  0  0  0  0  0  0  0  0  0  0  0
   11.0310    0.7290   23.7930 C   0  0  0  0  0  0  0  0  0  0  0  0
   10.5350    2.0990   24.1620 C   0  0  0  0  0  0  0  0  0  0  0  0
   10.1000   -0.4610   23.9810 C   0  0  0  0  0  0  0  0  0  0  0  0
    9.2190   -3.7330   24.8560 C   0  0  0  0  0  0  0  0  0  0  0  0
    9.8310   -4.9730   25.0840 C   0  0  0  0  0  0  0  0  0  0  0  0
    9.3760   -5.6840   26.1610 C   0  0  0  0  0  0  0  0  0  0  0  0
    8.3760   -5.0650   26.8580 C   0  0  0  0  0  0  0  0  0  0  0  0
    7.4670   -5.7350   28.3830 Br  0  0  0  0  0  0  0  0  0  0  0  0
    8.0160   -3.4990   26.1150 S   0  0  0  0  0  0  0  0  0  0  0  0
    7.1290   -3.4390   23.1650 C   0  0  0  0  0  0  0  0  0  0  0  0
    6.1540   -3.0210   22.2340 C   0  0  0  0  0  0  0  0  0  0  0  0
  1  2  2  3
  1  3  1  0
  3  4  1  0
  4  5  1  0
  5  6  1  0
  6  7  1  0
  7  8  1  0
  8  9  2  0
  9 10  1  0
 10 11  2  0
 11 12  1  0
 12 13  1  0
  8 14  1  0
 12 14  2  0
  7 15  1  0
 15 16  2  0
 16 17  1  0
 17 18  2  0
 18 19  1  0
 15 20  1  0
 18 20  1  0
  6 21  1  0
  3 22  1  0
 21 22  1  0
M  END
