NIR-THE-0d6461ce-4-chloroacetamide
     RDKit          3D

 24 26  0  0  0  0  0  0  0  0999 V2000
    7.0760   -2.9610   18.7490 C   0  0  0  0  0  0  0  0  0  0  0  0
    6.1470   -3.2680   19.8910 C   0  0  0  0  0  0  0  0  0  0  0  0
    5.3230   -4.1790   19.7490 O   0  0  0  0  0  0  0  0  0  0  0  0
    6.2520   -2.5370   21.0810 N   0  0  0  0  0  0  0  0  0  0  0  0
    7.1590   -1.3780   21.0700 C   0  0  0  0  0  0  0  0  0  0  0  0
    8.4740   -1.6400   21.7960 C   0  0  0  0  0  0  0  0  0  0  0  0
    8.2450   -2.2020   23.1950 C   0  0  0  0  0  0  0  0  0  0  0  0
    9.5890   -2.4230   23.8910 C   0  0  0  0  0  0  0  0  0  0  0  0
   10.5020   -1.2220   23.6470 C   0  0  0  0  0  0  0  0  0  0  0  0
   11.9110   -1.4060   23.1670 C   0  0  0  0  0  0  0  0  0  0  0  0
   12.6770   -0.2600   22.9360 C   0  0  0  0  0  0  0  0  0  0  0  0
   12.1250    1.0250   23.1460 C   0  0  0  0  0  0  0  0  0  0  0  0
   12.8570    2.1830   22.9020 C   0  0  0  0  0  0  0  0  0  0  0  0
   12.3140    3.4680   23.0830 C   0  0  0  0  0  0  0  0  0  0  0  0
   11.0110    3.6200   23.5390 C   0  0  0  0  0  0  0  0  0  0  0  0
   10.3220    5.2480   23.7650 S   0  0  0  0  0  0  0  0  0  0  0  0
    8.9930    5.2040   22.7320 N   0  0  0  0  0  0  0  0  0  0  0  0
   11.2200    6.2270   23.1970 O   0  0  0  0  0  0  0  0  0  0  0  0
    9.7750    5.4170   25.0860 O   0  0  0  0  0  0  0  0  0  0  0  0
   10.2640    2.4700   23.8050 C   0  0  0  0  0  0  0  0  0  0  0  0
   10.8010    1.1840   23.6060 C   0  0  0  0  0  0  0  0  0  0  0  0
   10.0120    0.0640   23.8570 C   0  0  0  0  0  0  0  0  0  0  0  0
    7.4060   -3.4750   23.0760 C   0  0  0  0  0  0  0  0  0  0  0  0
    6.0810   -3.1790   22.3850 C   0  0  0  0  0  0  0  0  0  0  0  0
  1  2  1  0
  2  3  2  0
  2  4  1  0
  4  5  1  0
  5  6  1  0
  6  7  1  0
  7  8  1  0
  8  9  1  0
  9 10  2  0
 10 11  1  0
 11 12  2  0
 12 13  1  0
 13 14  2  0
 14 15  1  0
 15 16  1  0
 16 17  1  0
 16 18  2  0
 16 19  2  0
 15 20  2  0
 12 21  1  0
 20 21  1  0
  9 22  1  0
 21 22  2  0
  7 23  1  0
  4 24  1  0
 23 24  1  0
M  END
