NIR-THE-0d6461ce-12-nitrile
     RDKit          3D

 22 24  0  0  0  0  0  0  0  0999 V2000
    6.6530   -3.7250   19.8980 C   0  0  0  0  0  0  0  0  0  0  0  0
    5.7860   -4.6640   19.9380 N   0  0  0  0  0  0  0  0  0  0  0  0
    6.6160   -2.7620   20.8680 N   0  0  0  0  0  0  0  0  0  0  0  0
    7.4690   -1.5680   21.0140 C   0  0  0  0  0  0  0  0  0  0  0  0
    8.6610   -2.0580   21.9120 C   0  0  0  0  0  0  0  0  0  0  0  0
    8.0030   -2.3630   23.2600 C   0  0  0  0  0  0  0  0  0  0  0  0
    9.2120   -2.6640   24.0560 N   0  0  0  0  0  0  0  0  0  0  0  0
   10.2970   -1.6940   23.7730 C   0  0  0  0  0  0  0  0  0  0  0  0
   11.6410   -2.1900   23.1630 C   0  0  0  0  0  0  0  0  0  0  0  0
   12.7290   -1.1290   22.8550 C   0  0  0  0  0  0  0  0  0  0  0  0
   12.4380    0.3690   23.1570 C   0  0  0  0  0  0  0  0  0  0  0  0
   11.0890    0.7430   23.7420 C   0  0  0  0  0  0  0  0  0  0  0  0
   10.7010    2.1680   24.0340 C   0  0  0  0  0  0  0  0  0  0  0  0
   10.0650   -0.3350   24.0350 C   0  0  0  0  0  0  0  0  0  0  0  0
    9.0580   -3.6460   25.0490 C   0  0  0  0  0  0  0  0  0  0  0  0
    9.7730   -4.8580   25.0720 C   0  0  0  0  0  0  0  0  0  0  0  0
    9.4730   -5.7150   26.1110 C   0  0  0  0  0  0  0  0  0  0  0  0
    8.5170   -5.2360   26.9580 C   0  0  0  0  0  0  0  0  0  0  0  0
    8.0790   -6.0120   28.1060 N   0  0  0  0  0  0  0  0  0  0  0  0
    7.9650   -3.6360   26.4380 S   0  0  0  0  0  0  0  0  0  0  0  0
    7.2210   -3.5820   22.7550 C   0  0  0  0  0  0  0  0  0  0  0  0
    6.0540   -3.0640   22.1680 C   0  0  0  0  0  0  0  0  0  0  0  0
  1  2  2  3
  1  3  1  0
  3  4  1  0
  4  5  1  0
  5  6  1  0
  6  7  1  0
  7  8  1  0
  8  9  2  0
  9 10  1  0
 10 11  2  0
 11 12  1  0
 12 13  1  0
  8 14  1  0
 12 14  2  0
  7 15  1  0
 15 16  2  0
 16 17  1  0
 17 18  2  0
 18 19  1  0
 15 20  1  0
 18 20  1  0
  6 21  1  0
  3 22  1  0
 21 22  1  0
M  END
