NIR-THE-0d6461ce-11-acrylamide
     RDKit          3D

 24 26  0  0  0  0  0  0  0  0999 V2000
    7.4140   -2.8300   18.2910 C   0  0  0  0  0  0  0  0  0  0  0  0
    6.2800   -2.2830   19.1170 C   0  0  0  0  0  0  0  0  0  0  0  0
    5.8740   -3.1710   20.2420 C   0  0  0  0  0  0  0  0  0  0  0  0
    5.2350   -4.2280   20.0510 O   0  0  0  0  0  0  0  0  0  0  0  0
    6.2990   -2.6810   21.4410 N   0  0  0  0  0  0  0  0  0  0  0  0
    7.0910   -1.4300   21.4700 C   0  0  0  0  0  0  0  0  0  0  0  0
    7.8370   -1.4260   22.7940 C   0  0  0  0  0  0  0  0  0  0  0  0
    8.5120   -2.7930   22.7010 C   0  0  0  0  0  0  0  0  0  0  0  0
    9.4700   -2.7860   23.8380 N   0  0  0  0  0  0  0  0  0  0  0  0
   10.3320   -1.5320   23.7240 C   0  0  0  0  0  0  0  0  0  0  0  0
   11.7370   -1.7480   23.1540 C   0  0  0  0  0  0  0  0  0  0  0  0
   12.7250   -0.6150   22.9420 C   0  0  0  0  0  0  0  0  0  0  0  0
   12.1730    0.7190   23.3430 C   0  0  0  0  0  0  0  0  0  0  0  0
   10.8620    0.8670   23.8620 C   0  0  0  0  0  0  0  0  0  0  0  0
   10.4310    2.1440   24.1860 C   0  0  0  0  0  0  0  0  0  0  0  0
    9.9780   -0.2090   24.0540 C   0  0  0  0  0  0  0  0  0  0  0  0
    9.1700   -3.7070   24.9650 C   0  0  0  0  0  0  0  0  0  0  0  0
    9.8100   -4.9360   25.1860 C   0  0  0  0  0  0  0  0  0  0  0  0
    9.3940   -5.6920   26.2560 C   0  0  0  0  0  0  0  0  0  0  0  0
    8.3670   -5.0490   26.9440 C   0  0  0  0  0  0  0  0  0  0  0  0
    7.5870   -5.6920   28.3280 Cl  0  0  0  0  0  0  0  0  0  0  0  0
    7.9290   -3.4800   26.2390 S   0  0  0  0  0  0  0  0  0  0  0  0
    7.5140   -3.9570   22.7480 C   0  0  0  0  0  0  0  0  0  0  0  0
    6.2420   -3.3730   22.7280 C   0  0  0  0  0  0  0  0  0  0  0  0
  1  2  1  0
  2  3  1  0
  3  4  2  0
  3  5  1  0
  5  6  1  0
  6  7  1  0
  7  8  1  0
  8  9  1  0
  9 10  1  0
 10 11  2  0
 11 12  1  0
 12 13  2  0
 13 14  1  0
 14 15  1  0
 10 16  1  0
 14 16  2  0
  9 17  1  0
 17 18  2  0
 18 19  1  0
 19 20  2  0
 20 21  1  0
 17 22  1  0
 20 22  1  0
  8 23  1  0
  5 24  1  0
 23 24  1  0
M  END
