NIR-THE-0d6461ce-11-vinylsulfonamide
     RDKit          3D

 25 27  0  0  0  0  0  0  0  0999 V2000
    7.6180   -2.9860   18.7890 C   0  0  0  0  0  0  0  0  0  0  0  0
    6.1660   -2.5720   19.0270 C   0  0  0  0  0  0  0  0  0  0  0  0
    5.5170   -3.4470   20.4240 S   0  0  0  0  0  0  0  0  0  0  0  0
    4.5850   -2.8010   21.2210 O   0  0  0  0  0  0  0  0  0  0  0  0
    5.2560   -4.8140   20.0480 O   0  0  0  0  0  0  0  0  0  0  0  0
    6.7120   -3.2090   21.5210 N   0  0  0  0  0  0  0  0  0  0  0  0
    7.3450   -1.8950   21.5400 C   0  0  0  0  0  0  0  0  0  0  0  0
    8.7820   -2.2800   21.8210 C   0  0  0  0  0  0  0  0  0  0  0  0
    8.5150   -2.6740   23.2660 C   0  0  0  0  0  0  0  0  0  0  0  0
    9.7770   -2.9250   23.9310 N   0  0  0  0  0  0  0  0  0  0  0  0
   10.5880   -1.6770   23.7480 C   0  0  0  0  0  0  0  0  0  0  0  0
   11.9470   -1.9400   23.0990 C   0  0  0  0  0  0  0  0  0  0  0  0
   12.8140   -0.6920   22.8550 C   0  0  0  0  0  0  0  0  0  0  0  0
   12.3590    0.6990   23.2180 C   0  0  0  0  0  0  0  0  0  0  0  0
   11.0080    0.8870   23.8410 C   0  0  0  0  0  0  0  0  0  0  0  0
   10.4400    2.1060   24.2050 C   0  0  0  0  0  0  0  0  0  0  0  0
   10.1500   -0.3730   24.0960 C   0  0  0  0  0  0  0  0  0  0  0  0
    9.3430   -3.7950   25.0520 C   0  0  0  0  0  0  0  0  0  0  0  0
    9.9000   -5.0600   25.2620 C   0  0  0  0  0  0  0  0  0  0  0  0
    9.3990   -5.7830   26.3050 C   0  0  0  0  0  0  0  0  0  0  0  0
    8.4090   -5.1260   26.9800 C   0  0  0  0  0  0  0  0  0  0  0  0
    7.5570   -5.7480   28.3330 Cl  0  0  0  0  0  0  0  0  0  0  0  0
    8.0990   -3.5200   26.2670 S   0  0  0  0  0  0  0  0  0  0  0  0
    7.7550   -3.9740   23.0080 C   0  0  0  0  0  0  0  0  0  0  0  0
    6.4500   -3.6300   22.8580 C   0  0  0  0  0  0  0  0  0  0  0  0
  1  2  1  0
  3  2  1  0
  3  4  2  0
  3  5  2  0
  3  6  1  0
  6  7  1  0
  7  8  1  0
  8  9  1  0
  9 10  1  0
 10 11  1  0
 11 12  2  0
 12 13  1  0
 13 14  2  0
 14 15  1  0
 15 16  1  0
 11 17  1  0
 15 17  2  0
 10 18  1  0
 18 19  2  0
 19 20  1  0
 20 21  2  0
 21 22  1  0
 18 23  1  0
 21 23  1  0
  9 24  1  0
  6 25  1  0
 24 25  1  0
M  END
