NIR-THE-0d6461ce-9-acrylamide
     RDKit          3D

 19 20  0  0  0  0  0  0  0  0999 V2000
    7.9300   -3.2630   19.0580 C   0  0  0  0  0  0  0  0  0  0  0  0
    6.7350   -2.3640   18.9170 C   0  0  0  0  0  0  0  0  0  0  0  0
    5.8050   -2.7560   20.0000 C   0  0  0  0  0  0  0  0  0  0  0  0
    4.8970   -3.5380   19.7200 O   0  0  0  0  0  0  0  0  0  0  0  0
    6.0810   -2.2940   21.2640 N   0  0  0  0  0  0  0  0  0  0  0  0
    7.0030   -1.1690   21.5290 C   0  0  0  0  0  0  0  0  0  0  0  0
    8.4110   -1.7720   21.7560 C   0  0  0  0  0  0  0  0  0  0  0  0
    8.2270   -2.7720   22.9450 C   0  0  0  0  0  0  0  0  0  0  0  0
    8.9190   -2.1910   24.1320 N   0  0  0  0  0  0  0  0  0  0  0  0
    9.9600   -1.2330   23.7690 C   0  0  0  0  0  0  0  0  0  0  0  0
   11.1160   -1.8760   23.0490 C   0  0  0  0  0  0  0  0  0  0  0  0
   12.2350   -1.0020   22.6080 C   0  0  0  0  0  0  0  0  0  0  0  0
   13.3740   -1.5870   21.8850 C   0  0  0  0  0  0  0  0  0  0  0  0
   12.1530    0.4950   22.9170 C   0  0  0  0  0  0  0  0  0  0  0  0
   11.0070    0.9620   23.5940 C   0  0  0  0  0  0  0  0  0  0  0  0
   10.8880    2.6350   23.9020 Cl  0  0  0  0  0  0  0  0  0  0  0  0
    9.9410    0.1490   24.0190 C   0  0  0  0  0  0  0  0  0  0  0  0
    6.7950   -3.0430   23.3160 C   0  0  0  0  0  0  0  0  0  0  0  0
    5.7720   -3.1700   22.3850 C   0  0  0  0  0  0  0  0  0  0  0  0
  1  2  1  0
  2  3  1  0
  3  4  2  0
  3  5  1  0
  5  6  1  0
  6  7  1  0
  7  8  1  0
  8  9  1  0
  9 10  1  0
 10 11  2  0
 11 12  1  0
 12 13  1  0
 12 14  2  0
 14 15  1  0
 15 16  1  0
 10 17  1  0
 15 17  2  0
  8 18  1  0
  5 19  1  0
 18 19  1  0
M  END
