NIR-THE-0d6461ce-11-chloroacetamide
     RDKit          3D

 23 25  0  0  0  0  0  0  0  0999 V2000
    7.1650   -2.9830   18.8590 C   0  0  0  0  0  0  0  0  0  0  0  0
    6.2950   -3.3930   20.0310 C   0  0  0  0  0  0  0  0  0  0  0  0
    5.4540   -4.2890   19.8400 O   0  0  0  0  0  0  0  0  0  0  0  0
    6.4470   -2.7570   21.2670 N   0  0  0  0  0  0  0  0  0  0  0  0
    6.4330   -3.3580   22.5780 C   0  0  0  0  0  0  0  0  0  0  0  0
    7.7100   -4.1640   22.5270 C   0  0  0  0  0  0  0  0  0  0  0  0
    8.8460   -3.0900   22.5640 C   0  0  0  0  0  0  0  0  0  0  0  0
    9.2390   -2.6330   23.9400 N   0  0  0  0  0  0  0  0  0  0  0  0
   10.4010   -1.7280   23.7020 C   0  0  0  0  0  0  0  0  0  0  0  0
   10.5360   -0.4790   24.5520 C   0  0  0  0  0  0  0  0  0  0  0  0
   11.7610    0.4330   24.1970 C   0  0  0  0  0  0  0  0  0  0  0  0
   12.7520    0.0990   23.0960 C   0  0  0  0  0  0  0  0  0  0  0  0
   12.5060   -1.1580   22.3400 C   0  0  0  0  0  0  0  0  0  0  0  0
   13.2560   -1.6540   21.2950 C   0  0  0  0  0  0  0  0  0  0  0  0
   11.3140   -2.0280   22.6930 C   0  0  0  0  0  0  0  0  0  0  0  0
    9.0310   -3.6380   25.0110 C   0  0  0  0  0  0  0  0  0  0  0  0
    9.7630   -4.8280   25.0840 C   0  0  0  0  0  0  0  0  0  0  0  0
    9.4370   -5.6660   26.1270 C   0  0  0  0  0  0  0  0  0  0  0  0
    8.4320   -5.1580   26.9110 C   0  0  0  0  0  0  0  0  0  0  0  0
    7.7380   -5.8980   28.2890 Cl  0  0  0  0  0  0  0  0  0  0  0  0
    7.8840   -3.5790   26.3250 S   0  0  0  0  0  0  0  0  0  0  0  0
    8.4250   -1.9170   21.6000 C   0  0  0  0  0  0  0  0  0  0  0  0
    7.0980   -1.4980   21.5150 C   0  0  0  0  0  0  0  0  0  0  0  0
  1  2  1  0
  2  3  2  0
  2  4  1  0
  4  5  1  0
  5  6  1  0
  6  7  1  0
  7  8  1  0
  8  9  1  0
  9 10  2  0
 10 11  1  0
 11 12  2  0
 12 13  1  0
 13 14  1  0
  9 15  1  0
 13 15  2  0
  8 16  1  0
 16 17  2  0
 17 18  1  0
 18 19  2  0
 19 20  1  0
 16 21  1  0
 19 21  1  0
  7 22  1  0
  4 23  1  0
 22 23  1  0
M  END
