OLE-CAR-5b17bec5-4
     RDKit          3D

 19 21  0  0  0  0  0  0  0  0999 V2000
    5.8430   -5.8830   23.2730 O   0  0  0  0  0  0  0  0  0  0  0  0
    5.6240   -4.6850   23.1460 C   0  0  0  0  0  0  0  0  0  0  0  0
    6.2310   -3.9030   22.2200 O   0  0  0  0  0  0  0  0  0  0  0  0
    7.5450   -3.4820   22.4880 C   0  0  0  0  0  0  0  0  0  0  0  0
    8.6590   -3.7280   23.3590 C   0  0  0  0  0  0  0  0  0  0  0  0
    9.6130   -2.7650   22.8500 N   0  0  0  0  0  0  0  0  0  0  0  0
    9.2210   -1.8980   21.7050 C   0  0  0  0  0  0  0  0  0  0  0  0
    7.9230   -1.9820   21.0950 C   0  0  0  0  0  0  0  0  0  0  0  0
    6.3760   -2.7330   21.0710 Cl  0  0  0  0  0  0  0  0  0  0  0  0
    8.4740   -2.6190   22.0730 C   0  0  0  0  0  0  0  0  0  0  0  0
    4.7100   -3.8930   23.9360 C   0  0  0  0  0  0  0  0  0  0  0  0
    3.5010   -4.8090   23.9260 C   0  0  0  0  0  0  0  0  0  0  0  0
    2.4130   -3.8510   24.8810 C   0  0  0  0  0  0  0  0  0  0  0  0
    3.1220   -2.6480   25.2450 C   0  0  0  0  0  0  0  0  0  0  0  0
    1.8900   -2.1570   26.0060 C   0  0  0  0  0  0  0  0  0  0  0  0
    0.6730   -3.2340   25.9110 C   0  0  0  0  0  0  0  0  0  0  0  0
    0.7590   -4.6530   25.1110 C   0  0  0  0  0  0  0  0  0  0  0  0
    2.1160   -4.8910   24.4380 C   0  0  0  0  0  0  0  0  0  0  0  0
    3.3610   -3.5640   24.6530 S   0  0  0  0  0  0  0  0  0  0  0  0
  1  2  2  0
  2  3  1  0
  3  4  1  0
  4  5  2  0
  5  6  1  0
  6  7  2  0
  7  8  1  0
  8  9  1  0
  4 10  1  0
  8 10  2  0
  2 11  1  0
 11 12  2  0
 12 13  1  0
 13 14  2  0
 14 15  1  0
 15 16  2  0
 16 17  1  0
 13 18  1  0
 17 18  2  0
 11 19  1  0
 18 19  1  0
M  END
