OLE-CAR-5b17bec5-13
     RDKit          3D

 22 25  0  0  0  0  0  0  0  0999 V2000
    3.5290   -2.3230   24.8260 C   0  0  0  0  0  0  0  0  0  0  0  0
    4.6700   -2.5510   25.7880 C   0  0  1  0  0  0  0  0  0  0  0  0
    5.3150   -3.9000   25.4560 C   0  0  0  0  0  0  0  0  0  0  0  0
    6.5580   -3.7050   24.7020 O   0  0  0  0  0  0  0  0  0  0  0  0
    6.7850   -2.3650   24.8150 C   0  0  0  0  0  0  0  0  0  0  0  0
    5.8520   -1.6550   25.3800 C   0  0  0  0  0  0  0  0  0  0  0  0
    6.1040   -0.3260   25.5150 C   0  0  0  0  0  0  0  0  0  0  0  0
    5.5360    0.6230   24.9710 O   0  0  0  0  0  0  0  0  0  0  0  0
    7.1350    0.0550   26.3930 C   0  0  0  0  0  0  0  0  0  0  0  0
    5.8570    0.2530   27.0200 O   0  0  0  0  0  0  0  0  0  0  0  0
    8.3780   -0.2820   25.4130 C   0  0  0  0  0  0  0  0  0  0  0  0
    7.8780   -1.5670   24.3830 C   0  0  0  0  0  0  0  0  0  0  0  0
    8.4830   -2.1620   22.9070 C   0  0  0  0  0  0  0  0  0  0  0  0
    9.0260   -1.1580   21.8210 C   0  0  0  0  0  0  0  0  0  0  0  0
    8.8050   -0.6030   23.0590 C   0  0  0  0  0  0  0  0  0  0  0  0
    9.1970   -0.5890   24.5240 C   0  0  0  0  0  0  0  0  0  0  0  0
   10.6990   -0.8760   24.8490 C   0  0  0  0  0  0  0  0  0  0  0  0
   11.4780   -0.4940   23.7730 C   0  0  0  0  0  0  0  0  0  0  0  0
   11.0570   -1.2870   22.7430 C   0  0  0  0  0  0  0  0  0  0  0  0
    9.7520   -1.6880   23.0280 C   0  0  0  0  0  0  0  0  0  0  0  0
    9.6680   -2.7660   23.8980 C   0  0  0  0  0  0  0  0  0  0  0  0
    9.4740   -2.4390   21.7330 C   0  0  0  0  0  0  0  0  0  0  0  0
  2  1  1  6
  2  3  1  0
  3  4  1  0
  4  5  1  0
  2  6  1  0
  5  6  2  0
  6  7  1  0
  7  8  2  0
  7  9  1  0
  9 10  2  0
  9 11  1  0
  5 12  1  0
 11 12  2  0
 12 13  1  0
 13 14  2  0
 14 15  1  0
 11 16  1  0
 15 16  2  0
 16 17  1  0
 17 18  1  0
 18 19  1  0
 15 20  1  0
 19 20  1  0
 20 21  1  0
 20 22  1  0
M  END
