OLE-CAR-5b17bec5-2
     RDKit          3D

 19 21  0  0  0  0  0  0  0  0999 V2000
    5.9920   -4.0740   23.7980 O   0  0  0  0  0  0  0  0  0  0  0  0
    4.9540   -4.1520   23.1220 C   0  0  0  0  0  0  0  0  0  0  0  0
    4.8610   -3.6970   21.8210 O   0  0  0  0  0  0  0  0  0  0  0  0
    5.6960   -2.6090   21.4600 C   0  0  0  0  0  0  0  0  0  0  0  0
    6.9000   -2.1800   22.2980 C   0  0  0  0  0  0  0  0  0  0  0  0
    7.6640   -1.1210   21.8990 N   0  0  0  0  0  0  0  0  0  0  0  0
    7.3090   -0.4840   20.7570 C   0  0  0  0  0  0  0  0  0  0  0  0
    6.2360   -0.8090   19.9420 C   0  0  0  0  0  0  0  0  0  0  0  0
    5.9480    0.1360   18.5270 Cl  0  0  0  0  0  0  0  0  0  0  0  0
    5.4130   -1.8860   20.2820 C   0  0  0  0  0  0  0  0  0  0  0  0
    3.6730   -4.7280   23.5640 C   0  0  0  0  0  0  0  0  0  0  0  0
    4.4140   -6.0420   22.7270 C   0  0  0  0  0  0  0  0  0  0  0  0
    3.5870   -5.3280   23.3960 C   0  0  0  0  0  0  0  0  0  0  0  0
    4.8270   -4.6140   23.0300 C   0  0  0  0  0  0  0  0  0  0  0  0
    4.9530   -3.1650   23.4930 C   0  0  0  0  0  0  0  0  0  0  0  0
    3.5370   -3.4220   24.1190 C   0  0  0  0  0  0  0  0  0  0  0  0
    2.6170   -4.7070   24.1140 C   0  0  0  0  0  0  0  0  0  0  0  0
    2.8510   -6.1200   23.4800 C   0  0  0  0  0  0  0  0  0  0  0  0
    2.2200   -5.6620   23.9640 O   0  0  0  0  0  0  0  0  0  0  0  0
  1  2  2  0
  2  3  1  0
  3  4  1  0
  4  5  2  0
  5  6  1  0
  6  7  2  0
  7  8  1  0
  8  9  1  0
  4 10  1  0
  8 10  2  0
  2 11  1  0
 11 12  2  0
 12 13  1  0
 13 14  2  0
 14 15  1  0
 15 16  2  0
 16 17  1  0
 13 18  1  0
 17 18  2  0
 11 19  1  0
 18 19  1  0
M  END
