OLE-CAR-5b17bec5-7
     RDKit          3D

 28 29  0  0  0  0  0  0  0  0999 V2000
    6.8560   -4.4260   20.9300 C   0  0  0  0  0  0  0  0  0  0  0  0
    6.3530   -4.6270   22.2520 C   0  0  0  0  0  0  0  0  0  0  0  0
    6.7050   -3.6430   23.2880 C   0  0  0  0  0  0  0  0  0  0  0  0
    6.1940   -3.8430   24.5380 C   0  0  0  0  0  0  0  0  0  0  0  0
    6.6300   -2.6440   25.6920 Cl  0  0  0  0  0  0  0  0  0  0  0  0
    5.3680   -4.9460   24.8160 C   0  0  0  0  0  0  0  0  0  0  0  0
    4.6750   -5.1760   26.3760 S   0  0  0  0  0  0  0  0  0  0  0  0
    5.5980   -4.6720   27.3580 O   0  0  0  0  0  0  0  0  0  0  0  0
    4.1140   -6.5140   26.3960 O   0  0  0  0  0  0  0  0  0  0  0  0
    3.2910   -4.0560   26.2590 C   0  0  0  0  0  0  0  0  0  0  0  0
    2.0060   -4.5870   25.9620 C   0  0  0  0  0  0  0  0  0  0  0  0
    1.7490   -5.9460   25.7680 N   0  0  0  0  0  0  0  0  0  0  0  0
    1.1060   -6.2440   24.7540 O   0  0  0  0  0  0  0  0  0  0  0  0
    1.7980   -6.6320   26.8010 O   0  0  0  0  0  0  0  0  0  0  0  0
    0.7290   -3.7340   25.8210 C   0  0  0  0  0  0  0  0  0  0  0  0
    0.9850   -2.2360   26.0300 C   0  0  0  0  0  0  0  0  0  0  0  0
   -0.2290   -1.3010   25.9310 C   0  0  0  0  0  0  0  0  0  0  0  0
   -1.0720   -1.0980   26.9580 F   0  0  0  0  0  0  0  0  0  0  0  0
   -1.0610   -1.6960   24.9320 F   0  0  0  0  0  0  0  0  0  0  0  0
    0.1710   -0.0460   25.6050 F   0  0  0  0  0  0  0  0  0  0  0  0
    2.3880   -1.6370   26.3420 C   0  0  0  0  0  0  0  0  0  0  0  0
    3.5210   -2.6600   26.4530 C   0  0  0  0  0  0  0  0  0  0  0  0
    4.7400   -2.1810   26.7470 N   0  0  0  0  0  0  0  0  0  0  0  0
    5.1760   -2.5760   27.8380 O   0  0  0  0  0  0  0  0  0  0  0  0
    4.9780   -1.0570   26.2820 O   0  0  0  0  0  0  0  0  0  0  0  0
    5.0470   -5.8830   23.8650 C   0  0  0  0  0  0  0  0  0  0  0  0
    5.5990   -5.6700   22.5200 C   0  0  0  0  0  0  0  0  0  0  0  0
    5.3200   -6.5580   21.6000 C   0  0  0  0  0  0  0  0  0  0  0  0
  1  2  1  0
  2  3  2  0
  3  4  1  0
  4  5  1  0
  4  6  2  0
  7  6  1  0
  7  8  2  0
  7  9  2  0
  7 10  1  0
 10 11  2  0
 11 12  1  0
 12 13  2  0
 12 14  1  0
 11 15  1  0
 15 16  2  0
 16 17  1  0
 17 18  1  0
 17 19  1  0
 17 20  1  0
 16 21  1  0
 10 22  1  0
 21 22  2  0
 22 23  1  0
 23 24  2  0
 23 25  1  0
  6 26  1  0
  2 27  1  0
 26 27  2  0
 27 28  1  0
M  CHG  4  12   1  14  -1  23   1  25  -1
M  END
