ORN-MSD-5b974918-1
     RDKit          3D

 25 27  0  0  0  0  0  0  0  0999 V2000
    9.0200    6.4120   22.5280 N   0  0  0  0  0  0  0  0  0  0  0  0
   10.2260    6.2140   23.3810 C   0  0  0  0  0  0  0  0  0  0  0  0
   10.2120    6.4740   24.7790 O   0  0  0  0  0  0  0  0  0  0  0  0
   11.2760    5.7700   22.6560 N   0  0  0  0  0  0  0  0  0  0  0  0
   12.4290    5.1560   23.3110 C   0  0  0  0  0  0  0  0  0  0  0  0
   12.7260    3.7830   22.7220 C   0  0  0  0  0  0  0  0  0  0  0  0
   11.7790    2.6510   23.1880 C   0  0  0  0  0  0  0  0  0  0  0  0
   10.4670    2.9760   23.8750 C   0  0  0  0  0  0  0  0  0  0  0  0
    9.8230    1.8010   24.1430 N   0  0  0  0  0  0  0  0  0  0  0  0
   10.6940    0.7710   23.6460 C   0  0  0  0  0  0  0  0  0  0  0  0
   10.4040   -0.6680   23.6940 C   0  0  0  0  0  0  0  0  0  0  0  0
    9.0700   -0.9860   24.3170 C   0  0  0  0  0  0  0  0  0  0  0  0
    8.4480   -1.7870   23.1870 C   0  0  0  0  0  0  0  0  0  0  0  0
    7.2640   -2.5170   23.4180 N   0  0  0  0  0  0  0  0  0  0  0  0
    6.1000   -2.6450   22.6470 C   0  0  0  0  0  0  0  0  0  0  0  0
    4.8330   -3.2270   23.2750 C   0  0  0  0  0  0  0  0  0  0  0  0
    4.9700   -4.0750   24.5340 C   0  0  0  0  0  0  0  0  0  0  0  0
    5.5900   -5.1180   24.3310 O   0  0  0  0  0  0  0  0  0  0  0  0
    6.9090   -4.9400   23.7980 C   0  0  0  0  0  0  0  0  0  0  0  0
    7.5420   -3.6220   24.1910 C   0  0  0  0  0  0  0  0  0  0  0  0
   11.3760   -1.7290   23.1420 C   0  0  0  0  0  0  0  0  0  0  0  0
   12.6800   -1.1830   22.5390 C   0  0  0  0  0  0  0  0  0  0  0  0
   13.5370   -2.0840   22.0420 F   0  0  0  0  0  0  0  0  0  0  0  0
   12.9100    0.3370   22.5360 C   0  0  0  0  0  0  0  0  0  0  0  0
   11.8450    1.2610   23.1030 C   0  0  0  0  0  0  0  0  0  0  0  0
  1  2  1  0
  2  3  2  0
  2  4  1  0
  4  5  1  0
  5  6  1  0
  6  7  1  0
  7  8  2  0
  8  9  1  0
  9 10  1  0
 10 11  1  0
 11 12  1  0
 12 13  1  0
 13 14  1  0
 14 15  1  0
 15 16  1  0
 16 17  1  0
 17 18  1  0
 18 19  1  0
 14 20  1  0
 19 20  1  0
 11 21  2  0
 21 22  1  0
 22 23  1  0
 22 24  2  0
  7 25  1  0
 10 25  2  0
 24 25  1  0
M  END
