PAF-PIO-d312ccf6-2
     RDKit          3D

 43 47  0  0  0  0  0  0  0  0999 V2000
    1.2040   -0.2310   26.3100 C   0  0  0  0  0  0  0  0  0  0  0  0
    1.0460   -1.4210   26.5780 O   0  0  0  0  0  0  0  0  0  0  0  0
    2.1060   -2.2590   26.3090 C   0  0  0  0  0  0  0  0  0  0  0  0
    3.5780   -1.9430   26.5700 C   0  0  0  0  0  0  0  0  0  0  0  0
    4.6410   -2.9850   26.2120 C   0  0  0  0  0  0  0  0  0  0  0  0
    4.1380   -4.2660   25.6160 C   0  0  0  0  0  0  0  0  0  0  0  0
    4.9270   -5.3420   25.2050 C   0  0  1  0  0  0  0  0  0  0  0  0
    4.2580   -6.0540   24.2350 C   0  0  0  0  0  0  0  0  0  0  0  0
    3.8230   -5.2880   23.1360 C   0  0  0  0  0  0  0  0  0  0  0  0
    2.5320   -4.9530   22.8960 O   0  0  0  0  0  0  0  0  0  0  0  0
    4.8510   -4.9180   22.3330 C   0  0  0  0  0  0  0  0  0  0  0  0
    5.9570   -4.5190   21.4690 C   0  0  0  0  0  0  0  0  0  0  0  0
    6.9360   -4.3110   22.2060 O   0  0  0  0  0  0  0  0  0  0  0  0
    6.2550   -4.2970   20.3360 C   0  0  0  0  0  0  0  0  0  0  0  0
    7.4370   -3.9190   20.7700 C   0  0  0  0  0  0  0  0  0  0  0  0
    8.2410   -3.5010   19.8880 O   0  0  0  0  0  0  0  0  0  0  0  0
    7.6870   -3.0960   18.5650 C   0  0  2  0  0  0  0  0  0  0  0  0
    8.2840   -3.6410   17.3550 O   0  0  0  0  0  0  0  0  0  0  0  0
    7.3400   -3.5690   16.2030 C   0  0  2  0  0  0  0  0  0  0  0  0
    7.4610   -4.5720   15.0020 C   0  0  0  0  0  0  0  0  0  0  0  0
    7.1430   -6.1930   14.9060 O   0  0  0  0  0  0  0  0  0  0  0  0
    5.8660   -7.3240   14.8870 C   0  0  2  0  0  0  0  0  0  0  0  0
    4.7660   -6.9640   14.0980 O   0  0  0  0  0  0  0  0  0  0  0  0
    4.2210   -8.1390   13.5630 C   0  0  1  0  0  0  0  0  0  0  0  0
    5.2990   -8.4210   12.8480 C   0  0  0  0  0  0  0  0  0  0  0  0
    3.6160   -8.9450   14.5820 C   0  0  2  0  0  0  0  0  0  0  0  0
    2.3830   -9.6930   14.3930 O   0  0  0  0  0  0  0  0  0  0  0  0
    3.6140   -8.2570   15.7190 C   0  0  1  0  0  0  0  0  0  0  0  0
    3.1050   -9.1510   16.7510 O   0  0  0  0  0  0  0  0  0  0  0  0
    4.9180   -7.8280   16.1280 C   0  0  1  0  0  0  0  0  0  0  0  0
    5.3460   -8.9300   16.8770 O   0  0  0  0  0  0  0  0  0  0  0  0
    7.3200   -2.1890   15.8890 C   0  0  1  0  0  0  0  0  0  0  0  0
    6.5550   -1.8930   14.7190 O   0  0  0  0  0  0  0  0  0  0  0  0
    6.7380   -1.6380   17.0710 C   0  0  2  0  0  0  0  0  0  0  0  0
    6.0260   -0.4180   16.7810 O   0  0  0  0  0  0  0  0  0  0  0  0
    7.4950   -1.5940   18.2390 C   0  0  1  0  0  0  0  0  0  0  0  0
    6.7540   -0.8310   19.2150 O   0  0  0  0  0  0  0  0  0  0  0  0
    7.3490   -4.1480   22.3010 C   0  0  0  0  0  0  0  0  0  0  0  0
    6.0720   -4.6540   23.1040 C   0  0  0  0  0  0  0  0  0  0  0  0
    6.1370   -4.8030   24.5350 O   0  0  0  0  0  0  0  0  0  0  0  0
    2.7330   -4.4600   25.4220 C   0  0  0  0  0  0  0  0  0  0  0  0
    1.7850   -3.4860   25.7580 C   0  0  0  0  0  0  0  0  0  0  0  0
    0.4500   -3.7610   25.5290 O   0  0  0  0  0  0  0  0  0  0  0  0
  1  2  1  0
  2  3  1  0
  3  4  2  0
  4  5  1  0
  5  6  2  0
  7  6  1  6
  7  8  1  0
  8  9  1  0
  9 10  2  0
  9 11  1  0
 11 12  2  0
 12 13  1  0
 12 14  1  0
 14 15  2  0
 15 16  1  0
 17 16  1  1
 17 18  1  0
 18 19  1  0
 19 20  1  6
 20 21  1  0
 22 21  1  1
 22 23  1  0
 23 24  1  0
 24 25  1  1
 24 26  1  0
 26 27  1  6
 26 28  1  0
 28 29  1  1
 22 30  1  0
 28 30  1  0
 30 31  1  6
 19 32  1  0
 32 33  1  6
 32 34  1  0
 34 35  1  6
 17 36  1  0
 34 36  1  0
 36 37  1  1
 15 38  1  0
 11 39  1  0
 38 39  2  0
  7 40  1  0
 39 40  1  0
  6 41  1  0
  3 42  1  0
 41 42  2  0
 42 43  1  0
M  END
