PAF-PIO-d312ccf6-1
     RDKit          3D

 23 24  0  0  0  0  0  0  0  0999 V2000
    6.9900   -1.1590   18.8870 C   0  0  0  0  0  0  0  0  0  0  0  0
    6.2080   -2.3810   19.2810 C   0  0  0  0  0  0  0  0  0  0  0  0
    6.7220   -3.0300   20.3870 N   0  0  0  0  0  0  0  0  0  0  0  0
    7.1330   -2.2370   21.5350 C   0  0  0  0  0  0  0  0  0  0  0  0
    8.5820   -1.7510   21.4240 C   0  0  0  0  0  0  0  0  0  0  0  0
    8.9820   -1.2390   22.4640 O   0  0  0  0  0  0  0  0  0  0  0  0
    5.8450   -4.0470   20.7460 C   0  0  0  0  0  0  0  0  0  0  0  0
    5.9130   -4.9750   21.7730 C   0  0  0  0  0  0  0  0  0  0  0  0
    6.6460   -4.6610   22.8860 C   0  0  0  0  0  0  0  0  0  0  0  0
    6.1100   -4.3780   24.1490 C   0  0  2  0  0  0  0  0  0  0  0  0
    6.8360   -3.4130   25.0690 C   0  0  0  0  0  0  0  0  0  0  0  0
    5.7290   -5.4050   24.9400 N   0  0  0  0  0  0  0  0  0  0  0  0
    4.5810   -5.5260   25.6870 C   0  0  0  0  0  0  0  0  0  0  0  0
    4.2710   -6.7200   26.2130 C   0  0  0  0  0  0  0  0  0  0  0  0
    3.1370   -6.9640   26.9470 C   0  0  0  0  0  0  0  0  0  0  0  0
    2.2020   -5.8510   27.1660 N   0  0  0  0  0  0  0  0  0  0  0  0
    2.5020   -4.5890   26.6370 C   0  0  0  0  0  0  0  0  0  0  0  0
    1.6470   -3.5060   26.8160 C   0  0  0  0  0  0  0  0  0  0  0  0
    1.9420   -2.2320   26.3020 C   0  0  0  0  0  0  0  0  0  0  0  0
    0.8410   -0.9380   26.5600 Cl  0  0  0  0  0  0  0  0  0  0  0  0
    3.1070   -2.0300   25.5980 C   0  0  0  0  0  0  0  0  0  0  0  0
    3.9310   -3.1120   25.4230 C   0  0  0  0  0  0  0  0  0  0  0  0
    3.6940   -4.3940   25.9010 C   0  0  0  0  0  0  0  0  0  0  0  0
  1  2  1  0
  2  3  1  0
  3  4  1  0
  4  5  1  0
  5  6  1  0
  3  7  1  0
  7  8  1  0
  8  9  1  0
  9 10  1  0
 10 11  1  1
 10 12  1  0
 12 13  1  0
 13 14  2  0
 14 15  1  0
 15 16  2  0
 16 17  1  0
 17 18  1  0
 18 19  2  0
 19 20  1  0
 19 21  1  0
 21 22  2  0
 13 23  1  0
 17 23  2  0
 22 23  1  0
M  END
