PAT-GYR-de8eec61-2
     RDKit          3D

 32 34  0  0  0  0  0  0  0  0999 V2000
   14.2510   -4.1220   26.3210 O   0  0  0  0  0  0  0  0  0  0  0  0
   14.8470   -3.1830   25.8450 C   0  0  0  0  0  0  0  0  0  0  0  0
   16.3430   -3.3000   25.7290 C   0  0  0  0  0  0  0  0  0  0  0  0
   17.6530   -2.3410   25.8820 C   0  0  0  0  0  0  0  0  0  0  0  0
   19.0740   -2.3330   25.5440 C   0  0  0  0  0  0  0  0  0  0  0  0
   19.5900   -2.4700   24.2550 C   0  0  0  0  0  0  0  0  0  0  0  0
   20.9660   -2.4260   24.0350 C   0  0  0  0  0  0  0  0  0  0  0  0
   21.8460   -2.2390   25.0840 C   0  0  0  0  0  0  0  0  0  0  0  0
   23.3300   -2.1960   24.7120 C   0  0  0  0  0  0  0  0  0  0  0  0
   23.7430   -3.4630   24.1600 N   0  0  0  0  0  0  0  0  0  0  0  0
   25.0980   -3.9790   24.4900 C   0  0  0  0  0  0  0  0  0  0  0  0
   26.1170   -3.3140   24.3060 O   0  0  0  0  0  0  0  0  0  0  0  0
   25.1170   -5.2660   25.0200 N   0  0  0  0  0  0  0  0  0  0  0  0
   24.2970   -6.3010   24.3830 C   0  0  0  0  0  0  0  0  0  0  0  0
   24.3560   -7.5620   25.2440 C   0  0  0  0  0  0  0  0  0  0  0  0
   24.0110   -7.2380   26.6000 O   0  0  0  0  0  0  0  0  0  0  0  0
   25.0000   -6.4090   27.2210 C   0  0  0  0  0  0  0  0  0  0  0  0
   25.8810   -5.6700   26.2100 C   0  0  0  0  0  0  0  0  0  0  0  0
   21.3610   -2.0980   26.3660 C   0  0  0  0  0  0  0  0  0  0  0  0
   19.9920   -2.1440   26.5820 C   0  0  0  0  0  0  0  0  0  0  0  0
   14.0200   -2.1530   25.4170 N   0  0  0  0  0  0  0  0  0  0  0  0
   13.0110   -2.3330   24.3990 C   0  0  0  0  0  0  0  0  0  0  0  0
   12.3380   -1.1260   24.1370 C   0  0  0  0  0  0  0  0  0  0  0  0
   11.0710   -0.8900   24.6610 C   0  0  0  0  0  0  0  0  0  0  0  0
   10.3650    0.2840   24.4270 C   0  0  0  0  0  0  0  0  0  0  0  0
   10.9240    1.2870   23.6380 C   0  0  0  0  0  0  0  0  0  0  0  0
   10.2200    2.4670   23.3910 C   0  0  0  0  0  0  0  0  0  0  0  0
    9.2190    2.6690   24.2900 F   0  0  0  0  0  0  0  0  0  0  0  0
    9.6080    2.4700   22.1720 F   0  0  0  0  0  0  0  0  0  0  0  0
   10.9970    3.5890   23.4230 F   0  0  0  0  0  0  0  0  0  0  0  0
   12.2000    1.0780   23.1010 C   0  0  0  0  0  0  0  0  0  0  0  0
   12.8970   -0.1110   23.3430 C   0  0  0  0  0  0  0  0  0  0  0  0
  1  2  2  0
  2  3  1  0
  3  4  3  0
  4  5  1  0
  5  6  2  0
  6  7  1  0
  7  8  2  0
  8  9  1  0
  9 10  1  0
 10 11  1  0
 11 12  2  0
 11 13  1  0
 13 14  1  0
 14 15  1  0
 15 16  1  0
 16 17  1  0
 13 18  1  0
 17 18  1  0
  8 19  1  0
  5 20  1  0
 19 20  2  0
  2 21  1  0
 21 22  1  0
 22 23  1  0
 23 24  2  0
 24 25  1  0
 25 26  2  0
 26 27  1  0
 27 28  1  0
 27 29  1  0
 27 30  1  0
 26 31  1  0
 23 32  1  0
 31 32  2  0
M  END
