PAT-GYR-359dbb24-4
     RDKit          3D

 21 22  0  0  0  0  0  0  0  0999 V2000
   14.0420   -4.9150   20.3880 N   0  0  0  0  0  0  0  0  0  0  0  0
   13.5560   -3.8970   20.6050 C   0  0  0  0  0  0  0  0  0  0  0  0
   14.4400   -3.1370   19.9700 O   0  0  0  0  0  0  0  0  0  0  0  0
   12.6360   -2.8770   21.0720 C   0  0  0  0  0  0  0  0  0  0  0  0
   13.3130   -1.6200   21.5590 C   0  0  0  0  0  0  0  0  0  0  0  0
   12.3590   -0.9110   22.4830 C   0  0  0  0  0  0  0  0  0  0  0  0
   11.1220   -1.7370   22.8010 C   0  0  0  0  0  0  0  0  0  0  0  0
   10.1160   -1.0970   23.7180 C   0  0  0  0  0  0  0  0  0  0  0  0
   10.4180    0.2920   24.2280 C   0  0  0  0  0  0  0  0  0  0  0  0
    9.3720    0.8860   25.1390 C   0  0  0  0  0  0  0  0  0  0  0  0
    8.0240    0.6350   24.8390 N   0  0  0  0  0  0  0  0  0  0  0  0
    7.1970    1.4080   24.0500 C   0  0  0  0  0  0  0  0  0  0  0  0
    7.6400    2.4530   23.5830 O   0  0  0  0  0  0  0  0  0  0  0  0
    5.8230    0.9360   23.8180 N   0  0  0  0  0  0  0  0  0  0  0  0
    5.2840    1.4560   22.5580 C   0  0  0  0  0  0  0  0  0  0  0  0
    3.8070    1.1260   22.4950 C   0  0  0  0  0  0  0  0  0  0  0  0
    3.1280    0.8380   23.4430 O   0  0  0  0  0  0  0  0  0  0  0  0
    3.8940    0.1290   24.4090 C   0  0  0  0  0  0  0  0  0  0  0  0
    4.9650    0.9150   24.8530 C   0  0  0  0  0  0  0  0  0  0  0  0
   11.6030    0.9530   23.8540 C   0  0  0  0  0  0  0  0  0  0  0  0
   12.5480    0.3720   23.0100 C   0  0  0  0  0  0  0  0  0  0  0  0
  1  2  1  0
  2  3  2  0
  2  4  1  0
  4  5  3  0
  5  6  1  0
  6  7  2  0
  7  8  1  0
  8  9  2  0
  9 10  1  0
 10 11  1  0
 11 12  1  0
 12 13  2  0
 12 14  1  0
 14 15  1  0
 15 16  1  0
 16 17  1  0
 17 18  1  0
 14 19  1  0
 18 19  1  0
  9 20  1  0
  6 21  1  0
 20 21  2  0
M  END
