PAT-GYR-de8eec61-7
     RDKit          3D

 26 28  0  0  0  0  0  0  0  0999 V2000
   20.9370    6.1880   20.9320 O   0  0  0  0  0  0  0  0  0  0  0  0
   21.6180    7.1720   20.6660 C   0  0  0  0  0  0  0  0  0  0  0  0
   21.1910    8.3230   20.0030 N   0  0  0  0  0  0  0  0  0  0  0  0
   20.0850    8.4870   19.1050 C   0  0  0  0  0  0  0  0  0  0  0  0
   18.9990    7.5920   19.0840 C   0  0  0  0  0  0  0  0  0  0  0  0
   19.0010    6.4280   19.8740 C   0  0  0  0  0  0  0  0  0  0  0  0
   17.8540    5.4980   19.8650 C   0  0  0  0  0  0  0  0  0  0  0  0
   16.7040    5.7300   19.0980 C   0  0  0  0  0  0  0  0  0  0  0  0
   15.5770    4.8530   19.1500 C   0  0  0  0  0  0  0  0  0  0  0  0
   15.4000    4.0860   20.5030 C   0  0  0  0  0  0  0  0  0  0  0  0
   14.0370    4.0910   21.2900 C   0  0  0  0  0  0  0  0  0  0  0  0
   13.3800    5.4650   21.2340 C   0  0  0  0  0  0  0  0  0  0  0  0
   12.0530    5.6390   21.9670 C   0  0  0  0  0  0  0  0  0  0  0  0
   11.4850    4.5650   22.6450 C   0  0  0  0  0  0  0  0  0  0  0  0
   12.1900    3.2160   22.6520 C   0  0  0  0  0  0  0  0  0  0  0  0
   13.4110    2.9990   22.0020 C   0  0  0  0  0  0  0  0  0  0  0  0
   13.9470    1.7010   22.0940 C   0  0  0  0  0  0  0  0  0  0  0  0
   13.4160    0.7590   22.9420 O   0  0  0  0  0  0  0  0  0  0  0  0
   16.7310    6.8840   18.3050 C   0  0  0  0  0  0  0  0  0  0  0  0
   17.8250    7.7820   18.2870 C   0  0  0  0  0  0  0  0  0  0  0  0
   22.9650    7.1750   21.0380 N   0  0  0  0  0  0  0  0  0  0  0  0
   23.5190    7.9810   22.1350 C   0  0  0  0  0  0  0  0  0  0  0  0
   24.5780    7.3340   22.7800 C   0  0  0  0  0  0  0  0  0  0  0  0
   24.3020    5.9680   23.1170 O   0  0  0  0  0  0  0  0  0  0  0  0
   23.7380    5.2060   22.0360 C   0  0  0  0  0  0  0  0  0  0  0  0
   23.6730    5.9100   20.8360 C   0  0  0  0  0  0  0  0  0  0  0  0
  1  2  2  0
  2  3  1  0
  3  4  1  0
  4  5  1  0
  5  6  2  0
  6  7  1  0
  7  8  2  0
  8  9  1  0
  9 10  3  0
 10 11  1  0
 11 12  2  0
 12 13  1  0
 13 14  2  0
 14 15  1  0
 11 16  1  0
 15 16  2  0
 16 17  1  0
 17 18  1  0
  8 19  1  0
  5 20  1  0
 19 20  2  0
  2 21  1  0
 21 22  1  0
 22 23  1  0
 23 24  1  0
 24 25  1  0
 21 26  1  0
 25 26  1  0
M  END
