PAT-GYR-de8eec61-1
     RDKit          3D

 28 30  0  0  0  0  0  0  0  0999 V2000
    9.1520    6.6050   25.9740 O   0  0  0  0  0  0  0  0  0  0  0  0
    9.9370    6.3250   25.0710 C   0  0  0  0  0  0  0  0  0  0  0  0
    9.5720    5.4690   24.0370 C   0  0  0  0  0  0  0  0  0  0  0  0
   10.5660    4.9910   23.1920 C   0  0  0  0  0  0  0  0  0  0  0  0
   11.0760    3.7010   23.3160 C   0  0  0  0  0  0  0  0  0  0  0  0
   10.3250    2.6940   23.9270 C   0  0  0  0  0  0  0  0  0  0  0  0
   10.8470    1.4140   24.0460 C   0  0  0  0  0  0  0  0  0  0  0  0
   12.1230    1.1360   23.5590 C   0  0  0  0  0  0  0  0  0  0  0  0
   12.5770   -0.3020   23.7640 C   0  0  0  0  0  0  0  0  0  0  0  0
   11.3530   -1.0330   24.0280 N   0  0  0  0  0  0  0  0  0  0  0  0
   11.1170   -2.4530   23.6850 C   0  0  0  0  0  0  0  0  0  0  0  0
   11.9450   -3.3130   23.9210 O   0  0  0  0  0  0  0  0  0  0  0  0
    9.8670   -2.6990   23.1090 N   0  0  0  0  0  0  0  0  0  0  0  0
    9.0610   -1.5070   22.8480 C   0  0  0  0  0  0  0  0  0  0  0  0
    7.9820   -1.8260   21.8040 C   0  0  0  0  0  0  0  0  0  0  0  0
    7.1680   -2.9650   22.1690 O   0  0  0  0  0  0  0  0  0  0  0  0
    7.8680   -4.1220   22.6640 C   0  0  0  0  0  0  0  0  0  0  0  0
    9.0340   -3.7950   23.5790 C   0  0  0  0  0  0  0  0  0  0  0  0
   12.8670    2.1280   22.9530 C   0  0  0  0  0  0  0  0  0  0  0  0
   12.3500    3.4150   22.8260 C   0  0  0  0  0  0  0  0  0  0  0  0
   11.2280    6.8220   25.0140 N   0  0  0  0  0  0  0  0  0  0  0  0
   11.5090    8.1630   24.5700 C   0  0  0  0  0  0  0  0  0  0  0  0
   11.7570    8.9770   25.6680 C   0  0  0  0  0  0  0  0  0  0  0  0
   11.6750   10.3780   25.5670 C   0  0  0  0  0  0  0  0  0  0  0  0
   11.9240   11.2160   26.6610 C   0  0  0  0  0  0  0  0  0  0  0  0
   12.2620   10.6330   27.8850 C   0  0  0  0  0  0  0  0  0  0  0  0
   12.3450    9.2530   27.9870 C   0  0  0  0  0  0  0  0  0  0  0  0
   12.0990    8.4180   26.9060 C   0  0  0  0  0  0  0  0  0  0  0  0
  1  2  2  0
  2  3  1  0
  3  4  3  0
  4  5  1  0
  5  6  2  0
  6  7  1  0
  7  8  2  0
  8  9  1  0
  9 10  1  0
 10 11  1  0
 11 12  2  0
 11 13  1  0
 13 14  1  0
 14 15  1  0
 15 16  1  0
 16 17  1  0
 13 18  1  0
 17 18  1  0
  8 19  1  0
  5 20  1  0
 19 20  2  0
  2 21  1  0
 21 22  1  0
 22 23  1  0
 23 24  2  0
 24 25  1  0
 25 26  2  0
 26 27  1  0
 23 28  1  0
 27 28  2  0
M  END
