PAT-GYR-de8eec61-4
     RDKit          3D

 24 26  0  0  0  0  0  0  0  0999 V2000
   18.2910   -2.4900   25.5250 O   0  0  0  0  0  0  0  0  0  0  0  0
   18.3840   -3.5710   24.9750 C   0  0  0  0  0  0  0  0  0  0  0  0
   17.2500   -4.3800   24.5170 N   0  0  0  0  0  0  0  0  0  0  0  0
   15.8000   -4.4870   24.9320 C   0  0  0  0  0  0  0  0  0  0  0  0
   14.7030   -3.4680   24.6970 C   0  0  0  0  0  0  0  0  0  0  0  0
   14.2780   -2.6120   25.6960 C   0  0  0  0  0  0  0  0  0  0  0  0
   13.3160   -1.6100   25.4330 C   0  0  0  0  0  0  0  0  0  0  0  0
   12.7180   -1.4120   24.2280 C   0  0  0  0  0  0  0  0  0  0  0  0
   11.7880   -0.3970   24.0290 C   0  0  0  0  0  0  0  0  0  0  0  0
   12.3610    0.5990   23.0120 C   0  0  0  0  0  0  0  0  0  0  0  0
   11.7750    2.0120   23.1210 C   0  0  0  0  0  0  0  0  0  0  0  0
   10.3440    1.9520   23.6440 C   0  0  0  0  0  0  0  0  0  0  0  0
    9.6200    3.2880   23.8050 C   0  0  0  0  0  0  0  0  0  0  0  0
   10.2820    4.4840   23.4760 C   0  0  0  0  0  0  0  0  0  0  0  0
   11.7290    4.4440   22.9580 C   0  0  0  0  0  0  0  0  0  0  0  0
   12.4030    3.2280   22.8050 C   0  0  0  0  0  0  0  0  0  0  0  0
   13.0710   -2.2200   23.2210 C   0  0  0  0  0  0  0  0  0  0  0  0
   14.0200   -3.1860   23.4450 C   0  0  0  0  0  0  0  0  0  0  0  0
   19.7450   -3.9670   24.8950 N   0  0  0  0  0  0  0  0  0  0  0  0
   20.4240   -3.8150   26.1610 C   0  0  0  0  0  0  0  0  0  0  0  0
   21.6760   -3.1550   26.1130 C   0  0  0  0  0  0  0  0  0  0  0  0
   21.4780   -1.7970   25.7220 O   0  0  0  0  0  0  0  0  0  0  0  0
   20.7110   -1.8220   24.5210 C   0  0  0  0  0  0  0  0  0  0  0  0
   20.6250   -3.1380   24.0710 C   0  0  0  0  0  0  0  0  0  0  0  0
  1  2  2  0
  2  3  1  0
  3  4  1  0
  4  5  1  0
  5  6  2  0
  6  7  1  0
  7  8  2  0
  8  9  1  0
  9 10  3  0
 10 11  1  0
 11 12  2  0
 12 13  1  0
 13 14  2  0
 14 15  1  0
 11 16  1  0
 15 16  2  0
  8 17  1  0
  5 18  1  0
 17 18  2  0
  2 19  1  0
 19 20  1  0
 20 21  1  0
 21 22  1  0
 22 23  1  0
 19 24  1  0
 23 24  1  0
M  END
