PAT-GYR-359dbb24-2
     RDKit          3D

 19 20  0  0  0  0  0  0  0  0999 V2000
    7.4770    2.7400   22.9250 O   0  0  0  0  0  0  0  0  0  0  0  0
    7.1410    1.7840   23.6110 C   0  0  0  0  0  0  0  0  0  0  0  0
    8.0270    1.2050   24.4450 N   0  0  0  0  0  0  0  0  0  0  0  0
    9.3350    1.6390   24.4700 C   0  0  0  0  0  0  0  0  0  0  0  0
   10.4270    0.6720   24.2860 C   0  0  0  0  0  0  0  0  0  0  0  0
   10.1470   -0.7740   24.5990 C   0  0  0  0  0  0  0  0  0  0  0  0
   11.2840   -1.7090   24.4330 C   0  0  0  0  0  0  0  0  0  0  0  0
   12.5950   -1.1800   23.9850 C   0  0  0  0  0  0  0  0  0  0  0  0
   13.7490   -2.0690   23.8260 C   0  0  0  0  0  0  0  0  0  0  0  0
   13.4060   -2.2550   22.4770 C   0  0  0  0  0  0  0  0  0  0  0  0
   12.6210   -2.2320   20.8830 Br  0  0  0  0  0  0  0  0  0  0  0  0
   12.7930    0.2870   23.6540 C   0  0  0  0  0  0  0  0  0  0  0  0
   11.7440    1.1660   23.8080 C   0  0  0  0  0  0  0  0  0  0  0  0
    5.8820    1.2490   23.5890 N   0  0  0  0  0  0  0  0  0  0  0  0
    4.9060    1.7200   22.6100 C   0  0  0  0  0  0  0  0  0  0  0  0
    3.8750    0.8390   22.4290 C   0  0  0  0  0  0  0  0  0  0  0  0
    3.2640    0.6600   23.6330 O   0  0  0  0  0  0  0  0  0  0  0  0
    4.0920    0.2630   24.7260 C   0  0  0  0  0  0  0  0  0  0  0  0
    5.2200    1.0750   24.9040 C   0  0  0  0  0  0  0  0  0  0  0  0
  1  2  2  0
  2  3  1  0
  3  4  1  0
  4  5  1  0
  5  6  2  0
  6  7  1  0
  7  8  2  0
  8  9  1  0
  9 10  3  0
 10 11  1  0
  8 12  1  0
  5 13  1  0
 12 13  2  0
  2 14  1  0
 14 15  1  0
 15 16  1  0
 16 17  1  0
 17 18  1  0
 14 19  1  0
 18 19  1  0
M  END
