PAU-WEI-b9b69149-1-chloroacetamide
     RDKit          3D

 25 27  0  0  0  0  0  0  0  0999 V2000
    7.3600   -2.9500   18.7280 C   0  0  0  0  0  0  0  0  0  0  0  0
    6.4290   -3.2360   19.8700 C   0  0  0  0  0  0  0  0  0  0  0  0
    5.5080   -4.0660   19.7500 O   0  0  0  0  0  0  0  0  0  0  0  0
    6.6600   -2.5340   21.0720 N   0  0  0  0  0  0  0  0  0  0  0  0
    6.2090   -2.8990   22.3930 C   0  0  0  0  0  0  0  0  0  0  0  0
    7.3920   -3.3010   23.2950 C   0  0  0  0  0  0  0  0  0  0  0  0
    8.7220   -2.6310   23.1690 N   0  0  0  0  0  0  0  0  0  0  0  0
    9.8190   -3.4770   23.5010 C   0  0  1  0  0  0  0  0  0  0  0  0
   11.1540   -2.9910   23.6570 C   0  0  0  0  0  0  0  0  0  0  0  0
   11.8670   -2.5410   22.4530 C   0  0  0  0  0  0  0  0  0  0  0  0
   11.9260   -1.3490   22.8790 C   0  0  0  0  0  0  0  0  0  0  0  0
   13.1180   -0.7630   22.4820 C   0  0  0  0  0  0  0  0  0  0  0  0
   12.6900    0.5300   23.2580 C   0  0  0  0  0  0  0  0  0  0  0  0
   11.6710    1.2300   24.1030 C   0  0  0  0  0  0  0  0  0  0  0  0
   10.6610    0.1300   24.1720 C   0  0  0  0  0  0  0  0  0  0  0  0
   10.8630   -1.0420   23.5710 C   0  0  0  0  0  0  0  0  0  0  0  0
    9.4530   -4.1600   24.8400 C   0  0  0  0  0  0  0  0  0  0  0  0
   10.3390   -4.2170   26.0980 C   0  0  0  0  0  0  0  0  0  0  0  0
    9.8150   -4.9260   27.3330 C   0  0  0  0  0  0  0  0  0  0  0  0
    8.5820   -5.4110   27.1180 C   0  0  0  0  0  0  0  0  0  0  0  0
    7.6940   -5.4390   26.0960 C   0  0  0  0  0  0  0  0  0  0  0  0
    6.1210   -6.1430   26.1400 Cl  0  0  0  0  0  0  0  0  0  0  0  0
    8.1780   -4.7970   24.9440 C   0  0  0  0  0  0  0  0  0  0  0  0
    8.8790   -2.0150   21.8410 C   0  0  0  0  0  0  0  0  0  0  0  0
    7.7570   -1.5680   21.1250 C   0  0  0  0  0  0  0  0  0  0  0  0
  1  2  1  0
  2  3  2  0
  2  4  1  0
  4  5  1  0
  5  6  1  0
  6  7  1  0
  7  8  1  0
  8  9  1  1
  9 10  1  0
 10 11  1  0
 11 12  2  0
 12 13  1  0
 13 14  2  0
 14 15  1  0
 11 16  1  0
 15 16  2  0
  8 17  1  0
 17 18  2  0
 18 19  1  0
 19 20  2  0
 20 21  1  0
 21 22  1  0
 17 23  1  0
 21 23  2  0
  7 24  1  0
  4 25  1  0
 24 25  1  0
M  END
