PAU-UNI-52c0427f-1-acrylamide
     RDKit          3D

 22 23  0  0  0  0  0  0  0  0999 V2000
    7.8980   -3.2600   19.0840 C   0  0  0  0  0  0  0  0  0  0  0  0
    6.7330   -2.3810   18.8360 C   0  0  0  0  0  0  0  0  0  0  0  0
    5.8410   -2.6450   19.9900 C   0  0  0  0  0  0  0  0  0  0  0  0
    4.8170   -3.2780   19.8320 O   0  0  0  0  0  0  0  0  0  0  0  0
    6.2750   -2.2190   21.2310 N   0  0  0  0  0  0  0  0  0  0  0  0
    7.3830   -1.2710   21.2980 C   0  0  0  0  0  0  0  0  0  0  0  0
    8.5190   -1.9320   21.7130 C   0  0  0  0  0  0  0  0  0  0  0  0
    8.5430   -2.7360   22.8550 N   0  0  0  0  0  0  0  0  0  0  0  0
    9.5260   -2.8380   23.8300 C   0  0  0  0  0  0  0  0  0  0  0  0
   10.2460   -1.6820   23.8270 C   0  0  0  0  0  0  0  0  0  0  0  0
   11.5260   -1.5190   23.0960 C   0  0  0  0  0  0  0  0  0  0  0  0
   12.2040   -0.3240   23.1060 C   0  0  0  0  0  0  0  0  0  0  0  0
   13.4120   -0.3240   22.3530 C   0  0  0  0  0  0  0  0  0  0  0  0
   13.8400    0.9960   22.6770 N   0  0  0  0  0  0  0  0  0  0  0  0
   11.8880    0.9290   23.7490 C   0  0  0  0  0  0  0  0  0  0  0  0
   10.6960    0.5560   24.3520 N   0  0  0  0  0  0  0  0  0  0  0  0
    9.8820   -0.5560   24.4620 C   0  0  0  0  0  0  0  0  0  0  0  0
    8.6690   -0.4060   25.2620 N   0  0  0  0  0  0  0  0  0  0  0  0
    8.6370    0.8070   26.0880 C   0  0  0  0  0  0  0  0  0  0  0  0
    9.1150    0.3930   27.3250 C   0  0  0  0  0  0  0  0  0  0  0  0
    7.4620   -3.6770   22.9880 C   0  0  0  0  0  0  0  0  0  0  0  0
    6.1420   -3.0820   22.4250 C   0  0  0  0  0  0  0  0  0  0  0  0
  1  2  1  0
  2  3  1  0
  3  4  2  0
  3  5  1  0
  5  6  1  0
  6  7  1  0
  7  8  1  0
  8  9  1  0
  9 10  1  0
 10 11  2  0
 11 12  1  0
 12 13  1  0
 13 14  3  0
 12 15  2  0
 15 16  1  0
 10 17  1  0
 16 17  2  0
 17 18  1  0
 18 19  1  0
 19 20  1  0
  8 21  1  0
  5 22  1  0
 21 22  1  0
M  END
