PAU-WEI-b9b69149-3-acrylamide
     RDKit          3D

 27 29  0  0  0  0  0  0  0  0999 V2000
    8.2990   -3.3310   19.1840 C   0  0  0  0  0  0  0  0  0  0  0  0
    6.7990   -3.2370   19.0430 C   0  0  0  0  0  0  0  0  0  0  0  0
    5.9710   -3.6810   20.1760 C   0  0  0  0  0  0  0  0  0  0  0  0
    5.2170   -4.6360   20.0520 O   0  0  0  0  0  0  0  0  0  0  0  0
    6.1150   -2.8970   21.3050 N   0  0  0  0  0  0  0  0  0  0  0  0
    6.2810   -3.5630   22.6070 C   0  0  0  0  0  0  0  0  0  0  0  0
    7.5790   -3.4190   23.2990 C   0  0  0  0  0  0  0  0  0  0  0  0
    8.4220   -2.2680   22.8880 N   0  0  0  0  0  0  0  0  0  0  0  0
    8.7700   -1.1000   23.5520 C   0  0  1  0  0  0  0  0  0  0  0  0
    8.1660   -0.6000   24.7290 C   0  0  0  0  0  0  0  0  0  0  0  0
    7.0660   -1.3450   25.0160 C   0  0  0  0  0  0  0  0  0  0  0  0
    7.6140   -2.4500   25.6640 C   0  0  0  0  0  0  0  0  0  0  0  0
    6.6610   -3.0210   26.7250 C   0  0  0  0  0  0  0  0  0  0  0  0
    7.1560   -4.1960   27.4690 C   0  0  0  0  0  0  0  0  0  0  0  0
    8.5620   -4.7500   27.1320 C   0  0  0  0  0  0  0  0  0  0  0  0
    8.9030   -5.8960   27.9290 C   0  0  0  0  0  0  0  0  0  0  0  0
    9.3750   -4.1700   26.1520 C   0  0  0  0  0  0  0  0  0  0  0  0
    8.8740   -2.9770   25.3960 C   0  0  0  0  0  0  0  0  0  0  0  0
   10.1190   -0.8370   23.5210 C   0  0  0  0  0  0  0  0  0  0  0  0
   10.7820   -0.0300   24.4110 C   0  0  0  0  0  0  0  0  0  0  0  0
   12.1130    0.2130   24.2930 C   0  0  0  0  0  0  0  0  0  0  0  0
   12.8570   -0.3170   23.3150 C   0  0  0  0  0  0  0  0  0  0  0  0
   12.3020   -1.1370   22.3960 C   0  0  0  0  0  0  0  0  0  0  0  0
   13.2620   -1.7910   21.1770 Cl  0  0  0  0  0  0  0  0  0  0  0  0
   10.9310   -1.4010   22.4980 C   0  0  0  0  0  0  0  0  0  0  0  0
    8.3160   -1.9050   21.5080 C   0  0  0  0  0  0  0  0  0  0  0  0
    6.8550   -1.6420   21.1980 C   0  0  0  0  0  0  0  0  0  0  0  0
  1  2  1  0
  2  3  1  0
  3  4  2  0
  3  5  1  0
  5  6  1  0
  6  7  1  0
  7  8  1  0
  8  9  1  0
  9 10  1  1
 10 11  1  0
 11 12  1  0
 12 13  2  0
 13 14  1  0
 14 15  2  0
 15 16  1  0
 15 17  1  0
 12 18  1  0
 17 18  2  0
  9 19  1  0
 19 20  2  0
 20 21  1  0
 21 22  2  0
 22 23  1  0
 23 24  1  0
 19 25  1  0
 23 25  2  0
  8 26  1  0
  5 27  1  0
 26 27  1  0
M  END
