PAU-UNI-19862c28-1-nitrile
     RDKit          3D

 20 22  0  0  0  0  0  0  0  0999 V2000
    6.7930   -3.4030   19.6640 C   0  0  0  0  0  0  0  0  0  0  0  0
    5.8770   -3.2530   18.7990 N   0  0  0  0  0  0  0  0  0  0  0  0
    6.7570   -2.7800   20.8750 N   0  0  0  0  0  0  0  0  0  0  0  0
    6.4070   -3.5340   22.0950 C   0  0  0  0  0  0  0  0  0  0  0  0
    7.6260   -3.5360   23.0700 C   0  0  0  0  0  0  0  0  0  0  0  0
    8.1730   -2.1900   23.2700 N   0  0  0  0  0  0  0  0  0  0  0  0
    9.2920   -2.1400   24.1870 C   0  0  0  0  0  0  0  0  0  0  0  0
   10.3210   -1.1700   23.7130 C   0  0  0  0  0  0  0  0  0  0  0  0
   11.3670   -1.7670   22.8460 C   0  0  0  0  0  0  0  0  0  0  0  0
   12.3380   -0.9950   22.3310 C   0  0  0  0  0  0  0  0  0  0  0  0
   13.4600   -1.7010   21.3250 Cl  0  0  0  0  0  0  0  0  0  0  0  0
   12.3310    0.5220   22.6920 C   0  0  0  0  0  0  0  0  0  0  0  0
   11.3310    1.0230   23.4800 C   0  0  0  0  0  0  0  0  0  0  0  0
   11.3250    2.5340   23.7650 C   0  0  0  0  0  0  0  0  0  0  0  0
   10.1490    3.0900   24.6550 C   0  0  0  0  0  0  0  0  0  0  0  0
    9.1960    2.0460   25.1190 C   0  0  0  0  0  0  0  0  0  0  0  0
    9.2530    0.7140   24.8390 C   0  0  0  0  0  0  0  0  0  0  0  0
   10.3040    0.1970   24.0170 C   0  0  0  0  0  0  0  0  0  0  0  0
    8.4970   -1.5130   22.0010 C   0  0  0  0  0  0  0  0  0  0  0  0
    7.3170   -1.4350   21.0560 C   0  0  0  0  0  0  0  0  0  0  0  0
  1  2  2  3
  1  3  1  0
  3  4  1  0
  4  5  1  0
  5  6  1  0
  6  7  1  0
  7  8  1  0
  8  9  2  0
  9 10  1  0
 10 11  1  0
 10 12  2  0
 12 13  1  0
 13 14  1  0
 14 15  2  0
 15 16  1  0
 16 17  2  0
  8 18  1  0
 13 18  2  0
 17 18  1  0
  6 19  1  0
  3 20  1  0
 19 20  1  0
M  END
