PAU-UNI-19862c28-1-chloroacetamide
     RDKit          3D

 21 23  0  0  0  0  0  0  0  0999 V2000
    7.5050   -3.5860   19.6720 C   0  0  0  0  0  0  0  0  0  0  0  0
    6.1850   -3.0000   19.9500 C   0  0  0  0  0  0  0  0  0  0  0  0
    5.2450   -3.3570   19.2170 O   0  0  0  0  0  0  0  0  0  0  0  0
    6.1070   -2.1630   21.0450 N   0  0  0  0  0  0  0  0  0  0  0  0
    5.8350   -2.7720   22.3520 C   0  0  0  0  0  0  0  0  0  0  0  0
    7.1230   -3.0910   23.1240 C   0  0  0  0  0  0  0  0  0  0  0  0
    7.9670   -1.8910   23.2330 N   0  0  0  0  0  0  0  0  0  0  0  0
    9.1150   -2.0580   24.1350 C   0  0  0  0  0  0  0  0  0  0  0  0
   10.2800   -1.2700   23.6040 C   0  0  0  0  0  0  0  0  0  0  0  0
   11.2430   -1.8560   22.8310 C   0  0  0  0  0  0  0  0  0  0  0  0
   12.3730   -0.9600   22.3040 C   0  0  0  0  0  0  0  0  0  0  0  0
   13.4890   -1.6870   21.3220 Cl  0  0  0  0  0  0  0  0  0  0  0  0
   12.4030    0.3610   22.6260 C   0  0  0  0  0  0  0  0  0  0  0  0
   11.2900    0.9050   23.4640 C   0  0  0  0  0  0  0  0  0  0  0  0
   11.3000    2.4380   23.7770 C   0  0  0  0  0  0  0  0  0  0  0  0
   10.1360    2.8610   24.6020 C   0  0  0  0  0  0  0  0  0  0  0  0
    9.1580    2.0140   25.0580 C   0  0  0  0  0  0  0  0  0  0  0  0
    9.2350    0.6240   24.7190 C   0  0  0  0  0  0  0  0  0  0  0  0
   10.2610    0.0860   23.9390 C   0  0  0  0  0  0  0  0  0  0  0  0
    8.3310   -1.3990   21.8840 C   0  0  0  0  0  0  0  0  0  0  0  0
    7.0240   -1.0090   21.1430 C   0  0  0  0  0  0  0  0  0  0  0  0
  1  2  1  0
  2  3  2  0
  2  4  1  0
  4  5  1  0
  5  6  1  0
  6  7  1  0
  7  8  1  0
  8  9  1  0
  9 10  2  0
 10 11  1  0
 11 12  1  0
 11 13  2  0
 13 14  1  0
 14 15  1  0
 15 16  2  0
 16 17  1  0
 17 18  2  0
  9 19  1  0
 14 19  2  0
 18 19  1  0
  7 20  1  0
  4 21  1  0
 20 21  1  0
M  END
