PAU-WEI-f734c343-3-chloroacetamide
     RDKit          3D

 27 29  0  0  0  0  0  0  0  0999 V2000
    7.1980   -2.9830   18.8110 C   0  0  0  0  0  0  0  0  0  0  0  0
    6.1550   -3.2650   19.8700 C   0  0  0  0  0  0  0  0  0  0  0  0
    5.3080   -4.1490   19.7290 O   0  0  0  0  0  0  0  0  0  0  0  0
    6.1800   -2.5010   21.0380 N   0  0  0  0  0  0  0  0  0  0  0  0
    5.8650   -3.2050   22.2680 C   0  0  0  0  0  0  0  0  0  0  0  0
    7.1540   -3.6630   22.9420 C   0  0  0  0  0  0  0  0  0  0  0  0
    8.1100   -2.5760   23.1810 N   0  0  0  0  0  0  0  0  0  0  0  0
    9.3370   -2.8730   23.7110 C   0  0  2  0  0  0  0  0  0  0  0  0
    9.0910   -3.8160   24.9360 C   0  0  0  0  0  0  0  0  0  0  0  0
    9.8430   -5.1080   25.0890 C   0  0  0  0  0  0  0  0  0  0  0  0
    9.3650   -5.8590   26.3150 C   0  0  0  0  0  0  0  0  0  0  0  0
    8.2810   -5.0030   26.9390 C   0  0  0  0  0  0  0  0  0  0  0  0
    7.3330   -5.5430   28.4970 Br  0  0  0  0  0  0  0  0  0  0  0  0
    7.9250   -3.4970   26.1520 S   0  0  0  0  0  0  0  0  0  0  0  0
   10.4000   -1.7240   23.7080 C   0  0  0  0  0  0  0  0  0  0  0  0
   11.4940   -1.9950   22.7420 C   0  0  0  0  0  0  0  0  0  0  0  0
   12.5260   -0.9290   22.6530 C   0  0  0  0  0  0  0  0  0  0  0  0
   13.5600   -1.0640   21.8000 C   0  0  0  0  0  0  0  0  0  0  0  0
   13.4410   -1.9690   20.7590 N   0  0  0  0  0  0  0  0  0  0  0  0
   12.4050    0.2000   23.4520 C   0  0  0  0  0  0  0  0  0  0  0  0
   11.5310    0.3890   24.2070 N   0  0  0  0  0  0  0  0  0  0  0  0
   10.5050   -0.4980   24.3980 C   0  0  0  0  0  0  0  0  0  0  0  0
    9.5830   -0.0750   25.3010 N   0  0  0  0  0  0  0  0  0  0  0  0
    9.1250    1.2830   25.3190 C   0  0  0  0  0  0  0  0  0  0  0  0
    9.8070    2.4600   24.6270 C   0  0  0  0  0  0  0  0  0  0  0  0
    8.3080   -1.7290   21.9750 C   0  0  0  0  0  0  0  0  0  0  0  0
    7.0590   -1.3450   21.2300 C   0  0  0  0  0  0  0  0  0  0  0  0
  1  2  1  0
  2  3  2  0
  2  4  1  0
  4  5  1  0
  5  6  1  0
  6  7  1  0
  7  8  1  0
  8  9  1  1
  9 10  2  0
 10 11  1  0
 11 12  2  0
 12 13  1  0
  9 14  1  0
 12 14  1  0
  8 15  1  0
 15 16  2  0
 16 17  1  0
 17 18  1  0
 18 19  3  0
 17 20  2  0
 20 21  1  0
 15 22  1  0
 21 22  2  0
 22 23  1  0
 23 24  1  0
 24 25  1  0
  7 26  1  0
  4 27  1  0
 26 27  1  0
M  END
