PAU-WEI-3e86dfd8-1-vinylsulfonamide
     RDKit          3D

 29 32  0  0  0  0  0  0  0  0999 V2000
    7.9310   -3.2110   19.0850 C   0  0  0  0  0  0  0  0  0  0  0  0
    6.7860   -2.3430   18.6070 C   0  0  0  0  0  0  0  0  0  0  0  0
    5.4860   -2.3400   19.7660 S   0  0  0  0  0  0  0  0  0  0  0  0
    4.8810   -3.6370   19.6280 O   0  0  0  0  0  0  0  0  0  0  0  0
    4.7490   -1.1130   19.5590 O   0  0  0  0  0  0  0  0  0  0  0  0
    6.2940   -2.1530   21.2380 N   0  0  0  0  0  0  0  0  0  0  0  0
    7.3360   -1.1260   21.2960 C   0  0  0  0  0  0  0  0  0  0  0  0
    8.5330   -1.5860   22.1170 C   0  0  0  0  0  0  0  0  0  0  0  0
    8.0970   -2.1150   23.4120 N   0  0  0  0  0  0  0  0  0  0  0  0
    9.1770   -2.1540   24.4020 C   0  0  1  0  0  0  0  0  0  0  0  0
    9.0290   -3.4770   25.2680 C   0  0  0  0  0  0  0  0  0  0  0  0
    9.6900   -4.8760   25.3280 C   0  0  0  0  0  0  0  0  0  0  0  0
    9.1360   -5.6680   26.3250 C   0  0  0  0  0  0  0  0  0  0  0  0
    8.1310   -5.0710   27.0520 C   0  0  0  0  0  0  0  0  0  0  0  0
    7.1530   -5.8660   28.4740 Br  0  0  0  0  0  0  0  0  0  0  0  0
    7.8290   -3.4850   26.5290 S   0  0  0  0  0  0  0  0  0  0  0  0
   10.2650   -1.3260   23.8660 C   0  0  0  0  0  0  0  0  0  0  0  0
   11.3870   -1.5960   23.0430 C   0  0  0  0  0  0  0  0  0  0  0  0
   12.2590   -0.6600   22.6200 C   0  0  0  0  0  0  0  0  0  0  0  0
   13.4580   -1.4190   21.6230 Cl  0  0  0  0  0  0  0  0  0  0  0  0
   12.1520    0.6350   22.9360 C   0  0  0  0  0  0  0  0  0  0  0  0
   11.1130    1.0340   23.7000 C   0  0  0  0  0  0  0  0  0  0  0  0
   10.9940    2.4000   23.9780 C   0  0  0  0  0  0  0  0  0  0  0  0
    9.9730    3.0040   24.7460 C   0  0  0  0  0  0  0  0  0  0  0  0
    8.8950    2.1060   25.3500 C   0  0  0  0  0  0  0  0  0  0  0  0
    9.0280    0.6220   25.0430 C   0  0  0  0  0  0  0  0  0  0  0  0
   10.1630    0.0640   24.1840 C   0  0  0  0  0  0  0  0  0  0  0  0
    7.3340   -3.3570   23.1880 C   0  0  0  0  0  0  0  0  0  0  0  0
    6.0660   -3.0970   22.3480 C   0  0  0  0  0  0  0  0  0  0  0  0
  1  2  1  0
  3  2  1  0
  3  4  2  0
  3  5  2  0
  3  6  1  0
  6  7  1  0
  7  8  1  0
  8  9  1  0
  9 10  1  0
 10 11  1  6
 11 12  2  0
 12 13  1  0
 13 14  2  0
 14 15  1  0
 11 16  1  0
 14 16  1  0
 10 17  1  0
 17 18  2  0
 18 19  1  0
 19 20  1  0
 19 21  2  0
 21 22  1  0
 22 23  1  0
 23 24  2  0
 24 25  1  0
 25 26  2  0
 17 27  1  0
 22 27  2  0
 26 27  1  0
  9 28  1  0
  6 29  1  0
 28 29  1  0
M  END
