PAU-WEI-3e86dfd8-2-nitrile
     RDKit          3D

 22 24  0  0  0  0  0  0  0  0999 V2000
    6.6380   -3.6430   19.9330 C   0  0  0  0  0  0  0  0  0  0  0  0
    5.6650   -4.4590   19.8760 N   0  0  0  0  0  0  0  0  0  0  0  0
    6.6550   -2.7940   21.0080 N   0  0  0  0  0  0  0  0  0  0  0  0
    6.1130   -3.2580   22.2750 C   0  0  0  0  0  0  0  0  0  0  0  0
    7.3010   -3.5550   23.1760 C   0  0  0  0  0  0  0  0  0  0  0  0
    8.2430   -2.4220   23.2830 N   0  0  0  0  0  0  0  0  0  0  0  0
    9.4940   -2.9600   23.7850 C   0  0  1  0  0  0  0  0  0  0  0  0
   10.5420   -1.8220   23.7500 C   0  0  0  0  0  0  0  0  0  0  0  0
   10.6600   -0.5830   24.6210 C   0  0  0  0  0  0  0  0  0  0  0  0
   11.8170    0.3610   24.2540 C   0  0  0  0  0  0  0  0  0  0  0  0
   12.6730    0.0550   23.2060 C   0  0  0  0  0  0  0  0  0  0  0  0
   12.4770   -1.0880   22.4910 C   0  0  0  0  0  0  0  0  0  0  0  0
   13.4750   -1.5020   21.1980 Cl  0  0  0  0  0  0  0  0  0  0  0  0
   11.4690   -1.9550   22.7580 C   0  0  0  0  0  0  0  0  0  0  0  0
    9.2630   -3.9110   24.9440 C   0  0  0  0  0  0  0  0  0  0  0  0
    9.8620   -5.1170   25.3070 C   0  0  0  0  0  0  0  0  0  0  0  0
    9.3500   -5.7410   26.4000 C   0  0  0  0  0  0  0  0  0  0  0  0
    8.3040   -5.0950   27.0070 C   0  0  0  0  0  0  0  0  0  0  0  0
    7.3160   -5.6700   28.5240 Br  0  0  0  0  0  0  0  0  0  0  0  0
    7.9850   -3.6410   26.1670 S   0  0  0  0  0  0  0  0  0  0  0  0
    8.5410   -1.7850   22.0790 C   0  0  0  0  0  0  0  0  0  0  0  0
    7.4850   -1.5840   21.1510 C   0  0  0  0  0  0  0  0  0  0  0  0
  1  2  2  3
  1  3  1  0
  3  4  1  0
  4  5  1  0
  5  6  1  0
  6  7  1  0
  7  8  1  1
  8  9  2  0
  9 10  1  0
 10 11  2  0
 11 12  1  0
 12 13  1  0
  8 14  1  0
 12 14  2  0
  7 15  1  0
 15 16  2  0
 16 17  1  0
 17 18  2  0
 18 19  1  0
 15 20  1  0
 18 20  1  0
  6 21  1  0
  3 22  1  0
 21 22  1  0
M  END
