PAU-UNI-6d15a9f5-1
     RDKit          3D

 24 26  0  0  0  0  0  0  0  0999 V2000
    6.3530    5.1110   -1.9880 C   0  0  0  0  0  0  0  0  0  0  0  0
    6.6060    4.2510   -3.1140 N   0  0  0  0  0  0  0  0  0  0  0  0
    5.9290    4.3270   -4.2690 C   0  0  0  0  0  0  0  0  0  0  0  0
    6.4530    3.1440   -5.0440 C   0  0  0  0  0  0  0  0  0  0  0  0
    5.7920    2.8700   -6.4140 C   0  0  0  0  0  0  0  0  0  0  0  0
    5.8080    1.3910   -6.5140 C   0  0  0  0  0  0  0  0  0  0  0  0
    5.7140    0.7410   -7.7490 C   0  0  0  0  0  0  0  0  0  0  0  0
    6.2920   -0.5090   -7.7950 C   0  0  0  0  0  0  0  0  0  0  0  0
    5.6470   -1.6140   -8.3490 C   0  0  0  0  0  0  0  0  0  0  0  0
    6.2950   -2.8430   -8.3700 C   0  0  0  0  0  0  0  0  0  0  0  0
    7.5750   -2.9740   -7.8430 C   0  0  0  0  0  0  0  0  0  0  0  0
    8.2160   -1.8600   -7.2730 C   0  0  0  0  0  0  0  0  0  0  0  0
    7.5700   -0.6370   -7.2560 C   0  0  0  0  0  0  0  0  0  0  0  0
    7.4940    2.5410   -4.2270 C   0  0  0  0  0  0  0  0  0  0  0  0
    8.4070    1.2860   -4.5130 C   0  0  0  0  0  0  0  0  0  0  0  0
    7.9130    0.2160   -4.8370 O   0  0  0  0  0  0  0  0  0  0  0  0
    9.8270    1.3730   -4.3790 N   0  0  0  0  0  0  0  0  0  0  0  0
   10.7390    0.1410   -4.2080 C   0  0  0  0  0  0  0  0  0  0  0  0
   12.1020    0.3200   -4.6510 C   0  0  2  0  0  0  0  0  0  0  0  0
   12.8120   -0.8040   -5.1200 C   0  0  0  0  0  0  0  0  0  0  0  0
   13.9120   -1.2130   -4.2240 C   0  0  0  0  0  0  0  0  0  0  0  0
   14.2550    0.0940   -3.4970 C   0  0  0  0  0  0  0  0  0  0  0  0
   13.0240    0.8690   -3.5900 O   0  0  0  0  0  0  0  0  0  0  0  0
    7.5370    3.2780   -3.0730 N   0  0  0  0  0  0  0  0  0  0  0  0
  1  2  1  0
  2  3  1  0
  3  4  2  0
  4  5  1  0
  5  6  1  0
  6  7  1  0
  7  8  1  0
  8  9  2  0
  9 10  1  0
 10 11  2  0
 11 12  1  0
  8 13  1  0
 12 13  2  0
  4 14  1  0
 14 15  1  0
 15 16  2  0
 15 17  1  0
 17 18  1  0
 19 18  1  1
 19 20  1  0
 20 21  1  0
 21 22  1  0
 19 23  1  0
 22 23  1  0
  2 24  1  0
 14 24  2  0
M  END
