PAU-WEI-f734c343-3-chloroacetamide
     RDKit          3D

 27 29  0  0  0  0  0  0  0  0999 V2000
    7.2060   -2.9760   18.7760 C   0  0  0  0  0  0  0  0  0  0  0  0
    6.1740   -3.2540   19.8460 C   0  0  0  0  0  0  0  0  0  0  0  0
    5.2990   -4.1090   19.7070 O   0  0  0  0  0  0  0  0  0  0  0  0
    6.2600   -2.5120   21.0190 N   0  0  0  0  0  0  0  0  0  0  0  0
    5.9160   -3.0930   22.3110 C   0  0  0  0  0  0  0  0  0  0  0  0
    7.1810   -3.4630   23.0950 C   0  0  0  0  0  0  0  0  0  0  0  0
    8.1140   -2.3330   23.2610 N   0  0  0  0  0  0  0  0  0  0  0  0
    9.3790   -2.8350   23.7820 C   0  0  2  0  0  0  0  0  0  0  0  0
    9.0840   -3.7770   24.9640 C   0  0  0  0  0  0  0  0  0  0  0  0
    9.7750   -5.1200   25.1700 C   0  0  0  0  0  0  0  0  0  0  0  0
    9.2900   -5.7970   26.2870 C   0  0  0  0  0  0  0  0  0  0  0  0
    8.3000   -5.1020   26.9430 C   0  0  0  0  0  0  0  0  0  0  0  0
    7.3740   -5.7210   28.4830 Br  0  0  0  0  0  0  0  0  0  0  0  0
    7.9200   -3.5290   26.2180 S   0  0  0  0  0  0  0  0  0  0  0  0
   10.4030   -1.8630   23.6480 C   0  0  0  0  0  0  0  0  0  0  0  0
   11.4070   -2.0830   22.7200 C   0  0  0  0  0  0  0  0  0  0  0  0
   12.3850   -1.1640   22.5600 C   0  0  0  0  0  0  0  0  0  0  0  0
   13.5050   -0.8650   21.8810 C   0  0  0  0  0  0  0  0  0  0  0  0
   13.6110   -1.7090   20.7310 N   0  0  0  0  0  0  0  0  0  0  0  0
   12.5830    0.1180   23.2420 C   0  0  0  0  0  0  0  0  0  0  0  0
   11.5580    0.3800   24.2060 N   0  0  0  0  0  0  0  0  0  0  0  0
   10.5490   -0.5790   24.3690 C   0  0  0  0  0  0  0  0  0  0  0  0
    9.5870   -0.3100   25.2900 N   0  0  0  0  0  0  0  0  0  0  0  0
    9.2150    1.0270   25.3600 C   0  0  0  0  0  0  0  0  0  0  0  0
   10.0060    1.9780   24.4030 C   0  0  0  0  0  0  0  0  0  0  0  0
    8.3720   -1.6230   22.0030 C   0  0  0  0  0  0  0  0  0  0  0  0
    7.1230   -1.3370   21.1500 C   0  0  0  0  0  0  0  0  0  0  0  0
  1  2  1  0
  2  3  2  0
  2  4  1  0
  4  5  1  0
  5  6  1  0
  6  7  1  0
  7  8  1  0
  8  9  1  1
  9 10  2  0
 10 11  1  0
 11 12  2  0
 12 13  1  0
  9 14  1  0
 12 14  1  0
  8 15  1  0
 15 16  2  0
 16 17  1  0
 17 18  1  0
 18 19  3  0
 17 20  2  0
 20 21  1  0
 15 22  1  0
 21 22  2  0
 22 23  1  0
 23 24  1  0
 24 25  1  0
  7 26  1  0
  4 27  1  0
 26 27  1  0
M  END
