PAU-WEI-3e86dfd8-2-acrylamide
     RDKit          3D

 24 26  0  0  0  0  0  0  0  0999 V2000
    8.0410   -3.4400   19.6300 C   0  0  0  0  0  0  0  0  0  0  0  0
    6.9160   -2.7380   18.9530 C   0  0  0  0  0  0  0  0  0  0  0  0
    5.9070   -3.1150   19.9590 C   0  0  0  0  0  0  0  0  0  0  0  0
    5.0270   -3.9290   19.6890 O   0  0  0  0  0  0  0  0  0  0  0  0
    6.1350   -2.5520   21.2060 N   0  0  0  0  0  0  0  0  0  0  0  0
    6.0530   -3.3450   22.4460 C   0  0  0  0  0  0  0  0  0  0  0  0
    7.4100   -3.5440   23.1540 C   0  0  0  0  0  0  0  0  0  0  0  0
    8.0700   -2.2510   23.3600 N   0  0  0  0  0  0  0  0  0  0  0  0
    9.1290   -2.1870   24.3840 C   0  0  2  0  0  0  0  0  0  0  0  0
   10.3960   -1.4190   23.9510 C   0  0  0  0  0  0  0  0  0  0  0  0
   10.7610   -0.2460   24.6150 C   0  0  0  0  0  0  0  0  0  0  0  0
   11.8940    0.4760   24.2220 C   0  0  0  0  0  0  0  0  0  0  0  0
   12.7080    0.0750   23.1960 C   0  0  0  0  0  0  0  0  0  0  0  0
   12.3690   -1.0780   22.5350 C   0  0  0  0  0  0  0  0  0  0  0  0
   13.3160   -1.6670   21.2500 Cl  0  0  0  0  0  0  0  0  0  0  0  0
   11.2300   -1.7610   22.9320 C   0  0  0  0  0  0  0  0  0  0  0  0
    9.1310   -3.4960   25.2130 C   0  0  0  0  0  0  0  0  0  0  0  0
    9.8370   -4.6950   25.3070 C   0  0  0  0  0  0  0  0  0  0  0  0
    9.3860   -5.5710   26.2670 C   0  0  0  0  0  0  0  0  0  0  0  0
    8.2830   -5.1310   27.0140 C   0  0  0  0  0  0  0  0  0  0  0  0
    7.3200   -5.9650   28.4200 Br  0  0  0  0  0  0  0  0  0  0  0  0
    7.8550   -3.5940   26.4550 S   0  0  0  0  0  0  0  0  0  0  0  0
    8.3320   -1.5820   22.0850 C   0  0  0  0  0  0  0  0  0  0  0  0
    7.0430   -1.3730   21.2530 C   0  0  0  0  0  0  0  0  0  0  0  0
  1  2  1  0
  2  3  1  0
  3  4  2  0
  3  5  1  0
  5  6  1  0
  6  7  1  0
  7  8  1  0
  8  9  1  0
  9 10  1  6
 10 11  2  0
 11 12  1  0
 12 13  2  0
 13 14  1  0
 14 15  1  0
 10 16  1  0
 14 16  2  0
  9 17  1  0
 17 18  2  0
 18 19  1  0
 19 20  2  0
 20 21  1  0
 17 22  1  0
 20 22  1  0
  8 23  1  0
  5 24  1  0
 23 24  1  0
M  END
