PAU-WEI-f734c343-1-nitrile
     RDKit          3D

 30 33  0  0  0  0  0  0  0  0999 V2000
    6.6560   -3.6120   19.8700 C   0  0  0  0  0  0  0  0  0  0  0  0
    5.7070   -4.4760   19.8970 N   0  0  0  0  0  0  0  0  0  0  0  0
    6.5770   -2.5630   20.7660 N   0  0  0  0  0  0  0  0  0  0  0  0
    6.0360   -2.7830   22.0860 C   0  0  0  0  0  0  0  0  0  0  0  0
    7.1900   -3.0540   23.0260 C   0  0  0  0  0  0  0  0  0  0  0  0
    8.2570   -2.0500   23.0260 N   0  0  0  0  0  0  0  0  0  0  0  0
    9.4470   -2.4830   23.5810 C   0  0  2  0  0  0  0  0  0  0  0  0
    9.1650   -3.4550   24.7940 C   0  0  0  0  0  0  0  0  0  0  0  0
    9.8500   -4.8360   24.9030 C   0  0  0  0  0  0  0  0  0  0  0  0
    9.3900   -5.6390   26.0950 C   0  0  0  0  0  0  0  0  0  0  0  0
    8.3760   -4.7650   26.7830 C   0  0  0  0  0  0  0  0  0  0  0  0
    7.5390   -5.5140   28.3600 Br  0  0  0  0  0  0  0  0  0  0  0  0
    8.0620   -3.1970   26.0870 S   0  0  0  0  0  0  0  0  0  0  0  0
   10.5510   -1.3830   23.3410 C   0  0  0  0  0  0  0  0  0  0  0  0
   11.7860   -2.0360   22.7570 C   0  0  0  0  0  0  0  0  0  0  0  0
   12.9760   -1.1860   22.3760 C   0  0  0  0  0  0  0  0  0  0  0  0
   12.8820    0.3090   22.5790 C   0  0  0  0  0  0  0  0  0  0  0  0
   11.7050    0.8510   23.1120 C   0  0  0  0  0  0  0  0  0  0  0  0
   11.3810    2.3190   23.3470 C   0  0  0  0  0  0  0  0  0  0  0  0
   12.4130    3.3610   22.9070 C   0  0  0  0  0  0  0  0  0  0  0  0
   11.9310    4.6850   23.4460 C   0  0  0  0  0  0  0  0  0  0  0  0
   11.0690    5.4810   22.7360 N   0  0  0  0  0  0  0  0  0  0  0  0
   10.0870    6.2360   23.4090 C   0  0  0  0  0  0  0  0  0  0  0  0
    8.9310    6.7640   22.5630 C   0  0  0  0  0  0  0  0  0  0  0  0
   10.1450    6.4570   24.6160 O   0  0  0  0  0  0  0  0  0  0  0  0
   10.1090    2.4310   23.9360 C   0  0  0  0  0  0  0  0  0  0  0  0
    9.6770    1.1060   24.0110 N   0  0  0  0  0  0  0  0  0  0  0  0
   10.5980    0.0600   23.4990 C   0  0  0  0  0  0  0  0  0  0  0  0
    8.5650   -1.4750   21.7150 C   0  0  0  0  0  0  0  0  0  0  0  0
    7.4560   -1.3690   20.7400 C   0  0  0  0  0  0  0  0  0  0  0  0
  1  2  2  3
  1  3  1  0
  3  4  1  0
  4  5  1  0
  5  6  1  0
  6  7  1  0
  7  8  1  1
  8  9  2  0
  9 10  1  0
 10 11  2  0
 11 12  1  0
  8 13  1  0
 11 13  1  0
  7 14  1  0
 14 15  2  0
 15 16  1  0
 16 17  2  0
 17 18  1  0
 18 19  1  0
 19 20  1  0
 20 21  1  0
 21 22  1  0
 22 23  1  0
 23 24  1  0
 23 25  2  0
 19 26  2  0
 26 27  1  0
 14 28  1  0
 18 28  2  0
 27 28  1  0
  6 29  1  0
  3 30  1  0
 29 30  1  0
M  END
