PAU-WEI-b9b69149-8-nitrile
     RDKit          3D

 33 36  0  0  0  0  0  0  0  0999 V2000
    6.7320   -3.8400   20.0910 C   0  0  0  0  0  0  0  0  0  0  0  0
    5.7960   -4.7040   19.9680 N   0  0  0  0  0  0  0  0  0  0  0  0
    6.8230   -3.1310   21.2580 N   0  0  0  0  0  0  0  0  0  0  0  0
    6.2310   -3.7310   22.4680 C   0  0  0  0  0  0  0  0  0  0  0  0
    7.0410   -3.3990   23.7370 C   0  0  0  0  0  0  0  0  0  0  0  0
    7.4900   -1.9930   23.7990 N   0  0  0  0  0  0  0  0  0  0  0  0
    8.3380   -1.6350   24.8680 C   0  0  2  0  0  0  0  0  0  0  0  0
    7.7530   -1.1810   26.1240 C   0  0  0  0  0  0  0  0  0  0  0  0
    7.2470   -2.1090   27.0250 C   0  0  0  0  0  0  0  0  0  0  0  0
    7.1160   -1.5320   28.3070 C   0  0  0  0  0  0  0  0  0  0  0  0
    8.3420   -1.0680   28.7570 C   0  0  0  0  0  0  0  0  0  0  0  0
    8.4220   -0.4430   30.0490 C   0  0  0  0  0  0  0  0  0  0  0  0
    7.1150   -0.3270   30.8600 C   0  0  0  0  0  0  0  0  0  0  0  0
    7.2350    0.3210   32.1830 C   0  0  0  0  0  0  0  0  0  0  0  0
    5.9370   -0.8140   30.3360 C   0  0  0  0  0  0  0  0  0  0  0  0
    5.9180   -1.4400   29.0210 C   0  0  0  0  0  0  0  0  0  0  0  0
    9.3640   -0.5920   24.4130 C   0  0  0  0  0  0  0  0  0  0  0  0
    9.2900    0.8860   24.7100 C   0  0  0  0  0  0  0  0  0  0  0  0
   10.3770    1.7980   24.1870 C   0  0  0  0  0  0  0  0  0  0  0  0
   11.4130    1.2740   23.4590 C   0  0  0  0  0  0  0  0  0  0  0  0
   11.4780   -0.0780   23.1850 C   0  0  0  0  0  0  0  0  0  0  0  0
   12.5400   -0.6130   22.4290 C   0  0  0  0  0  0  0  0  0  0  0  0
   13.3530   -1.4490   21.7740 C   0  0  0  0  0  0  0  0  0  0  0  0
   12.7520   -2.5760   21.2610 C   0  0  0  0  0  0  0  0  0  0  0  0
   13.6400   -3.6870   21.3610 N   0  0  0  0  0  0  0  0  0  0  0  0
   13.9470   -4.4800   20.3200 C   0  0  0  0  0  0  0  0  0  0  0  0
   15.2170   -5.3600   20.4400 C   0  0  0  0  0  0  0  0  0  0  0  0
   13.2090   -4.5110   19.3810 O   0  0  0  0  0  0  0  0  0  0  0  0
   11.9730   -1.9150   22.5530 C   0  0  0  0  0  0  0  0  0  0  0  0
   10.8410   -2.0660   23.2330 N   0  0  0  0  0  0  0  0  0  0  0  0
   10.4840   -0.9190   23.6570 C   0  0  0  0  0  0  0  0  0  0  0  0
    8.0720   -1.5740   22.4710 C   0  0  0  0  0  0  0  0  0  0  0  0
    7.2410   -1.7230   21.3770 C   0  0  0  0  0  0  0  0  0  0  0  0
  1  2  2  3
  1  3  1  0
  3  4  1  0
  4  5  1  0
  5  6  1  0
  6  7  1  0
  7  8  1  1
  8  9  1  0
  9 10  1  0
 10 11  2  0
 11 12  1  0
 12 13  2  0
 13 14  1  0
 13 15  1  0
 10 16  1  0
 15 16  2  0
  7 17  1  0
 17 18  2  0
 18 19  1  0
 19 20  2  0
 20 21  1  0
 21 22  1  0
 22 23  1  0
 23 24  1  0
 24 25  1  0
 25 26  1  0
 26 27  1  0
 26 28  2  0
 22 29  2  0
 29 30  1  0
 17 31  1  0
 21 31  2  0
 30 31  1  0
  6 32  1  0
  3 33  1  0
 32 33  1  0
M  END
