PAU-WEI-b9b69149-4-chloroacetamide
     RDKit          3D

 26 28  0  0  0  0  0  0  0  0999 V2000
    7.6720   -3.1550   19.0600 C   0  0  0  0  0  0  0  0  0  0  0  0
    6.4810   -3.3430   19.9980 C   0  0  0  0  0  0  0  0  0  0  0  0
    5.5630   -4.1510   19.7920 O   0  0  0  0  0  0  0  0  0  0  0  0
    6.4460   -2.5160   21.1400 N   0  0  0  0  0  0  0  0  0  0  0  0
    5.8540   -2.8320   22.4380 C   0  0  0  0  0  0  0  0  0  0  0  0
    6.9110   -2.8400   23.5720 C   0  0  0  0  0  0  0  0  0  0  0  0
    8.0910   -1.9490   23.4210 N   0  0  0  0  0  0  0  0  0  0  0  0
    9.2060   -2.1180   24.2760 C   0  0  1  0  0  0  0  0  0  0  0  0
    9.7990   -3.3310   24.1550 C   0  0  0  0  0  0  0  0  0  0  0  0
    9.8430   -3.5860   22.7910 C   0  0  0  0  0  0  0  0  0  0  0  0
    9.0190   -4.6300   22.7100 C   0  0  0  0  0  0  0  0  0  0  0  0
    7.7530   -4.2660   22.2060 C   0  0  0  0  0  0  0  0  0  0  0  0
    6.7130   -5.3950   22.0770 C   0  0  0  0  0  0  0  0  0  0  0  0
    7.0550   -6.7500   22.4590 C   0  0  0  0  0  0  0  0  0  0  0  0
    8.4710   -6.9800   22.9790 C   0  0  0  0  0  0  0  0  0  0  0  0
    9.3770   -5.8880   23.0790 C   0  0  0  0  0  0  0  0  0  0  0  0
   10.3530   -1.2150   23.8950 C   0  0  0  0  0  0  0  0  0  0  0  0
   10.5490    0.1290   24.5170 C   0  0  0  0  0  0  0  0  0  0  0  0
   11.7010    0.9590   24.0690 C   0  0  0  0  0  0  0  0  0  0  0  0
   12.5530    0.4820   23.1230 C   0  0  0  0  0  0  0  0  0  0  0  0
   12.3680   -0.7680   22.5520 C   0  0  0  0  0  0  0  0  0  0  0  0
   13.2210   -1.2100   21.5950 C   0  0  0  0  0  0  0  0  0  0  0  0
   13.8310   -1.5250   20.6980 N   0  0  0  0  0  0  0  0  0  0  0  0
   11.3000   -1.5980   22.9230 C   0  0  0  0  0  0  0  0  0  0  0  0
    8.4090   -1.4530   22.0600 C   0  0  0  0  0  0  0  0  0  0  0  0
    7.2790   -1.3120   21.1750 C   0  0  0  0  0  0  0  0  0  0  0  0
  1  2  1  0
  2  3  2  0
  2  4  1  0
  4  5  1  0
  5  6  1  0
  6  7  1  0
  7  8  1  0
  8  9  1  6
  9 10  1  0
 10 11  1  0
 11 12  2  0
 12 13  1  0
 13 14  2  0
 14 15  1  0
 11 16  1  0
 15 16  2  0
  8 17  1  0
 17 18  2  0
 18 19  1  0
 19 20  2  0
 20 21  1  0
 21 22  1  0
 22 23  3  0
 17 24  1  0
 21 24  2  0
  7 25  1  0
  4 26  1  0
 25 26  1  0
M  END
