PAU-UNI-6d15a9f5-4
     RDKit          3D

 51 53  0  0  0  0  0  0  0  0999 V2000
    6.6880    5.3220   -8.1640 C   0  0  0  0  0  0  0  0  0  0  0  0
    6.2510    6.4770   -8.7100 C   0  0  0  0  0  0  0  0  0  0  0  0
    5.5320    6.3990  -10.1040 C   0  0  0  0  0  0  0  0  0  0  0  0
    5.2160    6.9670   -7.7480 C   0  0  0  0  0  0  0  0  0  0  0  0
    4.4970    6.1750   -6.6520 C   0  0  2  0  0  0  0  0  0  0  0  0
    3.9060    7.1150   -5.8950 N   0  0  0  0  0  0  0  0  0  0  0  0
    3.7460    7.9350   -6.9520 C   0  0  2  0  0  0  0  0  0  0  0  0
    4.6380    7.3720   -7.8380 C   0  0  0  0  0  0  0  0  0  0  0  0
    4.9340    8.2780   -8.7850 C   0  0  0  0  0  0  0  0  0  0  0  0
    4.0550    9.2930   -8.6180 C   0  0  2  0  0  0  0  0  0  0  0  0
    4.0620   10.2910   -9.6130 C   0  0  0  0  0  0  0  0  0  0  0  0
    3.0380   10.9470  -10.4550 N   0  0  0  0  0  0  0  0  0  0  0  0
    3.1760   12.2930  -10.6080 C   0  0  0  0  0  0  0  0  0  0  0  0
    4.2490   12.5490  -10.1050 O   0  0  0  0  0  0  0  0  0  0  0  0
    1.9830   13.5010  -11.0500 C   0  0  0  0  0  0  0  0  0  0  0  0
    2.1680   14.3690  -11.0070 C   0  0  0  0  0  0  0  0  0  0  0  0
    1.9100   15.9210  -11.1590 C   0  0  0  0  0  0  0  0  0  0  0  0
    1.1140   15.7790  -11.2500 N   0  0  0  0  0  0  0  0  0  0  0  0
   -0.5680   16.7790  -11.2090 C   0  0  0  0  0  0  0  0  0  0  0  0
    1.0340   13.9150  -11.3200 N   0  0  0  0  0  0  0  0  0  0  0  0
    4.1370    9.3320   -7.2270 O   0  0  0  0  0  0  0  0  0  0  0  0
    5.2310    5.0020   -5.8500 C   0  0  0  0  0  0  0  0  0  0  0  0
    5.8110    5.0960   -4.7910 O   0  0  0  0  0  0  0  0  0  0  0  0
    5.1530    3.7180   -6.4010 N   0  0  0  0  0  0  0  0  0  0  0  0
    4.9790    3.4950   -7.8310 C   0  0  1  0  0  0  0  0  0  0  0  0
    3.9640    2.4390   -8.1870 C   0  0  0  0  0  0  0  0  0  0  0  0
    2.7580    2.7260   -8.2760 O   0  0  0  0  0  0  0  0  0  0  0  0
    4.4540    1.1690   -8.4940 N   0  0  0  0  0  0  0  0  0  0  0  0
    3.5210    0.1940   -9.1530 C   0  0  2  0  0  0  0  0  0  0  0  0
    4.1500   -0.7390  -10.1910 C   0  0  0  0  0  0  0  0  0  0  0  0
    4.6810   -1.9980   -9.5080 C   0  0  0  0  0  0  0  0  0  0  0  0
    4.3850   -3.3480  -10.1140 C   0  0  0  0  0  0  0  0  0  0  0  0
    4.9350   -4.5660   -9.3660 C   0  0  0  0  0  0  0  0  0  0  0  0
    5.7410   -4.3670   -8.0730 C   0  0  0  0  0  0  0  0  0  0  0  0
    5.9980   -2.9590   -7.5370 C   0  0  0  0  0  0  0  0  0  0  0  0
    5.4150   -1.8400   -8.3440 C   0  0  0  0  0  0  0  0  0  0  0  0
    1.9930    0.7860   -9.3240 C   0  0  0  0  0  0  0  0  0  0  0  0
    1.6480    1.8370   -8.8300 O   0  0  0  0  0  0  0  0  0  0  0  0
    1.0110    0.0700  -10.0650 N   0  0  0  0  0  0  0  0  0  0  0  0
   -0.4590    0.3920  -10.1620 C   0  0  2  0  0  0  0  0  0  0  0  0
   -1.3540   -0.0300   -8.9760 C   0  0  0  0  0  0  0  0  0  0  0  0
   -1.2120    0.7020   -7.6440 C   0  0  0  0  0  0  0  0  0  0  0  0
   -2.5050    1.2720   -7.1020 C   0  0  0  0  0  0  0  0  0  0  0  0
   -2.7020    1.0470   -5.7710 N   0  0  0  0  0  0  0  0  0  0  0  0
   -3.3330    1.8850   -7.7600 O   0  0  0  0  0  0  0  0  0  0  0  0
   -0.9500   -0.3910  -11.3930 C   0  0  0  0  0  0  0  0  0  0  0  0
   -2.1140   -0.4130  -11.7870 O   0  0  0  0  0  0  0  0  0  0  0  0
   -0.0100   -1.0940  -12.0550 O   0  0  0  0  0  0  0  0  0  0  0  0
    4.4440    4.7690   -8.4340 C   0  0  1  0  0  0  0  0  0  0  0  0
    5.3220    5.3030   -9.5320 C   0  0  0  0  0  0  0  0  0  0  0  0
    3.1710    4.5060   -9.0170 O   0  0  0  0  0  0  0  0  0  0  0  0
  1  2  1  0
  2  3  1  0
  2  4  1  0
  5  4  1  1
  5  6  1  0
  7  6  1  1
  7  8  1  0
  8  9  1  0
  9 10  1  0
 10 11  1  6
 11 12  1  0
 12 13  1  0
 13 14  2  0
 13 15  1  0
 15 16  1  0
 16 17  2  0
 17 18  1  0
 18 19  1  0
 15 20  2  0
 18 20  1  0
  7 21  1  0
 10 21  1  0
  5 22  1  0
 22 23  2  0
 22 24  1  0
 25 24  1  1
 25 26  1  0
 26 27  2  0
 26 28  1  0
 28 29  1  0
 29 30  1  6
 30 31  1  0
 31 32  2  0
 32 33  1  0
 33 34  2  0
 34 35  1  0
 31 36  1  0
 35 36  2  0
 29 37  1  0
 37 38  2  0
 37 39  1  0
 39 40  1  0
 40 41  1  1
 41 42  1  0
 42 43  1  0
 43 44  1  0
 43 45  2  0
 40 46  1  0
 46 47  2  0
 46 48  1  0
 25 49  1  0
 49 50  1  6
 49 51  1  0
M  END
