PAU-UNI-52c0427f-1-chloroacetamide
     RDKit          3D

 21 22  0  0  0  0  0  0  0  0999 V2000
    7.2130   -2.9530   18.7180 C   0  0  0  0  0  0  0  0  0  0  0  0
    6.2830   -3.2350   19.8460 C   0  0  0  0  0  0  0  0  0  0  0  0
    5.4270   -4.1180   19.7340 O   0  0  0  0  0  0  0  0  0  0  0  0
    6.4260   -2.4940   21.0080 N   0  0  0  0  0  0  0  0  0  0  0  0
    7.2910   -1.3260   21.1300 C   0  0  0  0  0  0  0  0  0  0  0  0
    8.5500   -1.6790   21.6800 C   0  0  0  0  0  0  0  0  0  0  0  0
    8.3730   -2.5030   22.9280 N   0  0  0  0  0  0  0  0  0  0  0  0
    9.4880   -2.8170   23.6140 C   0  0  0  0  0  0  0  0  0  0  0  0
   10.2530   -1.6900   23.7030 C   0  0  0  0  0  0  0  0  0  0  0  0
   11.4550   -1.6200   22.9480 C   0  0  0  0  0  0  0  0  0  0  0  0
   12.2890   -0.3710   23.0340 C   0  0  0  0  0  0  0  0  0  0  0  0
   13.4310   -0.1210   22.4030 C   0  0  0  0  0  0  0  0  0  0  0  0
   13.8500    1.1390   22.7280 N   0  0  0  0  0  0  0  0  0  0  0  0
   11.6500    0.4550   23.8750 C   0  0  0  0  0  0  0  0  0  0  0  0
   10.5830    0.5510   24.6240 N   0  0  0  0  0  0  0  0  0  0  0  0
    9.8080   -0.6080   24.5490 C   0  0  0  0  0  0  0  0  0  0  0  0
    8.6160   -0.7120   25.2790 N   0  0  0  0  0  0  0  0  0  0  0  0
    8.3980    0.1860   26.4190 C   0  0  0  0  0  0  0  0  0  0  0  0
    7.5740   -0.4130   27.3690 C   0  0  0  0  0  0  0  0  0  0  0  0
    7.5220   -3.6510   22.7290 C   0  0  0  0  0  0  0  0  0  0  0  0
    6.2680   -3.2490   22.2360 C   0  0  0  0  0  0  0  0  0  0  0  0
  1  2  1  0
  2  3  2  0
  2  4  1  0
  4  5  1  0
  5  6  1  0
  6  7  1  0
  7  8  1  0
  8  9  1  0
  9 10  2  0
 10 11  1  0
 11 12  1  0
 12 13  3  0
 11 14  2  0
 14 15  1  0
  9 16  1  0
 15 16  2  0
 16 17  1  0
 17 18  1  0
 18 19  1  0
  7 20  1  0
  4 21  1  0
 20 21  1  0
M  END
