PAU-WEI-b9b69149-1-acrylamide
     RDKit          3D

 26 28  0  0  0  0  0  0  0  0999 V2000
    8.0880   -3.5480   19.7630 C   0  0  0  0  0  0  0  0  0  0  0  0
    7.0050   -2.6930   19.1570 C   0  0  0  0  0  0  0  0  0  0  0  0
    6.0300   -2.6610   20.2740 C   0  0  0  0  0  0  0  0  0  0  0  0
    4.9310   -3.2110   20.1960 O   0  0  0  0  0  0  0  0  0  0  0  0
    6.4810   -2.0250   21.4200 N   0  0  0  0  0  0  0  0  0  0  0  0
    6.1750   -2.6950   22.6760 C   0  0  0  0  0  0  0  0  0  0  0  0
    7.2900   -3.4660   23.2070 C   0  0  0  0  0  0  0  0  0  0  0  0
    8.6050   -2.7900   23.1800 N   0  0  0  0  0  0  0  0  0  0  0  0
    9.6860   -3.4920   23.7530 C   0  0  1  0  0  0  0  0  0  0  0  0
   11.0000   -2.9790   24.0380 C   0  0  0  0  0  0  0  0  0  0  0  0
   11.6520   -2.5560   22.8840 C   0  0  0  0  0  0  0  0  0  0  0  0
   11.5040   -1.2120   23.0470 C   0  0  0  0  0  0  0  0  0  0  0  0
   12.5810   -0.2730   22.9340 C   0  0  0  0  0  0  0  0  0  0  0  0
   12.7030    1.1280   23.0610 C   0  0  0  0  0  0  0  0  0  0  0  0
   11.4730    2.0620   23.4040 C   0  0  0  0  0  0  0  0  0  0  0  0
   10.4120    0.9340   23.4940 C   0  0  0  0  0  0  0  0  0  0  0  0
   10.4080   -0.5290   23.3390 C   0  0  0  0  0  0  0  0  0  0  0  0
    9.2100   -4.1390   25.0800 C   0  0  0  0  0  0  0  0  0  0  0  0
    9.7380   -5.5010   25.3920 C   0  0  0  0  0  0  0  0  0  0  0  0
    9.3630   -6.1360   26.5390 C   0  0  0  0  0  0  0  0  0  0  0  0
    8.4920   -5.5420   27.4260 C   0  0  0  0  0  0  0  0  0  0  0  0
    7.9470   -4.2720   27.2100 C   0  0  0  0  0  0  0  0  0  0  0  0
    6.8540   -3.5820   28.3450 Cl  0  0  0  0  0  0  0  0  0  0  0  0
    8.3230   -3.5900   26.0320 C   0  0  0  0  0  0  0  0  0  0  0  0
    8.8400   -2.1280   21.8920 C   0  0  0  0  0  0  0  0  0  0  0  0
    7.7470   -1.2750   21.4520 C   0  0  0  0  0  0  0  0  0  0  0  0
  1  2  1  0
  2  3  1  0
  3  4  2  0
  3  5  1  0
  5  6  1  0
  6  7  1  0
  7  8  1  0
  8  9  1  0
  9 10  1  1
 10 11  1  0
 11 12  1  0
 12 13  2  0
 13 14  1  0
 14 15  2  0
 15 16  1  0
 12 17  1  0
 16 17  2  0
  9 18  1  0
 18 19  2  0
 19 20  1  0
 20 21  2  0
 21 22  1  0
 22 23  1  0
 18 24  1  0
 22 24  2  0
  8 25  1  0
  5 26  1  0
 25 26  1  0
M  END
