PAU-WEI-b9b69149-8-vinylsulfonamide
     RDKit          3D

 36 39  0  0  0  0  0  0  0  0999 V2000
    8.0000   -3.5800   19.9190 C   0  0  0  0  0  0  0  0  0  0  0  0
    6.8650   -2.7340   19.4230 C   0  0  0  0  0  0  0  0  0  0  0  0
    5.4850   -3.5660   20.0960 S   0  0  0  0  0  0  0  0  0  0  0  0
    4.3520   -3.0870   19.4370 O   0  0  0  0  0  0  0  0  0  0  0  0
    5.6840   -4.9820   20.0420 O   0  0  0  0  0  0  0  0  0  0  0  0
    5.4520   -3.0490   21.7070 N   0  0  0  0  0  0  0  0  0  0  0  0
    5.3710   -1.5890   21.9170 C   0  0  0  0  0  0  0  0  0  0  0  0
    6.7190   -0.9690   22.3450 C   0  0  0  0  0  0  0  0  0  0  0  0
    7.3290   -1.7120   23.4490 N   0  0  0  0  0  0  0  0  0  0  0  0
    8.1490   -1.2250   24.4890 C   0  0  2  0  0  0  0  0  0  0  0  0
    7.5740   -0.3190   25.3850 C   0  0  0  0  0  0  0  0  0  0  0  0
    6.5510   -0.9270   26.1540 C   0  0  0  0  0  0  0  0  0  0  0  0
    7.0200   -2.1540   26.5430 C   0  0  0  0  0  0  0  0  0  0  0  0
    6.5540   -2.5030   27.8450 C   0  0  0  0  0  0  0  0  0  0  0  0
    7.0440   -3.8760   28.3560 C   0  0  0  0  0  0  0  0  0  0  0  0
    7.9200   -4.7050   27.5190 C   0  0  0  0  0  0  0  0  0  0  0  0
    8.4220   -6.0500   28.0020 C   0  0  0  0  0  0  0  0  0  0  0  0
    8.3510   -4.2410   26.1490 C   0  0  0  0  0  0  0  0  0  0  0  0
    7.8520   -2.9490   25.7480 C   0  0  0  0  0  0  0  0  0  0  0  0
    9.3690   -0.6920   24.1170 C   0  0  0  0  0  0  0  0  0  0  0  0
    9.9370    0.5860   24.6930 C   0  0  0  0  0  0  0  0  0  0  0  0
   11.1530    1.0670   24.3110 C   0  0  0  0  0  0  0  0  0  0  0  0
   11.9080    0.4330   23.4120 C   0  0  0  0  0  0  0  0  0  0  0  0
   11.4880   -0.6830   22.8130 C   0  0  0  0  0  0  0  0  0  0  0  0
   12.1430   -1.3710   21.8370 C   0  0  0  0  0  0  0  0  0  0  0  0
   13.3560   -1.0270   21.1940 C   0  0  0  0  0  0  0  0  0  0  0  0
   14.0620   -0.5960   19.9290 C   0  0  0  0  0  0  0  0  0  0  0  0
   14.6360    0.8130   20.0640 N   0  0  0  0  0  0  0  0  0  0  0  0
   14.9430    1.6850   19.0000 C   0  0  0  0  0  0  0  0  0  0  0  0
   15.5400    3.0450   19.3090 C   0  0  0  0  0  0  0  0  0  0  0  0
   14.6800    1.4280   17.8560 O   0  0  0  0  0  0  0  0  0  0  0  0
   11.3510   -2.4230   21.5570 C   0  0  0  0  0  0  0  0  0  0  0  0
   10.2160   -2.3640   22.3420 N   0  0  0  0  0  0  0  0  0  0  0  0
   10.2630   -1.2560   23.1430 C   0  0  0  0  0  0  0  0  0  0  0  0
    7.5810   -3.0830   22.9900 C   0  0  0  0  0  0  0  0  0  0  0  0
    6.2850   -3.8190   22.6200 C   0  0  0  0  0  0  0  0  0  0  0  0
  1  2  1  0
  3  2  1  0
  3  4  2  0
  3  5  2  0
  3  6  1  0
  6  7  1  0
  7  8  1  0
  8  9  1  0
  9 10  1  0
 10 11  1  6
 11 12  1  0
 12 13  1  0
 13 14  2  0
 14 15  1  0
 15 16  2  0
 16 17  1  0
 16 18  1  0
 13 19  1  0
 18 19  2  0
 10 20  1  0
 20 21  2  0
 21 22  1  0
 22 23  2  0
 23 24  1  0
 24 25  1  0
 25 26  1  0
 26 27  1  0
 27 28  1  0
 28 29  1  0
 29 30  1  0
 29 31  2  0
 25 32  2  0
 32 33  1  0
 20 34  1  0
 24 34  2  0
 33 34  1  0
  9 35  1  0
  6 36  1  0
 35 36  1  0
M  END
