PAU-UNI-52c0427f-1-vinylsulfonamide
     RDKit          3D

 23 24  0  0  0  0  0  0  0  0999 V2000
    7.1170   -3.1610   19.0720 C   0  0  0  0  0  0  0  0  0  0  0  0
    7.2340   -2.2330   20.2420 C   0  0  0  0  0  0  0  0  0  0  0  0
    5.6770   -2.1040   21.0700 S   0  0  0  0  0  0  0  0  0  0  0  0
    5.0670   -3.4270   21.1750 O   0  0  0  0  0  0  0  0  0  0  0  0
    4.9630   -0.9900   20.4810 O   0  0  0  0  0  0  0  0  0  0  0  0
    6.1940   -1.6500   22.6040 N   0  0  0  0  0  0  0  0  0  0  0  0
    6.5730   -2.7390   23.5040 C   0  0  0  0  0  0  0  0  0  0  0  0
    7.9650   -3.0230   23.3980 C   0  0  0  0  0  0  0  0  0  0  0  0
    8.7870   -1.7700   23.5650 N   0  0  0  0  0  0  0  0  0  0  0  0
   10.1390   -1.8320   23.8630 C   0  0  0  0  0  0  0  0  0  0  0  0
   10.5660   -0.8500   24.8140 C   0  0  0  0  0  0  0  0  0  0  0  0
   11.8750   -0.6420   24.7120 C   0  0  0  0  0  0  0  0  0  0  0  0
   11.4560   -1.7570   23.6470 C   0  0  0  0  0  0  0  0  0  0  0  0
   12.8210   -1.6970   23.3670 C   0  0  0  0  0  0  0  0  0  0  0  0
   13.2000   -1.3920   22.0450 N   0  0  0  0  0  0  0  0  0  0  0  0
   10.1770   -1.4730   24.2650 C   0  0  0  0  0  0  0  0  0  0  0  0
    8.8780   -1.2570   24.8160 N   0  0  0  0  0  0  0  0  0  0  0  0
    9.4950   -0.3940   25.5670 C   0  0  0  0  0  0  0  0  0  0  0  0
    9.1860    0.5050   26.6000 N   0  0  0  0  0  0  0  0  0  0  0  0
    8.2300    0.1620   27.6680 C   0  0  0  0  0  0  0  0  0  0  0  0
    8.9060    0.0930   28.8890 C   0  0  0  0  0  0  0  0  0  0  0  0
    8.4000   -0.7460   22.6120 C   0  0  0  0  0  0  0  0  0  0  0  0
    7.0190   -0.4520   22.6530 C   0  0  0  0  0  0  0  0  0  0  0  0
  1  2  1  0
  3  2  1  0
  3  4  2  0
  3  5  2  0
  3  6  1  0
  6  7  1  0
  7  8  1  0
  8  9  1  0
  9 10  1  0
 10 11  1  0
 11 12  2  0
 12 13  1  0
 13 14  1  0
 14 15  3  0
 13 16  2  0
 16 17  1  0
 11 18  1  0
 17 18  2  0
 18 19  1  0
 19 20  1  0
 20 21  1  0
  9 22  1  0
  6 23  1  0
 22 23  1  0
M  END
