PAU-UNI-b33c5197-1-nitrile
     RDKit          3D

 28 31  0  0  0  0  0  0  0  0999 V2000
    6.6840   -4.1630   20.1350 C   0  0  0  0  0  0  0  0  0  0  0  0
    5.6360   -3.7860   19.5340 N   0  0  0  0  0  0  0  0  0  0  0  0
    6.7660   -4.2720   21.4810 N   0  0  0  0  0  0  0  0  0  0  0  0
    6.0220   -5.3950   22.0770 C   0  0  0  0  0  0  0  0  0  0  0  0
    7.0200   -6.2750   22.8490 C   0  0  0  0  0  0  0  0  0  0  0  0
    7.6390   -5.5640   24.0540 C   0  0  0  0  0  0  0  0  0  0  0  0
    7.9100   -4.1120   23.7250 C   0  0  1  0  0  0  0  0  0  0  0  0
    9.2720   -3.6490   24.1810 C   0  0  0  0  0  0  0  0  0  0  0  0
    9.6740   -2.4650   23.6180 N   0  0  0  0  0  0  0  0  0  0  0  0
   10.9290   -2.2340   24.1090 C   0  0  0  0  0  0  0  0  0  0  0  0
   11.8840   -1.0620   23.8260 C   0  0  0  0  0  0  0  0  0  0  0  0
   13.1030   -1.0790   24.4380 C   0  0  0  0  0  0  0  0  0  0  0  0
   13.5910   -2.2070   25.4050 C   0  0  0  0  0  0  0  0  0  0  0  0
   12.5620   -3.3620   25.6530 C   0  0  0  0  0  0  0  0  0  0  0  0
   11.2630   -3.2690   24.9560 C   0  0  0  0  0  0  0  0  0  0  0  0
   10.1700   -4.2120   25.0370 N   0  0  0  0  0  0  0  0  0  0  0  0
   10.0360   -5.3670   25.7430 C   0  0  0  0  0  0  0  0  0  0  0  0
    9.5010   -5.3610   27.0670 C   0  0  0  0  0  0  0  0  0  0  0  0
    8.1770   -5.0100   27.1460 C   0  0  0  0  0  0  0  0  0  0  0  0
    7.7310   -4.0260   26.5700 O   0  0  0  0  0  0  0  0  0  0  0  0
    7.4610   -5.8830   27.9380 N   0  0  0  0  0  0  0  0  0  0  0  0
    6.3340   -5.5420   28.7070 C   0  0  0  0  0  0  0  0  0  0  0  0
    5.6170   -6.5780   29.5870 C   0  0  0  0  0  0  0  0  0  0  0  0
    4.5120   -6.1380   30.3040 C   0  0  0  0  0  0  0  0  0  0  0  0
    4.0740   -4.8190   30.2270 C   0  0  0  0  0  0  0  0  0  0  0  0
    4.6630   -3.8680   29.4760 N   0  0  0  0  0  0  0  0  0  0  0  0
    5.7670   -4.2410   28.7420 C   0  0  0  0  0  0  0  0  0  0  0  0
    8.0010   -3.8990   22.2180 C   0  0  0  0  0  0  0  0  0  0  0  0
  1  2  2  3
  1  3  1  0
  3  4  1  0
  4  5  1  0
  5  6  1  0
  6  7  1  0
  7  8  1  1
  8  9  2  0
  9 10  1  0
 10 11  2  0
 11 12  1  0
 12 13  2  0
 13 14  1  0
 10 15  1  0
 14 15  2  0
  8 16  1  0
 15 16  1  0
 16 17  1  0
 17 18  1  0
 18 19  1  0
 19 20  2  0
 19 21  1  0
 21 22  1  0
 22 23  2  0
 23 24  1  0
 24 25  2  0
 25 26  1  0
 22 27  1  0
 26 27  2  0
  3 28  1  0
  7 28  1  0
M  END
