PAU-UNI-b6a619a1-1-vinylsulfonamide
     RDKit          3D

 32 35  0  0  0  0  0  0  0  0999 V2000
    8.0790   -3.5440   18.8220 C   0  0  0  0  0  0  0  0  0  0  0  0
    7.5790   -3.1360   20.1730 C   0  0  0  0  0  0  0  0  0  0  0  0
    6.0210   -3.9540   20.5570 S   0  0  0  0  0  0  0  0  0  0  0  0
    4.9180   -3.0810   20.8510 O   0  0  0  0  0  0  0  0  0  0  0  0
    5.6950   -5.0510   19.7020 O   0  0  0  0  0  0  0  0  0  0  0  0
    6.4620   -4.5320   22.0510 N   0  0  0  0  0  0  0  0  0  0  0  0
    6.4290   -5.9650   22.2560 C   0  0  0  0  0  0  0  0  0  0  0  0
    7.6580   -6.3410   22.7470 C   0  0  0  0  0  0  0  0  0  0  0  0
    8.0940   -5.6700   23.8850 C   0  0  0  0  0  0  0  0  0  0  0  0
    8.1000   -4.3020   23.7140 C   0  0  1  0  0  0  0  0  0  0  0  0
    9.3650   -3.5690   24.0750 C   0  0  0  0  0  0  0  0  0  0  0  0
   10.4420   -4.3360   24.6570 N   0  0  0  0  0  0  0  0  0  0  0  0
   11.3610   -3.3650   24.7920 C   0  0  0  0  0  0  0  0  0  0  0  0
   12.7470   -3.3970   25.3160 C   0  0  0  0  0  0  0  0  0  0  0  0
   13.5310   -2.1600   25.3350 C   0  0  0  0  0  0  0  0  0  0  0  0
   12.9080   -0.9840   24.8460 C   0  0  0  0  0  0  0  0  0  0  0  0
   11.6090   -0.9880   24.3700 C   0  0  0  0  0  0  0  0  0  0  0  0
   10.8760   -2.1690   24.3530 C   0  0  0  0  0  0  0  0  0  0  0  0
    9.4620   -2.2040   23.8300 N   0  0  0  0  0  0  0  0  0  0  0  0
    9.8270   -0.8700   23.6960 C   0  0  0  0  0  0  0  0  0  0  0  0
   10.0720   -0.4610   22.3770 C   0  0  0  0  0  0  0  0  0  0  0  0
    8.9810    0.3120   21.6450 C   0  0  0  0  0  0  0  0  0  0  0  0
    8.8920    1.8430   21.7740 C   0  0  0  0  0  0  0  0  0  0  0  0
    8.1780   -0.4720   20.9060 N   0  0  0  0  0  0  0  0  0  0  0  0
    7.1390    0.0050   20.1700 C   0  0  0  0  0  0  0  0  0  0  0  0
    7.1470   -0.1080   18.6770 C   0  0  0  0  0  0  0  0  0  0  0  0
    6.2020    0.3360   17.8110 N   0  0  0  0  0  0  0  0  0  0  0  0
    5.1440    0.9320   18.3490 C   0  0  0  0  0  0  0  0  0  0  0  0
    5.0330    1.0840   19.8480 C   0  0  0  0  0  0  0  0  0  0  0  0
    5.9990    0.6350   20.7370 C   0  0  0  0  0  0  0  0  0  0  0  0
    5.8170    0.8240   22.2390 C   0  0  0  0  0  0  0  0  0  0  0  0
    7.7030   -3.8870   22.4560 C   0  0  0  0  0  0  0  0  0  0  0  0
  1  2  1  0
  3  2  1  0
  3  4  2  0
  3  5  2  0
  3  6  1  0
  6  7  1  0
  7  8  1  0
  8  9  1  0
  9 10  1  0
 10 11  1  6
 11 12  2  0
 12 13  1  0
 13 14  2  0
 14 15  1  0
 15 16  2  0
 16 17  1  0
 13 18  1  0
 17 18  2  0
 11 19  1  0
 18 19  1  0
 19 20  1  0
 20 21  1  0
 21 22  1  0
 22 23  2  3
 22 24  1  0
 24 25  1  0
 25 26  2  0
 26 27  1  0
 27 28  2  0
 28 29  1  0
 25 30  1  0
 29 30  2  0
 30 31  1  0
  6 32  1  0
 10 32  1  0
M  END
