PAU-WEI-b9b69149-5-nitrile
     RDKit          3D

 29 31  0  0  0  0  0  0  0  0999 V2000
    6.6420   -3.6950   20.0260 C   0  0  0  0  0  0  0  0  0  0  0  0
    5.7190   -4.5800   19.9310 N   0  0  0  0  0  0  0  0  0  0  0  0
    6.5710   -2.8040   21.0830 N   0  0  0  0  0  0  0  0  0  0  0  0
    7.3700   -1.5490   21.0920 C   0  0  0  0  0  0  0  0  0  0  0  0
    8.6020   -1.6390   22.0240 C   0  0  0  0  0  0  0  0  0  0  0  0
    8.3770   -2.3290   23.3230 N   0  0  0  0  0  0  0  0  0  0  0  0
    9.5490   -2.7020   24.0060 C   0  0  2  0  0  0  0  0  0  0  0  0
    9.5670   -2.9100   25.4430 C   0  0  0  0  0  0  0  0  0  0  0  0
    9.4470   -4.1860   25.9940 C   0  0  0  0  0  0  0  0  0  0  0  0
    8.2690   -4.3020   26.7700 C   0  0  0  0  0  0  0  0  0  0  0  0
    8.3240   -5.4340   27.5740 C   0  0  0  0  0  0  0  0  0  0  0  0
    7.2060   -5.7240   28.4360 C   0  0  0  0  0  0  0  0  0  0  0  0
    6.0120   -4.7440   28.4090 C   0  0  0  0  0  0  0  0  0  0  0  0
    4.8810   -5.0710   29.3040 C   0  0  0  0  0  0  0  0  0  0  0  0
    5.1020   -5.9120   30.3230 F   0  0  0  0  0  0  0  0  0  0  0  0
    4.3540   -3.9530   29.8770 F   0  0  0  0  0  0  0  0  0  0  0  0
    3.8390   -5.6210   28.6200 F   0  0  0  0  0  0  0  0  0  0  0  0
    6.0270   -3.6380   27.5870 C   0  0  0  0  0  0  0  0  0  0  0  0
    7.1920   -3.4140   26.7400 C   0  0  0  0  0  0  0  0  0  0  0  0
   10.6410   -1.6800   23.7060 C   0  0  0  0  0  0  0  0  0  0  0  0
   10.7340   -0.3630   24.4590 C   0  0  0  0  0  0  0  0  0  0  0  0
   11.8410    0.5840   24.0800 C   0  0  0  0  0  0  0  0  0  0  0  0
   12.7050    0.2140   23.0910 C   0  0  0  0  0  0  0  0  0  0  0  0
   12.6120   -0.9900   22.4140 C   0  0  0  0  0  0  0  0  0  0  0  0
   13.5090   -1.2940   21.4280 C   0  0  0  0  0  0  0  0  0  0  0  0
   13.2810   -2.5090   20.8820 N   0  0  0  0  0  0  0  0  0  0  0  0
   11.6040   -1.9180   22.7100 C   0  0  0  0  0  0  0  0  0  0  0  0
    7.5060   -3.5290   23.1350 C   0  0  0  0  0  0  0  0  0  0  0  0
    6.2770   -3.2790   22.4270 C   0  0  0  0  0  0  0  0  0  0  0  0
  1  2  2  3
  1  3  1  0
  3  4  1  0
  4  5  1  0
  5  6  1  0
  6  7  1  0
  7  8  1  1
  8  9  1  0
  9 10  1  0
 10 11  2  0
 11 12  1  0
 12 13  2  0
 13 14  1  0
 14 15  1  0
 14 16  1  0
 14 17  1  0
 13 18  1  0
 10 19  1  0
 18 19  2  0
  7 20  1  0
 20 21  2  0
 21 22  1  0
 22 23  2  0
 23 24  1  0
 24 25  1  0
 25 26  3  0
 20 27  1  0
 24 27  2  0
  6 28  1  0
  3 29  1  0
 28 29  1  0
M  END
