PAU-UNI-6d15a9f5-6
     RDKit          3D

 53 55  0  0  0  0  0  0  0  0999 V2000
    1.9130    4.8800  -14.2980 C   0  0  0  0  0  0  0  0  0  0  0  0
    2.9780    5.6780  -13.7780 C   0  0  0  0  0  0  0  0  0  0  0  0
    2.9120    7.0850  -14.4300 C   0  0  0  0  0  0  0  0  0  0  0  0
    3.4810    5.9580  -12.3160 C   0  0  0  0  0  0  0  0  0  0  0  0
    4.9060    6.0000  -11.5680 C   0  0  2  0  0  0  0  0  0  0  0  0
    6.0330    6.6700  -12.1460 C   0  0  0  0  0  0  0  0  0  0  0  0
    6.3400    7.6290  -13.6040 O   0  0  0  0  0  0  0  0  0  0  0  0
    7.7080    8.4190  -14.7730 C   0  0  0  0  0  0  0  0  0  0  0  0
    8.5870    8.2400  -15.8890 C   0  0  1  0  0  0  0  0  0  0  0  0
    9.8010    7.9760  -15.7560 C   0  0  0  0  0  0  0  0  0  0  0  0
   10.2240    7.6930  -16.9390 C   0  0  0  0  0  0  0  0  0  0  0  0
    9.4320    7.0060  -17.6560 C   0  0  1  0  0  0  0  0  0  0  0  0
    9.8000    5.6120  -17.6650 C   0  0  0  0  0  0  0  0  0  0  0  0
   11.2210    5.4760  -18.0000 N   0  0  0  0  0  0  0  0  0  0  0  0
   11.8370    4.2910  -18.4000 C   0  0  0  0  0  0  0  0  0  0  0  0
   12.6360    3.5610  -17.5820 O   0  0  0  0  0  0  0  0  0  0  0  0
   11.6260    3.8320  -19.8030 C   0  0  0  0  0  0  0  0  0  0  0  0
   12.4650    3.7940  -20.8960 C   0  0  0  0  0  0  0  0  0  0  0  0
   11.7690    3.2600  -21.9680 C   0  0  0  0  0  0  0  0  0  0  0  0
   10.5240    3.0110  -21.4200 N   0  0  0  0  0  0  0  0  0  0  0  0
    9.3590    2.4370  -22.0960 C   0  0  0  0  0  0  0  0  0  0  0  0
   10.4060    3.3510  -20.1100 N   0  0  0  0  0  0  0  0  0  0  0  0
    8.3780    7.2870  -16.8630 O   0  0  0  0  0  0  0  0  0  0  0  0
    5.5230    4.7620  -10.5720 C   0  0  0  0  0  0  0  0  0  0  0  0
    6.0910    4.0590  -11.2960 O   0  0  0  0  0  0  0  0  0  0  0  0
    5.7070    4.1850   -9.1520 N   0  0  0  0  0  0  0  0  0  0  0  0
    5.2300    2.8450   -8.3390 C   0  0  2  0  0  0  0  0  0  0  0  0
    5.7930    2.5450   -6.8960 C   0  0  0  0  0  0  0  0  0  0  0  0
    5.6840    3.3660   -5.9800 O   0  0  0  0  0  0  0  0  0  0  0  0
    6.4720    1.2420   -6.7000 N   0  0  0  0  0  0  0  0  0  0  0  0
    5.9110   -0.1830   -6.8590 C   0  0  1  0  0  0  0  0  0  0  0  0
    5.4220   -0.6100   -8.2600 C   0  0  0  0  0  0  0  0  0  0  0  0
    5.9910   -1.9900   -8.5810 C   0  0  0  0  0  0  0  0  0  0  0  0
    5.0350   -2.6720   -9.5310 C   0  0  0  0  0  0  0  0  0  0  0  0
    5.4420   -4.0850   -9.9760 C   0  0  0  0  0  0  0  0  0  0  0  0
    6.7480   -4.6610   -9.4370 C   0  0  0  0  0  0  0  0  0  0  0  0
    7.5490   -3.7910   -8.5080 C   0  0  0  0  0  0  0  0  0  0  0  0
    7.1690   -2.5330   -8.1130 C   0  0  0  0  0  0  0  0  0  0  0  0
    6.4850   -1.4120   -6.0800 C   0  0  0  0  0  0  0  0  0  0  0  0
    7.6110   -1.4620   -5.5850 O   0  0  0  0  0  0  0  0  0  0  0  0
    5.5730   -2.4920   -5.9790 N   0  0  0  0  0  0  0  0  0  0  0  0
    4.9820   -3.1910   -7.1600 C   0  0  1  0  0  0  0  0  0  0  0  0
    5.1040   -4.6860   -7.1610 C   0  0  0  0  0  0  0  0  0  0  0  0
    4.2480   -5.3610   -8.2490 C   0  0  0  0  0  0  0  0  0  0  0  0
    2.9590   -6.0010   -7.7610 C   0  0  0  0  0  0  0  0  0  0  0  0
    2.2190   -5.2740   -6.8570 N   0  0  0  0  0  0  0  0  0  0  0  0
    2.5620   -7.1010   -8.1360 O   0  0  0  0  0  0  0  0  0  0  0  0
    3.4900   -2.9340   -7.4170 C   0  0  0  0  0  0  0  0  0  0  0  0
    3.0660   -2.1930   -8.2960 O   0  0  0  0  0  0  0  0  0  0  0  0
    2.6370   -3.6260   -6.6200 O   0  0  0  0  0  0  0  0  0  0  0  0
    5.6010    1.3840   -8.7260 C   0  0  1  0  0  0  0  0  0  0  0  0
    6.5400    0.6940   -7.7570 C   0  0  0  0  0  0  0  0  0  0  0  0
    4.3740    0.6780   -8.6350 O   0  0  0  0  0  0  0  0  0  0  0  0
  1  2  1  0
  2  3  1  0
  2  4  1  0
  5  4  1  6
  5  6  1  0
  6  7  1  0
  7  8  1  0
  9  8  1  1
  9 10  1  0
 10 11  1  0
 11 12  1  0
 12 13  1  1
 13 14  1  0
 14 15  1  0
 15 16  2  0
 15 17  1  0
 17 18  1  0
 18 19  2  0
 19 20  1  0
 20 21  1  0
 17 22  2  0
 20 22  1  0
  9 23  1  0
 12 23  1  0
  5 24  1  0
 24 25  2  0
 24 26  1  0
 27 26  1  6
 27 28  1  0
 28 29  2  0
 28 30  1  0
 30 31  1  0
 31 32  1  6
 32 33  1  0
 33 34  2  0
 34 35  1  0
 35 36  2  0
 36 37  1  0
 33 38  1  0
 37 38  2  0
 31 39  1  0
 39 40  2  0
 39 41  1  0
 41 42  1  0
 42 43  1  1
 43 44  1  0
 44 45  1  0
 45 46  1  0
 45 47  2  0
 42 48  1  0
 48 49  2  0
 48 50  1  0
 27 51  1  0
 51 52  1  1
 51 53  1  0
M  END
