PAU-WEI-3e86dfd8-1-chloroacetamide
     RDKit          3D

 27 30  0  0  0  0  0  0  0  0999 V2000
    7.0500   -2.9590   18.8380 C   0  0  0  0  0  0  0  0  0  0  0  0
    6.0490   -3.3440   19.9070 C   0  0  0  0  0  0  0  0  0  0  0  0
    5.1940   -4.2090   19.7330 O   0  0  0  0  0  0  0  0  0  0  0  0
    6.1480   -2.6830   21.1230 N   0  0  0  0  0  0  0  0  0  0  0  0
    6.8500   -1.3920   21.2630 C   0  0  0  0  0  0  0  0  0  0  0  0
    8.1500   -1.5220   22.0740 C   0  0  0  0  0  0  0  0  0  0  0  0
    7.9100   -2.2250   23.3430 N   0  0  0  0  0  0  0  0  0  0  0  0
    9.0270   -2.1890   24.2960 C   0  0  1  0  0  0  0  0  0  0  0  0
    8.9790   -3.4640   25.1380 C   0  0  0  0  0  0  0  0  0  0  0  0
    9.7280   -4.7920   25.0050 C   0  0  0  0  0  0  0  0  0  0  0  0
    9.3320   -5.6910   26.0240 C   0  0  0  0  0  0  0  0  0  0  0  0
    8.3710   -5.1490   26.8720 C   0  0  0  0  0  0  0  0  0  0  0  0
    7.5170   -5.9560   28.3590 Br  0  0  0  0  0  0  0  0  0  0  0  0
    7.9100   -3.5080   26.4820 S   0  0  0  0  0  0  0  0  0  0  0  0
   10.1320   -1.4960   23.7600 C   0  0  0  0  0  0  0  0  0  0  0  0
   11.1790   -1.9500   22.9660 C   0  0  0  0  0  0  0  0  0  0  0  0
   12.1600   -1.0830   22.5040 C   0  0  0  0  0  0  0  0  0  0  0  0
   13.3670   -1.7850   21.4950 Cl  0  0  0  0  0  0  0  0  0  0  0  0
   12.1780    0.2490   22.7950 C   0  0  0  0  0  0  0  0  0  0  0  0
   11.1720    0.7510   23.5560 C   0  0  0  0  0  0  0  0  0  0  0  0
   11.1850    2.1290   23.8060 C   0  0  0  0  0  0  0  0  0  0  0  0
   10.2130    2.8290   24.5560 C   0  0  0  0  0  0  0  0  0  0  0  0
    9.0460    2.0540   25.1820 C   0  0  0  0  0  0  0  0  0  0  0  0
    9.0490    0.5470   24.9030 C   0  0  0  0  0  0  0  0  0  0  0  0
   10.1490   -0.0980   24.0520 C   0  0  0  0  0  0  0  0  0  0  0  0
    7.4080   -3.5720   23.0300 C   0  0  0  0  0  0  0  0  0  0  0  0
    6.0280   -3.4380   22.3730 C   0  0  0  0  0  0  0  0  0  0  0  0
  1  2  1  0
  2  3  2  0
  2  4  1  0
  4  5  1  0
  5  6  1  0
  6  7  1  0
  7  8  1  0
  8  9  1  6
  9 10  2  0
 10 11  1  0
 11 12  2  0
 12 13  1  0
  9 14  1  0
 12 14  1  0
  8 15  1  0
 15 16  2  0
 16 17  1  0
 17 18  1  0
 17 19  2  0
 19 20  1  0
 20 21  1  0
 21 22  2  0
 22 23  1  0
 23 24  2  0
 15 25  1  0
 20 25  2  0
 24 25  1  0
  7 26  1  0
  4 27  1  0
 26 27  1  0
M  END
