PAU-WEI-b9b69149-8-acrylamide
     RDKit          3D

 35 38  0  0  0  0  0  0  0  0999 V2000
    7.8120   -2.9720   18.4460 C   0  0  0  0  0  0  0  0  0  0  0  0
    6.3580   -2.6070   18.6010 C   0  0  0  0  0  0  0  0  0  0  0  0
    5.8520   -3.1020   19.9310 C   0  0  0  0  0  0  0  0  0  0  0  0
    5.1960   -4.1560   19.9600 O   0  0  0  0  0  0  0  0  0  0  0  0
    6.1790   -2.3520   21.0720 N   0  0  0  0  0  0  0  0  0  0  0  0
    5.9730   -2.9200   22.4090 C   0  0  0  0  0  0  0  0  0  0  0  0
    7.1660   -2.9970   23.2500 C   0  0  0  0  0  0  0  0  0  0  0  0
    8.0400   -1.8050   23.2720 N   0  0  0  0  0  0  0  0  0  0  0  0
    9.0820   -1.7250   24.2180 C   0  0  1  0  0  0  0  0  0  0  0  0
    9.6240   -2.9870   24.5580 C   0  0  0  0  0  0  0  0  0  0  0  0
    9.9840   -3.6560   23.4260 C   0  0  0  0  0  0  0  0  0  0  0  0
    9.3840   -4.9210   23.4820 C   0  0  0  0  0  0  0  0  0  0  0  0
    8.2100   -5.0020   22.5110 C   0  0  0  0  0  0  0  0  0  0  0  0
    7.4730   -6.2730   22.4470 C   0  0  0  0  0  0  0  0  0  0  0  0
    7.9200   -7.4320   23.3540 C   0  0  0  0  0  0  0  0  0  0  0  0
    7.0760   -8.5920   23.1430 C   0  0  0  0  0  0  0  0  0  0  0  0
    9.0060   -7.2870   24.2270 C   0  0  0  0  0  0  0  0  0  0  0  0
    9.7570   -5.9810   24.2790 C   0  0  0  0  0  0  0  0  0  0  0  0
   10.1560   -0.8390   24.0520 C   0  0  0  0  0  0  0  0  0  0  0  0
   10.4890    0.3380   24.6930 C   0  0  0  0  0  0  0  0  0  0  0  0
   11.6380    1.0640   24.3820 C   0  0  0  0  0  0  0  0  0  0  0  0
   12.5580    0.6910   23.4460 C   0  0  0  0  0  0  0  0  0  0  0  0
   12.3020   -0.4350   22.7750 C   0  0  0  0  0  0  0  0  0  0  0  0
   13.0160   -1.0890   21.7770 C   0  0  0  0  0  0  0  0  0  0  0  0
   13.7430   -1.7540   20.7610 C   0  0  0  0  0  0  0  0  0  0  0  0
   14.3770   -3.0450   20.0890 C   0  0  0  0  0  0  0  0  0  0  0  0
   14.7130   -4.2250   20.8890 N   0  0  0  0  0  0  0  0  0  0  0  0
   15.6350   -5.2050   20.8120 C   0  0  0  0  0  0  0  0  0  0  0  0
   16.1390   -5.4490   22.2520 C   0  0  0  0  0  0  0  0  0  0  0  0
   15.9880   -5.8070   19.8220 O   0  0  0  0  0  0  0  0  0  0  0  0
   12.1580   -2.0150   21.5850 C   0  0  0  0  0  0  0  0  0  0  0  0
   11.0900   -2.1040   22.2980 N   0  0  0  0  0  0  0  0  0  0  0  0
   11.1150   -1.1200   23.1010 C   0  0  0  0  0  0  0  0  0  0  0  0
    8.4250   -1.4860   21.8820 C   0  0  0  0  0  0  0  0  0  0  0  0
    7.1840   -1.2730   20.9870 C   0  0  0  0  0  0  0  0  0  0  0  0
  1  2  1  0
  2  3  1  0
  3  4  2  0
  3  5  1  0
  5  6  1  0
  6  7  1  0
  7  8  1  0
  8  9  1  0
  9 10  1  6
 10 11  1  0
 11 12  1  0
 12 13  2  0
 13 14  1  0
 14 15  2  0
 15 16  1  0
 15 17  1  0
 12 18  1  0
 17 18  2  0
  9 19  1  0
 19 20  2  0
 20 21  1  0
 21 22  2  0
 22 23  1  0
 23 24  1  0
 24 25  1  0
 25 26  1  0
 26 27  1  0
 27 28  1  0
 28 29  1  0
 28 30  2  0
 24 31  2  0
 31 32  1  0
 19 33  1  0
 23 33  2  0
 32 33  1  0
  8 34  1  0
  5 35  1  0
 34 35  1  0
M  END
