PAU-WEI-3e86dfd8-1-nitrile
     RDKit          3D

 26 29  0  0  0  0  0  0  0  0999 V2000
    6.5470   -3.9090   20.0020 C   0  0  0  0  0  0  0  0  0  0  0  0
    5.7440   -4.9090   19.9970 N   0  0  0  0  0  0  0  0  0  0  0  0
    6.4670   -2.9820   21.0060 N   0  0  0  0  0  0  0  0  0  0  0  0
    6.0300   -3.4230   22.3370 C   0  0  0  0  0  0  0  0  0  0  0  0
    7.2490   -3.4930   23.2710 C   0  0  0  0  0  0  0  0  0  0  0  0
    7.9380   -2.1950   23.3560 N   0  0  0  0  0  0  0  0  0  0  0  0
    9.0160   -2.1790   24.3480 C   0  0  1  0  0  0  0  0  0  0  0  0
    8.9900   -3.4990   25.1560 C   0  0  0  0  0  0  0  0  0  0  0  0
    9.7480   -4.8130   25.0380 C   0  0  0  0  0  0  0  0  0  0  0  0
    9.2920   -5.7720   26.1280 C   0  0  0  0  0  0  0  0  0  0  0  0
    8.2980   -5.1840   26.9380 C   0  0  0  0  0  0  0  0  0  0  0  0
    7.3910   -5.9600   28.4130 Br  0  0  0  0  0  0  0  0  0  0  0  0
    7.8600   -3.5460   26.5090 S   0  0  0  0  0  0  0  0  0  0  0  0
   10.0960   -1.4230   23.8540 C   0  0  0  0  0  0  0  0  0  0  0  0
   11.1290   -1.9260   23.1080 C   0  0  0  0  0  0  0  0  0  0  0  0
   12.1220   -1.0590   22.6460 C   0  0  0  0  0  0  0  0  0  0  0  0
   13.3860   -1.6220   21.7020 Cl  0  0  0  0  0  0  0  0  0  0  0  0
   12.1280    0.2960   22.9090 C   0  0  0  0  0  0  0  0  0  0  0  0
   11.1560    0.9290   23.6340 C   0  0  0  0  0  0  0  0  0  0  0  0
   11.2440    2.3020   23.8110 C   0  0  0  0  0  0  0  0  0  0  0  0
   10.2470    2.9500   24.5320 C   0  0  0  0  0  0  0  0  0  0  0  0
    9.1530    2.2660   25.1060 C   0  0  0  0  0  0  0  0  0  0  0  0
    9.0370    0.7480   24.9290 C   0  0  0  0  0  0  0  0  0  0  0  0
   10.1500    0.0870   24.1110 C   0  0  0  0  0  0  0  0  0  0  0  0
    8.3210   -1.6820   22.0210 C   0  0  0  0  0  0  0  0  0  0  0  0
    7.1570   -1.6670   21.0000 C   0  0  0  0  0  0  0  0  0  0  0  0
  1  2  2  3
  1  3  1  0
  3  4  1  0
  4  5  1  0
  5  6  1  0
  6  7  1  0
  7  8  1  6
  8  9  2  0
  9 10  1  0
 10 11  2  0
 11 12  1  0
  8 13  1  0
 11 13  1  0
  7 14  1  0
 14 15  2  0
 15 16  1  0
 16 17  1  0
 16 18  2  0
 18 19  1  0
 19 20  1  0
 20 21  2  0
 21 22  1  0
 22 23  2  0
 14 24  1  0
 19 24  2  0
 23 24  1  0
  6 25  1  0
  3 26  1  0
 25 26  1  0
M  END
