PAU-WEI-b9b69149-4-nitrile
     RDKit          3D

 25 27  0  0  0  0  0  0  0  0999 V2000
    6.6880   -3.5950   19.9180 C   0  0  0  0  0  0  0  0  0  0  0  0
    5.7730   -4.4860   19.8970 N   0  0  0  0  0  0  0  0  0  0  0  0
    6.6950   -2.7260   20.9890 N   0  0  0  0  0  0  0  0  0  0  0  0
    6.2810   -3.3200   22.2730 C   0  0  0  0  0  0  0  0  0  0  0  0
    7.4970   -3.5330   23.1740 C   0  0  0  0  0  0  0  0  0  0  0  0
    8.3420   -2.3380   23.2440 N   0  0  0  0  0  0  0  0  0  0  0  0
    9.3480   -2.3520   24.2120 C   0  0  2  0  0  0  0  0  0  0  0  0
    8.9500   -2.0270   25.5620 C   0  0  0  0  0  0  0  0  0  0  0  0
    7.9030   -1.1740   25.8240 C   0  0  0  0  0  0  0  0  0  0  0  0
    7.2810   -1.4760   27.0520 C   0  0  0  0  0  0  0  0  0  0  0  0
    6.0800   -2.1400   26.8470 C   0  0  0  0  0  0  0  0  0  0  0  0
    5.2910   -2.5280   27.9810 C   0  0  0  0  0  0  0  0  0  0  0  0
    5.8270   -2.1780   29.3910 C   0  0  0  0  0  0  0  0  0  0  0  0
    7.1010   -1.4760   29.5600 C   0  0  0  0  0  0  0  0  0  0  0  0
    7.8360   -1.1290   28.2810 C   0  0  0  0  0  0  0  0  0  0  0  0
   10.4880   -1.4320   23.8040 C   0  0  0  0  0  0  0  0  0  0  0  0
   10.5810   -0.1140   24.4230 C   0  0  0  0  0  0  0  0  0  0  0  0
   11.6820    0.8250   24.0570 C   0  0  0  0  0  0  0  0  0  0  0  0
   12.6730    0.3600   23.0560 C   0  0  0  0  0  0  0  0  0  0  0  0
   12.5570   -0.8990   22.4900 C   0  0  0  0  0  0  0  0  0  0  0  0
   13.4930   -1.2830   21.5690 C   0  0  0  0  0  0  0  0  0  0  0  0
   13.1720   -2.5130   20.9150 N   0  0  0  0  0  0  0  0  0  0  0  0
   11.4920   -1.7770   22.8490 C   0  0  0  0  0  0  0  0  0  0  0  0
    8.6940   -1.7790   21.9410 C   0  0  0  0  0  0  0  0  0  0  0  0
    7.5810   -1.5550   21.1040 C   0  0  0  0  0  0  0  0  0  0  0  0
  1  2  2  3
  1  3  1  0
  3  4  1  0
  4  5  1  0
  5  6  1  0
  6  7  1  0
  7  8  1  1
  8  9  1  0
  9 10  1  0
 10 11  2  0
 11 12  1  0
 12 13  2  0
 13 14  1  0
 10 15  1  0
 14 15  2  0
  7 16  1  0
 16 17  2  0
 17 18  1  0
 18 19  2  0
 19 20  1  0
 20 21  1  0
 21 22  3  0
 16 23  1  0
 20 23  2  0
  6 24  1  0
  3 25  1  0
 24 25  1  0
M  END
