PAU-WEI-c6d65c11-1-chloroacetamide
     RDKit          3D

 25 27  0  0  0  0  0  0  0  0999 V2000
    7.0540   -3.2290   19.2720 C   0  0  0  0  0  0  0  0  0  0  0  0
    6.2130   -4.0310   20.2460 C   0  0  0  0  0  0  0  0  0  0  0  0
    5.1910   -4.5740   19.8630 O   0  0  0  0  0  0  0  0  0  0  0  0
    6.6270   -4.1780   21.5550 N   0  0  0  0  0  0  0  0  0  0  0  0
    6.4190   -5.3500   22.3620 C   0  0  0  0  0  0  0  0  0  0  0  0
    5.8050   -4.9060   23.6890 C   0  0  0  0  0  0  0  0  0  0  0  0
    6.7350   -3.8950   24.4060 C   0  0  2  0  0  0  0  0  0  0  0  0
    5.9710   -3.2420   25.5690 C   0  0  0  0  0  0  0  0  0  0  0  0
    4.8690   -2.7220   25.3600 O   0  0  0  0  0  0  0  0  0  0  0  0
    6.5490   -3.2590   26.8320 N   0  0  0  0  0  0  0  0  0  0  0  0
    5.6550   -3.1930   27.9810 C   0  0  0  0  0  0  0  0  0  0  0  0
    5.4270   -4.5890   28.5420 C   0  0  0  0  0  0  0  0  0  0  0  0
    6.7180   -5.3720   28.7770 C   0  0  0  0  0  0  0  0  0  0  0  0
    7.8070   -5.2050   27.7200 C   0  0  0  0  0  0  0  0  0  0  0  0
    7.8700   -3.8020   27.1230 C   0  0  0  0  0  0  0  0  0  0  0  0
    7.3350   -2.7790   23.4830 C   0  0  1  0  0  0  0  0  0  0  0  0
    8.6680   -2.2380   24.0250 C   0  0  0  0  0  0  0  0  0  0  0  0
    9.7130   -2.2910   22.9320 C   0  0  0  0  0  0  0  0  0  0  0  0
   10.8290   -1.4560   22.9280 C   0  0  0  0  0  0  0  0  0  0  0  0
   10.8840   -0.2920   23.6980 C   0  0  0  0  0  0  0  0  0  0  0  0
   12.0210    0.5130   23.6590 C   0  0  0  0  0  0  0  0  0  0  0  0
   13.0970    0.1580   22.8570 C   0  0  0  0  0  0  0  0  0  0  0  0
   13.0440   -1.0020   22.0910 C   0  0  0  0  0  0  0  0  0  0  0  0
   11.9160   -1.8000   22.1280 C   0  0  0  0  0  0  0  0  0  0  0  0
    7.6150   -3.2640   22.0600 C   0  0  0  0  0  0  0  0  0  0  0  0
  1  2  1  0
  2  3  2  0
  2  4  1  0
  4  5  1  0
  5  6  1  0
  6  7  1  0
  7  8  1  1
  8  9  2  0
  8 10  1  0
 10 11  1  0
 11 12  1  0
 12 13  1  0
 13 14  1  0
 10 15  1  0
 14 15  1  0
  7 16  1  0
 16 17  1  1
 17 18  1  0
 18 19  1  0
 19 20  2  0
 20 21  1  0
 21 22  2  0
 22 23  1  0
 19 24  1  0
 23 24  2  0
  4 25  1  0
 16 25  1  0
M  END
