PAU-WEI-f734c343-3-vinylsulfonamide
     RDKit          3D

 29 31  0  0  0  0  0  0  0  0999 V2000
    7.9370   -3.5730   19.6920 C   0  0  0  0  0  0  0  0  0  0  0  0
    7.1990   -2.5360   18.9600 C   0  0  0  0  0  0  0  0  0  0  0  0
    5.6180   -2.6290   19.6990 S   0  0  0  0  0  0  0  0  0  0  0  0
    5.0630   -3.9830   19.7200 O   0  0  0  0  0  0  0  0  0  0  0  0
    4.9000   -1.5500   19.1290 O   0  0  0  0  0  0  0  0  0  0  0  0
    6.0240   -2.1970   21.2840 N   0  0  0  0  0  0  0  0  0  0  0  0
    6.9440   -1.0680   21.4400 C   0  0  0  0  0  0  0  0  0  0  0  0
    8.3560   -1.5050   21.8340 C   0  0  0  0  0  0  0  0  0  0  0  0
    8.4020   -2.5880   22.8230 N   0  0  0  0  0  0  0  0  0  0  0  0
    9.4300   -2.6950   23.7220 C   0  0  2  0  0  0  0  0  0  0  0  0
    9.0640   -3.6090   24.9610 C   0  0  0  0  0  0  0  0  0  0  0  0
    9.8270   -4.8960   25.1510 C   0  0  0  0  0  0  0  0  0  0  0  0
    9.3110   -5.6510   26.3310 C   0  0  0  0  0  0  0  0  0  0  0  0
    8.1910   -4.8800   26.9610 C   0  0  0  0  0  0  0  0  0  0  0  0
    7.2280   -5.4960   28.4820 Br  0  0  0  0  0  0  0  0  0  0  0  0
    7.8520   -3.3790   26.1640 S   0  0  0  0  0  0  0  0  0  0  0  0
   10.4180   -1.4900   23.7380 C   0  0  0  0  0  0  0  0  0  0  0  0
   11.5340   -1.6310   22.8450 C   0  0  0  0  0  0  0  0  0  0  0  0
   12.5120   -0.5380   22.7800 C   0  0  0  0  0  0  0  0  0  0  0  0
   13.5220   -0.8130   21.8880 C   0  0  0  0  0  0  0  0  0  0  0  0
   13.3910   -1.8520   20.9360 N   0  0  0  0  0  0  0  0  0  0  0  0
   12.5450    0.7000   23.4810 C   0  0  0  0  0  0  0  0  0  0  0  0
   11.5180    0.5930   24.1450 N   0  0  0  0  0  0  0  0  0  0  0  0
   10.4900   -0.3060   24.3540 C   0  0  0  0  0  0  0  0  0  0  0  0
    9.5180    0.0920   25.2150 N   0  0  0  0  0  0  0  0  0  0  0  0
    9.1170    1.4550   25.3290 C   0  0  0  0  0  0  0  0  0  0  0  0
    9.7910    2.6280   24.6290 C   0  0  0  0  0  0  0  0  0  0  0  0
    7.0890   -2.9930   23.3330 C   0  0  0  0  0  0  0  0  0  0  0  0
    6.0430   -3.2580   22.2880 C   0  0  0  0  0  0  0  0  0  0  0  0
  1  2  1  0
  3  2  1  0
  3  4  2  0
  3  5  2  0
  3  6  1  0
  6  7  1  0
  7  8  1  0
  8  9  1  0
  9 10  1  0
 10 11  1  1
 11 12  2  0
 12 13  1  0
 13 14  2  0
 14 15  1  0
 11 16  1  0
 14 16  1  0
 10 17  1  0
 17 18  2  0
 18 19  1  0
 19 20  1  0
 20 21  3  0
 19 22  2  0
 22 23  1  0
 17 24  1  0
 23 24  2  0
 24 25  1  0
 25 26  1  0
 26 27  1  0
  9 28  1  0
  6 29  1  0
 28 29  1  0
M  END
