PAU-UNI-52c0427f-1-nitrile
     RDKit          3D

 20 21  0  0  0  0  0  0  0  0999 V2000
    6.6870   -3.4700   19.6440 C   0  0  0  0  0  0  0  0  0  0  0  0
    5.8020   -3.2190   18.7630 N   0  0  0  0  0  0  0  0  0  0  0  0
    6.6130   -2.9460   20.9070 N   0  0  0  0  0  0  0  0  0  0  0  0
    7.1450   -1.6240   21.2030 C   0  0  0  0  0  0  0  0  0  0  0  0
    8.2510   -1.7780   22.0170 C   0  0  0  0  0  0  0  0  0  0  0  0
    8.1380   -2.6480   23.1020 N   0  0  0  0  0  0  0  0  0  0  0  0
    9.3760   -2.8340   23.6320 C   0  0  0  0  0  0  0  0  0  0  0  0
    9.9110   -1.6070   23.8380 C   0  0  0  0  0  0  0  0  0  0  0  0
   11.1210   -1.3150   23.2440 C   0  0  0  0  0  0  0  0  0  0  0  0
   11.6590   -0.0720   23.4210 C   0  0  0  0  0  0  0  0  0  0  0  0
   12.9310    0.4190   22.8670 C   0  0  0  0  0  0  0  0  0  0  0  0
   14.0390    0.8940   22.4160 N   0  0  0  0  0  0  0  0  0  0  0  0
   10.9280    0.9500   24.2510 C   0  0  0  0  0  0  0  0  0  0  0  0
    9.6680    0.6880   24.8980 N   0  0  0  0  0  0  0  0  0  0  0  0
    9.2080   -0.6680   24.6370 C   0  0  0  0  0  0  0  0  0  0  0  0
    7.9880   -1.0200   25.2260 N   0  0  0  0  0  0  0  0  0  0  0  0
    7.6620   -0.3170   26.4720 C   0  0  0  0  0  0  0  0  0  0  0  0
    6.8390   -1.1270   27.2200 C   0  0  0  0  0  0  0  0  0  0  0  0
    7.5470   -3.8250   22.8030 C   0  0  0  0  0  0  0  0  0  0  0  0
    6.3820   -3.8130   22.0420 C   0  0  0  0  0  0  0  0  0  0  0  0
  1  2  2  3
  1  3  1  0
  3  4  1  0
  4  5  1  0
  5  6  1  0
  6  7  1  0
  7  8  1  0
  8  9  2  0
  9 10  1  0
 10 11  1  0
 11 12  3  0
 10 13  2  0
 13 14  1  0
  8 15  1  0
 14 15  2  0
 15 16  1  0
 16 17  1  0
 17 18  1  0
  6 19  1  0
  3 20  1  0
 19 20  1  0
M  END
