PAU-WEI-b9b69149-8-chloroacetamide
     RDKit          3D

 34 37  0  0  0  0  0  0  0  0999 V2000
    7.2120   -3.0080   18.7980 C   0  0  0  0  0  0  0  0  0  0  0  0
    6.2080   -3.3620   19.8810 C   0  0  0  0  0  0  0  0  0  0  0  0
    5.4210   -4.2990   19.7970 O   0  0  0  0  0  0  0  0  0  0  0  0
    6.2030   -2.5610   21.0150 N   0  0  0  0  0  0  0  0  0  0  0  0
    6.7310   -1.2070   21.0170 C   0  0  0  0  0  0  0  0  0  0  0  0
    8.2020   -1.2850   21.3960 C   0  0  0  0  0  0  0  0  0  0  0  0
    8.4290   -1.8020   22.7360 N   0  0  0  0  0  0  0  0  0  0  0  0
    8.7490   -0.9520   23.7890 C   0  0  1  0  0  0  0  0  0  0  0  0
    8.3270   -1.4780   24.9800 C   0  0  0  0  0  0  0  0  0  0  0  0
    9.1150   -2.6440   25.2270 C   0  0  0  0  0  0  0  0  0  0  0  0
    8.4130   -3.4400   26.1020 C   0  0  0  0  0  0  0  0  0  0  0  0
    9.1910   -4.5810   26.4700 C   0  0  0  0  0  0  0  0  0  0  0  0
    8.5020   -5.5500   27.4570 C   0  0  0  0  0  0  0  0  0  0  0  0
    7.1420   -5.2850   27.9610 C   0  0  0  0  0  0  0  0  0  0  0  0
    6.4580   -6.2540   28.9400 C   0  0  0  0  0  0  0  0  0  0  0  0
    6.4110   -4.0300   27.4960 C   0  0  0  0  0  0  0  0  0  0  0  0
    7.1170   -3.1590   26.5650 C   0  0  0  0  0  0  0  0  0  0  0  0
   10.1190   -0.8630   23.9370 C   0  0  0  0  0  0  0  0  0  0  0  0
   10.8840   -0.3740   25.1150 C   0  0  0  0  0  0  0  0  0  0  0  0
   12.2530   -0.3780   25.1330 C   0  0  0  0  0  0  0  0  0  0  0  0
   12.9620   -0.8120   24.1150 C   0  0  0  0  0  0  0  0  0  0  0  0
   12.3880   -1.2750   23.0360 C   0  0  0  0  0  0  0  0  0  0  0  0
   13.1960   -1.7910   22.0550 C   0  0  0  0  0  0  0  0  0  0  0  0
   13.4710   -2.4030   20.9250 C   0  0  0  0  0  0  0  0  0  0  0  0
   13.6210   -3.7100   20.3570 C   0  0  0  0  0  0  0  0  0  0  0  0
   14.8370   -4.3250   20.0440 N   0  0  0  0  0  0  0  0  0  0  0  0
   14.9210   -5.5940   20.4740 C   0  0  0  0  0  0  0  0  0  0  0  0
   16.2500   -6.0780   20.8190 C   0  0  0  0  0  0  0  0  0  0  0  0
   14.0130   -6.3270   20.5800 O   0  0  0  0  0  0  0  0  0  0  0  0
   12.0410   -2.0380   21.3100 C   0  0  0  0  0  0  0  0  0  0  0  0
   10.8400   -1.7400   21.8020 N   0  0  0  0  0  0  0  0  0  0  0  0
   11.0170   -1.2750   22.9550 C   0  0  0  0  0  0  0  0  0  0  0  0
    7.5680   -2.9870   23.0580 C   0  0  0  0  0  0  0  0  0  0  0  0
    6.2180   -3.1560   22.3290 C   0  0  0  0  0  0  0  0  0  0  0  0
  1  2  1  0
  2  3  2  0
  2  4  1  0
  4  5  1  0
  5  6  1  0
  6  7  1  0
  7  8  1  0
  8  9  1  1
  9 10  1  0
 10 11  1  0
 11 12  2  0
 12 13  1  0
 13 14  2  0
 14 15  1  0
 14 16  1  0
 11 17  1  0
 16 17  2  0
  8 18  1  0
 18 19  2  0
 19 20  1  0
 20 21  2  0
 21 22  1  0
 22 23  1  0
 23 24  1  0
 24 25  1  0
 25 26  1  0
 26 27  1  0
 27 28  1  0
 27 29  2  0
 23 30  2  0
 30 31  1  0
 18 32  1  0
 22 32  2  0
 31 32  1  0
  7 33  1  0
  4 34  1  0
 33 34  1  0
M  END
