PAU-WEI-b9b69149-1-nitrile
     RDKit          3D

 24 26  0  0  0  0  0  0  0  0999 V2000
    6.7020   -3.6120   19.8560 C   0  0  0  0  0  0  0  0  0  0  0  0
    5.7990   -4.5140   19.9110 N   0  0  0  0  0  0  0  0  0  0  0  0
    6.6600   -2.6420   20.8310 N   0  0  0  0  0  0  0  0  0  0  0  0
    7.4610   -1.4020   20.6760 C   0  0  0  0  0  0  0  0  0  0  0  0
    8.7210   -1.3920   21.5690 C   0  0  0  0  0  0  0  0  0  0  0  0
    8.5380   -2.0060   22.8850 N   0  0  0  0  0  0  0  0  0  0  0  0
    9.6790   -2.2210   23.6670 C   0  0  2  0  0  0  0  0  0  0  0  0
   10.8290   -2.9350   23.0820 C   0  0  0  0  0  0  0  0  0  0  0  0
   11.8960   -2.3100   22.4090 C   0  0  0  0  0  0  0  0  0  0  0  0
   11.8040   -0.9870   22.7340 C   0  0  0  0  0  0  0  0  0  0  0  0
   12.9270   -0.3170   22.6710 C   0  0  0  0  0  0  0  0  0  0  0  0
   12.8890    1.0660   22.9920 C   0  0  0  0  0  0  0  0  0  0  0  0
   11.7000    2.0220   23.4370 C   0  0  0  0  0  0  0  0  0  0  0  0
   10.6130    0.9990   23.4170 C   0  0  0  0  0  0  0  0  0  0  0  0
   10.6740   -0.4410   23.0780 C   0  0  0  0  0  0  0  0  0  0  0  0
    9.0250   -2.9360   24.8110 C   0  0  0  0  0  0  0  0  0  0  0  0
    7.8800   -2.3370   25.5830 C   0  0  0  0  0  0  0  0  0  0  0  0
    7.2120   -3.0610   26.7230 C   0  0  0  0  0  0  0  0  0  0  0  0
    7.8610   -4.3520   26.8950 C   0  0  0  0  0  0  0  0  0  0  0  0
    8.8680   -5.0110   26.2980 C   0  0  0  0  0  0  0  0  0  0  0  0
    9.3650   -6.5010   26.7430 Cl  0  0  0  0  0  0  0  0  0  0  0  0
    9.4920   -4.3660   25.2550 C   0  0  0  0  0  0  0  0  0  0  0  0
    7.6740   -3.2170   22.8430 C   0  0  0  0  0  0  0  0  0  0  0  0
    6.4540   -3.0750   22.2030 C   0  0  0  0  0  0  0  0  0  0  0  0
  1  2  2  3
  1  3  1  0
  3  4  1  0
  4  5  1  0
  5  6  1  0
  6  7  1  0
  7  8  1  6
  8  9  1  0
  9 10  1  0
 10 11  2  0
 11 12  1  0
 12 13  2  0
 13 14  1  0
 10 15  1  0
 14 15  2  0
  7 16  1  0
 16 17  2  0
 17 18  1  0
 18 19  2  0
 19 20  1  0
 20 21  1  0
 16 22  1  0
 20 22  2  0
  6 23  1  0
  3 24  1  0
 23 24  1  0
M  END
