PAU-WEI-3e86dfd8-2-chloroacetamide
     RDKit          3D

 23 25  0  0  0  0  0  0  0  0999 V2000
    7.1950   -2.9940   18.8090 C   0  0  0  0  0  0  0  0  0  0  0  0
    6.2150   -3.3360   19.8930 C   0  0  0  0  0  0  0  0  0  0  0  0
    5.2820   -4.1160   19.7120 O   0  0  0  0  0  0  0  0  0  0  0  0
    6.4180   -2.7560   21.1360 N   0  0  0  0  0  0  0  0  0  0  0  0
    6.2060   -3.4940   22.3880 C   0  0  0  0  0  0  0  0  0  0  0  0
    7.5090   -3.6960   23.1770 C   0  0  0  0  0  0  0  0  0  0  0  0
    8.1690   -2.4010   23.3510 N   0  0  0  0  0  0  0  0  0  0  0  0
    9.1870   -2.2900   24.3900 C   0  0  2  0  0  0  0  0  0  0  0  0
   10.4590   -1.6170   23.8930 C   0  0  0  0  0  0  0  0  0  0  0  0
   10.8430   -0.3500   24.6170 C   0  0  0  0  0  0  0  0  0  0  0  0
   11.9840    0.3510   24.1860 C   0  0  0  0  0  0  0  0  0  0  0  0
   12.7530   -0.0870   23.1390 C   0  0  0  0  0  0  0  0  0  0  0  0
   12.3950   -1.2470   22.4860 C   0  0  0  0  0  0  0  0  0  0  0  0
   13.3440   -1.7600   21.1880 Cl  0  0  0  0  0  0  0  0  0  0  0  0
   11.2760   -2.0010   22.8510 C   0  0  0  0  0  0  0  0  0  0  0  0
    9.1120   -3.5680   25.2470 C   0  0  0  0  0  0  0  0  0  0  0  0
    9.8030   -4.7670   25.2580 C   0  0  0  0  0  0  0  0  0  0  0  0
    9.3750   -5.6570   26.2190 C   0  0  0  0  0  0  0  0  0  0  0  0
    8.3160   -5.1890   27.0120 C   0  0  0  0  0  0  0  0  0  0  0  0
    7.3660   -6.0010   28.4380 Br  0  0  0  0  0  0  0  0  0  0  0  0
    7.8870   -3.6340   26.5270 S   0  0  0  0  0  0  0  0  0  0  0  0
    8.5090   -1.7630   22.0740 C   0  0  0  0  0  0  0  0  0  0  0  0
    7.2620   -1.5440   21.2080 C   0  0  0  0  0  0  0  0  0  0  0  0
  1  2  1  0
  2  3  2  0
  2  4  1  0
  4  5  1  0
  5  6  1  0
  6  7  1  0
  7  8  1  0
  8  9  1  6
  9 10  2  0
 10 11  1  0
 11 12  2  0
 12 13  1  0
 13 14  1  0
  9 15  1  0
 13 15  2  0
  8 16  1  0
 16 17  2  0
 17 18  1  0
 18 19  2  0
 19 20  1  0
 16 21  1  0
 19 21  1  0
  7 22  1  0
  4 23  1  0
 22 23  1  0
M  END
