PAU-WEI-b9b69149-6-chloroacetamide
     RDKit          3D

 27 29  0  0  0  0  0  0  0  0999 V2000
    7.4740   -3.0510   18.9280 C   0  0  0  0  0  0  0  0  0  0  0  0
    6.4150   -3.3260   19.9640 C   0  0  0  0  0  0  0  0  0  0  0  0
    5.4680   -4.1030   19.7800 O   0  0  0  0  0  0  0  0  0  0  0  0
    6.5780   -2.6460   21.1770 N   0  0  0  0  0  0  0  0  0  0  0  0
    7.3950   -1.4300   21.3220 C   0  0  0  0  0  0  0  0  0  0  0  0
    8.7530   -1.7350   22.0030 C   0  0  0  0  0  0  0  0  0  0  0  0
    8.6340   -2.4480   23.2890 N   0  0  0  0  0  0  0  0  0  0  0  0
    9.4930   -2.1850   24.3920 C   0  0  1  0  0  0  0  0  0  0  0  0
   10.2870   -3.2310   24.8740 C   0  0  0  0  0  0  0  0  0  0  0  0
    9.5930   -4.0430   25.8030 C   0  0  0  0  0  0  0  0  0  0  0  0
    8.6760   -4.6690   25.0280 C   0  0  0  0  0  0  0  0  0  0  0  0
    9.3330   -5.2760   23.9200 C   0  0  0  0  0  0  0  0  0  0  0  0
    8.4180   -6.0080   22.9350 C   0  0  0  0  0  0  0  0  0  0  0  0
    6.9760   -6.0440   23.1830 C   0  0  0  0  0  0  0  0  0  0  0  0
    6.0900   -6.7720   22.2040 C   0  0  0  0  0  0  0  0  0  0  0  0
    6.3710   -5.3680   24.4070 C   0  0  0  0  0  0  0  0  0  0  0  0
    7.3030   -4.6920   25.2920 C   0  0  0  0  0  0  0  0  0  0  0  0
   10.4760   -1.2790   24.0460 C   0  0  0  0  0  0  0  0  0  0  0  0
   10.7640    0.0700   24.5790 C   0  0  0  0  0  0  0  0  0  0  0  0
   11.7990    0.8630   24.1260 C   0  0  0  0  0  0  0  0  0  0  0  0
   12.6640    0.5050   23.1800 C   0  0  0  0  0  0  0  0  0  0  0  0
   12.5700   -0.6900   22.5740 C   0  0  0  0  0  0  0  0  0  0  0  0
   13.5060   -0.9810   21.6190 C   0  0  0  0  0  0  0  0  0  0  0  0
   13.3030   -2.0700   20.8640 N   0  0  0  0  0  0  0  0  0  0  0  0
   11.5290   -1.5570   22.9540 C   0  0  0  0  0  0  0  0  0  0  0  0
    7.2340   -2.7640   23.5810 C   0  0  0  0  0  0  0  0  0  0  0  0
    6.5340   -3.4480   22.3920 C   0  0  0  0  0  0  0  0  0  0  0  0
  1  2  1  0
  2  3  2  0
  2  4  1  0
  4  5  1  0
  5  6  1  0
  6  7  1  0
  7  8  1  0
  8  9  1  6
  9 10  1  0
 10 11  1  0
 11 12  2  0
 12 13  1  0
 13 14  2  0
 14 15  1  0
 14 16  1  0
 11 17  1  0
 16 17  2  0
  8 18  1  0
 18 19  2  0
 19 20  1  0
 20 21  2  0
 21 22  1  0
 22 23  1  0
 23 24  3  0
 18 25  1  0
 22 25  2  0
  7 26  1  0
  4 27  1  0
 26 27  1  0
M  END
