PAU-UNI-6d15a9f5-3
     RDKit          3D

 25 28  0  0  0  0  0  0  0  0999 V2000
   11.3260   -0.7400   -4.5090 C   0  0  0  0  0  0  0  0  0  0  0  0
    9.9370   -0.8690   -4.8920 N   0  0  0  0  0  0  0  0  0  0  0  0
    9.3070   -0.2710   -5.9970 C   0  0  0  0  0  0  0  0  0  0  0  0
    7.8510   -0.7020   -5.9440 C   0  0  0  0  0  0  0  0  0  0  0  0
    7.8700   -1.5740   -4.7710 C   0  0  0  0  0  0  0  0  0  0  0  0
    9.1660   -1.6470   -4.1040 N   0  0  0  0  0  0  0  0  0  0  0  0
    6.5830   -2.2180   -4.4930 C   0  0  0  0  0  0  0  0  0  0  0  0
    6.6020   -2.5940   -3.1040 O   0  0  0  0  0  0  0  0  0  0  0  0
    5.6370   -2.3710   -5.6310 N   0  0  0  0  0  0  0  0  0  0  0  0
    5.7420   -3.6880   -6.1760 C   0  0  0  0  0  0  0  0  0  0  0  0
    4.7740   -3.9920   -7.1460 C   0  0  2  0  0  0  0  0  0  0  0  0
    3.6070   -3.2520   -7.0260 C   0  0  0  0  0  0  0  0  0  0  0  0
    2.5120   -4.0390   -7.3340 C   0  0  0  0  0  0  0  0  0  0  0  0
    2.9710   -5.2930   -7.7040 C   0  0  0  0  0  0  0  0  0  0  0  0
    4.3030   -5.2850   -7.1650 O   0  0  0  0  0  0  0  0  0  0  0  0
    5.7390   -1.5070   -6.7540 C   0  0  0  0  0  0  0  0  0  0  0  0
    6.7390   -0.4710   -6.6730 N   0  0  0  0  0  0  0  0  0  0  0  0
    6.2580    0.8030   -7.1830 C   0  0  0  0  0  0  0  0  0  0  0  0
    5.5420    0.5540   -8.3400 C   0  0  0  0  0  0  0  0  0  0  0  0
    5.5380   -0.8840   -8.7470 C   0  0  0  0  0  0  0  0  0  0  0  0
    4.5430   -1.4280   -9.5950 C   0  0  0  0  0  0  0  0  0  0  0  0
    4.5240   -2.7800   -9.9970 C   0  0  0  0  0  0  0  0  0  0  0  0
    5.5000   -3.7070   -9.5850 C   0  0  0  0  0  0  0  0  0  0  0  0
    6.6020   -3.2200   -8.6770 C   0  0  0  0  0  0  0  0  0  0  0  0
    6.5660   -1.7280   -8.2710 C   0  0  0  0  0  0  0  0  0  0  0  0
  1  2  1  0
  2  3  1  0
  3  4  2  0
  4  5  1  0
  2  6  1  0
  5  6  2  0
  5  7  1  0
  7  8  2  0
  7  9  1  0
  9 10  1  0
 11 10  1  1
 11 12  1  0
 12 13  1  0
 13 14  1  0
 11 15  1  0
 14 15  1  0
  9 16  1  0
  4 17  1  0
 16 17  1  0
 17 18  1  0
 18 19  1  0
 19 20  1  0
 20 21  2  0
 21 22  1  0
 22 23  2  0
 23 24  1  0
 20 25  1  0
 24 25  2  0
M  END
