PAU-UNI-b6a619a1-1-chloroacetamide
     RDKit          3D

 30 33  0  0  0  0  0  0  0  0999 V2000
    7.1200   -3.2190   19.3770 C   0  0  0  0  0  0  0  0  0  0  0  0
    6.2210   -4.0480   20.2340 C   0  0  0  0  0  0  0  0  0  0  0  0
    5.1480   -4.4460   19.8340 O   0  0  0  0  0  0  0  0  0  0  0  0
    6.6260   -4.4460   21.5000 N   0  0  0  0  0  0  0  0  0  0  0  0
    5.9290   -5.5190   22.2070 C   0  0  0  0  0  0  0  0  0  0  0  0
    6.7070   -6.1940   23.1320 C   0  0  0  0  0  0  0  0  0  0  0  0
    7.5240   -5.3660   23.9070 C   0  0  0  0  0  0  0  0  0  0  0  0
    8.2280   -4.4530   23.1730 C   0  0  2  0  0  0  0  0  0  0  0  0
    9.4320   -3.7620   23.7930 C   0  0  0  0  0  0  0  0  0  0  0  0
   10.4830   -4.4870   24.5190 N   0  0  0  0  0  0  0  0  0  0  0  0
   11.4150   -3.4580   24.8090 C   0  0  0  0  0  0  0  0  0  0  0  0
   12.7520   -3.4120   25.4770 C   0  0  0  0  0  0  0  0  0  0  0  0
   13.5310   -2.1400   25.6120 C   0  0  0  0  0  0  0  0  0  0  0  0
   12.8780   -0.9850   25.0720 C   0  0  0  0  0  0  0  0  0  0  0  0
   11.6510   -1.0780   24.4860 C   0  0  0  0  0  0  0  0  0  0  0  0
   10.9850   -2.2480   24.3660 C   0  0  0  0  0  0  0  0  0  0  0  0
    9.7120   -2.4550   23.7490 N   0  0  0  0  0  0  0  0  0  0  0  0
    9.0580   -1.3590   23.2380 C   0  0  0  0  0  0  0  0  0  0  0  0
    9.7420   -0.6600   22.2570 C   0  0  0  0  0  0  0  0  0  0  0  0
    8.7930    0.2630   21.5660 C   0  0  0  0  0  0  0  0  0  0  0  0
    8.9970    1.7900   21.5810 C   0  0  0  0  0  0  0  0  0  0  0  0
    7.8040   -0.4390   20.9940 N   0  0  0  0  0  0  0  0  0  0  0  0
    6.9010    0.0500   20.1570 C   0  0  0  0  0  0  0  0  0  0  0  0
    7.0380   -0.0520   18.6730 C   0  0  0  0  0  0  0  0  0  0  0  0
    6.2110    0.4150   17.7200 N   0  0  0  0  0  0  0  0  0  0  0  0
    5.1410    1.0360   18.2010 C   0  0  0  0  0  0  0  0  0  0  0  0
    4.8800    1.1940   19.6780 C   0  0  0  0  0  0  0  0  0  0  0  0
    5.7470    0.7070   20.6360 C   0  0  0  0  0  0  0  0  0  0  0  0
    5.4740    0.8720   22.1290 C   0  0  0  0  0  0  0  0  0  0  0  0
    7.4710   -3.6150   22.3630 C   0  0  0  0  0  0  0  0  0  0  0  0
  1  2  1  0
  2  3  2  0
  2  4  1  0
  4  5  1  0
  5  6  1  0
  6  7  1  0
  7  8  1  0
  8  9  1  1
  9 10  2  0
 10 11  1  0
 11 12  2  0
 12 13  1  0
 13 14  2  0
 14 15  1  0
 11 16  1  0
 15 16  2  0
  9 17  1  0
 16 17  1  0
 17 18  1  0
 18 19  1  0
 19 20  1  0
 20 21  2  3
 20 22  1  0
 22 23  1  0
 23 24  2  0
 24 25  1  0
 25 26  2  0
 26 27  1  0
 23 28  1  0
 27 28  2  0
 28 29  1  0
  4 30  1  0
  8 30  1  0
M  END
