PAU-WEI-b9b69149-4-acrylamide
     RDKit          3D

 27 29  0  0  0  0  0  0  0  0999 V2000
    8.0170   -3.4340   19.7470 C   0  0  0  0  0  0  0  0  0  0  0  0
    6.9160   -2.6570   19.0960 C   0  0  0  0  0  0  0  0  0  0  0  0
    5.8370   -3.0390   20.0220 C   0  0  0  0  0  0  0  0  0  0  0  0
    5.0490   -3.9400   19.7280 O   0  0  0  0  0  0  0  0  0  0  0  0
    5.8660   -2.3920   21.2420 N   0  0  0  0  0  0  0  0  0  0  0  0
    6.7680   -1.2050   21.3300 C   0  0  0  0  0  0  0  0  0  0  0  0
    8.0910   -1.4140   21.9390 C   0  0  0  0  0  0  0  0  0  0  0  0
    8.0650   -2.2890   23.1150 N   0  0  0  0  0  0  0  0  0  0  0  0
    9.1580   -2.4920   23.9560 C   0  0  2  0  0  0  0  0  0  0  0  0
    8.9060   -2.6620   25.3310 C   0  0  0  0  0  0  0  0  0  0  0  0
    7.9060   -3.6010   25.2920 C   0  0  0  0  0  0  0  0  0  0  0  0
    7.4270   -3.9640   26.5580 C   0  0  0  0  0  0  0  0  0  0  0  0
    7.9630   -5.3300   27.0110 C   0  0  0  0  0  0  0  0  0  0  0  0
    7.4960   -5.8180   28.3240 C   0  0  0  0  0  0  0  0  0  0  0  0
    6.5180   -4.9490   29.1520 C   0  0  0  0  0  0  0  0  0  0  0  0
    6.0680   -3.6430   28.6310 C   0  0  0  0  0  0  0  0  0  0  0  0
    6.5520   -3.2040   27.3320 C   0  0  0  0  0  0  0  0  0  0  0  0
   10.3930   -1.5860   23.6810 C   0  0  0  0  0  0  0  0  0  0  0  0
   10.6930   -0.3000   24.4100 C   0  0  0  0  0  0  0  0  0  0  0  0
   11.8070    0.4640   24.1000 C   0  0  0  0  0  0  0  0  0  0  0  0
   12.6980    0.0970   23.1300 C   0  0  0  0  0  0  0  0  0  0  0  0
   12.5570   -1.0570   22.3810 C   0  0  0  0  0  0  0  0  0  0  0  0
   13.4730   -1.3850   21.4170 C   0  0  0  0  0  0  0  0  0  0  0  0
   13.2750   -2.6250   20.9060 N   0  0  0  0  0  0  0  0  0  0  0  0
   11.4630   -1.9050   22.6040 C   0  0  0  0  0  0  0  0  0  0  0  0
    7.2830   -3.5110   22.9210 C   0  0  0  0  0  0  0  0  0  0  0  0
    5.8610   -3.1700   22.4750 C   0  0  0  0  0  0  0  0  0  0  0  0
  1  2  1  0
  2  3  1  0
  3  4  2  0
  3  5  1  0
  5  6  1  0
  6  7  1  0
  7  8  1  0
  8  9  1  0
  9 10  1  1
 10 11  1  0
 11 12  1  0
 12 13  2  0
 13 14  1  0
 14 15  2  0
 15 16  1  0
 12 17  1  0
 16 17  2  0
  9 18  1  0
 18 19  2  0
 19 20  1  0
 20 21  2  0
 21 22  1  0
 22 23  1  0
 23 24  3  0
 18 25  1  0
 22 25  2  0
  8 26  1  0
  5 27  1  0
 26 27  1  0
M  END
