PAU-WEI-3e86dfd8-1-acrylamide
     RDKit          3D

 28 31  0  0  0  0  0  0  0  0999 V2000
    7.9560   -3.4980   19.6920 C   0  0  0  0  0  0  0  0  0  0  0  0
    6.9130   -2.6700   19.0060 C   0  0  0  0  0  0  0  0  0  0  0  0
    5.7710   -2.8270   19.9380 C   0  0  0  0  0  0  0  0  0  0  0  0
    4.7810   -3.4470   19.6070 O   0  0  0  0  0  0  0  0  0  0  0  0
    5.9460   -2.2730   21.1900 N   0  0  0  0  0  0  0  0  0  0  0  0
    5.7660   -3.0500   22.4200 C   0  0  0  0  0  0  0  0  0  0  0  0
    7.0970   -3.3290   23.1460 C   0  0  0  0  0  0  0  0  0  0  0  0
    7.8880   -2.1100   23.4060 N   0  0  0  0  0  0  0  0  0  0  0  0
    9.2050   -2.4830   23.9360 C   0  0  2  0  0  0  0  0  0  0  0  0
    9.0170   -3.5520   25.0320 C   0  0  0  0  0  0  0  0  0  0  0  0
    9.7080   -4.7750   25.1380 C   0  0  0  0  0  0  0  0  0  0  0  0
    9.3020   -5.5710   26.1850 C   0  0  0  0  0  0  0  0  0  0  0  0
    8.2800   -5.0040   26.9410 C   0  0  0  0  0  0  0  0  0  0  0  0
    7.4150   -5.7750   28.4440 Br  0  0  0  0  0  0  0  0  0  0  0  0
    7.8440   -3.4680   26.3510 S   0  0  0  0  0  0  0  0  0  0  0  0
   10.1350   -1.4150   23.7120 C   0  0  0  0  0  0  0  0  0  0  0  0
   11.2540   -1.6980   22.9770 C   0  0  0  0  0  0  0  0  0  0  0  0
   12.1850   -0.7740   22.6350 C   0  0  0  0  0  0  0  0  0  0  0  0
   13.4300   -1.5030   21.6770 Cl  0  0  0  0  0  0  0  0  0  0  0  0
   12.1020    0.5130   22.9860 C   0  0  0  0  0  0  0  0  0  0  0  0
   11.0420    0.9510   23.7150 C   0  0  0  0  0  0  0  0  0  0  0  0
   10.9980    2.3320   24.0150 C   0  0  0  0  0  0  0  0  0  0  0  0
    9.8660    2.9620   24.8190 C   0  0  0  0  0  0  0  0  0  0  0  0
    8.7850    2.0010   25.2920 C   0  0  0  0  0  0  0  0  0  0  0  0
    8.8390    0.5070   24.9540 C   0  0  0  0  0  0  0  0  0  0  0  0
   10.0170   -0.0200   24.1210 C   0  0  0  0  0  0  0  0  0  0  0  0
    8.0510   -1.3200   22.1630 C   0  0  0  0  0  0  0  0  0  0  0  0
    6.7410   -1.0520   21.3920 C   0  0  0  0  0  0  0  0  0  0  0  0
  1  2  1  0
  2  3  1  0
  3  4  2  0
  3  5  1  0
  5  6  1  0
  6  7  1  0
  7  8  1  0
  8  9  1  0
  9 10  1  1
 10 11  2  0
 11 12  1  0
 12 13  2  0
 13 14  1  0
 10 15  1  0
 13 15  1  0
  9 16  1  0
 16 17  2  0
 17 18  1  0
 18 19  1  0
 18 20  2  0
 20 21  1  0
 21 22  1  0
 22 23  2  0
 23 24  1  0
 24 25  2  0
 16 26  1  0
 21 26  2  0
 25 26  1  0
  8 27  1  0
  5 28  1  0
 27 28  1  0
M  END
