PAU-UNI-52c0427f-1-nitrile
     RDKit          3D

 20 21  0  0  0  0  0  0  0  0999 V2000
    6.6690   -3.7380   19.9070 C   0  0  0  0  0  0  0  0  0  0  0  0
    5.7850   -4.6550   19.9390 N   0  0  0  0  0  0  0  0  0  0  0  0
    6.6670   -2.8110   20.9090 N   0  0  0  0  0  0  0  0  0  0  0  0
    7.3880   -1.5250   20.9120 C   0  0  0  0  0  0  0  0  0  0  0  0
    8.6980   -1.8450   21.7210 C   0  0  0  0  0  0  0  0  0  0  0  0
    8.3820   -2.5440   23.0110 N   0  0  0  0  0  0  0  0  0  0  0  0
    9.6210   -2.8500   23.6940 C   0  0  0  0  0  0  0  0  0  0  0  0
   10.1980   -1.4900   23.8600 C   0  0  0  0  0  0  0  0  0  0  0  0
   11.4940   -1.5590   23.0950 C   0  0  0  0  0  0  0  0  0  0  0  0
   12.0640   -0.1330   23.2390 C   0  0  0  0  0  0  0  0  0  0  0  0
   13.3470   -0.1120   22.5100 C   0  0  0  0  0  0  0  0  0  0  0  0
   14.0310    0.9450   22.5530 N   0  0  0  0  0  0  0  0  0  0  0  0
   11.4570    0.9230   23.9330 C   0  0  0  0  0  0  0  0  0  0  0  0
   10.2870    0.7960   24.5590 N   0  0  0  0  0  0  0  0  0  0  0  0
    9.6620   -0.3890   24.5380 C   0  0  0  0  0  0  0  0  0  0  0  0
    8.4330   -0.5040   25.2080 N   0  0  0  0  0  0  0  0  0  0  0  0
    8.1650    0.5700   26.1700 C   0  0  0  0  0  0  0  0  0  0  0  0
    9.0820    0.3070   27.3560 C   0  0  0  0  0  0  0  0  0  0  0  0
    7.5610   -3.6620   22.9180 C   0  0  0  0  0  0  0  0  0  0  0  0
    6.2730   -3.2560   22.2340 C   0  0  0  0  0  0  0  0  0  0  0  0
  1  2  2  3
  1  3  1  0
  3  4  1  0
  4  5  1  0
  5  6  1  0
  6  7  1  0
  7  8  1  0
  8  9  2  0
  9 10  1  0
 10 11  1  0
 11 12  3  0
 10 13  2  0
 13 14  1  0
  8 15  1  0
 14 15  2  0
 15 16  1  0
 16 17  1  0
 17 18  1  0
  6 19  1  0
  3 20  1  0
 19 20  1  0
M  END
