PAU-WEI-f734c343-3-acrylamide
     RDKit          3D

 28 30  0  0  0  0  0  0  0  0999 V2000
    7.9110   -3.2450   19.0390 C   0  0  0  0  0  0  0  0  0  0  0  0
    6.7170   -2.3570   18.8680 C   0  0  0  0  0  0  0  0  0  0  0  0
    5.8010   -2.6010   20.0210 C   0  0  0  0  0  0  0  0  0  0  0  0
    4.7930   -3.2500   19.8310 O   0  0  0  0  0  0  0  0  0  0  0  0
    6.1670   -2.1280   21.2760 N   0  0  0  0  0  0  0  0  0  0  0  0
    7.2490   -1.1580   21.3900 C   0  0  0  0  0  0  0  0  0  0  0  0
    8.5690   -1.8470   21.7170 C   0  0  0  0  0  0  0  0  0  0  0  0
    8.4800   -2.7090   22.9080 N   0  0  0  0  0  0  0  0  0  0  0  0
    8.9290   -2.2530   24.1350 C   0  0  1  0  0  0  0  0  0  0  0  0
    8.8530   -3.4170   25.1260 C   0  0  0  0  0  0  0  0  0  0  0  0
    9.7290   -4.6180   24.9440 C   0  0  0  0  0  0  0  0  0  0  0  0
    9.4110   -5.6300   26.0350 C   0  0  0  0  0  0  0  0  0  0  0  0
    8.2980   -5.0280   26.9150 C   0  0  0  0  0  0  0  0  0  0  0  0
    7.4800   -5.8580   28.4100 Br  0  0  0  0  0  0  0  0  0  0  0  0
    7.7700   -3.4430   26.4470 S   0  0  0  0  0  0  0  0  0  0  0  0
   10.1940   -1.3560   23.9360 C   0  0  0  0  0  0  0  0  0  0  0  0
   11.2290   -1.9010   23.0780 C   0  0  0  0  0  0  0  0  0  0  0  0
   12.4140   -1.2170   22.7830 C   0  0  0  0  0  0  0  0  0  0  0  0
   13.3800   -1.9550   21.9140 C   0  0  0  0  0  0  0  0  0  0  0  0
   13.6810   -1.2960   20.6810 N   0  0  0  0  0  0  0  0  0  0  0  0
   12.5300    0.1320   23.4020 C   0  0  0  0  0  0  0  0  0  0  0  0
   11.6560    0.5460   24.1020 N   0  0  0  0  0  0  0  0  0  0  0  0
   10.4990   -0.0960   24.4240 C   0  0  0  0  0  0  0  0  0  0  0  0
    9.6230    0.5080   25.2240 N   0  0  0  0  0  0  0  0  0  0  0  0
    9.3260    1.7980   24.9110 C   0  0  0  0  0  0  0  0  0  0  0  0
   10.3100    2.7880   24.2810 C   0  0  0  0  0  0  0  0  0  0  0  0
    7.2760   -3.5780   23.0000 C   0  0  0  0  0  0  0  0  0  0  0  0
    5.9840   -3.0140   22.4570 C   0  0  0  0  0  0  0  0  0  0  0  0
  1  2  1  0
  2  3  1  0
  3  4  2  0
  3  5  1  0
  5  6  1  0
  6  7  1  0
  7  8  1  0
  8  9  1  0
  9 10  1  1
 10 11  2  0
 11 12  1  0
 12 13  2  0
 13 14  1  0
 10 15  1  0
 13 15  1  0
  9 16  1  0
 16 17  2  0
 17 18  1  0
 18 19  1  0
 19 20  3  0
 18 21  2  0
 21 22  1  0
 16 23  1  0
 22 23  2  0
 23 24  1  0
 24 25  1  0
 25 26  1  0
  8 27  1  0
  5 28  1  0
 27 28  1  0
M  END
