PAU-UNI-d269d79c-3
     RDKit          3D

 28 31  0  0  0  0  0  0  0  0999 V2000
   -1.9890  -10.1530   21.4870 C   0  0  0  0  0  0  0  0  0  0  0  0
   -2.1710   -8.6730   21.2090 C   0  0  0  0  0  0  0  0  0  0  0  0
   -3.3720   -7.9850   21.8350 C   0  0  0  0  0  0  0  0  0  0  0  0
   -3.5870   -6.6300   21.6240 C   0  0  0  0  0  0  0  0  0  0  0  0
   -4.5740   -6.0710   22.1570 O   0  0  0  0  0  0  0  0  0  0  0  0
   -4.3270   -4.6650   22.4890 C   0  0  0  0  0  0  0  0  0  0  0  0
   -3.5070   -3.8920   21.7150 C   0  0  0  0  0  0  0  0  0  0  0  0
   -2.9210   -4.4700   20.6130 C   0  0  0  0  0  0  0  0  0  0  0  0
   -2.6510   -3.6780   19.4530 O   0  0  0  0  0  0  0  0  0  0  0  0
   -2.6550   -5.9620   20.8080 C   0  0  0  0  0  0  0  0  0  0  0  0
   -1.4020   -6.5540   20.1080 C   0  0  0  0  0  0  0  0  0  0  0  0
   -1.2360   -8.0420   20.4070 C   0  0  0  0  0  0  0  0  0  0  0  0
    0.0870   -8.9280   19.7730 Cl  0  0  0  0  0  0  0  0  0  0  0  0
   -3.3110   -2.5710   22.1510 C   0  0  1  0  0  0  0  0  0  0  0  0
   -3.7160   -1.3520   21.2970 C   0  0  0  0  0  0  0  0  0  0  0  0
   -5.1410   -1.2940   20.7400 C   0  0  0  0  0  0  0  0  0  0  0  0
   -5.4930   -0.0580   19.9080 C   0  0  0  0  0  0  0  0  0  0  0  0
   -4.5100    0.9180   19.7210 C   0  0  0  0  0  0  0  0  0  0  0  0
   -4.9220    2.4580   18.7010 Br  0  0  0  0  0  0  0  0  0  0  0  0
   -3.2170    0.7950   20.2640 C   0  0  0  0  0  0  0  0  0  0  0  0
   -2.8260   -0.3020   21.0280 C   0  0  0  0  0  0  0  0  0  0  0  0
   -4.1480   -2.6290   23.3760 N   0  0  0  0  0  0  0  0  0  0  0  0
   -3.9380   -1.7110   24.4940 C   0  0  0  0  0  0  0  0  0  0  0  0
   -2.8060   -2.0570   25.2370 C   0  0  0  0  0  0  0  0  0  0  0  0
   -2.4660   -1.2110   26.2880 C   0  0  0  0  0  0  0  0  0  0  0  0
   -1.1060   -1.4230   26.6940 O   0  0  0  0  0  0  0  0  0  0  0  0
   -4.8210   -3.9390   23.5510 C   0  0  0  0  0  0  0  0  0  0  0  0
   -5.7480   -4.3690   24.5570 O   0  0  0  0  0  0  0  0  0  0  0  0
  1  2  1  0
  2  3  2  0
  3  4  1  0
  4  5  1  0
  5  6  1  0
  6  7  2  0
  7  8  1  0
  8  9  2  0
  4 10  2  0
  8 10  1  0
 10 11  1  0
  2 12  1  0
 11 12  2  0
 12 13  1  0
  7 14  1  0
 14 15  1  6
 15 16  2  0
 16 17  1  0
 17 18  2  0
 18 19  1  0
 18 20  1  0
 15 21  1  0
 20 21  2  0
 14 22  1  0
 22 23  1  0
 23 24  1  0
 24 25  1  0
 25 26  1  0
  6 27  1  0
 22 27  1  0
 27 28  2  0
M  END
