PAU-WEI-b9b69149-7-vinylsulfonamide
     RDKit          3D

 35 38  0  0  0  0  0  0  0  0999 V2000
    6.9390   -3.0800   18.9370 C   0  0  0  0  0  0  0  0  0  0  0  0
    5.7820   -3.6880   19.7360 C   0  0  0  0  0  0  0  0  0  0  0  0
    6.0000   -3.5410   21.4750 S   0  0  0  0  0  0  0  0  0  0  0  0
    4.8210   -4.1190   22.0670 O   0  0  0  0  0  0  0  0  0  0  0  0
    7.3220   -3.9890   21.8840 O   0  0  0  0  0  0  0  0  0  0  0  0
    5.8090   -1.8730   21.6790 N   0  0  0  0  0  0  0  0  0  0  0  0
    6.8050   -0.9380   21.1370 C   0  0  0  0  0  0  0  0  0  0  0  0
    7.9980   -0.8130   22.0850 C   0  0  0  0  0  0  0  0  0  0  0  0
    7.5830   -0.3220   23.4030 N   0  0  0  0  0  0  0  0  0  0  0  0
    8.4860   -0.0150   24.4410 C   0  0  1  0  0  0  0  0  0  0  0  0
    8.7940   -0.9940   25.3960 C   0  0  0  0  0  0  0  0  0  0  0  0
    7.7120   -1.4070   26.2170 C   0  0  0  0  0  0  0  0  0  0  0  0
    7.9000   -2.7510   26.4960 C   0  0  0  0  0  0  0  0  0  0  0  0
    7.5030   -3.0420   27.8350 C   0  0  0  0  0  0  0  0  0  0  0  0
    7.6610   -4.5150   28.2960 C   0  0  0  0  0  0  0  0  0  0  0  0
    8.1930   -5.5620   27.4150 C   0  0  0  0  0  0  0  0  0  0  0  0
    8.5870   -5.1480   26.0000 C   0  0  0  0  0  0  0  0  0  0  0  0
    8.4130   -3.7310   25.6090 C   0  0  0  0  0  0  0  0  0  0  0  0
    9.8600    0.3370   23.8880 C   0  0  0  0  0  0  0  0  0  0  0  0
   10.6050    1.6290   24.0880 C   0  0  0  0  0  0  0  0  0  0  0  0
   11.9860    1.8180   23.5020 C   0  0  0  0  0  0  0  0  0  0  0  0
   12.5580    0.8060   22.7940 C   0  0  0  0  0  0  0  0  0  0  0  0
   11.8600   -0.3560   22.5880 C   0  0  0  0  0  0  0  0  0  0  0  0
   12.2130   -1.4790   21.8890 C   0  0  0  0  0  0  0  0  0  0  0  0
   13.3330   -1.8270   21.2140 C   0  0  0  0  0  0  0  0  0  0  0  0
   13.2270   -3.1980   20.9710 C   0  0  0  0  0  0  0  0  0  0  0  0
   14.1290   -3.9380   20.2380 N   0  0  0  0  0  0  0  0  0  0  0  0
   15.0730   -4.9430   20.7380 C   0  0  0  0  0  0  0  0  0  0  0  0
   15.5280   -5.9750   19.8940 C   0  0  0  0  0  0  0  0  0  0  0  0
   15.6020   -5.0450   21.8010 O   0  0  0  0  0  0  0  0  0  0  0  0
   11.1870   -2.3060   21.9520 C   0  0  0  0  0  0  0  0  0  0  0  0
   10.2030   -1.7830   22.6930 N   0  0  0  0  0  0  0  0  0  0  0  0
   10.5790   -0.5560   23.1090 C   0  0  0  0  0  0  0  0  0  0  0  0
    6.4010   -1.0140   23.8180 C   0  0  0  0  0  0  0  0  0  0  0  0
    5.4190   -1.1070   22.8580 C   0  0  0  0  0  0  0  0  0  0  0  0
  1  2  1  0
  3  2  1  0
  3  4  2  0
  3  5  2  0
  3  6  1  0
  6  7  1  0
  7  8  1  0
  8  9  1  0
  9 10  1  0
 10 11  1  1
 11 12  1  0
 12 13  1  0
 13 14  2  0
 14 15  1  0
 15 16  2  0
 16 17  1  0
 13 18  1  0
 17 18  2  0
 10 19  1  0
 19 20  2  0
 20 21  1  0
 21 22  2  0
 22 23  1  0
 23 24  1  0
 24 25  1  0
 25 26  1  0
 26 27  1  0
 27 28  1  0
 28 29  1  0
 28 30  2  0
 24 31  2  0
 31 32  1  0
 19 33  1  0
 23 33  2  0
 32 33  1  0
  9 34  1  0
  6 35  1  0
 34 35  1  0
M  END
