PAU-UNI-52c0427f-1-vinylsulfonamide
     RDKit          3D

 23 24  0  0  0  0  0  0  0  0999 V2000
    7.2330   -3.3330   19.6810 C   0  0  0  0  0  0  0  0  0  0  0  0
    5.7970   -2.7640   19.7530 C   0  0  0  0  0  0  0  0  0  0  0  0
    5.4350   -2.2710   21.4210 S   0  0  0  0  0  0  0  0  0  0  0  0
    4.3830   -3.1010   21.9480 O   0  0  0  0  0  0  0  0  0  0  0  0
    5.3640   -0.8280   21.4780 O   0  0  0  0  0  0  0  0  0  0  0  0
    6.7110   -2.7890   22.3320 N   0  0  0  0  0  0  0  0  0  0  0  0
    6.2750   -3.6690   23.4110 C   0  0  0  0  0  0  0  0  0  0  0  0
    7.5790   -4.2790   23.9040 C   0  0  0  0  0  0  0  0  0  0  0  0
    8.4500   -3.1960   24.4610 N   0  0  0  0  0  0  0  0  0  0  0  0
    9.8420   -3.2380   24.0100 C   0  0  0  0  0  0  0  0  0  0  0  0
   10.5660   -1.9050   23.8740 C   0  0  0  0  0  0  0  0  0  0  0  0
   11.8160   -2.3160   22.8480 C   0  0  0  0  0  0  0  0  0  0  0  0
   12.4030   -0.7870   22.8390 C   0  0  0  0  0  0  0  0  0  0  0  0
   13.2640   -1.6950   21.9580 C   0  0  0  0  0  0  0  0  0  0  0  0
   13.6120   -1.5400   20.7150 N   0  0  0  0  0  0  0  0  0  0  0  0
   11.3090   -0.5210   23.7160 C   0  0  0  0  0  0  0  0  0  0  0  0
   10.8290    0.5280   24.3580 N   0  0  0  0  0  0  0  0  0  0  0  0
   10.2960   -0.6540   24.4200 C   0  0  0  0  0  0  0  0  0  0  0  0
   11.4660   -0.6430   23.6350 N   0  0  0  0  0  0  0  0  0  0  0  0
   12.7410   -0.6960   24.4160 C   0  0  0  0  0  0  0  0  0  0  0  0
   13.0480   -2.1540   24.8010 C   0  0  0  0  0  0  0  0  0  0  0  0
    7.8490   -1.8790   24.2570 C   0  0  0  0  0  0  0  0  0  0  0  0
    7.5460   -1.6860   22.7830 C   0  0  0  0  0  0  0  0  0  0  0  0
  1  2  1  0
  3  2  1  0
  3  4  2  0
  3  5  2  0
  3  6  1  0
  6  7  1  0
  7  8  1  0
  8  9  1  0
  9 10  1  0
 10 11  1  0
 11 12  2  0
 12 13  1  0
 13 14  1  0
 14 15  3  0
 13 16  2  0
 16 17  1  0
 11 18  1  0
 17 18  2  0
 18 19  1  0
 19 20  1  0
 20 21  1  0
  9 22  1  0
  6 23  1  0
 22 23  1  0
M  END
