PAU-WEI-c6d65c11-1-acrylamide
     RDKit          3D

 26 28  0  0  0  0  0  0  0  0999 V2000
    7.3490   -2.8760   18.5190 C   0  0  0  0  0  0  0  0  0  0  0  0
    6.3840   -2.6330   19.6560 C   0  0  0  0  0  0  0  0  0  0  0  0
    5.9560   -3.8920   20.3610 C   0  0  0  0  0  0  0  0  0  0  0  0
    5.1450   -4.6720   19.8730 O   0  0  0  0  0  0  0  0  0  0  0  0
    6.5650   -4.1000   21.5690 N   0  0  0  0  0  0  0  0  0  0  0  0
    6.3150   -5.3200   22.3060 C   0  0  0  0  0  0  0  0  0  0  0  0
    5.6800   -4.9310   23.6380 C   0  0  0  0  0  0  0  0  0  0  0  0
    6.5440   -3.9130   24.4180 C   0  0  2  0  0  0  0  0  0  0  0  0
    5.7280   -3.3490   25.5660 C   0  0  0  0  0  0  0  0  0  0  0  0
    4.5800   -2.9470   25.3730 O   0  0  0  0  0  0  0  0  0  0  0  0
    6.3210   -3.2980   26.8150 N   0  0  0  0  0  0  0  0  0  0  0  0
    7.6820   -3.7210   27.1000 C   0  0  0  0  0  0  0  0  0  0  0  0
    7.7320   -5.1520   27.6120 C   0  0  0  0  0  0  0  0  0  0  0  0
    6.7500   -5.3850   28.7580 C   0  0  0  0  0  0  0  0  0  0  0  0
    5.3870   -4.7050   28.6170 C   0  0  0  0  0  0  0  0  0  0  0  0
    5.4480   -3.3030   27.9820 C   0  0  0  0  0  0  0  0  0  0  0  0
    7.1160   -2.7230   23.5880 C   0  0  1  0  0  0  0  0  0  0  0  0
    8.3530   -2.2050   24.2720 C   0  0  0  0  0  0  0  0  0  0  0  0
    8.3400   -0.9550   24.9020 C   0  0  0  0  0  0  0  0  0  0  0  0
    8.7500    0.1630   24.1790 C   0  0  0  0  0  0  0  0  0  0  0  0
    9.2500    1.2810   24.8440 C   0  0  0  0  0  0  0  0  0  0  0  0
    9.6610    2.4020   24.1250 C   0  0  0  0  0  0  0  0  0  0  0  0
    9.5740    2.4170   22.7300 C   0  0  0  0  0  0  0  0  0  0  0  0
    9.0720    1.3010   22.0620 C   0  0  0  0  0  0  0  0  0  0  0  0
    8.6640    0.1800   22.7810 C   0  0  0  0  0  0  0  0  0  0  0  0
    7.4580   -3.1100   22.1570 C   0  0  0  0  0  0  0  0  0  0  0  0
  1  2  1  0
  2  3  1  0
  3  4  2  0
  3  5  1  0
  5  6  1  0
  6  7  1  0
  7  8  1  0
  8  9  1  1
  9 10  2  0
  9 11  1  0
 11 12  1  0
 12 13  1  0
 13 14  1  0
 14 15  1  0
 11 16  1  0
 15 16  1  0
  8 17  1  0
 17 18  1  1
 18 19  1  0
 19 20  1  0
 20 21  2  0
 21 22  1  0
 22 23  2  0
 23 24  1  0
 20 25  1  0
 24 25  2  0
  5 26  1  0
 17 26  1  0
M  END
