PAU-WEI-f734c343-1-chloroacetamide
     RDKit          3D

 31 34  0  0  0  0  0  0  0  0999 V2000
    7.5080   -3.4930   19.5980 C   0  0  0  0  0  0  0  0  0  0  0  0
    6.1920   -2.8940   19.8290 C   0  0  0  0  0  0  0  0  0  0  0  0
    5.2480   -3.2360   19.1000 O   0  0  0  0  0  0  0  0  0  0  0  0
    6.1190   -2.0470   20.9310 N   0  0  0  0  0  0  0  0  0  0  0  0
    7.1010   -0.9560   20.9460 C   0  0  0  0  0  0  0  0  0  0  0  0
    8.3560   -1.3220   21.7590 C   0  0  0  0  0  0  0  0  0  0  0  0
    8.0510   -1.8190   23.1070 N   0  0  0  0  0  0  0  0  0  0  0  0
    8.9950   -1.7910   24.1200 C   0  0  1  0  0  0  0  0  0  0  0  0
    9.0010   -3.1380   24.9580 C   0  0  0  0  0  0  0  0  0  0  0  0
    9.8500   -4.3570   24.7280 C   0  0  0  0  0  0  0  0  0  0  0  0
    9.5190   -5.4490   25.7670 C   0  0  0  0  0  0  0  0  0  0  0  0
    8.4310   -4.8680   26.6630 C   0  0  0  0  0  0  0  0  0  0  0  0
    7.6310   -5.7800   28.1320 Br  0  0  0  0  0  0  0  0  0  0  0  0
    7.9180   -3.2620   26.2840 S   0  0  0  0  0  0  0  0  0  0  0  0
   10.2890   -1.0720   23.6280 C   0  0  0  0  0  0  0  0  0  0  0  0
   11.4350   -1.8830   23.0060 C   0  0  0  0  0  0  0  0  0  0  0  0
   12.6950   -1.1590   22.4830 C   0  0  0  0  0  0  0  0  0  0  0  0
   12.7570    0.2440   22.5770 C   0  0  0  0  0  0  0  0  0  0  0  0
   11.5830    0.9590   23.1800 C   0  0  0  0  0  0  0  0  0  0  0  0
   11.4540    2.4520   23.3150 C   0  0  0  0  0  0  0  0  0  0  0  0
   12.5120    3.4150   22.7940 C   0  0  0  0  0  0  0  0  0  0  0  0
   12.1720    4.7850   23.3500 C   0  0  0  0  0  0  0  0  0  0  0  0
   11.2790    5.5180   22.5850 N   0  0  0  0  0  0  0  0  0  0  0  0
   10.2580    6.1880   23.4100 C   0  0  0  0  0  0  0  0  0  0  0  0
    9.0780    6.6950   22.6180 C   0  0  0  0  0  0  0  0  0  0  0  0
   10.3440    6.3330   24.6230 O   0  0  0  0  0  0  0  0  0  0  0  0
   10.2250    2.6620   23.9540 C   0  0  0  0  0  0  0  0  0  0  0  0
    9.6600    1.4030   24.1560 N   0  0  0  0  0  0  0  0  0  0  0  0
   10.4640    0.3460   23.6740 C   0  0  0  0  0  0  0  0  0  0  0  0
    7.2740   -3.0600   22.9590 C   0  0  0  0  0  0  0  0  0  0  0  0
    5.9280   -2.7230   22.2500 C   0  0  0  0  0  0  0  0  0  0  0  0
  1  2  1  0
  2  3  2  0
  2  4  1  0
  4  5  1  0
  5  6  1  0
  6  7  1  0
  7  8  1  0
  8  9  1  6
  9 10  2  0
 10 11  1  0
 11 12  2  0
 12 13  1  0
  9 14  1  0
 12 14  1  0
  8 15  1  0
 15 16  2  0
 16 17  1  0
 17 18  2  0
 18 19  1  0
 19 20  1  0
 20 21  1  0
 21 22  1  0
 22 23  1  0
 23 24  1  0
 24 25  1  0
 24 26  2  0
 20 27  2  0
 27 28  1  0
 15 29  1  0
 19 29  2  0
 28 29  1  0
  7 30  1  0
  4 31  1  0
 30 31  1  0
M  END
