PAU-WEI-f734c343-3-acrylamide
     RDKit          3D

 28 30  0  0  0  0  0  0  0  0999 V2000
    7.9690   -3.4850   19.6750 C   0  0  0  0  0  0  0  0  0  0  0  0
    6.9500   -2.6390   18.9790 C   0  0  0  0  0  0  0  0  0  0  0  0
    5.8390   -2.7570   19.9530 C   0  0  0  0  0  0  0  0  0  0  0  0
    4.8260   -3.4010   19.7120 O   0  0  0  0  0  0  0  0  0  0  0  0
    6.0770   -2.1390   21.1630 N   0  0  0  0  0  0  0  0  0  0  0  0
    7.0150   -1.0120   21.2950 C   0  0  0  0  0  0  0  0  0  0  0  0
    8.3420   -1.3820   21.9890 C   0  0  0  0  0  0  0  0  0  0  0  0
    8.1350   -2.1080   23.2490 N   0  0  0  0  0  0  0  0  0  0  0  0
    9.4100   -2.5550   23.8040 C   0  0  2  0  0  0  0  0  0  0  0  0
    9.1330   -3.5870   24.9380 C   0  0  0  0  0  0  0  0  0  0  0  0
    9.7860   -4.8190   25.1150 C   0  0  0  0  0  0  0  0  0  0  0  0
    9.3350   -5.5770   26.1690 C   0  0  0  0  0  0  0  0  0  0  0  0
    8.3030   -4.9770   26.8760 C   0  0  0  0  0  0  0  0  0  0  0  0
    7.4000   -5.7140   28.3790 Br  0  0  0  0  0  0  0  0  0  0  0  0
    7.9130   -3.4500   26.2210 S   0  0  0  0  0  0  0  0  0  0  0  0
   10.4440   -1.5560   23.6990 C   0  0  0  0  0  0  0  0  0  0  0  0
   11.4640   -1.6810   22.7380 C   0  0  0  0  0  0  0  0  0  0  0  0
   12.4780   -0.7800   22.5870 C   0  0  0  0  0  0  0  0  0  0  0  0
   13.4860   -0.8920   21.6830 C   0  0  0  0  0  0  0  0  0  0  0  0
   13.3670   -2.0580   20.8610 N   0  0  0  0  0  0  0  0  0  0  0  0
   12.5340    0.4390   23.4510 C   0  0  0  0  0  0  0  0  0  0  0  0
   11.4960    0.5680   24.4030 N   0  0  0  0  0  0  0  0  0  0  0  0
   10.4960   -0.3790   24.5360 C   0  0  0  0  0  0  0  0  0  0  0  0
    9.5470   -0.1880   25.4700 N   0  0  0  0  0  0  0  0  0  0  0  0
    9.0990    1.1180   25.4790 C   0  0  0  0  0  0  0  0  0  0  0  0
    9.8600    2.0800   24.5090 C   0  0  0  0  0  0  0  0  0  0  0  0
    7.2870   -3.2880   23.0340 C   0  0  0  0  0  0  0  0  0  0  0  0
    5.9340   -2.9540   22.3640 C   0  0  0  0  0  0  0  0  0  0  0  0
  1  2  1  0
  2  3  1  0
  3  4  2  0
  3  5  1  0
  5  6  1  0
  6  7  1  0
  7  8  1  0
  8  9  1  0
  9 10  1  1
 10 11  2  0
 11 12  1  0
 12 13  2  0
 13 14  1  0
 10 15  1  0
 13 15  1  0
  9 16  1  0
 16 17  2  0
 17 18  1  0
 18 19  1  0
 19 20  3  0
 18 21  2  0
 21 22  1  0
 16 23  1  0
 22 23  2  0
 23 24  1  0
 24 25  1  0
 25 26  1  0
  8 27  1  0
  5 28  1  0
 27 28  1  0
M  END
