PAU-WEI-f734c343-3-nitrile
     RDKit          3D

 26 28  0  0  0  0  0  0  0  0999 V2000
    6.5960   -3.7360   19.9120 C   0  0  0  0  0  0  0  0  0  0  0  0
    5.7430   -4.6910   19.9530 N   0  0  0  0  0  0  0  0  0  0  0  0
    6.5320   -2.7580   20.8790 N   0  0  0  0  0  0  0  0  0  0  0  0
    6.0460   -3.1370   22.2030 C   0  0  0  0  0  0  0  0  0  0  0  0
    7.2670   -3.3940   23.0910 C   0  0  0  0  0  0  0  0  0  0  0  0
    8.2070   -2.2560   23.1550 N   0  0  0  0  0  0  0  0  0  0  0  0
    9.4700   -2.7390   23.7040 C   0  0  2  0  0  0  0  0  0  0  0  0
    9.1750   -3.7360   24.8820 C   0  0  0  0  0  0  0  0  0  0  0  0
    9.8680   -5.0710   25.1220 C   0  0  0  0  0  0  0  0  0  0  0  0
    9.3090   -5.7890   26.3150 C   0  0  0  0  0  0  0  0  0  0  0  0
    8.2870   -5.0540   26.9170 C   0  0  0  0  0  0  0  0  0  0  0  0
    7.3170   -5.6470   28.4430 Br  0  0  0  0  0  0  0  0  0  0  0  0
    7.9360   -3.4940   26.1430 S   0  0  0  0  0  0  0  0  0  0  0  0
   10.3970   -1.6630   23.6620 C   0  0  0  0  0  0  0  0  0  0  0  0
   11.5130   -1.8960   22.8870 C   0  0  0  0  0  0  0  0  0  0  0  0
   12.5300   -0.9630   22.7000 C   0  0  0  0  0  0  0  0  0  0  0  0
   13.6310   -1.1560   21.9520 C   0  0  0  0  0  0  0  0  0  0  0  0
   13.3610   -1.8170   20.7310 N   0  0  0  0  0  0  0  0  0  0  0  0
   12.3670    0.3560   23.4000 C   0  0  0  0  0  0  0  0  0  0  0  0
   11.2170    0.5950   24.1930 N   0  0  0  0  0  0  0  0  0  0  0  0
   10.2790   -0.3890   24.3050 C   0  0  0  0  0  0  0  0  0  0  0  0
    9.2120   -0.0610   25.0690 N   0  0  0  0  0  0  0  0  0  0  0  0
    9.0200    1.3290   25.4710 C   0  0  0  0  0  0  0  0  0  0  0  0
    9.7300    2.2740   24.6520 C   0  0  0  0  0  0  0  0  0  0  0  0
    8.4870   -1.6800   21.9200 C   0  0  0  0  0  0  0  0  0  0  0  0
    7.3260   -1.5270   20.9100 C   0  0  0  0  0  0  0  0  0  0  0  0
  1  2  2  3
  1  3  1  0
  3  4  1  0
  4  5  1  0
  5  6  1  0
  6  7  1  0
  7  8  1  1
  8  9  2  0
  9 10  1  0
 10 11  2  0
 11 12  1  0
  8 13  1  0
 11 13  1  0
  7 14  1  0
 14 15  2  0
 15 16  1  0
 16 17  1  0
 17 18  3  0
 16 19  2  0
 19 20  1  0
 14 21  1  0
 20 21  2  0
 21 22  1  0
 22 23  1  0
 23 24  1  0
  6 25  1  0
  3 26  1  0
 25 26  1  0
M  END
