PAU-WEI-f734c343-2-vinylsulfonamide
     RDKit          3D

 36 39  0  0  0  0  0  0  0  0999 V2000
    7.9740   -3.3020   19.1650 C   0  0  0  0  0  0  0  0  0  0  0  0
    6.8620   -2.4390   18.6130 C   0  0  0  0  0  0  0  0  0  0  0  0
    5.4930   -2.4320   19.6890 S   0  0  0  0  0  0  0  0  0  0  0  0
    4.8600   -3.7150   19.5380 O   0  0  0  0  0  0  0  0  0  0  0  0
    4.7930   -1.1890   19.4640 O   0  0  0  0  0  0  0  0  0  0  0  0
    6.2440   -2.2920   21.1950 N   0  0  0  0  0  0  0  0  0  0  0  0
    6.0250   -3.2870   22.2510 C   0  0  0  0  0  0  0  0  0  0  0  0
    7.3230   -3.7120   22.9550 C   0  0  0  0  0  0  0  0  0  0  0  0
    8.2610   -2.6080   23.0940 N   0  0  0  0  0  0  0  0  0  0  0  0
    9.3850   -2.7010   23.8130 C   0  0  2  0  0  0  0  0  0  0  0  0
    9.0820   -3.6610   25.0200 C   0  0  0  0  0  0  0  0  0  0  0  0
    9.8590   -4.9430   25.1600 C   0  0  0  0  0  0  0  0  0  0  0  0
    9.3560   -5.7250   26.3290 C   0  0  0  0  0  0  0  0  0  0  0  0
    8.2340   -4.9740   26.9890 C   0  0  0  0  0  0  0  0  0  0  0  0
    7.2730   -5.6120   28.5010 Br  0  0  0  0  0  0  0  0  0  0  0  0
    7.8780   -3.4620   26.2350 S   0  0  0  0  0  0  0  0  0  0  0  0
   10.2680   -1.4040   23.7810 C   0  0  0  0  0  0  0  0  0  0  0  0
   11.4060   -1.6130   22.8270 C   0  0  0  0  0  0  0  0  0  0  0  0
   12.4310   -0.5610   22.5810 C   0  0  0  0  0  0  0  0  0  0  0  0
   13.4620   -0.8410   21.7220 C   0  0  0  0  0  0  0  0  0  0  0  0
   13.3860   -1.9670   20.8830 N   0  0  0  0  0  0  0  0  0  0  0  0
   12.3160    0.6600   23.2220 C   0  0  0  0  0  0  0  0  0  0  0  0
   11.1820    0.9500   24.1760 C   0  0  0  0  0  0  0  0  0  0  0  0
   10.1630   -0.1680   24.4330 C   0  0  0  0  0  0  0  0  0  0  0  0
    9.1280    0.2870   25.4210 C   0  0  0  0  0  0  0  0  0  0  0  0
    8.2870    1.3550   25.2360 N   0  0  0  0  0  0  0  0  0  0  0  0
    7.5750    1.7380   24.0650 C   0  0  0  0  0  0  0  0  0  0  0  0
    8.1090    2.4340   23.2070 O   0  0  0  0  0  0  0  0  0  0  0  0
    6.2160    1.2980   23.9470 N   0  0  0  0  0  0  0  0  0  0  0  0
    5.3730    1.0540   25.1370 C   0  0  0  0  0  0  0  0  0  0  0  0
    4.0810    0.3660   24.7710 C   0  0  0  0  0  0  0  0  0  0  0  0
    3.3980    1.0480   23.7200 O   0  0  0  0  0  0  0  0  0  0  0  0
    4.2010    1.1760   22.5440 C   0  0  0  0  0  0  0  0  0  0  0  0
    5.4960    1.8380   22.7800 C   0  0  0  0  0  0  0  0  0  0  0  0
    8.5620   -1.9230   21.8800 C   0  0  0  0  0  0  0  0  0  0  0  0
    7.3370   -1.3150   21.2740 C   0  0  0  0  0  0  0  0  0  0  0  0
  1  2  1  0
  3  2  1  0
  3  4  2  0
  3  5  2  0
  3  6  1  0
  6  7  1  0
  7  8  1  0
  8  9  1  0
  9 10  1  0
 10 11  1  1
 11 12  2  0
 12 13  1  0
 13 14  2  0
 14 15  1  0
 11 16  1  0
 14 16  1  0
 10 17  1  0
 17 18  2  0
 18 19  1  0
 19 20  1  0
 20 21  3  0
 19 22  2  0
 22 23  1  0
 17 24  1  0
 23 24  2  0
 24 25  1  0
 25 26  1  0
 26 27  1  0
 27 28  2  0
 27 29  1  0
 29 30  1  0
 30 31  1  0
 31 32  1  0
 32 33  1  0
 29 34  1  0
 33 34  1  0
  9 35  1  0
  6 36  1  0
 35 36  1  0
M  END
