PED-UNI-d0b586b3-1-nitrile
     RDKit          3D

 30 33  0  0  0  0  0  0  0  0999 V2000
    6.6410   -3.6840   19.8980 C   0  0  0  0  0  0  0  0  0  0  0  0
    5.7680   -4.6130   19.9200 N   0  0  0  0  0  0  0  0  0  0  0  0
    6.5860   -2.7340   20.9000 N   0  0  0  0  0  0  0  0  0  0  0  0
    6.1530   -3.2040   22.1990 C   0  0  0  0  0  0  0  0  0  0  0  0
    7.3640   -3.6790   22.9740 C   0  0  0  0  0  0  0  0  0  0  0  0
    8.2800   -2.5570   23.2480 N   0  0  0  0  0  0  0  0  0  0  0  0
    9.3840   -2.8200   24.1830 C   0  0  2  0  0  0  0  0  0  0  0  0
   10.7440   -2.9100   23.5570 C   0  0  0  0  0  0  0  0  0  0  0  0
   11.5470   -1.6170   23.7280 C   0  0  1  0  0  0  0  0  0  0  0  0
   12.5110   -1.4040   22.6070 C   0  0  0  0  0  0  0  0  0  0  0  0
   13.2650   -0.2600   22.7860 C   0  0  0  0  0  0  0  0  0  0  0  0
   12.5250    0.8920   22.9950 C   0  0  0  0  0  0  0  0  0  0  0  0
   13.0350    2.1640   22.7140 C   0  0  0  0  0  0  0  0  0  0  0  0
   12.3420    3.3600   22.9100 C   0  0  0  0  0  0  0  0  0  0  0  0
   11.0420    3.3790   23.4250 C   0  0  0  0  0  0  0  0  0  0  0  0
   10.1500    4.8950   23.6890 S   0  0  0  0  0  0  0  0  0  0  0  0
   11.3110    6.0860   23.4240 N   0  0  0  0  0  0  0  0  0  0  0  0
    9.1750    5.0530   22.6500 O   0  0  0  0  0  0  0  0  0  0  0  0
    9.7390    5.0080   25.0650 O   0  0  0  0  0  0  0  0  0  0  0  0
   10.4700    2.1450   23.7260 C   0  0  0  0  0  0  0  0  0  0  0  0
   11.2390    0.8230   23.5020 C   0  0  0  0  0  0  0  0  0  0  0  0
   10.6450   -0.4280   23.8020 N   0  0  0  0  0  0  0  0  0  0  0  0
    9.1040   -3.9340   25.1740 C   0  0  0  0  0  0  0  0  0  0  0  0
    9.7330   -5.2980   25.3860 C   0  0  0  0  0  0  0  0  0  0  0  0
    9.1660   -5.9900   26.4180 C   0  0  0  0  0  0  0  0  0  0  0  0
    8.1410   -5.3090   27.0500 C   0  0  0  0  0  0  0  0  0  0  0  0
    7.0990   -5.9230   28.5200 Br  0  0  0  0  0  0  0  0  0  0  0  0
    7.8600   -3.7790   26.3650 S   0  0  0  0  0  0  0  0  0  0  0  0
    8.6950   -1.9490   21.9570 C   0  0  0  0  0  0  0  0  0  0  0  0
    7.5380   -1.5940   21.0160 C   0  0  0  0  0  0  0  0  0  0  0  0
  1  2  2  3
  1  3  1  0
  3  4  1  0
  4  5  1  0
  5  6  1  0
  6  7  1  0
  7  8  1  6
  9  8  1  6
  9 10  1  0
 10 11  1  0
 11 12  1  0
 12 13  2  0
 13 14  1  0
 14 15  2  0
 15 16  1  0
 16 17  1  0
 16 18  2  0
 16 19  2  0
 15 20  1  0
 12 21  1  0
 20 21  2  0
  9 22  1  0
 21 22  1  0
  7 23  1  0
 23 24  2  0
 24 25  1  0
 25 26  2  0
 26 27  1  0
 23 28  1  0
 26 28  1  0
  6 29  1  0
  3 30  1  0
 29 30  1  0
M  END
