PED-UNI-b79f0f51-1-nitrile
     RDKit          3D

 38 41  0  0  0  0  0  0  0  0999 V2000
    6.6140   -4.3680   20.3740 C   0  0  0  0  0  0  0  0  0  0  0  0
    5.4510   -4.2960   19.8600 N   0  0  0  0  0  0  0  0  0  0  0  0
    6.8730   -4.9790   21.5780 N   0  0  0  0  0  0  0  0  0  0  0  0
    6.1640   -6.1850   22.0390 C   0  0  0  0  0  0  0  0  0  0  0  0
    5.2230   -5.9550   23.2430 C   0  0  0  0  0  0  0  0  0  0  0  0
    5.9040   -5.1960   24.2970 N   0  0  0  0  0  0  0  0  0  0  0  0
    5.3250   -5.2310   25.9150 S   0  0  0  0  0  0  0  0  0  0  0  0
    4.7200   -6.5260   26.1310 O   0  0  0  0  0  0  0  0  0  0  0  0
    6.3870   -4.7410   26.7520 O   0  0  0  0  0  0  0  0  0  0  0  0
    4.0210   -4.0170   25.8520 C   0  0  0  0  0  0  0  0  0  0  0  0
    2.8180   -4.3150   26.4440 C   0  0  0  0  0  0  0  0  0  0  0  0
    1.7470   -3.3860   26.4170 C   0  0  0  0  0  0  0  0  0  0  0  0
    1.8520   -2.1520   25.7980 C   0  0  0  0  0  0  0  0  0  0  0  0
    0.4700   -1.1220   25.8440 Cl  0  0  0  0  0  0  0  0  0  0  0  0
    3.0660   -1.7990   25.1610 C   0  0  0  0  0  0  0  0  0  0  0  0
    3.1290   -0.4390   24.4590 C   0  0  0  0  0  0  0  0  0  0  0  0
    4.4820   -0.0530   23.9580 C   0  0  1  0  0  0  0  0  0  0  0  0
    5.3970    0.5860   23.3590 C   0  0  0  0  0  0  0  0  0  0  0  0
    6.3440    1.0950   24.2760 N   0  0  0  0  0  0  0  0  0  0  0  0
    7.5490    1.5180   23.7380 C   0  0  0  0  0  0  0  0  0  0  0  0
    7.7290    1.8280   22.5630 O   0  0  0  0  0  0  0  0  0  0  0  0
    8.6870    1.6680   24.5700 N   0  0  0  0  0  0  0  0  0  0  0  0
    9.3650    0.4650   25.0400 C   0  0  0  0  0  0  0  0  0  0  0  0
   10.4090    0.0680   24.1960 C   0  0  0  0  0  0  0  0  0  0  0  0
   11.5140    0.8840   23.8930 C   0  0  0  0  0  0  0  0  0  0  0  0
   12.5750    0.2750   22.9580 C   0  0  0  0  0  0  0  0  0  0  0  0
   12.3760   -1.0170   22.4800 C   0  0  0  0  0  0  0  0  0  0  0  0
   13.2010   -1.7090   21.6650 N   0  0  0  0  0  0  0  0  0  0  0  0
   13.7590   -1.1610   20.7160 O   0  0  0  0  0  0  0  0  0  0  0  0
   13.2750   -2.9170   21.8820 O   0  0  0  0  0  0  0  0  0  0  0  0
   11.2550   -1.7570   22.8190 C   0  0  0  0  0  0  0  0  0  0  0  0
   10.3050   -1.2220   23.6530 C   0  0  0  0  0  0  0  0  0  0  0  0
    5.7170    2.0810   25.1800 C   0  0  0  0  0  0  0  0  0  0  0  0
    4.5890    1.3420   25.7970 C   0  0  0  0  0  0  0  0  0  0  0  0
    4.8530    0.0580   25.3120 O   0  0  0  0  0  0  0  0  0  0  0  0
    4.1610   -2.7490   25.2030 C   0  0  0  0  0  0  0  0  0  0  0  0
    7.3210   -4.8910   24.0080 C   0  0  0  0  0  0  0  0  0  0  0  0
    7.4190   -4.1910   22.6710 C   0  0  0  0  0  0  0  0  0  0  0  0
  1  2  2  3
  1  3  1  0
  3  4  1  0
  4  5  1  0
  5  6  1  0
  6  7  1  0
  7  8  2  0
  7  9  2  0
  7 10  1  0
 10 11  2  0
 11 12  1  0
 12 13  2  0
 13 14  1  0
 13 15  1  0
 15 16  1  0
 17 16  1  1
 17 18  1  0
 18 19  1  0
 19 20  1  0
 20 21  2  0
 20 22  1  0
 22 23  1  0
 23 24  1  0
 24 25  2  0
 25 26  1  0
 26 27  2  0
 27 28  1  0
 28 29  2  0
 28 30  1  0
 27 31  1  0
 24 32  1  0
 31 32  2  0
 19 33  1  0
 33 34  1  0
 17 35  1  0
 34 35  1  0
 10 36  1  0
 15 36  2  0
  6 37  1  0
  3 38  1  0
 37 38  1  0
M  CHG  2  28   1  30  -1
M  END
