PED-UNI-b79f0f51-1-acrylamide
     RDKit          3D

 40 43  0  0  0  0  0  0  0  0999 V2000
    7.6750   -3.6750   20.3010 C   0  0  0  0  0  0  0  0  0  0  0  0
    7.4480   -3.6150   21.7940 C   0  0  0  0  0  0  0  0  0  0  0  0
    6.1190   -4.2270   22.1550 C   0  0  0  0  0  0  0  0  0  0  0  0
    5.1050   -3.8870   21.5520 O   0  0  0  0  0  0  0  0  0  0  0  0
    6.1290   -5.1670   23.1720 N   0  0  0  0  0  0  0  0  0  0  0  0
    5.0050   -6.0720   23.4500 C   0  0  0  0  0  0  0  0  0  0  0  0
    4.4670   -5.8380   24.7260 C   0  0  0  0  0  0  0  0  0  0  0  0
    5.1160   -4.7380   25.4810 N   0  0  0  0  0  0  0  0  0  0  0  0
    4.3570   -4.1120   26.8900 S   0  0  0  0  0  0  0  0  0  0  0  0
    3.5160   -5.1720   27.4030 O   0  0  0  0  0  0  0  0  0  0  0  0
    5.4250   -3.5430   27.6730 O   0  0  0  0  0  0  0  0  0  0  0  0
    3.2510   -2.7980   26.3340 C   0  0  0  0  0  0  0  0  0  0  0  0
    3.4880   -1.4690   25.5610 C   0  0  0  0  0  0  0  0  0  0  0  0
    2.3890   -0.4340   25.1590 C   0  0  0  0  0  0  0  0  0  0  0  0
    1.0760   -0.8880   25.6200 C   0  0  0  0  0  0  0  0  0  0  0  0
   -0.6130   -0.5640   25.7080 Cl  0  0  0  0  0  0  0  0  0  0  0  0
    2.0510   -1.7130   25.9230 C   0  0  0  0  0  0  0  0  0  0  0  0
    3.2710   -1.8420   25.7990 C   0  0  0  0  0  0  0  0  0  0  0  0
    4.6380   -1.4800   25.3900 C   0  0  2  0  0  0  0  0  0  0  0  0
    5.3540   -0.4750   26.0800 C   0  0  0  0  0  0  0  0  0  0  0  0
    5.8200    0.5550   25.3110 N   0  0  0  0  0  0  0  0  0  0  0  0
    7.2430    0.9150   25.1590 C   0  0  0  0  0  0  0  0  0  0  0  0
    7.6050    2.0860   25.0500 O   0  0  0  0  0  0  0  0  0  0  0  0
    8.1240   -0.1000   25.1390 N   0  0  0  0  0  0  0  0  0  0  0  0
    9.4990    0.3270   25.3590 C   0  0  0  0  0  0  0  0  0  0  0  0
   10.3590   -0.3170   24.2780 C   0  0  0  0  0  0  0  0  0  0  0  0
   11.6310    0.2310   23.9870 C   0  0  0  0  0  0  0  0  0  0  0  0
   12.4920   -0.2930   23.0000 C   0  0  0  0  0  0  0  0  0  0  0  0
   12.1030   -1.3910   22.2630 C   0  0  0  0  0  0  0  0  0  0  0  0
   13.0090   -1.9000   21.2480 N   0  0  0  0  0  0  0  0  0  0  0  0
   12.8410   -3.0210   20.7980 O   0  0  0  0  0  0  0  0  0  0  0  0
   13.8760   -1.1340   20.8530 O   0  0  0  0  0  0  0  0  0  0  0  0
   10.7890   -2.0320   22.4990 C   0  0  0  0  0  0  0  0  0  0  0  0
    9.9060   -1.4350   23.5670 C   0  0  0  0  0  0  0  0  0  0  0  0
    4.7780    1.1460   24.5110 C   0  0  0  0  0  0  0  0  0  0  0  0
    4.4410    0.0960   23.4820 C   0  0  0  0  0  0  0  0  0  0  0  0
    4.6600   -1.2520   23.9440 O   0  0  0  0  0  0  0  0  0  0  0  0
    1.9420   -2.8190   26.5540 C   0  0  0  0  0  0  0  0  0  0  0  0
    6.5780   -5.0030   25.5840 C   0  0  0  0  0  0  0  0  0  0  0  0
    7.1790   -5.1770   24.2090 C   0  0  0  0  0  0  0  0  0  0  0  0
  1  2  1  0
  2  3  1  0
  3  4  2  0
  3  5  1  0
  5  6  1  0
  6  7  1  0
  7  8  1  0
  8  9  1  0
  9 10  2  0
  9 11  2  0
  9 12  1  0
 12 13  2  0
 13 14  1  0
 14 15  2  0
 15 16  1  0
 15 17  1  0
 17 18  1  0
 19 18  1  1
 19 20  1  0
 20 21  1  0
 21 22  1  0
 22 23  2  0
 22 24  1  0
 24 25  1  0
 25 26  1  0
 26 27  2  0
 27 28  1  0
 28 29  2  0
 29 30  1  0
 30 31  2  0
 30 32  1  0
 29 33  1  0
 26 34  1  0
 33 34  2  0
 21 35  1  0
 35 36  1  0
 19 37  1  0
 36 37  1  0
 12 38  1  0
 17 38  2  0
  8 39  1  0
  5 40  1  0
 39 40  1  0
M  CHG  2  30   1  32  -1
M  END
