PED-UNI-b79f0f51-2-nitrile
     RDKit          3D

 37 40  0  0  0  0  0  0  0  0999 V2000
    6.6130   -3.9280   20.0660 C   0  0  0  0  0  0  0  0  0  0  0  0
    5.5760   -3.6340   19.3850 N   0  0  0  0  0  0  0  0  0  0  0  0
    6.7060   -4.5080   21.2920 N   0  0  0  0  0  0  0  0  0  0  0  0
    6.2560   -5.7790   21.7000 C   0  0  0  0  0  0  0  0  0  0  0  0
    5.5920   -5.9980   22.9140 C   0  0  0  0  0  0  0  0  0  0  0  0
    6.0810   -5.1700   24.0290 N   0  0  0  0  0  0  0  0  0  0  0  0
    5.4440   -5.3660   25.6000 S   0  0  0  0  0  0  0  0  0  0  0  0
    4.5280   -6.4860   25.5570 O   0  0  0  0  0  0  0  0  0  0  0  0
    6.5690   -5.3850   26.5110 O   0  0  0  0  0  0  0  0  0  0  0  0
    4.4700   -3.9140   26.0210 C   0  0  0  0  0  0  0  0  0  0  0  0
    5.0640   -2.6010   26.1780 C   0  0  0  0  0  0  0  0  0  0  0  0
    4.3230   -1.3890   26.5360 C   0  0  0  0  0  0  0  0  0  0  0  0
    2.9420   -1.4690   26.7500 C   0  0  0  0  0  0  0  0  0  0  0  0
    1.9560   -0.1170   27.1880 Cl  0  0  0  0  0  0  0  0  0  0  0  0
    2.5480   -2.8410   26.5510 C   0  0  0  0  0  0  0  0  0  0  0  0
    4.0170   -2.4840   26.3150 C   0  0  0  0  0  0  0  0  0  0  0  0
    4.3100   -1.6890   25.0130 C   0  0  2  0  0  0  0  0  0  0  0  0
    5.7140   -1.0700   24.9040 C   0  0  0  0  0  0  0  0  0  0  0  0
    5.7220    0.3520   24.5310 N   0  0  0  0  0  0  0  0  0  0  0  0
    6.8450    1.1280   24.7060 C   0  0  0  0  0  0  0  0  0  0  0  0
    6.8710    2.3360   24.4980 O   0  0  0  0  0  0  0  0  0  0  0  0
    7.9220    0.4090   25.1340 N   0  0  0  0  0  0  0  0  0  0  0  0
    9.2460    0.9600   25.2070 C   0  0  0  0  0  0  0  0  0  0  0  0
   10.1850    0.2440   24.3020 C   0  0  0  0  0  0  0  0  0  0  0  0
    9.6760   -1.0900   23.7860 C   0  0  0  0  0  0  0  0  0  0  0  0
   10.4860   -1.9470   22.8730 C   0  0  0  0  0  0  0  0  0  0  0  0
   11.8380   -1.3940   22.5070 C   0  0  0  0  0  0  0  0  0  0  0  0
   12.6190   -2.2730   21.6020 C   0  0  0  0  0  0  0  0  0  0  0  0
   13.3100   -3.1070   20.7950 N   0  0  0  0  0  0  0  0  0  0  0  0
   12.3280   -0.1630   22.9720 C   0  0  0  0  0  0  0  0  0  0  0  0
   11.4520    0.6860   23.9110 C   0  0  0  0  0  0  0  0  0  0  0  0
    4.9040    0.6890   23.4640 C   0  0  0  0  0  0  0  0  0  0  0  0
    3.5130    0.0230   23.5240 C   0  0  0  0  0  0  0  0  0  0  0  0
    3.2770   -0.7260   24.7200 O   0  0  0  0  0  0  0  0  0  0  0  0
    3.0930   -4.0480   26.2220 C   0  0  0  0  0  0  0  0  0  0  0  0
    6.4540   -3.9330   23.5870 C   0  0  0  0  0  0  0  0  0  0  0  0
    7.1920   -3.6690   22.4180 C   0  0  0  0  0  0  0  0  0  0  0  0
  1  2  2  3
  1  3  1  0
  3  4  1  0
  4  5  1  0
  5  6  1  0
  6  7  1  0
  7  8  2  0
  7  9  2  0
  7 10  1  0
 10 11  2  0
 11 12  1  0
 12 13  2  0
 13 14  1  0
 13 15  1  0
 15 16  1  0
 17 16  1  1
 17 18  1  0
 18 19  1  0
 19 20  1  0
 20 21  2  0
 20 22  1  0
 22 23  1  0
 23 24  1  0
 24 25  2  0
 25 26  1  0
 26 27  2  0
 27 28  1  0
 28 29  3  0
 27 30  1  0
 24 31  1  0
 30 31  2  0
 19 32  1  0
 32 33  1  0
 17 34  1  0
 33 34  1  0
 10 35  1  0
 15 35  2  0
  6 36  1  0
  3 37  1  0
 36 37  1  0
M  END
