PED-UNI-b79f0f51-1-acrylamide
     RDKit          3D

 40 43  0  0  0  0  0  0  0  0999 V2000
    7.9670   -3.5710   20.1890 C   0  0  0  0  0  0  0  0  0  0  0  0
    6.7490   -2.7820   19.8460 C   0  0  0  0  0  0  0  0  0  0  0  0
    5.6260   -3.6820   20.2330 C   0  0  0  0  0  0  0  0  0  0  0  0
    4.8380   -4.0110   19.3890 O   0  0  0  0  0  0  0  0  0  0  0  0
    5.6450   -4.1010   21.5460 N   0  0  0  0  0  0  0  0  0  0  0  0
    5.7580   -5.4460   21.9660 C   0  0  0  0  0  0  0  0  0  0  0  0
    5.2840   -5.8070   23.2180 C   0  0  0  0  0  0  0  0  0  0  0  0
    5.8880   -4.9570   24.2750 N   0  0  0  0  0  0  0  0  0  0  0  0
    5.4250   -5.1110   25.9020 S   0  0  0  0  0  0  0  0  0  0  0  0
    4.6450   -6.3270   25.9980 O   0  0  0  0  0  0  0  0  0  0  0  0
    6.6110   -4.9440   26.7060 O   0  0  0  0  0  0  0  0  0  0  0  0
    4.2840   -3.7340   26.2970 C   0  0  0  0  0  0  0  0  0  0  0  0
    4.7650   -2.4410   26.6880 C   0  0  0  0  0  0  0  0  0  0  0  0
    3.8340   -1.2340   27.0570 C   0  0  0  0  0  0  0  0  0  0  0  0
    2.3220   -1.4440   26.9960 C   0  0  0  0  0  0  0  0  0  0  0  0
    1.1190   -0.2570   27.3710 Cl  0  0  0  0  0  0  0  0  0  0  0  0
    2.1650   -2.8240   26.5810 C   0  0  0  0  0  0  0  0  0  0  0  0
    3.6010   -2.2870   26.6620 C   0  0  0  0  0  0  0  0  0  0  0  0
    4.2110   -1.3110   25.7650 C   0  0  2  0  0  0  0  0  0  0  0  0
    5.1730   -0.2560   26.0320 C   0  0  0  0  0  0  0  0  0  0  0  0
    5.4990    0.4990   24.8120 N   0  0  0  0  0  0  0  0  0  0  0  0
    6.7440    1.1030   24.7460 C   0  0  0  0  0  0  0  0  0  0  0  0
    6.8830    2.3250   24.7100 O   0  0  0  0  0  0  0  0  0  0  0  0
    7.8130    0.2470   24.7180 N   0  0  0  0  0  0  0  0  0  0  0  0
    9.1130    0.6710   25.1800 C   0  0  0  0  0  0  0  0  0  0  0  0
   10.2070    0.1350   24.3090 C   0  0  0  0  0  0  0  0  0  0  0  0
   11.3290    1.0320   23.9550 C   0  0  0  0  0  0  0  0  0  0  0  0
   12.4500    0.5470   23.0880 C   0  0  0  0  0  0  0  0  0  0  0  0
   12.6150   -0.8360   22.4670 C   0  0  0  0  0  0  0  0  0  0  0  0
   13.1770   -1.8330   21.7460 N   0  0  0  0  0  0  0  0  0  0  0  0
   13.6380   -1.5390   20.6420 O   0  0  0  0  0  0  0  0  0  0  0  0
   13.3700   -2.9090   22.3150 O   0  0  0  0  0  0  0  0  0  0  0  0
   11.3590   -1.6400   22.9350 C   0  0  0  0  0  0  0  0  0  0  0  0
   10.2140   -1.1460   23.8250 C   0  0  0  0  0  0  0  0  0  0  0  0
    4.5440    0.8720   23.7960 C   0  0  0  0  0  0  0  0  0  0  0  0
    3.3840   -0.1370   23.7960 C   0  0  0  0  0  0  0  0  0  0  0  0
    3.0840   -0.6910   25.0870 O   0  0  0  0  0  0  0  0  0  0  0  0
    2.8940   -3.9440   26.2360 C   0  0  0  0  0  0  0  0  0  0  0  0
    6.5660   -3.7100   23.8720 C   0  0  0  0  0  0  0  0  0  0  0  0
    6.0220   -3.1070   22.5610 C   0  0  0  0  0  0  0  0  0  0  0  0
  1  2  1  0
  2  3  1  0
  3  4  2  0
  3  5  1  0
  5  6  1  0
  6  7  1  0
  7  8  1  0
  8  9  1  0
  9 10  2  0
  9 11  2  0
  9 12  1  0
 12 13  2  0
 13 14  1  0
 14 15  2  0
 15 16  1  0
 15 17  1  0
 17 18  1  0
 19 18  1  1
 19 20  1  0
 20 21  1  0
 21 22  1  0
 22 23  2  0
 22 24  1  0
 24 25  1  0
 25 26  1  0
 26 27  2  0
 27 28  1  0
 28 29  2  0
 29 30  1  0
 30 31  2  0
 30 32  1  0
 29 33  1  0
 26 34  1  0
 33 34  2  0
 21 35  1  0
 35 36  1  0
 19 37  1  0
 36 37  1  0
 12 38  1  0
 17 38  2  0
  8 39  1  0
  5 40  1  0
 39 40  1  0
M  CHG  2  30   1  32  -1
M  END
