PED-UNI-b79f0f51-2-chloroacetamide
     RDKit          3D

 38 41  0  0  0  0  0  0  0  0999 V2000
    7.3390   -3.4250   19.9000 C   0  0  0  0  0  0  0  0  0  0  0  0
    6.4560   -4.4570   20.5490 C   0  0  0  0  0  0  0  0  0  0  0  0
    5.4110   -4.7520   19.9780 O   0  0  0  0  0  0  0  0  0  0  0  0
    6.7900   -5.1140   21.7400 N   0  0  0  0  0  0  0  0  0  0  0  0
    5.9550   -6.1910   22.2760 C   0  0  0  0  0  0  0  0  0  0  0  0
    5.1240   -5.7610   23.3140 C   0  0  0  0  0  0  0  0  0  0  0  0
    5.9640   -5.2660   24.4130 N   0  0  0  0  0  0  0  0  0  0  0  0
    5.3190   -5.2690   25.9930 S   0  0  0  0  0  0  0  0  0  0  0  0
    4.7580   -6.5860   26.1860 O   0  0  0  0  0  0  0  0  0  0  0  0
    6.3810   -4.7710   26.8210 O   0  0  0  0  0  0  0  0  0  0  0  0
    3.9350   -4.0660   26.0010 C   0  0  0  0  0  0  0  0  0  0  0  0
    2.7310   -4.6700   26.3140 C   0  0  0  0  0  0  0  0  0  0  0  0
    1.6320   -3.9290   26.3750 C   0  0  0  0  0  0  0  0  0  0  0  0
    1.7370   -2.5670   26.1160 C   0  0  0  0  0  0  0  0  0  0  0  0
    0.2510   -1.7080   26.2340 Cl  0  0  0  0  0  0  0  0  0  0  0  0
    2.8900   -1.6460   25.7400 C   0  0  0  0  0  0  0  0  0  0  0  0
    4.1220   -0.9350   25.3880 C   0  0  0  0  0  0  0  0  0  0  0  0
    4.7810   -0.0080   24.9740 C   0  0  2  0  0  0  0  0  0  0  0  0
    5.7260    1.0390   25.0310 C   0  0  0  0  0  0  0  0  0  0  0  0
    6.3670    1.2490   23.8750 N   0  0  0  0  0  0  0  0  0  0  0  0
    7.7560    1.5870   23.9930 C   0  0  0  0  0  0  0  0  0  0  0  0
    8.2550    2.6140   23.5470 O   0  0  0  0  0  0  0  0  0  0  0  0
    8.4400    0.6470   24.6470 N   0  0  0  0  0  0  0  0  0  0  0  0
    9.6820    0.9450   25.0110 C   0  0  0  0  0  0  0  0  0  0  0  0
   10.5350    0.2270   24.2180 C   0  0  0  0  0  0  0  0  0  0  0  0
   11.8320    0.8830   23.7550 C   0  0  0  0  0  0  0  0  0  0  0  0
   12.7010    0.1470   22.9550 C   0  0  0  0  0  0  0  0  0  0  0  0
   12.4010   -1.1790   22.5700 C   0  0  0  0  0  0  0  0  0  0  0  0
   13.2520   -1.8990   21.7970 C   0  0  0  0  0  0  0  0  0  0  0  0
   13.7760   -1.3590   20.5740 N   0  0  0  0  0  0  0  0  0  0  0  0
   11.2370   -1.8000   22.9640 C   0  0  0  0  0  0  0  0  0  0  0  0
   10.2520   -1.0650   23.8330 C   0  0  0  0  0  0  0  0  0  0  0  0
    5.6110    1.8810   22.8410 C   0  0  0  0  0  0  0  0  0  0  0  0
    4.3410    1.0910   22.8520 C   0  0  0  0  0  0  0  0  0  0  0  0
    3.8950    0.7260   24.1860 O   0  0  0  0  0  0  0  0  0  0  0  0
    3.9810   -2.6680   25.7390 C   0  0  0  0  0  0  0  0  0  0  0  0
    6.8330   -4.1200   24.0180 C   0  0  0  0  0  0  0  0  0  0  0  0
    7.6100   -4.4100   22.7470 C   0  0  0  0  0  0  0  0  0  0  0  0
  1  2  1  0
  2  3  2  0
  2  4  1  0
  4  5  1  0
  5  6  1  0
  6  7  1  0
  7  8  1  0
  8  9  2  0
  8 10  2  0
  8 11  1  0
 11 12  2  0
 12 13  1  0
 13 14  2  0
 14 15  1  0
 14 16  1  0
 16 17  1  0
 18 17  1  1
 18 19  1  0
 19 20  1  0
 20 21  1  0
 21 22  2  0
 21 23  1  0
 23 24  1  0
 24 25  1  0
 25 26  2  0
 26 27  1  0
 27 28  2  0
 28 29  1  0
 29 30  3  0
 28 31  1  0
 25 32  1  0
 31 32  2  0
 20 33  1  0
 33 34  1  0
 18 35  1  0
 34 35  1  0
 11 36  1  0
 16 36  2  0
  7 37  1  0
  4 38  1  0
 37 38  1  0
M  END
