PED-UNI-292b67d6-1
     RDKit          3D

 24 25  0  0  0  0  0  0  0  0999 V2000
   16.1820   -6.5910   25.6030 C   0  0  0  0  0  0  0  0  0  0  0  0
   17.1510   -5.5770   25.5220 C   0  0  0  0  0  0  0  0  0  0  0  0
   18.2650   -5.7780   26.3180 C   0  0  0  0  0  0  0  0  0  0  0  0
   19.4570   -4.8070   26.2800 C   0  0  0  0  0  0  0  0  0  0  0  0
   19.5510   -3.7220   25.5360 N   0  0  0  0  0  0  0  0  0  0  0  0
   18.4310   -3.5480   24.8240 C   0  0  0  0  0  0  0  0  0  0  0  0
   17.1240   -4.4760   24.7900 C   0  0  0  0  0  0  0  0  0  0  0  0
   15.9030   -4.1980   24.0290 N   0  0  0  0  0  0  0  0  0  0  0  0
   14.6890   -3.6890   24.8100 C   0  0  0  0  0  0  0  0  0  0  0  0
   14.4810   -3.9450   26.1800 O   0  0  0  0  0  0  0  0  0  0  0  0
   13.7080   -2.9730   24.0590 C   0  0  0  0  0  0  0  0  0  0  0  0
   13.5540   -1.5670   24.1510 O   0  0  0  0  0  0  0  0  0  0  0  0
   12.9520   -1.0520   22.9630 C   0  0  0  0  0  0  0  0  0  0  0  0
   13.0210   -1.4980   21.8260 O   0  0  0  0  0  0  0  0  0  0  0  0
   12.1950    0.1090   23.0910 C   0  0  0  0  0  0  0  0  0  0  0  0
   10.8120    0.0300   23.3670 C   0  0  0  0  0  0  0  0  0  0  0  0
   10.0240    1.2000   23.4820 C   0  0  0  0  0  0  0  0  0  0  0  0
   10.4840    2.5020   23.3460 C   0  0  0  0  0  0  0  0  0  0  0  0
    9.4530    3.9400   23.4850 S   0  0  0  0  0  0  0  0  0  0  0  0
    8.4660    3.7870   22.1300 N   0  0  0  0  0  0  0  0  0  0  0  0
   10.2690    5.1050   23.2550 O   0  0  0  0  0  0  0  0  0  0  0  0
    8.5720    3.8520   24.6250 O   0  0  0  0  0  0  0  0  0  0  0  0
   11.9780    2.6270   23.0520 C   0  0  0  0  0  0  0  0  0  0  0  0
   12.8220    1.3630   22.9320 C   0  0  0  0  0  0  0  0  0  0  0  0
  1  2  1  0
  2  3  2  0
  3  4  1  0
  4  5  2  0
  5  6  1  0
  2  7  1  0
  6  7  2  0
  7  8  1  0
  8  9  1  0
  9 10  2  0
  9 11  1  0
 11 12  1  0
 12 13  1  0
 13 14  2  0
 13 15  1  0
 15 16  2  0
 16 17  1  0
 17 18  2  0
 18 19  1  0
 19 20  1  0
 19 21  2  0
 19 22  2  0
 18 23  1  0
 15 24  1  0
 23 24  2  0
M  END
