PED-UNI-89deb5c9-1-chloroacetamide
     RDKit          3D

 23 24  0  0  0  0  0  0  0  0999 V2000
    6.9540   -3.0930   19.0640 C   0  0  0  0  0  0  0  0  0  0  0  0
    5.8810   -3.5410   20.0500 C   0  0  0  0  0  0  0  0  0  0  0  0
    5.3620   -4.6510   19.9220 O   0  0  0  0  0  0  0  0  0  0  0  0
    5.5130   -2.6870   21.0830 N   0  0  0  0  0  0  0  0  0  0  0  0
    5.3790   -1.2470   20.8950 C   0  0  0  0  0  0  0  0  0  0  0  0
    6.7190   -0.5120   20.8500 C   0  0  0  0  0  0  0  0  0  0  0  0
    7.8420   -1.1420   21.6600 C   0  0  0  0  0  0  0  0  0  0  0  0
    7.5570   -1.1820   23.1050 N   0  0  0  0  0  0  0  0  0  0  0  0
    8.6950   -1.8390   23.7960 C   0  0  0  0  0  0  0  0  0  0  0  0
    9.8580   -0.8840   24.1370 C   0  0  0  0  0  0  0  0  0  0  0  0
   11.0730   -1.0480   23.4190 C   0  0  0  0  0  0  0  0  0  0  0  0
   11.5330    0.0770   22.8970 C   0  0  0  0  0  0  0  0  0  0  0  0
   10.5050    0.7060   23.4090 C   0  0  0  0  0  0  0  0  0  0  0  0
   10.1120    2.4330   23.2780 S   0  0  0  0  0  0  0  0  0  0  0  0
    8.8170    2.6130   24.3410 N   0  0  0  0  0  0  0  0  0  0  0  0
   11.1890    3.2090   23.8340 O   0  0  0  0  0  0  0  0  0  0  0  0
    9.6100    2.6820   21.9500 O   0  0  0  0  0  0  0  0  0  0  0  0
    9.7890   -0.3750   24.0970 C   0  0  0  0  0  0  0  0  0  0  0  0
   10.2610   -1.8370   24.1060 C   0  0  0  0  0  0  0  0  0  0  0  0
   11.4630   -2.2670   23.4290 C   0  0  0  0  0  0  0  0  0  0  0  0
   12.9670   -1.8230   22.3700 Br  0  0  0  0  0  0  0  0  0  0  0  0
    6.2800   -1.8950   23.3740 C   0  0  0  0  0  0  0  0  0  0  0  0
    5.9560   -3.0700   22.4300 C   0  0  0  0  0  0  0  0  0  0  0  0
  1  2  1  0
  2  3  2  0
  2  4  1  0
  4  5  1  0
  5  6  1  0
  6  7  1  0
  7  8  1  0
  8  9  1  0
  9 10  1  0
 10 11  1  0
 11 12  2  0
 12 13  1  0
 13 14  1  0
 14 15  1  0
 14 16  2  0
 14 17  2  0
 13 18  2  0
 18 19  1  0
 11 20  1  0
 19 20  2  0
 20 21  1  0
  8 22  1  0
  4 23  1  0
 22 23  1  0
M  END
