PED-UNI-b79f0f51-2-vinylsulfonamide
     RDKit          3D

 40 43  0  0  0  0  0  0  0  0999 V2000
    7.4210   -3.1030   19.0170 C   0  0  0  0  0  0  0  0  0  0  0  0
    7.2050   -2.8920   20.4830 C   0  0  0  0  0  0  0  0  0  0  0  0
    5.8530   -3.8960   21.0260 S   0  0  0  0  0  0  0  0  0  0  0  0
    5.1810   -4.5460   19.9080 O   0  0  0  0  0  0  0  0  0  0  0  0
    5.0350   -3.1200   21.9240 O   0  0  0  0  0  0  0  0  0  0  0  0
    6.6480   -5.0700   21.9560 N   0  0  0  0  0  0  0  0  0  0  0  0
    7.3920   -4.5660   23.1180 C   0  0  0  0  0  0  0  0  0  0  0  0
    6.5680   -4.3120   24.1940 C   0  0  0  0  0  0  0  0  0  0  0  0
    5.9360   -5.5540   24.6210 N   0  0  0  0  0  0  0  0  0  0  0  0
    5.2890   -5.6100   26.1880 S   0  0  0  0  0  0  0  0  0  0  0  0
    6.3450   -5.2200   27.0960 O   0  0  0  0  0  0  0  0  0  0  0  0
    4.5690   -6.8520   26.3390 O   0  0  0  0  0  0  0  0  0  0  0  0
    4.1170   -4.2900   26.1270 C   0  0  0  0  0  0  0  0  0  0  0  0
    2.7470   -4.4520   26.5240 C   0  0  0  0  0  0  0  0  0  0  0  0
    1.8340   -3.4160   26.4790 C   0  0  0  0  0  0  0  0  0  0  0  0
    2.2030   -2.1470   26.0350 C   0  0  0  0  0  0  0  0  0  0  0  0
    1.0070   -0.9050   26.0220 Cl  0  0  0  0  0  0  0  0  0  0  0  0
    3.6420   -1.9680   25.5960 C   0  0  0  0  0  0  0  0  0  0  0  0
    4.1520   -0.6690   25.0640 C   0  0  0  0  0  0  0  0  0  0  0  0
    4.6700   -0.0130   24.1400 C   0  0  2  0  0  0  0  0  0  0  0  0
    5.6150    0.7390   23.3690 C   0  0  0  0  0  0  0  0  0  0  0  0
    6.1690    1.7110   24.1030 N   0  0  0  0  0  0  0  0  0  0  0  0
    7.6210    1.7500   24.0620 C   0  0  0  0  0  0  0  0  0  0  0  0
    8.2760    2.6460   23.5140 O   0  0  0  0  0  0  0  0  0  0  0  0
    8.2930    0.7480   24.6520 N   0  0  0  0  0  0  0  0  0  0  0  0
    9.5710    0.9900   24.9910 C   0  0  0  0  0  0  0  0  0  0  0  0
   10.4330    0.2810   24.1830 C   0  0  0  0  0  0  0  0  0  0  0  0
   11.8020    0.8570   23.8200 C   0  0  0  0  0  0  0  0  0  0  0  0
   12.7000    0.1490   23.0130 C   0  0  0  0  0  0  0  0  0  0  0  0
   12.3460   -1.1260   22.5120 C   0  0  0  0  0  0  0  0  0  0  0  0
   13.1810   -1.8730   21.7350 C   0  0  0  0  0  0  0  0  0  0  0  0
   13.7940   -1.3250   20.5560 N   0  0  0  0  0  0  0  0  0  0  0  0
   11.1190   -1.6570   22.8110 C   0  0  0  0  0  0  0  0  0  0  0  0
   10.1140   -0.9520   23.6740 C   0  0  0  0  0  0  0  0  0  0  0  0
    5.5870    1.8620   25.4160 C   0  0  0  0  0  0  0  0  0  0  0  0
    4.0980    1.9330   25.1840 C   0  0  0  0  0  0  0  0  0  0  0  0
    3.6850    1.0130   24.1950 O   0  0  0  0  0  0  0  0  0  0  0  0
    4.5360   -3.0440   25.6700 C   0  0  0  0  0  0  0  0  0  0  0  0
    5.0410   -6.0720   23.5440 C   0  0  0  0  0  0  0  0  0  0  0  0
    5.8100   -6.2420   22.2500 C   0  0  0  0  0  0  0  0  0  0  0  0
  1  2  1  0
  3  2  1  0
  3  4  2  0
  3  5  2  0
  3  6  1  0
  6  7  1  0
  7  8  1  0
  8  9  1  0
  9 10  1  0
 10 11  2  0
 10 12  2  0
 10 13  1  0
 13 14  2  0
 14 15  1  0
 15 16  2  0
 16 17  1  0
 16 18  1  0
 18 19  1  0
 20 19  1  1
 20 21  1  0
 21 22  1  0
 22 23  1  0
 23 24  2  0
 23 25  1  0
 25 26  1  0
 26 27  1  0
 27 28  2  0
 28 29  1  0
 29 30  2  0
 30 31  1  0
 31 32  3  0
 30 33  1  0
 27 34  1  0
 33 34  2  0
 22 35  1  0
 35 36  1  0
 20 37  1  0
 36 37  1  0
 13 38  1  0
 18 38  2  0
  9 39  1  0
  6 40  1  0
 39 40  1  0
M  END
