PED-UNI-d0b586b3-1-chloroacetamide
     RDKit          3D

 31 34  0  0  0  0  0  0  0  0999 V2000
    7.2760   -2.9480   18.7880 C   0  0  0  0  0  0  0  0  0  0  0  0
    6.3100   -3.2450   19.9010 C   0  0  0  0  0  0  0  0  0  0  0  0
    5.3840   -4.0460   19.6960 O   0  0  0  0  0  0  0  0  0  0  0  0
    6.4970   -2.6350   21.1410 N   0  0  0  0  0  0  0  0  0  0  0  0
    6.2380   -3.3250   22.3870 C   0  0  0  0  0  0  0  0  0  0  0  0
    7.5230   -3.8330   23.0400 C   0  0  0  0  0  0  0  0  0  0  0  0
    8.3690   -2.7830   23.3190 N   0  0  0  0  0  0  0  0  0  0  0  0
    9.4010   -2.8100   24.2860 C   0  0  2  0  0  0  0  0  0  0  0  0
   10.8170   -2.8510   23.7160 C   0  0  0  0  0  0  0  0  0  0  0  0
   11.5330   -1.5210   23.7690 C   0  0  1  0  0  0  0  0  0  0  0  0
   12.4440   -1.3880   22.7140 C   0  0  0  0  0  0  0  0  0  0  0  0
   13.2210   -0.2580   22.8800 C   0  0  0  0  0  0  0  0  0  0  0  0
   12.5020    0.9130   23.0710 C   0  0  0  0  0  0  0  0  0  0  0  0
   13.0220    2.1740   22.7070 C   0  0  0  0  0  0  0  0  0  0  0  0
   12.3730    3.4240   22.8590 C   0  0  0  0  0  0  0  0  0  0  0  0
   11.0990    3.4620   23.4240 C   0  0  0  0  0  0  0  0  0  0  0  0
   10.2130    4.9820   23.6660 S   0  0  0  0  0  0  0  0  0  0  0  0
   11.3620    6.1460   23.2640 N   0  0  0  0  0  0  0  0  0  0  0  0
    9.9490    5.1720   25.0640 O   0  0  0  0  0  0  0  0  0  0  0  0
    9.1420    5.0480   22.7160 O   0  0  0  0  0  0  0  0  0  0  0  0
   10.4900    2.1160   23.8380 C   0  0  0  0  0  0  0  0  0  0  0  0
   11.2360    0.8050   23.6450 C   0  0  0  0  0  0  0  0  0  0  0  0
   10.7150   -0.4420   24.0090 N   0  0  0  0  0  0  0  0  0  0  0  0
    9.1560   -3.9540   25.2480 C   0  0  0  0  0  0  0  0  0  0  0  0
    9.7350   -5.2150   25.3920 C   0  0  0  0  0  0  0  0  0  0  0  0
    9.2180   -5.9690   26.3980 C   0  0  0  0  0  0  0  0  0  0  0  0
    8.1360   -5.2710   27.1220 C   0  0  0  0  0  0  0  0  0  0  0  0
    7.0960   -5.9040   28.5810 Br  0  0  0  0  0  0  0  0  0  0  0  0
    7.9160   -3.7430   26.4460 S   0  0  0  0  0  0  0  0  0  0  0  0
    8.6910   -1.9800   22.1160 C   0  0  0  0  0  0  0  0  0  0  0  0
    7.5170   -1.5830   21.2570 C   0  0  0  0  0  0  0  0  0  0  0  0
  1  2  1  0
  2  3  2  0
  2  4  1  0
  4  5  1  0
  5  6  1  0
  6  7  1  0
  7  8  1  0
  8  9  1  6
 10  9  1  6
 10 11  1  0
 11 12  1  0
 12 13  1  0
 13 14  2  0
 14 15  1  0
 15 16  2  0
 16 17  1  0
 17 18  1  0
 17 19  2  0
 17 20  2  0
 16 21  1  0
 13 22  1  0
 21 22  2  0
 10 23  1  0
 22 23  1  0
  8 24  1  0
 24 25  2  0
 25 26  1  0
 26 27  2  0
 27 28  1  0
 24 29  1  0
 27 29  1  0
  7 30  1  0
  4 31  1  0
 30 31  1  0
M  END
