PET-SGC-708ec5d8-1-acrylamide
     RDKit          3D

 21 22  0  0  0  0  0  0  0  0999 V2000
    7.0220   -5.7450   20.0130 C   0  0  0  0  0  0  0  0  0  0  0  0
    6.3470   -4.3750   20.1520 C   0  0  0  0  0  0  0  0  0  0  0  0
    6.0760   -4.1040   21.6200 C   0  0  0  0  0  0  0  0  0  0  0  0
    4.8740   -3.9090   21.9710 O   0  0  0  0  0  0  0  0  0  0  0  0
    7.2960   -4.1700   22.5480 C   0  0  0  0  0  0  0  0  0  0  0  0
    6.3900   -4.7530   22.5240 C   0  0  0  0  0  0  0  0  0  0  0  0
    7.2060   -3.4640   21.7910 C   0  0  0  0  0  0  0  0  0  0  0  0
    8.6150   -2.4910   21.7290 C   0  0  0  0  0  0  0  0  0  0  0  0
    7.6390   -2.3760   21.0290 C   0  0  0  0  0  0  0  0  0  0  0  0
    6.9320   -3.2740   21.4400 C   0  0  0  0  0  0  0  0  0  0  0  0
    8.4170   -3.0200   22.1070 C   0  0  0  0  0  0  0  0  0  0  0  0
    9.8330   -2.3270   22.2950 C   0  0  0  0  0  0  0  0  0  0  0  0
    9.9710   -0.9020   22.3280 C   0  0  0  0  0  0  0  0  0  0  0  0
   11.3340   -0.4840   22.6560 N   0  0  0  0  0  0  0  0  0  0  0  0
   11.6280    0.8070   23.0490 C   0  0  0  0  0  0  0  0  0  0  0  0
   10.5200    1.5630   23.4800 C   0  0  0  0  0  0  0  0  0  0  0  0
   12.7570    1.2790   23.0420 O   0  0  0  0  0  0  0  0  0  0  0  0
    8.1230   -4.0870   22.9380 C   0  0  0  0  0  0  0  0  0  0  0  0
    9.1810   -3.2850   22.8140 N   0  0  0  0  0  0  0  0  0  0  0  0
   10.4540   -3.2870   23.5600 C   0  0  0  0  0  0  0  0  0  0  0  0
   10.6420   -2.1130   24.3200 C   0  0  0  0  0  0  0  0  0  0  0  0
  1  2  1  0
  2  3  1  0
  3  4  2  0
  3  5  1  0
  5  6  2  0
  6  7  1  0
  7  8  2  0
  8  9  1  0
  5 10  1  0
  9 10  2  0
  9 11  1  0
 11 12  1  0
 12 13  1  0
 13 14  1  0
 14 15  1  0
 15 16  1  0
 15 17  2  0
 11 18  2  0
  8 19  1  0
 18 19  1  0
 19 20  1  0
 20 21  1  0
M  END
