PET-SGC-b0f8bd49-1
     RDKit          3D

 22 23  0  0  0  0  0  0  0  0999 V2000
    6.4280   -5.1140   21.9640 C   0  0  0  0  0  0  0  0  0  0  0  0
    5.8640   -3.4110   21.7370 S   0  0  0  0  0  0  0  0  0  0  0  0
    6.2750   -2.9560   20.4360 O   0  0  0  0  0  0  0  0  0  0  0  0
    4.4600   -3.4240   22.0870 O   0  0  0  0  0  0  0  0  0  0  0  0
    6.7080   -2.5010   22.8980 N   0  0  0  0  0  0  0  0  0  0  0  0
    8.1960   -2.3310   22.8140 C   0  0  0  0  0  0  0  0  0  0  0  0
    8.7210   -0.8520   22.7650 C   0  0  2  0  0  0  0  0  0  0  0  0
    8.1210   -0.1260   21.5850 C   0  0  0  0  0  0  0  0  0  0  0  0
    8.6020    0.9290   21.1660 O   0  0  0  0  0  0  0  0  0  0  0  0
    6.9370   -0.8080   21.0470 N   0  0  0  0  0  0  0  0  0  0  0  0
    6.4090   -0.0590   19.9210 C   0  0  0  0  0  0  0  0  0  0  0  0
    5.1410    0.7490   20.1400 C   0  0  0  0  0  0  0  0  0  0  0  0
    4.4820    1.5330   19.2110 C   0  0  0  0  0  0  0  0  0  0  0  0
    5.1500    1.5680   17.7860 C   0  0  0  0  0  0  0  0  0  0  0  0
    6.3490    0.7860   17.6160 N   0  0  0  0  0  0  0  0  0  0  0  0
    6.9410   -0.0020   18.6780 C   0  0  0  0  0  0  0  0  0  0  0  0
   10.0800   -0.5310   22.8900 C   0  0  0  0  0  0  0  0  0  0  0  0
   10.4880    0.6470   23.8490 C   0  0  0  0  0  0  0  0  0  0  0  0
   11.9500    0.8480   23.8320 C   0  0  0  0  0  0  0  0  0  0  0  0
   12.8850    0.1660   23.1340 C   0  0  0  0  0  0  0  0  0  0  0  0
   12.4690   -0.8890   22.2940 C   0  0  0  0  0  0  0  0  0  0  0  0
   11.1190   -1.2080   22.1870 C   0  0  0  0  0  0  0  0  0  0  0  0
  1  2  1  0
  2  3  2  0
  2  4  2  0
  2  5  1  0
  5  6  1  0
  7  6  1  6
  7  8  1  0
  8  9  2  0
  8 10  1  0
 10 11  1  0
 11 12  2  0
 12 13  1  0
 13 14  2  0
 14 15  1  0
 11 16  1  0
 15 16  2  0
  7 17  1  0
 17 18  2  0
 18 19  1  0
 19 20  2  0
 20 21  1  0
 17 22  1  0
 21 22  2  0
M  END
