PET-SGC-1fc12be1-1
     RDKit          3D

 19 20  0  0  0  0  0  0  0  0999 V2000
   13.2450   -0.9610   23.0810 C   0  0  0  0  0  0  0  0  0  0  0  0
   12.6320   -0.0360   24.1160 C   0  0  0  0  0  0  0  0  0  0  0  0
   11.2140   -0.2110   24.0790 N   0  0  0  0  0  0  0  0  0  0  0  0
   10.6690   -0.1310   22.8600 C   0  0  0  0  0  0  0  0  0  0  0  0
    9.2910   -0.2390   22.8570 C   0  0  0  0  0  0  0  0  0  0  0  0
    8.6570    0.3830   21.7880 C   0  0  0  0  0  0  0  0  0  0  0  0
    9.0660    1.4520   21.2980 O   0  0  0  0  0  0  0  0  0  0  0  0
    7.5280   -0.3180   21.3580 N   0  0  0  0  0  0  0  0  0  0  0  0
    6.8340    0.1670   20.1880 C   0  0  0  0  0  0  0  0  0  0  0  0
    5.7830    1.0520   20.4560 C   0  0  0  0  0  0  0  0  0  0  0  0
    4.9220    1.6940   19.3940 C   0  0  0  0  0  0  0  0  0  0  0  0
    5.2980    1.2960   17.9650 C   0  0  0  0  0  0  0  0  0  0  0  0
    6.3740    0.3840   17.7210 N   0  0  0  0  0  0  0  0  0  0  0  0
    7.0990   -0.1460   18.8710 C   0  0  0  0  0  0  0  0  0  0  0  0
    8.7010    0.3860   24.1660 C   0  0  0  0  0  0  0  0  0  0  0  0
    8.9200   -0.4240   25.4490 C   0  0  0  0  0  0  0  0  0  0  0  0
    8.4580   -1.8720   25.2480 C   0  0  0  0  0  0  0  0  0  0  0  0
    9.2140   -2.5110   24.0830 C   0  0  0  0  0  0  0  0  0  0  0  0
    8.9620   -1.7680   22.7680 C   0  0  0  0  0  0  0  0  0  0  0  0
  1  2  1  0
  2  3  1  0
  3  4  1  0
  4  5  1  0
  5  6  1  0
  6  7  2  0
  6  8  1  0
  8  9  1  0
  9 10  2  0
 10 11  1  0
 11 12  2  0
 12 13  1  0
  9 14  1  0
 13 14  2  0
  5 15  1  0
 15 16  1  0
 16 17  1  0
 17 18  1  0
  5 19  1  0
 18 19  1  0
M  END
