PET-SGC-0f1d26ed-2-vinylsulfonamide
     RDKit          3D

 24 25  0  0  0  0  0  0  0  0999 V2000
    7.3120   -3.4050   19.3400 C   0  0  0  0  0  0  0  0  0  0  0  0
    6.9430   -4.2370   20.5300 C   0  0  0  0  0  0  0  0  0  0  0  0
    6.1840   -3.0770   21.4910 S   0  0  0  0  0  0  0  0  0  0  0  0
    4.8810   -3.7360   21.9250 O   0  0  0  0  0  0  0  0  0  0  0  0
    5.9130   -2.0300   20.5300 O   0  0  0  0  0  0  0  0  0  0  0  0
    7.6150   -2.3160   22.5650 C   0  0  0  0  0  0  0  0  0  0  0  0
    7.9040   -2.6240   24.0350 C   0  0  0  0  0  0  0  0  0  0  0  0
    8.9480   -1.7780   24.5510 C   0  0  0  0  0  0  0  0  0  0  0  0
    9.7340   -0.8320   24.1600 C   0  0  0  0  0  0  0  0  0  0  0  0
   10.5330   -0.2900   25.1710 N   0  0  0  0  0  0  0  0  0  0  0  0
    9.4270    0.2730   25.9210 C   0  0  0  0  0  0  0  0  0  0  0  0
    9.2660   -0.3440   27.1580 C   0  0  0  0  0  0  0  0  0  0  0  0
    9.4310   -0.6280   22.7090 C   0  0  0  0  0  0  0  0  0  0  0  0
   10.0090    0.3080   21.9950 N   0  0  0  0  0  0  0  0  0  0  0  0
    8.9950    1.0620   21.4120 C   0  0  0  0  0  0  0  0  0  0  0  0
    9.0760    2.2400   21.1780 O   0  0  0  0  0  0  0  0  0  0  0  0
    7.8580    0.2870   21.1300 N   0  0  0  0  0  0  0  0  0  0  0  0
    6.9810    0.4700   20.0360 C   0  0  0  0  0  0  0  0  0  0  0  0
    5.9060    1.3350   20.2030 C   0  0  0  0  0  0  0  0  0  0  0  0
    4.9780    1.6230   19.2220 C   0  0  0  0  0  0  0  0  0  0  0  0
    5.1440    1.0030   18.0110 C   0  0  0  0  0  0  0  0  0  0  0  0
    6.1960    0.1210   17.7880 C   0  0  0  0  0  0  0  0  0  0  0  0
    7.1030   -0.1450   18.7890 C   0  0  0  0  0  0  0  0  0  0  0  0
    8.4770   -1.3330   22.0000 C   0  0  0  0  0  0  0  0  0  0  0  0
  1  2  1  0
  3  2  1  0
  3  4  2  0
  3  5  2  0
  3  6  1  0
  6  7  2  0
  7  8  1  0
  8  9  2  0
  9 10  1  0
 10 11  1  0
 11 12  1  0
  9 13  1  0
 13 14  1  0
 14 15  1  0
 15 16  2  0
 15 17  1  0
 17 18  1  0
 18 19  2  0
 19 20  1  0
 20 21  2  0
 21 22  1  0
 18 23  1  0
 22 23  2  0
  6 24  1  0
 13 24  2  0
M  END
