PET-SGC-0f1d26ed-2-nitrile
     RDKit          3D

 21 22  0  0  0  0  0  0  0  0999 V2000
    8.2040   -3.2920   19.7260 C   0  0  0  0  0  0  0  0  0  0  0  0
    7.9860   -2.8110   18.4570 N   0  0  0  0  0  0  0  0  0  0  0  0
    9.3280   -2.7080   21.0030 C   0  0  0  0  0  0  0  0  0  0  0  0
    9.6290   -1.6300   22.1220 C   0  0  0  0  0  0  0  0  0  0  0  0
   10.9660   -2.1870   22.5070 C   0  0  0  0  0  0  0  0  0  0  0  0
   10.2810   -1.0230   23.1590 C   0  0  0  0  0  0  0  0  0  0  0  0
   10.6200   -0.1530   24.2830 N   0  0  0  0  0  0  0  0  0  0  0  0
    9.4120    0.1790   25.1060 C   0  0  0  0  0  0  0  0  0  0  0  0
    9.4140   -0.4420   26.3580 C   0  0  0  0  0  0  0  0  0  0  0  0
    9.0530   -0.8200   22.4450 C   0  0  0  0  0  0  0  0  0  0  0  0
    8.3290    0.2440   22.8190 N   0  0  0  0  0  0  0  0  0  0  0  0
    7.9890    0.9040   21.7130 C   0  0  0  0  0  0  0  0  0  0  0  0
    8.5750    1.8820   21.2490 O   0  0  0  0  0  0  0  0  0  0  0  0
    6.9220    0.2370   21.1890 N   0  0  0  0  0  0  0  0  0  0  0  0
    6.3680    0.5680   19.9950 C   0  0  0  0  0  0  0  0  0  0  0  0
    6.7490    0.0330   18.7810 C   0  0  0  0  0  0  0  0  0  0  0  0
    6.1130    0.4820   17.6520 C   0  0  0  0  0  0  0  0  0  0  0  0
    5.1280    1.4420   17.7330 C   0  0  0  0  0  0  0  0  0  0  0  0
    4.7440    1.9580   18.9400 C   0  0  0  0  0  0  0  0  0  0  0  0
    5.3650    1.5200   20.0820 C   0  0  0  0  0  0  0  0  0  0  0  0
    8.5500   -1.6480   21.3510 C   0  0  0  0  0  0  0  0  0  0  0  0
  1  2  2  3
  1  3  1  0
  3  4  2  0
  4  5  1  0
  5  6  2  0
  6  7  1  0
  7  8  1  0
  8  9  1  0
  6 10  1  0
 10 11  1  0
 11 12  1  0
 12 13  2  0
 12 14  1  0
 14 15  1  0
 15 16  2  0
 16 17  1  0
 17 18  2  0
 18 19  1  0
 15 20  1  0
 19 20  2  0
  3 21  1  0
 10 21  2  0
M  END
