PET-SGC-cb83a00c-1-vinylsulfonamide
     RDKit          3D

 21 22  0  0  0  0  0  0  0  0999 V2000
    6.3100   -3.8510   19.5220 C   0  0  0  0  0  0  0  0  0  0  0  0
    6.8570   -2.7420   20.4070 C   0  0  0  0  0  0  0  0  0  0  0  0
    5.7320   -2.4270   21.7520 S   0  0  0  0  0  0  0  0  0  0  0  0
    4.8160   -3.5810   21.8720 O   0  0  0  0  0  0  0  0  0  0  0  0
    5.1660   -1.1230   21.4270 O   0  0  0  0  0  0  0  0  0  0  0  0
    6.7510   -2.2460   23.2630 C   0  0  0  0  0  0  0  0  0  0  0  0
    7.7450   -2.0080   24.1990 C   0  0  0  0  0  0  0  0  0  0  0  0
    6.6150   -2.4740   24.9070 C   0  0  0  0  0  0  0  0  0  0  0  0
    6.1810   -2.4590   23.4560 C   0  0  0  0  0  0  0  0  0  0  0  0
    7.5280   -1.9410   23.4300 C   0  0  0  0  0  0  0  0  0  0  0  0
    7.5660   -0.7240   24.3550 N   0  0  0  0  0  0  0  0  0  0  0  0
    7.5100    0.5790   23.7070 C   0  0  0  0  0  0  0  0  0  0  0  0
    8.2240    0.8730   22.7470 O   0  0  0  0  0  0  0  0  0  0  0  0
    6.6160    1.4420   24.2590 N   0  0  0  0  0  0  0  0  0  0  0  0
    6.7340    1.7670   25.7140 C   0  0  0  0  0  0  0  0  0  0  0  0
    5.4150    2.3610   26.2610 C   0  0  0  0  0  0  0  0  0  0  0  0
    4.9740    3.3790   25.3400 O   0  0  0  0  0  0  0  0  0  0  0  0
    4.7920    2.8410   24.0150 C   0  0  0  0  0  0  0  0  0  0  0  0
    6.0500    2.4740   23.4670 C   0  0  0  0  0  0  0  0  0  0  0  0
    6.3480   -2.2430   22.0930 N   0  0  0  0  0  0  0  0  0  0  0  0
    7.6310   -1.8240   22.2480 C   0  0  0  0  0  0  0  0  0  0  0  0
  1  2  1  0
  3  2  1  0
  3  4  2  0
  3  5  2  0
  3  6  1  0
  6  7  2  0
  7  8  1  0
  8  9  2  0
  9 10  1  0
 10 11  1  0
 11 12  1  0
 12 13  2  0
 12 14  1  0
 14 15  1  0
 15 16  1  0
 16 17  1  0
 17 18  1  0
 14 19  1  0
 18 19  1  0
  9 20  1  0
  6 21  1  0
 20 21  2  0
M  END
