PET-SGC-0f1d26ed-2-acrylamide
     RDKit          3D

 23 24  0  0  0  0  0  0  0  0999 V2000
    7.5150   -5.6120   21.0250 C   0  0  0  0  0  0  0  0  0  0  0  0
    7.4440   -4.6830   22.2450 C   0  0  0  0  0  0  0  0  0  0  0  0
    6.5320   -3.4760   22.0460 C   0  0  0  0  0  0  0  0  0  0  0  0
    5.1470   -3.5830   21.4340 O   0  0  0  0  0  0  0  0  0  0  0  0
    7.3620   -2.1030   22.7200 C   0  0  0  0  0  0  0  0  0  0  0  0
    8.8100   -2.0630   22.2730 C   0  0  0  0  0  0  0  0  0  0  0  0
    9.0840   -2.0550   22.1890 C   0  0  0  0  0  0  0  0  0  0  0  0
    8.0560   -1.1910   23.2630 C   0  0  0  0  0  0  0  0  0  0  0  0
    7.8690   -0.0530   24.1190 N   0  0  0  0  0  0  0  0  0  0  0  0
    8.1500   -0.2750   25.5560 C   0  0  0  0  0  0  0  0  0  0  0  0
    9.4260   -0.7290   25.9250 C   0  0  0  0  0  0  0  0  0  0  0  0
    8.9030   -0.3740   23.2540 C   0  0  0  0  0  0  0  0  0  0  0  0
   10.0870    0.0100   22.6360 N   0  0  0  0  0  0  0  0  0  0  0  0
    9.3350    0.5130   21.4850 C   0  0  0  0  0  0  0  0  0  0  0  0
    9.6240    1.5440   20.9150 O   0  0  0  0  0  0  0  0  0  0  0  0
    8.1430   -0.1860   21.1230 N   0  0  0  0  0  0  0  0  0  0  0  0
    7.4570   -0.4920   19.9520 C   0  0  0  0  0  0  0  0  0  0  0  0
    6.7710   -0.3530   18.8430 C   0  0  0  0  0  0  0  0  0  0  0  0
    6.3890    0.5760   18.4610 C   0  0  0  0  0  0  0  0  0  0  0  0
    5.9170    1.6050   17.9240 C   0  0  0  0  0  0  0  0  0  0  0  0
    6.3440    2.0340   19.1080 C   0  0  0  0  0  0  0  0  0  0  0  0
    7.0600    1.0510   20.0050 C   0  0  0  0  0  0  0  0  0  0  0  0
    8.8830   -1.4680   22.5630 C   0  0  0  0  0  0  0  0  0  0  0  0
  1  2  1  0
  2  3  1  0
  3  4  2  0
  3  5  1  0
  5  6  2  0
  6  7  1  0
  7  8  2  0
  8  9  1  0
  9 10  1  0
 10 11  1  0
  8 12  1  0
 12 13  1  0
 13 14  1  0
 14 15  2  0
 14 16  1  0
 16 17  1  0
 17 18  2  0
 18 19  1  0
 19 20  2  0
 20 21  1  0
 17 22  1  0
 21 22  2  0
  5 23  1  0
 12 23  2  0
M  END
