PET-SGC-210d4c30-1
     RDKit          3D

 32 35  0  0  0  0  0  0  0  0999 V2000
    3.5450    2.2930   19.2940 C   0  0  0  0  0  0  0  0  0  0  0  0
    4.5960    1.4560   18.9070 C   0  0  0  0  0  0  0  0  0  0  0  0
    5.0980    0.2490   19.5660 C   0  0  0  0  0  0  0  0  0  0  0  0
    6.2080   -0.2600   18.7650 C   0  0  0  0  0  0  0  0  0  0  0  0
    6.9500   -1.3960   19.0610 C   0  0  0  0  0  0  0  0  0  0  0  0
    7.0560   -1.7550   20.3800 N   0  0  0  0  0  0  0  0  0  0  0  0
    7.7120   -0.9100   21.2340 C   0  0  0  0  0  0  0  0  0  0  0  0
    8.7510   -1.5660   21.9210 C   0  0  0  0  0  0  0  0  0  0  0  0
    8.6550   -1.5370   23.3330 C   0  0  0  0  0  0  0  0  0  0  0  0
    9.2780   -0.5100   24.1050 C   0  0  0  0  0  0  0  0  0  0  0  0
   10.6350   -0.3590   23.8870 N   0  0  0  0  0  0  0  0  0  0  0  0
   11.4270   -1.6010   23.7990 C   0  0  0  0  0  0  0  0  0  0  0  0
   12.4910   -1.4560   22.7380 C   0  0  0  0  0  0  0  0  0  0  0  0
   13.2010   -0.2620   22.8050 C   0  0  0  0  0  0  0  0  0  0  0  0
   12.5240    0.9330   23.0020 C   0  0  0  0  0  0  0  0  0  0  0  0
   13.0370    2.1710   22.6960 C   0  0  0  0  0  0  0  0  0  0  0  0
   12.3730    3.3400   22.8850 C   0  0  0  0  0  0  0  0  0  0  0  0
   11.1080    3.3350   23.4210 C   0  0  0  0  0  0  0  0  0  0  0  0
   10.2330    4.8670   23.6760 S   0  0  0  0  0  0  0  0  0  0  0  0
   11.4130    6.0240   23.3460 N   0  0  0  0  0  0  0  0  0  0  0  0
    9.8840    4.9870   25.0610 O   0  0  0  0  0  0  0  0  0  0  0  0
    9.2430    5.0020   22.6480 O   0  0  0  0  0  0  0  0  0  0  0  0
   10.4580    2.1000   23.7870 C   0  0  0  0  0  0  0  0  0  0  0  0
   11.1970    0.8920   23.5630 C   0  0  0  0  0  0  0  0  0  0  0  0
    6.2530   -2.8320   20.7740 C   0  0  0  0  0  0  0  0  0  0  0  0
    5.4300   -3.3460   20.0180 O   0  0  0  0  0  0  0  0  0  0  0  0
    6.4380   -3.2980   22.0560 N   0  0  0  0  0  0  0  0  0  0  0  0
    5.7390   -4.4450   22.5480 C   0  0  0  0  0  0  0  0  0  0  0  0
    6.3940   -5.4390   23.2960 C   0  0  0  0  0  0  0  0  0  0  0  0
    6.1410   -5.9790   22.0280 C   0  0  0  0  0  0  0  0  0  0  0  0
    6.3540    0.5740   17.7070 N   0  0  0  0  0  0  0  0  0  0  0  0
    5.3820    1.6120   17.7940 O   0  0  0  0  0  0  0  0  0  0  0  0
  1  2  1  0
  2  3  2  0
  3  4  1  0
  4  5  1  0
  5  6  1  0
  6  7  1  0
  7  8  1  0
  8  9  1  0
  9 10  1  0
 10 11  1  0
 11 12  1  0
 12 13  1  0
 13 14  1  0
 14 15  1  0
 15 16  2  0
 16 17  1  0
 17 18  2  0
 18 19  1  0
 19 20  1  0
 19 21  2  0
 19 22  2  0
 18 23  1  0
 11 24  1  0
 15 24  1  0
 23 24  2  0
  6 25  1  0
 25 26  2  0
 25 27  1  0
 27 28  1  0
 28 29  1  0
 28 30  1  0
 29 30  1  0
  4 31  2  0
  2 32  1  0
 31 32  1  0
M  END
