PET-SGC-f147f0b6-1-nitrile
     RDKit          3D

 18 19  0  0  0  0  0  0  0  0999 V2000
    8.4730   -3.7660   19.7150 C   0  0  0  0  0  0  0  0  0  0  0  0
    7.1510   -3.8450   19.7280 N   0  0  0  0  0  0  0  0  0  0  0  0
    9.2320   -2.7670   20.9840 C   0  0  0  0  0  0  0  0  0  0  0  0
   10.6980   -2.2150   21.3750 C   0  0  0  0  0  0  0  0  0  0  0  0
   11.1100   -1.3940   22.4080 N   0  0  0  0  0  0  0  0  0  0  0  0
   10.4630   -0.7960   23.4470 C   0  0  0  0  0  0  0  0  0  0  0  0
    9.6440   -0.2770   24.4290 N   0  0  0  0  0  0  0  0  0  0  0  0
    9.8440   -0.6610   25.8270 C   0  0  0  0  0  0  0  0  0  0  0  0
    8.8720    0.0480   26.7640 C   0  0  0  0  0  0  0  0  0  0  0  0
    9.0680   -1.3870   23.0290 C   0  0  0  0  0  0  0  0  0  0  0  0
    8.0100   -1.0160   23.9800 C   0  0  0  0  0  0  0  0  0  0  0  0
    8.0870   -2.0960   24.9050 C   0  0  0  0  0  0  0  0  0  0  0  0
    7.5540   -2.1580   26.1470 N   0  0  0  0  0  0  0  0  0  0  0  0
    7.8630   -3.3670   26.7280 N   0  0  0  0  0  0  0  0  0  0  0  0
    8.5900   -4.1580   25.9510 C   0  0  0  0  0  0  0  0  0  0  0  0
    9.0610   -5.4730   26.3240 C   0  0  0  0  0  0  0  0  0  0  0  0
    8.9580   -3.5120   24.4500 S   0  0  0  0  0  0  0  0  0  0  0  0
    8.5290   -2.2150   21.9930 C   0  0  0  0  0  0  0  0  0  0  0  0
  1  2  2  3
  1  3  1  0
  3  4  2  0
  4  5  1  0
  5  6  2  0
  6  7  1  0
  7  8  1  0
  8  9  1  0
  6 10  1  0
 10 11  1  0
 11 12  1  0
 12 13  2  0
 13 14  1  0
 14 15  2  0
 15 16  1  0
 12 17  1  0
 15 17  1  0
  3 18  1  0
 10 18  2  0
M  END
