PET-SGC-d0156db4-1
     RDKit          3D

 22 23  0  0  0  0  0  0  0  0999 V2000
   10.2990   -3.7450   25.1610 C   0  0  0  0  0  0  0  0  0  0  0  0
    8.5520   -3.4530   24.9650 S   0  0  0  0  0  0  0  0  0  0  0  0
    7.9220   -3.7020   26.2460 O   0  0  0  0  0  0  0  0  0  0  0  0
    8.1080   -4.1230   23.7610 O   0  0  0  0  0  0  0  0  0  0  0  0
    8.4640   -1.7870   24.7320 N   0  0  0  0  0  0  0  0  0  0  0  0
    8.2120   -1.2480   23.4450 C   0  0  0  0  0  0  0  0  0  0  0  0
    9.0120   -0.1490   23.0630 C   0  0  2  0  0  0  0  0  0  0  0  0
    8.7160    0.4330   21.8200 C   0  0  0  0  0  0  0  0  0  0  0  0
    9.2730    1.4430   21.3740 O   0  0  0  0  0  0  0  0  0  0  0  0
    7.6980   -0.2570   21.1850 N   0  0  0  0  0  0  0  0  0  0  0  0
    6.9010    0.2120   20.1340 C   0  0  0  0  0  0  0  0  0  0  0  0
    5.8470    1.0820   20.4010 C   0  0  0  0  0  0  0  0  0  0  0  0
    5.0470    1.5600   19.3620 C   0  0  0  0  0  0  0  0  0  0  0  0
    5.3390    1.1470   18.0750 C   0  0  0  0  0  0  0  0  0  0  0  0
    6.3430    0.3120   17.7940 N   0  0  0  0  0  0  0  0  0  0  0  0
    7.0970   -0.1400   18.8160 C   0  0  0  0  0  0  0  0  0  0  0  0
   10.4690   -0.5780   23.2380 C   0  0  0  0  0  0  0  0  0  0  0  0
   11.1440   -1.2620   22.2280 C   0  0  0  0  0  0  0  0  0  0  0  0
   12.4670   -1.6870   22.3750 C   0  0  0  0  0  0  0  0  0  0  0  0
   13.2060   -1.4610   23.5390 C   0  0  0  0  0  0  0  0  0  0  0  0
   12.5350   -0.7130   24.6820 C   0  0  0  0  0  0  0  0  0  0  0  0
   11.1090   -0.2900   24.4400 C   0  0  0  0  0  0  0  0  0  0  0  0
  1  2  1  0
  2  3  2  0
  2  4  2  0
  2  5  1  0
  5  6  1  0
  7  6  1  6
  7  8  1  0
  8  9  2  0
  8 10  1  0
 10 11  1  0
 11 12  2  0
 12 13  1  0
 13 14  2  0
 14 15  1  0
 11 16  1  0
 15 16  2  0
  7 17  1  0
 17 18  2  0
 18 19  1  0
 19 20  2  0
 20 21  1  0
 17 22  1  0
 21 22  2  0
M  END
