PET-SGC-175e168c-1-vinylsulfonamide
     RDKit          3D

 25 26  0  0  0  0  0  0  0  0999 V2000
    8.9290   -3.5950   19.9800 C   0  0  0  0  0  0  0  0  0  0  0  0
    7.7030   -2.7450   19.8350 C   0  0  0  0  0  0  0  0  0  0  0  0
    7.0390   -3.5330   21.2270 S   0  0  0  0  0  0  0  0  0  0  0  0
    5.3440   -3.9020   21.1220 O   0  0  0  0  0  0  0  0  0  0  0  0
    8.0660   -4.5610   21.1570 O   0  0  0  0  0  0  0  0  0  0  0  0
    7.7970   -2.6790   22.6820 C   0  0  0  0  0  0  0  0  0  0  0  0
    9.0820   -1.8020   23.2740 C   0  0  0  0  0  0  0  0  0  0  0  0
   10.0400   -1.2760   24.2530 N   0  0  0  0  0  0  0  0  0  0  0  0
    9.9970   -0.1210   24.0170 C   0  0  0  0  0  0  0  0  0  0  0  0
   10.4990    1.1280   24.5150 N   0  0  0  0  0  0  0  0  0  0  0  0
   11.8590    0.9580   24.4700 C   0  0  0  0  0  0  0  0  0  0  0  0
   12.0570   -0.2190   25.4120 C   0  0  0  0  0  0  0  0  0  0  0  0
    9.0340   -0.7160   23.5040 C   0  0  0  0  0  0  0  0  0  0  0  0
    7.8870   -0.1030   23.5100 C   0  0  0  0  0  0  0  0  0  0  0  0
    8.0850    0.3310   22.1610 C   0  0  0  0  0  0  0  0  0  0  0  0
    8.7350    1.4950   21.8540 O   0  0  0  0  0  0  0  0  0  0  0  0
    7.5520   -0.6020   21.2180 N   0  0  0  0  0  0  0  0  0  0  0  0
    6.7550   -0.1280   20.2570 C   0  0  0  0  0  0  0  0  0  0  0  0
    7.2030   -0.3240   18.8240 C   0  0  0  0  0  0  0  0  0  0  0  0
    6.4680    0.1500   17.7890 N   0  0  0  0  0  0  0  0  0  0  0  0
    5.6840    0.5540   18.6620 C   0  0  0  0  0  0  0  0  0  0  0  0
    4.8390    0.9890   19.6000 C   0  0  0  0  0  0  0  0  0  0  0  0
    5.5260    0.5470   20.6460 C   0  0  0  0  0  0  0  0  0  0  0  0
    5.1440    0.7140   21.9650 C   0  0  0  0  0  0  0  0  0  0  0  0
    8.9510   -2.0530   22.7330 C   0  0  0  0  0  0  0  0  0  0  0  0
  1  2  1  0
  3  2  1  0
  3  4  2  0
  3  5  2  0
  3  6  1  0
  6  7  2  0
  7  8  1  0
  8  9  2  0
  9 10  1  0
 10 11  1  0
 11 12  1  0
  9 13  1  0
 13 14  1  0
 14 15  1  0
 15 16  2  0
 15 17  1  0
 17 18  1  0
 18 19  2  0
 19 20  1  0
 20 21  2  0
 21 22  1  0
 18 23  1  0
 22 23  2  0
 23 24  1  0
  6 25  1  0
 13 25  2  0
M  END
