PET-SGC-708ec5d8-1-chloroacetamide
     RDKit          3D

 20 21  0  0  0  0  0  0  0  0999 V2000
    8.0980   -3.5780   20.4230 C   0  0  0  0  0  0  0  0  0  0  0  0
    7.5770   -2.1700   19.8690 C   0  0  0  0  0  0  0  0  0  0  0  0
    6.8980   -2.8560   18.9440 O   0  0  0  0  0  0  0  0  0  0  0  0
    8.4860   -1.6320   21.0880 C   0  0  0  0  0  0  0  0  0  0  0  0
    8.9890   -2.4840   22.1090 C   0  0  0  0  0  0  0  0  0  0  0  0
    9.7380   -1.9980   23.1770 C   0  0  0  0  0  0  0  0  0  0  0  0
   10.0350   -0.5520   23.2450 C   0  0  0  0  0  0  0  0  0  0  0  0
    9.6360    0.3150   22.3320 C   0  0  0  0  0  0  0  0  0  0  0  0
    8.8470   -0.1980   21.2530 C   0  0  0  0  0  0  0  0  0  0  0  0
   10.1420    1.6140   22.7360 C   0  0  0  0  0  0  0  0  0  0  0  0
   10.1060    3.0710   22.2210 C   0  0  0  0  0  0  0  0  0  0  0  0
   11.3230    4.0050   22.6160 C   0  0  0  0  0  0  0  0  0  0  0  0
   11.0940    5.4130   22.3580 N   0  0  0  0  0  0  0  0  0  0  0  0
   10.3540    6.2510   23.3400 C   0  0  0  0  0  0  0  0  0  0  0  0
    9.1670    6.9080   22.6770 C   0  0  0  0  0  0  0  0  0  0  0  0
   10.6450    6.4050   24.5220 O   0  0  0  0  0  0  0  0  0  0  0  0
   10.8130    1.3860   23.9280 C   0  0  0  0  0  0  0  0  0  0  0  0
   10.6910    0.0530   24.1850 N   0  0  0  0  0  0  0  0  0  0  0  0
   11.1270   -0.6030   25.2730 C   0  0  0  0  0  0  0  0  0  0  0  0
   10.0460   -0.2510   26.0950 C   0  0  0  0  0  0  0  0  0  0  0  0
  1  2  1  0
  2  3  2  0
  2  4  1  0
  4  5  2  0
  5  6  1  0
  6  7  2  0
  7  8  1  0
  4  9  1  0
  8  9  2  0
  8 10  1  0
 10 11  1  0
 11 12  1  0
 12 13  1  0
 13 14  1  0
 14 15  1  0
 14 16  2  0
 10 17  2  0
  7 18  1  0
 17 18  1  0
 18 19  1  0
 19 20  1  0
M  END
