PET-SGC-6062269a-1-chloroacetamide
     RDKit          3D

 20 21  0  0  0  0  0  0  0  0999 V2000
    8.2900   -3.4570   20.4050 C   0  0  0  0  0  0  0  0  0  0  0  0
    7.7490   -2.0080   19.9800 C   0  0  0  0  0  0  0  0  0  0  0  0
    7.1490   -2.6750   18.9010 O   0  0  0  0  0  0  0  0  0  0  0  0
    8.5670   -1.5400   21.3590 C   0  0  0  0  0  0  0  0  0  0  0  0
    8.9930   -2.5530   22.2700 C   0  0  0  0  0  0  0  0  0  0  0  0
    9.6320   -2.2920   23.5010 C   0  0  0  0  0  0  0  0  0  0  0  0
    9.9180   -0.8960   23.9430 C   0  0  0  0  0  0  0  0  0  0  0  0
   10.5020   -0.5740   25.1700 N   0  0  0  0  0  0  0  0  0  0  0  0
    9.5560   -0.5340   26.3020 C   0  0  0  0  0  0  0  0  0  0  0  0
    8.5930    0.4410   26.0550 C   0  0  0  0  0  0  0  0  0  0  0  0
    9.5810    0.1180   23.1300 C   0  0  0  0  0  0  0  0  0  0  0  0
    9.9390    1.5470   23.6630 C   0  0  0  0  0  0  0  0  0  0  0  0
    9.6460    2.8740   22.9490 C   0  0  0  0  0  0  0  0  0  0  0  0
   10.0020    4.5600   23.4920 S   0  0  0  0  0  0  0  0  0  0  0  0
    8.9960    5.4850   22.5010 N   0  0  0  0  0  0  0  0  0  0  0  0
   11.3790    4.9400   23.2260 O   0  0  0  0  0  0  0  0  0  0  0  0
    9.4140    4.8000   24.7900 O   0  0  0  0  0  0  0  0  0  0  0  0
    9.0070    2.5940   21.7420 C   0  0  0  0  0  0  0  0  0  0  0  0
    8.6590    1.1730   21.2290 C   0  0  0  0  0  0  0  0  0  0  0  0
    8.9170   -0.1040   21.8580 C   0  0  0  0  0  0  0  0  0  0  0  0
  1  2  1  0
  2  3  2  0
  2  4  1  0
  4  5  2  0
  5  6  1  0
  6  7  2  0
  7  8  1  0
  8  9  1  0
  9 10  1  0
  7 11  1  0
 11 12  1  0
 12 13  2  0
 13 14  1  0
 14 15  1  0
 14 16  2  0
 14 17  2  0
 13 18  1  0
 18 19  2  0
  4 20  1  0
 11 20  2  0
 19 20  1  0
M  END
