PET-SGC-d5b502b1-1
     RDKit          3D

 24 25  0  0  0  0  0  0  0  0999 V2000
    5.0060    0.9270   21.8880 C   0  0  0  0  0  0  0  0  0  0  0  0
    5.5510    0.7200   20.4730 C   0  0  0  0  0  0  0  0  0  0  0  0
    4.8550    1.4190   19.3430 C   0  0  0  0  0  0  0  0  0  0  0  0
    5.3680    1.2190   18.0610 C   0  0  0  0  0  0  0  0  0  0  0  0
    6.4370    0.4390   17.8180 N   0  0  0  0  0  0  0  0  0  0  0  0
    7.0440   -0.1870   18.8600 C   0  0  0  0  0  0  0  0  0  0  0  0
    6.6500   -0.0790   20.1810 C   0  0  0  0  0  0  0  0  0  0  0  0
    7.2210   -0.6770   21.2220 N   0  0  0  0  0  0  0  0  0  0  0  0
    8.5650   -0.7000   21.5800 C   0  0  0  0  0  0  0  0  0  0  0  0
    9.3560    0.2460   21.5420 O   0  0  0  0  0  0  0  0  0  0  0  0
    8.9530   -1.9680   22.0200 C   0  0  0  0  0  0  0  0  0  0  0  0
    9.3250   -1.9170   23.4830 C   0  0  1  0  0  0  0  0  0  0  0  0
    9.3260   -3.2660   24.2040 C   0  0  0  0  0  0  0  0  0  0  0  0
    8.2320   -3.4190   24.9880 N   0  0  0  0  0  0  0  0  0  0  0  0
    8.3150   -4.4940   26.2830 S   0  0  0  0  0  0  0  0  0  0  0  0
    6.6290   -5.0620   26.4340 C   0  0  0  0  0  0  0  0  0  0  0  0
    9.1120   -5.6130   25.8580 O   0  0  0  0  0  0  0  0  0  0  0  0
    8.6210   -3.7400   27.4690 O   0  0  0  0  0  0  0  0  0  0  0  0
   10.6620   -1.2800   23.3220 C   0  0  0  0  0  0  0  0  0  0  0  0
   10.9000   -0.0150   24.0810 C   0  0  0  0  0  0  0  0  0  0  0  0
   12.2210    0.6400   23.8660 C   0  0  0  0  0  0  0  0  0  0  0  0
   13.2380    0.0280   22.9420 C   0  0  0  0  0  0  0  0  0  0  0  0
   12.9680   -1.1550   22.2810 C   0  0  0  0  0  0  0  0  0  0  0  0
   11.6290   -1.8370   22.4750 C   0  0  0  0  0  0  0  0  0  0  0  0
  1  2  1  0
  2  3  2  0
  3  4  1  0
  4  5  2  0
  5  6  1  0
  2  7  1  0
  6  7  2  0
  7  8  1  0
  8  9  1  0
  9 10  2  0
  9 11  1  0
 12 11  1  6
 12 13  1  0
 13 14  1  0
 15 14  1  0
 15 16  1  0
 15 17  2  0
 15 18  2  0
 12 19  1  0
 19 20  2  0
 20 21  1  0
 21 22  2  0
 22 23  1  0
 19 24  1  0
 23 24  2  0
M  END
