PET-SGC-6062269a-1-vinylsulfonamide
     RDKit          3D

 22 23  0  0  0  0  0  0  0  0999 V2000
    7.1530   -4.8400   20.6920 C   0  0  0  0  0  0  0  0  0  0  0  0
    7.6270   -4.0280   21.8810 C   0  0  0  0  0  0  0  0  0  0  0  0
    6.4860   -2.7180   22.1320 S   0  0  0  0  0  0  0  0  0  0  0  0
    5.0180   -3.2360   21.3400 O   0  0  0  0  0  0  0  0  0  0  0  0
    6.3560   -2.7940   23.5690 O   0  0  0  0  0  0  0  0  0  0  0  0
    7.5770   -1.0060   22.0350 C   0  0  0  0  0  0  0  0  0  0  0  0
    8.3750   -0.9570   23.2160 C   0  0  0  0  0  0  0  0  0  0  0  0
    8.5170   -1.7880   24.2380 C   0  0  0  0  0  0  0  0  0  0  0  0
    9.4750   -0.6560   24.7750 C   0  0  0  0  0  0  0  0  0  0  0  0
    9.4390   -1.6520   25.6890 N   0  0  0  0  0  0  0  0  0  0  0  0
    8.3610   -1.4850   26.6570 C   0  0  0  0  0  0  0  0  0  0  0  0
    8.6580   -0.3300   27.3460 C   0  0  0  0  0  0  0  0  0  0  0  0
    9.3500    0.2400   23.6830 C   0  0  0  0  0  0  0  0  0  0  0  0
   10.2340    1.5830   23.9830 C   0  0  0  0  0  0  0  0  0  0  0  0
   10.3680    2.8620   23.0570 C   0  0  0  0  0  0  0  0  0  0  0  0
   11.2050    4.4460   23.2620 S   0  0  0  0  0  0  0  0  0  0  0  0
    9.9580    5.4550   22.6990 N   0  0  0  0  0  0  0  0  0  0  0  0
   12.2710    4.5960   22.3540 O   0  0  0  0  0  0  0  0  0  0  0  0
   11.3900    5.0020   24.5690 O   0  0  0  0  0  0  0  0  0  0  0  0
    9.6690    2.6480   21.9040 C   0  0  0  0  0  0  0  0  0  0  0  0
    8.9050    1.3690   21.7840 C   0  0  0  0  0  0  0  0  0  0  0  0
    8.5630    0.1510   22.4290 C   0  0  0  0  0  0  0  0  0  0  0  0
  1  2  1  0
  3  2  1  0
  3  4  2  0
  3  5  2  0
  3  6  1  0
  6  7  2  0
  7  8  1  0
  8  9  2  0
  9 10  1  0
 10 11  1  0
 11 12  1  0
  9 13  1  0
 13 14  1  0
 14 15  2  0
 15 16  1  0
 16 17  1  0
 16 18  2  0
 16 19  2  0
 15 20  1  0
 20 21  2  0
  6 22  1  0
 13 22  2  0
 21 22  1  0
M  END
