PET-SGC-f818f65b-1
     RDKit          3D

 23 24  0  0  0  0  0  0  0  0999 V2000
    8.9020    6.6350   22.5070 C   0  0  0  0  0  0  0  0  0  0  0  0
   10.1350    6.3050   23.3520 C   0  0  0  0  0  0  0  0  0  0  0  0
   10.1390    6.4680   24.5770 O   0  0  0  0  0  0  0  0  0  0  0  0
   11.2750    5.7900   22.6140 N   0  0  0  0  0  0  0  0  0  0  0  0
   12.2420    5.0320   23.4120 C   0  0  0  0  0  0  0  0  0  0  0  0
   12.6540    3.6920   22.8080 C   0  0  0  0  0  0  0  0  0  0  0  0
   11.7270    2.5100   23.1130 C   0  0  0  0  0  0  0  0  0  0  0  0
   10.3650    2.7110   23.6930 C   0  0  0  0  0  0  0  0  0  0  0  0
    9.7030    1.5360   23.8370 N   0  0  0  0  0  0  0  0  0  0  0  0
   10.5410    0.5090   23.3820 C   0  0  0  0  0  0  0  0  0  0  0  0
   10.3390   -1.0410   23.2600 C   0  0  0  0  0  0  0  0  0  0  0  0
    9.1360   -1.6220   23.6100 C   0  0  0  0  0  0  0  0  0  0  0  0
    9.3230   -3.0120   24.2460 C   0  0  0  0  0  0  0  0  0  0  0  0
    8.0990   -3.4740   24.9270 N   0  0  0  0  0  0  0  0  0  0  0  0
    8.2420   -4.6480   26.1310 S   0  0  0  0  0  0  0  0  0  0  0  0
    6.5560   -5.1150   26.4740 C   0  0  0  0  0  0  0  0  0  0  0  0
    8.9910   -5.7470   25.5880 O   0  0  0  0  0  0  0  0  0  0  0  0
    8.7180   -3.9550   27.2840 O   0  0  0  0  0  0  0  0  0  0  0  0
   11.3880   -1.7980   22.7760 C   0  0  0  0  0  0  0  0  0  0  0  0
   12.5700   -1.2290   22.4090 C   0  0  0  0  0  0  0  0  0  0  0  0
   13.5390   -1.9890   21.9480 F   0  0  0  0  0  0  0  0  0  0  0  0
   12.7390    0.1830   22.5160 C   0  0  0  0  0  0  0  0  0  0  0  0
   11.7920    1.0860   22.9640 C   0  0  0  0  0  0  0  0  0  0  0  0
  1  2  1  0
  2  3  2  0
  2  4  1  0
  4  5  1  0
  5  6  1  0
  6  7  1  0
  7  8  2  0
  8  9  1  0
  9 10  1  0
 10 11  1  0
 11 12  1  0
 12 13  1  0
 13 14  1  0
 15 14  1  0
 15 16  1  0
 15 17  2  0
 15 18  2  0
 11 19  2  0
 19 20  1  0
 20 21  1  0
 20 22  2  0
  7 23  1  0
 10 23  2  0
 22 23  1  0
M  END
