PET-SGC-9a4d8c0f-1-acrylamide
     RDKit          3D

 18 18  0  0  0  0  0  0  0  0999 V2000
    6.9210   -5.6380   19.9990 C   0  0  0  0  0  0  0  0  0  0  0  0
    6.7140   -4.1350   20.2350 C   0  0  0  0  0  0  0  0  0  0  0  0
    6.1590   -3.8520   21.6170 C   0  0  0  0  0  0  0  0  0  0  0  0
    4.9530   -3.9980   21.8720 O   0  0  0  0  0  0  0  0  0  0  0  0
    7.1110   -3.3760   22.6580 C   0  0  0  0  0  0  0  0  0  0  0  0
    7.7040   -4.2020   23.6740 C   0  0  0  0  0  0  0  0  0  0  0  0
    8.6100   -3.7820   24.6710 N   0  0  0  0  0  0  0  0  0  0  0  0
    8.9460   -2.4800   24.6590 C   0  0  0  0  0  0  0  0  0  0  0  0
    8.8810   -1.2310   24.1570 N   0  0  0  0  0  0  0  0  0  0  0  0
    9.1320   -0.0560   24.8730 C   0  0  0  0  0  0  0  0  0  0  0  0
    9.2740   -0.1050   26.2600 C   0  0  0  0  0  0  0  0  0  0  0  0
    8.0940   -2.8690   23.7230 C   0  0  0  0  0  0  0  0  0  0  0  0
    7.7560   -4.3960   23.8140 C   0  0  0  0  0  0  0  0  0  0  0  0
    8.6480   -5.1200   24.9190 C   0  0  0  0  0  0  0  0  0  0  0  0
    8.0880   -5.1120   26.2270 C   0  0  0  0  0  0  0  0  0  0  0  0
    8.5830   -6.0190   27.1400 N   0  0  0  0  0  0  0  0  0  0  0  0
    7.0840   -4.2220   26.5560 N   0  0  0  0  0  0  0  0  0  0  0  0
    7.5280   -2.0750   22.7480 C   0  0  0  0  0  0  0  0  0  0  0  0
  1  2  1  0
  2  3  1  0
  3  4  2  0
  3  5  1  0
  5  6  2  0
  6  7  1  0
  7  8  2  0
  8  9  1  0
  9 10  1  0
 10 11  1  0
  8 12  1  0
 12 13  1  0
 13 14  1  0
 14 15  1  0
 15 16  2  3
 15 17  1  0
  5 18  1  0
 12 18  2  0
M  END
