PET-SGC-d0fd10df-1
     RDKit          3D

 26 27  0  0  0  0  0  0  0  0999 V2000
    9.5850   -1.5660   21.7960 C   0  0  0  0  0  0  0  0  0  0  0  0
    9.2770   -1.9120   23.1490 O   0  0  0  0  0  0  0  0  0  0  0  0
    9.3300   -0.8720   24.0200 C   0  0  0  0  0  0  0  0  0  0  0  0
    8.6550   -0.8680   25.0350 O   0  0  0  0  0  0  0  0  0  0  0  0
   10.2510    0.3380   23.7000 C   0  0  0  0  0  0  0  0  0  0  0  0
    9.5120    1.6860   23.8600 C   0  0  0  0  0  0  0  0  0  0  0  0
   10.3950    2.8820   23.5350 C   0  0  0  0  0  0  0  0  0  0  0  0
    9.7400    4.5390   23.6310 S   0  0  0  0  0  0  0  0  0  0  0  0
    8.6200    4.5140   22.3760 N   0  0  0  0  0  0  0  0  0  0  0  0
   10.7850    5.4590   23.2200 O   0  0  0  0  0  0  0  0  0  0  0  0
    8.9810    4.7530   24.8520 O   0  0  0  0  0  0  0  0  0  0  0  0
   11.7230    2.6630   23.1550 C   0  0  0  0  0  0  0  0  0  0  0  0
   12.3310    1.4130   23.0350 C   0  0  0  0  0  0  0  0  0  0  0  0
   11.6190    0.2400   23.2940 C   0  0  0  0  0  0  0  0  0  0  0  0
   12.2900   -0.9770   23.1250 C   0  0  0  0  0  0  0  0  0  0  0  0
   12.6480   -1.6500   24.3030 C   0  0  0  0  0  0  0  0  0  0  0  0
   13.4650   -2.7660   23.9600 C   0  0  0  0  0  0  0  0  0  0  0  0
   14.0340   -3.4220   24.8170 O   0  0  0  0  0  0  0  0  0  0  0  0
   13.4730   -2.9120   22.5560 N   0  0  0  0  0  0  0  0  0  0  0  0
   13.9220   -3.8980   21.4770 C   0  0  0  0  0  0  0  0  0  0  0  0
   15.0850   -4.8600   21.3200 C   0  0  0  0  0  0  0  0  0  0  0  0
   15.5050   -5.6240   20.4950 N   0  0  0  0  0  0  0  0  0  0  0  0
   14.7300   -5.4930   19.6320 C   0  0  0  0  0  0  0  0  0  0  0  0
   13.5330   -4.6380   19.5950 C   0  0  0  0  0  0  0  0  0  0  0  0
   13.1500   -3.8370   20.5540 C   0  0  0  0  0  0  0  0  0  0  0  0
   12.0820   -3.0010   20.6840 C   0  0  0  0  0  0  0  0  0  0  0  0
  1  2  1  0
  2  3  1  0
  3  4  2  0
  3  5  1  0
  5  6  2  0
  6  7  1  0
  7  8  1  0
  8  9  1  0
  8 10  2  0
  8 11  2  0
  7 12  2  0
 12 13  1  0
  5 14  1  0
 13 14  2  0
 14 15  1  0
 15 16  1  0
 16 17  1  0
 17 18  2  0
 17 19  1  0
 19 20  1  0
 20 21  2  0
 21 22  1  0
 22 23  2  0
 23 24  1  0
 20 25  1  0
 24 25  2  0
 25 26  1  0
M  END
