PET-SGC-39d74636-2-vinylsulfonamide
     RDKit          3D

 22 23  0  0  0  0  0  0  0  0999 V2000
    6.0690   -5.2640   20.0820 C   0  0  0  0  0  0  0  0  0  0  0  0
    5.9510   -5.1420   21.5570 C   0  0  0  0  0  0  0  0  0  0  0  0
    5.3220   -3.5190   21.7890 S   0  0  0  0  0  0  0  0  0  0  0  0
    4.0910   -3.6940   22.5290 O   0  0  0  0  0  0  0  0  0  0  0  0
    5.2560   -2.8420   20.5110 O   0  0  0  0  0  0  0  0  0  0  0  0
    6.6830   -2.8150   22.6940 C   0  0  0  0  0  0  0  0  0  0  0  0
    7.0440   -2.4790   24.1020 C   0  0  0  0  0  0  0  0  0  0  0  0
    8.3860   -1.8460   24.5880 N   0  0  0  0  0  0  0  0  0  0  0  0
    9.5440   -1.4590   23.7550 C   0  0  0  0  0  0  0  0  0  0  0  0
   10.0820   -1.3920   22.4580 N   0  0  0  0  0  0  0  0  0  0  0  0
   11.4540   -1.8810   22.2730 C   0  0  0  0  0  0  0  0  0  0  0  0
   12.3930   -0.9020   22.6550 C   0  0  0  0  0  0  0  0  0  0  0  0
    8.4790   -1.9620   23.4090 C   0  0  0  0  0  0  0  0  0  0  0  0
    7.6830   -2.1750   24.7470 C   0  0  0  0  0  0  0  0  0  0  0  0
    7.9390   -3.4820   25.3930 N   0  0  0  0  0  0  0  0  0  0  0  0
    7.1370   -3.8310   26.5750 C   0  0  0  0  0  0  0  0  0  0  0  0
    7.4670   -5.2180   27.1260 C   0  0  0  0  0  0  0  0  0  0  0  0
    8.9270   -5.2770   27.5120 C   0  0  0  0  0  0  0  0  0  0  0  0
    9.1930   -4.3100   28.5190 O   0  0  0  0  0  0  0  0  0  0  0  0
    9.8200   -5.0130   26.2920 C   0  0  0  0  0  0  0  0  0  0  0  0
    9.4010   -3.7410   25.5360 C   0  0  0  0  0  0  0  0  0  0  0  0
    7.7960   -2.3720   22.4170 C   0  0  0  0  0  0  0  0  0  0  0  0
  1  2  1  0
  3  2  1  0
  3  4  2  0
  3  5  2  0
  3  6  1  0
  6  7  2  0
  7  8  1  0
  8  9  2  0
  9 10  1  0
 10 11  1  0
 11 12  1  0
  9 13  1  0
 13 14  1  0
 14 15  1  0
 15 16  1  0
 16 17  1  0
 17 18  1  0
 18 19  1  0
 18 20  1  0
 15 21  1  0
 20 21  1  0
  6 22  1  0
 13 22  2  0
M  END
