PET-SGC-34dcf0dc-1-vinylsulfonamide
     RDKit          3D

 22 23  0  0  0  0  0  0  0  0999 V2000
    7.8550   -3.1700   19.2780 C   0  0  0  0  0  0  0  0  0  0  0  0
    6.4910   -3.4200   19.8260 C   0  0  0  0  0  0  0  0  0  0  0  0
    6.5130   -3.6400   21.5680 S   0  0  0  0  0  0  0  0  0  0  0  0
    4.9660   -3.5800   21.7170 O   0  0  0  0  0  0  0  0  0  0  0  0
    7.0910   -4.9340   21.8590 O   0  0  0  0  0  0  0  0  0  0  0  0
    7.7530   -2.4510   22.2510 C   0  0  0  0  0  0  0  0  0  0  0  0
    7.6600   -3.2010   23.4500 C   0  0  0  0  0  0  0  0  0  0  0  0
    8.6430   -2.4600   24.2020 N   0  0  0  0  0  0  0  0  0  0  0  0
    9.4340   -1.3300   23.9030 C   0  0  0  0  0  0  0  0  0  0  0  0
   10.3580   -0.7890   24.7860 N   0  0  0  0  0  0  0  0  0  0  0  0
   11.6930   -1.3440   24.5830 C   0  0  0  0  0  0  0  0  0  0  0  0
   12.6450   -0.3540   24.6390 C   0  0  0  0  0  0  0  0  0  0  0  0
    9.1960   -0.8430   22.6970 C   0  0  0  0  0  0  0  0  0  0  0  0
   10.0740    0.3030   22.7450 C   0  0  1  0  0  0  0  0  0  0  0  0
    9.0470    0.6420   21.6890 C   0  0  0  0  0  0  0  0  0  0  0  0
    7.7360    0.8270   22.4920 C   0  0  0  0  0  0  0  0  0  0  0  0
    8.2360    1.3450   23.8230 C   0  0  0  0  0  0  0  0  0  0  0  0
    9.7060    1.6020   23.4620 C   0  0  2  0  0  0  0  0  0  0  0  0
    9.6970    2.6430   22.3510 C   0  0  0  0  0  0  0  0  0  0  0  0
   10.4640    3.7480   22.4280 N   0  0  0  0  0  0  0  0  0  0  0  0
    8.9860    2.4570   21.3530 O   0  0  0  0  0  0  0  0  0  0  0  0
    8.5810   -1.8980   23.0950 C   0  0  0  0  0  0  0  0  0  0  0  0
  1  2  1  0
  3  2  1  0
  3  4  2  0
  3  5  2  0
  3  6  1  0
  6  7  2  0
  7  8  1  0
  8  9  2  0
  9 10  1  0
 10 11  1  0
 11 12  1  0
  9 13  1  0
 14 13  1  1
 14 15  1  0
 15 16  1  0
 16 17  1  0
 14 18  1  0
 17 18  1  0
 18 19  1  6
 19 20  1  0
 19 21  2  0
  6 22  1  0
 13 22  2  0
M  END
