PET-SGC-9a4d8c0f-1-vinylsulfonamide
     RDKit          3D

 19 19  0  0  0  0  0  0  0  0999 V2000
    6.5350   -4.0630   19.6520 C   0  0  0  0  0  0  0  0  0  0  0  0
    7.5570   -3.0840   19.5820 C   0  0  0  0  0  0  0  0  0  0  0  0
    6.6750   -2.2750   20.7610 S   0  0  0  0  0  0  0  0  0  0  0  0
    5.1010   -3.1710   20.8860 O   0  0  0  0  0  0  0  0  0  0  0  0
    6.9290   -1.0130   20.1030 O   0  0  0  0  0  0  0  0  0  0  0  0
    7.8510   -1.8760   22.1560 C   0  0  0  0  0  0  0  0  0  0  0  0
    8.8150   -0.6930   22.3530 C   0  0  0  0  0  0  0  0  0  0  0  0
    9.6700   -0.0810   23.1470 N   0  0  0  0  0  0  0  0  0  0  0  0
    9.5270   -0.9100   24.1730 C   0  0  0  0  0  0  0  0  0  0  0  0
   10.1030   -0.6850   25.4080 N   0  0  0  0  0  0  0  0  0  0  0  0
    9.1460   -0.7250   26.4350 C   0  0  0  0  0  0  0  0  0  0  0  0
    9.3000    0.2370   27.4060 C   0  0  0  0  0  0  0  0  0  0  0  0
    8.6930   -2.1130   24.1060 C   0  0  0  0  0  0  0  0  0  0  0  0
    8.6110   -2.9680   25.1830 C   0  0  0  0  0  0  0  0  0  0  0  0
    7.9930   -4.3540   24.9900 C   0  0  0  0  0  0  0  0  0  0  0  0
    8.5680   -5.3840   25.9440 C   0  0  0  0  0  0  0  0  0  0  0  0
    9.6770   -5.9770   25.7310 N   0  0  0  0  0  0  0  0  0  0  0  0
    7.9070   -5.7040   27.0810 N   0  0  0  0  0  0  0  0  0  0  0  0
    7.8030   -2.7660   23.1770 C   0  0  0  0  0  0  0  0  0  0  0  0
  1  2  1  0
  3  2  1  0
  3  4  2  0
  3  5  2  0
  3  6  1  0
  6  7  2  0
  7  8  1  0
  8  9  2  0
  9 10  1  0
 10 11  1  0
 11 12  1  0
  9 13  1  0
 13 14  1  0
 14 15  1  0
 15 16  1  0
 16 17  2  3
 16 18  1  0
  6 19  1  0
 13 19  2  0
M  END
