PET-SGC-39d74636-2-acrylamide
     RDKit          3D

 21 22  0  0  0  0  0  0  0  0999 V2000
    6.8080   -5.5380   20.6300 C   0  0  0  0  0  0  0  0  0  0  0  0
    6.6750   -4.7810   21.9340 C   0  0  0  0  0  0  0  0  0  0  0  0
    6.2490   -3.3730   21.6310 C   0  0  0  0  0  0  0  0  0  0  0  0
    4.9700   -3.2430   21.3000 O   0  0  0  0  0  0  0  0  0  0  0  0
    7.4380   -2.3020   21.6920 C   0  0  0  0  0  0  0  0  0  0  0  0
    8.3970   -2.0300   22.2820 C   0  0  0  0  0  0  0  0  0  0  0  0
    9.2180   -1.3420   22.3450 N   0  0  0  0  0  0  0  0  0  0  0  0
    9.8870   -0.5000   22.1170 C   0  0  0  0  0  0  0  0  0  0  0  0
   11.0750    0.0020   22.7000 N   0  0  0  0  0  0  0  0  0  0  0  0
   11.1140    1.4370   22.9580 C   0  0  0  0  0  0  0  0  0  0  0  0
    9.8420    2.1140   22.4520 C   0  0  0  0  0  0  0  0  0  0  0  0
    9.5660   -1.7040   23.0310 C   0  0  0  0  0  0  0  0  0  0  0  0
   10.5010   -1.9910   24.2100 C   0  0  0  0  0  0  0  0  0  0  0  0
    9.8920   -2.7570   25.3320 N   0  0  0  0  0  0  0  0  0  0  0  0
   10.5990   -4.0390   25.4630 C   0  0  0  0  0  0  0  0  0  0  0  0
   10.0520   -5.0480   26.4700 C   0  0  0  0  0  0  0  0  0  0  0  0
    8.5510   -4.9310   26.6880 C   0  0  0  0  0  0  0  0  0  0  0  0
    8.3360   -4.2290   27.9080 O   0  0  0  0  0  0  0  0  0  0  0  0
    7.9040   -4.2310   25.5030 C   0  0  0  0  0  0  0  0  0  0  0  0
    8.4690   -2.8250   25.3240 C   0  0  0  0  0  0  0  0  0  0  0  0
    8.2600   -2.7900   22.8980 C   0  0  0  0  0  0  0  0  0  0  0  0
  1  2  1  0
  2  3  1  0
  3  4  2  0
  3  5  1  0
  5  6  2  0
  6  7  1  0
  7  8  2  0
  8  9  1  0
  9 10  1  0
 10 11  1  0
  8 12  1  0
 12 13  1  0
 13 14  1  0
 14 15  1  0
 15 16  1  0
 16 17  1  0
 17 18  1  0
 17 19  1  0
 14 20  1  0
 19 20  1  0
  5 21  1  0
 12 21  2  0
M  END
