PET-SGC-cb62ec31-1-acrylamide
     RDKit          3D

 22 23  0  0  0  0  0  0  0  0999 V2000
    7.3890   -3.1510   18.8820 C   0  0  0  0  0  0  0  0  0  0  0  0
    7.2570   -2.1610   20.0320 C   0  0  0  0  0  0  0  0  0  0  0  0
    6.7050   -2.9030   21.2520 C   0  0  0  0  0  0  0  0  0  0  0  0
    5.2120   -3.5060   21.2520 O   0  0  0  0  0  0  0  0  0  0  0  0
    8.1410   -2.8370   22.0880 C   0  0  0  0  0  0  0  0  0  0  0  0
    8.9830   -2.2480   22.9420 C   0  0  0  0  0  0  0  0  0  0  0  0
    8.3550   -0.9130   23.5660 C   0  0  0  0  0  0  0  0  0  0  0  0
    9.2940   -0.5670   24.3420 C   0  0  0  0  0  0  0  0  0  0  0  0
    9.3830    0.5320   25.2770 N   0  0  0  0  0  0  0  0  0  0  0  0
    9.4040   -0.0410   26.6030 C   0  0  0  0  0  0  0  0  0  0  0  0
   10.4840   -0.4060   26.1620 O   0  0  0  0  0  0  0  0  0  0  0  0
    8.1590    0.6000   26.5520 C   0  0  0  0  0  0  0  0  0  0  0  0
    7.3840    0.2880   27.7160 O   0  0  0  0  0  0  0  0  0  0  0  0
    6.9380   -1.0620   27.7810 C   0  0  0  0  0  0  0  0  0  0  0  0
    6.5040   -1.6260   26.4020 C   0  0  0  0  0  0  0  0  0  0  0  0
    6.0500   -2.9340   26.3310 C   0  0  0  0  0  0  0  0  0  0  0  0
    5.9610   -3.8230   27.5230 C   0  0  0  0  0  0  0  0  0  0  0  0
    5.5200   -5.1690   27.5540 C   0  0  0  0  0  0  0  0  0  0  0  0
    6.3660   -3.2600   28.7670 C   0  0  0  0  0  0  0  0  0  0  0  0
    6.8410   -1.9290   28.9120 C   0  0  0  0  0  0  0  0  0  0  0  0
    9.8040   -1.5640   23.8330 N   0  0  0  0  0  0  0  0  0  0  0  0
    8.3770   -1.7310   22.9600 C   0  0  0  0  0  0  0  0  0  0  0  0
  1  2  1  0
  2  3  1  0
  3  4  2  0
  3  5  1  0
  5  6  2  0
  6  7  1  0
  7  8  2  0
  8  9  1  0
  9 10  1  0
 10 11  2  0
 10 12  1  0
 12 13  1  0
 13 14  1  0
 14 15  2  0
 15 16  1  0
 16 17  2  0
 17 18  1  0
 17 19  1  0
 14 20  1  0
 19 20  2  0
  8 21  1  0
  5 22  1  0
 21 22  2  0
M  END
