PET-SGC-175e168c-1-nitrile
     RDKit          3D

 22 23  0  0  0  0  0  0  0  0999 V2000
    7.7710   -3.5710   19.5490 C   0  0  0  0  0  0  0  0  0  0  0  0
    7.4120   -3.0370   18.3810 N   0  0  0  0  0  0  0  0  0  0  0  0
    8.1480   -2.8440   20.8060 C   0  0  0  0  0  0  0  0  0  0  0  0
    7.1610   -2.1390   21.8500 C   0  0  0  0  0  0  0  0  0  0  0  0
    7.7110   -1.4330   23.1500 N   0  0  0  0  0  0  0  0  0  0  0  0
    9.0880   -1.3550   23.5180 C   0  0  0  0  0  0  0  0  0  0  0  0
    9.5740   -0.7470   24.6560 N   0  0  0  0  0  0  0  0  0  0  0  0
    8.5380   -0.1260   25.4900 C   0  0  0  0  0  0  0  0  0  0  0  0
    9.0500    0.1460   26.9010 C   0  0  0  0  0  0  0  0  0  0  0  0
    9.7560   -1.9990   22.5460 C   0  0  0  0  0  0  0  0  0  0  0  0
    8.3000   -1.8890   22.3410 C   0  0  0  0  0  0  0  0  0  0  0  0
    7.9880   -0.5880   21.8950 C   0  0  0  0  0  0  0  0  0  0  0  0
    7.9790    0.5620   22.7090 O   0  0  0  0  0  0  0  0  0  0  0  0
    7.7290   -0.6640   20.5510 N   0  0  0  0  0  0  0  0  0  0  0  0
    6.6970   -0.0870   19.8970 C   0  0  0  0  0  0  0  0  0  0  0  0
    6.8230    0.2300   18.5730 C   0  0  0  0  0  0  0  0  0  0  0  0
    5.8890    0.8180   17.7700 N   0  0  0  0  0  0  0  0  0  0  0  0
    4.6750    1.1040   18.4700 C   0  0  0  0  0  0  0  0  0  0  0  0
    4.4530    0.8110   19.8080 C   0  0  0  0  0  0  0  0  0  0  0  0
    5.4760    0.2020   20.5440 C   0  0  0  0  0  0  0  0  0  0  0  0
    5.2660   -0.0990   21.8860 C   0  0  0  0  0  0  0  0  0  0  0  0
    9.3210   -2.6030   21.4340 C   0  0  0  0  0  0  0  0  0  0  0  0
  1  2  2  3
  1  3  1  0
  3  4  2  0
  4  5  1  0
  5  6  2  0
  6  7  1  0
  7  8  1  0
  8  9  1  0
  6 10  1  0
 10 11  1  0
 11 12  1  0
 12 13  2  0
 12 14  1  0
 14 15  1  0
 15 16  2  0
 16 17  1  0
 17 18  2  0
 18 19  1  0
 15 20  1  0
 19 20  2  0
 20 21  1  0
  3 22  1  0
 10 22  2  0
M  END
