PET-SGC-cb62ec31-1-chloroacetamide
     RDKit          3D

 21 22  0  0  0  0  0  0  0  0999 V2000
    8.6140   -3.8150   19.4500 C   0  0  0  0  0  0  0  0  0  0  0  0
    7.8040   -2.8330   20.0520 C   0  0  0  0  0  0  0  0  0  0  0  0
    6.6300   -2.9460   19.3510 O   0  0  0  0  0  0  0  0  0  0  0  0
    8.3980   -2.0530   21.3220 C   0  0  0  0  0  0  0  0  0  0  0  0
    7.5590   -1.4450   22.2510 C   0  0  0  0  0  0  0  0  0  0  0  0
    8.0240   -0.7870   23.4020 C   0  0  0  0  0  0  0  0  0  0  0  0
    9.4690   -0.6760   23.7300 C   0  0  0  0  0  0  0  0  0  0  0  0
    9.7640   -0.0200   24.9370 N   0  0  0  0  0  0  0  0  0  0  0  0
    8.7040   -0.3520   25.9050 C   0  0  0  0  0  0  0  0  0  0  0  0
    7.6900   -1.3200   25.6920 O   0  0  0  0  0  0  0  0  0  0  0  0
    8.7550    0.3730   27.1050 C   0  0  0  0  0  0  0  0  0  0  0  0
    7.7980    0.1650   27.8570 O   0  0  0  0  0  0  0  0  0  0  0  0
    6.6620   -0.2940   27.2460 C   0  0  0  0  0  0  0  0  0  0  0  0
    5.7510    0.4800   26.2900 C   0  0  0  0  0  0  0  0  0  0  0  0
    4.5330   -0.2580   25.7190 C   0  0  0  0  0  0  0  0  0  0  0  0
    4.2430   -1.5890   26.0460 C   0  0  0  0  0  0  0  0  0  0  0  0
    3.0730   -2.3870   25.5320 C   0  0  0  0  0  0  0  0  0  0  0  0
    5.1410   -2.2460   26.9480 C   0  0  0  0  0  0  0  0  0  0  0  0
    6.2900   -1.6320   27.5200 C   0  0  0  0  0  0  0  0  0  0  0  0
   10.3630   -1.2130   22.8840 N   0  0  0  0  0  0  0  0  0  0  0  0
    9.8040   -1.9010   21.6860 C   0  0  0  0  0  0  0  0  0  0  0  0
  1  2  1  0
  2  3  2  0
  2  4  1  0
  4  5  2  0
  5  6  1  0
  6  7  2  0
  7  8  1  0
  8  9  1  0
  9 10  2  0
  9 11  1  0
 11 12  1  0
 12 13  1  0
 13 14  2  0
 14 15  1  0
 15 16  2  0
 16 17  1  0
 16 18  1  0
 13 19  1  0
 18 19  2  0
  7 20  1  0
  4 21  1  0
 20 21  2  0
M  END
