PET-SGC-708ec5d8-1-nitrile
     RDKit          3D

 19 20  0  0  0  0  0  0  0  0999 V2000
    7.9840   -2.9300   19.6720 C   0  0  0  0  0  0  0  0  0  0  0  0
    7.5230   -2.4820   18.4660 N   0  0  0  0  0  0  0  0  0  0  0  0
    8.3890   -1.9370   21.0000 C   0  0  0  0  0  0  0  0  0  0  0  0
    7.4660   -1.9790   22.2040 C   0  0  0  0  0  0  0  0  0  0  0  0
    7.7000   -1.0890   23.4210 C   0  0  0  0  0  0  0  0  0  0  0  0
    8.7700   -0.1980   23.4770 C   0  0  0  0  0  0  0  0  0  0  0  0
    9.6990   -0.0650   22.4920 C   0  0  0  0  0  0  0  0  0  0  0  0
    9.5280   -0.9200   21.3030 C   0  0  0  0  0  0  0  0  0  0  0  0
   10.5730    1.0060   23.1090 C   0  0  0  0  0  0  0  0  0  0  0  0
   11.7610    1.7760   22.8380 C   0  0  0  0  0  0  0  0  0  0  0  0
   11.7660    3.3320   22.6250 C   0  0  0  0  0  0  0  0  0  0  0  0
   10.6330    4.1090   22.4890 N   0  0  0  0  0  0  0  0  0  0  0  0
   10.4800    5.2260   23.2530 C   0  0  0  0  0  0  0  0  0  0  0  0
    9.7460    6.3240   22.7320 C   0  0  0  0  0  0  0  0  0  0  0  0
   10.9490    5.3250   24.3810 O   0  0  0  0  0  0  0  0  0  0  0  0
    9.9780    1.3080   24.3270 C   0  0  0  0  0  0  0  0  0  0  0  0
    9.0360    0.6560   24.4900 N   0  0  0  0  0  0  0  0  0  0  0  0
    8.2840    0.7930   25.6310 C   0  0  0  0  0  0  0  0  0  0  0  0
    8.8060    0.0680   26.7140 C   0  0  0  0  0  0  0  0  0  0  0  0
  1  2  2  3
  1  3  1  0
  3  4  2  0
  4  5  1  0
  5  6  2  0
  6  7  1  0
  3  8  1  0
  7  8  2  0
  7  9  1  0
  9 10  1  0
 10 11  1  0
 11 12  1  0
 12 13  1  0
 13 14  1  0
 13 15  2  0
  9 16  2  0
  6 17  1  0
 16 17  1  0
 17 18  1  0
 18 19  1  0
M  END
