PET-SGC-cb62ec31-1-nitrile
     RDKit          3D

 20 21  0  0  0  0  0  0  0  0999 V2000
    8.0770   -3.3150   19.7360 C   0  0  0  0  0  0  0  0  0  0  0  0
    7.6990   -2.6890   18.6570 N   0  0  0  0  0  0  0  0  0  0  0  0
    8.7640   -2.5090   21.1150 C   0  0  0  0  0  0  0  0  0  0  0  0
    7.6660   -1.9440   22.0490 C   0  0  0  0  0  0  0  0  0  0  0  0
    8.4860   -1.2590   23.1860 C   0  0  0  0  0  0  0  0  0  0  0  0
    9.8290   -1.1060   23.4320 C   0  0  0  0  0  0  0  0  0  0  0  0
   10.2450   -0.3970   24.5690 N   0  0  0  0  0  0  0  0  0  0  0  0
    9.4250    0.5180   25.2260 C   0  0  0  0  0  0  0  0  0  0  0  0
    9.3980    1.7120   24.9490 O   0  0  0  0  0  0  0  0  0  0  0  0
    8.6040   -0.0240   26.2140 C   0  0  0  0  0  0  0  0  0  0  0  0
    7.6690   -0.9690   25.7680 O   0  0  0  0  0  0  0  0  0  0  0  0
    7.8160   -2.1800   26.3210 C   0  0  0  0  0  0  0  0  0  0  0  0
    8.3760   -2.3900   27.5830 C   0  0  0  0  0  0  0  0  0  0  0  0
    8.5070   -3.7800   28.1120 C   0  0  0  0  0  0  0  0  0  0  0  0
    8.0040   -4.8700   27.2140 C   0  0  0  0  0  0  0  0  0  0  0  0
    8.1000   -6.1710   27.6510 C   0  0  0  0  0  0  0  0  0  0  0  0
    7.4570   -4.5630   25.9690 C   0  0  0  0  0  0  0  0  0  0  0  0
    7.3660   -3.2470   25.5320 C   0  0  0  0  0  0  0  0  0  0  0  0
   10.7280   -1.6040   22.6200 N   0  0  0  0  0  0  0  0  0  0  0  0
   10.1950   -2.2750   21.5220 C   0  0  0  0  0  0  0  0  0  0  0  0
  1  2  2  3
  1  3  1  0
  3  4  2  0
  4  5  1  0
  5  6  2  0
  6  7  1  0
  7  8  1  0
  8  9  2  0
  8 10  1  0
 10 11  1  0
 11 12  1  0
 12 13  2  0
 13 14  1  0
 14 15  2  0
 15 16  1  0
 15 17  1  0
 12 18  1  0
 17 18  2  0
  6 19  1  0
  3 20  1  0
 19 20  2  0
M  END
