PET-SGC-f913cec9-1
     RDKit          3D

 34 37  0  0  0  0  0  0  0  0999 V2000
   11.3770    6.3010   23.3160 N   0  0  0  0  0  0  0  0  0  0  0  0
   10.1910    5.2000   23.7630 S   0  0  0  0  0  0  0  0  0  0  0  0
    9.1090    5.3740   22.8330 O   0  0  0  0  0  0  0  0  0  0  0  0
    9.9780    5.3960   25.1850 O   0  0  0  0  0  0  0  0  0  0  0  0
   10.9750    3.6500   23.4360 C   0  0  0  0  0  0  0  0  0  0  0  0
   12.4030    3.5590   22.9780 C   0  0  0  0  0  0  0  0  0  0  0  0
   13.0060    2.1710   22.7420 C   0  0  0  0  0  0  0  0  0  0  0  0
   12.2350    0.8640   22.9390 C   0  0  0  0  0  0  0  0  0  0  0  0
   10.7730    1.0980   23.3830 C   0  0  0  0  0  0  0  0  0  0  0  0
   10.2170    2.4870   23.6180 C   0  0  0  0  0  0  0  0  0  0  0  0
    9.9630   -0.1290   23.5540 N   0  0  0  0  0  0  0  0  0  0  0  0
    8.5060   -0.1690   23.6260 C   0  0  0  0  0  0  0  0  0  0  0  0
    7.6750    0.8270   22.8840 C   0  0  0  0  0  0  0  0  0  0  0  0
    6.2830    0.5290   22.4770 C   0  0  1  0  0  0  0  0  0  0  0  0
    5.2650    1.4690   22.8660 C   0  0  0  0  0  0  0  0  0  0  0  0
    4.3500    2.2600   22.7570 N   0  0  0  0  0  0  0  0  0  0  0  0
    3.1330    2.1420   23.4530 C   0  0  0  0  0  0  0  0  0  0  0  0
    2.9300    1.2840   24.2990 O   0  0  0  0  0  0  0  0  0  0  0  0
    2.1790    3.0900   23.0950 N   0  0  0  0  0  0  0  0  0  0  0  0
    0.9740    3.2510   23.8000 C   0  0  0  0  0  0  0  0  0  0  0  0
   -0.1240    2.8140   23.0290 C   0  0  0  0  0  0  0  0  0  0  0  0
   -1.3730    3.0780   23.6120 C   0  0  0  0  0  0  0  0  0  0  0  0
   -1.4900    4.3490   24.1800 C   0  0  0  0  0  0  0  0  0  0  0  0
   -0.4160    4.8360   24.9580 C   0  0  0  0  0  0  0  0  0  0  0  0
    0.9880    4.5130   24.3860 C   0  0  0  0  0  0  0  0  0  0  0  0
    6.1470    0.4890   20.9300 C   0  0  0  0  0  0  0  0  0  0  0  0
    5.2090    1.3400   20.0370 C   0  0  0  0  0  0  0  0  0  0  0  0
    5.2150    1.1770   18.5020 C   0  0  0  0  0  0  0  0  0  0  0  0
    6.0120    0.3090   17.8480 N   0  0  0  0  0  0  0  0  0  0  0  0
    6.8140   -0.4290   18.6470 C   0  0  0  0  0  0  0  0  0  0  0  0
    6.9270   -0.3850   20.1780 C   0  0  0  0  0  0  0  0  0  0  0  0
   10.7370   -1.3980   23.6820 C   0  0  0  0  0  0  0  0  0  0  0  0
   11.8100   -1.5680   22.5990 C   0  0  0  0  0  0  0  0  0  0  0  0
   12.8670   -0.4850   22.7140 C   0  0  0  0  0  0  0  0  0  0  0  0
  2  1  1  0
  2  3  2  0
  2  4  2  0
  2  5  1  0
  5  6  2  0
  6  7  1  0
  7  8  2  0
  8  9  1  0
  5 10  1  0
  9 10  2  0
  9 11  1  0
 11 12  1  0
 12 13  1  0
 14 13  1  6
 14 15  1  0
 15 16  1  0
 16 17  1  0
 17 18  2  0
 17 19  1  0
 19 20  1  0
 20 21  1  0
 21 22  1  0
 22 23  1  0
 23 24  1  0
 20 25  1  0
 24 25  1  0
 14 26  1  0
 26 27  2  0
 27 28  1  0
 28 29  2  0
 29 30  1  0
 26 31  1  0
 30 31  2  0
 11 32  1  0
 32 33  1  0
  8 34  1  0
 33 34  1  0
M  END
