PET-SGC-c429dc17-1
     RDKit          3D

 22 23  0  0  0  0  0  0  0  0999 V2000
    9.9610   -0.8990   22.5310 C   0  0  0  0  0  0  0  0  0  0  0  0
    9.0540   -0.0690   21.6670 C   0  0  0  0  0  0  0  0  0  0  0  0
    9.2700    1.3290   21.3740 O   0  0  0  0  0  0  0  0  0  0  0  0
    7.8840   -0.7340   21.1260 N   0  0  0  0  0  0  0  0  0  0  0  0
    6.8100   -0.1910   20.2770 C   0  0  0  0  0  0  0  0  0  0  0  0
    7.0460   -0.2890   18.7850 C   0  0  0  0  0  0  0  0  0  0  0  0
    6.0770    0.2380   17.8000 N   0  0  0  0  0  0  0  0  0  0  0  0
    4.8530    0.8660   18.2650 C   0  0  0  0  0  0  0  0  0  0  0  0
    4.5440    0.9870   19.7320 C   0  0  0  0  0  0  0  0  0  0  0  0
    5.4940    0.4690   20.7990 C   0  0  0  0  0  0  0  0  0  0  0  0
    5.0640    0.6560   22.2130 C   0  0  0  0  0  0  0  0  0  0  0  0
    5.2350    1.9150   22.7480 C   0  0  0  0  0  0  0  0  0  0  0  0
    3.9190    2.5910   22.6860 N   0  0  0  0  0  0  0  0  0  0  0  0
    2.7850    2.3050   23.4820 C   0  0  0  0  0  0  0  0  0  0  0  0
    2.7260    1.2630   24.3610 O   0  0  0  0  0  0  0  0  0  0  0  0
    1.7370    3.2220   23.2570 N   0  0  0  0  0  0  0  0  0  0  0  0
    0.5660    3.3360   24.0030 C   0  0  0  0  0  0  0  0  0  0  0  0
   -0.5550    2.9380   23.1470 C   0  0  0  0  0  0  0  0  0  0  0  0
   -1.8150    3.3100   23.6550 C   0  0  0  0  0  0  0  0  0  0  0  0
   -1.8650    4.5800   24.2390 C   0  0  0  0  0  0  0  0  0  0  0  0
   -0.7560    5.0410   24.9470 C   0  0  0  0  0  0  0  0  0  0  0  0
    0.5000    4.6410   24.4920 C   0  0  0  0  0  0  0  0  0  0  0  0
  1  2  1  0
  2  3  2  0
  2  4  1  0
  4  5  1  0
  5  6  2  0
  6  7  1  0
  7  8  2  0
  8  9  1  0
  5 10  1  0
  9 10  2  0
 10 11  1  0
 11 12  1  0
 12 13  1  0
 13 14  1  0
 14 15  2  0
 14 16  1  0
 16 17  1  0
 17 18  1  0
 18 19  1  0
 19 20  1  0
 20 21  1  0
 17 22  1  0
 21 22  1  0
M  END
