PET-SGC-cb62ec31-1-vinylsulfonamide
     RDKit          3D

 23 24  0  0  0  0  0  0  0  0999 V2000
    7.9570   -3.5370   19.6220 C   0  0  0  0  0  0  0  0  0  0  0  0
    6.7750   -2.8050   20.1020 C   0  0  0  0  0  0  0  0  0  0  0  0
    6.4300   -3.3010   21.7560 S   0  0  0  0  0  0  0  0  0  0  0  0
    4.8480   -3.3270   21.7110 O   0  0  0  0  0  0  0  0  0  0  0  0
    6.9080   -4.5960   22.1640 O   0  0  0  0  0  0  0  0  0  0  0  0
    7.7840   -2.3240   22.6980 C   0  0  0  0  0  0  0  0  0  0  0  0
    9.3110   -2.1430   22.3770 C   0  0  0  0  0  0  0  0  0  0  0  0
    9.9050   -1.3950   23.3940 C   0  0  0  0  0  0  0  0  0  0  0  0
    9.5780   -0.7710   24.5620 C   0  0  0  0  0  0  0  0  0  0  0  0
   10.0030   -0.0400   25.6380 N   0  0  0  0  0  0  0  0  0  0  0  0
    9.1080    0.5290   26.5470 C   0  0  0  0  0  0  0  0  0  0  0  0
    8.3020    1.3000   26.0140 O   0  0  0  0  0  0  0  0  0  0  0  0
    9.0010    0.3160   27.9540 C   0  0  0  0  0  0  0  0  0  0  0  0
   10.2220    0.5810   28.6600 O   0  0  0  0  0  0  0  0  0  0  0  0
   10.3240    1.0350   29.9770 C   0  0  0  0  0  0  0  0  0  0  0  0
   10.8810    0.2390   31.1470 C   0  0  0  0  0  0  0  0  0  0  0  0
   10.9050    0.9750   32.4530 C   0  0  0  0  0  0  0  0  0  0  0  0
   10.4720    2.2820   32.6570 C   0  0  0  0  0  0  0  0  0  0  0  0
   10.5400    2.9000   33.9020 C   0  0  0  0  0  0  0  0  0  0  0  0
    9.9640    2.9600   31.5470 C   0  0  0  0  0  0  0  0  0  0  0  0
    9.8910    2.3560   30.2540 C   0  0  0  0  0  0  0  0  0  0  0  0
    8.3160   -0.9200   24.7710 N   0  0  0  0  0  0  0  0  0  0  0  0
    7.4920   -1.6440   23.9040 C   0  0  0  0  0  0  0  0  0  0  0  0
  1  2  1  0
  3  2  1  0
  3  4  2  0
  3  5  2  0
  3  6  1  0
  6  7  2  0
  7  8  1  0
  8  9  2  0
  9 10  1  0
 10 11  1  0
 11 12  2  0
 11 13  1  0
 13 14  1  0
 14 15  1  0
 15 16  2  0
 16 17  1  0
 17 18  2  0
 18 19  1  0
 18 20  1  0
 15 21  1  0
 20 21  2  0
  9 22  1  0
  6 23  1  0
 22 23  2  0
M  END
