PHI-UNK-c3ab17cb-2
     RDKit          3D

 25 27  0  0  0  0  0  0  0  0999 V2000
    7.3870   -3.8880   23.1080 N   0  0  0  0  0  0  0  0  0  0  0  0
    7.5030   -3.0320   24.0560 C   0  0  0  0  0  0  0  0  0  0  0  0
    6.7640   -3.0430   25.0320 O   0  0  0  0  0  0  0  0  0  0  0  0
    8.6400   -2.0150   23.8750 C   0  0  0  0  0  0  0  0  0  0  0  0
    9.6470   -2.3490   22.7300 C   0  0  0  0  0  0  0  0  0  0  0  0
   10.8320   -1.4210   22.4520 C   0  0  0  0  0  0  0  0  0  0  0  0
   10.9240   -0.1990   23.3610 C   0  0  0  0  0  0  0  0  0  0  0  0
   12.0950    0.6600   23.0790 C   0  0  0  0  0  0  0  0  0  0  0  0
   13.2300   -0.0450   23.1330 C   0  0  2  0  0  0  0  0  0  0  0  0
   13.3040   -1.2360   22.1150 C   0  0  0  0  0  0  0  0  0  0  0  0
   13.2790   -2.4260   22.7740 N   0  0  0  0  0  0  0  0  0  0  0  0
   13.1910   -2.0740   24.1610 C   0  0  0  0  0  0  0  0  0  0  0  0
   13.1610   -0.8030   24.4440 N   0  0  0  0  0  0  0  0  0  0  0  0
   10.0230    0.0790   24.3610 C   0  0  0  0  0  0  0  0  0  0  0  0
    8.8070   -0.8530   24.6610 C   0  0  0  0  0  0  0  0  0  0  0  0
    7.9390   -0.3810   25.7870 C   0  0  0  0  0  0  0  0  0  0  0  0
    7.7540    1.0470   25.7070 N   0  0  0  0  0  0  0  0  0  0  0  0
    7.4190    1.8130   24.6350 C   0  0  0  0  0  0  0  0  0  0  0  0
    8.3830    2.4720   23.7890 O   0  0  0  0  0  0  0  0  0  0  0  0
    6.0800    2.0420   24.2240 C   0  0  0  0  0  0  0  0  0  0  0  0
    5.9620    2.1400   22.8610 C   0  0  0  0  0  0  0  0  0  0  0  0
    4.5270    1.8480   22.4210 C   0  0  0  0  0  0  0  0  0  0  0  0
    3.5450    2.0520   23.4430 O   0  0  0  0  0  0  0  0  0  0  0  0
    3.8070    1.3750   24.6660 C   0  0  0  0  0  0  0  0  0  0  0  0
    5.1370    0.9450   24.7420 C   0  0  0  0  0  0  0  0  0  0  0  0
  1  2  1  0
  2  3  2  0
  2  4  1  0
  4  5  2  0
  5  6  1  0
  6  7  2  0
  7  8  1  0
  9  8  1  6
  9 10  1  0
 10 11  2  0
 11 12  1  0
  9 13  1  0
 12 13  2  0
  7 14  1  0
  4 15  1  0
 14 15  2  0
 15 16  1  0
 16 17  1  0
 17 18  1  0
 18 19  2  0
 18 20  1  0
 20 21  1  0
 21 22  1  0
 22 23  1  0
 23 24  1  0
 20 25  1  0
 24 25  1  0
M  END
