PHI-UNK-c3ab17cb-1-acrylamide
     RDKit          3D

 23 24  0  0  0  0  0  0  0  0999 V2000
    6.4450   -4.4670   20.0630 C   0  0  0  0  0  0  0  0  0  0  0  0
    6.9460   -3.9080   21.3610 C   0  0  0  0  0  0  0  0  0  0  0  0
    6.3650   -2.5740   21.5530 C   0  0  0  0  0  0  0  0  0  0  0  0
    5.0940   -3.3450   21.2740 O   0  0  0  0  0  0  0  0  0  0  0  0
    8.0770   -2.2000   21.7860 C   0  0  0  0  0  0  0  0  0  0  0  0
    8.3230   -1.2470   22.8100 C   0  0  0  0  0  0  0  0  0  0  0  0
    9.7570   -1.7640   22.1050 C   0  0  0  0  0  0  0  0  0  0  0  0
   10.9100   -1.2070   22.6030 C   0  0  0  0  0  0  0  0  0  0  0  0
   12.4350   -1.3380   22.3010 C   0  0  0  0  0  0  0  0  0  0  0  0
   11.9500   -2.3620   21.5480 N   0  0  0  0  0  0  0  0  0  0  0  0
   13.4980   -1.7370   21.8460 O   0  0  0  0  0  0  0  0  0  0  0  0
   10.1130   -0.6100   23.3430 C   0  0  0  0  0  0  0  0  0  0  0  0
   10.1340    0.4220   24.4910 C   0  0  0  0  0  0  0  0  0  0  0  0
    8.7880    0.7360   24.9470 N   0  0  0  0  0  0  0  0  0  0  0  0
    7.8910    1.5890   24.1450 C   0  0  0  0  0  0  0  0  0  0  0  0
    8.2680    2.6240   23.6050 O   0  0  0  0  0  0  0  0  0  0  0  0
    6.4620    1.1310   24.0070 C   0  0  0  0  0  0  0  0  0  0  0  0
    5.5780    1.0180   25.0710 C   0  0  0  0  0  0  0  0  0  0  0  0
    4.2920    0.5460   24.6830 C   0  0  0  0  0  0  0  0  0  0  0  0
    3.6430    1.3650   23.7060 O   0  0  0  0  0  0  0  0  0  0  0  0
    4.4300    1.5660   22.5340 C   0  0  0  0  0  0  0  0  0  0  0  0
    5.8180    2.0420   22.9270 C   0  0  0  0  0  0  0  0  0  0  0  0
    9.0290   -1.3320   22.6520 C   0  0  0  0  0  0  0  0  0  0  0  0
  1  2  1  0
  2  3  1  0
  3  4  2  0
  3  5  1  0
  5  6  2  0
  6  7  1  0
  7  8  2  0
  8  9  1  0
  9 10  1  0
  9 11  2  0
  8 12  1  0
 12 13  1  0
 13 14  1  0
 14 15  1  0
 15 16  2  0
 15 17  1  0
 17 18  1  0
 18 19  1  0
 19 20  1  0
 20 21  1  0
 17 22  1  0
 21 22  1  0
  5 23  1  0
 12 23  2  0
M  END
