RAF-POL-9fce0577-5
     RDKit          3D

 17 19  0  0  0  0  0  0  0  0999 V2000
    8.4650    2.8010   22.4910 C   0  0  0  0  0  0  0  0  0  0  0  0
    9.3980    1.7910   22.0070 C   0  0  1  0  0  0  0  0  0  0  0  0
   10.7200    1.8820   22.6700 N   0  0  0  0  0  0  0  0  0  0  0  0
   11.3550    0.5770   22.7810 C   0  0  0  0  0  0  0  0  0  0  0  0
   10.2710   -0.3680   22.4160 C   0  0  0  0  0  0  0  0  0  0  0  0
    8.9990    0.3000   22.2260 C   0  0  2  0  0  0  0  0  0  0  0  0
    8.1200   -0.3550   21.1560 C   0  0  0  0  0  0  0  0  0  0  0  0
    8.2770   -1.5500   20.9660 O   0  0  0  0  0  0  0  0  0  0  0  0
    7.1390    0.3350   20.4250 N   0  0  0  0  0  0  0  0  0  0  0  0
    6.8220   -0.2590   19.1150 C   0  0  0  0  0  0  0  0  0  0  0  0
    5.9010    0.6430   18.2280 C   0  0  0  0  0  0  0  0  0  0  0  0
    4.9780    1.4970   18.8390 C   0  0  0  0  0  0  0  0  0  0  0  0
    5.0720    1.7680   20.3540 C   0  0  1  0  0  0  0  0  0  0  0  0
    3.8450    1.6150   21.1520 C   0  0  0  0  0  0  0  0  0  0  0  0
    3.7470    0.3470   21.6230 N   0  0  0  0  0  0  0  0  0  0  0  0
    4.9900   -0.3010   21.1580 C   0  0  0  0  0  0  0  0  0  0  0  0
    5.9160    0.7350   21.1060 C   0  0  1  0  0  0  0  0  0  0  0  0
  2  1  1  1
  2  3  1  0
  3  4  1  0
  4  5  1  0
  2  6  1  0
  5  6  1  0
  6  7  1  6
  7  8  2  0
  7  9  1  0
  9 10  1  0
 10 11  1  0
 11 12  1  0
 13 12  1  6
 13 14  1  0
 14 15  1  0
 15 16  1  0
  9 17  1  0
 13 17  1  0
 17 16  1  6
M  END
