RAF-POL-950dada1-4
     RDKit          3D

 17 18  0  0  0  0  0  0  0  0999 V2000
    2.0770    4.1040   24.0890 C   0  0  0  0  0  0  0  0  0  0  0  0
    3.0880    3.1300   24.6460 C   0  0  0  0  0  0  0  0  0  0  0  0
    2.6240    1.8610   24.9660 N   0  0  0  0  0  0  0  0  0  0  0  0
    1.7040    1.6420   25.9910 N   0  0  0  0  0  0  0  0  0  0  0  0
    1.6220    0.3070   25.8640 C   0  0  0  0  0  0  0  0  0  0  0  0
    2.3730   -0.2410   24.9090 C   0  0  0  0  0  0  0  0  0  0  0  0
    3.0750    0.7390   24.2600 C   0  0  0  0  0  0  0  0  0  0  0  0
    3.9760    0.6820   23.2130 N   0  0  0  0  0  0  0  0  0  0  0  0
    3.6510    0.9460   21.8020 C   0  0  0  0  0  0  0  0  0  0  0  0
    2.5230    1.2570   21.4330 O   0  0  0  0  0  0  0  0  0  0  0  0
    4.7610    0.7850   21.0200 N   0  0  0  0  0  0  0  0  0  0  0  0
    5.8510   -0.0600   21.2100 C   0  0  0  0  0  0  0  0  0  0  0  0
    6.9900   -0.0500   20.2120 C   0  0  0  0  0  0  0  0  0  0  0  0
    6.4430   -0.5020   18.8720 C   0  0  0  0  0  0  0  0  0  0  0  0
    5.7800    0.6620   18.1100 C   0  0  0  0  0  0  0  0  0  0  0  0
    4.7590    1.5180   18.8790 C   0  0  0  0  0  0  0  0  0  0  0  0
    5.1180    1.8490   20.2170 O   0  0  0  0  0  0  0  0  0  0  0  0
  1  2  1  0
  2  3  1  0
  3  4  1  0
  4  5  2  0
  5  6  1  0
  3  7  1  0
  6  7  2  0
  7  8  1  0
  8  9  1  0
  9 10  2  0
  9 11  1  0
 11 12  1  0
 12 13  1  0
 13 14  1  0
 14 15  1  0
 15 16  1  0
 11 17  1  0
 16 17  1  0
M  END
