RAF-POL-950dada1-15
     RDKit          3D

 18 20  0  0  0  0  0  0  0  0999 V2000
    7.7550   -2.3690   24.1290 C   0  0  0  0  0  0  0  0  0  0  0  0
    9.0170   -2.0850   23.5880 C   0  0  0  0  0  0  0  0  0  0  0  0
    9.5970   -0.7040   23.6900 N   0  0  0  0  0  0  0  0  0  0  0  0
   10.9860   -0.2910   23.1200 C   0  0  0  0  0  0  0  0  0  0  0  0
   11.5330   -1.4960   22.5270 C   0  0  0  0  0  0  0  0  0  0  0  0
   12.8220   -1.8270   21.8360 C   0  0  0  0  0  0  0  0  0  0  0  0
   10.4210   -2.0240   22.9080 C   0  0  0  0  0  0  0  0  0  0  0  0
    9.6360   -0.9850   23.5040 N   0  0  0  0  0  0  0  0  0  0  0  0
    8.6330   -0.2200   22.8420 C   0  0  1  0  0  0  0  0  0  0  0  0
    9.0180    1.2470   22.6030 C   0  0  0  0  0  0  0  0  0  0  0  0
    7.9010    2.0240   22.0460 C   0  0  0  0  0  0  0  0  0  0  0  0
    7.2250    1.2250   20.9070 C   0  0  0  0  0  0  0  0  0  0  0  0
    6.3690    1.7130   20.0090 N   0  0  0  0  0  0  0  0  0  0  0  0
    6.0650    0.6420   19.2340 N   0  0  0  0  0  0  0  0  0  0  0  0
    6.7030   -0.5120   19.6120 C   0  0  0  0  0  0  0  0  0  0  0  0
    7.4630   -0.1310   20.7100 C   0  0  0  0  0  0  0  0  0  0  0  0
    8.3060   -0.9320   21.4810 C   0  0  0  0  0  0  0  0  0  0  0  0
    9.7380   -3.0440   22.9680 N   0  0  0  0  0  0  0  0  0  0  0  0
  1  2  1  0
  2  3  2  0
  3  4  1  0
  4  5  2  0
  5  6  1  0
  5  7  1  0
  7  8  1  0
  9  8  1  6
  9 10  1  0
 10 11  1  0
 11 12  1  0
 12 13  2  0
 13 14  1  0
 14 15  1  0
 12 16  1  0
 15 16  2  0
  9 17  1  0
 16 17  1  0
  2 18  1  0
  7 18  2  0
M  END
