RAF-POL-950dada1-7
     RDKit          3D

 18 21  0  0  0  0  0  0  0  0999 V2000
    7.5540   -1.5090   21.0770 O   0  0  0  0  0  0  0  0  0  0  0  0
    6.6180   -0.8830   20.5890 C   0  0  0  0  0  0  0  0  0  0  0  0
    5.4610   -0.4310   21.4460 C   0  0  0  0  0  0  0  0  0  0  0  0
    4.8320    0.2330   20.4890 C   0  0  1  0  0  0  0  0  0  0  0  0
    4.3530    1.4860   20.3840 C   0  0  0  0  0  0  0  0  0  0  0  0
    4.8920    1.7650   19.1030 C   0  0  0  0  0  0  0  0  0  0  0  0
    6.0490    0.9560   18.8210 C   0  0  2  0  0  0  0  0  0  0  0  0
    6.5470   -0.5150   19.0850 C   0  0  0  0  0  0  0  0  0  0  0  0
    6.0250    0.7690   20.1380 N   0  0  0  0  0  0  0  0  0  0  0  0
    6.9540    1.5070   21.0340 C   0  0  0  0  0  0  0  0  0  0  0  0
    8.2160    0.7770   21.4300 N   0  0  0  0  0  0  0  0  0  0  0  0
    9.1940    1.4010   22.3000 C   0  0  0  0  0  0  0  0  0  0  0  0
    8.9820    2.7290   22.8050 N   0  0  0  0  0  0  0  0  0  0  0  0
    7.8330    3.3660   22.4340 C   0  0  0  0  0  0  0  0  0  0  0  0
    7.4070    4.6560   22.8000 N   0  0  0  0  0  0  0  0  0  0  0  0
    6.1140    4.9920   22.1950 C   0  0  0  0  0  0  0  0  0  0  0  0
    5.7700    3.8780   21.4600 C   0  0  0  0  0  0  0  0  0  0  0  0
    6.8420    2.8190   21.5890 C   0  0  0  0  0  0  0  0  0  0  0  0
  1  2  2  0
  2  3  1  0
  4  3  1  1
  4  5  1  0
  5  6  1  0
  7  6  1  6
  2  8  1  0
  7  8  1  0
  4  9  1  0
  7  9  1  0
  9 10  1  0
 10 11  2  0
 11 12  1  0
 12 13  2  0
 13 14  1  0
 14 15  1  0
 15 16  1  0
 16 17  2  0
 10 18  1  0
 14 18  2  0
 17 18  1  0
M  END
