RAF-SAT-b3ff87a1-4-acrylamide
     RDKit          3D

 16 16  0  0  0  0  0  0  0  0999 V2000
    7.7730   -3.8710   20.3550 C   0  0  0  0  0  0  0  0  0  0  0  0
    6.7540   -2.7270   20.3990 C   0  0  0  0  0  0  0  0  0  0  0  0
    5.6620   -2.8610   19.3610 C   0  0  0  0  0  0  0  0  0  0  0  0
    5.1680   -3.6760   20.1840 O   0  0  0  0  0  0  0  0  0  0  0  0
    6.5320   -1.9230   18.7880 N   0  0  0  0  0  0  0  0  0  0  0  0
    6.2780   -0.5580   19.0970 C   0  0  0  0  0  0  0  0  0  0  0  0
    5.6350    0.1680   17.9820 N   0  0  0  0  0  0  0  0  0  0  0  0
    5.1990    1.5490   18.1360 C   0  0  0  0  0  0  0  0  0  0  0  0
    5.4210    2.2510   19.4840 C   0  0  0  0  0  0  0  0  0  0  0  0
    6.1610    1.3070   20.5250 C   0  0  0  0  0  0  0  0  0  0  0  0
    6.3160    2.1380   21.8120 C   0  0  0  0  0  0  0  0  0  0  0  0
    6.5810   -0.0030   20.3440 C   0  0  0  0  0  0  0  0  0  0  0  0
    7.1840   -0.5230   21.4120 N   0  0  0  0  0  0  0  0  0  0  0  0
    8.4720    0.0410   21.5020 C   0  0  0  0  0  0  0  0  0  0  0  0
    9.6650   -0.7040   22.1140 C   0  0  0  0  0  0  0  0  0  0  0  0
    8.6290    1.3270   21.0230 O   0  0  0  0  0  0  0  0  0  0  0  0
  1  2  1  0
  2  3  1  0
  3  4  2  0
  3  5  1  0
  5  6  1  0
  6  7  2  0
  7  8  1  0
  8  9  2  0
  9 10  1  0
 10 11  1  0
  6 12  1  0
 10 12  2  0
 12 13  1  0
 13 14  1  0
 14 15  1  0
 14 16  2  0
M  END
