RAF-POL-950dada1-8
     RDKit          3D

 18 20  0  0  0  0  0  0  0  0999 V2000
    5.2370   -3.2250   21.5640 C   0  0  0  0  0  0  0  0  0  0  0  0
    6.5080   -2.6680   22.1590 C   0  0  0  0  0  0  0  0  0  0  0  0
    7.4150   -3.5170   22.7530 N   0  0  0  0  0  0  0  0  0  0  0  0
    8.5390   -2.7500   23.2260 C   0  0  0  0  0  0  0  0  0  0  0  0
    9.5390   -3.1790   23.8030 O   0  0  0  0  0  0  0  0  0  0  0  0
    8.2380   -1.4670   22.8920 N   0  0  0  0  0  0  0  0  0  0  0  0
    6.9750   -1.3480   22.2210 C   0  0  0  0  0  0  0  0  0  0  0  0
    6.4140   -0.1370   21.7630 C   0  0  0  0  0  0  0  0  0  0  0  0
    5.3360    0.4290   22.5450 O   0  0  0  0  0  0  0  0  0  0  0  0
    6.8390    0.5750   20.6130 N   0  0  0  0  0  0  0  0  0  0  0  0
    6.8350    0.0820   19.1900 C   0  0  0  0  0  0  0  0  0  0  0  0
    5.4280   -0.2820   18.7640 C   0  0  0  0  0  0  0  0  0  0  0  0
    4.5600    0.5220   19.6890 C   0  0  0  0  0  0  0  0  0  0  0  0
    5.5410    1.5050   20.3160 C   0  0  0  0  0  0  0  0  0  0  0  0
    6.4210    0.2510   20.3400 N   0  0  0  0  0  0  0  0  0  0  0  0
    7.7900    0.2580   20.8690 N   0  0  0  0  0  0  0  0  0  0  0  0
    8.0830    1.4740   21.2900 C   0  0  0  0  0  0  0  0  0  0  0  0
    6.8110    1.9610   20.9210 C   0  0  0  0  0  0  0  0  0  0  0  0
  1  2  1  0
  2  3  1  0
  3  4  2  0
  4  5  1  0
  4  6  1  0
  2  7  2  0
  6  7  1  0
  7  8  1  0
  8  9  2  0
  8 10  1  0
 10 11  1  0
 11 12  1  0
 12 13  1  0
 13 14  1  0
 14 15  2  0
 15 16  1  0
 16 17  1  0
 10 18  1  0
 14 18  1  0
 17 18  2  0
M  END
