RAF-POL-8f876833-1
     RDKit          3D

 17 18  0  0  0  0  0  0  0  0999 V2000
    0.3150    1.7750   20.6600 C   0  0  0  0  0  0  0  0  0  0  0  0
    0.5090    3.2580   20.6330 C   0  0  0  0  0  0  0  0  0  0  0  0
    1.2600    3.7200   21.7870 N   0  0  0  0  0  0  0  0  0  0  0  0
    0.4860    4.2710   22.8330 N   0  0  0  0  0  0  0  0  0  0  0  0
    1.3550    4.6290   23.7950 C   0  0  0  0  0  0  0  0  0  0  0  0
    2.7420    4.3140   23.3830 C   0  0  0  0  0  0  0  0  0  0  0  0
    2.6500    3.7000   22.0200 C   0  0  0  0  0  0  0  0  0  0  0  0
    3.7810    3.2890   21.3400 N   0  0  0  0  0  0  0  0  0  0  0  0
    4.8560    2.5300   21.9620 C   0  0  0  0  0  0  0  0  0  0  0  0
    5.3690    2.8080   23.0480 O   0  0  0  0  0  0  0  0  0  0  0  0
    5.3000    1.3710   21.1690 N   0  0  0  0  0  0  0  0  0  0  0  0
    6.5620    0.9550   20.9530 C   0  0  0  0  0  0  0  0  0  0  0  0
    6.7480   -0.2470   20.0890 C   0  0  0  0  0  0  0  0  0  0  0  0
    6.6020   -0.2480   18.7140 C   0  0  0  0  0  0  0  0  0  0  0  0
    5.6200    0.6610   18.1870 C   0  0  0  0  0  0  0  0  0  0  0  0
    5.1570    1.6540   19.0380 C   0  0  0  0  0  0  0  0  0  0  0  0
    4.5540    1.1460   19.9810 O   0  0  0  0  0  0  0  0  0  0  0  0
  1  2  1  0
  2  3  1  0
  3  4  1  0
  4  5  2  0
  5  6  1  0
  3  7  1  0
  6  7  2  0
  7  8  1  0
  8  9  1  0
  9 10  2  0
  9 11  1  0
 11 12  1  0
 12 13  1  0
 13 14  1  0
 14 15  1  0
 15 16  1  0
 11 17  1  0
 16 17  1  0
M  END
