RAF-UNK-9885c2f5-2-acrylamide
     RDKit          3D

 34 37  0  0  0  0  0  0  0  0999 V2000
    7.9640   -3.3510   19.2100 C   0  0  0  0  0  0  0  0  0  0  0  0
    6.8180   -2.4020   19.0610 C   0  0  0  0  0  0  0  0  0  0  0  0
    5.8700   -2.8820   20.0850 C   0  0  0  0  0  0  0  0  0  0  0  0
    4.9240   -3.5780   19.7310 O   0  0  0  0  0  0  0  0  0  0  0  0
    6.2040   -2.5940   21.3820 N   0  0  0  0  0  0  0  0  0  0  0  0
    5.8100   -3.5020   22.4770 C   0  0  0  0  0  0  0  0  0  0  0  0
    7.1300   -4.0940   23.0850 C   0  0  0  0  0  0  0  0  0  0  0  0
    7.9220   -2.9590   23.6190 N   0  0  0  0  0  0  0  0  0  0  0  0
    7.1850   -2.1660   24.6240 C   0  0  0  0  0  0  0  0  0  0  0  0
    5.9580   -2.1320   24.7390 O   0  0  0  0  0  0  0  0  0  0  0  0
    7.9250   -1.3230   25.6320 C   0  0  0  0  0  0  0  0  0  0  0  0
    8.4020   -0.0260   25.3090 O   0  0  0  0  0  0  0  0  0  0  0  0
    8.9940    0.4610   26.4240 C   0  0  0  0  0  0  0  0  0  0  0  0
    8.9010   -0.5510   27.4950 C   0  0  0  0  0  0  0  0  0  0  0  0
    8.1850   -1.7290   26.9370 C   0  0  0  0  0  0  0  0  0  0  0  0
    7.8400   -2.9430   27.5670 C   0  0  0  0  0  0  0  0  0  0  0  0
    8.6570   -4.0640   27.6100 C   0  0  0  0  0  0  0  0  0  0  0  0
    8.1910   -5.2580   28.2610 C   0  0  0  0  0  0  0  0  0  0  0  0
    6.9180   -5.3830   28.8870 C   0  0  0  0  0  0  0  0  0  0  0  0
    6.6220   -6.4620   29.4260 O   0  0  0  0  0  0  0  0  0  0  0  0
    5.3480   -7.0390   29.1290 C   0  0  0  0  0  0  0  0  0  0  0  0
    4.3500   -6.5360   30.0040 C   0  0  0  0  0  0  0  0  0  0  0  0
    3.5280   -5.7160   29.5760 O   0  0  0  0  0  0  0  0  0  0  0  0
    4.2950   -6.9590   31.3230 N   0  0  0  0  0  0  0  0  0  0  0  0
    3.4830   -6.4760   32.3660 C   0  0  0  0  0  0  0  0  0  0  0  0
    3.9750   -6.9130   33.5680 C   0  0  0  0  0  0  0  0  0  0  0  0
    4.6550   -7.5820   34.1980 N   0  0  0  0  0  0  0  0  0  0  0  0
    5.7210   -6.8060   34.8480 C   0  0  0  0  0  0  0  0  0  0  0  0
    5.2400   -8.4410   33.1580 C   0  0  0  0  0  0  0  0  0  0  0  0
    5.5100   -7.6250   31.8690 C   0  0  0  0  0  0  0  0  0  0  0  0
    6.0520   -4.2830   28.8740 C   0  0  0  0  0  0  0  0  0  0  0  0
    6.4830   -2.9770   28.1980 C   0  0  0  0  0  0  0  0  0  0  0  0
    8.4300   -2.1630   22.5160 C   0  0  0  0  0  0  0  0  0  0  0  0
    7.3040   -1.6270   21.6160 C   0  0  0  0  0  0  0  0  0  0  0  0
  1  2  1  0
  2  3  1  0
  3  4  2  0
  3  5  1  0
  5  6  1  0
  6  7  1  0
  7  8  1  0
  8  9  1  0
  9 10  2  0
  9 11  1  0
 11 12  1  0
 12 13  1  0
 13 14  2  0
 11 15  2  0
 14 15  1  0
 15 16  1  0
 16 17  2  0
 17 18  1  0
 18 19  2  0
 19 20  1  0
 20 21  1  0
 21 22  1  0
 22 23  2  0
 22 24  1  0
 24 25  1  0
 25 26  1  0
 26 27  1  0
 27 28  1  0
 27 29  1  0
 24 30  1  0
 29 30  1  0
 19 31  1  0
 16 32  1  0
 31 32  2  0
  8 33  1  0
  5 34  1  0
 33 34  1  0
M  END
