RAF-POL-950dada1-9
     RDKit          3D

 15 16  0  0  0  0  0  0  0  0999 V2000
    7.0260    0.3970   22.5410 C   0  0  0  0  0  0  0  0  0  0  0  0
    6.5950    0.6910   21.1300 C   0  0  2  0  0  0  0  0  0  0  0  0
    5.3250    1.1720   21.0210 C   0  0  0  0  0  0  0  0  0  0  0  0
    5.0010    1.5600   19.7730 N   0  0  0  0  0  0  0  0  0  0  0  0
    3.8280    2.2430   19.8500 C   0  0  0  0  0  0  0  0  0  0  0  0
    3.7360    3.6370   19.8490 C   0  0  0  0  0  0  0  0  0  0  0  0
    2.5960    4.4110   19.9380 C   0  0  0  0  0  0  0  0  0  0  0  0
    1.3300    3.6520   20.0500 C   0  0  0  0  0  0  0  0  0  0  0  0
    1.3550    2.2470   20.0660 N   0  0  0  0  0  0  0  0  0  0  0  0
    2.5680    1.5720   19.9700 N   0  0  0  0  0  0  0  0  0  0  0  0
    5.2220    0.6760   18.5960 C   0  0  0  0  0  0  0  0  0  0  0  0
    6.4850   -0.1800   18.7630 C   0  0  0  0  0  0  0  0  0  0  0  0
    6.7150   -0.5410   20.2410 C   0  0  0  0  0  0  0  0  0  0  0  0
    5.9680   -1.5150   20.7760 F   0  0  0  0  0  0  0  0  0  0  0  0
    7.9800   -1.0030   20.3810 F   0  0  0  0  0  0  0  0  0  0  0  0
  2  1  1  1
  2  3  1  0
  3  4  1  0
  4  5  1  0
  5  6  2  0
  6  7  1  0
  7  8  2  0
  8  9  1  0
  5 10  1  0
  9 10  2  0
  4 11  1  0
 11 12  1  0
  2 13  1  0
 12 13  1  0
 13 14  1  0
 13 15  1  0
M  END
