RAF-POL-950dada1-13
     RDKit          3D

 18 20  0  0  0  0  0  0  0  0999 V2000
    0.8970    3.1390   21.5980 O   0  0  0  0  0  0  0  0  0  0  0  0
    1.9570    2.2860   21.7460 C   0  0  0  0  0  0  0  0  0  0  0  0
    2.1020    1.3120   22.6180 N   0  0  0  0  0  0  0  0  0  0  0  0
    3.3010    0.7460   22.3910 N   0  0  0  0  0  0  0  0  0  0  0  0
    3.8290    1.4080   21.3880 C   0  0  0  0  0  0  0  0  0  0  0  0
    4.9820    1.3200   20.7210 C   0  0  2  0  0  0  0  0  0  0  0  0
    4.9430    1.4280   19.2380 C   0  0  0  0  0  0  0  0  0  0  0  0
    5.6220    0.2880   18.5550 C   0  0  0  0  0  0  0  0  0  0  0  0
    6.7080   -0.4080   19.1100 C   0  0  0  0  0  0  0  0  0  0  0  0
    6.8470   -0.2160   20.5830 N   0  0  0  0  0  0  0  0  0  0  0  0
    7.9450   -0.7430   21.3250 C   0  0  0  0  0  0  0  0  0  0  0  0
    7.9870   -0.8630   22.8220 C   0  0  0  0  0  0  0  0  0  0  0  0
    9.1640   -1.4020   23.5230 C   0  0  0  0  0  0  0  0  0  0  0  0
   10.2880   -1.8040   22.5570 C   0  0  0  0  0  0  0  0  0  0  0  0
   10.1720   -1.6760   21.2710 N   0  0  0  0  0  0  0  0  0  0  0  0
    9.0250   -1.1630   20.7040 N   0  0  0  0  0  0  0  0  0  0  0  0
    5.7200    0.2700   21.3840 C   0  0  0  0  0  0  0  0  0  0  0  0
    2.9990    2.4550   20.8920 O   0  0  0  0  0  0  0  0  0  0  0  0
  1  2  1  0
  2  3  2  0
  3  4  1  0
  4  5  2  0
  6  5  1  6
  6  7  1  0
  7  8  1  0
  8  9  1  0
  9 10  1  0
 10 11  1  0
 11 12  2  0
 12 13  1  0
 13 14  2  0
 14 15  1  0
 11 16  1  0
 15 16  2  0
  6 17  1  0
 10 17  1  0
  2 18  1  0
  5 18  1  0
M  END
