RAF-POL-950dada1-14
     RDKit          3D

 17 18  0  0  0  0  0  0  0  0999 V2000
   -1.0910    3.0290   20.2940 C   0  0  0  0  0  0  0  0  0  0  0  0
    0.2190    2.5630   20.3700 C   0  0  0  0  0  0  0  0  0  0  0  0
    1.1120    2.9750   19.4290 N   0  0  0  0  0  0  0  0  0  0  0  0
    2.3420    2.4780   19.5800 N   0  0  0  0  0  0  0  0  0  0  0  0
    2.2600    1.6960   20.6800 C   0  0  0  0  0  0  0  0  0  0  0  0
    3.3960    0.9150   21.2540 C   0  0  0  0  0  0  0  0  0  0  0  0
    3.2360    0.3590   22.3450 O   0  0  0  0  0  0  0  0  0  0  0  0
    4.6400    0.7850   20.5870 N   0  0  0  0  0  0  0  0  0  0  0  0
    5.0330    1.4950   19.4630 C   0  0  0  0  0  0  0  0  0  0  0  0
    5.4910    0.6420   18.4510 C   0  0  0  0  0  0  0  0  0  0  0  0
    6.4200   -0.4540   18.9550 C   0  0  1  0  0  0  0  0  0  0  0  0
    7.6190   -0.3980   18.1850 N   0  0  0  0  0  0  0  0  0  0  0  0
    6.8110   -0.2770   20.3910 C   0  0  0  0  0  0  0  0  0  0  0  0
    5.6810   -0.0210   21.2570 C   0  0  1  0  0  0  0  0  0  0  0  0
    6.1870    0.5490   22.6110 C   0  0  0  0  0  0  0  0  0  0  0  0
    0.9160    1.7370   21.2160 C   0  0  0  0  0  0  0  0  0  0  0  0
    0.4230    1.0770   22.3350 C   0  0  0  0  0  0  0  0  0  0  0  0
  1  2  1  0
  2  3  1  0
  3  4  1  0
  4  5  2  0
  5  6  1  0
  6  7  2  0
  6  8  1  0
  8  9  1  0
  9 10  1  0
 10 11  1  0
 11 12  1  6
 11 13  1  0
  8 14  1  0
 13 14  1  0
 14 15  1  1
  2 16  2  0
  5 16  1  0
 16 17  1  0
M  END
