RAF-POL-950dada1-16
     RDKit          3D

 17 19  0  0  0  0  0  0  0  0999 V2000
    8.5840    0.3400   15.1630 C   0  0  0  0  0  0  0  0  0  0  0  0
    7.9100   -0.1570   16.2510 C   0  0  1  0  0  0  0  0  0  0  0  0
    7.0230    0.3670   17.0730 C   0  0  0  0  0  0  0  0  0  0  0  0
    6.2380   -0.6290   17.8150 C   0  0  2  0  0  0  0  0  0  0  0  0
    6.3570   -0.5640   19.3020 C   0  0  0  0  0  0  0  0  0  0  0  0
    7.4290   -0.8620   19.7960 O   0  0  0  0  0  0  0  0  0  0  0  0
    5.2970   -0.1660   20.1280 N   0  0  0  0  0  0  0  0  0  0  0  0
    4.6160    1.1810   20.0390 C   0  0  0  0  0  0  0  0  0  0  0  0
    4.8740    2.1320   21.2610 C   0  0  0  0  0  0  0  0  0  0  0  0
    4.3390    3.0960   20.2380 C   0  0  0  0  0  0  0  0  0  0  0  0
    4.0150    2.4490   19.0180 C   0  0  0  0  0  0  0  0  0  0  0  0
    4.3470    0.9580   19.2340 C   0  0  0  0  0  0  0  0  0  0  0  0
    4.8660    0.3270   20.3680 N   0  0  0  0  0  0  0  0  0  0  0  0
    5.2590    0.9050   21.7290 C   0  0  0  0  0  0  0  0  0  0  0  0
    5.4370   -0.4280   21.5400 C   0  0  0  0  0  0  0  0  0  0  0  0
    6.9800   -1.8070   17.2190 C   0  0  0  0  0  0  0  0  0  0  0  0
    7.2960   -1.3770   15.9000 O   0  0  0  0  0  0  0  0  0  0  0  0
  2  1  1  6
  2  3  1  0
  3  4  1  0
  4  5  1  1
  5  6  2  0
  5  7  1  0
  7  8  1  0
  8  9  1  0
  9 10  1  0
 10 11  2  0
 11 12  1  0
 12 13  2  0
  9 14  2  0
 13 14  1  0
  7 15  1  0
 14 15  1  0
  4 16  1  0
  2 17  1  0
 16 17  1  0
M  END
