RAF-POL-950dada1-1
     RDKit          3D

 16 17  0  0  0  0  0  0  0  0999 V2000
    8.1900    2.9600   22.9460 C   0  0  0  0  0  0  0  0  0  0  0  0
    8.8260    1.7760   22.1860 C   0  0  1  0  0  0  0  0  0  0  0  0
    9.7700    0.8720   22.7850 C   0  0  0  0  0  0  0  0  0  0  0  0
    9.3960   -0.4150   22.6610 C   0  0  1  0  0  0  0  0  0  0  0  0
    9.1120   -0.9250   23.7460 O   0  0  0  0  0  0  0  0  0  0  0  0
    8.4000   -0.3710   21.7350 C   0  0  0  0  0  0  0  0  0  0  0  0
    7.8970    0.8570   21.7440 N   0  0  0  0  0  0  0  0  0  0  0  0
    6.5970    0.9490   22.1580 C   0  0  0  0  0  0  0  0  0  0  0  0
    6.1650    1.4540   23.2030 O   0  0  0  0  0  0  0  0  0  0  0  0
    5.5250    0.3750   21.2680 C   0  0  1  0  0  0  0  0  0  0  0  0
    4.8750    1.5570   20.5470 C   0  0  0  0  0  0  0  0  0  0  0  0
    4.8130    1.3720   19.0450 C   0  0  0  0  0  0  0  0  0  0  0  0
    6.1640    0.8170   18.6130 C   0  0  2  0  0  0  0  0  0  0  0  0
    6.3110    0.9910   17.1400 C   0  0  0  0  0  0  0  0  0  0  0  0
    6.4470   -0.4500   19.0750 C   0  0  0  0  0  0  0  0  0  0  0  0
    6.0000   -0.7070   20.4850 C   0  0  0  0  0  0  0  0  0  0  0  0
  2  1  1  1
  2  3  1  0
  3  4  1  0
  4  5  1  1
  4  6  1  0
  2  7  1  0
  6  7  1  0
  7  8  1  0
  8  9  2  0
 10  8  1  6
 10 11  1  0
 11 12  1  0
 12 13  1  0
 13 14  1  6
 13 15  1  0
 10 16  1  0
 15 16  1  0
M  END
