RAI-NOV-a7d52b4a-5-nitrile
     RDKit          3D

 27 30  0  0  0  0  0  0  0  0999 V2000
    8.4590   -3.6680   19.1250 C   0  0  0  0  0  0  0  0  0  0  0  0
    7.5870   -3.3310   18.2020 N   0  0  0  0  0  0  0  0  0  0  0  0
    7.7020   -3.7260   20.2620 C   0  0  0  0  0  0  0  0  0  0  0  0
    6.7950   -2.5970   20.2740 C   0  0  0  0  0  0  0  0  0  0  0  0
    6.0120   -2.6650   21.4430 C   0  0  0  0  0  0  0  0  0  0  0  0
    4.8260   -3.4360   21.3080 O   0  0  0  0  0  0  0  0  0  0  0  0
    6.5620   -2.0500   22.5120 N   0  0  0  0  0  0  0  0  0  0  0  0
    6.3480   -2.5780   23.8390 C   0  0  0  0  0  0  0  0  0  0  0  0
    7.4310   -3.3330   24.2350 C   0  0  0  0  0  0  0  0  0  0  0  0
    7.2240   -4.2810   25.2130 C   0  0  0  0  0  0  0  0  0  0  0  0
    8.1840   -5.1200   25.7490 C   0  0  0  0  0  0  0  0  0  0  0  0
    9.5030   -5.0340   25.2950 C   0  0  0  0  0  0  0  0  0  0  0  0
    9.8510   -4.0230   24.2100 C   0  0  0  0  0  0  0  0  0  0  0  0
    8.7190   -3.1480   23.6700 C   0  0  0  0  0  0  0  0  0  0  0  0
    8.9940   -2.2060   22.6470 C   0  0  2  0  0  0  0  0  0  0  0  0
   10.0190   -1.2890   22.9410 C   0  0  0  0  0  0  0  0  0  0  0  0
    9.8080   -0.2130   23.8100 C   0  0  0  0  0  0  0  0  0  0  0  0
   10.8130    0.6940   24.1060 C   0  0  0  0  0  0  0  0  0  0  0  0
   12.0460    0.5030   23.5140 C   0  0  0  0  0  0  0  0  0  0  0  0
   12.3840   -0.5400   22.6270 C   0  0  0  0  0  0  0  0  0  0  0  0
   11.3410   -1.4390   22.3470 C   0  0  0  0  0  0  0  0  0  0  0  0
    7.8350   -1.4450   22.2990 C   0  0  0  0  0  0  0  0  0  0  0  0
    7.7220   -4.7370   21.2470 C   0  0  0  0  0  0  0  0  0  0  0  0
    8.6670   -4.9770   22.3370 C   0  0  0  0  0  0  0  0  0  0  0  0
    8.2270   -6.1610   23.0330 C   0  0  0  0  0  0  0  0  0  0  0  0
    7.0940   -6.5920   22.4050 N   0  0  0  0  0  0  0  0  0  0  0  0
    6.7630   -5.7670   21.3410 N   0  0  0  0  0  0  0  0  0  0  0  0
  1  2  2  3
  1  3  1  0
  3  4  2  3
  4  5  1  0
  5  6  2  0
  5  7  1  0
  7  8  1  0
  8  9  1  0
  9 10  2  0
 10 11  1  0
 11 12  2  0
 12 13  1  0
  9 14  1  0
 13 14  2  0
 14 15  1  0
 15 16  1  1
 16 17  2  0
 17 18  1  0
 18 19  2  0
 19 20  1  0
 16 21  1  0
 20 21  2  0
  7 22  1  0
 15 22  1  0
  3 23  1  0
 23 24  1  0
 24 25  2  0
 25 26  1  0
 23 27  2  0
 26 27  1  0
M  END
