RAI-NOV-a7d52b4a-4-chloroacetamide
     RDKit          3D

 28 31  0  0  0  0  0  0  0  0999 V2000
    7.8820   -3.0630   18.5570 C   0  0  0  0  0  0  0  0  0  0  0  0
    6.4950   -3.3740   18.7940 C   0  0  0  0  0  0  0  0  0  0  0  0
    5.5780   -3.2460   18.0140 O   0  0  0  0  0  0  0  0  0  0  0  0
    6.2380   -3.7560   20.1240 C   0  0  0  0  0  0  0  0  0  0  0  0
    6.0420   -2.6480   20.8540 C   0  0  0  0  0  0  0  0  0  0  0  0
    5.8090   -2.2290   22.0030 C   0  0  0  0  0  0  0  0  0  0  0  0
    4.5270   -2.7430   22.3270 O   0  0  0  0  0  0  0  0  0  0  0  0
    6.7080   -1.5940   22.7070 N   0  0  0  0  0  0  0  0  0  0  0  0
    6.7280   -1.9760   23.9720 C   0  0  0  0  0  0  0  0  0  0  0  0
    7.6040   -3.0210   24.1940 C   0  0  0  0  0  0  0  0  0  0  0  0
    7.2360   -3.9420   25.1840 C   0  0  0  0  0  0  0  0  0  0  0  0
    8.0150   -5.0370   25.5530 C   0  0  0  0  0  0  0  0  0  0  0  0
    9.3320   -5.2600   24.8600 C   0  0  0  0  0  0  0  0  0  0  0  0
    9.6740   -4.2470   23.7950 C   0  0  0  0  0  0  0  0  0  0  0  0
    8.8160   -3.1660   23.4850 C   0  0  0  0  0  0  0  0  0  0  0  0
    9.2120   -2.2810   22.4760 C   0  0  2  0  0  0  0  0  0  0  0  0
   10.2220   -1.3830   22.7890 C   0  0  0  0  0  0  0  0  0  0  0  0
   11.5610   -1.3450   22.3270 C   0  0  0  0  0  0  0  0  0  0  0  0
   12.4700   -0.3670   22.7210 C   0  0  0  0  0  0  0  0  0  0  0  0
   12.2270    0.6960   23.5980 C   0  0  0  0  0  0  0  0  0  0  0  0
   10.9400    0.6720   24.0570 C   0  0  0  0  0  0  0  0  0  0  0  0
    9.8740   -0.3250   23.7100 C   0  0  0  0  0  0  0  0  0  0  0  0
    8.0440   -1.3370   22.0530 C   0  0  0  0  0  0  0  0  0  0  0  0
    6.1780   -4.8660   20.9900 C   0  0  0  0  0  0  0  0  0  0  0  0
    7.2840   -5.7030   21.5550 C   0  0  0  0  0  0  0  0  0  0  0  0
    6.5960   -6.8650   22.5880 S   0  0  0  0  0  0  0  0  0  0  0  0
    5.0120   -6.2830   22.2890 C   0  0  0  0  0  0  0  0  0  0  0  0
    4.8810   -5.2610   21.4690 N   0  0  0  0  0  0  0  0  0  0  0  0
  1  2  1  0
  2  3  2  0
  2  4  1  0
  4  5  2  3
  5  6  1  0
  6  7  2  0
  6  8  1  0
  8  9  1  0
  9 10  1  0
 10 11  2  0
 11 12  1  0
 12 13  2  0
 13 14  1  0
 10 15  1  0
 14 15  2  0
 15 16  1  0
 16 17  1  1
 17 18  2  0
 18 19  1  0
 19 20  2  0
 20 21  1  0
 17 22  1  0
 21 22  2  0
  8 23  1  0
 16 23  1  0
  4 24  1  0
 24 25  2  0
 25 26  1  0
 26 27  1  0
 24 28  1  0
 27 28  2  0
M  END
