RAI-NOV-a7d52b4a-4-vinylsulfonamide
     RDKit          3D

 30 33  0  0  0  0  0  0  0  0999 V2000
    7.5020   -4.6020   20.6420 C   0  0  0  0  0  0  0  0  0  0  0  0
    6.1180   -4.4220   21.1690 C   0  0  0  0  0  0  0  0  0  0  0  0
    5.3170   -2.9500   20.5710 S   0  0  0  0  0  0  0  0  0  0  0  0
    4.5740   -3.3700   19.4150 O   0  0  0  0  0  0  0  0  0  0  0  0
    4.6790   -2.4300   21.7550 O   0  0  0  0  0  0  0  0  0  0  0  0
    6.3650   -1.6410   20.0200 C   0  0  0  0  0  0  0  0  0  0  0  0
    7.7660   -1.5170   20.5240 C   0  0  0  0  0  0  0  0  0  0  0  0
    7.3670   -2.6870   21.1590 C   0  0  0  0  0  0  0  0  0  0  0  0
    7.5480   -2.9660   19.9810 O   0  0  0  0  0  0  0  0  0  0  0  0
    7.2660   -2.0270   22.3330 N   0  0  0  0  0  0  0  0  0  0  0  0
    6.7920   -2.7250   23.3910 C   0  0  0  0  0  0  0  0  0  0  0  0
    7.8450   -3.3770   24.0600 C   0  0  0  0  0  0  0  0  0  0  0  0
    7.4830   -4.3360   25.0320 C   0  0  0  0  0  0  0  0  0  0  0  0
    8.4600   -5.0380   25.7550 C   0  0  0  0  0  0  0  0  0  0  0  0
    9.9430   -4.8460   25.5810 C   0  0  0  0  0  0  0  0  0  0  0  0
   10.2140   -3.8090   24.5280 C   0  0  0  0  0  0  0  0  0  0  0  0
    9.2280   -3.1100   23.7980 C   0  0  0  0  0  0  0  0  0  0  0  0
    9.5840   -2.1760   22.8280 C   0  0  2  0  0  0  0  0  0  0  0  0
   10.6080   -1.2820   22.9820 C   0  0  0  0  0  0  0  0  0  0  0  0
   10.6330   -0.0730   23.7110 C   0  0  0  0  0  0  0  0  0  0  0  0
   11.7340    0.7790   23.7690 C   0  0  0  0  0  0  0  0  0  0  0  0
   12.9450    0.5120   23.1020 C   0  0  0  0  0  0  0  0  0  0  0  0
   12.9440   -0.6540   22.4030 C   0  0  0  0  0  0  0  0  0  0  0  0
   11.8120   -1.6030   22.2950 C   0  0  0  0  0  0  0  0  0  0  0  0
    8.4120   -1.2120   22.7380 C   0  0  0  0  0  0  0  0  0  0  0  0
    5.8790   -0.6850   19.1000 C   0  0  0  0  0  0  0  0  0  0  0  0
    5.2340    0.4610   18.3030 C   0  0  0  0  0  0  0  0  0  0  0  0
    4.2510    1.6520   19.0220 S   0  0  0  0  0  0  0  0  0  0  0  0
    4.5340    0.8320   20.4560 C   0  0  0  0  0  0  0  0  0  0  0  0
    5.2970   -0.2290   20.3870 N   0  0  0  0  0  0  0  0  0  0  0  0
  1  2  1  0
  2  3  1  0
  3  4  2  0
  3  5  2  0
  3  6  1  0
  6  7  2  3
  7  8  1  0
  8  9  2  0
  8 10  1  0
 10 11  1  0
 11 12  1  0
 12 13  2  0
 13 14  1  0
 14 15  2  0
 15 16  1  0
 12 17  1  0
 16 17  2  0
 17 18  1  0
 18 19  1  1
 19 20  2  0
 20 21  1  0
 21 22  2  0
 22 23  1  0
 19 24  1  0
 23 24  2  0
 10 25  1  0
 18 25  1  0
  6 26  1  0
 26 27  2  0
 27 28  1  0
 28 29  1  0
 26 30  1  0
 29 30  2  0
M  END
