RAI-NOV-a7d52b4a-4-nitrile
     RDKit          3D

 27 30  0  0  0  0  0  0  0  0999 V2000
    6.5710   -3.3760   18.7960 C   0  0  0  0  0  0  0  0  0  0  0  0
    5.3300   -3.6150   18.9550 N   0  0  0  0  0  0  0  0  0  0  0  0
    6.8830   -1.9640   18.7290 C   0  0  0  0  0  0  0  0  0  0  0  0
    6.7060   -1.2700   19.9900 C   0  0  0  0  0  0  0  0  0  0  0  0
    6.2630   -2.2070   21.0490 C   0  0  0  0  0  0  0  0  0  0  0  0
    5.0650   -2.9100   20.7750 O   0  0  0  0  0  0  0  0  0  0  0  0
    7.0260   -2.3820   22.1140 N   0  0  0  0  0  0  0  0  0  0  0  0
    6.4740   -2.7920   23.3810 C   0  0  0  0  0  0  0  0  0  0  0  0
    7.4690   -3.4470   24.0310 C   0  0  0  0  0  0  0  0  0  0  0  0
    7.1160   -4.3450   25.0210 C   0  0  0  0  0  0  0  0  0  0  0  0
    7.9910   -5.0870   25.7770 C   0  0  0  0  0  0  0  0  0  0  0  0
    9.3550   -4.9520   25.5630 C   0  0  0  0  0  0  0  0  0  0  0  0
    9.8500   -3.9820   24.4900 C   0  0  0  0  0  0  0  0  0  0  0  0
    8.8300   -3.2090   23.6940 C   0  0  0  0  0  0  0  0  0  0  0  0
    9.2490   -2.3040   22.6650 C   0  0  2  0  0  0  0  0  0  0  0  0
   10.2140   -1.3290   22.9560 C   0  0  0  0  0  0  0  0  0  0  0  0
    9.9370   -0.2570   23.8110 C   0  0  0  0  0  0  0  0  0  0  0  0
   10.8880    0.7100   24.0940 C   0  0  0  0  0  0  0  0  0  0  0  0
   12.1300    0.5810   23.5050 C   0  0  0  0  0  0  0  0  0  0  0  0
   12.5240   -0.4540   22.6320 C   0  0  0  0  0  0  0  0  0  0  0  0
   11.5380   -1.4110   22.3640 C   0  0  0  0  0  0  0  0  0  0  0  0
    8.1520   -1.5840   22.1890 C   0  0  0  0  0  0  0  0  0  0  0  0
    7.2560   -1.2140   17.6480 C   0  0  0  0  0  0  0  0  0  0  0  0
    8.0780   -1.5720   16.4710 C   0  0  0  0  0  0  0  0  0  0  0  0
    8.2030   -0.1860   15.4750 S   0  0  0  0  0  0  0  0  0  0  0  0
    7.2340    0.6910   16.5620 C   0  0  0  0  0  0  0  0  0  0  0  0
    6.8050    0.0430   17.6630 N   0  0  0  0  0  0  0  0  0  0  0  0
  1  2  2  3
  1  3  1  0
  3  4  2  3
  4  5  1  0
  5  6  2  0
  5  7  1  0
  7  8  1  0
  8  9  1  0
  9 10  2  0
 10 11  1  0
 11 12  2  0
 12 13  1  0
  9 14  1  0
 13 14  2  0
 14 15  1  0
 15 16  1  1
 16 17  2  0
 17 18  1  0
 18 19  2  0
 19 20  1  0
 16 21  1  0
 20 21  2  0
  7 22  1  0
 15 22  1  0
  3 23  1  0
 23 24  2  0
 24 25  1  0
 25 26  1  0
 23 27  1  0
 26 27  2  0
M  END
