RAI-NOV-a7d52b4a-5-vinylsulfonamide
     RDKit          3D

 30 33  0  0  0  0  0  0  0  0999 V2000
    8.0360   -3.5780   19.8750 C   0  0  0  0  0  0  0  0  0  0  0  0
    6.6130   -4.0090   20.0150 C   0  0  0  0  0  0  0  0  0  0  0  0
    5.7160   -3.0270   18.8850 S   0  0  0  0  0  0  0  0  0  0  0  0
    4.3800   -3.1310   19.4130 O   0  0  0  0  0  0  0  0  0  0  0  0
    6.0770   -3.2180   17.5460 O   0  0  0  0  0  0  0  0  0  0  0  0
    6.4770   -1.5090   18.9550 C   0  0  0  0  0  0  0  0  0  0  0  0
    6.6690   -1.0510   20.2900 C   0  0  0  0  0  0  0  0  0  0  0  0
    6.2190   -1.9690   21.2150 C   0  0  0  0  0  0  0  0  0  0  0  0
    5.0980   -2.4540   21.0870 O   0  0  0  0  0  0  0  0  0  0  0  0
    7.0280   -2.3340   22.1660 N   0  0  0  0  0  0  0  0  0  0  0  0
    6.5120   -3.0100   23.1830 C   0  0  0  0  0  0  0  0  0  0  0  0
    7.5400   -3.5150   23.9580 C   0  0  0  0  0  0  0  0  0  0  0  0
    7.1570   -4.4720   24.9190 C   0  0  0  0  0  0  0  0  0  0  0  0
    8.0980   -5.0620   25.7600 C   0  0  0  0  0  0  0  0  0  0  0  0
    9.5650   -4.7410   25.7310 C   0  0  0  0  0  0  0  0  0  0  0  0
    9.8650   -3.7050   24.6780 C   0  0  0  0  0  0  0  0  0  0  0  0
    8.9170   -3.1200   23.8170 C   0  0  0  0  0  0  0  0  0  0  0  0
    9.3280   -2.1950   22.8400 C   0  0  2  0  0  0  0  0  0  0  0  0
   10.2410   -1.2030   23.0990 C   0  0  0  0  0  0  0  0  0  0  0  0
   10.0760   -0.0580   23.8970 C   0  0  0  0  0  0  0  0  0  0  0  0
   11.0540    0.9130   24.0810 C   0  0  0  0  0  0  0  0  0  0  0  0
   12.3340    0.8570   23.4920 C   0  0  0  0  0  0  0  0  0  0  0  0
   12.5310   -0.2450   22.7200 C   0  0  0  0  0  0  0  0  0  0  0  0
   11.5280   -1.3200   22.4740 C   0  0  0  0  0  0  0  0  0  0  0  0
    8.1030   -1.3930   22.4920 C   0  0  0  0  0  0  0  0  0  0  0  0
    6.8990   -0.8720   17.8000 C   0  0  0  0  0  0  0  0  0  0  0  0
    7.0640    0.5320   17.4570 C   0  0  0  0  0  0  0  0  0  0  0  0
    7.5390    0.6200   16.1870 C   0  0  0  0  0  0  0  0  0  0  0  0
    7.6610   -0.6070   15.7410 N   0  0  0  0  0  0  0  0  0  0  0  0
    7.2950   -1.5560   16.6600 N   0  0  0  0  0  0  0  0  0  0  0  0
  1  2  1  0
  2  3  1  0
  3  4  2  0
  3  5  2  0
  3  6  1  0
  6  7  2  3
  7  8  1  0
  8  9  2  0
  8 10  1  0
 10 11  1  0
 11 12  1  0
 12 13  2  0
 13 14  1  0
 14 15  2  0
 15 16  1  0
 12 17  1  0
 16 17  2  0
 17 18  1  0
 18 19  1  1
 19 20  2  0
 20 21  1  0
 21 22  2  0
 22 23  1  0
 19 24  1  0
 23 24  2  0
 10 25  1  0
 18 25  1  0
  6 26  1  0
 26 27  1  0
 27 28  2  0
 28 29  1  0
 26 30  2  0
 29 30  1  0
M  END
