RAJ-NOV-842d5654-3-chloroacetamide
     RDKit          3D

 22 24  0  0  0  0  0  0  0  0999 V2000
    7.0210   -3.1200   19.1820 C   0  0  0  0  0  0  0  0  0  0  0  0
    6.0010   -3.7160   20.1910 C   0  0  0  0  0  0  0  0  0  0  0  0
    5.5260   -4.8450   20.0040 O   0  0  0  0  0  0  0  0  0  0  0  0
    5.4620   -2.9720   21.4540 C   0  0  0  0  0  0  0  0  0  0  0  0
    5.1850   -2.2340   22.6540 C   0  0  0  0  0  0  0  0  0  0  0  0
    6.3450   -1.9350   22.8750 C   0  0  0  0  0  0  0  0  0  0  0  0
    6.9430   -2.3940   21.6650 C   0  0  2  0  0  0  0  0  0  0  0  0
    7.7980   -1.3440   21.0310 C   0  0  0  0  0  0  0  0  0  0  0  0
    7.2300   -0.5320   20.0590 C   0  0  0  0  0  0  0  0  0  0  0  0
    5.8760   -0.9780   20.0910 N   0  0  0  0  0  0  0  0  0  0  0  0
    5.8200   -2.2740   20.5930 C   0  0  0  0  0  0  0  0  0  0  0  0
    4.9960   -3.1010   20.2270 O   0  0  0  0  0  0  0  0  0  0  0  0
    7.2030   -1.3950   23.6290 C   0  0  0  0  0  0  0  0  0  0  0  0
    7.9150   -2.0270   22.4860 C   0  0  0  0  0  0  0  0  0  0  0  0
    9.2900   -2.0930   22.2220 O   0  0  0  0  0  0  0  0  0  0  0  0
   10.2220   -1.1400   22.5750 C   0  0  0  0  0  0  0  0  0  0  0  0
    9.7730    0.2000   23.1500 C   0  0  0  0  0  0  0  0  0  0  0  0
   10.7190    1.1480   23.5010 C   0  0  0  0  0  0  0  0  0  0  0  0
   12.1850    0.8470   23.3090 C   0  0  0  0  0  0  0  0  0  0  0  0
   12.5650   -0.4000   22.7780 C   0  0  0  0  0  0  0  0  0  0  0  0
   11.6080   -1.3710   22.4180 C   0  0  0  0  0  0  0  0  0  0  0  0
    6.9690   -2.7290   21.5490 N   0  0  0  0  0  0  0  0  0  0  0  0
  1  2  1  0
  2  3  2  0
  2  4  1  0
  4  5  2  0
  5  6  1  0
  7  6  1  1
  7  8  1  0
  8  9  1  0
  9 10  1  0
  7 11  1  0
 10 11  1  0
 11 12  2  0
  6 13  2  0
 13 14  1  0
 14 15  1  0
 15 16  1  0
 16 17  2  0
 17 18  1  0
 18 19  2  0
 19 20  1  0
 16 21  1  0
 20 21  2  0
  4 22  1  0
 14 22  2  0
M  END
