RAJ-NOV-842d5654-2-nitrile
     RDKit          3D

 21 23  0  0  0  0  0  0  0  0999 V2000
    7.1710   -3.1720   19.2030 C   0  0  0  0  0  0  0  0  0  0  0  0
    6.6070   -2.8040   18.0750 N   0  0  0  0  0  0  0  0  0  0  0  0
    6.2180   -3.1810   20.5430 C   0  0  0  0  0  0  0  0  0  0  0  0
    5.4660   -3.0030   21.8690 C   0  0  0  0  0  0  0  0  0  0  0  0
    6.3970   -2.0860   21.8060 C   0  0  0  0  0  0  0  0  0  0  0  0
    6.8770   -2.1640   20.6020 C   0  0  2  0  0  0  0  0  0  0  0  0
    7.0070   -0.9340   19.7900 C   0  0  0  0  0  0  0  0  0  0  0  0
    5.8090   -0.7070   19.0020 C   0  0  0  0  0  0  0  0  0  0  0  0
    5.1450   -1.8820   18.9020 N   0  0  0  0  0  0  0  0  0  0  0  0
    5.7080   -2.8360   19.7770 C   0  0  0  0  0  0  0  0  0  0  0  0
    5.2880   -3.9900   19.8760 O   0  0  0  0  0  0  0  0  0  0  0  0
    7.0490   -1.0880   22.4090 C   0  0  0  0  0  0  0  0  0  0  0  0
    7.8850   -1.0340   21.1880 C   0  0  0  0  0  0  0  0  0  0  0  0
    8.5870    0.1150   21.9270 C   0  0  0  0  0  0  0  0  0  0  0  0
   10.0370   -0.3170   22.2180 C   0  0  0  0  0  0  0  0  0  0  0  0
   10.9430    0.7510   22.8270 C   0  0  0  0  0  0  0  0  0  0  0  0
   12.2520    0.3560   23.0840 C   0  0  0  0  0  0  0  0  0  0  0  0
   12.7450   -1.0390   22.7780 C   0  0  0  0  0  0  0  0  0  0  0  0
   11.8560   -1.9670   22.2150 C   0  0  0  0  0  0  0  0  0  0  0  0
   10.5250   -1.6140   21.9400 C   0  0  0  0  0  0  0  0  0  0  0  0
    6.8740   -2.0570   21.2020 N   0  0  0  0  0  0  0  0  0  0  0  0
  1  2  2  3
  1  3  1  0
  3  4  2  0
  4  5  1  0
  6  5  1  1
  6  7  1  0
  7  8  1  0
  8  9  1  0
  6 10  1  0
  9 10  1  0
 10 11  2  0
  5 12  2  0
 12 13  1  0
 13 14  1  0
 14 15  1  0
 15 16  2  0
 16 17  1  0
 17 18  2  0
 18 19  1  0
 15 20  1  0
 19 20  2  0
  3 21  1  0
 13 21  2  0
M  END
