RAJ-NOV-842d5654-3-acrylamide
     RDKit          3D

 23 25  0  0  0  0  0  0  0  0999 V2000
    7.4710   -3.0720   19.2080 C   0  0  0  0  0  0  0  0  0  0  0  0
    6.1030   -2.4190   19.2870 C   0  0  0  0  0  0  0  0  0  0  0  0
    5.2780   -2.9650   20.4230 C   0  0  0  0  0  0  0  0  0  0  0  0
    4.7930   -3.1940   21.5240 O   0  0  0  0  0  0  0  0  0  0  0  0
    6.1610   -1.9970   21.1740 C   0  0  0  0  0  0  0  0  0  0  0  0
    5.7520   -2.8950   22.2150 C   0  0  0  0  0  0  0  0  0  0  0  0
    6.5950   -2.0430   23.0910 C   0  0  0  0  0  0  0  0  0  0  0  0
    6.6410   -1.4140   21.7020 C   0  0  2  0  0  0  0  0  0  0  0  0
    7.6510   -0.5690   21.1790 C   0  0  0  0  0  0  0  0  0  0  0  0
    7.1850    0.3430   20.2020 C   0  0  0  0  0  0  0  0  0  0  0  0
    5.7840    0.4300   20.4820 N   0  0  0  0  0  0  0  0  0  0  0  0
    5.4190   -0.5020   21.4220 C   0  0  0  0  0  0  0  0  0  0  0  0
    4.3000   -0.5540   21.9340 O   0  0  0  0  0  0  0  0  0  0  0  0
    7.4480   -1.0030   23.4530 C   0  0  0  0  0  0  0  0  0  0  0  0
    7.6660   -0.3080   22.2090 C   0  0  0  0  0  0  0  0  0  0  0  0
    8.5100    0.5530   22.9370 O   0  0  0  0  0  0  0  0  0  0  0  0
    9.8500    0.1880   22.8920 C   0  0  0  0  0  0  0  0  0  0  0  0
   10.8660    1.0450   23.3020 C   0  0  0  0  0  0  0  0  0  0  0  0
   12.3150    0.6350   23.2400 C   0  0  0  0  0  0  0  0  0  0  0  0
   12.6160   -0.6420   22.7560 C   0  0  0  0  0  0  0  0  0  0  0  0
   11.5780   -1.4930   22.3470 C   0  0  0  0  0  0  0  0  0  0  0  0
   10.2290   -1.0900   22.4120 C   0  0  0  0  0  0  0  0  0  0  0  0
    6.8270   -1.4260   22.1970 N   0  0  0  0  0  0  0  0  0  0  0  0
  1  2  1  0
  2  3  1  0
  3  4  2  0
  3  5  1  0
  5  6  2  0
  6  7  1  0
  8  7  1  1
  8  9  1  0
  9 10  1  0
 10 11  1  0
  8 12  1  0
 11 12  1  0
 12 13  2  0
  7 14  2  0
 14 15  1  0
 15 16  1  0
 16 17  1  0
 17 18  2  0
 18 19  1  0
 19 20  2  0
 20 21  1  0
 17 22  1  0
 21 22  2  0
  5 23  1  0
 15 23  2  0
M  END
