RAJ-NOV-842d5654-3-nitrile
     RDKit          3D

 21 23  0  0  0  0  0  0  0  0999 V2000
    7.5980   -2.9480   18.9690 C   0  0  0  0  0  0  0  0  0  0  0  0
    7.8230   -2.9180   17.6880 N   0  0  0  0  0  0  0  0  0  0  0  0
    6.8350   -1.6280   19.3370 C   0  0  0  0  0  0  0  0  0  0  0  0
    5.7690   -1.3320   18.5800 C   0  0  0  0  0  0  0  0  0  0  0  0
    6.2680   -0.6080   19.5760 C   0  0  0  0  0  0  0  0  0  0  0  0
    5.6820    0.6200   19.9580 C   0  0  2  0  0  0  0  0  0  0  0  0
    4.4720    0.6550   20.7450 C   0  0  0  0  0  0  0  0  0  0  0  0
    3.4930    1.5700   20.1770 C   0  0  0  0  0  0  0  0  0  0  0  0
    3.8840    1.8630   18.9150 N   0  0  0  0  0  0  0  0  0  0  0  0
    5.1610    1.3440   18.7040 C   0  0  0  0  0  0  0  0  0  0  0  0
    5.7690    1.4510   17.6600 O   0  0  0  0  0  0  0  0  0  0  0  0
    7.4840   -1.2830   20.1510 C   0  0  0  0  0  0  0  0  0  0  0  0
    8.0480   -0.6090   21.2400 C   0  0  0  0  0  0  0  0  0  0  0  0
    8.9750   -1.3870   21.4790 O   0  0  0  0  0  0  0  0  0  0  0  0
   10.1780   -0.9130   21.9690 C   0  0  0  0  0  0  0  0  0  0  0  0
   10.3050    0.4270   22.7260 C   0  0  0  0  0  0  0  0  0  0  0  0
   11.7290    0.7600   23.1700 C   0  0  0  0  0  0  0  0  0  0  0  0
   12.7860   -0.0870   22.9000 C   0  0  0  0  0  0  0  0  0  0  0  0
   12.5820   -1.3830   22.1550 C   0  0  0  0  0  0  0  0  0  0  0  0
   11.2910   -1.7410   21.7250 C   0  0  0  0  0  0  0  0  0  0  0  0
    7.0260   -0.5160   20.3790 N   0  0  0  0  0  0  0  0  0  0  0  0
  1  2  2  3
  1  3  1  0
  3  4  2  0
  4  5  1  0
  6  5  1  6
  6  7  1  0
  7  8  1  0
  8  9  1  0
  6 10  1  0
  9 10  1  0
 10 11  2  0
  5 12  2  0
 12 13  1  0
 13 14  1  0
 14 15  1  0
 15 16  2  0
 16 17  1  0
 17 18  2  0
 18 19  1  0
 15 20  1  0
 19 20  2  0
  3 21  1  0
 13 21  2  0
M  END
