RAJ-NOV-842d5654-1
     RDKit          3D

 22 24  0  0  0  0  0  0  0  0999 V2000
    5.3570    4.1480   22.7460 O   0  0  0  0  0  0  0  0  0  0  0  0
    4.7970    3.1320   21.9120 C   0  0  0  0  0  0  0  0  0  0  0  0
    4.2560    3.3250   20.5910 N   0  0  0  0  0  0  0  0  0  0  0  0
    3.4340    2.1710   20.2820 C   0  0  0  0  0  0  0  0  0  0  0  0
    3.4890    1.4300   21.4480 C   0  0  0  0  0  0  0  0  0  0  0  0
    4.6380    1.6460   22.2130 C   0  0  1  0  0  0  0  0  0  0  0  0
    5.7720    0.9240   21.8590 C   0  0  0  0  0  0  0  0  0  0  0  0
    6.8200    0.1960   22.3920 C   0  0  0  0  0  0  0  0  0  0  0  0
    7.5980   -0.2260   21.1340 C   0  0  0  0  0  0  0  0  0  0  0  0
    8.7560   -1.0030   21.2600 O   0  0  0  0  0  0  0  0  0  0  0  0
    9.8700   -0.6310   22.0080 C   0  0  0  0  0  0  0  0  0  0  0  0
   11.0000   -1.4720   21.9340 C   0  0  0  0  0  0  0  0  0  0  0  0
   12.2530   -1.1600   22.6920 C   0  0  0  0  0  0  0  0  0  0  0  0
   12.2900    0.0820   23.5510 C   0  0  0  0  0  0  0  0  0  0  0  0
   11.0580    0.9830   23.6250 C   0  0  0  0  0  0  0  0  0  0  0  0
    9.8430    0.5300   22.7840 C   0  0  0  0  0  0  0  0  0  0  0  0
    7.1200    0.1840   19.7640 N   0  0  0  0  0  0  0  0  0  0  0  0
    5.9650    0.9670   19.4720 C   0  0  0  0  0  0  0  0  0  0  0  0
    6.1290    0.9700   17.9520 B   0  0  0  0  0  0  0  0  0  0  0  0
    5.1150    1.7510   17.2540 O   0  0  0  0  0  0  0  0  0  0  0  0
    7.4750    1.2620   17.5600 O   0  0  0  0  0  0  0  0  0  0  0  0
    6.2930    0.6590   20.7450 C   0  0  0  0  0  0  0  0  0  0  0  0
  1  2  2  0
  2  3  1  0
  3  4  1  0
  4  5  1  0
  2  6  1  0
  5  6  1  0
  6  7  1  6
  7  8  2  0
  8  9  1  0
  9 10  1  0
 10 11  1  0
 11 12  2  0
 12 13  1  0
 13 14  2  0
 14 15  1  0
 11 16  1  0
 15 16  2  0
  9 17  2  0
 17 18  1  0
 18 19  1  0
 19 20  1  0
 19 21  1  0
  7 22  1  0
 18 22  2  0
M  END
