RAJ-NOV-842d5654-2-acrylamide
     RDKit          3D

 23 25  0  0  0  0  0  0  0  0999 V2000
    5.6710   -5.4690   20.0520 C   0  0  0  0  0  0  0  0  0  0  0  0
    5.7840   -4.2210   20.9530 C   0  0  0  0  0  0  0  0  0  0  0  0
    5.5240   -2.9740   20.0580 C   0  0  0  0  0  0  0  0  0  0  0  0
    4.4420   -3.0990   19.3760 O   0  0  0  0  0  0  0  0  0  0  0  0
    6.4590   -1.8730   20.5050 C   0  0  0  0  0  0  0  0  0  0  0  0
    7.6070   -1.6620   20.7720 C   0  0  0  0  0  0  0  0  0  0  0  0
    6.1940   -1.3730   20.6010 C   0  0  0  0  0  0  0  0  0  0  0  0
    6.0120    0.1210   20.8830 C   0  0  2  0  0  0  0  0  0  0  0  0
    5.6760    0.7780   19.7850 C   0  0  0  0  0  0  0  0  0  0  0  0
    5.2980    2.1900   20.0000 C   0  0  0  0  0  0  0  0  0  0  0  0
    6.4670    2.5900   20.6440 N   0  0  0  0  0  0  0  0  0  0  0  0
    7.2570    1.2690   20.9310 C   0  0  0  0  0  0  0  0  0  0  0  0
    8.4860    1.3010   21.1290 O   0  0  0  0  0  0  0  0  0  0  0  0
    7.3970   -2.3480   20.6270 C   0  0  0  0  0  0  0  0  0  0  0  0
    8.0740   -1.0610   21.1810 C   0  0  0  0  0  0  0  0  0  0  0  0
    9.6330   -0.9030   21.6770 C   0  0  0  0  0  0  0  0  0  0  0  0
   10.0060    0.2710   22.4620 C   0  0  0  0  0  0  0  0  0  0  0  0
   10.7590    1.2840   23.1290 C   0  0  0  0  0  0  0  0  0  0  0  0
   11.4460    2.2120   23.7400 C   0  0  0  0  0  0  0  0  0  0  0  0
   12.7360    1.7920   23.4470 C   0  0  0  0  0  0  0  0  0  0  0  0
   12.6750    0.5820   22.6640 C   0  0  0  0  0  0  0  0  0  0  0  0
   11.5360   -0.1870   22.1880 C   0  0  0  0  0  0  0  0  0  0  0  0
    6.5730   -0.5420   20.9640 N   0  0  0  0  0  0  0  0  0  0  0  0
  1  2  1  0
  2  3  1  0
  3  4  2  0
  3  5  1  0
  5  6  2  0
  6  7  1  0
  8  7  1  6
  8  9  1  0
  9 10  1  0
 10 11  1  0
  8 12  1  0
 11 12  1  0
 12 13  2  0
  7 14  2  0
 14 15  1  0
 15 16  1  0
 16 17  1  0
 17 18  2  0
 18 19  1  0
 19 20  2  0
 20 21  1  0
 17 22  1  0
 21 22  2  0
  5 23  1  0
 15 23  2  0
M  END
