RAL-MED-2de63afb-12
     RDKit          3D

 21 22  0  0  0  0  0  0  0  0999 V2000
    6.2000    0.0830   18.3670 C   0  0  0  0  0  0  0  0  0  0  0  0
    5.6600    0.1970   19.7120 C   0  0  0  0  0  0  0  0  0  0  0  0
    5.1120   -0.7510   20.2680 O   0  0  0  0  0  0  0  0  0  0  0  0
    5.8300    1.4380   20.2810 N   0  0  0  0  0  0  0  0  0  0  0  0
    7.0010    1.7600   21.0970 C   0  0  0  0  0  0  0  0  0  0  0  0
    6.8650    1.4020   22.5690 C   0  0  0  0  0  0  0  0  0  0  0  0
    6.5000    2.5380   23.5140 C   0  0  0  0  0  0  0  0  0  0  0  0
    6.3400    2.2790   25.0020 C   0  0  0  0  0  0  0  0  0  0  0  0
    6.5690    0.8360   25.4520 C   0  0  0  0  0  0  0  0  0  0  0  0
    6.9360   -0.2240   24.4130 C   0  0  0  0  0  0  0  0  0  0  0  0
    7.1750   -1.5790   24.7120 N   0  0  0  0  0  0  0  0  0  0  0  0
    8.3140   -2.2690   24.3330 C   0  0  0  0  0  0  0  0  0  0  0  0
    9.3080   -1.7940   23.7950 O   0  0  0  0  0  0  0  0  0  0  0  0
    8.2730   -3.6390   24.6220 C   0  0  0  0  0  0  0  0  0  0  0  0
    7.2600   -4.5010   23.9130 C   0  0  0  0  0  0  0  0  0  0  0  0
    7.4610   -4.9170   22.6520 C   0  0  0  0  0  0  0  0  0  0  0  0
    7.0900   -5.5000   21.7580 N   0  0  0  0  0  0  0  0  0  0  0  0
    5.9080   -6.0120   22.1330 C   0  0  0  0  0  0  0  0  0  0  0  0
    5.3450   -5.8060   23.3730 N   0  0  0  0  0  0  0  0  0  0  0  0
    6.0410   -5.0350   24.2690 C   0  0  0  0  0  0  0  0  0  0  0  0
    7.0620    0.1090   23.0530 C   0  0  0  0  0  0  0  0  0  0  0  0
  1  2  1  0
  2  3  2  0
  2  4  1  0
  4  5  1  0
  5  6  1  0
  6  7  2  0
  7  8  1  0
  8  9  2  0
  9 10  1  0
 10 11  1  0
 11 12  1  0
 12 13  2  0
 12 14  1  0
 14 15  1  0
 15 16  2  0
 16 17  1  0
 17 18  2  0
 18 19  1  0
 15 20  1  0
 19 20  2  0
  6 21  1  0
 10 21  2  0
M  END
