RAL-MED-2de63afb-3
     RDKit          3D

 22 24  0  0  0  0  0  0  0  0999 V2000
    7.5190   -5.3780   23.8610 O   0  0  0  0  0  0  0  0  0  0  0  0
    6.2990   -5.4530   23.9680 C   0  0  0  0  0  0  0  0  0  0  0  0
    5.4880   -4.8200   25.0100 C   0  0  0  0  0  0  0  0  0  0  0  0
    4.2080   -5.5920   25.2500 C   0  0  2  0  0  0  0  0  0  0  0  0
    4.1610   -6.2810   26.6250 C   0  0  0  0  0  0  0  0  0  0  0  0
    2.7650   -6.5130   27.2020 C   0  0  0  0  0  0  0  0  0  0  0  0
    2.6900   -7.1980   28.5670 C   0  0  0  0  0  0  0  0  0  0  0  0
    3.9930   -7.5990   29.2530 C   0  0  0  0  0  0  0  0  0  0  0  0
    5.3100   -7.3070   28.5630 C   0  0  0  0  0  0  0  0  0  0  0  0
    6.5100   -7.6850   29.2020 N   0  0  0  0  0  0  0  0  0  0  0  0
    6.7180   -8.6400   30.2450 C   0  0  0  0  0  0  0  0  0  0  0  0
    6.2240   -8.4690   31.3620 O   0  0  0  0  0  0  0  0  0  0  0  0
    7.5540   -9.8890   30.1040 C   0  0  0  0  0  0  0  0  0  0  0  0
    7.9550  -10.7920   31.3110 C   0  0  0  0  0  0  0  0  0  0  0  0
    7.2830  -10.6660   32.5560 C   0  0  0  0  0  0  0  0  0  0  0  0
    7.7370  -11.5320   33.5320 N   0  0  0  0  0  0  0  0  0  0  0  0
    8.8130  -12.4550   33.2280 C   0  0  0  0  0  0  0  0  0  0  0  0
    9.4330  -12.5680   32.0810 N   0  0  0  0  0  0  0  0  0  0  0  0
    8.9770  -11.7230   31.1560 C   0  0  0  0  0  0  0  0  0  0  0  0
    5.3240   -6.6710   27.3060 C   0  0  0  0  0  0  0  0  0  0  0  0
    4.2620   -6.5660   24.0790 C   0  0  0  0  0  0  0  0  0  0  0  0
    5.2990   -6.0660   23.2650 N   0  0  0  0  0  0  0  0  0  0  0  0
  1  2  2  0
  2  3  1  0
  3  4  1  0
  4  5  1  1
  5  6  2  0
  6  7  1  0
  7  8  2  0
  8  9  1  0
  9 10  1  0
 10 11  1  0
 11 12  2  0
 11 13  1  0
 13 14  1  0
 14 15  2  0
 15 16  1  0
 16 17  2  0
 17 18  1  0
 14 19  1  0
 18 19  2  0
  5 20  1  0
  9 20  2  0
  4 21  1  0
  2 22  1  0
 21 22  1  0
M  END
