RAL-MED-2de63afb-5
     RDKit          3D

 22 24  0  0  0  0  0  0  0  0999 V2000
   10.7060  -12.7860   28.7020 O   0  0  0  0  0  0  0  0  0  0  0  0
    9.8260  -11.9680   28.9180 C   0  0  0  0  0  0  0  0  0  0  0  0
    9.6060  -11.2400   29.9700 C   0  0  0  0  0  0  0  0  0  0  0  0
    8.1620  -10.7140   29.6740 C   0  0  1  0  0  0  0  0  0  0  0  0
    7.5620   -9.2950   29.5460 O   0  0  0  0  0  0  0  0  0  0  0  0
    6.5220   -8.3690   30.1410 C   0  0  0  0  0  0  0  0  0  0  0  0
    6.1900   -8.1990   31.6570 C   0  0  0  0  0  0  0  0  0  0  0  0
    5.1380   -7.2040   32.1210 C   0  0  0  0  0  0  0  0  0  0  0  0
    4.4170   -6.3860   31.0800 C   0  0  0  0  0  0  0  0  0  0  0  0
    4.7860   -6.6100   29.6400 C   0  0  0  0  0  0  0  0  0  0  0  0
    4.0070   -5.7490   28.6400 C   0  0  0  0  0  0  0  0  0  0  0  0
    2.8130   -5.5320   28.8290 O   0  0  0  0  0  0  0  0  0  0  0  0
    4.6910   -5.2370   27.5470 N   0  0  0  0  0  0  0  0  0  0  0  0
    6.0470   -4.7450   27.6410 C   0  0  0  0  0  0  0  0  0  0  0  0
    6.5670   -4.6120   26.2230 C   0  0  0  0  0  0  0  0  0  0  0  0
    7.6000   -5.5170   25.9500 C   0  0  0  0  0  0  0  0  0  0  0  0
    8.0860   -5.4110   24.6600 N   0  0  0  0  0  0  0  0  0  0  0  0
    7.5210   -4.4260   23.7520 C   0  0  0  0  0  0  0  0  0  0  0  0
    6.5520   -3.5840   24.0300 N   0  0  0  0  0  0  0  0  0  0  0  0
    6.1030   -3.7090   25.2750 C   0  0  0  0  0  0  0  0  0  0  0  0
    5.7660   -7.5360   29.2370 C   0  0  0  0  0  0  0  0  0  0  0  0
    8.6910  -11.3590   28.4290 N   0  0  0  0  0  0  0  0  0  0  0  0
  1  2  2  0
  2  3  1  0
  3  4  1  0
  4  5  1  6
  5  6  1  0
  6  7  2  0
  7  8  1  0
  8  9  2  0
  9 10  1  0
 10 11  1  0
 11 12  2  0
 11 13  1  0
 13 14  1  0
 14 15  1  0
 15 16  2  0
 16 17  1  0
 17 18  2  0
 18 19  1  0
 15 20  1  0
 19 20  2  0
  6 21  1  0
 10 21  2  0
  2 22  1  0
  4 22  1  0
M  END
