RAL-MED-2de63afb-1
     RDKit          3D

 22 24  0  0  0  0  0  0  0  0999 V2000
    5.4010   -4.2170   19.9300 O   0  0  0  0  0  0  0  0  0  0  0  0
    5.8750   -4.5810   21.0160 C   0  0  0  0  0  0  0  0  0  0  0  0
    6.3630   -3.5960   21.9860 C   0  0  0  0  0  0  0  0  0  0  0  0
    5.2920   -3.1520   22.9700 C   0  0  0  0  0  0  0  0  0  0  0  0
    6.1350   -4.3830   23.5090 C   0  0  0  0  0  0  0  0  0  0  0  0
    6.2270   -5.3260   24.7710 C   0  0  0  0  0  0  0  0  0  0  0  0
    5.0990   -4.6590   25.5190 C   0  0  0  0  0  0  0  0  0  0  0  0
    4.2990   -3.6630   25.2690 N   0  0  0  0  0  0  0  0  0  0  0  0
    4.4290   -2.9760   24.0370 C   0  0  0  0  0  0  0  0  0  0  0  0
    5.9840   -5.8830   21.4540 N   0  0  0  0  0  0  0  0  0  0  0  0
    4.8510   -6.6840   21.4300 C   0  0  0  0  0  0  0  0  0  0  0  0
    4.4890   -7.6080   20.0680 C   0  0  0  0  0  0  0  0  0  0  0  0
    2.9990   -8.6690   19.9860 C   0  0  0  0  0  0  0  0  0  0  0  0
    2.0860   -8.5420   21.3030 C   0  0  0  0  0  0  0  0  0  0  0  0
    2.5580   -7.6420   22.4000 C   0  0  0  0  0  0  0  0  0  0  0  0
    1.6490   -7.6610   23.4320 O   0  0  0  0  0  0  0  0  0  0  0  0
    0.7240   -6.5670   23.5440 C   0  0  1  0  0  0  0  0  0  0  0  0
   -0.0630   -6.3150   22.4480 C   0  0  0  0  0  0  0  0  0  0  0  0
   -1.2540   -6.6320   22.9870 C   0  0  0  0  0  0  0  0  0  0  0  0
   -2.4320   -6.6640   22.7260 O   0  0  0  0  0  0  0  0  0  0  0  0
   -0.4990   -6.9450   24.0960 N   0  0  0  0  0  0  0  0  0  0  0  0
    3.8110   -6.7940   22.4890 C   0  0  0  0  0  0  0  0  0  0  0  0
  1  2  2  0
  2  3  1  0
  3  4  1  0
  4  5  2  0
  5  6  1  0
  6  7  2  0
  7  8  1  0
  4  9  1  0
  8  9  2  0
  2 10  1  0
 10 11  1  0
 11 12  2  0
 12 13  1  0
 13 14  2  0
 14 15  1  0
 15 16  1  0
 17 16  1  6
 17 18  1  0
 18 19  1  0
 19 20  2  0
 17 21  1  0
 19 21  1  0
 11 22  1  0
 15 22  2  0
M  END
