RAL-MED-2de63afb-7
     RDKit          3D

 22 24  0  0  0  0  0  0  0  0999 V2000
    8.1990   -2.0680   21.2520 O   0  0  0  0  0  0  0  0  0  0  0  0
    8.7630   -2.4300   22.2770 C   0  0  0  0  0  0  0  0  0  0  0  0
    8.8850   -3.8500   22.6250 C   0  0  0  0  0  0  0  0  0  0  0  0
    7.5310   -4.4550   22.9640 C   0  0  0  0  0  0  0  0  0  0  0  0
    6.8420   -5.3800   21.9100 C   0  0  0  0  0  0  0  0  0  0  0  0
    5.6400   -5.9500   22.1220 N   0  0  0  0  0  0  0  0  0  0  0  0
    5.3450   -5.5260   23.3120 C   0  0  0  0  0  0  0  0  0  0  0  0
    5.6750   -4.7520   24.4870 N   0  0  0  0  0  0  0  0  0  0  0  0
    6.8700   -4.2140   24.1820 C   0  0  0  0  0  0  0  0  0  0  0  0
    9.3200   -1.5920   23.2230 N   0  0  0  0  0  0  0  0  0  0  0  0
   10.4270   -0.7310   23.0980 C   0  0  0  0  0  0  0  0  0  0  0  0
   11.8630   -1.1890   22.9570 C   0  0  0  0  0  0  0  0  0  0  0  0
   12.9310   -0.1210   22.8570 C   0  0  0  0  0  0  0  0  0  0  0  0
   12.6710    1.2490   22.8900 C   0  0  0  0  0  0  0  0  0  0  0  0
   11.2180    1.6280   23.0250 C   0  0  0  0  0  0  0  0  0  0  0  0
   10.9220    2.9840   23.0870 C   0  0  0  0  0  0  0  0  0  0  0  0
   11.4220    3.8320   22.1140 C   0  0  2  0  0  0  0  0  0  0  0  0
   12.7560    4.0430   21.9980 C   0  0  0  0  0  0  0  0  0  0  0  0
   12.6600    5.4080   22.1130 C   0  0  0  0  0  0  0  0  0  0  0  0
   13.3330    6.4130   22.0520 O   0  0  0  0  0  0  0  0  0  0  0  0
   11.2660    5.1770   22.3600 N   0  0  0  0  0  0  0  0  0  0  0  0
   10.1740    0.6670   23.1180 C   0  0  0  0  0  0  0  0  0  0  0  0
  1  2  2  0
  2  3  1  0
  3  4  1  0
  4  5  2  0
  5  6  1  0
  6  7  2  0
  7  8  1  0
  4  9  1  0
  8  9  2  0
  2 10  1  0
 10 11  1  0
 11 12  2  0
 12 13  1  0
 13 14  2  0
 14 15  1  0
 15 16  1  0
 17 16  1  1
 17 18  1  0
 18 19  1  0
 19 20  2  0
 17 21  1  0
 19 21  1  0
 11 22  1  0
 15 22  2  0
M  END
