RAL-MED-2de63afb-2
     RDKit          3D

 23 25  0  0  0  0  0  0  0  0999 V2000
    5.1750    0.0140   17.8710 C   0  0  0  0  0  0  0  0  0  0  0  0
    5.2940   -0.3210   19.2660 C   0  0  0  0  0  0  0  0  0  0  0  0
    5.3840   -1.7820   19.5770 C   0  0  0  0  0  0  0  0  0  0  0  0
    5.5050   -2.1880   21.0290 C   0  0  0  0  0  0  0  0  0  0  0  0
    5.5930   -3.4590   21.4750 N   0  0  0  0  0  0  0  0  0  0  0  0
    5.5610   -4.4370   20.5410 C   0  0  0  0  0  0  0  0  0  0  0  0
    5.2220   -4.2080   19.3960 O   0  0  0  0  0  0  0  0  0  0  0  0
    5.9100   -5.8850   20.8900 C   0  0  0  0  0  0  0  0  0  0  0  0
    5.4700   -5.9390   22.3190 C   0  0  0  0  0  0  0  0  0  0  0  0
    5.3880   -5.6420   23.8270 C   0  0  0  0  0  0  0  0  0  0  0  0
    6.0810   -4.7960   24.6840 N   0  0  0  0  0  0  0  0  0  0  0  0
    7.0500   -4.0460   24.1850 C   0  0  0  0  0  0  0  0  0  0  0  0
    7.4130   -4.0860   22.8250 N   0  0  0  0  0  0  0  0  0  0  0  0
    6.5620   -5.0400   22.0760 C   0  0  0  0  0  0  0  0  0  0  0  0
    5.5270   -1.1470   21.9890 C   0  0  0  0  0  0  0  0  0  0  0  0
    5.4380    0.2020   21.6190 C   0  0  0  0  0  0  0  0  0  0  0  0
    5.4730    1.0880   22.6680 O   0  0  0  0  0  0  0  0  0  0  0  0
    4.5960    2.2340   22.6260 C   0  0  2  0  0  0  0  0  0  0  0  0
    4.8680    3.2600   21.7780 C   0  0  0  0  0  0  0  0  0  0  0  0
    4.9990    4.2020   22.7630 C   0  0  0  0  0  0  0  0  0  0  0  0
    5.2280    5.3800   22.9160 O   0  0  0  0  0  0  0  0  0  0  0  0
    4.7230    3.1170   23.6760 N   0  0  0  0  0  0  0  0  0  0  0  0
    5.3240    0.6140   20.2890 C   0  0  0  0  0  0  0  0  0  0  0  0
  1  2  1  0
  2  3  2  0
  3  4  1  0
  4  5  1  0
  5  6  1  0
  6  7  2  0
  6  8  1  0
  8  9  1  0
  9 10  2  0
 10 11  1  0
 11 12  2  0
 12 13  1  0
  9 14  1  0
 13 14  2  0
  4 15  2  0
 15 16  1  0
 16 17  1  0
 18 17  1  1
 18 19  1  0
 19 20  1  0
 20 21  2  0
 18 22  1  0
 20 22  1  0
  2 23  1  0
 16 23  2  0
M  END
