RAL-MED-2de63afb-10
     RDKit          3D

 18 19  0  0  0  0  0  0  0  0999 V2000
   13.2700   -1.3300   20.8880 C   0  0  0  0  0  0  0  0  0  0  0  0
   12.8160   -2.0620   22.0200 C   0  0  0  0  0  0  0  0  0  0  0  0
   13.0850   -1.6870   23.4380 C   0  0  0  0  0  0  0  0  0  0  0  0
   12.5170   -2.5480   24.5240 C   0  0  0  0  0  0  0  0  0  0  0  0
   13.1850   -2.6440   25.5350 O   0  0  0  0  0  0  0  0  0  0  0  0
   11.3300   -3.1680   24.3090 N   0  0  0  0  0  0  0  0  0  0  0  0
   10.3650   -2.5930   23.5370 C   0  0  0  0  0  0  0  0  0  0  0  0
   10.5850   -1.4610   22.5480 C   0  0  0  0  0  0  0  0  0  0  0  0
    9.3850   -0.9270   21.7630 C   0  0  0  0  0  0  0  0  0  0  0  0
    8.0280   -1.5470   21.9900 C   0  0  0  0  0  0  0  0  0  0  0  0
    7.9470   -2.6720   23.0000 C   0  0  0  0  0  0  0  0  0  0  0  0
    6.9160   -3.2600   23.2800 O   0  0  0  0  0  0  0  0  0  0  0  0
    6.9690   -4.6820   23.3890 C   0  0  2  0  0  0  0  0  0  0  0  0
    6.1500   -5.5460   22.4350 C   0  0  0  0  0  0  0  0  0  0  0  0
    5.1620   -5.9050   23.3350 C   0  0  0  0  0  0  0  0  0  0  0  0
    4.0980   -6.4720   23.4040 O   0  0  0  0  0  0  0  0  0  0  0  0
    5.9560   -5.2850   24.2480 N   0  0  0  0  0  0  0  0  0  0  0  0
    9.0750   -3.1190   23.6930 C   0  0  0  0  0  0  0  0  0  0  0  0
  1  2  1  0
  2  3  2  3
  3  4  1  0
  4  5  2  0
  4  6  1  0
  6  7  1  0
  7  8  2  0
  8  9  1  0
  9 10  2  0
 10 11  1  0
 11 12  1  0
 13 12  1  6
 13 14  1  0
 14 15  1  0
 15 16  2  0
 13 17  1  0
 15 17  1  0
  7 18  1  0
 11 18  2  0
M  END
