RED-SAT-26a928c9-1
     RDKit          3D

 26 28  0  0  0  0  0  0  0  0999 V2000
   20.7030  -21.4940   23.9450 C   0  0  0  0  0  0  0  0  0  0  0  0
   19.7550  -20.5470   24.6290 C   0  0  0  0  0  0  0  0  0  0  0  0
   18.4950  -20.5030   25.2450 C   0  0  0  0  0  0  0  0  0  0  0  0
   17.8710  -19.2570   25.8400 C   0  0  0  0  0  0  0  0  0  0  0  0
   18.3560  -18.0470   25.8890 N   0  0  0  0  0  0  0  0  0  0  0  0
   19.5520  -18.0520   25.3060 C   0  0  0  0  0  0  0  0  0  0  0  0
   20.3160  -19.2190   24.6580 C   0  0  0  0  0  0  0  0  0  0  0  0
   21.5760  -18.9820   24.0690 N   0  0  0  0  0  0  0  0  0  0  0  0
   22.3240  -17.8130   24.1930 C   0  0  0  0  0  0  0  0  0  0  0  0
   21.9810  -16.6870   23.8340 O   0  0  0  0  0  0  0  0  0  0  0  0
   23.5720  -18.0360   24.7890 C   0  0  0  0  0  0  0  0  0  0  0  0
   24.0050  -19.3610   24.2970 N   0  0  0  0  0  0  0  0  0  0  0  0
   22.9350  -20.3790   24.4340 C   0  0  0  0  0  0  0  0  0  0  0  0
   23.4080  -21.6340   24.0520 C   0  0  0  0  0  0  0  0  0  0  0  0
   23.6050  -21.6530   22.5980 N   0  0  0  0  0  0  0  0  0  0  0  0
   22.6620  -22.2980   21.7780 C   0  0  0  0  0  0  0  0  0  0  0  0
   21.6080  -22.7880   22.1990 O   0  0  0  0  0  0  0  0  0  0  0  0
   22.9960  -22.3120   20.4450 N   0  0  0  0  0  0  0  0  0  0  0  0
   22.5950  -23.2460   19.4850 C   0  0  0  0  0  0  0  0  0  0  0  0
   22.3110  -24.5860   19.7820 C   0  0  0  0  0  0  0  0  0  0  0  0
   21.9290  -25.4680   18.7690 C   0  0  0  0  0  0  0  0  0  0  0  0
   21.8290  -25.0150   17.4590 C   0  0  0  0  0  0  0  0  0  0  0  0
   22.0980  -23.6820   17.1500 C   0  0  0  0  0  0  0  0  0  0  0  0
   22.4770  -22.8020   18.1560 C   0  0  0  0  0  0  0  0  0  0  0  0
   24.4540  -20.6250   22.1690 C   0  0  0  0  0  0  0  0  0  0  0  0
   24.3660  -19.2580   22.8690 C   0  0  0  0  0  0  0  0  0  0  0  0
  1  2  1  0
  2  3  2  0
  3  4  1  0
  4  5  2  0
  5  6  1  0
  2  7  1  0
  6  7  2  0
  7  8  1  0
  8  9  1  0
  9 10  2  0
  9 11  1  0
 11 12  1  0
 12 13  1  0
 13 14  1  0
 14 15  1  0
 15 16  1  0
 16 17  2  0
 16 18  1  0
 18 19  1  0
 19 20  2  0
 20 21  1  0
 21 22  2  0
 22 23  1  0
 19 24  1  0
 23 24  2  0
 15 25  1  0
 12 26  1  0
 25 26  1  0
M  END
