RIC-ARG-a8e88843-8
     RDKit          3D

 24 26  0  0  0  0  0  0  0  0999 V2000
   12.5420    2.0220   23.3170 O   0  0  0  0  0  0  0  0  0  0  0  0
   11.4900    1.5670   23.7400 C   0  0  0  0  0  0  0  0  0  0  0  0
   10.3010    2.2710   23.6590 N   0  0  0  0  0  0  0  0  0  0  0  0
   10.0100    3.5620   24.1530 C   0  0  0  0  0  0  0  0  0  0  0  0
    8.8120    3.9090   24.9640 C   0  0  0  0  0  0  0  0  0  0  0  0
    8.9030    5.3600   25.2630 N   0  0  0  0  0  0  0  0  0  0  0  0
   10.0870    5.7240   24.6330 N   0  0  0  0  0  0  0  0  0  0  0  0
   10.6090    7.0200   24.6290 C   0  0  0  0  0  0  0  0  0  0  0  0
    9.7970    7.9880   25.2210 C   0  0  0  0  0  0  0  0  0  0  0  0
   10.4600    8.2390   26.1770 O   0  0  0  0  0  0  0  0  0  0  0  0
   11.4670    7.3470   25.9060 C   0  0  0  0  0  0  0  0  0  0  0  0
   10.7860    4.6840   23.9560 C   0  0  0  0  0  0  0  0  0  0  0  0
   11.3990    0.3490   24.3260 N   0  0  0  0  0  0  0  0  0  0  0  0
   10.0950   -0.2650   24.6350 C   0  0  0  0  0  0  0  0  0  0  0  0
    9.9530   -1.7980   24.4840 C   0  0  0  0  0  0  0  0  0  0  0  0
    9.9170   -2.3650   23.0770 C   0  0  0  0  0  0  0  0  0  0  0  0
   10.2120   -1.4490   21.9080 C   0  0  0  0  0  0  0  0  0  0  0  0
   11.3860   -1.7420   21.3150 N   0  0  0  0  0  0  0  0  0  0  0  0
   12.5720   -1.6330   21.8270 C   0  0  0  0  0  0  0  0  0  0  0  0
   13.4150   -2.4720   21.5850 O   0  0  0  0  0  0  0  0  0  0  0  0
   12.6840   -0.3930   22.6930 C   0  0  0  0  0  0  0  0  0  0  0  0
   11.7300    0.4430   22.3290 F   0  0  0  0  0  0  0  0  0  0  0  0
   13.8160    0.3220   22.5070 F   0  0  0  0  0  0  0  0  0  0  0  0
   12.4690   -0.5570   24.1670 C   0  0  0  0  0  0  0  0  0  0  0  0
  1  2  2  0
  2  3  1  0
  3  4  1  0
  4  5  1  0
  5  6  2  0
  6  7  1  0
  7  8  1  0
  8  9  1  0
  9 10  1  0
  8 11  1  0
 10 11  1  0
  4 12  2  0
  7 12  1  0
  2 13  1  0
 13 14  1  0
 14 15  1  0
 15 16  1  0
 16 17  1  0
 17 18  1  0
 18 19  1  0
 19 20  2  0
 19 21  1  0
 21 22  1  0
 21 23  1  0
 13 24  1  0
 21 24  1  0
M  END
