ROM-UNK-ef52a3c9-4
     RDKit          3D

 22 24  0  0  0  0  0  0  0  0999 V2000
   13.5390   -2.7140   23.4350 C   0  0  0  0  0  0  0  0  0  0  0  0
   13.2090   -2.0250   22.3440 C   0  0  0  0  0  0  0  0  0  0  0  0
   12.3680   -0.9360   22.7980 C   0  0  0  0  0  0  0  0  0  0  0  0
   11.0790   -1.2670   23.4660 C   0  0  0  0  0  0  0  0  0  0  0  0
   10.2030   -0.4030   23.9550 N   0  0  0  0  0  0  0  0  0  0  0  0
   10.6260    0.8610   23.7650 C   0  0  0  0  0  0  0  0  0  0  0  0
    9.8970    1.9340   24.1800 N   0  0  0  0  0  0  0  0  0  0  0  0
   10.5560    3.0780   23.8470 C   0  0  0  0  0  0  0  0  0  0  0  0
   11.7340    2.7700   23.2040 C   0  0  0  0  0  0  0  0  0  0  0  0
   12.6150    3.7480   22.7300 C   0  0  0  0  0  0  0  0  0  0  0  0
   12.3990    5.0530   23.1790 C   0  0  0  0  0  0  0  0  0  0  0  0
   11.1760    5.6380   22.6450 N   0  0  0  0  0  0  0  0  0  0  0  0
   10.1980    6.1140   23.4930 C   0  0  0  0  0  0  0  0  0  0  0  0
   10.3660    6.2850   24.6970 O   0  0  0  0  0  0  0  0  0  0  0  0
    8.8560    6.4460   22.8600 C   0  0  0  0  0  0  0  0  0  0  0  0
    8.1290    5.2210   22.3580 C   0  0  0  0  0  0  0  0  0  0  0  0
    6.8000    5.4100   21.7120 C   0  0  0  0  0  0  0  0  0  0  0  0
    6.3020    6.7180   21.6080 C   0  0  0  0  0  0  0  0  0  0  0  0
    7.0250    7.8300   22.0990 C   0  0  0  0  0  0  0  0  0  0  0  0
    8.2890    7.7040   22.7210 C   0  0  0  0  0  0  0  0  0  0  0  0
   11.8020    1.3390   23.1500 C   0  0  0  0  0  0  0  0  0  0  0  0
   12.7080    0.4030   22.6580 C   0  0  0  0  0  0  0  0  0  0  0  0
  1  2  1  0
  2  3  1  0
  3  4  2  0
  4  5  1  0
  5  6  2  0
  6  7  1  0
  7  8  1  0
  8  9  2  0
  9 10  1  0
 10 11  1  0
 11 12  1  0
 12 13  1  0
 13 14  2  0
 13 15  1  0
 15 16  2  0
 16 17  1  0
 17 18  2  0
 18 19  1  0
 15 20  1  0
 19 20  2  0
  6 21  1  0
  9 21  1  0
  3 22  1  0
 21 22  2  0
M  END
