ROM-UNK-ef52a3c9-2
     RDKit          3D

 21 22  0  0  0  0  0  0  0  0999 V2000
    9.3990    7.0200   22.6110 C   0  0  0  0  0  0  0  0  0  0  0  0
   10.5880    6.6620   23.3930 C   0  0  0  0  0  0  0  0  0  0  0  0
   11.3760    5.6040   22.7820 N   0  0  0  0  0  0  0  0  0  0  0  0
   12.7960    5.8310   22.5480 C   0  0  0  0  0  0  0  0  0  0  0  0
   13.3710    4.8440   21.5710 C   0  0  0  0  0  0  0  0  0  0  0  0
   10.9440    4.3670   23.1960 C   0  0  0  0  0  0  0  0  0  0  0  0
   11.1480    3.9890   24.3250 O   0  0  0  0  0  0  0  0  0  0  0  0
   10.1950    3.5050   22.2220 C   0  0  0  0  0  0  0  0  0  0  0  0
    9.9970    2.0960   22.7700 C   0  0  1  0  0  0  0  0  0  0  0  0
    9.3030    2.0220   24.1410 C   0  0  0  0  0  0  0  0  0  0  0  0
    9.2790    0.6430   24.6340 N   0  0  0  0  0  0  0  0  0  0  0  0
   10.2840   -0.1680   23.9120 C   0  0  0  0  0  0  0  0  0  0  0  0
   10.2900   -0.0530   22.3650 C   0  0  0  0  0  0  0  0  0  0  0  0
    9.4910    1.0600   21.7860 N   0  0  0  0  0  0  0  0  0  0  0  0
    7.9660    0.7090   21.6080 C   0  0  0  0  0  0  0  0  0  0  0  0
    7.2220    0.8100   20.1730 C   0  0  0  0  0  0  0  0  0  0  0  0
    7.1660    1.8810   20.8300 C   0  0  0  0  0  0  0  0  0  0  0  0
    7.7800    0.9690   21.5540 C   0  0  0  0  0  0  0  0  0  0  0  0
    7.7330   -0.2490   20.6410 C   0  0  0  0  0  0  0  0  0  0  0  0
    7.0740   -0.1460   19.2940 C   0  0  0  0  0  0  0  0  0  0  0  0
    6.6050    1.0750   19.1010 N   0  0  0  0  0  0  0  0  0  0  0  0
  1  2  1  0
  2  3  1  0
  3  4  1  0
  4  5  1  0
  3  6  1  0
  6  7  2  0
  6  8  1  0
  9  8  1  6
  9 10  1  0
 10 11  1  0
 11 12  1  0
 12 13  1  0
  9 14  1  0
 13 14  1  0
 14 15  1  0
 15 16  1  0
 16 17  2  0
 17 18  1  0
 18 19  2  0
 19 20  1  0
 16 21  1  0
 20 21  2  0
M  END
