ROM-UNK-ef52a3c9-1
     RDKit          3D

 19 21  0  0  0  0  0  0  0  0999 V2000
    8.3800    0.8790   21.4090 O   0  0  0  0  0  0  0  0  0  0  0  0
    8.1140   -0.2820   21.7250 C   0  0  0  0  0  0  0  0  0  0  0  0
    6.9450   -0.9310   21.1870 C   0  0  0  0  0  0  0  0  0  0  0  0
    6.5100   -0.2890   19.8860 C   0  0  0  0  0  0  0  0  0  0  0  0
    5.4590    0.4730   20.6130 C   0  0  0  0  0  0  0  0  0  0  0  0
    4.7050    1.3140   19.7220 C   0  0  0  0  0  0  0  0  0  0  0  0
    5.1070    1.2760   18.2340 C   0  0  0  0  0  0  0  0  0  0  0  0
    6.1120    0.5070   17.7170 N   0  0  0  0  0  0  0  0  0  0  0  0
    6.8080   -0.2760   18.5720 C   0  0  0  0  0  0  0  0  0  0  0  0
    6.3940   -1.9840   21.8150 C   0  0  0  0  0  0  0  0  0  0  0  0
    6.9070   -2.5680   23.0820 N   0  0  0  0  0  0  0  0  0  0  0  0
    8.3360   -2.2750   23.3530 C   0  0  0  0  0  0  0  0  0  0  0  0
    8.9840   -1.0620   22.6450 C   0  0  0  0  0  0  0  0  0  0  0  0
   10.3630   -0.6240   22.8270 C   0  0  0  0  0  0  0  0  0  0  0  0
   10.6460    0.6340   23.5970 C   0  0  0  0  0  0  0  0  0  0  0  0
   11.9490    1.0360   23.7160 C   0  0  0  0  0  0  0  0  0  0  0  0
   12.9490    0.2780   23.1390 C   0  0  0  0  0  0  0  0  0  0  0  0
   12.6360   -0.8820   22.4490 C   0  0  0  0  0  0  0  0  0  0  0  0
   11.3760   -1.3460   22.2830 N   0  0  0  0  0  0  0  0  0  0  0  0
  1  2  2  0
  2  3  1  0
  3  4  1  0
  4  5  2  0
  5  6  1  0
  6  7  2  0
  7  8  1  0
  4  9  1  0
  8  9  2  0
  3 10  2  0
 10 11  1  0
 11 12  1  0
  2 13  1  0
 12 13  2  0
 13 14  1  0
 14 15  2  0
 15 16  1  0
 16 17  2  0
 17 18  1  0
 14 19  1  0
 18 19  2  0
M  END
