ROM-UNK-ef52a3c9-3
     RDKit          3D

 22 24  0  0  0  0  0  0  0  0999 V2000
   12.8470   -2.3540   21.0930 C   0  0  0  0  0  0  0  0  0  0  0  0
   13.2940   -1.9150   22.2390 C   0  0  0  0  0  0  0  0  0  0  0  0
   12.3840   -0.9390   22.8150 C   0  0  0  0  0  0  0  0  0  0  0  0
   11.1540   -1.3280   23.5590 C   0  0  0  0  0  0  0  0  0  0  0  0
   10.2770   -0.4810   24.0930 N   0  0  0  0  0  0  0  0  0  0  0  0
   10.6360    0.8010   23.8710 C   0  0  0  0  0  0  0  0  0  0  0  0
    9.8930    1.8520   24.3130 N   0  0  0  0  0  0  0  0  0  0  0  0
   10.4890    3.0180   23.9340 C   0  0  0  0  0  0  0  0  0  0  0  0
   11.6440    2.7520   23.2290 C   0  0  0  0  0  0  0  0  0  0  0  0
   12.4510    3.7650   22.6970 C   0  0  0  0  0  0  0  0  0  0  0  0
   12.2330    5.0530   23.1900 C   0  0  0  0  0  0  0  0  0  0  0  0
   10.9660    5.6240   22.7250 N   0  0  0  0  0  0  0  0  0  0  0  0
   10.1230    6.2330   23.6320 C   0  0  0  0  0  0  0  0  0  0  0  0
   10.5540    6.8010   24.6240 O   0  0  0  0  0  0  0  0  0  0  0  0
    8.6030    6.1770   23.4260 C   0  0  0  0  0  0  0  0  0  0  0  0
    8.2620    6.5890   22.0000 C   0  0  0  0  0  0  0  0  0  0  0  0
    7.0460    7.4400   21.7760 C   0  0  0  0  0  0  0  0  0  0  0  0
    6.6140    8.1060   22.7250 O   0  0  0  0  0  0  0  0  0  0  0  0
    7.5830    8.3530   23.7450 C   0  0  0  0  0  0  0  0  0  0  0  0
    7.8860    7.1420   24.3770 C   0  0  0  0  0  0  0  0  0  0  0  0
   11.7570    1.3210   23.1900 C   0  0  0  0  0  0  0  0  0  0  0  0
   12.6580    0.4090   22.6580 C   0  0  0  0  0  0  0  0  0  0  0  0
  1  2  1  0
  2  3  1  0
  3  4  2  0
  4  5  1  0
  5  6  2  0
  6  7  1  0
  7  8  1  0
  8  9  2  0
  9 10  1  0
 10 11  1  0
 11 12  1  0
 12 13  1  0
 13 14  2  0
 13 15  1  0
 15 16  1  0
 16 17  1  0
 17 18  1  0
 18 19  1  0
 15 20  1  0
 19 20  1  0
  6 21  1  0
  9 21  1  0
  3 22  1  0
 21 22  2  0
M  END
