RUT-UNI-630c5802-9
     RDKit          3D

 35 39  0  0  0  0  0  0  0  0999 V2000
    3.8620    3.5630   20.0830 O   0  0  0  0  0  0  0  0  0  0  0  0
    3.1290    2.8040   19.4660 C   0  0  0  0  0  0  0  0  0  0  0  0
    3.6280    1.8240   18.6200 N   0  0  0  0  0  0  0  0  0  0  0  0
    4.8560    1.2300   18.9400 C   0  0  0  0  0  0  0  0  0  0  0  0
    4.9410    1.0850   20.4170 C   0  0  0  0  0  0  0  0  0  0  0  0
    6.0430    0.5620   21.0120 C   0  0  0  0  0  0  0  0  0  0  0  0
    7.1110    0.1530   20.2530 C   0  0  0  0  0  0  0  0  0  0  0  0
    8.2380   -0.3370   20.9230 N   0  0  0  0  0  0  0  0  0  0  0  0
    8.4580   -1.7020   21.4680 C   0  0  0  0  0  0  0  0  0  0  0  0
    7.4880   -2.6300   21.1800 C   0  0  0  0  0  0  0  0  0  0  0  0
    6.5220   -2.4660   20.0140 C   0  0  0  0  0  0  0  0  0  0  0  0
    5.4420   -3.7590   19.9030 S   0  0  0  0  0  0  0  0  0  0  0  0
    6.0940   -4.5560   21.2490 C   0  0  0  0  0  0  0  0  0  0  0  0
    5.6450   -5.7250   21.7220 F   0  0  0  0  0  0  0  0  0  0  0  0
    7.2530   -3.7960   21.8710 C   0  0  0  0  0  0  0  0  0  0  0  0
    8.8730    0.7680   21.6530 C   0  0  0  0  0  0  0  0  0  0  0  0
    9.1630    1.8480   21.1660 O   0  0  0  0  0  0  0  0  0  0  0  0
    9.0750    0.3770   23.1100 C   0  0  0  0  0  0  0  0  0  0  0  0
   10.2360   -0.2200   23.5380 N   0  0  0  0  0  0  0  0  0  0  0  0
   10.4820    0.0220   24.8320 N   0  0  0  0  0  0  0  0  0  0  0  0
   11.5380   -0.5720   25.1720 N   0  0  0  0  0  0  0  0  0  0  0  0
   11.9410   -1.2050   24.0390 C   0  0  0  0  0  0  0  0  0  0  0  0
   13.2890   -2.0650   24.2950 C   0  0  0  0  0  0  0  0  0  0  0  0
   13.7770   -2.7450   23.2150 C   0  0  0  0  0  0  0  0  0  0  0  0
   12.7410   -2.0230   23.1550 C   0  0  0  0  0  0  0  0  0  0  0  0
   11.9850   -1.7840   22.1760 C   0  0  0  0  0  0  0  0  0  0  0  0
   11.0890   -1.0170   22.7590 C   0  0  0  0  0  0  0  0  0  0  0  0
    7.0430    0.2670   18.8340 C   0  0  0  0  0  0  0  0  0  0  0  0
    5.9330    0.7980   18.1730 C   0  0  0  0  0  0  0  0  0  0  0  0
    1.6660    2.9470   19.7140 C   0  0  0  0  0  0  0  0  0  0  0  0
    0.9370    4.0550   19.2670 C   0  0  0  0  0  0  0  0  0  0  0  0
   -0.4290    4.1450   19.5480 C   0  0  0  0  0  0  0  0  0  0  0  0
   -1.0680    3.1330   20.2700 C   0  0  0  0  0  0  0  0  0  0  0  0
   -0.3400    2.0270   20.7100 C   0  0  0  0  0  0  0  0  0  0  0  0
    1.0220    1.9410   20.4300 C   0  0  0  0  0  0  0  0  0  0  0  0
  1  2  2  0
  2  3  1  0
  3  4  1  0
  4  5  2  0
  5  6  1  0
  6  7  2  0
  7  8  1  0
  8  9  1  0
  9 10  1  0
 10 11  2  0
 11 12  1  0
 12 13  1  0
 13 14  1  0
 10 15  1  0
 13 15  2  0
  8 16  1  0
 16 17  2  0
 16 18  1  0
 18 19  1  0
 19 20  1  0
 20 21  2  0
 21 22  1  0
 22 23  1  0
 23 24  2  0
 24 25  1  0
 25 26  2  0
 19 27  1  0
 22 27  2  0
 26 27  1  0
  7 28  1  0
  4 29  1  0
 28 29  2  0
  2 30  1  0
 30 31  2  0
 31 32  1  0
 32 33  2  0
 33 34  1  0
 30 35  1  0
 34 35  2  0
M  END
