RUT-UNI-630c5802-17
     RDKit          3D

 25 27  0  0  0  0  0  0  0  0999 V2000
    5.4370   -2.4010   18.9520 C   0  0  0  0  0  0  0  0  0  0  0  0
    6.1470   -2.4190   20.2660 C   0  0  0  0  0  0  0  0  0  0  0  0
    7.6320   -2.1680   20.0570 C   0  0  0  0  0  0  0  0  0  0  0  0
    5.9220   -3.7940   20.9260 C   0  0  0  0  0  0  0  0  0  0  0  0
    5.6220   -1.2750   21.1500 C   0  0  0  0  0  0  0  0  0  0  0  0
    5.5830   -0.0600   20.4750 C   0  0  0  0  0  0  0  0  0  0  0  0
    5.8980    1.1200   21.1220 N   0  0  0  0  0  0  0  0  0  0  0  0
    5.2090    2.3680   20.7290 C   0  0  0  0  0  0  0  0  0  0  0  0
    3.6670    2.2300   20.7610 C   0  0  0  0  0  0  0  0  0  0  0  0
    3.0360    1.5540   21.9840 C   0  0  0  0  0  0  0  0  0  0  0  0
    1.5270    1.5420   21.7880 C   0  0  0  0  0  0  0  0  0  0  0  0
    1.0960    2.2690   20.3000 S   0  0  0  0  0  0  0  0  0  0  0  0
    2.7210    2.6320   19.8300 C   0  0  0  0  0  0  0  0  0  0  0  0
    6.9830    1.1810   22.1480 C   0  0  0  0  0  0  0  0  0  0  0  0
    7.0030    1.9660   23.0880 O   0  0  0  0  0  0  0  0  0  0  0  0
    8.0980    0.1430   21.9030 C   0  0  0  0  0  0  0  0  0  0  0  0
    9.0770    0.0930   22.9630 N   0  0  0  0  0  0  0  0  0  0  0  0
    8.7290    0.5570   24.2070 N   0  0  0  0  0  0  0  0  0  0  0  0
    9.7990    0.4430   25.0310 N   0  0  0  0  0  0  0  0  0  0  0  0
   10.7480   -0.0920   24.2060 C   0  0  0  0  0  0  0  0  0  0  0  0
   12.0360   -0.3670   24.6280 C   0  0  0  0  0  0  0  0  0  0  0  0
   12.9420   -0.9110   23.7340 C   0  0  0  0  0  0  0  0  0  0  0  0
   12.5580   -1.1880   22.4340 C   0  0  0  0  0  0  0  0  0  0  0  0
   11.2590   -0.9110   22.0330 C   0  0  0  0  0  0  0  0  0  0  0  0
   10.3800   -0.3530   22.9310 C   0  0  0  0  0  0  0  0  0  0  0  0
  2  1  1  0
  2  3  1  0
  2  4  1  0
  2  5  1  0
  5  6  1  0
  6  7  1  0
  7  8  1  0
  8  9  1  0
  9 10  1  0
 10 11  2  0
 11 12  1  0
  9 13  2  0
 12 13  1  0
  7 14  1  0
 14 15  2  0
 14 16  1  0
 16 17  1  0
 17 18  1  0
 18 19  2  0
 19 20  1  0
 20 21  1  0
 21 22  2  0
 22 23  1  0
 23 24  2  0
 17 25  1  0
 20 25  2  0
 24 25  1  0
M  END
