RUT-UNI-630c5802-2
     RDKit          3D

 31 34  0  0  0  0  0  0  0  0999 V2000
   15.6790    5.0970   22.9820 O   0  0  0  0  0  0  0  0  0  0  0  0
   16.2830    4.1020   22.6730 C   0  0  0  0  0  0  0  0  0  0  0  0
   15.4620    3.1680   21.8990 N   0  0  0  0  0  0  0  0  0  0  0  0
   14.0660    2.6840   22.1780 C   0  0  0  0  0  0  0  0  0  0  0  0
   12.9000    3.6520   22.3500 C   0  0  0  0  0  0  0  0  0  0  0  0
   11.5950    3.1810   22.6370 C   0  0  0  0  0  0  0  0  0  0  0  0
   11.3180    1.8060   22.7760 C   0  0  0  0  0  0  0  0  0  0  0  0
   10.0230    1.2940   23.0390 N   0  0  0  0  0  0  0  0  0  0  0  0
    9.7130    0.5500   24.2840 C   0  0  0  0  0  0  0  0  0  0  0  0
    9.4880   -0.8150   24.0660 C   0  0  0  0  0  0  0  0  0  0  0  0
    9.8830   -1.5090   22.7530 C   0  0  0  0  0  0  0  0  0  0  0  0
    9.4960   -2.9910   22.8480 C   0  0  0  0  0  0  0  0  0  0  0  0
    8.7790   -3.3330   24.3630 S   0  0  0  0  0  0  0  0  0  0  0  0
    8.9040   -1.7180   24.9510 C   0  0  0  0  0  0  0  0  0  0  0  0
    9.0490    1.4620   21.9030 C   0  0  0  0  0  0  0  0  0  0  0  0
    9.0000    2.4940   21.2630 O   0  0  0  0  0  0  0  0  0  0  0  0
    8.1280    0.2480   21.6020 C   0  0  0  0  0  0  0  0  0  0  0  0
    7.1260    0.4960   20.4440 C   0  0  0  0  0  0  0  0  0  0  0  0
    6.0730    1.5940   20.6000 C   0  0  0  0  0  0  0  0  0  0  0  0
    5.2050    1.7700   19.5170 C   0  0  0  0  0  0  0  0  0  0  0  0
    5.3290    0.9690   18.3770 C   0  0  0  0  0  0  0  0  0  0  0  0
    6.2560   -0.0030   18.2290 N   0  0  0  0  0  0  0  0  0  0  0  0
    7.1220   -0.2220   19.2490 C   0  0  0  0  0  0  0  0  0  0  0  0
   12.3890    0.9150   22.6250 C   0  0  0  0  0  0  0  0  0  0  0  0
   13.6910    1.3360   22.3380 C   0  0  0  0  0  0  0  0  0  0  0  0
   17.7840    4.0690   23.3420 C   0  0  0  0  0  0  0  0  0  0  0  0
   19.0580    4.4880   22.7810 C   0  0  0  0  0  0  0  0  0  0  0  0
   20.2880    4.5090   23.4880 C   0  0  0  0  0  0  0  0  0  0  0  0
   20.3610    4.0700   24.7650 C   0  0  0  0  0  0  0  0  0  0  0  0
   19.2110    3.6350   25.3260 C   0  0  0  0  0  0  0  0  0  0  0  0
   17.9790    3.6570   24.6320 C   0  0  0  0  0  0  0  0  0  0  0  0
  1  2  2  0
  2  3  1  0
  3  4  1  0
  4  5  2  0
  5  6  1  0
  6  7  2  0
  7  8  1  0
  8  9  1  0
  9 10  1  0
 10 11  1  0
 11 12  2  0
 12 13  1  0
 10 14  2  0
 13 14  1  0
  8 15  1  0
 15 16  2  0
 15 17  1  0
 17 18  1  0
 18 19  2  0
 19 20  1  0
 20 21  2  0
 21 22  1  0
 18 23  1  0
 22 23  2  0
  7 24  1  0
  4 25  1  0
 24 25  2  0
  2 26  1  0
 26 27  2  0
 27 28  1  0
 28 29  2  0
 29 30  1  0
 26 31  1  0
 30 31  2  0
M  END
