RUT-UNI-630c5802-26
     RDKit          3D

 30 33  0  0  0  0  0  0  0  0999 V2000
    4.3560    2.8630   17.8490 C   0  0  0  0  0  0  0  0  0  0  0  0
    3.9750    1.7710   18.5350 N   0  0  0  0  0  0  0  0  0  0  0  0
    3.0540    1.9370   19.5970 C   0  0  0  0  0  0  0  0  0  0  0  0
    3.3210    3.2700   20.2830 C   0  0  0  0  0  0  0  0  0  0  0  0
    2.4810    3.4380   21.4300 O   0  0  0  0  0  0  0  0  0  0  0  0
    5.0370    1.1360   19.0180 C   0  0  0  0  0  0  0  0  0  0  0  0
    5.2310    1.2430   20.3500 C   0  0  0  0  0  0  0  0  0  0  0  0
    6.2660    0.6880   20.9910 C   0  0  0  0  0  0  0  0  0  0  0  0
    7.2200   -0.0380   20.3530 C   0  0  0  0  0  0  0  0  0  0  0  0
    8.2200   -0.4960   21.1690 N   0  0  0  0  0  0  0  0  0  0  0  0
    8.0630   -1.6930   21.9970 C   0  0  0  0  0  0  0  0  0  0  0  0
    7.1260   -1.4550   23.2090 C   0  0  0  0  0  0  0  0  0  0  0  0
    5.6470   -1.3730   22.9790 C   0  0  0  0  0  0  0  0  0  0  0  0
    4.8830   -1.1430   24.2500 C   0  0  0  0  0  0  0  0  0  0  0  0
    5.9830   -1.0500   25.5690 S   0  0  0  0  0  0  0  0  0  0  0  0
    7.3890   -1.2910   24.5800 C   0  0  0  0  0  0  0  0  0  0  0  0
    9.0270    0.6010   21.6740 C   0  0  0  0  0  0  0  0  0  0  0  0
    9.0200    1.6820   21.0960 O   0  0  0  0  0  0  0  0  0  0  0  0
    9.8870    0.5490   22.9180 C   0  0  0  0  0  0  0  0  0  0  0  0
   10.8330   -0.4150   22.9700 N   0  0  0  0  0  0  0  0  0  0  0  0
   11.0260   -1.2240   21.9340 N   0  0  0  0  0  0  0  0  0  0  0  0
   11.9530   -2.0390   22.2560 N   0  0  0  0  0  0  0  0  0  0  0  0
   12.3440   -1.7500   23.5110 C   0  0  0  0  0  0  0  0  0  0  0  0
   13.4260   -2.5950   24.1590 C   0  0  0  0  0  0  0  0  0  0  0  0
   13.8520   -2.3380   25.4620 C   0  0  0  0  0  0  0  0  0  0  0  0
   12.9920   -1.7200   24.8010 C   0  0  0  0  0  0  0  0  0  0  0  0
   12.3230   -0.7400   25.1350 C   0  0  0  0  0  0  0  0  0  0  0  0
   11.5740   -0.5360   24.1150 C   0  0  0  0  0  0  0  0  0  0  0  0
    7.0950   -0.2160   18.9670 C   0  0  0  0  0  0  0  0  0  0  0  0
    5.9990    0.3740   18.2930 C   0  0  0  0  0  0  0  0  0  0  0  0
  1  2  1  0
  2  3  1  0
  3  4  1  0
  4  5  1  0
  2  6  1  0
  6  7  2  0
  7  8  1  0
  8  9  2  0
  9 10  1  0
 10 11  1  0
 11 12  1  0
 12 13  1  0
 13 14  2  0
 14 15  1  0
 12 16  2  0
 15 16  1  0
 10 17  1  0
 17 18  2  0
 17 19  1  0
 19 20  1  0
 20 21  1  0
 21 22  2  0
 22 23  1  0
 23 24  1  0
 24 25  2  0
 25 26  1  0
 26 27  2  0
 20 28  1  0
 23 28  2  0
 27 28  1  0
  9 29  1  0
  6 30  1  0
 29 30  2  0
M  END
