RUT-UNI-630c5802-7
     RDKit          3D

 33 36  0  0  0  0  0  0  0  0999 V2000
   10.0060   -0.0920   25.6160 C   0  0  0  0  0  0  0  0  0  0  0  0
   10.9090   -0.5580   24.5000 C   0  0  0  0  0  0  0  0  0  0  0  0
   12.3550   -0.8740   24.7890 C   0  0  0  0  0  0  0  0  0  0  0  0
   13.1600   -1.3270   23.7640 C   0  0  0  0  0  0  0  0  0  0  0  0
   12.6500   -1.4770   22.5040 N   0  0  0  0  0  0  0  0  0  0  0  0
   11.3460   -1.1710   22.2710 C   0  0  0  0  0  0  0  0  0  0  0  0
   10.4410   -0.7100   23.2200 C   0  0  0  0  0  0  0  0  0  0  0  0
    9.1150   -0.4120   22.9530 C   0  0  0  0  0  0  0  0  0  0  0  0
    8.6520    0.2360   21.6440 C   0  0  0  0  0  0  0  0  0  0  0  0
    9.1490    1.3070   21.2380 O   0  0  0  0  0  0  0  0  0  0  0  0
    7.5700   -0.5050   20.9880 N   0  0  0  0  0  0  0  0  0  0  0  0
    6.7060   -1.0470   22.0340 C   0  0  0  0  0  0  0  0  0  0  0  0
    6.8470   -2.5470   22.2560 C   0  0  0  0  0  0  0  0  0  0  0  0
    6.3680   -3.5740   21.2420 C   0  0  0  0  0  0  0  0  0  0  0  0
    6.6890   -4.9070   21.8580 C   0  0  0  0  0  0  0  0  0  0  0  0
    7.2840   -4.7010   23.0850 N   0  0  0  0  0  0  0  0  0  0  0  0
    7.7290   -5.6950   23.9640 C   0  0  0  0  0  0  0  0  0  0  0  0
    7.3820   -3.2840   23.3260 C   0  0  0  0  0  0  0  0  0  0  0  0
    6.7740    0.2180   20.0510 C   0  0  0  0  0  0  0  0  0  0  0  0
    6.8950    0.2160   18.6470 C   0  0  0  0  0  0  0  0  0  0  0  0
    6.0100    0.9970   17.8740 C   0  0  0  0  0  0  0  0  0  0  0  0
    5.0180    1.7700   18.5070 C   0  0  0  0  0  0  0  0  0  0  0  0
    4.0200    2.6330   17.9870 N   0  0  0  0  0  0  0  0  0  0  0  0
    2.9320    3.1220   18.7450 C   0  0  0  0  0  0  0  0  0  0  0  0
    2.7210    2.8840   19.9320 O   0  0  0  0  0  0  0  0  0  0  0  0
    1.9670    3.9450   18.1300 C   0  0  0  0  0  0  0  0  0  0  0  0
    0.7880    4.2220   18.8380 C   0  0  0  0  0  0  0  0  0  0  0  0
   -0.2100    5.0330   18.2740 C   0  0  0  0  0  0  0  0  0  0  0  0
   -0.0330    5.5710   16.9990 C   0  0  0  0  0  0  0  0  0  0  0  0
    1.1360    5.3010   16.2900 C   0  0  0  0  0  0  0  0  0  0  0  0
    2.1290    4.4950   16.8510 C   0  0  0  0  0  0  0  0  0  0  0  0
    4.9330    1.7430   19.8650 C   0  0  0  0  0  0  0  0  0  0  0  0
    5.7840    0.9910   20.6140 C   0  0  0  0  0  0  0  0  0  0  0  0
  1  2  1  0
  2  3  2  0
  3  4  1  0
  4  5  2  0
  5  6  1  0
  2  7  1  0
  6  7  2  0
  7  8  1  0
  8  9  1  0
  9 10  2  0
  9 11  1  0
 11 12  1  0
 12 13  1  0
 13 14  1  0
 14 15  2  0
 15 16  1  0
 16 17  1  0
 13 18  2  0
 16 18  1  0
 11 19  1  0
 19 20  2  0
 20 21  1  0
 21 22  2  0
 22 23  1  0
 23 24  1  0
 24 25  2  0
 24 26  1  0
 26 27  2  0
 27 28  1  0
 28 29  2  0
 29 30  1  0
 26 31  1  0
 30 31  2  0
 22 32  1  0
 19 33  1  0
 32 33  2  0
M  END
