RUT-UNI-630c5802-12
     RDKit          3D

 33 36  0  0  0  0  0  0  0  0999 V2000
   13.9320   -2.7980   23.6780 N   0  0  0  0  0  0  0  0  0  0  0  0
   12.8400   -1.9730   23.5970 C   0  0  0  0  0  0  0  0  0  0  0  0
   12.3850   -1.1380   24.7360 C   0  0  0  0  0  0  0  0  0  0  0  0
   11.1410   -0.3340   24.5320 C   0  0  0  0  0  0  0  0  0  0  0  0
   10.5020   -0.4030   23.3120 C   0  0  0  0  0  0  0  0  0  0  0  0
    9.3470    0.3560   23.2000 C   0  0  0  0  0  0  0  0  0  0  0  0
    8.7080    0.3150   21.9730 C   0  0  0  0  0  0  0  0  0  0  0  0
    9.1150    1.4440   21.1730 O   0  0  0  0  0  0  0  0  0  0  0  0
    7.7430   -0.5980   21.5390 N   0  0  0  0  0  0  0  0  0  0  0  0
    6.7700   -1.1080   22.5320 C   0  0  0  0  0  0  0  0  0  0  0  0
    6.6560   -2.6440   22.4410 C   0  0  0  0  0  0  0  0  0  0  0  0
    5.8940   -3.2690   21.2590 C   0  0  0  0  0  0  0  0  0  0  0  0
    5.8370   -4.9720   21.2650 S   0  0  0  0  0  0  0  0  0  0  0  0
    6.7490   -5.0240   22.7270 C   0  0  0  0  0  0  0  0  0  0  0  0
    7.0940   -6.1580   23.3420 F   0  0  0  0  0  0  0  0  0  0  0  0
    7.1440   -3.6290   23.2760 C   0  0  0  0  0  0  0  0  0  0  0  0
    7.1040   -0.0270   20.3660 C   0  0  0  0  0  0  0  0  0  0  0  0
    7.3470   -0.5860   18.9790 C   0  0  0  0  0  0  0  0  0  0  0  0
    6.6920    0.1370   17.8380 C   0  0  0  0  0  0  0  0  0  0  0  0
    5.9140    1.2400   18.1330 C   0  0  0  0  0  0  0  0  0  0  0  0
    5.4320    1.8270   17.0680 N   0  0  0  0  0  0  0  0  0  0  0  0
    4.5780    2.9230   16.9520 C   0  0  0  0  0  0  0  0  0  0  0  0
    3.9280    3.2930   17.9300 O   0  0  0  0  0  0  0  0  0  0  0  0
    4.3210    3.6540   15.7080 C   0  0  0  0  0  0  0  0  0  0  0  0
    5.2880    3.8940   14.7320 C   0  0  0  0  0  0  0  0  0  0  0  0
    5.0120    4.6420   13.5940 C   0  0  0  0  0  0  0  0  0  0  0  0
    3.7500    5.1790   13.4080 C   0  0  0  0  0  0  0  0  0  0  0  0
    2.7500    4.9710   14.3360 C   0  0  0  0  0  0  0  0  0  0  0  0
    3.0220    4.2250   15.4740 C   0  0  0  0  0  0  0  0  0  0  0  0
    5.6870    1.6950   19.4100 C   0  0  0  0  0  0  0  0  0  0  0  0
    6.2670    1.0790   20.5000 C   0  0  0  0  0  0  0  0  0  0  0  0
   11.0530   -1.2150   22.3100 C   0  0  0  0  0  0  0  0  0  0  0  0
   12.1800   -1.9770   22.4330 N   0  0  0  0  0  0  0  0  0  0  0  0
  1  2  1  0
  2  3  2  0
  3  4  1  0
  4  5  2  0
  5  6  1  0
  6  7  1  0
  7  8  2  0
  7  9  1  0
  9 10  1  0
 10 11  1  0
 11 12  2  0
 12 13  1  0
 13 14  1  0
 14 15  1  0
 11 16  1  0
 14 16  2  0
  9 17  1  0
 17 18  2  0
 18 19  1  0
 19 20  2  0
 20 21  1  0
 21 22  1  0
 22 23  2  0
 22 24  1  0
 24 25  2  0
 25 26  1  0
 26 27  2  0
 27 28  1  0
 24 29  1  0
 28 29  2  0
 20 30  1  0
 17 31  1  0
 30 31  2  0
  5 32  1  0
  2 33  1  0
 32 33  2  0
M  END
