RUT-UNI-630c5802-27
     RDKit          3D

 30 34  0  0  0  0  0  0  0  0999 V2000
    5.1640   -1.4490   18.9400 C   0  0  0  0  0  0  0  0  0  0  0  0
    5.1400   -0.5740   17.6910 C   0  0  0  0  0  0  0  0  0  0  0  0
    5.2350    0.7840   18.0670 C   0  0  0  0  0  0  0  0  0  0  0  0
    5.8030    0.7080   19.1470 C   0  0  0  0  0  0  0  0  0  0  0  0
    5.4210    1.3920   20.2370 C   0  0  0  0  0  0  0  0  0  0  0  0
    6.1970    1.1290   21.3110 C   0  0  0  0  0  0  0  0  0  0  0  0
    7.2680    0.2450   21.2900 C   0  0  0  0  0  0  0  0  0  0  0  0
    8.0480    0.0060   22.3300 N   0  0  0  0  0  0  0  0  0  0  0  0
    7.5030   -0.1100   23.6950 C   0  0  0  0  0  0  0  0  0  0  0  0
    5.9620    0.0820   23.7240 C   0  0  0  0  0  0  0  0  0  0  0  0
    5.1570   -0.4250   22.5510 C   0  0  0  0  0  0  0  0  0  0  0  0
    3.6970   -0.1180   22.7880 C   0  0  0  0  0  0  0  0  0  0  0  0
    3.4770    0.6730   24.2930 S   0  0  0  0  0  0  0  0  0  0  0  0
    5.1440    0.6730   24.6890 C   0  0  0  0  0  0  0  0  0  0  0  0
    9.1680    0.9150   22.0980 C   0  0  0  0  0  0  0  0  0  0  0  0
    9.1680    1.6770   21.1410 O   0  0  0  0  0  0  0  0  0  0  0  0
   10.2430    0.8750   23.1180 C   0  0  0  0  0  0  0  0  0  0  0  0
   11.0890   -0.2590   23.1040 N   0  0  0  0  0  0  0  0  0  0  0  0
   11.1500   -1.1120   22.0480 N   0  0  0  0  0  0  0  0  0  0  0  0
   12.0000   -2.0610   22.3550 N   0  0  0  0  0  0  0  0  0  0  0  0
   12.3740   -1.6770   23.6220 C   0  0  0  0  0  0  0  0  0  0  0  0
   13.3460   -2.6730   24.2000 C   0  0  0  0  0  0  0  0  0  0  0  0
   13.8550   -2.5020   25.4910 C   0  0  0  0  0  0  0  0  0  0  0  0
   13.0670   -1.7570   24.8780 C   0  0  0  0  0  0  0  0  0  0  0  0
   12.5610   -0.7020   25.2510 C   0  0  0  0  0  0  0  0  0  0  0  0
   11.8180   -0.4160   24.2500 C   0  0  0  0  0  0  0  0  0  0  0  0
    7.5940   -0.4140   20.1550 C   0  0  0  0  0  0  0  0  0  0  0  0
    6.8560   -0.1730   19.0720 C   0  0  0  0  0  0  0  0  0  0  0  0
    6.2900    1.2430   17.1480 C   0  0  0  0  0  0  0  0  0  0  0  0
    5.1440    2.0590   17.3020 C   0  0  0  0  0  0  0  0  0  0  0  0
  1  2  1  0
  3  2  1  0
  3  4  1  0
  4  5  2  0
  5  6  1  0
  6  7  2  0
  7  8  1  0
  8  9  1  0
  9 10  1  0
 10 11  1  0
 11 12  2  0
 12 13  1  0
 10 14  2  0
 13 14  1  0
  8 15  1  0
 15 16  2  0
 15 17  1  0
 17 18  1  0
 18 19  1  0
 19 20  2  0
 20 21  1  0
 21 22  1  0
 22 23  2  0
 23 24  1  0
 24 25  2  0
 18 26  1  0
 21 26  2  0
 25 26  1  0
  7 27  1  0
  4 28  1  0
 27 28  2  0
  3 29  1  0
  3 30  1  0
 29 30  1  0
M  END
