RUT-UNI-630c5802-22
     RDKit          3D

 25 27  0  0  0  0  0  0  0  0999 V2000
    5.3460    6.2910   21.5020 C   0  0  0  0  0  0  0  0  0  0  0  0
    6.4890    6.6570   22.4180 C   0  0  0  0  0  0  0  0  0  0  0  0
    7.6420    7.0170   21.4940 C   0  0  0  0  0  0  0  0  0  0  0  0
    6.9580    5.4250   23.0800 N   0  0  0  0  0  0  0  0  0  0  0  0
    7.2490    4.3990   22.2220 C   0  0  0  0  0  0  0  0  0  0  0  0
    7.5550    3.1040   22.6200 C   0  0  0  0  0  0  0  0  0  0  0  0
    8.5530    2.3350   22.0060 N   0  0  0  0  0  0  0  0  0  0  0  0
    9.8620    2.2000   22.7170 C   0  0  0  0  0  0  0  0  0  0  0  0
   10.7140    3.3200   22.7100 C   0  0  0  0  0  0  0  0  0  0  0  0
   12.2320    3.1630   22.5700 C   0  0  0  0  0  0  0  0  0  0  0  0
   12.8780    4.5540   22.5990 C   0  0  0  0  0  0  0  0  0  0  0  0
   11.7000    5.7710   22.7780 S   0  0  0  0  0  0  0  0  0  0  0  0
   10.3700    4.6660   22.8250 C   0  0  0  0  0  0  0  0  0  0  0  0
    7.9890    1.2020   21.1910 C   0  0  0  0  0  0  0  0  0  0  0  0
    7.3100    1.3790   20.1820 O   0  0  0  0  0  0  0  0  0  0  0  0
    8.3220   -0.2090   21.7440 C   0  0  0  0  0  0  0  0  0  0  0  0
    9.1060   -0.1820   22.8610 N   0  0  0  0  0  0  0  0  0  0  0  0
    8.5990    0.2840   24.0470 N   0  0  0  0  0  0  0  0  0  0  0  0
    9.5650    0.2590   24.9690 N   0  0  0  0  0  0  0  0  0  0  0  0
   10.6700   -0.2480   24.2750 C   0  0  0  0  0  0  0  0  0  0  0  0
   12.0790   -0.4970   24.7740 C   0  0  0  0  0  0  0  0  0  0  0  0
   13.0060   -1.0130   23.8900 C   0  0  0  0  0  0  0  0  0  0  0  0
   12.6630   -1.3080   22.5770 C   0  0  0  0  0  0  0  0  0  0  0  0
   11.3740   -1.0810   22.1330 C   0  0  0  0  0  0  0  0  0  0  0  0
   10.4120   -0.5520   22.9660 C   0  0  0  0  0  0  0  0  0  0  0  0
  1  2  1  0
  2  3  1  0
  2  4  1  0
  4  5  1  0
  5  6  1  0
  6  7  1  0
  7  8  1  0
  8  9  1  0
  9 10  1  0
 10 11  2  0
 11 12  1  0
  9 13  2  0
 12 13  1  0
  7 14  1  0
 14 15  2  0
 14 16  1  0
 16 17  1  0
 17 18  1  0
 18 19  2  0
 19 20  1  0
 20 21  1  0
 21 22  2  0
 22 23  1  0
 23 24  2  0
 17 25  1  0
 20 25  2  0
 24 25  1  0
M  END
