RUT-UNI-630c5802-5
     RDKit          3D

 35 39  0  0  0  0  0  0  0  0999 V2000
    9.1550   -4.3590   24.8620 C   0  0  0  0  0  0  0  0  0  0  0  0
    8.2570   -3.8410   23.9420 N   0  0  0  0  0  0  0  0  0  0  0  0
    7.2960   -4.5410   23.1900 C   0  0  0  0  0  0  0  0  0  0  0  0
    6.6510   -3.4770   22.4010 C   0  0  0  0  0  0  0  0  0  0  0  0
    7.1510   -2.2350   22.6280 C   0  0  0  0  0  0  0  0  0  0  0  0
    6.6780   -1.0870   21.9960 C   0  0  0  0  0  0  0  0  0  0  0  0
    7.4570   -0.2510   21.1760 N   0  0  0  0  0  0  0  0  0  0  0  0
    8.4500    0.6570   21.8170 C   0  0  0  0  0  0  0  0  0  0  0  0
    9.1150    1.7320   21.1410 O   0  0  0  0  0  0  0  0  0  0  0  0
    8.6610    0.4620   23.1770 C   0  0  0  0  0  0  0  0  0  0  0  0
    9.9150   -0.1580   23.6170 N   0  0  0  0  0  0  0  0  0  0  0  0
   10.1950    0.1110   24.8750 N   0  0  0  0  0  0  0  0  0  0  0  0
   11.2630   -0.4800   25.1520 N   0  0  0  0  0  0  0  0  0  0  0  0
   11.6870   -1.1440   24.0760 C   0  0  0  0  0  0  0  0  0  0  0  0
   13.0830   -1.9790   24.3380 C   0  0  0  0  0  0  0  0  0  0  0  0
   13.7720   -2.8190   23.2790 C   0  0  0  0  0  0  0  0  0  0  0  0
   12.5950   -2.0830   23.1050 C   0  0  0  0  0  0  0  0  0  0  0  0
   11.7030   -1.8520   22.0500 C   0  0  0  0  0  0  0  0  0  0  0  0
   10.7760   -0.9900   22.8150 C   0  0  0  0  0  0  0  0  0  0  0  0
    6.6570    0.4640   20.2140 C   0  0  0  0  0  0  0  0  0  0  0  0
    6.8080    0.3960   18.8240 C   0  0  0  0  0  0  0  0  0  0  0  0
    5.9750    1.1580   17.9660 C   0  0  0  0  0  0  0  0  0  0  0  0
    4.9850    1.9920   18.4940 C   0  0  0  0  0  0  0  0  0  0  0  0
    4.0650    2.8350   17.8160 N   0  0  0  0  0  0  0  0  0  0  0  0
    4.1850    3.6670   16.6940 C   0  0  0  0  0  0  0  0  0  0  0  0
    5.1020    3.7430   15.9130 O   0  0  0  0  0  0  0  0  0  0  0  0
    3.0190    4.4420   16.4460 C   0  0  0  0  0  0  0  0  0  0  0  0
    2.2550    4.9150   17.5150 C   0  0  0  0  0  0  0  0  0  0  0  0
    1.0930    5.6680   17.2860 C   0  0  0  0  0  0  0  0  0  0  0  0
    0.6870    5.9510   15.9750 C   0  0  0  0  0  0  0  0  0  0  0  0
    1.4460    5.4800   14.9060 C   0  0  0  0  0  0  0  0  0  0  0  0
    2.5980    4.7340   15.1400 C   0  0  0  0  0  0  0  0  0  0  0  0
    4.8460    2.0380   19.8640 C   0  0  0  0  0  0  0  0  0  0  0  0
    5.6570    1.2970   20.6970 C   0  0  0  0  0  0  0  0  0  0  0  0
    8.1660   -2.4650   23.6000 C   0  0  0  0  0  0  0  0  0  0  0  0
  1  2  1  0
  2  3  1  0
  3  4  2  0
  4  5  1  0
  5  6  1  0
  6  7  1  0
  7  8  1  0
  8  9  2  0
  8 10  1  0
 10 11  1  0
 11 12  1  0
 12 13  2  0
 13 14  1  0
 14 15  1  0
 15 16  2  0
 16 17  1  0
 17 18  2  0
 11 19  1  0
 14 19  2  0
 18 19  1  0
  7 20  1  0
 20 21  2  0
 21 22  1  0
 22 23  2  0
 23 24  1  0
 24 25  1  0
 25 26  2  0
 25 27  1  0
 27 28  2  0
 28 29  1  0
 29 30  2  0
 30 31  1  0
 27 32  1  0
 31 32  2  0
 23 33  1  0
 20 34  1  0
 33 34  2  0
  2 35  1  0
  5 35  2  0
M  END
