RUT-UNI-630c5802-14
     RDKit          3D

 32 35  0  0  0  0  0  0  0  0999 V2000
   15.1900    5.0830   22.9440 O   0  0  0  0  0  0  0  0  0  0  0  0
   15.8870    4.1760   22.5640 C   0  0  0  0  0  0  0  0  0  0  0  0
   15.1980    3.0440   21.9970 N   0  0  0  0  0  0  0  0  0  0  0  0
   13.8120    2.5860   22.2770 C   0  0  0  0  0  0  0  0  0  0  0  0
   13.5210    1.0870   22.3870 C   0  0  0  0  0  0  0  0  0  0  0  0
   12.2590    0.5830   22.6630 C   0  0  0  0  0  0  0  0  0  0  0  0
   11.1870    1.4400   22.8490 C   0  0  0  0  0  0  0  0  0  0  0  0
    9.8890    0.9660   23.1000 N   0  0  0  0  0  0  0  0  0  0  0  0
    9.5110    0.3330   24.3870 C   0  0  0  0  0  0  0  0  0  0  0  0
    9.2200   -1.0210   24.2240 C   0  0  0  0  0  0  0  0  0  0  0  0
    8.5570   -1.9760   25.2080 C   0  0  0  0  0  0  0  0  0  0  0  0
    8.5460   -3.2740   24.4100 C   0  0  0  0  0  0  0  0  0  0  0  0
    8.0790   -4.4830   24.7640 F   0  0  0  0  0  0  0  0  0  0  0  0
    9.2030   -2.9110   23.0670 C   0  0  0  0  0  0  0  0  0  0  0  0
    9.5530   -1.7080   22.9940 O   0  0  0  0  0  0  0  0  0  0  0  0
    8.9460    1.1950   21.9550 C   0  0  0  0  0  0  0  0  0  0  0  0
    8.8800    2.4030   21.2400 O   0  0  0  0  0  0  0  0  0  0  0  0
    8.0290    0.0020   21.5770 C   0  0  0  0  0  0  0  0  0  0  0  0
    7.0550    0.3530   20.4240 C   0  0  0  0  0  0  0  0  0  0  0  0
    5.9850    1.4190   20.6670 C   0  0  0  0  0  0  0  0  0  0  0  0
    5.1400    1.6960   19.5880 C   0  0  0  0  0  0  0  0  0  0  0  0
    5.3010    1.0160   18.3760 C   0  0  0  0  0  0  0  0  0  0  0  0
    6.2440    0.0760   18.1520 N   0  0  0  0  0  0  0  0  0  0  0  0
    7.0890   -0.2390   19.1630 C   0  0  0  0  0  0  0  0  0  0  0  0
   11.4300    2.8340   22.7600 C   0  0  0  0  0  0  0  0  0  0  0  0
   12.6970    3.3910   22.4850 C   0  0  0  0  0  0  0  0  0  0  0  0
   17.3990    4.3630   22.8920 C   0  0  0  0  0  0  0  0  0  0  0  0
   18.3560    4.9230   22.0000 C   0  0  0  0  0  0  0  0  0  0  0  0
   19.6940    5.1270   22.3660 C   0  0  0  0  0  0  0  0  0  0  0  0
   20.1380    4.7680   23.6340 C   0  0  0  0  0  0  0  0  0  0  0  0
   19.2360    4.1980   24.5190 C   0  0  0  0  0  0  0  0  0  0  0  0
   17.8990    4.0040   24.1540 C   0  0  0  0  0  0  0  0  0  0  0  0
  1  2  2  0
  2  3  1  0
  3  4  1  0
  4  5  2  0
  5  6  1  0
  6  7  2  0
  7  8  1  0
  8  9  1  0
  9 10  1  0
 10 11  2  0
 11 12  1  0
 12 13  1  0
 12 14  2  0
 10 15  1  0
 14 15  1  0
  8 16  1  0
 16 17  2  0
 16 18  1  0
 18 19  1  0
 19 20  2  0
 20 21  1  0
 21 22  2  0
 22 23  1  0
 19 24  1  0
 23 24  2  0
  7 25  1  0
  4 26  1  0
 25 26  2  0
  2 27  1  0
 27 28  2  0
 28 29  1  0
 29 30  2  0
 30 31  1  0
 27 32  1  0
 31 32  2  0
M  END
