RUT-UNI-630c5802-15
     RDKit          3D

 33 36  0  0  0  0  0  0  0  0999 V2000
   10.0140   -0.1440   25.6300 C   0  0  0  0  0  0  0  0  0  0  0  0
   10.9240   -0.5850   24.5130 C   0  0  0  0  0  0  0  0  0  0  0  0
   12.3680   -0.8960   24.8030 C   0  0  0  0  0  0  0  0  0  0  0  0
   13.1780   -1.3200   23.7750 C   0  0  0  0  0  0  0  0  0  0  0  0
   12.6830   -1.4470   22.5080 N   0  0  0  0  0  0  0  0  0  0  0  0
   11.3750   -1.1550   22.2730 C   0  0  0  0  0  0  0  0  0  0  0  0
   10.4620   -0.7190   23.2300 C   0  0  0  0  0  0  0  0  0  0  0  0
    9.1340   -0.4240   22.9810 C   0  0  0  0  0  0  0  0  0  0  0  0
    8.6660    0.1290   21.6340 C   0  0  0  0  0  0  0  0  0  0  0  0
    9.1050    1.2270   21.2210 O   0  0  0  0  0  0  0  0  0  0  0  0
    7.6680   -0.7040   20.9500 N   0  0  0  0  0  0  0  0  0  0  0  0
    6.8380   -1.4000   21.9480 C   0  0  0  0  0  0  0  0  0  0  0  0
    7.2140   -2.8490   22.3210 C   0  0  0  0  0  0  0  0  0  0  0  0
    8.5000   -3.3810   22.9780 C   0  0  0  0  0  0  0  0  0  0  0  0
    8.1950   -4.8410   23.0710 C   0  0  0  0  0  0  0  0  0  0  0  0
    8.9070   -5.8680   23.5580 F   0  0  0  0  0  0  0  0  0  0  0  0
    6.8030   -4.8840   22.4490 C   0  0  0  0  0  0  0  0  0  0  0  0
    6.3590   -3.7600   22.0770 O   0  0  0  0  0  0  0  0  0  0  0  0
    6.8260    0.0320   20.0620 C   0  0  0  0  0  0  0  0  0  0  0  0
    6.9230    0.1140   18.6630 C   0  0  0  0  0  0  0  0  0  0  0  0
    5.9990    0.9030   17.9340 C   0  0  0  0  0  0  0  0  0  0  0  0
    4.9840    1.6020   18.6180 C   0  0  0  0  0  0  0  0  0  0  0  0
    3.9430    2.4520   18.1660 N   0  0  0  0  0  0  0  0  0  0  0  0
    2.8840    2.8590   18.9790 C   0  0  0  0  0  0  0  0  0  0  0  0
    2.7180    2.5230   20.1460 O   0  0  0  0  0  0  0  0  0  0  0  0
    1.8870    3.7200   18.4720 C   0  0  0  0  0  0  0  0  0  0  0  0
    0.7500    3.9080   19.2560 C   0  0  0  0  0  0  0  0  0  0  0  0
   -0.2910    4.7420   18.8350 C   0  0  0  0  0  0  0  0  0  0  0  0
   -0.1950    5.4030   17.6050 C   0  0  0  0  0  0  0  0  0  0  0  0
    0.9400    5.2210   16.8150 C   0  0  0  0  0  0  0  0  0  0  0  0
    1.9780    4.3870   17.2420 C   0  0  0  0  0  0  0  0  0  0  0  0
    4.9260    1.4910   19.9790 C   0  0  0  0  0  0  0  0  0  0  0  0
    5.8130    0.7350   20.6740 C   0  0  0  0  0  0  0  0  0  0  0  0
  1  2  1  0
  2  3  2  0
  3  4  1  0
  4  5  2  0
  5  6  1  0
  2  7  1  0
  6  7  2  0
  7  8  1  0
  8  9  1  0
  9 10  2  0
  9 11  1  0
 11 12  1  0
 12 13  1  0
 13 14  2  0
 14 15  1  0
 15 16  1  0
 15 17  2  0
 13 18  1  0
 17 18  1  0
 11 19  1  0
 19 20  2  0
 20 21  1  0
 21 22  2  0
 22 23  1  0
 23 24  1  0
 24 25  2  0
 24 26  1  0
 26 27  2  0
 27 28  1  0
 28 29  2  0
 29 30  1  0
 26 31  1  0
 30 31  2  0
 22 32  1  0
 19 33  1  0
 32 33  2  0
M  END
