SAD-SAT-65574d3f-1-acrylamide
     RDKit          3D

 19 20  0  0  0  0  0  0  0  0999 V2000
    8.2710   -3.7240   20.3020 C   0  0  0  0  0  0  0  0  0  0  0  0
    6.9190   -3.1310   20.4950 C   0  0  0  0  0  0  0  0  0  0  0  0
    6.0290   -4.3110   20.6990 C   0  0  0  0  0  0  0  0  0  0  0  0
    5.1560   -4.5830   19.8830 O   0  0  0  0  0  0  0  0  0  0  0  0
    6.2920   -5.0870   21.8230 N   0  0  0  0  0  0  0  0  0  0  0  0
    7.1100   -4.5010   22.8890 C   0  0  0  0  0  0  0  0  0  0  0  0
    6.2430   -4.1290   24.0890 C   0  0  0  0  0  0  0  0  0  0  0  0
    5.3020   -5.2070   24.4500 N   0  0  0  0  0  0  0  0  0  0  0  0
    4.5730   -4.9660   25.7200 C   0  0  0  0  0  0  0  0  0  0  0  0
    3.4540   -3.9300   25.6780 C   0  0  0  0  0  0  0  0  0  0  0  0
    3.5460   -2.5670   26.0390 C   0  0  0  0  0  0  0  0  0  0  0  0
    2.3970   -1.7680   25.9710 C   0  0  0  0  0  0  0  0  0  0  0  0
    1.2220   -2.5300   25.6210 C   0  0  0  0  0  0  0  0  0  0  0  0
    0.2540   -1.4630   25.6520 C   0  0  0  0  0  0  0  0  0  0  0  0
    0.2350   -0.0800   25.9060 C   0  0  0  0  0  0  0  0  0  0  0  0
    1.3800    0.5360   26.2190 C   0  0  0  0  0  0  0  0  0  0  0  0
    2.5570   -0.3910   26.2540 C   0  0  0  0  0  0  0  0  0  0  0  0
    4.5510   -5.8910   23.3870 C   0  0  0  0  0  0  0  0  0  0  0  0
    5.4880   -6.2310   22.2150 C   0  0  0  0  0  0  0  0  0  0  0  0
  1  2  1  0
  2  3  1  0
  3  4  2  0
  3  5  1  0
  5  6  1  0
  6  7  1  0
  7  8  1  0
  8  9  1  0
  9 10  1  0
 10 11  2  3
 11 12  1  0
 12 13  2  0
 13 14  1  0
 14 15  2  0
 15 16  1  0
 12 17  1  0
 16 17  2  0
  8 18  1  0
  5 19  1  0
 18 19  1  0
M  END
