SAD-SAT-bc31ec01-1-acrylamide
     RDKit          3D

 17 18  0  0  0  0  0  0  0  0999 V2000
    7.9370   -3.2390   19.6540 C   0  0  0  0  0  0  0  0  0  0  0  0
    6.9380   -2.1920   20.1440 C   0  0  0  0  0  0  0  0  0  0  0  0
    5.7280   -2.7510   20.8360 C   0  0  0  0  0  0  0  0  0  0  0  0
    4.7560   -3.1300   21.5750 O   0  0  0  0  0  0  0  0  0  0  0  0
    6.3860   -1.8980   21.8860 N   0  0  0  0  0  0  0  0  0  0  0  0
    6.4050   -0.4060   21.7410 C   0  0  0  0  0  0  0  0  0  0  0  0
    7.0570    0.2700   22.8640 C   0  0  0  0  0  0  0  0  0  0  0  0
    8.4880    0.1370   22.8760 N   0  0  0  0  0  0  0  0  0  0  0  0
    9.5820    1.2050   22.7830 C   0  0  0  0  0  0  0  0  0  0  0  0
   11.0490    1.0560   22.9660 C   0  0  0  0  0  0  0  0  0  0  0  0
   11.0400    2.3310   22.8720 C   0  0  0  0  0  0  0  0  0  0  0  0
   12.7750    2.2170   22.9880 S   0  0  0  0  0  0  0  0  0  0  0  0
   12.2860    0.4550   23.0960 C   0  0  0  0  0  0  0  0  0  0  0  0
   10.9610   -0.3640   23.0610 C   0  0  0  0  0  0  0  0  0  0  0  0
   11.7380   -1.8630   23.2530 Cl  0  0  0  0  0  0  0  0  0  0  0  0
    8.8060   -1.2020   22.4680 C   0  0  0  0  0  0  0  0  0  0  0  0
    7.6470   -2.2820   22.5290 C   0  0  0  0  0  0  0  0  0  0  0  0
  1  2  1  0
  2  3  1  0
  3  4  2  0
  3  5  1  0
  5  6  1  0
  6  7  1  0
  7  8  1  0
  8  9  1  0
  9 10  1  0
 10 11  2  0
 11 12  1  0
 12 13  1  0
 10 14  1  0
 13 14  2  0
 14 15  1  0
  8 16  1  0
  5 17  1  0
 16 17  1  0
M  END
