SAD-SAT-1b030f84-10
     RDKit          3D

 16 17  0  0  0  0  0  0  0  0999 V2000
    3.1700   -6.7960   24.1820 N   0  0  0  0  0  0  0  0  0  0  0  0
    4.5360   -6.8230   24.0620 C   0  0  0  0  0  0  0  0  0  0  0  0
    5.1500   -5.5570   23.4700 C   0  0  2  0  0  0  0  0  0  0  0  0
    5.7900   -5.7880   22.0920 C   0  0  0  0  0  0  0  0  0  0  0  0
    6.7880   -4.9540   21.7720 N   0  0  0  0  0  0  0  0  0  0  0  0
    6.5510   -4.1070   20.7530 C   0  0  0  0  0  0  0  0  0  0  0  0
    5.5190   -4.1940   19.7480 O   0  0  0  0  0  0  0  0  0  0  0  0
    7.4800   -2.9200   20.6100 C   0  0  0  0  0  0  0  0  0  0  0  0
    7.0680   -1.8210   19.8230 N   0  0  0  0  0  0  0  0  0  0  0  0
    7.2920   -0.4570   20.0590 C   0  0  0  0  0  0  0  0  0  0  0  0
    6.7170    0.2380   19.0410 C   0  0  0  0  0  0  0  0  0  0  0  0
    6.1720   -0.7190   18.2440 C   0  0  0  0  0  0  0  0  0  0  0  0
    6.3450   -2.0140   18.6540 N   0  0  0  0  0  0  0  0  0  0  0  0
    7.4850   -4.6250   22.9240 C   0  0  0  0  0  0  0  0  0  0  0  0
    6.6790   -4.0540   23.9180 C   0  0  0  0  0  0  0  0  0  0  0  0
    6.0480   -5.0290   24.3450 O   0  0  0  0  0  0  0  0  0  0  0  0
  1  2  3  0
  3  2  1  1
  3  4  1  0
  4  5  1  0
  5  6  1  0
  6  7  2  0
  6  8  1  0
  8  9  1  0
  9 10  1  0
 10 11  2  0
 11 12  1  0
  9 13  1  0
 12 13  2  0
  5 14  1  0
 14 15  1  0
  3 16  1  0
 15 16  1  0
M  END
