SAD-SAT-29425be4-4-vinylsulfonamide
     RDKit          3D

 29 31  0  0  0  0  0  0  0  0999 V2000
    7.6110   -2.9980   18.6950 C   0  0  0  0  0  0  0  0  0  0  0  0
    7.1760   -2.5380   20.0500 C   0  0  0  0  0  0  0  0  0  0  0  0
    5.6730   -3.3530   20.5830 S   0  0  0  0  0  0  0  0  0  0  0  0
    5.0160   -4.1650   19.5850 O   0  0  0  0  0  0  0  0  0  0  0  0
    4.9090   -2.3780   21.2920 O   0  0  0  0  0  0  0  0  0  0  0  0
    6.2330   -4.4400   21.7380 N   0  0  0  0  0  0  0  0  0  0  0  0
    7.6850   -4.5310   21.9670 C   0  0  0  0  0  0  0  0  0  0  0  0
    7.9380   -4.7320   23.4460 C   0  0  0  0  0  0  0  0  0  0  0  0
    6.7160   -5.4160   24.0730 C   0  0  0  0  0  0  0  0  0  0  0  0
    5.7300   -4.3780   24.5990 C   0  0  0  0  0  0  0  0  0  0  0  0
    4.6390   -4.7570   25.0390 O   0  0  0  0  0  0  0  0  0  0  0  0
    6.0860   -3.0270   24.5820 N   0  0  0  0  0  0  0  0  0  0  0  0
    5.2330   -2.1350   23.7700 C   0  0  0  0  0  0  0  0  0  0  0  0
    6.0610   -1.0510   23.1390 C   0  0  0  0  0  0  0  0  0  0  0  0
    5.9920   -0.6290   21.8160 C   0  0  0  0  0  0  0  0  0  0  0  0
    5.8040    0.2230   23.9590 C   0  0  0  0  0  0  0  0  0  0  0  0
    7.4730   -1.4900   23.4450 C   0  0  0  0  0  0  0  0  0  0  0  0
    8.2960   -0.7680   22.3610 C   0  0  0  0  0  0  0  0  0  0  0  0
    9.5910   -1.0780   22.5200 O   0  0  0  0  0  0  0  0  0  0  0  0
    9.7840   -1.9850   23.6480 C   0  0  0  0  0  0  0  0  0  0  0  0
   11.1300   -1.9640   23.3630 C   0  0  0  0  0  0  0  0  0  0  0  0
   12.6070   -1.3230   23.0170 C   0  0  0  0  0  0  0  0  0  0  0  0
   13.3490    0.1280   22.7910 C   0  0  0  0  0  0  0  0  0  0  0  0
   12.2040    0.4680   23.0380 C   0  0  0  0  0  0  0  0  0  0  0  0
   12.1510   -0.7290   23.0960 C   0  0  0  0  0  0  0  0  0  0  0  0
   10.8830   -0.7150   23.3760 C   0  0  0  0  0  0  0  0  0  0  0  0
    8.7060   -1.4540   23.1680 N   0  0  0  0  0  0  0  0  0  0  0  0
    6.0540   -6.4190   23.0990 C   0  0  0  0  0  0  0  0  0  0  0  0
    5.5130   -5.6820   21.8940 C   0  0  0  0  0  0  0  0  0  0  0  0
  1  2  1  0
  3  2  1  0
  3  4  2  0
  3  5  2  0
  3  6  1  0
  6  7  1  0
  7  8  1  0
  8  9  1  0
  9 10  1  0
 10 11  2  0
 10 12  1  0
 12 13  1  0
 14 13  1  0
 14 15  1  0
 14 16  1  0
 14 17  1  0
 17 18  2  0
 18 19  1  0
 19 20  1  0
 20 21  1  0
 21 22  2  0
 22 23  1  0
 23 24  2  0
 24 25  1  0
 21 26  1  0
 25 26  2  0
 17 27  1  0
 20 27  2  0
  9 28  1  0
  6 29  1  0
 28 29  1  0
M  END
