SAD-SAT-29425be4-5-nitrile
     RDKit          3D

 35 37  0  0  0  0  0  0  0  0999 V2000
    6.9240   -4.1400   20.3590 C   0  0  0  0  0  0  0  0  0  0  0  0
    5.7860   -4.6000   19.9680 N   0  0  0  0  0  0  0  0  0  0  0  0
    7.0540   -3.3240   21.4580 N   0  0  0  0  0  0  0  0  0  0  0  0
    6.8920   -1.8870   21.3110 C   0  0  0  0  0  0  0  0  0  0  0  0
    8.2640   -1.2220   21.2940 C   0  0  0  0  0  0  0  0  0  0  0  0
    9.3960   -2.0830   21.8810 C   0  0  0  0  0  0  0  0  0  0  0  0
   10.5740   -1.1600   22.2990 C   0  0  0  0  0  0  0  0  0  0  0  0
   10.4220    0.0470   22.3620 O   0  0  0  0  0  0  0  0  0  0  0  0
   11.8060   -1.7630   22.5920 N   0  0  0  0  0  0  0  0  0  0  0  0
   12.0090   -2.3300   23.8870 C   0  0  0  0  0  0  0  0  0  0  0  0
   12.5450   -1.2260   24.7800 C   0  0  0  0  0  0  0  0  0  0  0  0
   13.3370   -1.4750   25.6690 O   0  0  0  0  0  0  0  0  0  0  0  0
   11.9840    0.0930   24.3530 N   0  0  0  0  0  0  0  0  0  0  0  0
   10.6380    0.5900   24.4310 C   0  0  0  0  0  0  0  0  0  0  0  0
   10.3490    1.9540   24.2760 C   0  0  0  0  0  0  0  0  0  0  0  0
    8.9970    2.4400   24.3530 C   0  0  0  0  0  0  0  0  0  0  0  0
    8.0320    1.5000   24.5910 C   0  0  0  0  0  0  0  0  0  0  0  0
    8.1720    0.0800   24.7750 C   0  0  0  0  0  0  0  0  0  0  0  0
    7.1900   -0.8870   25.0230 C   0  0  0  0  0  0  0  0  0  0  0  0
    9.6240   -0.3600   24.6700 C   0  0  0  0  0  0  0  0  0  0  0  0
    9.9690   -1.6680   24.8060 C   0  0  0  0  0  0  0  0  0  0  0  0
   13.1090   -1.1600   22.0660 C   0  0  0  0  0  0  0  0  0  0  0  0
   13.3190   -1.6170   20.7900 C   0  0  0  0  0  0  0  0  0  0  0  0
   12.4840   -2.4380   20.4780 O   0  0  0  0  0  0  0  0  0  0  0  0
   14.4190   -1.1570   19.9850 N   0  0  0  0  0  0  0  0  0  0  0  0
   14.8550    0.0600   19.3470 C   0  0  0  0  0  0  0  0  0  0  0  0
   14.6460    1.2900   20.0470 C   0  0  0  0  0  0  0  0  0  0  0  0
   14.9080    2.6720   19.5400 C   0  0  0  0  0  0  0  0  0  0  0  0
   15.4860    2.6690   18.2130 C   0  0  0  0  0  0  0  0  0  0  0  0
   15.8260    1.3420   17.5560 C   0  0  0  0  0  0  0  0  0  0  0  0
   16.5510    1.0550   16.2470 C   0  0  0  0  0  0  0  0  0  0  0  0
   15.4860    0.1820   18.1520 C   0  0  0  0  0  0  0  0  0  0  0  0
   15.9290   -0.8750   17.3240 C   0  0  0  0  0  0  0  0  0  0  0  0
    8.8880   -2.9410   23.0670 C   0  0  0  0  0  0  0  0  0  0  0  0
    7.6430   -3.7630   22.7270 C   0  0  0  0  0  0  0  0  0  0  0  0
  1  2  2  3
  1  3  1  0
  3  4  1  0
  4  5  1  0
  5  6  1  0
  6  7  1  0
  7  8  2  0
  7  9  1  0
  9 10  1  0
 10 11  1  0
 11 12  2  0
 11 13  1  0
 13 14  1  0
 14 15  2  0
 15 16  1  0
 16 17  2  0
 17 18  1  0
 18 19  1  0
 14 20  1  0
 18 20  2  0
 20 21  1  0
  9 22  1  0
 22 23  1  0
 23 24  2  0
 23 25  1  0
 25 26  1  0
 26 27  2  0
 27 28  1  0
 28 29  2  0
 29 30  1  0
 30 31  1  0
 26 32  1  0
 30 32  2  0
 32 33  1  0
  6 34  1  0
  3 35  1  0
 34 35  1  0
M  END
