SAD-SAT-2ceae68f-1-chloroacetamide
     RDKit          3D

 24 25  0  0  0  0  0  0  0  0999 V2000
    6.9210   -3.8310   20.0080 C   0  0  0  0  0  0  0  0  0  0  0  0
    6.3450   -2.4920   19.4480 C   0  0  0  0  0  0  0  0  0  0  0  0
    6.1440   -3.1890   18.4560 O   0  0  0  0  0  0  0  0  0  0  0  0
    6.7190   -2.0770   20.7260 N   0  0  0  0  0  0  0  0  0  0  0  0
    7.8460   -1.1590   20.8070 C   0  0  0  0  0  0  0  0  0  0  0  0
    5.7370   -1.9760   21.8200 C   0  0  0  0  0  0  0  0  0  0  0  0
    5.4160   -3.3370   22.4760 C   0  0  0  0  0  0  0  0  0  0  0  0
    4.5410   -4.0940   22.0390 O   0  0  0  0  0  0  0  0  0  0  0  0
    6.1680   -3.6810   23.5850 N   0  0  0  0  0  0  0  0  0  0  0  0
    6.6510   -2.6820   24.5320 C   0  0  0  0  0  0  0  0  0  0  0  0
    8.0210   -2.1620   24.1040 C   0  0  0  0  0  0  0  0  0  0  0  0
    8.9940   -3.2830   23.9260 N   0  0  0  0  0  0  0  0  0  0  0  0
   10.5630   -2.8510   23.4350 S   0  0  0  0  0  0  0  0  0  0  0  0
   11.4740   -3.3930   24.4220 O   0  0  0  0  0  0  0  0  0  0  0  0
   10.6590   -3.1590   22.0310 O   0  0  0  0  0  0  0  0  0  0  0  0
   10.5810   -1.0850   23.5490 C   0  0  0  0  0  0  0  0  0  0  0  0
   11.7980   -1.5960   22.9670 C   0  0  0  0  0  0  0  0  0  0  0  0
   12.9350   -0.9620   22.5060 C   0  0  0  0  0  0  0  0  0  0  0  0
   13.0360    0.3750   22.5580 C   0  0  0  0  0  0  0  0  0  0  0  0
   11.9670    1.0210   23.0640 C   0  0  0  0  0  0  0  0  0  0  0  0
   11.9520    2.7360   23.1430 Cl  0  0  0  0  0  0  0  0  0  0  0  0
   10.8600    0.3330   23.5200 C   0  0  0  0  0  0  0  0  0  0  0  0
    8.4950   -4.5170   23.2160 C   0  0  0  0  0  0  0  0  0  0  0  0
    7.0220   -4.8700   23.4810 C   0  0  0  0  0  0  0  0  0  0  0  0
  1  2  1  0
  2  3  2  0
  2  4  1  0
  4  5  1  0
  4  6  1  0
  6  7  1  0
  7  8  2  0
  7  9  1  0
  9 10  1  0
 10 11  1  0
 11 12  1  0
 12 13  1  0
 13 14  2  0
 13 15  2  0
 13 16  1  0
 16 17  2  0
 17 18  1  0
 18 19  2  0
 19 20  1  0
 20 21  1  0
 16 22  1  0
 20 22  2  0
 12 23  1  0
  9 24  1  0
 23 24  1  0
M  END
