SAD-SAT-edc8a235-4
     RDKit          3D

  8  8  0  0  0  0  0  0  0  0999 V2000
    8.3190   -2.7670   23.7330 N   0  0  0  0  0  0  0  0  0  0  0  0
    9.1940   -2.0630   23.4560 C   0  0  0  0  0  0  0  0  0  0  0  0
   10.2760   -1.1250   23.0660 C   0  0  2  0  0  0  0  0  0  0  0  0
   11.5510   -1.5710   22.3660 C   0  0  0  0  0  0  0  0  0  0  0  0
   12.9750   -1.2230   22.1290 C   0  0  0  0  0  0  0  0  0  0  0  0
   13.2730   -0.0080   22.8290 C   0  0  0  0  0  0  0  0  0  0  0  0
   12.2450    0.3030   23.7550 C   0  0  0  0  0  0  0  0  0  0  0  0
   10.7320   -0.0990   24.4730 S   0  0  0  0  0  0  0  0  0  0  0  0
  1  2  3  0
  3  2  1  1
  3  4  1  0
  4  5  2  0
  5  6  1  0
  6  7  2  0
  3  8  1  0
  7  8  1  0
M  END
