SAD-SAT-1b030f84-5-chloroacetamide
     RDKit          3D

 17 18  0  0  0  0  0  0  0  0999 V2000
    7.2810   -3.3060   19.7080 C   0  0  0  0  0  0  0  0  0  0  0  0
    6.4070   -4.3070   20.4500 C   0  0  0  0  0  0  0  0  0  0  0  0
    5.3360   -4.6120   19.9340 O   0  0  0  0  0  0  0  0  0  0  0  0
    6.8240   -4.9000   21.6430 N   0  0  0  0  0  0  0  0  0  0  0  0
    6.1050   -6.0710   22.1110 C   0  0  0  0  0  0  0  0  0  0  0  0
    5.2490   -5.7640   23.3320 C   0  0  0  0  0  0  0  0  0  0  0  0
    5.9490   -4.9190   24.3130 N   0  0  0  0  0  0  0  0  0  0  0  0
    6.2250   -5.4410   25.5740 C   0  0  0  0  0  0  0  0  0  0  0  0
    7.3870   -5.6460   25.9160 O   0  0  0  0  0  0  0  0  0  0  0  0
    5.1150   -5.7540   26.5850 C   0  0  0  0  0  0  0  0  0  0  0  0
    5.1820   -5.2670   28.0250 C   0  0  0  0  0  0  0  0  0  0  0  0
    3.7170   -5.8630   28.8370 S   0  0  0  0  0  0  0  0  0  0  0  0
    3.0750   -6.6670   27.4470 C   0  0  0  0  0  0  0  0  0  0  0  0
    3.8730   -6.5620   26.3000 C   0  0  0  0  0  0  0  0  0  0  0  0
    3.4420   -7.2780   24.8060 Cl  0  0  0  0  0  0  0  0  0  0  0  0
    6.6340   -3.7310   23.7850 C   0  0  0  0  0  0  0  0  0  0  0  0
    7.5350   -4.1290   22.6700 C   0  0  0  0  0  0  0  0  0  0  0  0
  1  2  1  0
  2  3  2  0
  2  4  1  0
  4  5  1  0
  5  6  1  0
  6  7  1  0
  7  8  1  0
  8  9  2  0
  8 10  1  0
 10 11  2  0
 11 12  1  0
 12 13  1  0
 10 14  1  0
 13 14  2  0
 14 15  1  0
  7 16  1  0
  4 17  1  0
 16 17  1  0
M  END
