SAD-SAT-29425be4-30-vinylsulfonamide
     RDKit          3D

 30 31  0  0  0  0  0  0  0  0999 V2000
    8.9170   -4.0380   20.4460 C   0  0  0  0  0  0  0  0  0  0  0  0
    7.9780   -4.7930   21.4560 C   0  0  0  0  0  0  0  0  0  0  0  0
    6.4080   -3.9190   21.6140 S   0  0  0  0  0  0  0  0  0  0  0  0
    5.3390   -4.5060   20.7900 O   0  0  0  0  0  0  0  0  0  0  0  0
    6.1670   -3.7520   23.0270 O   0  0  0  0  0  0  0  0  0  0  0  0
    6.8180   -2.4060   20.9870 N   0  0  0  0  0  0  0  0  0  0  0  0
    5.7690   -1.4250   20.7580 C   0  0  0  0  0  0  0  0  0  0  0  0
    5.6420   -0.7580   22.1490 C   0  0  0  0  0  0  0  0  0  0  0  0
    6.9450    0.0460   22.2760 C   0  0  0  0  0  0  0  0  0  0  0  0
    7.1260   -0.2080   23.7860 C   0  0  0  0  0  0  0  0  0  0  0  0
    6.8100    0.6450   24.6220 O   0  0  0  0  0  0  0  0  0  0  0  0
    7.6910   -1.5180   24.1500 N   0  0  0  0  0  0  0  0  0  0  0  0
    7.0800   -2.2870   25.2370 C   0  0  0  0  0  0  0  0  0  0  0  0
    5.5720   -2.6480   25.2620 C   0  0  0  0  0  0  0  0  0  0  0  0
    5.3500   -4.1650   25.5010 C   0  0  0  0  0  0  0  0  0  0  0  0
    9.0730   -1.7650   23.9140 C   0  0  0  0  0  0  0  0  0  0  0  0
   10.1030   -0.6580   23.7010 C   0  0  0  0  0  0  0  0  0  0  0  0
   11.3950   -1.1360   23.0440 C   0  0  0  0  0  0  0  0  0  0  0  0
   12.4100   -0.0330   22.8300 C   0  0  0  0  0  0  0  0  0  0  0  0
   12.0960    1.3920   23.2550 C   0  0  0  0  0  0  0  0  0  0  0  0
   12.9760    2.4170   23.0760 O   0  0  0  0  0  0  0  0  0  0  0  0
   14.0490    2.0650   22.1980 C   0  0  0  0  0  0  0  0  0  0  0  0
   15.0050    3.3090   21.8730 C   0  0  0  0  0  0  0  0  0  0  0  0
   10.8540    1.6840   23.8560 C   0  0  0  0  0  0  0  0  0  0  0  0
   10.5540    2.9630   24.2530 O   0  0  0  0  0  0  0  0  0  0  0  0
   10.6640    3.8840   23.1760 C   0  0  0  0  0  0  0  0  0  0  0  0
   11.8280    4.8320   23.4490 C   0  0  0  0  0  0  0  0  0  0  0  0
    9.8950    0.6840   24.0690 C   0  0  0  0  0  0  0  0  0  0  0  0
    8.0730   -0.4410   21.3830 C   0  0  0  0  0  0  0  0  0  0  0  0
    8.0950   -1.8320   21.3880 C   0  0  0  0  0  0  0  0  0  0  0  0
  1  2  1  0
  3  2  1  0
  3  4  2  0
  3  5  2  0
  3  6  1  0
  6  7  1  0
  7  8  1  0
  8  9  1  0
  9 10  1  0
 10 11  2  0
 10 12  1  0
 12 13  1  0
 13 14  1  0
 14 15  1  0
 12 16  1  0
 16 17  1  0
 17 18  2  0
 18 19  1  0
 19 20  2  0
 20 21  1  0
 21 22  1  0
 22 23  1  0
 20 24  1  0
 24 25  1  0
 25 26  1  0
 26 27  1  0
 17 28  1  0
 24 28  2  0
  9 29  1  0
  6 30  1  0
 29 30  1  0
M  END
