SAD-SAT-65574d3f-4-chloroacetamide
     RDKit          3D

 14 14  0  0  0  0  0  0  0  0999 V2000
    7.3220   -4.5060   20.9320 C   0  0  0  0  0  0  0  0  0  0  0  0
    6.0550   -5.3440   20.9920 C   0  0  0  0  0  0  0  0  0  0  0  0
    5.3520   -5.4830   19.9990 O   0  0  0  0  0  0  0  0  0  0  0  0
    5.7180   -5.9500   22.1970 N   0  0  0  0  0  0  0  0  0  0  0  0
    6.6040   -5.6570   23.5730 S   0  0  0  0  0  0  0  0  0  0  0  0
    5.6780   -5.8250   24.6680 O   0  0  0  0  0  0  0  0  0  0  0  0
    7.8360   -6.3850   23.4670 O   0  0  0  0  0  0  0  0  0  0  0  0
    7.0070   -3.9370   23.4440 C   0  0  0  0  0  0  0  0  0  0  0  0
    5.8220   -2.8940   23.2740 C   0  0  0  0  0  0  0  0  0  0  0  0
    6.1890   -1.4070   23.1640 C   0  0  0  0  0  0  0  0  0  0  0  0
    7.6890   -1.3720   23.2590 C   0  0  0  0  0  0  0  0  0  0  0  0
    7.0760   -2.7410   23.3410 C   0  0  0  0  0  0  0  0  0  0  0  0
    8.7630   -2.2010   23.4030 C   0  0  0  0  0  0  0  0  0  0  0  0
    8.4060   -3.5460   23.5000 C   0  0  0  0  0  0  0  0  0  0  0  0
  1  2  1  0
  2  3  2  0
  2  4  1  0
  5  4  1  0
  5  6  2  0
  5  7  2  0
  5  8  1  0
  8  9  2  0
  9 10  1  0
 10 11  2  0
 11 12  1  0
 11 13  1  0
  8 14  1  0
 13 14  2  0
M  END
