SAD-SAT-bc31ec01-3-nitrile
     RDKit          3D

 19 20  0  0  0  0  0  0  0  0999 V2000
    6.4500   -3.8950   19.6890 C   0  0  0  0  0  0  0  0  0  0  0  0
    5.8970   -3.1910   18.7620 N   0  0  0  0  0  0  0  0  0  0  0  0
    5.7960   -4.2410   20.8610 N   0  0  0  0  0  0  0  0  0  0  0  0
    5.7800   -5.5860   21.4490 C   0  0  0  0  0  0  0  0  0  0  0  0
    6.7080   -5.6240   22.4870 C   0  0  0  0  0  0  0  0  0  0  0  0
    6.9270   -4.2860   23.0610 N   0  0  0  0  0  0  0  0  0  0  0  0
    8.3110   -3.9810   23.9280 S   0  0  0  0  0  0  0  0  0  0  0  0
    8.9920   -5.2510   24.0710 O   0  0  0  0  0  0  0  0  0  0  0  0
    7.8660   -3.1650   25.0290 O   0  0  0  0  0  0  0  0  0  0  0  0
    9.2190   -2.9220   22.8200 C   0  0  1  0  0  0  0  0  0  0  0  0
    8.3980   -1.9860   22.1920 C   0  0  0  0  0  0  0  0  0  0  0  0
    8.1780   -0.4170   23.1110 S   0  0  0  0  0  0  0  0  0  0  0  0
    9.7900    0.3560   22.7630 C   0  0  0  0  0  0  0  0  0  0  0  0
   10.8620   -0.6290   22.6090 C   0  0  1  0  0  0  0  0  0  0  0  0
   12.1750   -0.2920   22.7940 C   0  0  0  0  0  0  0  0  0  0  0  0
   13.2570   -1.3680   22.0900 Cl  0  0  0  0  0  0  0  0  0  0  0  0
   10.5660   -2.0450   23.7480 S   0  0  0  0  0  0  0  0  0  0  0  0
    5.7640   -3.5680   23.1190 C   0  0  0  0  0  0  0  0  0  0  0  0
    5.3510   -3.2290   21.7320 C   0  0  0  0  0  0  0  0  0  0  0  0
  1  2  2  3
  1  3  1  0
  3  4  1  0
  4  5  1  0
  5  6  1  0
  7  6  1  0
  7  8  2  0
  7  9  2  0
 10  7  1  1
 10 11  1  0
 11 12  1  0
 12 13  1  0
 13 14  1  0
 14 15  1  1
 15 16  1  0
 10 17  1  0
 14 17  1  0
  6 18  1  0
  3 19  1  0
 18 19  1  0
M  END
