SAD-SAT-bc31ec01-5-nitrile
     RDKit          3D

 19 20  0  0  0  0  0  0  0  0999 V2000
    7.2530   -2.4390   19.6600 C   0  0  0  0  0  0  0  0  0  0  0  0
    6.0810   -2.7020   19.0430 N   0  0  0  0  0  0  0  0  0  0  0  0
    7.6900   -1.2710   20.6810 N   0  0  0  0  0  0  0  0  0  0  0  0
    8.6400   -1.4830   21.8170 C   0  0  0  0  0  0  0  0  0  0  0  0
    8.3040   -0.7180   22.9450 C   0  0  0  0  0  0  0  0  0  0  0  0
    8.6970    0.6920   22.8090 N   0  0  0  0  0  0  0  0  0  0  0  0
    9.9310    1.2840   23.8510 S   0  0  0  0  0  0  0  0  0  0  0  0
    9.3390    1.2180   25.1720 O   0  0  0  0  0  0  0  0  0  0  0  0
   10.4950    2.5150   23.3350 O   0  0  0  0  0  0  0  0  0  0  0  0
   11.1660   -0.0150   23.7440 C   0  0  0  0  0  0  0  0  0  0  0  0
   11.4810   -0.4290   22.4850 C   0  0  0  0  0  0  0  0  0  0  0  0
   12.4650   -1.4660   22.2840 C   0  0  0  0  0  0  0  0  0  0  0  0
   13.0160   -2.1400   20.8860 Cl  0  0  0  0  0  0  0  0  0  0  0  0
   13.0830   -2.0330   23.3950 C   0  0  0  0  0  0  0  0  0  0  0  0
   12.7760   -1.6350   24.6170 C   0  0  0  0  0  0  0  0  0  0  0  0
   13.7020   -2.5030   25.7460 Cl  0  0  0  0  0  0  0  0  0  0  0  0
   11.8050   -0.6170   24.8390 C   0  0  0  0  0  0  0  0  0  0  0  0
    8.7470    0.9880   21.4680 C   0  0  0  0  0  0  0  0  0  0  0  0
    7.5860    0.2070   20.6600 C   0  0  0  0  0  0  0  0  0  0  0  0
  1  2  2  3
  1  3  1  0
  3  4  1  0
  4  5  1  0
  5  6  1  0
  6  7  1  0
  7  8  2  0
  7  9  2  0
  7 10  1  0
 10 11  2  0
 11 12  1  0
 12 13  1  0
 12 14  2  0
 14 15  1  0
 15 16  1  0
 10 17  1  0
 15 17  2  0
  6 18  1  0
  3 19  1  0
 18 19  1  0
M  END
