SAD-SAT-f0a2747f-10-nitrile
     RDKit          3D

 13 14  0  0  0  0  0  0  0  0999 V2000
    6.4590   -4.2190   20.1360 C   0  0  0  0  0  0  0  0  0  0  0  0
    5.5310   -3.6380   19.5270 N   0  0  0  0  0  0  0  0  0  0  0  0
    6.3650   -4.5580   21.4850 N   0  0  0  0  0  0  0  0  0  0  0  0
    5.2500   -5.2570   22.0110 C   0  0  0  0  0  0  0  0  0  0  0  0
    5.3930   -5.8940   23.2330 C   0  0  0  0  0  0  0  0  0  0  0  0
    6.6910   -6.4980   23.3330 O   0  0  0  0  0  0  0  0  0  0  0  0
    7.8190   -5.6960   22.9060 C   0  0  2  0  0  0  0  0  0  0  0  0
    8.6720   -5.7490   23.9880 C   0  0  0  0  0  0  0  0  0  0  0  0
    9.2520   -5.4900   25.3700 C   0  0  0  0  0  0  0  0  0  0  0  0
    8.5850   -4.6660   26.2230 C   0  0  0  0  0  0  0  0  0  0  0  0
    7.4710   -4.0960   25.8180 C   0  0  0  0  0  0  0  0  0  0  0  0
    7.2940   -4.6860   24.2780 S   0  0  0  0  0  0  0  0  0  0  0  0
    7.4170   -4.4210   22.5220 C   0  0  0  0  0  0  0  0  0  0  0  0
  1  2  2  3
  1  3  1  0
  3  4  1  0
  4  5  1  0
  5  6  1  0
  6  7  1  0
  7  8  1  1
  8  9  2  0
  9 10  1  0
 10 11  2  0
  8 12  1  0
 11 12  1  0
  3 13  1  0
  7 13  1  0
M  END
