SAD-SAT-29425be4-28-vinylsulfonamide
     RDKit          3D

 27 28  0  0  0  0  0  0  0  0999 V2000
    7.6180   -2.9410   18.1590 C   0  0  0  0  0  0  0  0  0  0  0  0
    6.7210   -2.4050   19.2430 C   0  0  0  0  0  0  0  0  0  0  0  0
    6.0990   -3.6270   20.3830 S   0  0  0  0  0  0  0  0  0  0  0  0
    5.1270   -4.5130   19.7770 O   0  0  0  0  0  0  0  0  0  0  0  0
    7.1250   -4.1790   21.2740 O   0  0  0  0  0  0  0  0  0  0  0  0
    5.1960   -2.5540   21.2320 N   0  0  0  0  0  0  0  0  0  0  0  0
    5.4250   -1.1130   21.0540 C   0  0  0  0  0  0  0  0  0  0  0  0
    6.8810   -0.9300   21.4980 C   0  0  0  0  0  0  0  0  0  0  0  0
    6.6410   -0.9670   22.9910 C   0  0  0  0  0  0  0  0  0  0  0  0
    8.0490   -0.6750   23.4400 C   0  0  0  0  0  0  0  0  0  0  0  0
    8.7890    0.1300   22.8770 O   0  0  0  0  0  0  0  0  0  0  0  0
    8.3620   -1.4740   24.6200 N   0  0  0  0  0  0  0  0  0  0  0  0
    9.1580   -2.6770   24.4500 C   0  0  2  0  0  0  0  0  0  0  0  0
    9.1330   -3.6790   25.6440 C   0  0  0  0  0  0  0  0  0  0  0  0
   10.3540   -2.1030   23.9960 C   0  0  0  0  0  0  0  0  0  0  0  0
   10.8920   -2.2040   22.5460 C   0  0  0  0  0  0  0  0  0  0  0  0
   12.2030   -1.4830   22.3000 C   0  0  0  0  0  0  0  0  0  0  0  0
   12.8410   -0.7510   23.4390 C   0  0  0  0  0  0  0  0  0  0  0  0
   13.9370   -0.1310   23.1230 O   0  0  0  0  0  0  0  0  0  0  0  0
   13.5580    0.9530   22.3230 C   0  0  0  0  0  0  0  0  0  0  0  0
   12.1120    1.1540   22.7740 C   0  0  0  0  0  0  0  0  0  0  0  0
   11.8150    0.4460   24.0700 C   0  0  0  0  0  0  0  0  0  0  0  0
   11.8150    2.6050   23.0750 C   0  0  0  0  0  0  0  0  0  0  0  0
   12.3340   -0.6970   24.7020 C   0  0  0  0  0  0  0  0  0  0  0  0
   11.0490   -1.3940   24.9720 C   0  0  0  0  0  0  0  0  0  0  0  0
    6.2320   -2.3560   23.4630 C   0  0  0  0  0  0  0  0  0  0  0  0
    5.0640   -2.8790   22.6750 C   0  0  0  0  0  0  0  0  0  0  0  0
  1  2  1  0
  3  2  1  0
  3  4  2  0
  3  5  2  0
  3  6  1  0
  6  7  1  0
  7  8  1  0
  8  9  1  0
  9 10  1  0
 10 11  2  0
 10 12  1  0
 12 13  1  0
 13 14  1  1
 13 15  1  0
 15 16  2  0
 16 17  1  0
 17 18  2  0
 18 19  1  0
 19 20  1  0
 20 21  1  0
 21 22  1  0
 21 23  1  0
 18 24  1  0
 15 25  1  0
 24 25  2  0
  9 26  1  0
  6 27  1  0
 26 27  1  0
M  END
