SAD-SAT-2ceae68f-4-acrylamide
     RDKit          3D

 29 31  0  0  0  0  0  0  0  0999 V2000
    7.5950   -3.0140   18.7680 C   0  0  0  0  0  0  0  0  0  0  0  0
    6.9470   -2.9860   20.1180 C   0  0  0  0  0  0  0  0  0  0  0  0
    5.5140   -2.7770   19.8160 C   0  0  0  0  0  0  0  0  0  0  0  0
    4.8260   -3.7510   19.4700 O   0  0  0  0  0  0  0  0  0  0  0  0
    5.0670   -1.4730   19.9040 N   0  0  0  0  0  0  0  0  0  0  0  0
    5.2980   -0.5860   18.7280 C   0  0  0  0  0  0  0  0  0  0  0  0
    6.1460    0.6440   18.9850 C   0  0  0  0  0  0  0  0  0  0  0  0
    6.1510    1.2050   20.2640 C   0  0  0  0  0  0  0  0  0  0  0  0
    7.3370    0.9070   20.9290 C   0  0  0  0  0  0  0  0  0  0  0  0
    8.0370   -0.2400   20.6010 O   0  0  0  0  0  0  0  0  0  0  0  0
    7.7680    1.7490   21.9370 N   0  0  0  0  0  0  0  0  0  0  0  0
    7.0580    2.9170   22.3400 C   0  0  0  0  0  0  0  0  0  0  0  0
    7.7160    3.9650   22.9970 C   0  0  0  0  0  0  0  0  0  0  0  0
    8.6850    3.4320   23.8330 N   0  0  0  0  0  0  0  0  0  0  0  0
   10.2500    3.4230   23.1630 S   0  0  0  0  0  0  0  0  0  0  0  0
   10.9840    4.5110   23.7750 O   0  0  0  0  0  0  0  0  0  0  0  0
   10.0470    3.3080   21.7420 O   0  0  0  0  0  0  0  0  0  0  0  0
   11.0160    1.9400   23.5230 C   0  0  0  0  0  0  0  0  0  0  0  0
   10.7580    1.0050   24.1570 C   0  0  0  0  0  0  0  0  0  0  0  0
   11.7150    0.0960   24.0930 C   0  0  0  0  0  0  0  0  0  0  0  0
   12.8480    0.6690   23.1420 C   0  0  0  0  0  0  0  0  0  0  0  0
   12.2680   -0.0120   23.8340 C   0  0  0  0  0  0  0  0  0  0  0  0
   12.2180    1.4560   23.1060 C   0  0  0  0  0  0  0  0  0  0  0  0
   11.9470    2.7400   22.6010 C   0  0  0  0  0  0  0  0  0  0  0  0
   13.3270    3.2400   22.8290 N   0  0  0  0  0  0  0  0  0  0  0  0
    8.3240    2.1750   24.1800 C   0  0  0  0  0  0  0  0  0  0  0  0
    8.4550    1.2180   22.9830 C   0  0  0  0  0  0  0  0  0  0  0  0
    5.0780    0.6970   20.9860 C   0  0  0  0  0  0  0  0  0  0  0  0
    5.2190   -0.8070   21.1920 C   0  0  0  0  0  0  0  0  0  0  0  0
  1  2  1  0
  2  3  1  0
  3  4  2  0
  3  5  1  0
  5  6  1  0
  6  7  1  0
  7  8  1  0
  8  9  1  0
  9 10  2  0
  9 11  1  0
 11 12  1  0
 12 13  1  0
 13 14  1  0
 14 15  1  0
 15 16  2  0
 15 17  2  0
 15 18  1  0
 18 19  2  0
 19 20  1  0
 20 21  2  0
 21 22  1  0
 18 23  1  0
 22 23  2  0
 23 24  1  0
 24 25  3  0
 14 26  1  0
 11 27  1  0
 26 27  1  0
  8 28  1  0
  5 29  1  0
 28 29  1  0
M  END
