SAD-SAT-7d5528d9-16
     RDKit          3D

 22 24  0  0  0  0  0  0  0  0999 V2000
    5.2230    0.9350   22.0850 C   0  0  0  0  0  0  0  0  0  0  0  0
    5.6160    0.7430   20.6490 C   0  0  0  0  0  0  0  0  0  0  0  0
    4.8090    1.3750   19.5370 C   0  0  0  0  0  0  0  0  0  0  0  0
    5.2560    1.1460   18.1170 C   0  0  0  0  0  0  0  0  0  0  0  0
    6.3190    0.4160   17.7360 N   0  0  0  0  0  0  0  0  0  0  0  0
    7.0320   -0.1470   18.7440 C   0  0  0  0  0  0  0  0  0  0  0  0
    6.7130   -0.0030   20.2370 C   0  0  0  0  0  0  0  0  0  0  0  0
    7.6740   -0.7220   21.1320 C   0  0  0  0  0  0  0  0  0  0  0  0
    8.7970   -0.0110   21.5650 C   0  0  0  0  0  0  0  0  0  0  0  0
    9.0700    0.0050   22.9100 C   0  0  0  0  0  0  0  0  0  0  0  0
    8.1190    0.2310   23.9030 C   0  0  0  0  0  0  0  0  0  0  0  0
    8.4760    0.2120   25.2360 C   0  0  0  0  0  0  0  0  0  0  0  0
    9.7880   -0.0370   25.6040 C   0  0  0  0  0  0  0  0  0  0  0  0
   10.7640   -0.2610   24.6350 C   0  0  0  0  0  0  0  0  0  0  0  0
   12.2410   -0.5630   24.9110 C   0  0  0  0  0  0  0  0  0  0  0  0
   12.3610   -1.9930   24.6430 N   0  0  0  0  0  0  0  0  0  0  0  0
   13.4020   -2.2510   23.6680 C   0  0  0  0  0  0  0  0  0  0  0  0
   13.2890   -1.2460   22.5040 C   0  0  0  0  0  0  0  0  0  0  0  0
   11.8990   -1.0790   22.3050 O   0  0  0  0  0  0  0  0  0  0  0  0
   11.2680   -2.2970   22.7100 C   0  0  0  0  0  0  0  0  0  0  0  0
   11.1870   -2.4200   24.0960 C   0  0  0  0  0  0  0  0  0  0  0  0
   10.3760   -0.2280   23.2960 C   0  0  0  0  0  0  0  0  0  0  0  0
  1  2  1  0
  2  3  2  0
  3  4  1  0
  4  5  2  0
  5  6  1  0
  2  7  1  0
  6  7  2  0
  7  8  1  0
  8  9  1  0
  9 10  1  0
 10 11  2  0
 11 12  1  0
 12 13  2  0
 13 14  1  0
 14 15  1  0
 15 16  1  0
 16 17  1  0
 17 18  1  0
 18 19  1  0
 19 20  1  0
 16 21  1  0
 20 21  1  0
 10 22  1  0
 14 22  2  0
M  END
