SAD-SAT-1b030f84-5-nitrile
     RDKit          3D

 16 17  0  0  0  0  0  0  0  0999 V2000
    6.6520   -4.3700   20.3450 C   0  0  0  0  0  0  0  0  0  0  0  0
    5.4790   -4.2520   19.8550 N   0  0  0  0  0  0  0  0  0  0  0  0
    6.8800   -4.9460   21.5820 N   0  0  0  0  0  0  0  0  0  0  0  0
    7.5810   -4.1960   22.6550 C   0  0  0  0  0  0  0  0  0  0  0  0
    6.6830   -4.0400   23.8920 C   0  0  0  0  0  0  0  0  0  0  0  0
    5.9290   -5.2690   24.1720 N   0  0  0  0  0  0  0  0  0  0  0  0
    5.6090   -5.6190   25.5010 C   0  0  0  0  0  0  0  0  0  0  0  0
    6.4480   -5.9010   26.3410 O   0  0  0  0  0  0  0  0  0  0  0  0
    4.1470   -5.7050   25.9480 C   0  0  0  0  0  0  0  0  0  0  0  0
    3.5690   -6.8780   26.7130 C   0  0  0  0  0  0  0  0  0  0  0  0
    1.8460   -6.5270   27.0100 S   0  0  0  0  0  0  0  0  0  0  0  0
    1.8750   -4.9860   26.2070 C   0  0  0  0  0  0  0  0  0  0  0  0
    3.1210   -4.6360   25.6840 C   0  0  0  0  0  0  0  0  0  0  0  0
    3.4280   -3.1690   24.8510 Cl  0  0  0  0  0  0  0  0  0  0  0  0
    5.2150   -5.7860   23.0020 C   0  0  0  0  0  0  0  0  0  0  0  0
    6.1270   -6.1390   22.0050 C   0  0  0  0  0  0  0  0  0  0  0  0
  1  2  2  3
  1  3  1  0
  3  4  1  0
  4  5  1  0
  5  6  1  0
  6  7  1  0
  7  8  2  0
  7  9  1  0
  9 10  2  0
 10 11  1  0
 11 12  1  0
  9 13  1  0
 12 13  2  0
 13 14  1  0
  6 15  1  0
  3 16  1  0
 15 16  1  0
M  END
