SAD-SAT-29425be4-7-chloroacetamide
     RDKit          3D

 33 34  0  0  0  0  0  0  0  0999 V2000
    6.2270   -4.4120   20.1220 C   0  0  0  0  0  0  0  0  0  0  0  0
    5.7350   -5.7590   20.5200 C   0  0  0  0  0  0  0  0  0  0  0  0
    5.3970   -6.5160   19.6500 O   0  0  0  0  0  0  0  0  0  0  0  0
    5.6560   -6.1140   21.8780 N   0  0  0  0  0  0  0  0  0  0  0  0
    4.6510   -5.4880   22.7750 C   0  0  0  0  0  0  0  0  0  0  0  0
    5.0660   -4.0520   23.0610 C   0  0  0  0  0  0  0  0  0  0  0  0
    6.6000   -3.9710   23.0830 C   0  0  0  0  0  0  0  0  0  0  0  0
    7.0960   -2.8860   23.9990 C   0  0  0  0  0  0  0  0  0  0  0  0
    6.5910   -2.7190   25.1080 O   0  0  0  0  0  0  0  0  0  0  0  0
    8.1430   -2.0900   23.5670 N   0  0  0  0  0  0  0  0  0  0  0  0
    8.2140   -1.6990   22.1620 C   0  0  0  0  0  0  0  0  0  0  0  0
    7.1210   -0.7370   21.8750 C   0  0  0  0  0  0  0  0  0  0  0  0
    6.5980    0.1210   22.8190 C   0  0  0  0  0  0  0  0  0  0  0  0
    7.6500    0.2210   20.8000 C   0  0  0  0  0  0  0  0  0  0  0  0
    6.0090   -1.5160   21.3370 N   0  0  0  0  0  0  0  0  0  0  0  0
    5.8990   -1.9690   20.0750 C   0  0  0  0  0  0  0  0  0  0  0  0
    4.9650   -2.8560   19.6100 O   0  0  0  0  0  0  0  0  0  0  0  0
    6.9180   -1.3890   19.3860 O   0  0  0  0  0  0  0  0  0  0  0  0
    6.7580   -1.0710   18.0290 C   0  0  0  0  0  0  0  0  0  0  0  0
    7.7400   -1.6670   17.2660 C   0  0  0  0  0  0  0  0  0  0  0  0
    6.7630    0.4630   17.8910 C   0  0  0  0  0  0  0  0  0  0  0  0
    5.4630   -1.6080   17.4950 C   0  0  0  0  0  0  0  0  0  0  0  0
    9.3450   -2.1950   24.3220 C   0  0  1  0  0  0  0  0  0  0  0  0
    9.8910   -3.4630   24.2360 C   0  0  0  0  0  0  0  0  0  0  0  0
   10.4350   -1.2320   23.9200 C   0  0  0  0  0  0  0  0  0  0  0  0
   10.5870    0.1660   24.4990 C   0  0  0  0  0  0  0  0  0  0  0  0
   11.7260    1.0230   23.9960 C   0  0  0  0  0  0  0  0  0  0  0  0
   12.6570    0.4730   22.9650 C   0  0  0  0  0  0  0  0  0  0  0  0
   12.4630   -0.9090   22.4200 C   0  0  0  0  0  0  0  0  0  0  0  0
   13.4330   -1.6210   21.2420 Cl  0  0  0  0  0  0  0  0  0  0  0  0
   11.3180   -1.6980   22.9590 C   0  0  0  0  0  0  0  0  0  0  0  0
    7.1860   -5.3180   23.5520 C   0  0  0  0  0  0  0  0  0  0  0  0
    6.8990   -6.3970   22.5270 C   0  0  0  0  0  0  0  0  0  0  0  0
  1  2  1  0
  2  3  2  0
  2  4  1  0
  4  5  1  0
  5  6  1  0
  6  7  1  0
  7  8  1  0
  8  9  2  0
  8 10  1  0
 10 11  1  0
 11 12  1  0
 12 13  1  0
 12 14  1  0
 12 15  1  0
 15 16  1  0
 16 17  2  0
 16 18  1  0
 19 18  1  0
 19 20  1  0
 19 21  1  0
 19 22  1  0
 10 23  1  0
 23 24  1  6
 23 25  1  0
 25 26  2  0
 26 27  1  0
 27 28  2  0
 28 29  1  0
 29 30  1  0
 25 31  1  0
 29 31  2  0
  7 32  1  0
  4 33  1  0
 32 33  1  0
M  END
