SAD-SAT-2ceae68f-10-vinylsulfonamide
     RDKit          3D

 22 23  0  0  0  0  0  0  0  0999 V2000
    6.3570   -4.6310   20.3590 C   0  0  0  0  0  0  0  0  0  0  0  0
    6.7020   -4.5540   21.8520 C   0  0  0  0  0  0  0  0  0  0  0  0
    5.7400   -3.3560   22.7020 S   0  0  0  0  0  0  0  0  0  0  0  0
    4.4970   -3.2200   21.9590 O   0  0  0  0  0  0  0  0  0  0  0  0
    5.6800   -3.8010   24.0810 O   0  0  0  0  0  0  0  0  0  0  0  0
    6.6550   -1.9170   22.6680 N   0  0  0  0  0  0  0  0  0  0  0  0
    8.0450   -1.8910   22.1710 C   0  0  0  0  0  0  0  0  0  0  0  0
    9.1260   -1.3440   23.1440 C   0  0  0  0  0  0  0  0  0  0  0  0
    8.9790    0.1150   23.5400 C   0  0  0  0  0  0  0  0  0  0  0  0
    7.8350    0.8170   23.3060 O   0  0  0  0  0  0  0  0  0  0  0  0
   10.0190    0.8650   24.1750 N   0  0  0  0  0  0  0  0  0  0  0  0
   11.2580    0.1340   24.0800 C   0  0  0  0  0  0  0  0  0  0  0  0
   11.7300    0.3870   22.8490 C   0  0  0  0  0  0  0  0  0  0  0  0
   12.0730    1.5600   22.6880 O   0  0  0  0  0  0  0  0  0  0  0  0
   10.9960    2.5350   22.8330 C   0  0  2  0  0  0  0  0  0  0  0  0
   11.5430    3.8180   22.9700 C   0  0  0  0  0  0  0  0  0  0  0  0
   12.6260    4.4520   22.3570 C   0  0  0  0  0  0  0  0  0  0  0  0
   12.7800    5.7440   22.8460 C   0  0  0  0  0  0  0  0  0  0  0  0
   11.8330    6.0920   23.8100 C   0  0  0  0  0  0  0  0  0  0  0  0
   11.8240    7.6770   24.6020 Cl  0  0  0  0  0  0  0  0  0  0  0  0
   10.6920    4.7590   24.1130 S   0  0  0  0  0  0  0  0  0  0  0  0
   10.1120    2.2460   23.9000 C   0  0  0  0  0  0  0  0  0  0  0  0
  1  2  1  0
  2  3  1  0
  3  4  2  0
  3  5  2  0
  3  6  1  0
  6  7  1  0
  7  8  1  0
  8  9  1  0
  9 10  2  0
  9 11  1  0
 11 12  1  0
 12 13  1  0
 13 14  1  0
 14 15  1  0
 15 16  1  1
 16 17  2  0
 17 18  1  0
 18 19  2  0
 19 20  1  0
 16 21  1  0
 19 21  1  0
 11 22  1  0
 15 22  1  0
M  END
