SAD-SAT-24589cd1-9
     RDKit          3D

 27 29  0  0  0  0  0  0  0  0999 V2000
    0.2690  -16.6090    1.5610 C   0  0  0  0  0  0  0  0  0  0  0  0
    0.6210  -16.9090    0.1960 C   0  0  0  0  0  0  0  0  0  0  0  0
   -0.1320  -16.5610   -0.7180 O   0  0  0  0  0  0  0  0  0  0  0  0
    1.8230  -17.5920   -0.0390 N   0  0  0  0  0  0  0  0  0  0  0  0
    2.4490  -18.2690    1.0950 C   0  0  0  0  0  0  0  0  0  0  0  0
    2.4980  -19.6980    0.5160 C   0  0  0  0  0  0  0  0  0  0  0  0
    3.8210  -19.5420   -0.2640 C   0  0  0  0  0  0  0  0  0  0  0  0
    4.1550  -21.0200   -0.4880 C   0  0  0  0  0  0  0  0  0  0  0  0
    2.8610  -21.7310   -0.3670 C   0  0  0  0  0  0  0  0  0  0  0  0
    2.4550  -23.1830   -0.4660 C   0  0  0  0  0  0  0  0  0  0  0  0
    3.7050  -23.9880   -0.7530 N   0  0  0  0  0  0  0  0  0  0  0  0
    5.0600  -23.3200   -0.8890 C   0  0  0  0  0  0  0  0  0  0  0  0
    5.2950  -21.7910   -0.7530 C   0  0  0  0  0  0  0  0  0  0  0  0
    6.5180  -21.1980   -0.8740 N   0  0  0  0  0  0  0  0  0  0  0  0
    7.4820  -21.9890   -1.3850 C   0  0  0  0  0  0  0  0  0  0  0  0
    7.5690  -23.1840   -1.1280 O   0  0  0  0  0  0  0  0  0  0  0  0
    8.4390  -21.4850   -2.2620 C   0  0  0  0  0  0  0  0  0  0  0  0
    8.1970  -20.1410   -2.7000 C   0  0  0  0  0  0  0  0  0  0  0  0
    9.4850  -20.5480   -3.3730 C   0  0  0  0  0  0  0  0  0  0  0  0
   10.4340  -19.8770   -4.2980 C   0  0  0  0  0  0  0  0  0  0  0  0
   10.1810  -18.5850   -4.6990 C   0  0  0  0  0  0  0  0  0  0  0  0
    9.0810  -18.3410   -4.0820 C   0  0  0  0  0  0  0  0  0  0  0  0
    9.5600  -19.6100   -3.8380 C   0  0  0  0  0  0  0  0  0  0  0  0
   10.0570  -20.6540   -3.6920 N   0  0  0  0  0  0  0  0  0  0  0  0
    8.1410  -18.8280   -3.2470 C   0  0  0  0  0  0  0  0  0  0  0  0
    3.4880  -18.7830   -1.5630 C   0  0  0  0  0  0  0  0  0  0  0  0
    2.5310  -17.5970   -1.3300 C   0  0  0  0  0  0  0  0  0  0  0  0
  1  2  1  0
  2  3  2  0
  2  4  1  0
  4  5  1  0
  5  6  1  0
  6  7  1  0
  7  8  1  0
  8  9  2  0
  9 10  1  0
 10 11  2  0
 11 12  1  0
  8 13  1  0
 12 13  2  0
 13 14  1  0
 14 15  1  0
 15 16  2  0
 15 17  1  0
 17 18  1  0
 18 19  2  0
 19 20  1  0
 20 21  2  0
 21 22  1  0
 22 23  1  0
 23 24  3  0
 18 25  1  0
 22 25  2  0
  7 26  1  0
  4 27  1  0
 26 27  1  0
M  END
