SAD-SAT-9a6c5cf3-10
     RDKit          3D

 28 30  0  0  0  0  0  0  0  0999 V2000
    5.3590   -4.3460   19.6570 O   0  0  0  0  0  0  0  0  0  0  0  0
    6.2050   -3.5570   20.0960 C   0  0  0  0  0  0  0  0  0  0  0  0
    6.7720   -2.4670   19.1930 C   0  0  0  0  0  0  0  0  0  0  0  0
    5.9010   -0.9400   19.4230 Cl  0  0  0  0  0  0  0  0  0  0  0  0
    6.6790   -3.6750   21.3940 N   0  0  0  0  0  0  0  0  0  0  0  0
    6.3510   -4.8810   22.1560 C   0  0  0  0  0  0  0  0  0  0  0  0
    5.8790   -4.5500   23.5770 C   0  0  0  0  0  0  0  0  0  0  0  0
    6.8110   -3.5280   24.2920 C   0  0  0  0  0  0  0  0  0  0  0  0
    6.2550   -3.1460   25.7110 C   0  0  0  0  0  0  0  0  0  0  0  0
    5.4710   -3.9180   26.2480 O   0  0  0  0  0  0  0  0  0  0  0  0
    6.5760   -1.9190   26.3580 N   0  0  0  0  0  0  0  0  0  0  0  0
    5.5180   -1.0180   26.1420 C   0  0  0  0  0  0  0  0  0  0  0  0
    6.0090    0.3890   26.0010 C   0  0  0  0  0  0  0  0  0  0  0  0
    6.4340    0.8270   27.3620 N   0  0  0  0  0  0  0  0  0  0  0  0
    6.1160    2.4280   27.8740 S   0  0  0  0  0  0  0  0  0  0  0  0
    4.8740    2.8700   27.2750 O   0  0  0  0  0  0  0  0  0  0  0  0
    6.2720    2.4390   29.3150 O   0  0  0  0  0  0  0  0  0  0  0  0
    7.4370    3.3590   27.1720 C   0  0  0  0  0  0  0  0  0  0  0  0
    7.8150    3.1580   25.8380 C   0  0  0  0  0  0  0  0  0  0  0  0
    8.8670    3.9060   25.2990 C   0  0  0  0  0  0  0  0  0  0  0  0
    9.5350    4.8450   26.0830 C   0  0  0  0  0  0  0  0  0  0  0  0
    9.1540    5.0390   27.4120 C   0  0  0  0  0  0  0  0  0  0  0  0
    8.1060    4.2960   27.9520 C   0  0  0  0  0  0  0  0  0  0  0  0
    7.7690    4.5120   29.2320 F   0  0  0  0  0  0  0  0  0  0  0  0
    6.3200   -0.2770   28.3720 C   0  0  0  0  0  0  0  0  0  0  0  0
    6.8770   -1.6340   27.8240 C   0  0  0  0  0  0  0  0  0  0  0  0
    7.0940   -2.3140   23.3960 C   0  0  0  0  0  0  0  0  0  0  0  0
    7.6220   -2.7530   22.0280 C   0  0  0  0  0  0  0  0  0  0  0  0
  1  2  2  0
  2  3  1  0
  3  4  1  0
  2  5  1  0
  5  6  1  0
  6  7  1  0
  7  8  1  0
  8  9  1  0
  9 10  2  0
  9 11  1  0
 11 12  1  0
 12 13  1  0
 13 14  1  0
 14 15  1  0
 15 16  2  0
 15 17  2  0
 15 18  1  0
 18 19  2  0
 19 20  1  0
 20 21  2  0
 21 22  1  0
 18 23  1  0
 22 23  2  0
 23 24  1  0
 14 25  1  0
 11 26  1  0
 25 26  1  0
  8 27  1  0
  5 28  1  0
 27 28  1  0
M  END
