SAD-SAT-f0a2747f-9-chloroacetamide
     RDKit          3D

 21 22  0  0  0  0  0  0  0  0999 V2000
    8.1250   -3.2540   19.3300 C   0  0  0  0  0  0  0  0  0  0  0  0
    6.6200   -3.4770   19.6410 C   0  0  0  0  0  0  0  0  0  0  0  0
    6.6100   -3.4070   18.4240 O   0  0  0  0  0  0  0  0  0  0  0  0
    7.0360   -3.4700   20.9740 N   0  0  0  0  0  0  0  0  0  0  0  0
    7.5830   -2.1950   21.4280 C   0  0  0  0  0  0  0  0  0  0  0  0
    7.1530   -1.6360   22.6280 C   0  0  0  0  0  0  0  0  0  0  0  0
    7.1880   -2.6070   23.5520 N   0  0  0  0  0  0  0  0  0  0  0  0
    8.5520   -3.0490   23.8550 C   0  0  0  0  0  0  0  0  0  0  0  0
    9.0820   -4.1200   22.9320 C   0  0  0  0  0  0  0  0  0  0  0  0
    8.7230   -5.7710   23.2540 S   0  0  0  0  0  0  0  0  0  0  0  0
    9.8950   -6.5820   23.4110 O   0  0  0  0  0  0  0  0  0  0  0  0
    7.6430   -6.2340   22.3940 O   0  0  0  0  0  0  0  0  0  0  0  0
    8.0770   -5.5970   24.8780 C   0  0  0  0  0  0  0  0  0  0  0  0
    6.6860   -5.3860   24.9250 C   0  0  0  0  0  0  0  0  0  0  0  0
    6.0340   -5.2350   26.1530 C   0  0  0  0  0  0  0  0  0  0  0  0
    6.9330   -5.3190   27.3930 C   0  0  0  0  0  0  0  0  0  0  0  0
    6.1240   -5.1350   29.0710 Br  0  0  0  0  0  0  0  0  0  0  0  0
    8.4550   -5.5510   27.2440 C   0  0  0  0  0  0  0  0  0  0  0  0
    8.9640   -5.6820   25.9600 C   0  0  0  0  0  0  0  0  0  0  0  0
    6.3060   -3.6640   23.2250 C   0  0  0  0  0  0  0  0  0  0  0  0
    6.0960   -4.0740   21.8980 C   0  0  0  0  0  0  0  0  0  0  0  0
  1  2  1  0
  2  3  2  0
  2  4  1  0
  4  5  1  0
  5  6  1  0
  6  7  1  0
  7  8  1  0
  8  9  1  0
 10  9  1  0
 10 11  2  0
 10 12  2  0
 10 13  1  0
 13 14  2  0
 14 15  1  0
 15 16  2  0
 16 17  1  0
 16 18  1  0
 13 19  1  0
 18 19  2  0
  7 20  1  0
  4 21  1  0
 20 21  1  0
M  END
