SAD-SAT-29425be4-24-vinylsulfonamide
     RDKit          3D

 61 65  0  0  0  0  0  0  0  0999 V2000
    5.8960   -5.7630   20.6790 C   0  0  0  0  0  0  0  0  0  0  0  0
    6.0250   -6.2150   22.2140 C   0  0  0  0  0  0  0  0  0  0  0  0
    4.4330   -6.3050   23.1150 S   0  0  0  0  0  0  0  0  0  0  0  0
    3.4200   -5.7610   22.2600 O   0  0  0  0  0  0  0  0  0  0  0  0
    4.2430   -7.5850   23.8020 O   0  0  0  0  0  0  0  0  0  0  0  0
    4.3890   -5.1660   24.3570 N   0  0  0  0  0  0  0  0  0  0  0  0
    3.5940   -3.9360   24.1740 C   0  0  0  0  0  0  0  0  0  0  0  0
    4.6430   -2.8350   24.4080 C   0  0  0  0  0  0  0  0  0  0  0  0
    5.8390   -3.7540   24.5800 C   0  0  0  0  0  0  0  0  0  0  0  0
    6.9550   -2.8370   24.1560 C   0  0  0  0  0  0  0  0  0  0  0  0
    7.8650   -3.8230   23.3400 C   0  0  0  0  0  0  0  0  0  0  0  0
    9.0620   -3.0620   22.8220 C   0  0  0  0  0  0  0  0  0  0  0  0
    9.2140   -1.5790   23.1400 C   0  0  0  0  0  0  0  0  0  0  0  0
   10.5350   -1.0920   22.4960 C   0  0  0  0  0  0  0  0  0  0  0  0
   11.2860   -1.8840   21.6490 N   0  0  0  0  0  0  0  0  0  0  0  0
   10.9260    0.2080   22.8630 O   0  0  0  0  0  0  0  0  0  0  0  0
    8.2250   -0.8440   23.9330 C   0  0  0  0  0  0  0  0  0  0  0  0
    8.3550    0.6100   24.2690 N   0  0  0  0  0  0  0  0  0  0  0  0
    9.7550    0.8020   24.5390 C   0  0  0  0  0  0  0  0  0  0  0  0
   10.4980    1.9130   24.2400 O   0  0  0  0  0  0  0  0  0  0  0  0
   10.4370   -0.3780   25.2780 C   0  0  0  0  0  0  0  0  0  0  0  0
   11.7680   -0.8010   24.5880 C   0  0  0  0  0  0  0  0  0  0  0  0
   11.7440   -2.3470   24.4470 C   0  0  0  0  0  0  0  0  0  0  0  0
   10.9380   -2.9620   25.4890 N   0  0  0  0  0  0  0  0  0  0  0  0
   11.2900   -4.2570   26.0290 C   0  0  0  0  0  0  0  0  0  0  0  0
   12.4520   -4.4830   26.3900 O   0  0  0  0  0  0  0  0  0  0  0  0
   10.1190   -5.2570   26.1120 C   0  0  0  0  0  0  0  0  0  0  0  0
    9.3450   -5.1090   27.7010 Cl  0  0  0  0  0  0  0  0  0  0  0  0
    9.5500   -2.7820   25.3710 C   0  0  0  0  0  0  0  0  0  0  0  0
    9.2570   -1.3620   25.0940 C   0  0  0  0  0  0  0  0  0  0  0  0
    7.5120    1.0490   25.3830 C   0  0  0  0  0  0  0  0  0  0  0  0
    8.9170    0.8220   25.3410 C   0  0  0  0  0  0  0  0  0  0  0  0
    9.2420    0.4270   24.0090 C   0  0  0  0  0  0  0  0  0  0  0  0
    8.2000    0.3150   22.9780 C   0  0  0  0  0  0  0  0  0  0  0  0
    8.4830   -0.0960   21.6670 C   0  0  0  0  0  0  0  0  0  0  0  0
    9.6330   -0.3100   21.3480 O   0  0  0  0  0  0  0  0  0  0  0  0
    7.4220   -0.3510   20.8180 N   0  0  0  0  0  0  0  0  0  0  0  0
    6.5550    0.7060   20.2360 C   0  0  0  0  0  0  0  0  0  0  0  0
    5.4190    0.1410   19.3550 C   0  0  0  0  0  0  0  0  0  0  0  0
    5.0890   -1.2490   19.6730 N   0  0  0  0  0  0  0  0  0  0  0  0
    5.5050   -2.3580   18.9380 C   0  0  0  0  0  0  0  0  0  0  0  0
    4.8670   -3.4120   18.9680 O   0  0  0  0  0  0  0  0  0  0  0  0
    6.7970   -2.2730   18.1150 C   0  0  0  0  0  0  0  0  0  0  0  0
    7.2660   -0.9000   17.7870 C   0  0  0  0  0  0  0  0  0  0  0  0
    6.9140   -0.4360   16.4210 C   0  0  0  0  0  0  0  0  0  0  0  0
    7.9990    0.4610   15.9310 C   0  0  0  0  0  0  0  0  0  0  0  0
    8.6730    0.1980   14.7010 N   0  0  0  0  0  0  0  0  0  0  0  0
   10.0500    0.4330   14.5320 C   0  0  0  0  0  0  0  0  0  0  0  0
   10.3600    0.4420   13.1880 O   0  0  0  0  0  0  0  0  0  0  0  0
   10.9400    0.5870   15.7320 O   0  0  0  0  0  0  0  0  0  0  0  0
   12.3050    1.7010   16.4900 C   0  0  0  0  0  0  0  0  0  0  0  0
   10.4340    0.8880   14.7780 C   0  0  0  0  0  0  0  0  0  0  0  0
   12.2920    3.4430   17.3210 C   0  0  0  0  0  0  0  0  0  0  0  0
   13.7080    0.9070   17.0810 C   0  0  0  0  0  0  0  0  0  0  0  0
    5.2610   -1.4780   21.0810 C   0  0  0  0  0  0  0  0  0  0  0  0
    6.7150   -1.4740   21.4080 C   0  0  0  0  0  0  0  0  0  0  0  0
    6.8240    0.6070   23.2650 C   0  0  0  0  0  0  0  0  0  0  0  0
    6.4580    0.9970   24.5430 C   0  0  0  0  0  0  0  0  0  0  0  0
    7.0980   -1.5090   24.4270 N   0  0  0  0  0  0  0  0  0  0  0  0
    5.9160   -4.4600   25.9310 C   0  0  0  0  0  0  0  0  0  0  0  0
    4.8750   -5.5100   25.6980 C   0  0  0  0  0  0  0  0  0  0  0  0
  1  2  1  0
  3  2  1  0
  3  4  2  0
  3  5  2  0
  3  6  1  0
  6  7  1  0
  7  8  1  0
  8  9  1  0
  9 10  1  0
 10 11  2  0
 11 12  1  0
 12 13  2  0
 13 14  1  0
 14 15  1  0
 14 16  2  0
 13 17  1  0
 17 18  1  0
 18 19  1  0
 19 20  2  0
 19 21  1  0
 21 22  1  0
 22 23  1  0
 23 24  1  0
 24 25  1  0
 25 26  2  0
 25 27  1  0
 27 28  1  0
 24 29  1  0
 21 30  1  0
 29 30  1  0
 18 31  1  0
 31 32  2  0
 32 33  1  0
 33 34  2  0
 34 35  1  0
 35 36  2  0
 35 37  1  0
 37 38  1  0
 38 39  1  0
 39 40  1  0
 40 41  1  0
 41 42  2  0
 41 43  1  0
 43 44  1  0
 44 45  1  0
 45 46  1  0
 46 47  1  0
 47 48  1  0
 48 49  2  0
 48 50  1  0
 51 50  1  0
 51 52  1  0
 51 53  1  0
 51 54  1  0
 40 55  1  0
 37 56  1  0
 55 56  1  0
 34 57  1  0
 31 58  1  0
 57 58  2  0
 10 59  1  0
 17 59  2  0
  9 60  1  0
  6 61  1  0
 60 61  1  0
M  END
