SAD-SAT-9a6c5cf3-1
     RDKit          3D

 36 39  0  0  0  0  0  0  0  0999 V2000
    5.3910   -4.5010   19.6750 O   0  0  0  0  0  0  0  0  0  0  0  0
    6.0420   -3.5840   20.1810 C   0  0  0  0  0  0  0  0  0  0  0  0
    6.1890   -2.2780   19.4070 C   0  0  0  0  0  0  0  0  0  0  0  0
    7.3720   -1.1690   20.1170 Cl  0  0  0  0  0  0  0  0  0  0  0  0
    6.6450   -3.8010   21.4200 N   0  0  0  0  0  0  0  0  0  0  0  0
    7.6000   -2.8550   22.0200 C   0  0  0  0  0  0  0  0  0  0  0  0
    7.4900   -2.8190   23.5430 C   0  0  0  0  0  0  0  0  0  0  0  0
    6.1020   -3.3390   23.9270 C   0  0  0  0  0  0  0  0  0  0  0  0
    5.5980   -3.0740   25.3620 C   0  0  0  0  0  0  0  0  0  0  0  0
    4.4280   -3.3600   25.5940 O   0  0  0  0  0  0  0  0  0  0  0  0
    6.3610   -2.5440   26.4130 N   0  0  0  0  0  0  0  0  0  0  0  0
    5.7150   -2.6600   27.7300 C   0  0  0  0  0  0  0  0  0  0  0  0
    4.8630   -1.4020   28.0520 C   0  0  0  0  0  0  0  0  0  0  0  0
    5.5380   -0.0960   27.6810 N   0  0  0  0  0  0  0  0  0  0  0  0
    6.4330    0.4380   28.6870 C   0  0  0  0  0  0  0  0  0  0  0  0
    7.5190   -0.2430   29.1840 C   0  0  0  0  0  0  0  0  0  0  0  0
    8.5800   -0.2300   30.0420 C   0  0  0  0  0  0  0  0  0  0  0  0
    8.5860    0.9900   30.7090 C   0  0  0  0  0  0  0  0  0  0  0  0
    9.8330    1.3750   31.9130 S   0  0  0  0  0  0  0  0  0  0  0  0
    9.2980    1.0200   33.2080 O   0  0  0  0  0  0  0  0  0  0  0  0
   11.1020    0.8360   31.4620 O   0  0  0  0  0  0  0  0  0  0  0  0
    9.9230    3.0760   31.8230 N   0  0  0  0  0  0  0  0  0  0  0  0
   10.9940    3.6140   30.9180 C   0  0  0  0  0  0  0  0  0  0  0  0
   11.0770    5.0030   31.0450 C   0  0  0  0  0  0  0  0  0  0  0  0
   11.4780    5.4730   32.3430 O   0  0  0  0  0  0  0  0  0  0  0  0
   11.1730    4.5650   33.4110 C   0  0  0  0  0  0  0  0  0  0  0  0
    9.9010    3.7530   33.1670 C   0  0  0  0  0  0  0  0  0  0  0  0
    7.4970    2.0160   30.3970 C   0  0  0  0  0  0  0  0  0  0  0  0
    6.3960    1.6940   29.3420 C   0  0  0  0  0  0  0  0  0  0  0  0
    5.3690    2.6850   29.0650 N   0  0  0  0  0  0  0  0  0  0  0  0
    4.3860    2.6920   29.8210 O   0  0  0  0  0  0  0  0  0  0  0  0
    5.6950    3.6200   28.3140 O   0  0  0  0  0  0  0  0  0  0  0  0
    6.1870   -0.1840   26.3630 C   0  0  0  0  0  0  0  0  0  0  0  0
    7.0600   -1.2580   26.4150 C   0  0  0  0  0  0  0  0  0  0  0  0
    5.9860   -4.8300   23.5750 C   0  0  0  0  0  0  0  0  0  0  0  0
    6.3760   -5.0580   22.1090 C   0  0  0  0  0  0  0  0  0  0  0  0
  1  2  2  0
  2  3  1  0
  3  4  1  0
  2  5  1  0
  5  6  1  0
  6  7  1  0
  7  8  1  0
  8  9  1  0
  9 10  2  0
  9 11  1  0
 11 12  1  0
 12 13  1  0
 13 14  1  0
 14 15  1  0
 15 16  2  0
 16 17  1  0
 17 18  2  0
 19 18  1  0
 19 20  2  0
 19 21  2  0
 19 22  1  0
 22 23  1  0
 23 24  1  0
 24 25  1  0
 25 26  1  0
 22 27  1  0
 26 27  1  0
 18 28  1  0
 15 29  1  0
 28 29  2  0
 29 30  1  0
 30 31  2  0
 30 32  1  0
 14 33  1  0
 11 34  1  0
 33 34  1  0
  8 35  1  0
  5 36  1  0
 35 36  1  0
M  CHG  2  30   1  32  -1
M  END
