SAD-SAT-29425be4-20-nitrile
     RDKit          3D

 22 23  0  0  0  0  0  0  0  0999 V2000
    6.3490   -4.1220   19.8050 C   0  0  0  0  0  0  0  0  0  0  0  0
    5.0960   -4.1740   19.7430 N   0  0  0  0  0  0  0  0  0  0  0  0
    7.0050   -2.9460   19.6890 N   0  0  0  0  0  0  0  0  0  0  0  0
    7.9570   -2.5580   20.7290 C   0  0  0  0  0  0  0  0  0  0  0  0
    7.9930   -0.9890   20.6370 C   0  0  0  0  0  0  0  0  0  0  0  0
    6.6810   -0.5600   21.3110 C   0  0  0  0  0  0  0  0  0  0  0  0
    6.7700   -1.1730   22.7250 C   0  0  0  0  0  0  0  0  0  0  0  0
    6.2640   -2.2750   22.9230 O   0  0  0  0  0  0  0  0  0  0  0  0
    7.4170   -0.4980   23.7760 N   0  0  0  0  0  0  0  0  0  0  0  0
    8.3130   -1.2760   24.6570 C   0  0  0  0  0  0  0  0  0  0  0  0
    9.4700   -1.9290   23.7860 C   0  0  0  0  0  0  0  0  0  0  0  0
    8.7180   -2.0910   22.4870 C   0  0  0  0  0  0  0  0  0  0  0  0
   10.1830   -3.0450   24.1490 C   0  0  0  0  0  0  0  0  0  0  0  0
   10.6100   -0.9920   23.4860 C   0  0  0  0  0  0  0  0  0  0  0  0
   11.9480   -1.5690   23.0810 C   0  0  0  0  0  0  0  0  0  0  0  0
   13.1070   -0.6720   22.7760 C   0  0  0  0  0  0  0  0  0  0  0  0
   12.9860    0.8340   22.8610 C   0  0  0  0  0  0  0  0  0  0  0  0
   11.6220    1.3620   23.2560 C   0  0  0  0  0  0  0  0  0  0  0  0
   11.3370    2.8590   23.3510 C   0  0  0  0  0  0  0  0  0  0  0  0
   10.4730    0.3960   23.5630 C   0  0  0  0  0  0  0  0  0  0  0  0
    5.5810   -1.2050   20.4700 C   0  0  0  0  0  0  0  0  0  0  0  0
    6.1950   -1.8090   19.2260 C   0  0  0  0  0  0  0  0  0  0  0  0
  1  2  2  3
  1  3  1  0
  3  4  1  0
  4  5  1  0
  5  6  1  0
  6  7  1  0
  7  8  2  0
  7  9  1  0
  9 10  1  0
 11 10  1  0
 11 12  1  0
 11 13  1  0
 11 14  1  0
 14 15  2  0
 15 16  1  0
 16 17  2  0
 17 18  1  0
 18 19  1  0
 14 20  1  0
 18 20  2  0
  6 21  1  0
  3 22  1  0
 21 22  1  0
M  END
