SAD-SAT-1b030f84-9-chloroacetamide
     RDKit          3D

 13 13  0  0  0  0  0  0  0  0999 V2000
    7.2630   -3.3120   19.7190 C   0  0  0  0  0  0  0  0  0  0  0  0
    6.4020   -4.3240   20.4580 C   0  0  0  0  0  0  0  0  0  0  0  0
    5.3410   -4.6470   19.9390 O   0  0  0  0  0  0  0  0  0  0  0  0
    6.8160   -4.9050   21.6570 N   0  0  0  0  0  0  0  0  0  0  0  0
    6.0710   -6.0660   22.1190 C   0  0  0  0  0  0  0  0  0  0  0  0
    5.2110   -5.7210   23.3240 C   0  0  0  0  0  0  0  0  0  0  0  0
    5.9860   -4.9820   24.3310 N   0  0  0  0  0  0  0  0  0  0  0  0
    6.0860   -5.4760   25.6250 C   0  0  0  0  0  0  0  0  0  0  0  0
    7.1290   -5.3940   26.2680 O   0  0  0  0  0  0  0  0  0  0  0  0
    4.8620   -6.1460   26.2540 C   0  0  0  0  0  0  0  0  0  0  0  0
    3.5560   -4.9600   26.4370 Cl  0  0  0  0  0  0  0  0  0  0  0  0
    6.8080   -3.9870   23.7960 C   0  0  0  0  0  0  0  0  0  0  0  0
    7.6150   -4.2460   22.7070 C   0  0  0  0  0  0  0  0  0  0  0  0
  1  2  1  0
  2  3  2  0
  2  4  1  0
  4  5  1  0
  5  6  1  0
  6  7  1  0
  7  8  1  0
  8  9  2  0
  8 10  1  0
 10 11  1  0
  7 12  1  0
  4 13  1  0
 12 13  1  0
M  END
