SAD-SAT-6b5a89f0-5-nitrile
     RDKit          3D

  9  9  0  0  0  0  0  0  0  0999 V2000
    6.2640   -3.8660   20.2770 C   0  0  0  0  0  0  0  0  0  0  0  0
    5.3430   -3.5970   19.4650 N   0  0  0  0  0  0  0  0  0  0  0  0
    5.9560   -4.3160   21.6140 N   0  0  0  0  0  0  0  0  0  0  0  0
    6.8620   -4.8280   22.4530 C   0  0  0  0  0  0  0  0  0  0  0  0
    7.4660   -3.5000   23.3440 S   0  0  0  0  0  0  0  0  0  0  0  0
    5.8960   -2.6590   23.2500 C   0  0  1  0  0  0  0  0  0  0  0  0
    5.9840   -1.3150   22.5180 C   0  0  0  0  0  0  0  0  0  0  0  0
    4.8160   -0.6660   22.5090 N   0  0  0  0  0  0  0  0  0  0  0  0
    5.0630   -3.6760   22.4710 C   0  0  0  0  0  0  0  0  0  0  0  0
  1  2  2  3
  1  3  1  0
  3  4  1  0
  4  5  1  0
  5  6  1  0
  6  7  1  6
  7  8  3  0
  3  9  1  0
  6  9  1  0
M  END
