SAD-SAT-1b030f84-2-chloroacetamide
     RDKit          3D

 11 11  0  0  0  0  0  0  0  0999 V2000
    7.9130   -4.0760   20.7380 C   0  0  0  0  0  0  0  0  0  0  0  0
    6.3800   -4.2290   20.7580 C   0  0  0  0  0  0  0  0  0  0  0  0
    5.6630   -4.0560   19.7510 O   0  0  0  0  0  0  0  0  0  0  0  0
    5.7700   -4.5780   21.9700 N   0  0  0  0  0  0  0  0  0  0  0  0
    6.0610   -5.8140   22.7420 C   0  0  0  0  0  0  0  0  0  0  0  0
    7.5590   -6.0870   22.6670 C   0  0  0  0  0  0  0  0  0  0  0  0
    6.3210   -6.2240   22.2130 C   0  0  0  0  0  0  0  0  0  0  0  0
    5.4890   -5.5510   23.0730 N   0  0  0  0  0  0  0  0  0  0  0  0
    4.1130   -5.3730   23.0870 F   0  0  0  0  0  0  0  0  0  0  0  0
    6.6250   -5.0470   24.0480 N   0  0  0  0  0  0  0  0  0  0  0  0
    7.9930   -5.4850   23.6540 N   0  0  0  0  0  0  0  0  0  0  0  0
  1  2  1  0
  2  3  2  0
  2  4  1  0
  4  5  1  0
  5  6  1  0
  6  7  2  0
  7  8  1  0
  8  9  1  0
  8 10  1  0
  6 11  1  0
 10 11  2  0
M  END
