SAD-SAT-1b030f84-9-vinylsulfonamide
     RDKit          3D

 15 15  0  0  0  0  0  0  0  0999 V2000
    7.1290   -4.4060   20.4570 C   0  0  0  0  0  0  0  0  0  0  0  0
    5.6570   -4.5460   20.8710 C   0  0  0  0  0  0  0  0  0  0  0  0
    5.2790   -4.0250   22.5480 S   0  0  0  0  0  0  0  0  0  0  0  0
    3.8610   -3.8610   22.6490 O   0  0  0  0  0  0  0  0  0  0  0  0
    6.1010   -2.9040   22.9270 O   0  0  0  0  0  0  0  0  0  0  0  0
    5.6640   -5.2990   23.5470 N   0  0  0  0  0  0  0  0  0  0  0  0
    6.1600   -4.8360   24.8120 C   0  0  0  0  0  0  0  0  0  0  0  0
    7.4930   -4.1650   24.5460 C   0  0  0  0  0  0  0  0  0  0  0  0
    8.1290   -4.4150   23.3780 N   0  0  0  0  0  0  0  0  0  0  0  0
    8.4440   -3.3620   22.5430 C   0  0  0  0  0  0  0  0  0  0  0  0
    7.4760   -2.6180   21.9420 O   0  0  0  0  0  0  0  0  0  0  0  0
    9.7400   -2.9510   22.2100 C   0  0  0  0  0  0  0  0  0  0  0  0
   10.0980   -1.2160   22.3530 Cl  0  0  0  0  0  0  0  0  0  0  0  0
    7.9250   -5.8100   22.9840 C   0  0  0  0  0  0  0  0  0  0  0  0
    6.5550   -6.1060   22.9130 C   0  0  0  0  0  0  0  0  0  0  0  0
  1  2  1  0
  3  2  1  0
  3  4  2  0
  3  5  2  0
  3  6  1  0
  6  7  1  0
  7  8  1  0
  8  9  1  0
  9 10  1  0
 10 11  2  0
 10 12  1  0
 12 13  1  0
  9 14  1  0
  6 15  1  0
 14 15  1  0
M  END
