SAD-SAT-29425be4-14-vinylsulfonamide
     RDKit          3D

 24 25  0  0  0  0  0  0  0  0999 V2000
    6.9650   -3.6390   19.8140 C   0  0  0  0  0  0  0  0  0  0  0  0
    7.2550   -3.4900   21.2800 C   0  0  0  0  0  0  0  0  0  0  0  0
    5.9250   -2.5150   21.8440 S   0  0  0  0  0  0  0  0  0  0  0  0
    4.8030   -2.9490   20.9880 O   0  0  0  0  0  0  0  0  0  0  0  0
    5.7870   -2.6580   23.2540 O   0  0  0  0  0  0  0  0  0  0  0  0
    6.6260   -0.9550   21.6110 N   0  0  0  0  0  0  0  0  0  0  0  0
    8.0180   -0.8930   21.0490 C   0  0  0  0  0  0  0  0  0  0  0  0
    9.0580   -1.3480   22.0720 C   0  0  0  0  0  0  0  0  0  0  0  0
    8.8970   -0.5410   23.3630 C   0  0  0  0  0  0  0  0  0  0  0  0
    8.6150   -1.4540   24.5460 C   0  0  0  0  0  0  0  0  0  0  0  0
    9.0530   -2.6040   24.4960 O   0  0  0  0  0  0  0  0  0  0  0  0
    7.8990   -0.9610   25.6400 N   0  0  0  0  0  0  0  0  0  0  0  0
    6.7700   -1.7220   26.2250 C   0  0  0  0  0  0  0  0  0  0  0  0
    6.2170   -2.8500   25.3940 C   0  0  0  0  0  0  0  0  0  0  0  0
    4.9000   -3.1870   25.2370 C   0  0  0  0  0  0  0  0  0  0  0  0
    4.6280   -4.2850   24.4030 C   0  0  0  0  0  0  0  0  0  0  0  0
    5.7900   -4.8280   23.8920 C   0  0  0  0  0  0  0  0  0  0  0  0
    5.9010   -5.9770   22.9930 C   0  0  0  0  0  0  0  0  0  0  0  0
    7.1130   -6.6270   22.7940 C   0  0  0  0  0  0  0  0  0  0  0  0
    4.8330   -6.9440   23.5160 C   0  0  0  0  0  0  0  0  0  0  0  0
    5.4950   -5.6440   21.5550 C   0  0  0  0  0  0  0  0  0  0  0  0
    7.1710   -3.9550   24.4670 S   0  0  0  0  0  0  0  0  0  0  0  0
    7.7750    0.4880   23.1670 C   0  0  0  0  0  0  0  0  0  0  0  0
    6.5400   -0.0880   22.8010 C   0  0  0  0  0  0  0  0  0  0  0  0
  1  2  1  0
  3  2  1  0
  3  4  2  0
  3  5  2  0
  3  6  1  0
  6  7  1  0
  7  8  1  0
  8  9  1  0
  9 10  1  0
 10 11  2  0
 10 12  1  0
 12 13  1  0
 13 14  1  0
 14 15  2  0
 15 16  1  0
 16 17  2  0
 17 18  1  0
 18 19  1  0
 18 20  1  0
 18 21  1  0
 14 22  1  0
 17 22  1  0
  9 23  1  0
  6 24  1  0
 23 24  1  0
M  END
