SAD-SAT-29425be4-13-chloroacetamide
     RDKit          3D

 26 27  0  0  0  0  0  0  0  0999 V2000
    6.9540   -3.0230   18.9090 C   0  0  0  0  0  0  0  0  0  0  0  0
    5.9550   -3.4860   19.9400 C   0  0  0  0  0  0  0  0  0  0  0  0
    5.4060   -4.5750   19.8860 O   0  0  0  0  0  0  0  0  0  0  0  0
    5.6540   -2.6390   20.9980 N   0  0  0  0  0  0  0  0  0  0  0  0
    6.4170   -1.3720   21.1510 C   0  0  0  0  0  0  0  0  0  0  0  0
    7.5780   -1.5600   22.1180 C   0  0  0  0  0  0  0  0  0  0  0  0
    7.0760   -2.1650   23.4440 C   0  0  0  0  0  0  0  0  0  0  0  0
    8.1650   -2.3200   24.4610 C   0  0  0  0  0  0  0  0  0  0  0  0
    7.9610   -2.8590   25.5450 O   0  0  0  0  0  0  0  0  0  0  0  0
    9.3790   -1.8310   24.0910 N   0  0  0  0  0  0  0  0  0  0  0  0
    9.6450   -0.3950   24.1620 C   0  0  2  0  0  0  0  0  0  0  0  0
   10.9680   -0.4250   23.5640 C   0  0  0  0  0  0  0  0  0  0  0  0
   12.0000   -0.7230   22.8060 C   0  0  0  0  0  0  0  0  0  0  0  0
   11.3710   -1.6190   22.1010 C   0  0  0  0  0  0  0  0  0  0  0  0
   11.8870   -2.3250   21.2000 C   0  0  0  0  0  0  0  0  0  0  0  0
   13.1760   -1.8390   21.4000 C   0  0  0  0  0  0  0  0  0  0  0  0
   13.4020   -1.7690   22.7860 C   0  0  0  0  0  0  0  0  0  0  0  0
   12.5700   -2.5030   23.6400 C   0  0  0  0  0  0  0  0  0  0  0  0
   13.2620   -0.2810   23.1590 C   0  0  0  0  0  0  0  0  0  0  0  0
   10.5760   -2.3000   21.6190 C   0  0  0  0  0  0  0  0  0  0  0  0
   10.2110   -1.4160   22.7320 C   0  0  0  0  0  0  0  0  0  0  0  0
    9.8730   -0.0560   25.5870 C   0  0  0  0  0  0  0  0  0  0  0  0
   11.3470   -0.4470   25.4740 C   0  0  0  0  0  0  0  0  0  0  0  0
    9.0960   -0.8400   26.6360 C   0  0  0  0  0  0  0  0  0  0  0  0
    6.5100   -3.5280   23.1150 C   0  0  0  0  0  0  0  0  0  0  0  0
    5.2770   -3.3100   22.2660 C   0  0  0  0  0  0  0  0  0  0  0  0
  1  2  1  0
  2  3  2  0
  2  4  1  0
  4  5  1  0
  5  6  1  0
  6  7  1  0
  7  8  1  0
  8  9  2  0
  8 10  1  0
 11 10  1  1
 11 12  1  0
 12 13  2  0
 13 14  1  0
 14 15  2  0
 15 16  1  0
 16 17  1  0
 17 18  1  0
 17 19  1  0
 15 20  1  0
 12 21  1  0
 20 21  2  0
 11 22  1  0
 22 23  1  0
 22 24  1  0
  7 25  1  0
  4 26  1  0
 25 26  1  0
M  END
