SAD-SAT-29425be4-14-acrylamide
     RDKit          3D

 23 24  0  0  0  0  0  0  0  0999 V2000
    8.0830   -3.4210   19.7940 C   0  0  0  0  0  0  0  0  0  0  0  0
    6.9640   -2.6490   19.2020 C   0  0  0  0  0  0  0  0  0  0  0  0
    5.9140   -3.0970   20.1290 C   0  0  0  0  0  0  0  0  0  0  0  0
    5.0790   -3.9400   19.7860 O   0  0  0  0  0  0  0  0  0  0  0  0
    6.0380   -2.5570   21.4090 N   0  0  0  0  0  0  0  0  0  0  0  0
    6.1540   -3.5420   22.4730 C   0  0  0  0  0  0  0  0  0  0  0  0
    7.1150   -3.0900   23.5820 C   0  0  0  0  0  0  0  0  0  0  0  0
    8.4120   -2.5350   23.0170 C   0  0  0  0  0  0  0  0  0  0  0  0
    9.3660   -2.1240   24.1550 C   0  0  0  0  0  0  0  0  0  0  0  0
    9.2100   -2.5870   25.2800 O   0  0  0  0  0  0  0  0  0  0  0  0
   10.3820   -1.2320   23.8540 N   0  0  0  0  0  0  0  0  0  0  0  0
   10.6830   -0.0720   24.6990 C   0  0  0  0  0  0  0  0  0  0  0  0
   11.6120    0.8070   24.1100 C   0  0  0  0  0  0  0  0  0  0  0  0
   12.6530    1.1360   23.2180 C   0  0  0  0  0  0  0  0  0  0  0  0
   12.5850   -0.0040   22.8780 C   0  0  0  0  0  0  0  0  0  0  0  0
   13.0470   -0.9160   22.0980 C   0  0  0  0  0  0  0  0  0  0  0  0
   12.6910   -2.2090   21.9770 C   0  0  0  0  0  0  0  0  0  0  0  0
   11.3180   -2.3900   21.8800 C   0  0  0  0  0  0  0  0  0  0  0  0
   13.2530   -2.9130   20.7990 C   0  0  0  0  0  0  0  0  0  0  0  0
   13.2200   -2.7700   23.3080 C   0  0  0  0  0  0  0  0  0  0  0  0
   11.8010   -0.8480   23.3490 S   0  0  0  0  0  0  0  0  0  0  0  0
    8.1350   -1.4130   22.0070 C   0  0  0  0  0  0  0  0  0  0  0  0
    6.7620   -1.2870   21.6630 C   0  0  0  0  0  0  0  0  0  0  0  0
  1  2  1  0
  2  3  1  0
  3  4  2  0
  3  5  1  0
  5  6  1  0
  6  7  1  0
  7  8  1  0
  8  9  1  0
  9 10  2  0
  9 11  1  0
 11 12  1  0
 12 13  1  0
 13 14  2  0
 14 15  1  0
 15 16  2  0
 16 17  1  0
 17 18  1  0
 17 19  1  0
 17 20  1  0
 13 21  1  0
 16 21  1  0
  8 22  1  0
  5 23  1  0
 22 23  1  0
M  END
