SAD-SAT-2ceae68f-6-acrylamide
     RDKit          3D

 27 29  0  0  0  0  0  0  0  0999 V2000
    6.7800   -5.6780   20.7730 C   0  0  0  0  0  0  0  0  0  0  0  0
    6.5930   -5.0060   22.1220 C   0  0  0  0  0  0  0  0  0  0  0  0
    5.1810   -4.5180   22.1780 C   0  0  0  0  0  0  0  0  0  0  0  0
    4.1260   -4.0570   22.5900 O   0  0  0  0  0  0  0  0  0  0  0  0
    5.5650   -4.3220   23.4970 N   0  0  0  0  0  0  0  0  0  0  0  0
    5.9150   -2.9610   23.9290 C   0  0  0  0  0  0  0  0  0  0  0  0
    6.2190   -2.0070   22.8010 C   0  0  0  0  0  0  0  0  0  0  0  0
    7.4840   -1.4210   22.7460 C   0  0  0  0  0  0  0  0  0  0  0  0
    7.5870   -0.1980   22.6050 O   0  0  0  0  0  0  0  0  0  0  0  0
    8.6620   -2.1190   22.8360 N   0  0  0  0  0  0  0  0  0  0  0  0
    9.4160   -2.1130   21.5930 C   0  0  0  0  0  0  0  0  0  0  0  0
   10.7910   -1.9990   21.8170 C   0  0  0  0  0  0  0  0  0  0  0  0
   11.4110   -2.6760   22.8730 N   0  0  0  0  0  0  0  0  0  0  0  0
   12.9620   -2.0060   22.9660 S   0  0  0  0  0  0  0  0  0  0  0  0
   13.5970   -2.5140   24.1630 O   0  0  0  0  0  0  0  0  0  0  0  0
   13.5070   -2.0280   21.6330 O   0  0  0  0  0  0  0  0  0  0  0  0
   12.2810   -0.4950   23.2460 C   0  0  0  0  0  0  0  0  0  0  0  0
   11.1180   -0.6160   23.9740 C   0  0  0  0  0  0  0  0  0  0  0  0
   10.3820    0.5040   24.2710 C   0  0  0  0  0  0  0  0  0  0  0  0
   10.8540    1.7120   23.8170 C   0  0  0  0  0  0  0  0  0  0  0  0
   12.0190    1.8590   23.1020 C   0  0  0  0  0  0  0  0  0  0  0  0
   12.7630    0.7250   22.8090 C   0  0  0  0  0  0  0  0  0  0  0  0
   12.1730    3.3260   22.8080 C   0  0  0  0  0  0  0  0  0  0  0  0
   11.0800    3.8640   23.5220 C   0  0  0  0  0  0  0  0  0  0  0  0
   10.2310    2.8950   24.0180 C   0  0  0  0  0  0  0  0  0  0  0  0
   10.6920   -2.5730   24.0130 C   0  0  0  0  0  0  0  0  0  0  0  0
    9.4120   -1.7060   23.8720 C   0  0  0  0  0  0  0  0  0  0  0  0
  1  2  1  0
  2  3  1  0
  3  4  2  0
  3  5  1  0
  5  6  1  0
  6  7  1  0
  7  8  1  0
  8  9  2  0
  8 10  1  0
 10 11  1  0
 11 12  1  0
 12 13  1  0
 13 14  1  0
 14 15  2  0
 14 16  2  0
 14 17  1  0
 17 18  2  0
 18 19  1  0
 19 20  2  0
 20 21  1  0
 17 22  1  0
 21 22  2  0
 21 23  1  0
 23 24  1  0
 20 25  1  0
 24 25  1  0
 13 26  1  0
 10 27  1  0
 26 27  1  0
M  END
