SAD-SAT-bc31ec01-7-vinylsulfonamide
     RDKit          3D

 21 23  0  0  0  0  0  0  0  0999 V2000
    7.8940   -2.9230   19.5360 C   0  0  0  0  0  0  0  0  0  0  0  0
    6.8240   -1.8040   19.7540 C   0  0  0  0  0  0  0  0  0  0  0  0
    6.0670   -1.7620   21.3500 S   0  0  0  0  0  0  0  0  0  0  0  0
    4.8880   -3.0180   21.3040 O   0  0  0  0  0  0  0  0  0  0  0  0
    5.6100   -0.3720   21.5410 O   0  0  0  0  0  0  0  0  0  0  0  0
    7.6170   -1.4550   22.3090 N   0  0  0  0  0  0  0  0  0  0  0  0
    8.0780   -0.0310   22.3200 C   0  0  0  0  0  0  0  0  0  0  0  0
    9.3300    0.1590   22.9630 C   0  0  0  0  0  0  0  0  0  0  0  0
    9.4550   -0.6670   24.0150 N   0  0  0  0  0  0  0  0  0  0  0  0
    8.2630   -0.4340   24.8630 C   0  0  0  0  0  0  0  0  0  0  0  0
    7.9400    0.9610   25.2430 C   0  0  0  0  0  0  0  0  0  0  0  0
    8.6370    2.1860   24.8150 C   0  0  0  0  0  0  0  0  0  0  0  0
    8.3270    3.5100   25.1550 C   0  0  2  0  0  0  0  0  0  0  0  0
    9.1830    4.1610   25.7700 O   0  0  0  0  0  0  0  0  0  0  0  0
    8.6660    4.5120   27.0510 C   0  0  0  0  0  0  0  0  0  0  0  0
    7.2630    4.5860   26.9860 O   0  0  0  0  0  0  0  0  0  0  0  0
    6.9800    3.7090   25.9080 C   0  0  2  0  0  0  0  0  0  0  0  0
    6.2990    2.4580   26.4800 C   0  0  0  0  0  0  0  0  0  0  0  0
    6.8500    1.0930   26.0880 C   0  0  0  0  0  0  0  0  0  0  0  0
    9.6390   -1.9980   23.4080 C   0  0  0  0  0  0  0  0  0  0  0  0
    8.8810   -2.1950   22.2410 C   0  0  0  0  0  0  0  0  0  0  0  0
  1  2  1  0
  3  2  1  0
  3  4  2  0
  3  5  2  0
  3  6  1  0
  6  7  1  0
  7  8  1  0
  8  9  1  0
  9 10  1  0
 10 11  1  0
 11 12  2  0
 13 12  1  1
 13 14  1  0
 14 15  1  0
 15 16  1  0
 13 17  1  0
 16 17  1  0
 17 18  1  1
 11 19  1  0
 18 19  2  0
  9 20  1  0
  6 21  1  0
 20 21  1  0
M  END
