SAD-SAT-bc31ec01-6-chloroacetamide
     RDKit          3D

 17 19  0  0  0  0  0  0  0  0999 V2000
    7.4430   -4.4850   20.7190 C   0  0  0  0  0  0  0  0  0  0  0  0
    6.5020   -3.3990   20.2360 C   0  0  0  0  0  0  0  0  0  0  0  0
    5.5220   -3.5890   19.5010 O   0  0  0  0  0  0  0  0  0  0  0  0
    6.8370   -2.1010   20.6810 N   0  0  0  0  0  0  0  0  0  0  0  0
    8.1950   -1.9840   21.1550 C   0  0  0  0  0  0  0  0  0  0  0  0
    8.2310   -2.2400   22.5250 C   0  0  0  0  0  0  0  0  0  0  0  0
    7.5930   -1.2850   23.2540 N   0  0  0  0  0  0  0  0  0  0  0  0
    7.9000   -0.0230   22.7930 C   0  0  0  0  0  0  0  0  0  0  0  0
    6.6980    0.6820   22.2440 C   0  0  0  0  0  0  0  0  0  0  0  0
    6.8280    2.0770   21.6940 C   0  0  0  0  0  0  0  0  0  0  0  0
    5.7420    2.7000   21.2070 F   0  0  0  0  0  0  0  0  0  0  0  0
    8.0590    2.7360   21.6830 C   0  0  0  0  0  0  0  0  0  0  0  0
    9.1900    2.1050   22.1850 C   0  0  0  0  0  0  0  0  0  0  0  0
    8.9090    0.7330   22.6950 C   0  0  0  0  0  0  0  0  0  0  0  0
    7.2860    1.0580   22.1860 S   0  0  0  0  0  0  0  0  0  0  0  0
    6.5070   -0.6700   22.6460 C   0  0  1  0  0  0  0  0  0  0  0  0
    5.8450   -1.3980   21.4480 C   0  0  0  0  0  0  0  0  0  0  0  0
  1  2  1  0
  2  3  2  0
  2  4  1  0
  4  5  1  0
  5  6  1  0
  6  7  1  0
  7  8  1  0
  8  9  1  0
  9 10  2  0
 10 11  1  0
 10 12  1  0
 12 13  2  0
  8 14  2  0
 13 14  1  0
 14 15  1  0
  7 16  1  0
 15 16  1  0
  4 17  1  0
 16 17  1  6
M  END
