SAD-SAT-1b030f84-6-vinylsulfonamide
     RDKit          3D

 22 23  0  0  0  0  0  0  0  0999 V2000
    7.4030   -5.3370   21.6310 C   0  0  0  0  0  0  0  0  0  0  0  0
    6.2190   -5.4860   22.6160 C   0  0  0  0  0  0  0  0  0  0  0  0
    5.3530   -4.0050   23.0200 S   0  0  0  0  0  0  0  0  0  0  0  0
    3.9550   -4.2160   22.6810 O   0  0  0  0  0  0  0  0  0  0  0  0
    5.7350   -3.6180   24.3650 O   0  0  0  0  0  0  0  0  0  0  0  0
    5.9110   -2.8960   21.9210 N   0  0  0  0  0  0  0  0  0  0  0  0
    5.7050   -3.0660   20.5070 C   0  0  0  0  0  0  0  0  0  0  0  0
    5.4340   -1.5200   19.7090 S   0  0  0  0  0  0  0  0  0  0  0  0
    7.1390   -1.1230   20.0870 C   0  0  0  0  0  0  0  0  0  0  0  0
    7.4240   -1.4150   21.4030 N   0  0  0  0  0  0  0  0  0  0  0  0
    8.3990   -2.3020   21.6050 C   0  0  0  0  0  0  0  0  0  0  0  0
    8.7850   -3.1120   20.6130 O   0  0  0  0  0  0  0  0  0  0  0  0
    9.0490   -2.4440   22.8190 C   0  0  0  0  0  0  0  0  0  0  0  0
    8.8770   -3.5670   23.5820 O   0  0  0  0  0  0  0  0  0  0  0  0
    9.8450   -1.4100   23.2060 C   0  0  0  0  0  0  0  0  0  0  0  0
    9.3830   -0.4670   24.1300 C   0  0  0  0  0  0  0  0  0  0  0  0
   10.1850    0.6030   24.5200 C   0  0  0  0  0  0  0  0  0  0  0  0
   11.4580    0.7320   23.9830 C   0  0  0  0  0  0  0  0  0  0  0  0
   11.8910   -0.2150   23.0780 C   0  0  0  0  0  0  0  0  0  0  0  0
   13.4820    0.0530   22.4890 Cl  0  0  0  0  0  0  0  0  0  0  0  0
   11.1240   -1.2700   22.6830 C   0  0  0  0  0  0  0  0  0  0  0  0
    6.3440   -1.6540   22.2700 C   0  0  0  0  0  0  0  0  0  0  0  0
  1  2  1  0
  3  2  1  0
  3  4  2  0
  3  5  2  0
  3  6  1  0
  6  7  1  0
  7  8  1  0
  8  9  1  0
  9 10  1  0
 10 11  1  0
 11 12  2  0
 11 13  1  0
 13 14  2  0
 13 15  1  0
 15 16  2  0
 16 17  1  0
 17 18  2  0
 18 19  1  0
 19 20  1  0
 15 21  1  0
 19 21  2  0
  6 22  1  0
 10 22  1  0
M  END
