SAD-SAT-29425be4-4-acrylamide
     RDKit          3D

 28 30  0  0  0  0  0  0  0  0999 V2000
    7.7820   -3.1050   19.2680 C   0  0  0  0  0  0  0  0  0  0  0  0
    6.5480   -2.2340   19.2450 C   0  0  0  0  0  0  0  0  0  0  0  0
    5.3920   -2.8510   19.9750 C   0  0  0  0  0  0  0  0  0  0  0  0
    4.7030   -3.6630   19.3760 O   0  0  0  0  0  0  0  0  0  0  0  0
    5.1880   -2.5030   21.3180 N   0  0  0  0  0  0  0  0  0  0  0  0
    4.9690   -3.5840   22.2840 C   0  0  0  0  0  0  0  0  0  0  0  0
    6.1620   -3.8860   23.2180 C   0  0  0  0  0  0  0  0  0  0  0  0
    7.1090   -2.7220   23.5370 C   0  0  0  0  0  0  0  0  0  0  0  0
    8.4850   -3.3350   23.8040 C   0  0  0  0  0  0  0  0  0  0  0  0
    8.5520   -4.5300   24.0480 O   0  0  0  0  0  0  0  0  0  0  0  0
    9.5950   -2.5200   23.7590 N   0  0  0  0  0  0  0  0  0  0  0  0
    9.4720   -1.0840   23.6730 C   0  0  0  0  0  0  0  0  0  0  0  0
   10.5600   -0.4030   24.1760 C   0  0  0  0  0  0  0  0  0  0  0  0
   10.9690   -0.8150   25.4220 C   0  0  0  0  0  0  0  0  0  0  0  0
   10.2230    1.0990   24.2620 C   0  0  0  0  0  0  0  0  0  0  0  0
   11.7600   -0.5650   23.3030 C   0  0  0  0  0  0  0  0  0  0  0  0
   12.5750   -1.6340   22.8600 C   0  0  0  0  0  0  0  0  0  0  0  0
   13.4520   -1.2430   22.1050 O   0  0  0  0  0  0  0  0  0  0  0  0
   13.2910    0.1710   21.9750 C   0  0  0  0  0  0  0  0  0  0  0  0
   14.1580    0.7920   21.0690 C   0  0  0  0  0  0  0  0  0  0  0  0
   14.5240   -0.0770   19.8100 C   0  0  0  0  0  0  0  0  0  0  0  0
   15.3650    0.3060   18.7280 C   0  0  0  0  0  0  0  0  0  0  0  0
   15.9570    1.5820   18.6510 C   0  0  0  0  0  0  0  0  0  0  0  0
   15.6930    2.6220   19.8140 C   0  0  0  0  0  0  0  0  0  0  0  0
   14.7690    2.1690   21.1190 C   0  0  0  0  0  0  0  0  0  0  0  0
   12.2440    0.6060   22.7510 N   0  0  0  0  0  0  0  0  0  0  0  0
    7.1900   -1.6950   22.3930 C   0  0  0  0  0  0  0  0  0  0  0  0
    5.8020   -1.3130   21.9170 C   0  0  0  0  0  0  0  0  0  0  0  0
  1  2  1  0
  2  3  1  0
  3  4  2  0
  3  5  1  0
  5  6  1  0
  6  7  1  0
  7  8  1  0
  8  9  1  0
  9 10  2  0
  9 11  1  0
 11 12  1  0
 13 12  1  0
 13 14  1  0
 13 15  1  0
 13 16  1  0
 16 17  2  0
 17 18  1  0
 18 19  1  0
 19 20  1  0
 20 21  2  0
 21 22  1  0
 22 23  2  0
 23 24  1  0
 20 25  1  0
 24 25  2  0
 16 26  1  0
 19 26  2  0
  8 27  1  0
  5 28  1  0
 27 28  1  0
M  END
