SAD-SAT-6b5a89f0-10-acrylamide
     RDKit          3D

 10 10  0  0  0  0  0  0  0  0999 V2000
    8.0670   -3.4590   19.2210 C   0  0  0  0  0  0  0  0  0  0  0  0
    6.9480   -2.4700   19.2220 C   0  0  0  0  0  0  0  0  0  0  0  0
    6.1720   -2.8550   20.4280 C   0  0  0  0  0  0  0  0  0  0  0  0
    4.9930   -3.2310   20.3550 O   0  0  0  0  0  0  0  0  0  0  0  0
    6.9160   -2.8210   21.5980 N   0  0  0  0  0  0  0  0  0  0  0  0
    6.2640   -2.2590   22.7250 C   0  0  0  0  0  0  0  0  0  0  0  0
    5.2850   -2.5360   23.8700 C   0  0  0  0  0  0  0  0  0  0  0  0
    4.7740   -4.0610   23.7990 C   0  0  0  0  0  0  0  0  0  0  0  0
    5.5590   -4.8730   22.3990 S   0  0  0  0  0  0  0  0  0  0  0  0
    5.6030   -3.3770   23.0550 C   0  0  0  0  0  0  0  0  0  0  0  0
  1  2  1  0
  2  3  1  0
  3  4  2  0
  3  5  1  0
  5  6  1  0
  6  7  1  0
  7  8  2  0
  8  9  1  0
  6 10  2  0
  9 10  1  0
M  END
