SAD-SAT-29425be4-22-nitrile
     RDKit          3D

 29 30  0  0  0  0  0  0  0  0999 V2000
    7.0420   -3.3430   19.0410 C   0  0  0  0  0  0  0  0  0  0  0  0
    6.3190   -3.0720   18.0320 N   0  0  0  0  0  0  0  0  0  0  0  0
    6.5310   -3.3130   20.2680 N   0  0  0  0  0  0  0  0  0  0  0  0
    5.6950   -4.3460   20.8350 C   0  0  0  0  0  0  0  0  0  0  0  0
    6.4580   -4.6770   22.1320 C   0  0  0  0  0  0  0  0  0  0  0  0
    6.2680   -3.3880   22.9670 C   0  0  0  0  0  0  0  0  0  0  0  0
    7.6920   -3.2290   23.5080 C   0  0  0  0  0  0  0  0  0  0  0  0
    8.2580   -4.2430   23.9140 O   0  0  0  0  0  0  0  0  0  0  0  0
    8.3520   -1.9980   23.5760 N   0  0  0  0  0  0  0  0  0  0  0  0
    9.4930   -2.0020   24.4690 C   0  0  0  0  0  0  0  0  0  0  0  0
   10.6270   -1.0320   23.9790 C   0  0  0  0  0  0  0  0  0  0  0  0
   11.7380   -1.8660   23.2960 C   0  0  0  0  0  0  0  0  0  0  0  0
   12.9400   -1.0470   22.7550 C   0  0  0  0  0  0  0  0  0  0  0  0
   12.9650    0.4740   22.9200 C   0  0  0  0  0  0  0  0  0  0  0  0
   11.8070    1.1740   23.6030 C   0  0  0  0  0  0  0  0  0  0  0  0
   11.7350    2.3770   23.7590 O   0  0  0  0  0  0  0  0  0  0  0  0
   12.3730    3.2590   22.8260 C   0  0  0  0  0  0  0  0  0  0  0  0
   10.6450    0.3580   24.1240 C   0  0  0  0  0  0  0  0  0  0  0  0
    9.7090    0.9180   24.6720 O   0  0  0  0  0  0  0  0  0  0  0  0
    9.0010    1.9330   23.9420 C   0  0  0  0  0  0  0  0  0  0  0  0
    8.5180   -1.3370   22.4190 C   0  0  0  0  0  0  0  0  0  0  0  0
    8.7260   -2.2030   21.2340 C   0  0  0  0  0  0  0  0  0  0  0  0
    9.7280   -0.3830   22.3200 C   0  0  0  0  0  0  0  0  0  0  0  0
    7.4770   -0.4330   22.1240 C   0  0  0  0  0  0  0  0  0  0  0  0
    6.6150    0.6870   22.3300 O   0  0  0  0  0  0  0  0  0  0  0  0
    8.0150   -0.0560   23.3240 O   0  0  0  0  0  0  0  0  0  0  0  0
    7.1190   -0.0160   24.4400 C   0  0  0  0  0  0  0  0  0  0  0  0
    5.7620   -2.1200   22.2200 C   0  0  0  0  0  0  0  0  0  0  0  0
    6.1550   -2.0070   20.7570 C   0  0  0  0  0  0  0  0  0  0  0  0
  1  2  2  3
  1  3  1  0
  3  4  1  0
  4  5  1  0
  5  6  1  0
  6  7  1  0
  7  8  2  0
  7  9  1  0
  9 10  1  0
 10 11  1  0
 11 12  2  0
 12 13  1  0
 13 14  2  0
 14 15  1  0
 15 16  1  0
 16 17  1  0
 11 18  1  0
 15 18  2  0
 18 19  1  0
 19 20  1  0
  9 21  1  0
 21 22  1  0
 21 23  1  0
 21 24  1  0
 24 25  2  0
 24 26  1  0
 26 27  1  0
  6 28  1  0
  3 29  1  0
 28 29  1  0
M  END
