SAD-SAT-2ceae68f-6-acrylamide
     RDKit          3D

 27 29  0  0  0  0  0  0  0  0999 V2000
    6.6430   -5.0710   20.4610 C   0  0  0  0  0  0  0  0  0  0  0  0
    6.3110   -4.0680   21.5430 C   0  0  0  0  0  0  0  0  0  0  0  0
    5.5350   -2.9710   20.8860 C   0  0  0  0  0  0  0  0  0  0  0  0
    4.8570   -3.2780   19.9040 O   0  0  0  0  0  0  0  0  0  0  0  0
    5.6160   -1.7070   21.3760 N   0  0  0  0  0  0  0  0  0  0  0  0
    5.2310   -1.3810   22.7530 C   0  0  0  0  0  0  0  0  0  0  0  0
    6.4770   -1.8030   23.5830 C   0  0  0  0  0  0  0  0  0  0  0  0
    7.5790   -1.0260   22.8530 C   0  0  0  0  0  0  0  0  0  0  0  0
    7.1430    0.1560   22.1720 O   0  0  0  0  0  0  0  0  0  0  0  0
    8.8840   -1.5090   22.9080 N   0  0  0  0  0  0  0  0  0  0  0  0
    9.3490   -2.1720   24.1020 C   0  0  0  0  0  0  0  0  0  0  0  0
   10.8140   -2.7330   24.0000 C   0  0  0  0  0  0  0  0  0  0  0  0
   11.4970   -2.6620   22.8030 N   0  0  0  0  0  0  0  0  0  0  0  0
   12.9950   -1.9590   22.8500 S   0  0  0  0  0  0  0  0  0  0  0  0
   13.5000   -1.8960   21.5040 O   0  0  0  0  0  0  0  0  0  0  0  0
   13.7110   -2.4430   24.0080 O   0  0  0  0  0  0  0  0  0  0  0  0
   12.2200   -0.4440   23.1870 C   0  0  0  0  0  0  0  0  0  0  0  0
   10.9370   -0.6040   23.9040 C   0  0  0  0  0  0  0  0  0  0  0  0
   10.2850    0.5110   24.1480 C   0  0  0  0  0  0  0  0  0  0  0  0
   10.7470    1.7870   23.7660 C   0  0  0  0  0  0  0  0  0  0  0  0
   11.8910    1.9500   23.1390 C   0  0  0  0  0  0  0  0  0  0  0  0
   12.7230    0.8000   22.8110 C   0  0  0  0  0  0  0  0  0  0  0  0
   12.1350    3.3050   22.8650 C   0  0  0  0  0  0  0  0  0  0  0  0
   11.0700    3.9710   23.4890 C   0  0  0  0  0  0  0  0  0  0  0  0
   10.1510    3.0280   23.9470 C   0  0  0  0  0  0  0  0  0  0  0  0
   10.7730   -2.1950   21.6650 C   0  0  0  0  0  0  0  0  0  0  0  0
    9.3780   -2.1930   21.7420 C   0  0  0  0  0  0  0  0  0  0  0  0
  1  2  1  0
  2  3  1  0
  3  4  2  0
  3  5  1  0
  5  6  1  0
  6  7  1  0
  7  8  1  0
  8  9  2  0
  8 10  1  0
 10 11  1  0
 11 12  1  0
 12 13  1  0
 13 14  1  0
 14 15  2  0
 14 16  2  0
 14 17  1  0
 17 18  2  0
 18 19  1  0
 19 20  2  0
 20 21  1  0
 17 22  1  0
 21 22  2  0
 21 23  1  0
 23 24  1  0
 20 25  1  0
 24 25  1  0
 13 26  1  0
 10 27  1  0
 26 27  1  0
M  END
