SAD-SAT-6b5a89f0-2-chloroacetamide
     RDKit          3D

  8  8  0  0  0  0  0  0  0  0999 V2000
    6.3970   -3.6840   19.7790 C   0  0  0  0  0  0  0  0  0  0  0  0
    5.8460   -4.7680   20.7010 C   0  0  0  0  0  0  0  0  0  0  0  0
    5.4660   -5.7670   20.0700 O   0  0  0  0  0  0  0  0  0  0  0  0
    5.7440   -4.5450   22.1190 N   0  0  0  0  0  0  0  0  0  0  0  0
    4.6100   -4.6900   23.0520 C   0  0  0  0  0  0  0  0  0  0  0  0
    4.4480   -3.3510   23.7680 C   0  0  0  0  0  0  0  0  0  0  0  0
    5.5550   -2.6490   23.2740 O   0  0  0  0  0  0  0  0  0  0  0  0
    6.4010   -3.4500   22.5520 C   0  0  0  0  0  0  0  0  0  0  0  0
  1  2  1  0
  2  3  2  0
  2  4  1  0
  4  5  1  0
  5  6  1  0
  6  7  1  0
  4  8  1  0
  7  8  1  0
M  END
