SAD-SAT-135344c3-8
     RDKit          3D

 26 28  0  0  0  0  0  0  0  0999 V2000
    9.0420    2.5030   21.3550 O   0  0  0  0  0  0  0  0  0  0  0  0
    8.2590    2.0380   22.1930 C   0  0  0  0  0  0  0  0  0  0  0  0
    8.4540    2.2050   23.5600 N   0  0  0  0  0  0  0  0  0  0  0  0
    9.2300    1.3210   24.2860 C   0  0  0  0  0  0  0  0  0  0  0  0
   10.5590    1.3030   23.8390 C   0  0  0  0  0  0  0  0  0  0  0  0
   11.2040    2.5780   23.7680 O   0  0  0  0  0  0  0  0  0  0  0  0
   11.0990   -0.0250   23.5070 N   0  0  0  0  0  0  0  0  0  0  0  0
   12.4950   -0.0070   23.0370 C   0  0  0  0  0  0  0  0  0  0  0  0
   12.9840   -1.3110   22.8910 C   0  0  0  0  0  0  0  0  0  0  0  0
   13.0330   -1.9930   24.1880 N   0  0  0  0  0  0  0  0  0  0  0  0
   14.1160   -2.9650   24.3890 C   0  0  0  0  0  0  0  0  0  0  0  0
   14.8440   -3.5780   25.5730 C   0  0  0  0  0  0  0  0  0  0  0  0
   16.0090   -4.6200   25.3980 C   0  0  0  0  0  0  0  0  0  0  0  0
   16.5380   -5.1090   24.1430 C   0  0  0  0  0  0  0  0  0  0  0  0
   15.8550   -4.5780   22.9790 C   0  0  0  0  0  0  0  0  0  0  0  0
   16.1810   -5.2250   21.3840 Cl  0  0  0  0  0  0  0  0  0  0  0  0
   14.6080   -3.4730   23.2620 C   0  0  0  0  0  0  0  0  0  0  0  0
   11.9970   -1.6180   25.0670 C   0  0  0  0  0  0  0  0  0  0  0  0
   10.7760   -1.2200   24.2790 C   0  0  0  0  0  0  0  0  0  0  0  0
    7.1700    1.3280   21.8050 N   0  0  0  0  0  0  0  0  0  0  0  0
    6.5350    1.1750   20.5040 C   0  0  0  0  0  0  0  0  0  0  0  0
    5.4030    2.1390   20.2390 C   0  0  0  0  0  0  0  0  0  0  0  0
    4.6710    2.0800   18.9410 C   0  0  0  0  0  0  0  0  0  0  0  0
    5.1880    1.0050   18.0010 C   0  0  0  0  0  0  0  0  0  0  0  0
    6.2110    0.1540   18.2620 N   0  0  0  0  0  0  0  0  0  0  0  0
    6.8530    0.2410   19.4760 C   0  0  0  0  0  0  0  0  0  0  0  0
  1  2  2  0
  2  3  1  0
  3  4  1  0
  4  5  1  0
  5  6  2  0
  5  7  1  0
  7  8  1  0
  8  9  1  0
  9 10  1  0
 10 11  1  0
 11 12  2  0
 12 13  1  0
 13 14  2  0
 14 15  1  0
 15 16  1  0
 11 17  1  0
 15 17  2  0
 10 18  1  0
  7 19  1  0
 18 19  1  0
  2 20  1  0
 20 21  1  0
 21 22  2  0
 22 23  1  0
 23 24  2  0
 24 25  1  0
 21 26  1  0
 25 26  2  0
M  END
