SAD-SAT-2fd372d1-5
     RDKit          3D

 18 19  0  0  0  0  0  0  0  0999 V2000
    2.0040   -6.9080   26.9260 O   0  0  0  0  0  0  0  0  0  0  0  0
    1.3010   -6.1460   25.9130 S   0  0  0  0  0  0  0  0  0  0  0  0
   -0.1410   -5.9940   25.9320 O   0  0  0  0  0  0  0  0  0  0  0  0
    1.6180   -6.8590   24.5270 F   0  0  0  0  0  0  0  0  0  0  0  0
    1.9860   -4.5090   25.8580 C   0  0  0  0  0  0  0  0  0  0  0  0
    1.0550   -3.4650   25.8430 C   0  0  0  0  0  0  0  0  0  0  0  0
    1.4940   -2.1490   25.8070 C   0  0  0  0  0  0  0  0  0  0  0  0
    2.8550   -1.8580   25.7820 C   0  0  0  0  0  0  0  0  0  0  0  0
    3.7880   -2.8890   25.7960 C   0  0  0  0  0  0  0  0  0  0  0  0
    3.3740   -4.2180   25.8340 C   0  0  0  0  0  0  0  0  0  0  0  0
    4.6410   -5.4760   25.8480 S   0  0  0  0  0  0  0  0  0  0  0  0
    3.9790   -6.7600   25.9440 O   0  0  0  0  0  0  0  0  0  0  0  0
    5.6320   -5.0580   26.8140 O   0  0  0  0  0  0  0  0  0  0  0  0
    5.3680   -5.3600   24.3150 N   0  0  0  0  0  0  0  0  0  0  0  0
    6.3330   -4.3270   23.9630 C   0  0  0  0  0  0  0  0  0  0  0  0
    6.9830   -4.9970   22.7640 C   0  0  0  0  0  0  0  0  0  0  0  0
    5.9530   -5.9310   22.1040 C   0  0  0  0  0  0  0  0  0  0  0  0
    4.7850   -5.9440   23.1020 C   0  0  0  0  0  0  0  0  0  0  0  0
  1  2  2  0
  2  3  2  0
  2  4  1  0
  2  5  1  0
  5  6  2  0
  6  7  1  0
  7  8  2  0
  8  9  1  0
  5 10  1  0
  9 10  2  0
 11 10  1  0
 11 12  2  0
 11 13  2  0
 11 14  1  0
 14 15  1  0
 15 16  1  0
 16 17  1  0
 14 18  1  0
 17 18  1  0
M  END
