SAD-SAT-65574d3f-2-nitrile
     RDKit          3D

 14 14  0  0  0  0  0  0  0  0999 V2000
    6.6420   -4.6290   20.4720 C   0  0  0  0  0  0  0  0  0  0  0  0
    5.5510   -5.1260   20.0510 N   0  0  0  0  0  0  0  0  0  0  0  0
    7.0810   -4.7300   21.7790 N   0  0  0  0  0  0  0  0  0  0  0  0
    6.7800   -3.7490   22.8490 C   0  0  0  0  0  0  0  0  0  0  0  0
    7.7920   -2.6530   22.7390 C   0  0  0  0  0  0  0  0  0  0  0  0
    8.8500   -3.2990   23.3270 C   0  0  0  0  0  0  0  0  0  0  0  0
    7.8650   -4.4460   23.5350 C   0  0  0  0  0  0  0  0  0  0  0  0
    6.3430   -4.0210   22.9250 C   0  0  0  0  0  0  0  0  0  0  0  0
    5.1950   -5.3680   23.2010 S   0  0  0  0  0  0  0  0  0  0  0  0
    5.9590   -6.8070   22.7610 N   0  0  0  0  0  0  0  0  0  0  0  0
    5.0080   -5.4130   24.6360 O   0  0  0  0  0  0  0  0  0  0  0  0
    4.0920   -5.1780   22.2870 O   0  0  0  0  0  0  0  0  0  0  0  0
    6.0960   -2.5380   22.2120 C   0  0  0  0  0  0  0  0  0  0  0  0
    7.2160   -1.7000   22.1720 C   0  0  0  0  0  0  0  0  0  0  0  0
  1  2  2  3
  1  3  1  0
  3  4  1  0
  4  5  1  0
  5  6  2  0
  6  7  1  0
  7  8  2  0
  8  9  1  0
  9 10  1  0
  9 11  2  0
  9 12  2  0
  8 13  1  0
  5 14  1  0
 13 14  2  0
M  END
