SAD-SAT-29425be4-14-nitrile
     RDKit          3D

 21 22  0  0  0  0  0  0  0  0999 V2000
    6.7120   -3.6540   20.0290 C   0  0  0  0  0  0  0  0  0  0  0  0
    5.7520   -4.4940   19.9000 N   0  0  0  0  0  0  0  0  0  0  0  0
    6.7460   -2.7720   21.0920 N   0  0  0  0  0  0  0  0  0  0  0  0
    6.2080   -3.2110   22.3670 C   0  0  0  0  0  0  0  0  0  0  0  0
    7.3650   -3.3970   23.3360 C   0  0  0  0  0  0  0  0  0  0  0  0
    8.5840   -2.5660   22.9480 C   0  0  0  0  0  0  0  0  0  0  0  0
    9.4610   -2.3270   24.1940 C   0  0  0  0  0  0  0  0  0  0  0  0
    9.2880   -2.9190   25.2540 O   0  0  0  0  0  0  0  0  0  0  0  0
   10.4590   -1.3930   24.0100 N   0  0  0  0  0  0  0  0  0  0  0  0
   10.5650   -0.1630   24.7940 C   0  0  0  0  0  0  0  0  0  0  0  0
   11.5610    0.8200   24.1540 C   0  0  0  0  0  0  0  0  0  0  0  0
   12.6270    1.1070   23.2380 C   0  0  0  0  0  0  0  0  0  0  0  0
   12.5870   -0.0340   22.9300 C   0  0  0  0  0  0  0  0  0  0  0  0
   13.1790   -0.7590   22.1430 C   0  0  0  0  0  0  0  0  0  0  0  0
   12.9640   -2.0540   21.9440 C   0  0  0  0  0  0  0  0  0  0  0  0
   13.4330   -2.8430   20.8720 C   0  0  0  0  0  0  0  0  0  0  0  0
   11.4410   -2.2220   21.8140 C   0  0  0  0  0  0  0  0  0  0  0  0
   13.3660   -2.6990   23.2890 C   0  0  0  0  0  0  0  0  0  0  0  0
   11.8800   -0.8260   23.3670 S   0  0  0  0  0  0  0  0  0  0  0  0
    8.2520   -1.2700   22.1980 C   0  0  0  0  0  0  0  0  0  0  0  0
    7.4150   -1.4570   21.0850 C   0  0  0  0  0  0  0  0  0  0  0  0
  1  2  2  3
  1  3  1  0
  3  4  1  0
  4  5  1  0
  5  6  1  0
  6  7  1  0
  7  8  2  0
  7  9  1  0
  9 10  1  0
 10 11  1  0
 11 12  2  0
 12 13  1  0
 13 14  2  0
 14 15  1  0
 15 16  1  0
 15 17  1  0
 15 18  1  0
 11 19  1  0
 14 19  1  0
  6 20  1  0
  3 21  1  0
 20 21  1  0
M  END
