SAD-SAT-bc31ec01-10-acrylamide
     RDKit          3D

 28 30  0  0  0  0  0  0  0  0999 V2000
    7.6060   -3.2770   19.6580 C   0  0  0  0  0  0  0  0  0  0  0  0
    7.2990   -2.7640   20.9960 C   0  0  0  0  0  0  0  0  0  0  0  0
    5.9110   -2.7220   20.8980 C   0  0  0  0  0  0  0  0  0  0  0  0
    4.6080   -2.6430   20.8280 O   0  0  0  0  0  0  0  0  0  0  0  0
    6.3760   -1.3610   21.6540 N   0  0  0  0  0  0  0  0  0  0  0  0
    5.7920   -0.0330   21.2490 C   0  0  0  0  0  0  0  0  0  0  0  0
    6.6420    1.1560   21.4960 C   0  0  0  0  0  0  0  0  0  0  0  0
    7.2080    1.3970   22.7860 N   0  0  0  0  0  0  0  0  0  0  0  0
    8.3530    2.8590   23.2870 S   0  0  0  0  0  0  0  0  0  0  0  0
    7.9780    4.0590   22.5050 O   0  0  0  0  0  0  0  0  0  0  0  0
    8.4480    3.1610   24.7680 O   0  0  0  0  0  0  0  0  0  0  0  0
   10.0000    2.6530   22.6440 C   0  0  0  0  0  0  0  0  0  0  0  0
   11.3790    2.4800   22.1050 C   0  0  0  0  0  0  0  0  0  0  0  0
   12.5270    1.9340   22.4030 C   0  0  0  0  0  0  0  0  0  0  0  0
   12.7920    1.2230   23.5050 C   0  0  0  0  0  0  0  0  0  0  0  0
   11.6040    1.1400   24.3350 C   0  0  0  0  0  0  0  0  0  0  0  0
   10.2840    1.8960   23.8270 C   0  0  0  0  0  0  0  0  0  0  0  0
    9.3900    1.6240   25.0190 C   0  0  0  0  0  0  0  0  0  0  0  0
    8.7160    2.9130   25.5190 C   0  0  0  0  0  0  0  0  0  0  0  0
    7.9320    2.7730   26.6280 C   0  0  0  0  0  0  0  0  0  0  0  0
    7.7500    1.4510   27.2650 C   0  0  0  0  0  0  0  0  0  0  0  0
    8.4120    0.2550   26.7340 C   0  0  0  0  0  0  0  0  0  0  0  0
    8.2530   -0.8870   27.3050 F   0  0  0  0  0  0  0  0  0  0  0  0
    9.1980    0.3540   25.6230 C   0  0  0  0  0  0  0  0  0  0  0  0
    9.7950   -0.7680   25.1450 C   0  0  0  0  0  0  0  0  0  0  0  0
    9.6810   -1.3250   23.9450 N   0  0  0  0  0  0  0  0  0  0  0  0
    7.3540    0.1460   23.5190 C   0  0  0  0  0  0  0  0  0  0  0  0
    7.5500   -0.9900   22.7090 C   0  0  0  0  0  0  0  0  0  0  0  0
  1  2  1  0
  2  3  1  0
  3  4  2  0
  3  5  1  0
  5  6  1  0
  6  7  1  0
  7  8  1  0
  8  9  1  0
  9 10  2  0
  9 11  2  0
  9 12  1  0
 12 13  2  0
 13 14  1  0
 14 15  2  0
 15 16  1  0
 12 17  1  0
 16 17  2  0
 17 18  1  0
 18 19  2  0
 19 20  1  0
 20 21  2  0
 21 22  1  0
 22 23  1  0
 18 24  1  0
 22 24  2  0
 24 25  1  0
 25 26  3  0
  8 27  1  0
  5 28  1  0
 27 28  1  0
M  END
