SAD-SAT-2fd372d1-3
     RDKit          3D

 20 21  0  0  0  0  0  0  0  0999 V2000
    0.5220   -1.1590   25.8090 C   0  0  0  0  0  0  0  0  0  0  0  0
    1.4600   -2.1940   25.8030 C   0  0  0  0  0  0  0  0  0  0  0  0
    2.8120   -1.8720   25.9670 C   0  0  0  0  0  0  0  0  0  0  0  0
    3.7930   -2.8650   25.9790 C   0  0  0  0  0  0  0  0  0  0  0  0
    3.4330   -4.1990   25.8260 C   0  0  0  0  0  0  0  0  0  0  0  0
    4.6780   -5.4710   25.8590 S   0  0  0  0  0  0  0  0  0  0  0  0
    4.0200   -6.7570   25.9280 O   0  0  0  0  0  0  0  0  0  0  0  0
    5.6410   -5.0540   26.8470 O   0  0  0  0  0  0  0  0  0  0  0  0
    5.4180   -5.3650   24.3230 N   0  0  0  0  0  0  0  0  0  0  0  0
    6.3820   -4.3090   24.0610 C   0  0  0  0  0  0  0  0  0  0  0  0
    7.2980   -4.7120   23.0840 C   0  0  0  0  0  0  0  0  0  0  0  0
    6.7020   -5.5420   21.9360 C   0  0  0  0  0  0  0  0  0  0  0  0
    5.5360   -6.4630   22.2950 C   0  0  0  0  0  0  0  0  0  0  0  0
    4.5770   -5.6770   23.1870 C   0  0  0  0  0  0  0  0  0  0  0  0
    2.0910   -4.5570   25.6520 C   0  0  0  0  0  0  0  0  0  0  0  0
    1.1130   -3.5540   25.6400 C   0  0  0  0  0  0  0  0  0  0  0  0
   -0.5780   -4.0670   25.4150 S   0  0  0  0  0  0  0  0  0  0  0  0
   -1.0700   -4.5260   26.6970 O   0  0  0  0  0  0  0  0  0  0  0  0
   -0.6430   -4.9060   24.2370 O   0  0  0  0  0  0  0  0  0  0  0  0
   -1.4450   -2.7840   25.0600 F   0  0  0  0  0  0  0  0  0  0  0  0
  1  2  1  0
  2  3  2  0
  3  4  1  0
  4  5  2  0
  6  5  1  0
  6  7  2  0
  6  8  2  0
  6  9  1  0
  9 10  1  0
 10 11  1  0
 11 12  1  0
 12 13  1  0
  9 14  1  0
 13 14  1  0
  5 15  1  0
  2 16  1  0
 15 16  2  0
 16 17  1  0
 17 18  2  0
 17 19  2  0
 17 20  1  0
M  END
