SAD-SAT-bc31ec01-8-nitrile
     RDKit          3D

 20 22  0  0  0  0  0  0  0  0999 V2000
    6.9850   -3.6700   20.1620 C   0  0  0  0  0  0  0  0  0  0  0  0
    5.8150   -4.1290   19.8100 N   0  0  0  0  0  0  0  0  0  0  0  0
    7.2130   -2.6890   21.1670 N   0  0  0  0  0  0  0  0  0  0  0  0
    7.9420   -3.0130   22.4200 C   0  0  0  0  0  0  0  0  0  0  0  0
    8.0260   -1.9340   23.3140 C   0  0  0  0  0  0  0  0  0  0  0  0
    8.7760   -0.7810   22.7650 N   0  0  0  0  0  0  0  0  0  0  0  0
   10.3280   -0.3790   23.4160 S   0  0  0  0  0  0  0  0  0  0  0  0
   10.6270    0.9910   23.0450 O   0  0  0  0  0  0  0  0  0  0  0  0
   10.3540   -0.8950   24.7450 O   0  0  0  0  0  0  0  0  0  0  0  0
   11.4140   -1.4920   22.6030 C   0  0  0  0  0  0  0  0  0  0  0  0
   12.7620   -1.8000   22.9010 C   0  0  0  0  0  0  0  0  0  0  0  0
   13.2390   -2.8840   22.0370 C   0  0  2  0  0  0  0  0  0  0  0  0
   14.0310   -3.7960   22.1860 O   0  0  0  0  0  0  0  0  0  0  0  0
   14.5070   -4.4850   20.8740 C   0  0  0  0  0  0  0  0  0  0  0  0
   14.1840   -3.4860   19.9980 O   0  0  0  0  0  0  0  0  0  0  0  0
   13.1380   -2.9570   20.7610 C   0  0  1  0  0  0  0  0  0  0  0  0
   11.8920   -2.9610   20.5420 C   0  0  0  0  0  0  0  0  0  0  0  0
   10.9420   -2.2670   21.4490 C   0  0  0  0  0  0  0  0  0  0  0  0
    8.4690   -0.5320   21.3530 C   0  0  0  0  0  0  0  0  0  0  0  0
    7.2020   -1.2880   20.8680 C   0  0  0  0  0  0  0  0  0  0  0  0
  1  2  2  3
  1  3  1  0
  3  4  1  0
  4  5  1  0
  5  6  1  0
  6  7  1  0
  7  8  2  0
  7  9  2  0
  7 10  1  0
 10 11  2  0
 12 11  1  6
 12 13  1  0
 13 14  1  0
 14 15  1  0
 12 16  1  0
 15 16  1  0
 16 17  1  1
 10 18  1  0
 17 18  2  0
  6 19  1  0
  3 20  1  0
 19 20  1  0
M  END
