SAD-SAT-f0a2747f-6-chloroacetamide
     RDKit          3D

 19 21  0  0  0  0  0  0  0  0999 V2000
    8.7780   -3.8330   20.0330 C   0  0  0  0  0  0  0  0  0  0  0  0
    7.7000   -3.0090   19.2520 C   0  0  0  0  0  0  0  0  0  0  0  0
    7.2710   -3.3290   18.1440 O   0  0  0  0  0  0  0  0  0  0  0  0
    7.0770   -1.9090   19.8170 N   0  0  0  0  0  0  0  0  0  0  0  0
    7.3150   -1.8710   21.2180 C   0  0  0  0  0  0  0  0  0  0  0  0
    6.9460   -3.0350   21.8850 C   0  0  0  0  0  0  0  0  0  0  0  0
    6.5090   -3.9410   20.9520 N   0  0  0  0  0  0  0  0  0  0  0  0
    6.0510   -5.1550   21.5690 C   0  0  0  0  0  0  0  0  0  0  0  0
    5.6150   -4.7540   22.9220 C   0  0  0  0  0  0  0  0  0  0  0  0
    5.9610   -4.6430   24.0300 N   0  0  0  0  0  0  0  0  0  0  0  0
    7.3280   -5.1360   23.8960 C   0  0  0  0  0  0  0  0  0  0  0  0
    8.3050   -5.6680   22.9970 C   0  0  0  0  0  0  0  0  0  0  0  0
    9.5100   -5.9640   23.5980 C   0  0  0  0  0  0  0  0  0  0  0  0
    9.5680   -5.6570   25.0780 C   0  0  0  0  0  0  0  0  0  0  0  0
    8.3360   -5.0760   25.7620 C   0  0  0  0  0  0  0  0  0  0  0  0
    7.1410   -4.8160   25.0650 C   0  0  0  0  0  0  0  0  0  0  0  0
    6.8070   -5.0280   23.5590 N   0  0  0  0  0  0  0  0  0  0  0  0
    5.4890   -3.4010   20.1500 C   0  0  0  0  0  0  0  0  0  0  0  0
    5.6830   -2.1390   19.5780 C   0  0  0  0  0  0  0  0  0  0  0  0
  1  2  1  0
  2  3  2  0
  2  4  1  0
  4  5  1  0
  5  6  1  0
  6  7  1  0
  7  8  1  0
  8  9  1  0
  9 10  2  0
 10 11  1  0
 11 12  2  0
 12 13  1  0
 13 14  2  0
 14 15  1  0
 11 16  1  0
 15 16  2  0
  9 17  1  0
 16 17  1  0
  7 18  1  0
  4 19  1  0
 18 19  1  0
M  END
