SAD-SAT-bc31ec01-5-acrylamide
     RDKit          3D

 21 22  0  0  0  0  0  0  0  0999 V2000
    6.4290   -3.2720   19.1310 C   0  0  0  0  0  0  0  0  0  0  0  0
    6.3930   -1.8670   19.7130 C   0  0  0  0  0  0  0  0  0  0  0  0
    5.8100   -1.7960   21.1090 C   0  0  0  0  0  0  0  0  0  0  0  0
    4.7250   -2.8410   21.2920 O   0  0  0  0  0  0  0  0  0  0  0  0
    6.6570   -0.6100   21.8450 N   0  0  0  0  0  0  0  0  0  0  0  0
    6.2280    0.4110   22.8700 C   0  0  0  0  0  0  0  0  0  0  0  0
    7.3090    0.7200   23.7740 C   0  0  0  0  0  0  0  0  0  0  0  0
    8.2830    1.5410   23.1490 N   0  0  0  0  0  0  0  0  0  0  0  0
    9.7260    1.9590   24.0360 S   0  0  0  0  0  0  0  0  0  0  0  0
    9.5390    1.3750   25.3420 O   0  0  0  0  0  0  0  0  0  0  0  0
    9.9790    3.3700   23.8790 O   0  0  0  0  0  0  0  0  0  0  0  0
   11.0480    1.0990   23.2080 C   0  0  0  0  0  0  0  0  0  0  0  0
   11.7400   -0.0100   22.6680 C   0  0  0  0  0  0  0  0  0  0  0  0
   11.9620   -1.2870   22.3500 C   0  0  0  0  0  0  0  0  0  0  0  0
   13.3410   -1.6840   21.5240 Cl  0  0  0  0  0  0  0  0  0  0  0  0
   11.1140   -2.3270   22.6490 C   0  0  0  0  0  0  0  0  0  0  0  0
   10.0870   -1.4300   23.3450 C   0  0  0  0  0  0  0  0  0  0  0  0
    8.7080   -2.2630   23.9510 Cl  0  0  0  0  0  0  0  0  0  0  0  0
   10.1290    0.1160   23.5600 C   0  0  0  0  0  0  0  0  0  0  0  0
    8.4840    1.2700   21.7840 C   0  0  0  0  0  0  0  0  0  0  0  0
    7.9240   -0.1340   21.3120 C   0  0  0  0  0  0  0  0  0  0  0  0
  1  2  1  0
  2  3  1  0
  3  4  2  0
  3  5  1  0
  5  6  1  0
  6  7  1  0
  7  8  1  0
  8  9  1  0
  9 10  2  0
  9 11  2  0
  9 12  1  0
 12 13  2  0
 13 14  1  0
 14 15  1  0
 14 16  2  0
 16 17  1  0
 17 18  1  0
 12 19  1  0
 17 19  2  0
  8 20  1  0
  5 21  1  0
 20 21  1  0
M  END
