SAD-SAT-29425be4-15-acrylamide
     RDKit          3D

 25 26  0  0  0  0  0  0  0  0999 V2000
    7.5190   -2.8460   18.6850 C   0  0  0  0  0  0  0  0  0  0  0  0
    6.0520   -2.5830   18.9340 C   0  0  0  0  0  0  0  0  0  0  0  0
    5.5500   -3.3220   20.1420 C   0  0  0  0  0  0  0  0  0  0  0  0
    5.2080   -4.4980   20.0110 O   0  0  0  0  0  0  0  0  0  0  0  0
    5.5190   -2.6270   21.3470 N   0  0  0  0  0  0  0  0  0  0  0  0
    5.3030   -3.4040   22.5710 C   0  0  0  0  0  0  0  0  0  0  0  0
    6.5880   -3.5830   23.4020 C   0  0  0  0  0  0  0  0  0  0  0  0
    7.3000   -2.2520   23.6320 C   0  0  0  0  0  0  0  0  0  0  0  0
    8.5830   -2.4350   24.4430 C   0  0  0  0  0  0  0  0  0  0  0  0
    8.7010   -3.3720   25.2280 O   0  0  0  0  0  0  0  0  0  0  0  0
    9.5640   -1.4910   24.2360 N   0  0  0  0  0  0  0  0  0  0  0  0
    9.2770   -0.0830   24.4020 C   0  0  0  0  0  0  0  0  0  0  0  0
   10.4200    0.6700   24.5340 C   0  0  0  0  0  0  0  0  0  0  0  0
   11.0180    1.0220   23.3000 C   0  0  0  0  0  0  0  0  0  0  0  0
   11.4400   -0.1080   22.6650 C   0  0  0  0  0  0  0  0  0  0  0  0
   10.5890   -1.1770   22.1360 C   0  0  0  0  0  0  0  0  0  0  0  0
   11.1170   -2.3150   21.5070 C   0  0  0  0  0  0  0  0  0  0  0  0
   12.4810   -2.5200   21.3260 C   0  0  0  0  0  0  0  0  0  0  0  0
   12.9420   -3.6980   20.7130 C   0  0  0  0  0  0  0  0  0  0  0  0
   14.1530   -4.1330   20.3320 C   0  0  0  0  0  0  0  0  0  0  0  0
   12.0990   -4.3400   19.6640 C   0  0  0  0  0  0  0  0  0  0  0  0
   13.2780   -1.5170   21.8090 C   0  0  0  0  0  0  0  0  0  0  0  0
   12.7820   -0.2900   22.4920 C   0  0  0  0  0  0  0  0  0  0  0  0
    7.5590   -1.5780   22.2860 C   0  0  0  0  0  0  0  0  0  0  0  0
    6.2520   -1.3700   21.5310 C   0  0  0  0  0  0  0  0  0  0  0  0
  1  2  1  0
  2  3  1  0
  3  4  2  0
  3  5  1  0
  5  6  1  0
  6  7  1  0
  7  8  1  0
  8  9  1  0
  9 10  2  0
  9 11  1  0
 11 12  1  0
 12 13  1  0
 13 14  1  0
 14 15  1  0
 15 16  2  0
 16 17  1  0
 17 18  2  0
 18 19  1  0
 19 20  1  0
 19 21  1  0
 18 22  1  0
 15 23  1  0
 22 23  2  0
  8 24  1  0
  5 25  1  0
 24 25  1  0
M  END
