SAD-SAT-1b030f84-7-acrylamide
     RDKit          3D

 15 16  0  0  0  0  0  0  0  0999 V2000
    7.3050   -2.8400   18.2590 C   0  0  0  0  0  0  0  0  0  0  0  0
    6.4740   -2.0080   19.1930 C   0  0  0  0  0  0  0  0  0  0  0  0
    6.0230   -2.7580   20.3840 C   0  0  0  0  0  0  0  0  0  0  0  0
    5.2190   -3.7210   20.3450 O   0  0  0  0  0  0  0  0  0  0  0  0
    6.5980   -2.2530   21.5060 N   0  0  0  0  0  0  0  0  0  0  0  0
    7.8080   -1.4050   21.5140 C   0  0  0  0  0  0  0  0  0  0  0  0
    8.7050   -1.3490   23.0540 S   0  0  0  0  0  0  0  0  0  0  0  0
   10.0950   -1.0600   22.7650 O   0  0  0  0  0  0  0  0  0  0  0  0
    7.9330   -0.5260   23.9410 O   0  0  0  0  0  0  0  0  0  0  0  0
    8.6010   -3.0460   23.5410 C   0  0  0  0  0  0  0  0  0  0  0  0
    7.2030   -3.6880   23.5530 C   0  0  1  0  0  0  0  0  0  0  0  0
    6.5210   -3.8290   24.9250 C   0  0  0  0  0  0  0  0  0  0  0  0
    4.7390   -3.4570   24.7880 S   0  0  0  0  0  0  0  0  0  0  0  0
    5.0090   -2.6890   23.2820 C   0  0  0  0  0  0  0  0  0  0  0  0
    6.2690   -2.8620   22.7530 C   0  0  0  0  0  0  0  0  0  0  0  0
  1  2  1  0
  2  3  1  0
  3  4  2  0
  3  5  1  0
  5  6  1  0
  7  6  1  0
  7  8  2  0
  7  9  2  0
  7 10  1  0
 11 10  1  1
 11 12  1  0
 12 13  1  0
 13 14  1  0
  5 15  1  0
 11 15  1  0
 14 15  2  0
M  END
