SAD-SAT-29425be4-25-acrylamide
     RDKit          3D

 31 33  0  0  0  0  0  0  0  0999 V2000
    7.9770   -3.3310   19.9190 C   0  0  0  0  0  0  0  0  0  0  0  0
    6.8920   -2.5780   19.2040 C   0  0  0  0  0  0  0  0  0  0  0  0
    5.8430   -3.0670   20.0860 C   0  0  0  0  0  0  0  0  0  0  0  0
    5.0300   -3.9090   19.7150 O   0  0  0  0  0  0  0  0  0  0  0  0
    5.9410   -2.5750   21.3630 N   0  0  0  0  0  0  0  0  0  0  0  0
    6.5500   -1.2520   21.6760 C   0  0  0  0  0  0  0  0  0  0  0  0
    8.0730   -1.4330   21.9820 C   0  0  0  0  0  0  0  0  0  0  0  0
    8.0410   -2.6770   22.8930 C   0  0  0  0  0  0  0  0  0  0  0  0
    9.1350   -2.4390   24.0260 C   0  0  0  0  0  0  0  0  0  0  0  0
    9.0960   -3.2430   24.9520 O   0  0  0  0  0  0  0  0  0  0  0  0
   10.1670   -1.3680   24.0540 N   0  0  0  0  0  0  0  0  0  0  0  0
    9.6450    0.0180   24.1110 C   0  0  1  0  0  0  0  0  0  0  0  0
    8.8600    0.3540   25.4080 C   0  0  0  0  0  0  0  0  0  0  0  0
    7.5100    1.0640   25.3300 C   0  0  0  0  0  0  0  0  0  0  0  0
    6.7880    1.3730   26.6370 C   0  0  0  0  0  0  0  0  0  0  0  0
    7.4250    0.9700   27.9660 C   0  0  0  0  0  0  0  0  0  0  0  0
    6.6000    1.3280   29.4330 Cl  0  0  0  0  0  0  0  0  0  0  0  0
    8.7780    0.2560   28.0320 C   0  0  0  0  0  0  0  0  0  0  0  0
    9.5080   -0.0590   26.7200 C   0  0  0  0  0  0  0  0  0  0  0  0
   10.8310    1.0530   23.8940 C   0  0  0  0  0  0  0  0  0  0  0  0
   12.1680    1.4320   23.4070 C   0  0  0  0  0  0  0  0  0  0  0  0
   12.5560    0.2240   22.8660 C   0  0  0  0  0  0  0  0  0  0  0  0
   13.6750   -0.2150   22.2270 C   0  0  0  0  0  0  0  0  0  0  0  0
   12.3820   -0.8690   22.6140 C   0  0  0  0  0  0  0  0  0  0  0  0
   12.2860   -2.2610   22.2700 C   0  0  0  0  0  0  0  0  0  0  0  0
   12.8100   -2.8220   23.5860 C   0  0  0  0  0  0  0  0  0  0  0  0
   13.0640   -2.7770   21.0580 C   0  0  0  0  0  0  0  0  0  0  0  0
   10.7950   -2.4140   21.9510 C   0  0  0  0  0  0  0  0  0  0  0  0
   11.2230   -0.2560   23.3210 C   0  0  0  0  0  0  0  0  0  0  0  0
    6.7050   -2.9500   23.5800 C   0  0  0  0  0  0  0  0  0  0  0  0
    5.6830   -3.3640   22.5490 C   0  0  0  0  0  0  0  0  0  0  0  0
  1  2  1  0
  2  3  1  0
  3  4  2  0
  3  5  1  0
  5  6  1  0
  6  7  1  0
  7  8  1  0
  8  9  1  0
  9 10  2  0
  9 11  1  0
 12 11  1  1
 12 13  1  0
 13 14  2  0
 14 15  1  0
 15 16  2  0
 16 17  1  0
 16 18  1  0
 13 19  1  0
 18 19  2  0
 12 20  1  0
 20 21  2  0
 21 22  1  0
 22 23  2  0
 23 24  1  0
 24 25  1  0
 25 26  1  0
 25 27  1  0
 25 28  1  0
 20 29  1  0
 24 29  2  0
  8 30  1  0
  5 31  1  0
 30 31  1  0
M  END
