SAD-SAT-1b030f84-4-vinylsulfonamide
     RDKit          3D

 20 21  0  0  0  0  0  0  0  0999 V2000
    6.4130   -5.2150   20.7070 C   0  0  0  0  0  0  0  0  0  0  0  0
    6.0230   -6.1160   21.9980 C   0  0  0  0  0  0  0  0  0  0  0  0
    5.0440   -5.4110   23.3200 S   0  0  0  0  0  0  0  0  0  0  0  0
    4.0440   -4.5390   22.6550 O   0  0  0  0  0  0  0  0  0  0  0  0
    4.7000   -6.4880   24.2350 O   0  0  0  0  0  0  0  0  0  0  0  0
    6.1010   -4.6230   24.3160 N   0  0  0  0  0  0  0  0  0  0  0  0
    7.3800   -5.1320   24.0840 C   0  0  0  0  0  0  0  0  0  0  0  0
    7.7060   -4.6050   22.7270 C   0  0  0  0  0  0  0  0  0  0  0  0
    6.8180   -3.7630   22.1270 N   0  0  0  0  0  0  0  0  0  0  0  0
    7.1850   -3.1250   21.0190 C   0  0  0  0  0  0  0  0  0  0  0  0
    6.3370   -3.0950   19.9320 O   0  0  0  0  0  0  0  0  0  0  0  0
    8.4020   -2.4490   20.9290 C   0  0  0  0  0  0  0  0  0  0  0  0
    8.9530   -2.0050   22.1660 C   0  0  2  0  0  0  0  0  0  0  0  0
    9.1930   -0.6600   22.3690 C   0  0  0  0  0  0  0  0  0  0  0  0
   10.4880   -0.2110   22.2800 C   0  0  0  0  0  0  0  0  0  0  0  0
   11.4820   -1.5480   21.8820 S   0  0  0  0  0  0  0  0  0  0  0  0
   12.4660   -1.4020   23.2730 C   0  0  0  0  0  0  0  0  0  0  0  0
   10.2050   -2.5990   22.3120 N   0  0  0  0  0  0  0  0  0  0  0  0
    6.2810   -2.8400   22.9900 C   0  0  0  0  0  0  0  0  0  0  0  0
    5.9430   -3.2840   24.2530 C   0  0  0  0  0  0  0  0  0  0  0  0
  1  2  1  0
  3  2  1  0
  3  4  2  0
  3  5  2  0
  3  6  1  0
  6  7  1  0
  7  8  1  0
  8  9  1  0
  9 10  1  0
 10 11  2  0
 10 12  1  0
 13 12  1  6
 13 14  1  0
 14 15  2  0
 15 16  1  0
 16 17  1  1
 13 18  1  0
 16 18  2  0
  9 19  1  0
  6 20  1  0
 19 20  1  0
M  END
