SAD-SAT-edc8a235-5
     RDKit          3D

  9  9  0  0  0  0  0  0  0  0999 V2000
    6.7200   -0.4650   21.8170 N   0  0  0  0  0  0  0  0  0  0  0  0
    6.8990   -1.4690   21.2570 C   0  0  0  0  0  0  0  0  0  0  0  0
    7.1370   -2.7430   20.5180 C   0  0  0  0  0  0  0  0  0  0  0  0
    6.0610   -3.8100   20.5190 C   0  0  0  0  0  0  0  0  0  0  0  0
    5.2980   -3.9500   19.5660 O   0  0  0  0  0  0  0  0  0  0  0  0
    6.0080   -4.6180   21.6360 N   0  0  0  0  0  0  0  0  0  0  0  0
    6.9890   -4.5280   22.6480 C   0  0  0  0  0  0  0  0  0  0  0  0
    6.7010   -4.3560   23.9420 C   0  0  0  0  0  0  0  0  0  0  0  0
    6.9870   -5.6610   23.8440 C   0  0  0  0  0  0  0  0  0  0  0  0
  1  2  3  0
  2  3  1  0
  3  4  1  0
  4  5  2  0
  4  6  1  0
  6  7  1  0
  7  8  1  0
  7  9  1  0
  8  9  1  0
M  END
