SAD-SAT-2ceae68f-7-nitrile
     RDKit          3D

 22 24  0  0  0  0  0  0  0  0999 V2000
    6.9770   -3.7350   20.1350 C   0  0  0  0  0  0  0  0  0  0  0  0
    5.8260   -4.2310   19.8290 N   0  0  0  0  0  0  0  0  0  0  0  0
    7.1870   -2.6380   20.9580 N   0  0  0  0  0  0  0  0  0  0  0  0
    7.1840   -1.2890   20.3300 C   0  0  0  0  0  0  0  0  0  0  0  0
    6.9840   -0.2670   21.4960 C   0  0  0  0  0  0  0  0  0  0  0  0
    8.4320   -0.1580   22.0650 C   0  0  0  0  0  0  0  0  0  0  0  0
    8.5500   -0.8230   23.2680 N   0  0  0  0  0  0  0  0  0  0  0  0
   10.0010   -0.5910   24.1740 S   0  0  0  0  0  0  0  0  0  0  0  0
    9.6450   -0.6250   25.5870 O   0  0  0  0  0  0  0  0  0  0  0  0
   10.9700   -1.5270   23.5990 O   0  0  0  0  0  0  0  0  0  0  0  0
   10.5690    1.0970   23.8220 C   0  0  0  0  0  0  0  0  0  0  0  0
    9.1690    1.2470   24.3950 C   0  0  0  0  0  0  0  0  0  0  0  0
    8.7820   -0.2110   24.7010 C   0  0  0  0  0  0  0  0  0  0  0  0
    9.8730   -1.3190   24.3440 C   0  0  0  0  0  0  0  0  0  0  0  0
   11.1260   -0.7220   23.7570 C   0  0  0  0  0  0  0  0  0  0  0  0
   10.4670    0.7150   23.9090 C   0  0  0  0  0  0  0  0  0  0  0  0
   11.0730    2.0560   23.5310 N   0  0  0  0  0  0  0  0  0  0  0  0
   12.3550    2.1080   22.9840 C   0  0  0  0  0  0  0  0  0  0  0  0
   12.7330    0.8200   22.9400 C   0  0  0  0  0  0  0  0  0  0  0  0
   11.6780    0.3450   23.4260 C   0  0  0  0  0  0  0  0  0  0  0  0
    7.9690   -2.0830   23.2240 C   0  0  0  0  0  0  0  0  0  0  0  0
    8.1600   -2.8700   22.0730 C   0  0  0  0  0  0  0  0  0  0  0  0
  1  2  2  3
  1  3  1  0
  3  4  1  0
  4  5  1  0
  5  6  1  0
  6  7  1  0
  7  8  1  0
  8  9  2  0
  8 10  2  0
  8 11  1  0
 11 12  2  0
 12 13  1  0
 13 14  2  0
 14 15  1  0
 15 16  1  0
 16 17  2  0
 17 18  1  0
 18 19  2  0
 11 20  1  0
 15 20  2  0
 19 20  1  0
  7 21  1  0
  3 22  1  0
 21 22  1  0
M  END
