SAD-SAT-bc31ec01-1-nitrile
     RDKit          3D

 15 16  0  0  0  0  0  0  0  0999 V2000
    7.1320   -3.4040   19.8810 C   0  0  0  0  0  0  0  0  0  0  0  0
    5.9380   -3.8580   19.6040 N   0  0  0  0  0  0  0  0  0  0  0  0
    7.4240   -2.2720   20.6810 N   0  0  0  0  0  0  0  0  0  0  0  0
    8.4960   -2.3470   21.7150 C   0  0  0  0  0  0  0  0  0  0  0  0
    8.6610   -1.1550   22.4100 C   0  0  0  0  0  0  0  0  0  0  0  0
    8.8650    0.0070   21.5320 N   0  0  0  0  0  0  0  0  0  0  0  0
    9.5890    1.1100   22.2390 C   0  0  0  0  0  0  0  0  0  0  0  0
    9.5860    0.7780   23.5490 C   0  0  0  0  0  0  0  0  0  0  0  0
    8.5240    1.1250   24.4410 C   0  0  0  0  0  0  0  0  0  0  0  0
    9.3200    0.2970   25.7090 S   0  0  0  0  0  0  0  0  0  0  0  0
   10.8320   -0.4280   25.3040 C   0  0  0  0  0  0  0  0  0  0  0  0
   10.7690   -0.0100   24.0140 C   0  0  0  0  0  0  0  0  0  0  0  0
   12.0720   -0.4360   23.0080 Cl  0  0  0  0  0  0  0  0  0  0  0  0
    7.6420    0.2480   20.9370 C   0  0  0  0  0  0  0  0  0  0  0  0
    7.1980   -0.9670   20.1090 C   0  0  0  0  0  0  0  0  0  0  0  0
  1  2  2  3
  1  3  1  0
  3  4  1  0
  4  5  1  0
  5  6  1  0
  6  7  1  0
  7  8  1  0
  8  9  2  0
  9 10  1  0
 10 11  1  0
  8 12  1  0
 11 12  2  0
 12 13  1  0
  6 14  1  0
  3 15  1  0
 14 15  1  0
M  END
