SAD-SAT-29425be4-2-vinylsulfonamide
     RDKit          3D

 29 30  0  0  0  0  0  0  0  0999 V2000
    8.6020   -5.2210   20.5380 C   0  0  0  0  0  0  0  0  0  0  0  0
    7.1690   -5.7370   20.6120 C   0  0  0  0  0  0  0  0  0  0  0  0
    6.1330   -4.3520   20.9390 S   0  0  0  0  0  0  0  0  0  0  0  0
    5.0150   -4.7690   21.7580 O   0  0  0  0  0  0  0  0  0  0  0  0
    5.8190   -3.7680   19.6560 O   0  0  0  0  0  0  0  0  0  0  0  0
    7.2270   -3.4090   21.8650 N   0  0  0  0  0  0  0  0  0  0  0  0
    7.4350   -3.7010   23.3100 C   0  0  0  0  0  0  0  0  0  0  0  0
    8.9110   -3.8280   23.6370 C   0  0  0  0  0  0  0  0  0  0  0  0
    9.6870   -2.5640   23.2440 C   0  0  0  0  0  0  0  0  0  0  0  0
    9.5410   -1.3640   24.2320 C   0  0  0  0  0  0  0  0  0  0  0  0
   10.5860   -1.9230   24.5780 O   0  0  0  0  0  0  0  0  0  0  0  0
    8.3470   -0.9970   23.5770 N   0  0  0  0  0  0  0  0  0  0  0  0
    8.5850   -0.0770   22.4480 C   0  0  0  0  0  0  0  0  0  0  0  0
    7.1950   -0.6710   24.4410 C   0  0  1  0  0  0  0  0  0  0  0  0
    6.0320   -0.8680   23.7240 C   0  0  0  0  0  0  0  0  0  0  0  0
    5.9090    0.1450   22.6500 N   0  0  0  0  0  0  0  0  0  0  0  0
    5.6390   -0.1960   21.3130 C   0  0  0  0  0  0  0  0  0  0  0  0
    4.8000   -1.2350   21.1390 O   0  0  0  0  0  0  0  0  0  0  0  0
    6.2710    0.5470   20.3920 O   0  0  0  0  0  0  0  0  0  0  0  0
    6.1510    0.0690   19.0370 C   0  0  0  0  0  0  0  0  0  0  0  0
    7.2570   -0.8470   18.7940 C   0  0  0  0  0  0  0  0  0  0  0  0
    4.8560   -0.6660   18.8330 C   0  0  0  0  0  0  0  0  0  0  0  0
    6.1210    1.1710   17.9960 C   0  0  0  0  0  0  0  0  0  0  0  0
    7.3070   -1.3400   25.6600 C   0  0  0  0  0  0  0  0  0  0  0  0
    6.3180   -0.7600   26.4480 C   0  0  0  0  0  0  0  0  0  0  0  0
    6.3070    0.6120   26.0530 O   0  0  0  0  0  0  0  0  0  0  0  0
    7.2580    0.6280   24.9700 C   0  0  0  0  0  0  0  0  0  0  0  0
    9.5040   -2.2590   21.7550 C   0  0  0  0  0  0  0  0  0  0  0  0
    8.0660   -2.3770   21.2210 C   0  0  0  0  0  0  0  0  0  0  0  0
  1  2  1  0
  3  2  1  0
  3  4  2  0
  3  5  2  0
  3  6  1  0
  6  7  1  0
  7  8  1  0
  8  9  1  0
  9 10  1  0
 10 11  2  0
 10 12  1  0
 12 13  1  0
 14 12  1  0
 14 15  1  6
 15 16  1  0
 16 17  1  0
 17 18  2  0
 17 19  1  0
 20 19  1  0
 20 21  1  0
 20 22  1  0
 20 23  1  0
 14 24  1  0
 24 25  1  0
 25 26  1  0
 14 27  1  0
 26 27  1  0
  9 28  1  0
  6 29  1  0
 28 29  1  0
M  END
