SAD-SAT-29425be4-21-acrylamide
     RDKit          3D

 27 27  0  0  0  0  0  0  0  0999 V2000
    7.9240   -3.2570   19.2220 C   0  0  0  0  0  0  0  0  0  0  0  0
    6.7510   -2.3070   19.0210 C   0  0  0  0  0  0  0  0  0  0  0  0
    5.7380   -2.6080   20.0650 C   0  0  0  0  0  0  0  0  0  0  0  0
    4.7330   -3.2150   19.7730 O   0  0  0  0  0  0  0  0  0  0  0  0
    6.0200   -2.2350   21.3480 N   0  0  0  0  0  0  0  0  0  0  0  0
    6.9130   -1.1010   21.6370 C   0  0  0  0  0  0  0  0  0  0  0  0
    8.2720   -1.7670   21.9190 C   0  0  0  0  0  0  0  0  0  0  0  0
    7.9150   -2.1910   23.3540 C   0  0  0  0  0  0  0  0  0  0  0  0
    9.3210   -2.6480   23.8980 C   0  0  0  0  0  0  0  0  0  0  0  0
    9.4070   -3.7980   24.3200 O   0  0  0  0  0  0  0  0  0  0  0  0
   10.5290   -1.7980   23.9170 N   0  0  0  0  0  0  0  0  0  0  0  0
   10.4760   -0.6020   24.7830 C   0  0  0  0  0  0  0  0  0  0  0  0
   11.8610   -2.3790   23.8120 C   0  0  0  0  0  0  0  0  0  0  0  0
   12.9470   -1.3320   23.6970 C   0  0  0  0  0  0  0  0  0  0  0  0
   12.7650   -0.6590   22.3590 C   0  0  0  0  0  0  0  0  0  0  0  0
   13.5370    0.6330   22.3980 C   0  0  0  0  0  0  0  0  0  0  0  0
   12.8400    1.8140   22.2840 N   0  0  0  0  0  0  0  0  0  0  0  0
   11.7210    2.0090   23.0610 C   0  0  0  0  0  0  0  0  0  0  0  0
   13.6380    2.9000   22.1530 C   0  0  0  0  0  0  0  0  0  0  0  0
   13.2830    4.0910   22.7140 O   0  0  0  0  0  0  0  0  0  0  0  0
   14.8160    2.6430   21.4190 O   0  0  0  0  0  0  0  0  0  0  0  0
   15.2310    3.7630   20.6230 C   0  0  0  0  0  0  0  0  0  0  0  0
   14.3310    4.8810   21.1090 C   0  0  0  0  0  0  0  0  0  0  0  0
   16.6830    4.0850   20.3800 C   0  0  0  0  0  0  0  0  0  0  0  0
   15.3850    3.6280   19.2450 C   0  0  0  0  0  0  0  0  0  0  0  0
    6.9230   -3.3600   23.3720 C   0  0  0  0  0  0  0  0  0  0  0  0
    5.6760   -3.0720   22.5550 C   0  0  0  0  0  0  0  0  0  0  0  0
  1  2  1  0
  2  3  1  0
  3  4  2  0
  3  5  1  0
  5  6  1  0
  6  7  1  0
  7  8  1  0
  8  9  1  0
  9 10  2  0
  9 11  1  0
 11 12  1  0
 11 13  1  0
 13 14  1  0
 14 15  1  0
 15 16  1  0
 16 17  1  0
 17 18  1  0
 17 19  1  0
 19 20  2  0
 19 21  1  0
 22 21  1  0
 22 23  1  0
 22 24  1  0
 22 25  1  0
  8 26  1  0
  5 27  1  0
 26 27  1  0
M  END
