SAD-SAT-29425be4-10-acrylamide
     RDKit          3D

 34 36  0  0  0  0  0  0  0  0999 V2000
    8.0150   -3.4560   19.9110 C   0  0  0  0  0  0  0  0  0  0  0  0
    6.9630   -2.5290   19.4090 C   0  0  0  0  0  0  0  0  0  0  0  0
    5.7740   -2.8930   20.2190 C   0  0  0  0  0  0  0  0  0  0  0  0
    5.0740   -3.8330   19.8370 O   0  0  0  0  0  0  0  0  0  0  0  0
    5.5870   -2.1520   21.3980 N   0  0  0  0  0  0  0  0  0  0  0  0
    6.1930   -0.8130   21.4040 C   0  0  0  0  0  0  0  0  0  0  0  0
    7.6670   -0.8160   21.8940 C   0  0  0  0  0  0  0  0  0  0  0  0
    7.8060   -1.4510   23.2830 C   0  0  0  0  0  0  0  0  0  0  0  0
    9.2720   -1.6580   23.7450 C   0  0  0  0  0  0  0  0  0  0  0  0
    9.6320   -2.7900   24.0230 O   0  0  0  0  0  0  0  0  0  0  0  0
   10.1390   -0.5690   23.8570 N   0  0  0  0  0  0  0  0  0  0  0  0
   11.5220   -0.7410   24.3590 C   0  0  0  0  0  0  0  0  0  0  0  0
   12.4780   -0.1240   23.5440 C   0  0  0  0  0  0  0  0  0  0  0  0
   12.0950   -1.4640   22.9050 C   0  0  0  0  0  0  0  0  0  0  0  0
   12.5460   -2.1050   21.6380 C   0  0  0  0  0  0  0  0  0  0  0  0
   13.4960   -1.6630   20.5630 C   0  0  0  0  0  0  0  0  0  0  0  0
   14.4890   -0.8830   19.7180 N   0  0  0  0  0  0  0  0  0  0  0  0
   15.4260   -1.6550   18.8530 C   0  0  0  0  0  0  0  0  0  0  0  0
   15.4690   -2.8540   18.8530 O   0  0  0  0  0  0  0  0  0  0  0  0
   16.5070   -1.4290   18.1060 C   0  0  0  0  0  0  0  0  0  0  0  0
   17.6860   -2.2410   17.9130 C   0  0  0  0  0  0  0  0  0  0  0  0
   18.8530   -1.8780   18.7000 C   0  0  0  0  0  0  0  0  0  0  0  0
   20.1480   -1.6140   18.0080 O   0  0  0  0  0  0  0  0  0  0  0  0
   21.3570   -1.3400   18.7100 C   0  0  0  0  0  0  0  0  0  0  0  0
   22.4140   -0.6810   18.0330 C   0  0  0  0  0  0  0  0  0  0  0  0
   23.7500   -0.3720   18.7010 C   0  0  0  0  0  0  0  0  0  0  0  0
   23.9880   -0.7710   20.1340 C   0  0  0  0  0  0  0  0  0  0  0  0
   22.8230   -1.4640   20.7990 C   0  0  0  0  0  0  0  0  0  0  0  0
   21.5270   -1.7210   20.0390 C   0  0  0  0  0  0  0  0  0  0  0  0
   20.4110   -2.4060   20.7250 C   0  0  0  0  0  0  0  0  0  0  0  0
   13.1450   -1.0730   21.6760 C   0  0  0  0  0  0  0  0  0  0  0  0
   13.3140    0.0540   22.4940 C   0  0  0  0  0  0  0  0  0  0  0  0
    7.0850   -2.8170   23.2820 C   0  0  0  0  0  0  0  0  0  0  0  0
    5.6490   -2.7620   22.7330 C   0  0  0  0  0  0  0  0  0  0  0  0
  1  2  1  0
  2  3  1  0
  3  4  2  0
  3  5  1  0
  5  6  1  0
  6  7  1  0
  7  8  1  0
  8  9  1  0
  9 10  2  0
  9 11  1  0
 11 12  1  0
 12 13  1  0
 13 14  2  0
 14 15  1  0
 15 16  2  0
 16 17  1  0
 17 18  1  0
 18 19  2  0
 18 20  1  0
 20 21  1  0
 21 22  1  0
 22 23  1  0
 23 24  1  0
 24 25  2  0
 25 26  1  0
 26 27  2  0
 27 28  1  0
 24 29  1  0
 28 29  2  0
 29 30  1  0
 16 31  1  0
 13 32  1  0
 31 32  2  0
  8 33  1  0
  5 34  1  0
 33 34  1  0
M  END
