SAD-SAT-2ceae68f-10-nitrile
     RDKit          3D

 19 20  0  0  0  0  0  0  0  0999 V2000
    6.9090   -3.4630   19.6080 C   0  0  0  0  0  0  0  0  0  0  0  0
    5.6810   -3.3300   19.2680 N   0  0  0  0  0  0  0  0  0  0  0  0
    7.7400   -2.3950   19.9680 N   0  0  0  0  0  0  0  0  0  0  0  0
    7.9970   -1.9710   21.2480 C   0  0  0  0  0  0  0  0  0  0  0  0
    7.4020   -0.5970   21.7340 C   0  0  0  0  0  0  0  0  0  0  0  0
    8.3530    0.6460   21.6900 C   0  0  0  0  0  0  0  0  0  0  0  0
    8.1770    1.5690   20.6030 O   0  0  0  0  0  0  0  0  0  0  0  0
    9.3050    0.9320   22.6140 N   0  0  0  0  0  0  0  0  0  0  0  0
    9.8020    2.3220   22.7200 C   0  0  0  0  0  0  0  0  0  0  0  0
   10.9560    2.3420   23.4780 C   0  0  0  0  0  0  0  0  0  0  0  0
   10.7410    1.6710   24.4810 O   0  0  0  0  0  0  0  0  0  0  0  0
   10.5360    0.3460   24.3190 C   0  0  2  0  0  0  0  0  0  0  0  0
   11.4090   -0.2400   23.5200 C   0  0  0  0  0  0  0  0  0  0  0  0
   12.5710    0.3590   23.2330 C   0  0  0  0  0  0  0  0  0  0  0  0
   13.2680   -0.3410   22.3940 C   0  0  0  0  0  0  0  0  0  0  0  0
   12.6290   -1.4990   22.0440 C   0  0  0  0  0  0  0  0  0  0  0  0
   13.3940   -2.5230   20.9300 Cl  0  0  0  0  0  0  0  0  0  0  0  0
   11.1410   -1.7460   22.7640 S   0  0  0  0  0  0  0  0  0  0  0  0
    9.2570    0.2130   23.8200 C   0  0  0  0  0  0  0  0  0  0  0  0
  1  2  2  3
  1  3  1  0
  3  4  1  0
  4  5  1  0
  5  6  1  0
  6  7  2  0
  6  8  1  0
  8  9  1  0
  9 10  1  0
 10 11  1  0
 11 12  1  0
 12 13  1  6
 13 14  2  0
 14 15  1  0
 15 16  2  0
 16 17  1  0
 13 18  1  0
 16 18  1  0
  8 19  1  0
 12 19  1  0
M  END
