SAD-SAT-29425be4-17-chloroacetamide
     RDKit          3D

 44 48  0  0  0  0  0  0  0  0999 V2000
    7.0640   -3.1210   19.1720 C   0  0  0  0  0  0  0  0  0  0  0  0
    5.9850   -3.6080   20.1600 C   0  0  0  0  0  0  0  0  0  0  0  0
    5.2640   -4.5640   19.8990 O   0  0  0  0  0  0  0  0  0  0  0  0
    5.8200   -2.9320   21.3760 N   0  0  0  0  0  0  0  0  0  0  0  0
    6.1760   -1.5030   21.4410 C   0  0  0  0  0  0  0  0  0  0  0  0
    6.2880   -1.1630   22.9470 C   0  0  0  0  0  0  0  0  0  0  0  0
    7.4070   -2.1220   23.3610 C   0  0  0  0  0  0  0  0  0  0  0  0
    7.7310   -1.3990   24.6870 C   0  0  0  0  0  0  0  0  0  0  0  0
    7.0030   -1.5840   25.6720 O   0  0  0  0  0  0  0  0  0  0  0  0
    8.9160   -0.5190   24.6900 N   0  0  0  0  0  0  0  0  0  0  0  0
    8.5910    0.8870   24.9120 C   0  0  0  0  0  0  0  0  0  0  0  0
    8.7950    1.8540   23.6570 C   0  0  0  0  0  0  0  0  0  0  0  0
    8.2670    3.1570   24.4050 C   0  0  0  0  0  0  0  0  0  0  0  0
    8.2290    4.3330   23.7270 O   0  0  0  0  0  0  0  0  0  0  0  0
    9.1630    4.5010   22.6820 C   0  0  0  0  0  0  0  0  0  0  0  0
    7.7930    3.4490   25.6700 C   0  0  0  0  0  0  0  0  0  0  0  0
    7.3920    4.7160   26.0440 O   0  0  0  0  0  0  0  0  0  0  0  0
    6.0340    4.6890   26.4720 C   0  0  0  0  0  0  0  0  0  0  0  0
    7.6830    2.4270   26.7240 C   0  0  0  0  0  0  0  0  0  0  0  0
    7.2190    2.7570   27.9550 O   0  0  0  0  0  0  0  0  0  0  0  0
    7.6930    2.0660   29.1360 C   0  0  0  0  0  0  0  0  0  0  0  0
    8.1270    1.0990   26.2310 C   0  0  0  0  0  0  0  0  0  0  0  0
   10.1940   -1.0570   24.2090 C   0  0  0  0  0  0  0  0  0  0  0  0
   11.4420   -1.0710   25.0590 C   0  0  0  0  0  0  0  0  0  0  0  0
   12.8460   -1.7200   24.7080 C   0  0  0  0  0  0  0  0  0  0  0  0
   12.4260   -2.2470   23.2850 C   0  0  0  0  0  0  0  0  0  0  0  0
   13.5720   -3.0260   22.6220 C   0  0  0  0  0  0  0  0  0  0  0  0
   13.4190   -3.6860   21.1700 C   0  0  0  0  0  0  0  0  0  0  0  0
   14.7030   -4.7710   20.3310 S   0  0  0  0  0  0  0  0  0  0  0  0
   15.6720   -5.1090   21.2620 O   0  0  0  0  0  0  0  0  0  0  0  0
   14.0500   -6.0030   20.2970 O   0  0  0  0  0  0  0  0  0  0  0  0
   15.3510   -4.5590   18.6650 N   0  0  0  0  0  0  0  0  0  0  0  0
   15.6150   -5.7270   18.1000 C   0  0  0  0  0  0  0  0  0  0  0  0
   15.2930   -5.9590   16.7980 C   0  0  0  0  0  0  0  0  0  0  0  0
   14.8830   -4.8870   16.2540 C   0  0  0  0  0  0  0  0  0  0  0  0
   15.9080   -3.9660   16.3810 C   0  0  0  0  0  0  0  0  0  0  0  0
   16.0680   -3.4580   17.8050 C   0  0  2  0  0  0  0  0  0  0  0  0
   17.4710   -2.9020   17.8980 C   0  0  0  0  0  0  0  0  0  0  0  0
   12.2220   -3.4810   20.5540 C   0  0  0  0  0  0  0  0  0  0  0  0
   11.1110   -2.7080   21.2680 C   0  0  0  0  0  0  0  0  0  0  0  0
   11.2470   -2.1370   22.5900 C   0  0  0  0  0  0  0  0  0  0  0  0
   10.1630   -1.5880   22.9590 N   0  0  0  0  0  0  0  0  0  0  0  0
    6.7920   -3.5090   23.5640 C   0  0  0  0  0  0  0  0  0  0  0  0
    5.6150   -3.7020   22.6090 C   0  0  0  0  0  0  0  0  0  0  0  0
  1  2  1  0
  2  3  2  0
  2  4  1  0
  4  5  1  0
  5  6  1  0
  6  7  1  0
  7  8  1  0
  8  9  2  0
  8 10  1  0
 10 11  1  0
 11 12  2  0
 12 13  1  0
 13 14  1  0
 14 15  1  0
 13 16  2  0
 16 17  1  0
 17 18  1  0
 16 19  1  0
 19 20  1  0
 20 21  1  0
 11 22  1  0
 19 22  2  0
 10 23  1  0
 23 24  2  0
 24 25  1  0
 25 26  2  0
 26 27  1  0
 27 28  2  0
 29 28  1  0
 29 30  2  0
 29 31  2  0
 29 32  1  0
 32 33  1  0
 33 34  1  0
 34 35  1  0
 35 36  1  0
 32 37  1  0
 36 37  1  0
 37 38  1  1
 28 39  1  0
 39 40  2  0
 26 41  1  0
 40 41  1  0
 23 42  1  0
 41 42  2  0
  7 43  1  0
  4 44  1  0
 43 44  1  0
M  END
