SAD-SAT-2fd372d1-8
     RDKit          3D

 19 20  0  0  0  0  0  0  0  0999 V2000
    5.4770   -4.3780   19.9300 O   0  0  0  0  0  0  0  0  0  0  0  0
    6.3520   -4.1510   20.7760 C   0  0  0  0  0  0  0  0  0  0  0  0
    7.1620   -3.0300   20.7850 N   0  0  0  0  0  0  0  0  0  0  0  0
    6.9040   -1.7930   20.1370 C   0  0  0  0  0  0  0  0  0  0  0  0
    7.3670   -0.5650   20.6170 C   0  0  0  0  0  0  0  0  0  0  0  0
    7.0800    0.6280   19.9400 C   0  0  0  0  0  0  0  0  0  0  0  0
    6.3230    0.6010   18.7710 C   0  0  0  0  0  0  0  0  0  0  0  0
    5.8550   -0.6110   18.2830 C   0  0  0  0  0  0  0  0  0  0  0  0
    6.1410   -1.8020   18.9590 C   0  0  0  0  0  0  0  0  0  0  0  0
    6.6210   -5.0420   21.8300 N   0  0  0  0  0  0  0  0  0  0  0  0
    7.3320   -4.6270   23.0520 C   0  0  0  0  0  0  0  0  0  0  0  0
    6.3570   -4.3220   24.1820 C   0  0  0  0  0  0  0  0  0  0  0  0
    5.5620   -5.5490   24.4440 N   0  0  0  0  0  0  0  0  0  0  0  0
    4.7970   -5.6070   25.9560 S   0  0  0  0  0  0  0  0  0  0  0  0
    5.1340   -4.4120   26.6890 O   0  0  0  0  0  0  0  0  0  0  0  0
    3.4510   -6.0930   25.7870 O   0  0  0  0  0  0  0  0  0  0  0  0
    5.5290   -6.7520   26.7570 F   0  0  0  0  0  0  0  0  0  0  0  0
    4.7430   -5.9220   23.2490 C   0  0  0  0  0  0  0  0  0  0  0  0
    5.6740   -6.1480   22.0480 C   0  0  0  0  0  0  0  0  0  0  0  0
  1  2  2  0
  2  3  1  0
  3  4  1  0
  4  5  2  0
  5  6  1  0
  6  7  2  0
  7  8  1  0
  4  9  1  0
  8  9  2  0
  2 10  1  0
 10 11  1  0
 11 12  1  0
 12 13  1  0
 13 14  1  0
 14 15  2  0
 14 16  2  0
 14 17  1  0
 13 18  1  0
 10 19  1  0
 18 19  1  0
M  END
