SAD-SAT-65574d3f-9-chloroacetamide
     RDKit          3D

 16 17  0  0  0  0  0  0  0  0999 V2000
    7.1610   -3.3850   19.8720 C   0  0  0  0  0  0  0  0  0  0  0  0
    6.2150   -4.4010   20.5020 C   0  0  0  0  0  0  0  0  0  0  0  0
    5.1960   -4.6740   19.9020 O   0  0  0  0  0  0  0  0  0  0  0  0
    6.4470   -5.0360   21.7180 N   0  0  0  0  0  0  0  0  0  0  0  0
    7.2370   -4.4730   22.7940 C   0  0  0  0  0  0  0  0  0  0  0  0
    6.7050   -4.8350   24.1850 C   0  0  0  0  0  0  0  0  0  0  0  0
    5.3240   -4.8740   24.2640 N   0  0  0  0  0  0  0  0  0  0  0  0
    4.6620   -3.8070   24.9340 C   0  0  0  0  0  0  0  0  0  0  0  0
    3.5250   -3.1500   25.4020 C   0  0  0  0  0  0  0  0  0  0  0  0
    3.2200   -1.9550   26.1030 C   0  0  0  0  0  0  0  0  0  0  0  0
    1.9590   -2.3090   25.9970 C   0  0  0  0  0  0  0  0  0  0  0  0
    1.9540   -3.5930   25.2720 C   0  0  0  0  0  0  0  0  0  0  0  0
    0.4280   -4.3480   24.9780 Cl  0  0  0  0  0  0  0  0  0  0  0  0
    3.2420   -4.2940   24.7710 C   0  0  0  0  0  0  0  0  0  0  0  0
    4.6760   -5.6530   23.1690 C   0  0  0  0  0  0  0  0  0  0  0  0
    5.5680   -6.1100   22.1820 C   0  0  0  0  0  0  0  0  0  0  0  0
  1  2  1  0
  2  3  2  0
  2  4  1  0
  4  5  1  0
  5  6  1  0
  6  7  1  0
  7  8  1  0
  8  9  2  0
  9 10  1  0
 10 11  2  0
 11 12  1  0
 12 13  1  0
  8 14  1  0
 12 14  2  0
  7 15  1  0
  4 16  1  0
 15 16  1  0
M  END
