SAD-SAT-135344c3-5
     RDKit          3D

 29 31  0  0  0  0  0  0  0  0999 V2000
   10.6880    1.6910   30.9450 C   0  0  0  0  0  0  0  0  0  0  0  0
    9.5790    1.2460   31.7480 C   0  0  0  0  0  0  0  0  0  0  0  0
    9.7170    1.1100   32.9650 O   0  0  0  0  0  0  0  0  0  0  0  0
    8.4100    1.0200   31.0240 N   0  0  0  0  0  0  0  0  0  0  0  0
    8.3000    0.5900   29.6340 C   0  0  0  0  0  0  0  0  0  0  0  0
    9.4780    0.4460   28.9360 C   0  0  0  0  0  0  0  0  0  0  0  0
    9.5250    0.0500   27.6230 C   0  0  0  0  0  0  0  0  0  0  0  0
    8.2280   -0.2360   26.9270 C   0  0  0  0  0  0  0  0  0  0  0  0
    8.3420   -0.7420   25.2270 S   0  0  0  0  0  0  0  0  0  0  0  0
    8.0020   -2.1460   25.1430 O   0  0  0  0  0  0  0  0  0  0  0  0
    7.6270    0.2420   24.4480 O   0  0  0  0  0  0  0  0  0  0  0  0
   10.0260   -0.5410   24.8910 N   0  0  0  0  0  0  0  0  0  0  0  0
   10.3610    0.6380   24.1320 C   0  0  0  0  0  0  0  0  0  0  0  0
   10.8480    0.3670   22.7290 C   0  0  0  0  0  0  0  0  0  0  0  0
   10.4970   -0.9850   22.0960 C   0  0  0  0  0  0  0  0  0  0  0  0
    9.2570   -0.9790   21.3010 N   0  0  0  0  0  0  0  0  0  0  0  0
    8.4130    0.1290   21.2580 C   0  0  0  0  0  0  0  0  0  0  0  0
    8.8050    1.3060   21.2510 O   0  0  0  0  0  0  0  0  0  0  0  0
    7.0300   -0.3120   21.1650 N   0  0  0  0  0  0  0  0  0  0  0  0
    6.3270    0.2840   20.1450 C   0  0  0  0  0  0  0  0  0  0  0  0
    5.1690    1.0860   20.4090 C   0  0  0  0  0  0  0  0  0  0  0  0
    4.5450    1.6770   19.1650 C   0  0  0  0  0  0  0  0  0  0  0  0
    5.1280    1.3970   17.9460 C   0  0  0  0  0  0  0  0  0  0  0  0
    6.2070    0.6340   17.7430 N   0  0  0  0  0  0  0  0  0  0  0  0
    6.7730    0.1000   18.8390 C   0  0  0  0  0  0  0  0  0  0  0  0
   10.4830   -2.1550   23.0690 C   0  0  0  0  0  0  0  0  0  0  0  0
   10.8370   -1.7220   24.4730 C   0  0  0  0  0  0  0  0  0  0  0  0
    7.0260   -0.0910   27.6380 C   0  0  0  0  0  0  0  0  0  0  0  0
    7.0680    0.3230   28.9940 C   0  0  0  0  0  0  0  0  0  0  0  0
  1  2  1  0
  2  3  2  0
  2  4  1  0
  4  5  1  0
  5  6  2  0
  6  7  1  0
  7  8  2  0
  9  8  1  0
  9 10  2  0
  9 11  2  0
  9 12  1  0
 12 13  1  0
 13 14  1  0
 14 15  1  0
 15 16  1  0
 16 17  1  0
 17 18  2  0
 17 19  1  0
 19 20  1  0
 20 21  2  0
 21 22  1  0
 22 23  2  0
 23 24  1  0
 20 25  1  0
 24 25  2  0
 15 26  1  0
 12 27  1  0
 26 27  1  0
  8 28  1  0
  5 29  1  0
 28 29  2  0
M  END
