SAD-SAT-bc31ec01-10-vinylsulfonamide
     RDKit          3D

 29 31  0  0  0  0  0  0  0  0999 V2000
    7.6500   -3.8970   20.4570 C   0  0  0  0  0  0  0  0  0  0  0  0
    6.3550   -3.1370   20.3320 C   0  0  0  0  0  0  0  0  0  0  0  0
    5.8420   -2.6850   21.9380 S   0  0  0  0  0  0  0  0  0  0  0  0
    4.4180   -3.0890   21.9370 O   0  0  0  0  0  0  0  0  0  0  0  0
    6.7540   -3.3070   22.8800 O   0  0  0  0  0  0  0  0  0  0  0  0
    6.2120   -0.9770   21.9180 N   0  0  0  0  0  0  0  0  0  0  0  0
    5.7910   -0.1060   23.0200 C   0  0  0  0  0  0  0  0  0  0  0  0
    6.1170    1.2710   22.8240 C   0  0  0  0  0  0  0  0  0  0  0  0
    7.4030    1.5690   22.4280 N   0  0  0  0  0  0  0  0  0  0  0  0
    8.1680    3.0680   22.9710 S   0  0  0  0  0  0  0  0  0  0  0  0
    7.9900    3.1260   24.4120 O   0  0  0  0  0  0  0  0  0  0  0  0
    7.6260    4.1420   22.1720 O   0  0  0  0  0  0  0  0  0  0  0  0
    9.9490    3.0280   22.6650 C   0  0  0  0  0  0  0  0  0  0  0  0
    9.5940    1.8940   23.6120 C   0  0  0  0  0  0  0  0  0  0  0  0
   11.0290    1.1980   23.8620 C   0  0  0  0  0  0  0  0  0  0  0  0
   12.5070    1.0850   23.6610 C   0  0  0  0  0  0  0  0  0  0  0  0
   12.3900    2.1350   22.9020 C   0  0  0  0  0  0  0  0  0  0  0  0
   11.0840    2.5280   22.8430 C   0  0  0  0  0  0  0  0  0  0  0  0
   11.8990    3.4890   21.8960 C   0  0  0  0  0  0  0  0  0  0  0  0
   12.6230    4.7510   21.3600 C   0  0  0  0  0  0  0  0  0  0  0  0
   12.7870    6.1550   22.0390 C   0  0  0  0  0  0  0  0  0  0  0  0
   12.4020    6.8360   23.2550 C   0  0  0  0  0  0  0  0  0  0  0  0
   11.7200    5.5760   23.6460 C   0  0  0  0  0  0  0  0  0  0  0  0
   11.0740    5.5420   24.8120 F   0  0  0  0  0  0  0  0  0  0  0  0
   11.8430    4.5710   22.7350 C   0  0  0  0  0  0  0  0  0  0  0  0
   11.0760    3.8660   23.6290 C   0  0  0  0  0  0  0  0  0  0  0  0
    9.9540    4.4250   23.9640 N   0  0  0  0  0  0  0  0  0  0  0  0
    8.1500    0.3730   22.2390 C   0  0  0  0  0  0  0  0  0  0  0  0
    7.5650   -0.6220   21.4200 C   0  0  0  0  0  0  0  0  0  0  0  0
  1  2  1  0
  3  2  1  0
  3  4  2  0
  3  5  2  0
  3  6  1  0
  6  7  1  0
  7  8  1  0
  8  9  1  0
  9 10  1  0
 10 11  2  0
 10 12  2  0
 10 13  1  0
 13 14  2  0
 14 15  1  0
 15 16  2  0
 16 17  1  0
 13 18  1  0
 17 18  2  0
 18 19  1  0
 19 20  2  0
 20 21  1  0
 21 22  2  0
 22 23  1  0
 23 24  1  0
 19 25  1  0
 23 25  2  0
 25 26  1  0
 26 27  3  0
  9 28  1  0
  6 29  1  0
 28 29  1  0
M  END
