SAD-SAT-29425be4-21-chloroacetamide
     RDKit          3D

 26 26  0  0  0  0  0  0  0  0999 V2000
    7.2670   -3.0070   18.8320 C   0  0  0  0  0  0  0  0  0  0  0  0
    6.2850   -3.3150   19.9450 C   0  0  0  0  0  0  0  0  0  0  0  0
    5.4150   -4.1860   19.8010 O   0  0  0  0  0  0  0  0  0  0  0  0
    6.4630   -2.5610   21.1120 N   0  0  0  0  0  0  0  0  0  0  0  0
    6.1460   -3.1390   22.4280 C   0  0  0  0  0  0  0  0  0  0  0  0
    7.5230   -3.4770   23.0600 C   0  0  0  0  0  0  0  0  0  0  0  0
    8.0850   -2.0770   23.3360 C   0  0  0  0  0  0  0  0  0  0  0  0
    9.2810   -2.5340   24.1930 C   0  0  0  0  0  0  0  0  0  0  0  0
    9.3180   -3.7020   24.6010 O   0  0  0  0  0  0  0  0  0  0  0  0
   10.3220   -1.5410   24.5100 N   0  0  0  0  0  0  0  0  0  0  0  0
   10.0250   -0.1110   24.6170 C   0  0  0  0  0  0  0  0  0  0  0  0
   11.6370   -1.7320   23.9520 C   0  0  0  0  0  0  0  0  0  0  0  0
   12.2570   -0.3480   23.6620 C   0  0  0  0  0  0  0  0  0  0  0  0
   13.4540   -0.5400   22.8240 C   0  0  0  0  0  0  0  0  0  0  0  0
   12.8520   -1.3120   21.7600 C   0  0  0  0  0  0  0  0  0  0  0  0
   13.6490   -1.5360   20.6200 N   0  0  0  0  0  0  0  0  0  0  0  0
   13.5770   -2.9170   20.6110 C   0  0  0  0  0  0  0  0  0  0  0  0
   14.4310   -0.6210   19.7050 C   0  0  0  0  0  0  0  0  0  0  0  0
   15.1420   -1.0350   18.8130 O   0  0  0  0  0  0  0  0  0  0  0  0
   14.4910    0.7170   19.8960 O   0  0  0  0  0  0  0  0  0  0  0  0
   15.1760    1.3940   18.7970 C   0  0  0  0  0  0  0  0  0  0  0  0
   14.5380    0.7870   17.5920 C   0  0  0  0  0  0  0  0  0  0  0  0
   14.9670    2.9300   18.8190 C   0  0  0  0  0  0  0  0  0  0  0  0
   16.4870    1.0630   18.5250 C   0  0  0  0  0  0  0  0  0  0  0  0
    8.4810   -1.4320   22.0060 C   0  0  0  0  0  0  0  0  0  0  0  0
    7.2480   -1.3180   21.1310 C   0  0  0  0  0  0  0  0  0  0  0  0
  1  2  1  0
  2  3  2  0
  2  4  1  0
  4  5  1  0
  5  6  1  0
  6  7  1  0
  7  8  1  0
  8  9  2  0
  8 10  1  0
 10 11  1  0
 10 12  1  0
 12 13  1  0
 13 14  1  0
 14 15  1  0
 15 16  1  0
 16 17  1  0
 16 18  1  0
 18 19  2  0
 18 20  1  0
 21 20  1  0
 21 22  1  0
 21 23  1  0
 21 24  1  0
  7 25  1  0
  4 26  1  0
 25 26  1  0
M  END
