SAD-SAT-29425be4-12-nitrile
     RDKit          3D

 25 26  0  0  0  0  0  0  0  0999 V2000
    7.1530   -3.2350   19.0130 C   0  0  0  0  0  0  0  0  0  0  0  0
    6.3440   -3.0550   18.0440 N   0  0  0  0  0  0  0  0  0  0  0  0
    6.7880   -3.1100   20.2770 N   0  0  0  0  0  0  0  0  0  0  0  0
    6.1870   -4.2680   20.9550 C   0  0  0  0  0  0  0  0  0  0  0  0
    5.4120   -3.8100   22.1730 C   0  0  0  0  0  0  0  0  0  0  0  0
    6.3330   -3.0030   23.0440 C   0  0  0  0  0  0  0  0  0  0  0  0
    7.5300   -3.8580   23.4680 C   0  0  0  0  0  0  0  0  0  0  0  0
    7.4340   -4.9880   23.9410 O   0  0  0  0  0  0  0  0  0  0  0  0
    8.7280   -3.2280   23.2590 N   0  0  0  0  0  0  0  0  0  0  0  0
    9.5390   -2.8280   24.3740 C   0  0  1  0  0  0  0  0  0  0  0  0
   10.3840   -1.6380   23.9970 C   0  0  0  0  0  0  0  0  0  0  0  0
   11.5000   -1.7890   23.0140 C   0  0  0  0  0  0  0  0  0  0  0  0
   12.2850   -0.7280   22.6280 C   0  0  0  0  0  0  0  0  0  0  0  0
   11.9180    0.5180   23.2500 C   0  0  0  0  0  0  0  0  0  0  0  0
   12.6200    1.5910   22.8720 C   0  0  0  0  0  0  0  0  0  0  0  0
   12.2670    2.9950   23.1610 C   0  0  0  0  0  0  0  0  0  0  0  0
   11.5450    3.8730   22.3580 C   0  0  0  0  0  0  0  0  0  0  0  0
   12.2140    4.9850   21.8590 C   0  0  0  0  0  0  0  0  0  0  0  0
   10.9010    0.6730   24.1730 C   0  0  0  0  0  0  0  0  0  0  0  0
   10.1470   -0.3950   24.5420 C   0  0  0  0  0  0  0  0  0  0  0  0
    8.6830   -2.4680   25.5870 C   0  0  0  0  0  0  0  0  0  0  0  0
    8.1130   -3.6110   26.1580 C   0  0  0  0  0  0  0  0  0  0  0  0
    7.5840   -1.4320   25.3420 C   0  0  0  0  0  0  0  0  0  0  0  0
    6.8410   -1.7600   22.3200 C   0  0  0  0  0  0  0  0  0  0  0  0
    7.5280   -2.1130   21.0330 C   0  0  0  0  0  0  0  0  0  0  0  0
  1  2  2  3
  1  3  1  0
  3  4  1  0
  4  5  1  0
  5  6  1  0
  6  7  1  0
  7  8  2  0
  7  9  1  0
 10  9  1  6
 10 11  1  0
 11 12  2  0
 12 13  1  0
 13 14  2  0
 14 15  1  0
 15 16  1  0
 16 17  1  0
 17 18  1  0
 14 19  1  0
 11 20  1  0
 19 20  2  0
 10 21  1  0
 21 22  1  0
 21 23  1  0
  6 24  1  0
  3 25  1  0
 24 25  1  0
M  END
