SAD-SAT-9a6c5cf3-4
     RDKit          3D

 32 35  0  0  0  0  0  0  0  0999 V2000
    8.1380    6.6720   32.3980 C   0  0  0  0  0  0  0  0  0  0  0  0
    7.9560    5.8440   31.1380 C   0  0  0  0  0  0  0  0  0  0  0  0
    8.0320    4.4440   31.2060 C   0  0  0  0  0  0  0  0  0  0  0  0
    7.8880    3.5910   30.1640 N   0  0  0  0  0  0  0  0  0  0  0  0
    7.6490    4.0670   28.9170 C   0  0  0  0  0  0  0  0  0  0  0  0
    7.4810    3.1370   27.7000 C   0  0  0  0  0  0  0  0  0  0  0  0
    7.5980    1.3760   27.9210 S   0  0  0  0  0  0  0  0  0  0  0  0
    8.9490    0.9990   28.2740 O   0  0  0  0  0  0  0  0  0  0  0  0
    6.4760    0.9870   28.7590 O   0  0  0  0  0  0  0  0  0  0  0  0
    7.2900    0.6870   26.4180 N   0  0  0  0  0  0  0  0  0  0  0  0
    6.0470   -0.0460   26.3070 C   0  0  0  0  0  0  0  0  0  0  0  0
    6.3630   -1.4220   26.8470 C   0  0  0  0  0  0  0  0  0  0  0  0
    6.9430   -2.1640   25.7630 N   0  0  0  0  0  0  0  0  0  0  0  0
    6.2280   -3.1400   25.0830 C   0  0  0  0  0  0  0  0  0  0  0  0
    5.1280   -3.5280   25.5000 O   0  0  0  0  0  0  0  0  0  0  0  0
    6.8190   -3.7140   23.8040 C   0  0  0  0  0  0  0  0  0  0  0  0
    7.0510   -2.6720   22.9040 C   0  0  0  0  0  0  0  0  0  0  0  0
    7.7270   -3.0630   21.7720 C   0  0  0  0  0  0  0  0  0  0  0  0
    6.8730   -3.9600   21.0160 N   0  0  0  0  0  0  0  0  0  0  0  0
    6.1810   -3.5170   19.8890 C   0  0  0  0  0  0  0  0  0  0  0  0
    5.2020   -4.1520   19.5050 O   0  0  0  0  0  0  0  0  0  0  0  0
    6.6590   -2.3960   19.1980 C   0  0  0  0  0  0  0  0  0  0  0  0
    5.7870   -0.9220   19.6790 Cl  0  0  0  0  0  0  0  0  0  0  0  0
    6.3440   -5.1130   21.7520 C   0  0  0  0  0  0  0  0  0  0  0  0
    5.8660   -4.7380   23.1530 C   0  0  0  0  0  0  0  0  0  0  0  0
    7.8460   -1.2820   24.9710 C   0  0  0  0  0  0  0  0  0  0  0  0
    8.3830   -0.0270   25.7100 C   0  0  0  0  0  0  0  0  0  0  0  0
    7.2370    3.6730   26.4260 C   0  0  0  0  0  0  0  0  0  0  0  0
    7.1410    5.1940   26.2780 C   0  0  0  0  0  0  0  0  0  0  0  0
    7.3000    5.9850   27.4120 C   0  0  0  0  0  0  0  0  0  0  0  0
    7.5470    5.4640   28.6910 C   0  0  0  0  0  0  0  0  0  0  0  0
    7.7120    6.3950   29.8910 C   0  0  0  0  0  0  0  0  0  0  0  0
  1  2  1  0
  2  3  2  0
  3  4  1  0
  4  5  2  0
  5  6  1  0
  7  6  1  0
  7  8  2  0
  7  9  2  0
  7 10  1  0
 10 11  1  0
 11 12  1  0
 12 13  1  0
 13 14  1  0
 14 15  2  0
 14 16  1  0
 16 17  1  0
 17 18  1  0
 18 19  1  0
 19 20  1  0
 20 21  2  0
 20 22  1  0
 22 23  1  0
 19 24  1  0
 16 25  1  0
 24 25  1  0
 13 26  1  0
 10 27  1  0
 26 27  1  0
  6 28  2  0
 28 29  1  0
 29 30  2  0
  5 31  1  0
 30 31  1  0
  2 32  1  0
 31 32  2  0
M  END
