SAD-SAT-bc31ec01-5-vinylsulfonamide
     RDKit          3D

 22 23  0  0  0  0  0  0  0  0999 V2000
    6.3630   -3.7710   19.7230 C   0  0  0  0  0  0  0  0  0  0  0  0
    6.3220   -2.6290   20.7230 C   0  0  0  0  0  0  0  0  0  0  0  0
    5.9210   -3.2800   22.3140 S   0  0  0  0  0  0  0  0  0  0  0  0
    4.5590   -3.8050   22.2530 O   0  0  0  0  0  0  0  0  0  0  0  0
    7.0080   -4.1480   22.7380 O   0  0  0  0  0  0  0  0  0  0  0  0
    5.9540   -1.8780   23.2910 N   0  0  0  0  0  0  0  0  0  0  0  0
    6.7090   -1.9480   24.5270 C   0  0  0  0  0  0  0  0  0  0  0  0
    7.8530   -1.1300   24.4840 C   0  0  0  0  0  0  0  0  0  0  0  0
    7.6740    0.2040   24.2390 N   0  0  0  0  0  0  0  0  0  0  0  0
    9.0260    1.0730   23.6160 S   0  0  0  0  0  0  0  0  0  0  0  0
    8.7760    1.1780   22.1860 O   0  0  0  0  0  0  0  0  0  0  0  0
    9.2250    2.2740   24.4210 O   0  0  0  0  0  0  0  0  0  0  0  0
   10.4080   -0.0680   23.8710 C   0  0  0  0  0  0  0  0  0  0  0  0
   11.8710   -0.2160   23.6220 C   0  0  0  0  0  0  0  0  0  0  0  0
   13.2590   -0.9570   23.6690 C   0  0  0  0  0  0  0  0  0  0  0  0
   12.7450   -2.3990   24.4570 Cl  0  0  0  0  0  0  0  0  0  0  0  0
   12.9310    0.1030   23.2460 C   0  0  0  0  0  0  0  0  0  0  0  0
   11.5600    0.0630   23.5680 C   0  0  0  0  0  0  0  0  0  0  0  0
   10.8660    1.5460   23.0440 Cl  0  0  0  0  0  0  0  0  0  0  0  0
   10.6240   -1.1360   24.3320 C   0  0  0  0  0  0  0  0  0  0  0  0
    6.4810    0.5220   23.5640 C   0  0  0  0  0  0  0  0  0  0  0  0
    5.9510   -0.5930   22.6490 C   0  0  0  0  0  0  0  0  0  0  0  0
  1  2  1  0
  3  2  1  0
  3  4  2  0
  3  5  2  0
  3  6  1  0
  6  7  1  0
  7  8  1  0
  8  9  1  0
  9 10  1  0
 10 11  2  0
 10 12  2  0
 10 13  1  0
 13 14  2  0
 14 15  1  0
 15 16  1  0
 15 17  2  0
 17 18  1  0
 18 19  1  0
 13 20  1  0
 18 20  2  0
  9 21  1  0
  6 22  1  0
 21 22  1  0
M  END
