SAD-SAT-29425be4-10-vinylsulfonamide
     RDKit          3D

 35 37  0  0  0  0  0  0  0  0999 V2000
    8.0280   -3.6090   19.8930 C   0  0  0  0  0  0  0  0  0  0  0  0
    6.8740   -2.7790   19.4640 C   0  0  0  0  0  0  0  0  0  0  0  0
    5.5020   -3.7010   20.0500 S   0  0  0  0  0  0  0  0  0  0  0  0
    4.3890   -3.0900   19.4690 O   0  0  0  0  0  0  0  0  0  0  0  0
    5.6420   -5.0990   19.8100 O   0  0  0  0  0  0  0  0  0  0  0  0
    5.4790   -3.4660   21.7110 N   0  0  0  0  0  0  0  0  0  0  0  0
    6.0280   -4.5640   22.5460 C   0  0  0  0  0  0  0  0  0  0  0  0
    7.3130   -4.1140   23.2230 C   0  0  0  0  0  0  0  0  0  0  0  0
    7.0310   -2.9570   24.1810 C   0  0  0  0  0  0  0  0  0  0  0  0
    8.2640   -2.0770   24.2570 C   0  0  0  0  0  0  0  0  0  0  0  0
    8.2860   -1.1500   25.0720 O   0  0  0  0  0  0  0  0  0  0  0  0
    9.3290   -2.3300   23.4080 N   0  0  0  0  0  0  0  0  0  0  0  0
   10.6940   -2.2320   23.9370 C   0  0  0  0  0  0  0  0  0  0  0  0
   11.2740   -0.8880   23.6510 C   0  0  0  0  0  0  0  0  0  0  0  0
   10.7700    0.3250   24.0820 C   0  0  0  0  0  0  0  0  0  0  0  0
   11.3640    1.5920   23.7690 C   0  0  0  0  0  0  0  0  0  0  0  0
   12.5100    1.5810   22.9930 C   0  0  0  0  0  0  0  0  0  0  0  0
   13.1240    2.8270   22.6620 N   0  0  0  0  0  0  0  0  0  0  0  0
   14.3240    2.9030   21.9760 C   0  0  0  0  0  0  0  0  0  0  0  0
   14.7820    1.9750   21.3740 O   0  0  0  0  0  0  0  0  0  0  0  0
   15.1450    4.0880   21.9750 C   0  0  0  0  0  0  0  0  0  0  0  0
   16.0560    4.5180   23.0290 C   0  0  0  0  0  0  0  0  0  0  0  0
   17.4420    3.9480   23.2590 C   0  0  0  0  0  0  0  0  0  0  0  0
   18.1790    4.3980   24.4670 O   0  0  0  0  0  0  0  0  0  0  0  0
   19.6030    4.6550   24.5120 C   0  0  0  0  0  0  0  0  0  0  0  0
   20.0810    5.8990   24.1570 C   0  0  0  0  0  0  0  0  0  0  0  0
   21.4090    6.3100   24.1370 C   0  0  0  0  0  0  0  0  0  0  0  0
   22.5210    5.4020   24.5340 C   0  0  0  0  0  0  0  0  0  0  0  0
   22.0890    4.0350   24.9690 C   0  0  0  0  0  0  0  0  0  0  0  0
   20.5850    3.7350   24.9370 C   0  0  0  0  0  0  0  0  0  0  0  0
   20.1790    2.4190   25.3980 C   0  0  0  0  0  0  0  0  0  0  0  0
   13.0280    0.3570   22.5570 C   0  0  0  0  0  0  0  0  0  0  0  0
   12.4250   -0.8570   22.8760 C   0  0  0  0  0  0  0  0  0  0  0  0
    5.8030   -2.1430   23.7470 C   0  0  0  0  0  0  0  0  0  0  0  0
    5.6570   -2.1110   22.2260 C   0  0  0  0  0  0  0  0  0  0  0  0
  1  2  1  0
  3  2  1  0
  3  4  2  0
  3  5  2  0
  3  6  1  0
  6  7  1  0
  7  8  1  0
  8  9  1  0
  9 10  1  0
 10 11  2  0
 10 12  1  0
 12 13  1  0
 13 14  1  0
 14 15  2  0
 15 16  1  0
 16 17  2  0
 17 18  1  0
 18 19  1  0
 19 20  2  0
 19 21  1  0
 21 22  1  0
 22 23  1  0
 23 24  1  0
 24 25  1  0
 25 26  2  0
 26 27  1  0
 27 28  2  0
 28 29  1  0
 25 30  1  0
 29 30  2  0
 30 31  1  0
 17 32  1  0
 14 33  1  0
 32 33  2  0
  9 34  1  0
  6 35  1  0
 34 35  1  0
M  END
