SAD-SAT-6b5a89f0-4-nitrile
     RDKit          3D

  9  9  0  0  0  0  0  0  0  0999 V2000
    6.2440   -4.0060   19.9320 C   0  0  0  0  0  0  0  0  0  0  0  0
    5.3830   -3.4620   19.1630 N   0  0  0  0  0  0  0  0  0  0  0  0
    5.9700   -4.1960   21.2890 N   0  0  0  0  0  0  0  0  0  0  0  0
    6.5950   -5.0760   22.1070 C   0  0  0  0  0  0  0  0  0  0  0  0
    7.2010   -4.4110   22.9430 O   0  0  0  0  0  0  0  0  0  0  0  0
    6.3640   -3.2660   23.2370 C   0  0  2  0  0  0  0  0  0  0  0  0
    5.6520   -3.2020   24.5930 C   0  0  0  0  0  0  0  0  0  0  0  0
    5.8200   -4.3090   25.3200 N   0  0  0  0  0  0  0  0  0  0  0  0
    5.3770   -3.2850   22.0920 C   0  0  0  0  0  0  0  0  0  0  0  0
  1  2  2  3
  1  3  1  0
  3  4  1  0
  4  5  1  0
  5  6  1  0
  6  7  1  1
  7  8  3  0
  3  9  1  0
  6  9  1  0
M  END
