SAD-SAT-f0a2747f-8-chloroacetamide
     RDKit          3D

 29 31  0  0  0  0  0  0  0  0999 V2000
    8.6090   -3.9250   19.8840 C   0  0  0  0  0  0  0  0  0  0  0  0
    7.6580   -4.7750   20.6280 C   0  0  0  0  0  0  0  0  0  0  0  0
    6.4520   -4.8290   20.1000 O   0  0  0  0  0  0  0  0  0  0  0  0
    8.2250   -5.5540   21.7500 N   0  0  0  0  0  0  0  0  0  0  0  0
    9.4570   -5.1860   22.5620 C   0  0  0  0  0  0  0  0  0  0  0  0
    9.1010   -4.4760   23.6700 C   0  0  0  0  0  0  0  0  0  0  0  0
    8.2920   -5.0900   22.7310 C   0  0  0  0  0  0  0  0  0  0  0  0
    6.8760   -5.1910   22.5530 C   0  0  0  0  0  0  0  0  0  0  0  0
    6.1250   -4.5890   23.4260 C   0  0  0  0  0  0  0  0  0  0  0  0
    4.8110   -4.7400   23.1530 C   0  0  0  0  0  0  0  0  0  0  0  0
    4.7750   -4.1370   22.0620 O   0  0  0  0  0  0  0  0  0  0  0  0
    3.5870   -5.1990   23.3160 N   0  0  0  0  0  0  0  0  0  0  0  0
    3.0170   -4.8870   24.6450 C   0  0  0  0  0  0  0  0  0  0  0  0
    2.9920   -6.1320   25.5560 C   0  0  0  0  0  0  0  0  0  0  0  0
    2.4170   -7.2310   24.9790 N   0  0  0  0  0  0  0  0  0  0  0  0
    1.9140   -8.3750   25.6660 C   0  0  0  0  0  0  0  0  0  0  0  0
    0.7190   -8.2500   26.4150 C   0  0  0  0  0  0  0  0  0  0  0  0
    0.6730   -8.3140   27.9110 C   0  0  0  0  0  0  0  0  0  0  0  0
   -0.5210   -8.1830   28.6310 C   0  0  0  0  0  0  0  0  0  0  0  0
   -0.5220   -8.2450   29.9690 F   0  0  0  0  0  0  0  0  0  0  0  0
   -1.7020   -7.9880   27.9420 C   0  0  0  0  0  0  0  0  0  0  0  0
   -1.7210   -7.9210   26.5490 C   0  0  0  0  0  0  0  0  0  0  0  0
   -0.5340   -8.0490   25.7730 C   0  0  0  0  0  0  0  0  0  0  0  0
   -0.5080   -7.9910   24.4010 O   0  0  0  0  0  0  0  0  0  0  0  0
   -0.2420   -6.7350   23.7810 C   0  0  0  0  0  0  0  0  0  0  0  0
    3.2240   -7.6160   23.8440 C   0  0  0  0  0  0  0  0  0  0  0  0
    3.2750   -6.5340   22.8040 C   0  0  0  0  0  0  0  0  0  0  0  0
    6.7330   -3.9190   24.4650 C   0  0  0  0  0  0  0  0  0  0  0  0
    8.1410   -3.8850   24.5640 C   0  0  0  0  0  0  0  0  0  0  0  0
  1  2  1  0
  2  3  2  0
  2  4  1  0
  4  5  1  0
  5  6  1  0
  6  7  2  0
  7  8  1  0
  8  9  2  0
  9 10  1  0
 10 11  2  0
 10 12  1  0
 12 13  1  0
 13 14  1  0
 14 15  1  0
 15 16  1  0
 16 17  1  0
 17 18  2  0
 18 19  1  0
 19 20  1  0
 19 21  2  0
 21 22  1  0
 17 23  1  0
 22 23  2  0
 23 24  1  0
 24 25  1  0
 15 26  1  0
 12 27  1  0
 26 27  1  0
  9 28  1  0
  6 29  1  0
 28 29  2  0
M  END
