SAD-SAT-bc31ec01-5-chloroacetamide
     RDKit          3D

 20 21  0  0  0  0  0  0  0  0999 V2000
    7.1980   -4.1560   20.6150 C   0  0  0  0  0  0  0  0  0  0  0  0
    5.8680   -3.5000   20.3180 C   0  0  0  0  0  0  0  0  0  0  0  0
    5.0050   -4.0320   19.6300 O   0  0  0  0  0  0  0  0  0  0  0  0
    5.6500   -2.1940   20.8370 N   0  0  0  0  0  0  0  0  0  0  0  0
    5.8230   -1.9930   22.2650 C   0  0  0  0  0  0  0  0  0  0  0  0
    6.5600   -0.8150   22.5510 C   0  0  0  0  0  0  0  0  0  0  0  0
    7.7030   -0.6250   21.7920 N   0  0  0  0  0  0  0  0  0  0  0  0
    8.9010    0.3890   22.5510 S   0  0  0  0  0  0  0  0  0  0  0  0
    8.4440    0.5360   23.9280 O   0  0  0  0  0  0  0  0  0  0  0  0
    8.9190    1.5710   21.6880 O   0  0  0  0  0  0  0  0  0  0  0  0
   10.5910   -0.2010   22.6020 C   0  0  0  0  0  0  0  0  0  0  0  0
   10.1500    0.8780   22.7290 C   0  0  0  0  0  0  0  0  0  0  0  0
    9.1560   -0.4880   22.4500 C   0  0  0  0  0  0  0  0  0  0  0  0
    8.3970   -2.0350   22.1630 Cl  0  0  0  0  0  0  0  0  0  0  0  0
   10.0520   -1.8040   22.3180 C   0  0  0  0  0  0  0  0  0  0  0  0
   11.4040   -1.7190   22.4520 C   0  0  0  0  0  0  0  0  0  0  0  0
   12.5000   -0.4250   22.7620 Cl  0  0  0  0  0  0  0  0  0  0  0  0
   10.0530   -1.1970   22.4080 C   0  0  0  0  0  0  0  0  0  0  0  0
    7.3870   -0.5260   20.4210 C   0  0  0  0  0  0  0  0  0  0  0  0
    6.0420   -1.1160   19.9790 C   0  0  0  0  0  0  0  0  0  0  0  0
  1  2  1  0
  2  3  2  0
  2  4  1  0
  4  5  1  0
  5  6  1  0
  6  7  1  0
  7  8  1  0
  8  9  2  0
  8 10  2  0
  8 11  1  0
 11 12  2  0
 12 13  1  0
 13 14  1  0
 13 15  2  0
 15 16  1  0
 16 17  1  0
 11 18  1  0
 16 18  2  0
  7 19  1  0
  4 20  1  0
 19 20  1  0
M  END
