SAD-SAT-bc31ec01-6-acrylamide
     RDKit          3D

 18 20  0  0  0  0  0  0  0  0999 V2000
    6.6410   -3.4060   19.3800 C   0  0  0  0  0  0  0  0  0  0  0  0
    6.7500   -2.4270   20.5540 C   0  0  0  0  0  0  0  0  0  0  0  0
    6.3390   -2.9520   21.9200 C   0  0  0  0  0  0  0  0  0  0  0  0
    5.1480   -3.5140   21.3000 O   0  0  0  0  0  0  0  0  0  0  0  0
    7.7260   -2.2280   22.3620 N   0  0  0  0  0  0  0  0  0  0  0  0
    7.6860   -1.7360   23.7710 C   0  0  0  0  0  0  0  0  0  0  0  0
    8.3630   -0.4790   23.9910 C   0  0  0  0  0  0  0  0  0  0  0  0
    9.7180   -0.5820   23.6840 N   0  0  0  0  0  0  0  0  0  0  0  0
   10.6230    0.5040   23.4460 C   0  0  0  0  0  0  0  0  0  0  0  0
   10.3160    1.9410   23.6590 C   0  0  0  0  0  0  0  0  0  0  0  0
   11.2330    2.9590   23.4050 C   0  0  0  0  0  0  0  0  0  0  0  0
   10.9060    4.2480   23.6030 F   0  0  0  0  0  0  0  0  0  0  0  0
   12.5040    2.6000   22.9410 C   0  0  0  0  0  0  0  0  0  0  0  0
   12.9260    1.1740   22.6990 C   0  0  0  0  0  0  0  0  0  0  0  0
   11.8620    0.1040   22.9780 C   0  0  0  0  0  0  0  0  0  0  0  0
   11.8840   -1.6720   22.8030 S   0  0  0  0  0  0  0  0  0  0  0  0
   10.0820   -1.8630   23.2110 C   0  0  2  0  0  0  0  0  0  0  0  0
    9.2000   -2.2010   21.9390 C   0  0  0  0  0  0  0  0  0  0  0  0
  1  2  1  0
  2  3  1  0
  3  4  2  0
  3  5  1  0
  5  6  1  0
  6  7  1  0
  7  8  1  0
  8  9  1  0
  9 10  1  0
 10 11  2  0
 11 12  1  0
 11 13  1  0
 13 14  2  0
  9 15  2  0
 14 15  1  0
 15 16  1  0
  8 17  1  0
 16 17  1  0
  5 18  1  0
 17 18  1  6
M  END
