SAD-SAT-f0a2747f-7-acrylamide
     RDKit          3D

 26 27  0  0  0  0  0  0  0  0999 V2000
    8.7060   -3.9480   20.2910 C   0  0  0  0  0  0  0  0  0  0  0  0
    7.3540   -3.3560   19.8110 C   0  0  0  0  0  0  0  0  0  0  0  0
    6.1530   -4.2180   20.2330 C   0  0  0  0  0  0  0  0  0  0  0  0
    5.0590   -4.1120   19.6710 O   0  0  0  0  0  0  0  0  0  0  0  0
    6.3660   -5.1220   21.2740 N   0  0  0  0  0  0  0  0  0  0  0  0
    5.6690   -6.3720   21.2900 C   0  0  0  0  0  0  0  0  0  0  0  0
    6.3680   -4.4650   22.5420 C   0  0  0  0  0  0  0  0  0  0  0  0
    5.5730   -3.2240   22.3960 C   0  0  0  0  0  0  0  0  0  0  0  0
    4.4640   -3.3110   21.8780 O   0  0  0  0  0  0  0  0  0  0  0  0
    6.1300   -2.0850   22.8300 N   0  0  0  0  0  0  0  0  0  0  0  0
    6.6830   -1.8950   24.1030 C   0  0  0  0  0  0  0  0  0  0  0  0
    7.2540   -0.6580   24.4880 C   0  0  0  0  0  0  0  0  0  0  0  0
    7.7920   -0.4910   25.7910 C   0  0  0  0  0  0  0  0  0  0  0  0
    7.7270   -1.6990   26.7450 C   0  0  0  0  0  0  0  0  0  0  0  0
    8.3760   -1.4210   28.3160 Cl  0  0  0  0  0  0  0  0  0  0  0  0
    7.1010   -3.0100   26.2300 C   0  0  0  0  0  0  0  0  0  0  0  0
    6.9500   -4.5150   27.1570 S   0  0  0  0  0  0  0  0  0  0  0  0
    5.5340   -4.8250   27.2500 O   0  0  0  0  0  0  0  0  0  0  0  0
    7.7480   -4.4660   28.3620 O   0  0  0  0  0  0  0  0  0  0  0  0
    7.6400   -5.6250   26.0630 N   0  0  0  0  0  0  0  0  0  0  0  0
    7.4020   -5.3250   24.6810 C   0  0  0  0  0  0  0  0  0  0  0  0
    8.2520   -5.9500   23.5860 C   0  0  0  0  0  0  0  0  0  0  0  0
    9.4980   -6.3510   24.1070 O   0  0  0  0  0  0  0  0  0  0  0  0
    9.7550   -5.6260   25.3060 C   0  0  0  0  0  0  0  0  0  0  0  0
    8.9200   -5.8910   26.3590 C   0  0  0  0  0  0  0  0  0  0  0  0
    6.6100   -3.0210   24.9320 C   0  0  0  0  0  0  0  0  0  0  0  0
  1  2  1  0
  2  3  1  0
  3  4  2  0
  3  5  1  0
  5  6  1  0
  5  7  1  0
  7  8  1  0
  8  9  2  0
  8 10  1  0
 10 11  1  0
 11 12  2  0
 12 13  1  0
 13 14  2  0
 14 15  1  0
 14 16  1  0
 17 16  1  0
 17 18  2  0
 17 19  2  0
 17 20  1  0
 20 21  1  0
 21 22  1  0
 22 23  1  0
 23 24  1  0
 20 25  1  0
 24 25  1  0
 11 26  1  0
 16 26  2  0
M  END
