SAD-SAT-29425be4-3-nitrile
     RDKit          3D

 22 23  0  0  0  0  0  0  0  0999 V2000
    6.6740   -5.4150   20.4380 C   0  0  0  0  0  0  0  0  0  0  0  0
    5.7990   -6.1010   19.8510 N   0  0  0  0  0  0  0  0  0  0  0  0
    6.3260   -4.7230   21.5240 N   0  0  0  0  0  0  0  0  0  0  0  0
    7.0090   -4.9640   22.7910 C   0  0  0  0  0  0  0  0  0  0  0  0
    7.9100   -3.7800   23.0770 C   0  0  0  0  0  0  0  0  0  0  0  0
    7.1760   -2.4700   22.8210 C   0  0  0  0  0  0  0  0  0  0  0  0
    7.9860   -1.2310   23.1990 C   0  0  0  0  0  0  0  0  0  0  0  0
    8.0690   -0.8710   24.3720 O   0  0  0  0  0  0  0  0  0  0  0  0
    8.5640   -0.5260   22.1540 N   0  0  0  0  0  0  0  0  0  0  0  0
    8.3680    0.9180   21.9650 C   0  0  0  0  0  0  0  0  0  0  0  0
    8.4840    1.7710   23.2500 C   0  0  0  0  0  0  0  0  0  0  0  0
   10.0120    2.3580   23.7730 S   0  0  0  0  0  0  0  0  0  0  0  0
   10.9440    0.8720   23.7050 C   0  0  0  0  0  0  0  0  0  0  0  0
   12.3080    0.8590   23.4930 C   0  0  0  0  0  0  0  0  0  0  0  0
   12.9990   -0.3860   23.4120 C   0  0  0  0  0  0  0  0  0  0  0  0
   12.3520   -1.5740   23.5650 C   0  0  0  0  0  0  0  0  0  0  0  0
   12.8900   -2.8780   23.5480 C   0  0  0  0  0  0  0  0  0  0  0  0
   10.8650   -1.5740   23.7910 C   0  0  0  0  0  0  0  0  0  0  0  0
   10.0300   -2.6750   23.9320 C   0  0  0  0  0  0  0  0  0  0  0  0
   10.2170   -0.2610   23.8570 C   0  0  0  0  0  0  0  0  0  0  0  0
    6.6250   -2.3740   21.4050 C   0  0  0  0  0  0  0  0  0  0  0  0
    5.6820   -3.3870   21.2410 C   0  0  0  0  0  0  0  0  0  0  0  0
  1  2  2  3
  1  3  1  0
  3  4  1  0
  4  5  1  0
  5  6  1  0
  6  7  1  0
  7  8  2  0
  7  9  1  0
  9 10  1  0
 10 11  1  0
 11 12  1  0
 12 13  1  0
 13 14  2  0
 14 15  1  0
 15 16  2  0
 16 17  1  0
 16 18  1  0
 18 19  1  0
 13 20  1  0
 18 20  2  0
  6 21  1  0
  3 22  1  0
 21 22  1  0
M  END
