SAD-SAT-29425be4-30-acrylamide
     RDKit          3D

 29 30  0  0  0  0  0  0  0  0999 V2000
    7.1920   -3.1360   19.2580 C   0  0  0  0  0  0  0  0  0  0  0  0
    5.7860   -2.5600   19.5400 C   0  0  0  0  0  0  0  0  0  0  0  0
    5.5260   -2.4700   21.0250 C   0  0  0  0  0  0  0  0  0  0  0  0
    4.7940   -3.2700   21.6230 O   0  0  0  0  0  0  0  0  0  0  0  0
    6.1410   -1.4360   21.6860 N   0  0  0  0  0  0  0  0  0  0  0  0
    5.8370   -1.1670   23.0840 C   0  0  0  0  0  0  0  0  0  0  0  0
    6.7060   -2.2310   23.7570 C   0  0  0  0  0  0  0  0  0  0  0  0
    8.0530   -1.5090   23.5360 C   0  0  0  0  0  0  0  0  0  0  0  0
    8.9910   -2.5440   24.2750 C   0  0  0  0  0  0  0  0  0  0  0  0
    8.4950   -3.6610   24.4710 O   0  0  0  0  0  0  0  0  0  0  0  0
   10.3950   -2.2990   24.7110 N   0  0  0  0  0  0  0  0  0  0  0  0
   10.8120   -0.9630   25.1520 C   0  0  0  0  0  0  0  0  0  0  0  0
   12.3870   -0.8160   25.1350 C   0  0  0  0  0  0  0  0  0  0  0  0
   13.2110   -2.1280   25.1130 C   0  0  0  0  0  0  0  0  0  0  0  0
   11.3530   -2.8790   23.8510 C   0  0  0  0  0  0  0  0  0  0  0  0
   12.0330   -1.7290   23.1880 C   0  0  0  0  0  0  0  0  0  0  0  0
   12.9110   -2.3240   22.0750 C   0  0  0  0  0  0  0  0  0  0  0  0
   13.4070   -0.9490   21.5910 C   0  0  0  0  0  0  0  0  0  0  0  0
   13.0700    0.4570   22.1200 C   0  0  0  0  0  0  0  0  0  0  0  0
   13.5190    1.6120   21.5550 O   0  0  0  0  0  0  0  0  0  0  0  0
   14.7460    2.2890   21.5290 C   0  0  0  0  0  0  0  0  0  0  0  0
   15.4360    2.9530   20.1060 C   0  0  0  0  0  0  0  0  0  0  0  0
   12.2490    0.6680   23.1570 C   0  0  0  0  0  0  0  0  0  0  0  0
   12.0060    2.0110   23.5660 O   0  0  0  0  0  0  0  0  0  0  0  0
   10.6220    2.3880   23.5100 C   0  0  0  0  0  0  0  0  0  0  0  0
   10.4210    3.9000   23.5290 C   0  0  0  0  0  0  0  0  0  0  0  0
   11.7350   -0.4470   23.6780 C   0  0  0  0  0  0  0  0  0  0  0  0
    8.4570   -1.3920   22.0460 C   0  0  0  0  0  0  0  0  0  0  0  0
    7.4310   -0.8960   21.2750 C   0  0  0  0  0  0  0  0  0  0  0  0
  1  2  1  0
  2  3  1  0
  3  4  2  0
  3  5  1  0
  5  6  1  0
  6  7  1  0
  7  8  1  0
  8  9  1  0
  9 10  2  0
  9 11  1  0
 11 12  1  0
 12 13  1  0
 13 14  1  0
 11 15  1  0
 15 16  1  0
 16 17  2  0
 17 18  1  0
 18 19  2  0
 19 20  1  0
 20 21  1  0
 21 22  1  0
 19 23  1  0
 23 24  1  0
 24 25  1  0
 25 26  1  0
 16 27  1  0
 23 27  2  0
  8 28  1  0
  5 29  1  0
 28 29  1  0
M  END
