SAD-SAT-2ceae68f-6-nitrile
     RDKit          3D

 25 27  0  0  0  0  0  0  0  0999 V2000
    6.7030   -4.3020   20.3280 C   0  0  0  0  0  0  0  0  0  0  0  0
    5.6820   -3.8690   19.6950 N   0  0  0  0  0  0  0  0  0  0  0  0
    7.2700   -3.6680   21.3900 N   0  0  0  0  0  0  0  0  0  0  0  0
    7.4460   -2.2020   21.3860 C   0  0  0  0  0  0  0  0  0  0  0  0
    8.5590   -1.9550   22.4450 C   0  0  0  0  0  0  0  0  0  0  0  0
    9.7790   -2.5180   21.6650 C   0  0  0  0  0  0  0  0  0  0  0  0
    9.6240   -3.4150   20.8470 O   0  0  0  0  0  0  0  0  0  0  0  0
   11.0120   -1.9650   21.9410 N   0  0  0  0  0  0  0  0  0  0  0  0
   11.2500   -0.5910   22.3230 C   0  0  0  0  0  0  0  0  0  0  0  0
   12.7730   -0.4070   22.3180 C   0  0  0  0  0  0  0  0  0  0  0  0
   13.2420   -1.3510   23.3170 N   0  0  0  0  0  0  0  0  0  0  0  0
   12.3260   -1.1350   24.6420 S   0  0  0  0  0  0  0  0  0  0  0  0
   11.3270   -2.1590   24.5370 O   0  0  0  0  0  0  0  0  0  0  0  0
   13.2100   -1.0190   25.7490 O   0  0  0  0  0  0  0  0  0  0  0  0
   11.4660    0.3940   24.2790 C   0  0  0  0  0  0  0  0  0  0  0  0
    9.9710    0.4830   24.6950 C   0  0  0  0  0  0  0  0  0  0  0  0
    9.2680    1.7760   24.3990 C   0  0  0  0  0  0  0  0  0  0  0  0
   10.0700    2.8550   23.7370 C   0  0  0  0  0  0  0  0  0  0  0  0
   11.3360    2.6630   23.4230 C   0  0  0  0  0  0  0  0  0  0  0  0
   12.0840    1.4810   23.6560 C   0  0  0  0  0  0  0  0  0  0  0  0
   11.8300    3.8240   22.8300 C   0  0  0  0  0  0  0  0  0  0  0  0
   10.8080    4.8580   23.0590 C   0  0  0  0  0  0  0  0  0  0  0  0
    9.6310    4.1480   23.3870 C   0  0  0  0  0  0  0  0  0  0  0  0
   13.0120   -2.6660   22.8050 C   0  0  0  0  0  0  0  0  0  0  0  0
   12.2430   -2.6440   21.6280 C   0  0  0  0  0  0  0  0  0  0  0  0
  1  2  2  3
  1  3  1  0
  3  4  1  0
  4  5  1  0
  5  6  1  0
  6  7  2  0
  6  8  1  0
  8  9  1  0
  9 10  1  0
 10 11  1  0
 11 12  1  0
 12 13  2  0
 12 14  2  0
 12 15  1  0
 15 16  2  0
 16 17  1  0
 17 18  2  0
 18 19  1  0
 15 20  1  0
 19 20  2  0
 19 21  1  0
 21 22  1  0
 18 23  1  0
 22 23  1  0
 11 24  1  0
  8 25  1  0
 24 25  1  0
M  END
