SAD-SAT-6b5a89f0-1-nitrile
     RDKit          3D

  8  8  0  0  0  0  0  0  0  0999 V2000
    7.1320   -3.4310   19.7390 C   0  0  0  0  0  0  0  0  0  0  0  0
    6.0150   -3.3490   19.1470 N   0  0  0  0  0  0  0  0  0  0  0  0
    7.3370   -3.2370   21.0930 N   0  0  0  0  0  0  0  0  0  0  0  0
    6.3420   -3.2550   22.0030 C   0  0  0  0  0  0  0  0  0  0  0  0
    5.2970   -4.3790   22.1480 C   0  0  0  0  0  0  0  0  0  0  0  0
    4.0790   -4.2010   23.4060 S   0  0  0  0  0  0  0  0  0  0  0  0
    4.9520   -2.7480   23.9000 C   0  0  0  0  0  0  0  0  0  0  0  0
    6.0760   -2.1800   23.0530 C   0  0  0  0  0  0  0  0  0  0  0  0
  1  2  2  3
  1  3  1  0
  3  4  1  0
  4  5  2  0
  5  6  1  0
  6  7  1  0
  4  8  1  0
  7  8  1  0
M  END
