SAD-SAT-29425be4-4-chloroacetamide
     RDKit          3D

 27 29  0  0  0  0  0  0  0  0999 V2000
    6.7890   -3.1310   19.1070 C   0  0  0  0  0  0  0  0  0  0  0  0
    5.8070   -3.7350   20.0950 C   0  0  0  0  0  0  0  0  0  0  0  0
    5.3730   -4.8700   19.9710 O   0  0  0  0  0  0  0  0  0  0  0  0
    5.3730   -2.9390   21.1740 N   0  0  0  0  0  0  0  0  0  0  0  0
    5.2110   -3.5700   22.5080 C   0  0  0  0  0  0  0  0  0  0  0  0
    6.3730   -3.1460   23.4010 C   0  0  0  0  0  0  0  0  0  0  0  0
    7.5360   -2.6700   22.5170 C   0  0  0  0  0  0  0  0  0  0  0  0
    8.8270   -2.5530   23.3190 C   0  0  0  0  0  0  0  0  0  0  0  0
    9.1810   -3.4700   24.0370 O   0  0  0  0  0  0  0  0  0  0  0  0
    9.6000   -1.3980   23.2130 N   0  0  0  0  0  0  0  0  0  0  0  0
    8.9120   -0.1280   23.4730 C   0  0  0  0  0  0  0  0  0  0  0  0
    9.6460    0.7240   24.4570 C   0  0  0  0  0  0  0  0  0  0  0  0
    9.3700    2.0620   24.6040 C   0  0  0  0  0  0  0  0  0  0  0  0
    9.4050    0.0600   25.8250 C   0  0  0  0  0  0  0  0  0  0  0  0
   11.1080    0.5910   24.0670 C   0  0  0  0  0  0  0  0  0  0  0  0
   12.2490   -0.1930   24.5190 C   0  0  0  0  0  0  0  0  0  0  0  0
   13.3800    0.0090   23.8250 O   0  0  0  0  0  0  0  0  0  0  0  0
   12.9970    0.9740   22.8580 C   0  0  0  0  0  0  0  0  0  0  0  0
   13.8970    1.3780   21.8720 C   0  0  0  0  0  0  0  0  0  0  0  0
   13.9860    0.3600   20.9880 C   0  0  0  0  0  0  0  0  0  0  0  0
   14.7720    0.2950   19.6900 C   0  0  0  0  0  0  0  0  0  0  0  0
   15.6340    1.5110   19.2740 C   0  0  0  0  0  0  0  0  0  0  0  0
   15.5670    2.7150   20.1630 C   0  0  0  0  0  0  0  0  0  0  0  0
   14.6570    2.5720   21.5580 C   0  0  0  0  0  0  0  0  0  0  0  0
   11.6330    1.3590   22.9950 N   0  0  0  0  0  0  0  0  0  0  0  0
    7.1690   -1.3750   21.7580 C   0  0  0  0  0  0  0  0  0  0  0  0
    5.7650   -1.5280   21.1760 C   0  0  0  0  0  0  0  0  0  0  0  0
  1  2  1  0
  2  3  2  0
  2  4  1  0
  4  5  1  0
  5  6  1  0
  6  7  1  0
  7  8  1  0
  8  9  2  0
  8 10  1  0
 10 11  1  0
 12 11  1  0
 12 13  1  0
 12 14  1  0
 12 15  1  0
 15 16  2  0
 16 17  1  0
 17 18  1  0
 18 19  1  0
 19 20  2  0
 20 21  1  0
 21 22  2  0
 22 23  1  0
 19 24  1  0
 23 24  2  0
 15 25  1  0
 18 25  2  0
  7 26  1  0
  4 27  1  0
 26 27  1  0
M  END
