SAD-SAT-29425be4-26-acrylamide
     RDKit          3D

 31 33  0  0  0  0  0  0  0  0999 V2000
    6.5150   -4.4830   20.1770 C   0  0  0  0  0  0  0  0  0  0  0  0
    6.5550   -4.4400   21.7060 C   0  0  0  0  0  0  0  0  0  0  0  0
    5.9580   -3.1530   22.1770 C   0  0  0  0  0  0  0  0  0  0  0  0
    4.8840   -3.7260   21.8700 O   0  0  0  0  0  0  0  0  0  0  0  0
    7.3250   -2.9320   22.3580 N   0  0  0  0  0  0  0  0  0  0  0  0
    7.9670   -3.0400   23.6830 C   0  0  0  0  0  0  0  0  0  0  0  0
    9.4760   -3.0120   23.3640 C   0  0  0  0  0  0  0  0  0  0  0  0
    9.6380   -1.5070   23.0750 C   0  0  0  0  0  0  0  0  0  0  0  0
    9.3090   -0.8110   24.4620 C   0  0  0  0  0  0  0  0  0  0  0  0
   10.2340   -0.7200   25.2740 O   0  0  0  0  0  0  0  0  0  0  0  0
    7.9750   -0.2540   24.8210 N   0  0  0  0  0  0  0  0  0  0  0  0
    7.6390    1.0560   24.2340 C   0  0  0  0  0  0  0  0  0  0  0  0
    6.2640    1.1210   23.5210 C   0  0  0  0  0  0  0  0  0  0  0  0
    5.2920    0.2470   23.6380 N   0  0  0  0  0  0  0  0  0  0  0  0
    5.4370   -0.4830   22.4720 C   0  0  0  0  0  0  0  0  0  0  0  0
    5.2910    0.1790   21.0930 C   0  0  0  0  0  0  0  0  0  0  0  0
    4.9520    1.4860   21.2020 O   0  0  0  0  0  0  0  0  0  0  0  0
    3.6380    1.8380   20.7280 C   0  0  0  0  0  0  0  0  0  0  0  0
    4.5340    2.1610   19.6870 C   0  0  0  0  0  0  0  0  0  0  0  0
    3.4480    2.6140   18.9020 C   0  0  0  0  0  0  0  0  0  0  0  0
    2.8070    2.0880   20.3580 C   0  0  0  0  0  0  0  0  0  0  0  0
    1.2990    2.2880   20.3060 C   0  0  0  0  0  0  0  0  0  0  0  0
    2.6470    2.3790   19.7030 C   0  0  0  0  0  0  0  0  0  0  0  0
    5.4440   -0.5400   24.9190 C   0  0  1  0  0  0  0  0  0  0  0  0
    4.3580   -1.5720   25.2060 C   0  0  0  0  0  0  0  0  0  0  0  0
    4.8030   -2.4730   26.3550 C   0  0  0  0  0  0  0  0  0  0  0  0
    3.0060   -0.9680   25.6120 C   0  0  0  0  0  0  0  0  0  0  0  0
    4.0930   -2.5450   24.0330 C   0  0  0  0  0  0  0  0  0  0  0  0
    6.8640   -1.1770   25.0520 C   0  0  0  0  0  0  0  0  0  0  0  0
    8.7460   -1.0920   21.9150 C   0  0  0  0  0  0  0  0  0  0  0  0
    8.1450   -2.2070   21.3700 C   0  0  0  0  0  0  0  0  0  0  0  0
  1  2  1  0
  2  3  1  0
  3  4  2  0
  3  5  1  0
  5  6  1  0
  6  7  1  0
  7  8  1  0
  8  9  1  0
  9 10  2  0
  9 11  1  0
 11 12  1  0
 12 13  1  0
 13 14  1  0
 14 15  1  0
 15 16  1  0
 16 17  1  0
 17 18  1  0
 18 19  2  0
 19 20  1  0
 20 21  2  0
 21 22  1  0
 18 23  1  0
 22 23  2  0
 14 24  1  0
 24 25  1  6
 25 26  1  0
 25 27  1  0
 25 28  1  0
 11 29  1  0
 24 29  1  0
  8 30  1  0
  5 31  1  0
 30 31  1  0
M  END
