SAD-SAT-1b030f84-6-acrylamide
     RDKit          3D

 21 22  0  0  0  0  0  0  0  0999 V2000
    7.3980   -5.2480   21.8380 C   0  0  0  0  0  0  0  0  0  0  0  0
    6.2070   -5.0560   22.8530 C   0  0  0  0  0  0  0  0  0  0  0  0
    5.0390   -4.1960   22.3420 C   0  0  0  0  0  0  0  0  0  0  0  0
    4.4470   -5.2630   22.1870 O   0  0  0  0  0  0  0  0  0  0  0  0
    5.8970   -3.1660   22.6000 N   0  0  0  0  0  0  0  0  0  0  0  0
    5.4380   -1.9170   22.0320 C   0  0  0  0  0  0  0  0  0  0  0  0
    5.3180   -2.0260   20.2490 S   0  0  0  0  0  0  0  0  0  0  0  0
    6.9710   -2.4730   19.9520 C   0  0  0  0  0  0  0  0  0  0  0  0
    7.7600   -2.5840   21.2000 N   0  0  0  0  0  0  0  0  0  0  0  0
    8.5740   -1.5480   21.4480 C   0  0  0  0  0  0  0  0  0  0  0  0
    8.4300   -0.4500   20.9140 O   0  0  0  0  0  0  0  0  0  0  0  0
    9.6420   -1.8660   22.4690 C   0  0  0  0  0  0  0  0  0  0  0  0
    9.5730   -2.8930   23.1460 O   0  0  0  0  0  0  0  0  0  0  0  0
   10.6130   -0.9400   22.5960 C   0  0  0  0  0  0  0  0  0  0  0  0
   11.9530   -1.2840   22.5490 C   0  0  0  0  0  0  0  0  0  0  0  0
   12.8950   -0.2880   22.6910 C   0  0  0  0  0  0  0  0  0  0  0  0
   12.4400    1.1070   22.8700 C   0  0  0  0  0  0  0  0  0  0  0  0
   11.0890    1.4050   22.8940 C   0  0  0  0  0  0  0  0  0  0  0  0
   10.5560    3.0380   23.0720 Cl  0  0  0  0  0  0  0  0  0  0  0  0
   10.1740    0.3760   22.7660 C   0  0  0  0  0  0  0  0  0  0  0  0
    7.3080   -3.2600   22.4180 C   0  0  0  0  0  0  0  0  0  0  0  0
  1  2  1  0
  2  3  1  0
  3  4  2  0
  3  5  1  0
  5  6  1  0
  6  7  1  0
  7  8  1  0
  8  9  1  0
  9 10  1  0
 10 11  2  0
 10 12  1  0
 12 13  2  0
 12 14  1  0
 14 15  2  0
 15 16  1  0
 16 17  2  0
 17 18  1  0
 18 19  1  0
 14 20  1  0
 18 20  2  0
  5 21  1  0
  9 21  1  0
M  END
