SAD-SAT-f0a2747f-4-vinylsulfonamide
     RDKit          3D

 25 27  0  0  0  0  0  0  0  0999 V2000
    7.6900   -3.3140   19.4170 C   0  0  0  0  0  0  0  0  0  0  0  0
    7.2660   -3.4100   20.8810 C   0  0  0  0  0  0  0  0  0  0  0  0
    5.7430   -4.3160   21.0070 S   0  0  0  0  0  0  0  0  0  0  0  0
    4.8300   -3.5980   21.8530 O   0  0  0  0  0  0  0  0  0  0  0  0
    5.3290   -4.6400   19.6660 O   0  0  0  0  0  0  0  0  0  0  0  0
    6.2310   -5.7460   21.7680 N   0  0  0  0  0  0  0  0  0  0  0  0
    7.1160   -5.5590   22.8900 C   0  0  0  0  0  0  0  0  0  0  0  0
    8.4810   -5.4230   22.6860 C   0  0  0  0  0  0  0  0  0  0  0  0
    9.3720   -5.2370   23.7060 C   0  0  0  0  0  0  0  0  0  0  0  0
    8.9200   -5.1790   25.1020 C   0  0  0  0  0  0  0  0  0  0  0  0
    7.5490   -5.3170   25.3240 C   0  0  0  0  0  0  0  0  0  0  0  0
    7.1040   -5.2740   26.6390 C   0  0  0  0  0  0  0  0  0  0  0  0
    7.4090   -5.2790   27.9450 N   0  0  0  0  0  0  0  0  0  0  0  0
    8.2720   -4.2000   28.3190 C   0  0  0  0  0  0  0  0  0  0  0  0
    9.8200   -4.4970   28.6830 C   0  0  0  0  0  0  0  0  0  0  0  0
   10.7800   -5.6620   29.1730 N   0  0  0  0  0  0  0  0  0  0  0  0
   11.8210   -6.6150   32.0460 C   0  0  0  0  0  0  0  0  0  0  0  0
   12.2000   -6.6030   33.8540 C   0  0  0  0  0  0  0  0  0  0  0  0
   12.8950   -7.6540   34.6650 C   0  0  0  0  0  0  0  0  0  0  0  0
   13.3560   -8.8020   34.1030 C   0  0  0  0  0  0  0  0  0  0  0  0
   13.1750   -9.0090   32.7800 C   0  0  0  0  0  0  0  0  0  0  0  0
   12.5260   -8.1290   31.8830 N   0  0  0  0  0  0  0  0  0  0  0  0
    9.6840   -5.9440   28.1450 C   0  0  0  0  0  0  0  0  0  0  0  0
    8.3200   -6.3240   28.1230 C   0  0  0  0  0  0  0  0  0  0  0  0
    6.6610   -5.5020   24.2250 C   0  0  0  0  0  0  0  0  0  0  0  0
  1  2  1  0
  2  3  1  0
  3  4  2  0
  3  5  2  0
  3  6  1  0
  6  7  1  0
  7  8  2  0
  8  9  1  0
  9 10  2  0
 10 11  1  0
 11 12  1  0
 12 13  1  0
 13 14  1  0
 14 15  1  0
 15 16  1  0
 16 17  1  0
 17 18  2  0
 18 19  1  0
 19 20  2  0
 20 21  1  0
 17 22  1  0
 21 22  2  0
 16 23  1  0
 13 24  1  0
 23 24  1  0
  7 25  1  0
 11 25  2  0
M  END
