SAD-SAT-65574d3f-8-acrylamide
     RDKit          3D

 21 22  0  0  0  0  0  0  0  0999 V2000
    7.2000   -3.0570   19.1010 C   0  0  0  0  0  0  0  0  0  0  0  0
    7.0880   -2.6750   20.5800 C   0  0  0  0  0  0  0  0  0  0  0  0
    5.7060   -3.0770   21.0150 C   0  0  0  0  0  0  0  0  0  0  0  0
    4.8640   -3.1530   20.1500 O   0  0  0  0  0  0  0  0  0  0  0  0
    5.4060   -3.3670   22.3550 N   0  0  0  0  0  0  0  0  0  0  0  0
    5.4560   -2.3070   23.3800 C   0  0  0  0  0  0  0  0  0  0  0  0
    4.4400   -2.4580   24.5490 C   0  0  0  0  0  0  0  0  0  0  0  0
    3.3780   -1.4110   25.3450 C   0  0  0  0  0  0  0  0  0  0  0  0
    2.1020   -1.3280   26.4570 C   0  0  0  0  0  0  0  0  0  0  0  0
    1.8750   -2.4000   25.8130 C   0  0  0  0  0  0  0  0  0  0  0  0
    2.8760   -2.7490   25.1680 C   0  0  0  0  0  0  0  0  0  0  0  0
    4.2070   -2.8890   25.6900 C   0  0  0  0  0  0  0  0  0  0  0  0
    5.9210   -3.2760   25.5110 S   0  0  0  0  0  0  0  0  0  0  0  0
    6.6850   -2.1050   25.1420 O   0  0  0  0  0  0  0  0  0  0  0  0
    6.2300   -4.0070   26.7100 O   0  0  0  0  0  0  0  0  0  0  0  0
    5.8760   -4.4140   24.2840 N   0  0  0  0  0  0  0  0  0  0  0  0
    4.9130   -5.5260   24.4630 C   0  0  0  0  0  0  0  0  0  0  0  0
    4.7600   -6.3690   23.3640 C   0  0  0  0  0  0  0  0  0  0  0  0
    6.0120   -7.0100   23.1090 O   0  0  0  0  0  0  0  0  0  0  0  0
    7.1130   -6.1430   22.7990 C   0  0  0  0  0  0  0  0  0  0  0  0
    7.1080   -4.7740   23.5410 C   0  0  0  0  0  0  0  0  0  0  0  0
  1  2  1  0
  2  3  1  0
  3  4  2  0
  3  5  1  0
  5  6  1  0
  6  7  1  0
  7  8  2  0
  8  9  1  0
  9 10  2  0
 10 11  1  0
  7 12  1  0
 11 12  2  0
 13 12  1  0
 13 14  2  0
 13 15  2  0
 13 16  1  0
 16 17  1  0
 17 18  1  0
 18 19  1  0
 19 20  1  0
 16 21  1  0
 20 21  1  0
M  END
