SAD-SAT-2ceae68f-3-nitrile
     RDKit          3D

 29 31  0  0  0  0  0  0  0  0999 V2000
    6.4310   -4.2750   19.9650 C   0  0  0  0  0  0  0  0  0  0  0  0
    5.8160   -5.3990   20.0440 N   0  0  0  0  0  0  0  0  0  0  0  0
    5.9350   -3.0770   20.3520 N   0  0  0  0  0  0  0  0  0  0  0  0
    5.5270   -2.1880   19.4310 C   0  0  0  0  0  0  0  0  0  0  0  0
    5.3500   -0.7550   19.9480 C   0  0  0  0  0  0  0  0  0  0  0  0
    5.3880   -0.6310   21.4560 C   0  0  0  0  0  0  0  0  0  0  0  0
    5.2350    0.7390   22.0160 C   0  0  0  0  0  0  0  0  0  0  0  0
    5.0630    1.8830   21.2400 C   0  0  0  0  0  0  0  0  0  0  0  0
    4.9480    3.1080   21.8920 C   0  0  0  0  0  0  0  0  0  0  0  0
    3.9300    3.8060   21.8180 O   0  0  0  0  0  0  0  0  0  0  0  0
    6.1050    3.3740   22.5930 N   0  0  0  0  0  0  0  0  0  0  0  0
    7.2740    3.9160   21.9180 C   0  0  0  0  0  0  0  0  0  0  0  0
    8.4000    3.8660   22.7330 C   0  0  0  0  0  0  0  0  0  0  0  0
    8.7420    2.5620   23.0430 N   0  0  0  0  0  0  0  0  0  0  0  0
    9.9870    2.4470   24.1880 S   0  0  0  0  0  0  0  0  0  0  0  0
   10.3510    3.8220   24.4520 O   0  0  0  0  0  0  0  0  0  0  0  0
    9.4530    1.5790   25.2150 O   0  0  0  0  0  0  0  0  0  0  0  0
   11.2810    1.5820   23.4390 C   0  0  0  0  0  0  0  0  0  0  0  0
   11.2950    0.0390   23.3100 C   0  0  0  0  0  0  0  0  0  0  0  0
   12.2190   -1.0050   22.7300 C   0  0  0  0  0  0  0  0  0  0  0  0
   13.2570   -1.6910   22.1160 C   0  0  0  0  0  0  0  0  0  0  0  0
   12.9160    0.0810   22.4670 C   0  0  0  0  0  0  0  0  0  0  0  0
   12.1870    1.0220   22.9230 C   0  0  0  0  0  0  0  0  0  0  0  0
   12.4330    2.2700   22.8800 C   0  0  0  0  0  0  0  0  0  0  0  0
   12.1670    3.6220   23.1110 C   0  0  0  0  0  0  0  0  0  0  0  0
    7.6590    1.7930   23.3640 C   0  0  0  0  0  0  0  0  0  0  0  0
    6.4510    2.6880   23.7150 C   0  0  0  0  0  0  0  0  0  0  0  0
    5.0190    1.7700   19.8320 C   0  0  0  0  0  0  0  0  0  0  0  0
    5.1690    0.3850   19.1470 C   0  0  0  0  0  0  0  0  0  0  0  0
  1  2  2  3
  1  3  1  0
  3  4  1  0
  4  5  1  0
  5  6  2  0
  6  7  1  0
  7  8  2  0
  8  9  1  0
  9 10  2  0
  9 11  1  0
 11 12  1  0
 12 13  1  0
 13 14  1  0
 14 15  1  0
 15 16  2  0
 15 17  2  0
 15 18  1  0
 18 19  2  0
 19 20  1  0
 20 21  1  0
 20 22  2  0
 22 23  1  0
 18 24  1  0
 23 24  2  0
 24 25  1  0
 14 26  1  0
 11 27  1  0
 26 27  1  0
  8 28  1  0
  5 29  1  0
 28 29  2  0
M  END
