SAD-SAT-65574d3f-10-nitrile
     RDKit          3D

 20 21  0  0  0  0  0  0  0  0999 V2000
    6.4160   -4.4420   20.3070 C   0  0  0  0  0  0  0  0  0  0  0  0
    5.3070   -4.1350   19.7690 N   0  0  0  0  0  0  0  0  0  0  0  0
    6.5500   -5.0570   21.5550 N   0  0  0  0  0  0  0  0  0  0  0  0
    7.2610   -4.4410   22.6860 C   0  0  0  0  0  0  0  0  0  0  0  0
    6.3350   -4.0550   23.8470 C   0  0  0  0  0  0  0  0  0  0  0  0
    5.4360   -5.1540   24.2780 N   0  0  0  0  0  0  0  0  0  0  0  0
    4.5940   -4.9760   25.5220 C   0  0  0  0  0  0  0  0  0  0  0  0
    3.4590   -3.9380   25.4780 C   0  0  0  0  0  0  0  0  0  0  0  0
    3.7720   -2.4850   25.9930 C   0  0  0  0  0  0  0  0  0  0  0  0
    2.7310   -1.3280   26.0320 C   0  0  0  0  0  0  0  0  0  0  0  0
    3.0620   -0.0320   26.5040 O   0  0  0  0  0  0  0  0  0  0  0  0
    2.4950    1.0640   25.7880 C   0  0  0  0  0  0  0  0  0  0  0  0
    1.3440   -1.6400   25.5440 C   0  0  0  0  0  0  0  0  0  0  0  0
    0.2860   -0.6980   25.5220 O   0  0  0  0  0  0  0  0  0  0  0  0
   -0.9920   -1.2790   25.2770 C   0  0  0  0  0  0  0  0  0  0  0  0
    1.4040   -3.0470   25.1430 C   0  0  0  0  0  0  0  0  0  0  0  0
    2.1550   -4.1770   25.0210 C   0  0  0  0  0  0  0  0  0  0  0  0
    1.6480   -5.3700   24.5120 C   0  0  0  0  0  0  0  0  0  0  0  0
    4.7870   -5.7390   23.1700 C   0  0  0  0  0  0  0  0  0  0  0  0
    5.6310   -6.1450   21.9400 C   0  0  0  0  0  0  0  0  0  0  0  0
  1  2  2  3
  1  3  1  0
  3  4  1  0
  4  5  1  0
  5  6  1  0
  6  7  1  0
  7  8  1  0
  8  9  2  0
  9 10  1  0
 10 11  1  0
 11 12  1  0
 10 13  2  0
 13 14  1  0
 14 15  1  0
 13 16  1  0
  8 17  1  0
 16 17  2  0
 17 18  1  0
  6 19  1  0
  3 20  1  0
 19 20  1  0
M  END
