SAD-SAT-65574d3f-6-nitrile
     RDKit          3D

 11 11  0  0  0  0  0  0  0  0999 V2000
    6.4820   -4.4480   20.3000 C   0  0  0  0  0  0  0  0  0  0  0  0
    5.3620   -4.1560   19.8230 N   0  0  0  0  0  0  0  0  0  0  0  0
    6.6510   -4.9620   21.5940 N   0  0  0  0  0  0  0  0  0  0  0  0
    7.3960   -4.2700   22.6560 C   0  0  0  0  0  0  0  0  0  0  0  0
    6.5120   -3.8760   23.8280 C   0  0  0  0  0  0  0  0  0  0  0  0
    5.5940   -5.0030   24.2640 C   0  0  0  0  0  0  0  0  0  0  0  0
    4.8640   -5.6710   23.1200 C   0  0  2  0  0  0  0  0  0  0  0  0
    3.9270   -6.7220   23.7320 C   0  0  0  0  0  0  0  0  0  0  0  0
    2.9230   -7.4620   23.1430 N   0  0  0  0  0  0  0  0  0  0  0  0
    4.2230   -6.9150   25.1190 O   0  0  0  0  0  0  0  0  0  0  0  0
    5.7160   -6.0300   22.0430 C   0  0  0  0  0  0  0  0  0  0  0  0
  1  2  2  3
  1  3  1  0
  3  4  1  0
  4  5  1  0
  5  6  1  0
  6  7  1  0
  7  8  1  1
  8  9  1  0
  8 10  2  0
  3 11  1  0
  7 11  1  0
M  END
