SAD-SAT-135344c3-10
     RDKit          3D

 22 23  0  0  0  0  0  0  0  0999 V2000
   11.3030    4.1700   22.2460 N   0  0  0  0  0  0  0  0  0  0  0  0
   10.4670    3.3010   23.4230 S   0  0  0  0  0  0  0  0  0  0  0  0
   10.9620    3.8010   24.6580 O   0  0  0  0  0  0  0  0  0  0  0  0
    9.0560    3.3880   23.1280 O   0  0  0  0  0  0  0  0  0  0  0  0
   10.9980    1.6190   23.1340 C   0  0  0  0  0  0  0  0  0  0  0  0
   12.4120    2.0270   23.0520 C   0  0  0  0  0  0  0  0  0  0  0  0
   13.4850    0.9980   22.7770 C   0  0  0  0  0  0  0  0  0  0  0  0
   13.2690   -0.4120   22.5780 C   0  0  0  0  0  0  0  0  0  0  0  0
   12.0150   -0.5270   22.6870 C   0  0  0  0  0  0  0  0  0  0  0  0
   11.0970   -1.6920   22.5740 C   0  0  0  0  0  0  0  0  0  0  0  0
    9.8210   -1.4210   23.3400 C   0  0  0  0  0  0  0  0  0  0  0  0
    8.6580   -1.5670   22.5050 N   0  0  0  0  0  0  0  0  0  0  0  0
    8.2150   -0.4720   21.5890 C   0  0  0  0  0  0  0  0  0  0  0  0
    8.8580    0.5580   21.3780 O   0  0  0  0  0  0  0  0  0  0  0  0
    6.8970   -0.8410   21.0260 N   0  0  0  0  0  0  0  0  0  0  0  0
    6.3610   -0.1220   20.0420 C   0  0  0  0  0  0  0  0  0  0  0  0
    5.0860    0.6940   20.2830 C   0  0  0  0  0  0  0  0  0  0  0  0
    4.5410    1.4870   19.1010 C   0  0  0  0  0  0  0  0  0  0  0  0
    5.2600    1.4040   17.8730 C   0  0  0  0  0  0  0  0  0  0  0  0
    6.3720    0.6840   17.6850 N   0  0  0  0  0  0  0  0  0  0  0  0
    6.9110   -0.0800   18.7840 C   0  0  0  0  0  0  0  0  0  0  0  0
   11.9320    0.7610   22.9110 C   0  0  0  0  0  0  0  0  0  0  0  0
  2  1  1  0
  2  3  2  0
  2  4  2  0
  2  5  1  0
  5  6  2  0
  6  7  1  0
  7  8  2  0
  8  9  1  0
  9 10  1  0
 10 11  1  0
 11 12  1  0
 12 13  1  0
 13 14  2  0
 13 15  1  0
 15 16  1  0
 16 17  2  0
 17 18  1  0
 18 19  2  0
 19 20  1  0
 16 21  1  0
 20 21  2  0
  5 22  1  0
  9 22  2  0
M  END
