SAD-SAT-24589cd1-8
     RDKit          3D

 20 21  0  0  0  0  0  0  0  0999 V2000
    6.9500  -19.1360   -1.6250 N   0  0  0  0  0  0  0  0  0  0  0  0
    7.2620  -19.9290   -2.4400 C   0  0  0  0  0  0  0  0  0  0  0  0
    7.6060  -20.8240   -3.5310 C   0  0  0  0  0  0  0  0  0  0  0  0
    7.9750  -21.7610   -2.3600 C   0  0  0  0  0  0  0  0  0  0  0  0
    7.7730  -21.2580   -0.8260 C   0  0  0  0  0  0  0  0  0  0  0  0
    7.1900  -19.7600   -1.1820 C   0  0  0  0  0  0  0  0  0  0  0  0
    7.0020  -19.2800   -2.6310 C   0  0  0  0  0  0  0  0  0  0  0  0
    7.5120  -20.6910   -2.2430 C   0  0  0  0  0  0  0  0  0  0  0  0
    6.1740  -21.5470   -2.1940 C   0  0  0  0  0  0  0  0  0  0  0  0
    5.9260  -22.4710   -2.9690 O   0  0  0  0  0  0  0  0  0  0  0  0
    5.3230  -21.0160   -1.0660 N   0  0  0  0  0  0  0  0  0  0  0  0
    4.2690  -21.9430   -0.6310 C   0  0  0  0  0  0  0  0  0  0  0  0
    4.6120  -23.4160   -0.5570 C   0  0  0  0  0  0  0  0  0  0  0  0
    3.7240  -24.3660   -0.1710 N   0  0  0  0  0  0  0  0  0  0  0  0
    2.4830  -23.9380    0.1560 C   0  0  0  0  0  0  0  0  0  0  0  0
    2.0660  -22.6000    0.1240 C   0  0  0  0  0  0  0  0  0  0  0  0
    2.9570  -21.5500   -0.2760 C   0  0  0  0  0  0  0  0  0  0  0  0
    2.5280  -20.2120   -0.3020 C   0  0  0  0  0  0  0  0  0  0  0  0
    1.1320  -20.0920   -0.7100 N   0  0  0  0  0  0  0  0  0  0  0  0
    7.1540  -19.6750   -3.9070 C   0  0  0  0  0  0  0  0  0  0  0  0
  1  2  3  0
  2  3  1  0
  3  4  2  0
  4  5  1  0
  5  6  2  0
  6  7  1  0
  7  8  1  0
  8  9  1  0
  9 10  2  0
  9 11  1  0
 11 12  1  0
 12 13  2  0
 13 14  1  0
 14 15  2  0
 15 16  1  0
 12 17  1  0
 16 17  2  0
 17 18  1  0
 18 19  1  0
  3 20  1  0
  7 20  2  0
M  END
