SAD-SAT-29425be4-19-chloroacetamide
     RDKit          3D

 26 27  0  0  0  0  0  0  0  0999 V2000
    6.8480   -3.0930   19.0640 C   0  0  0  0  0  0  0  0  0  0  0  0
    5.7750   -3.6360   20.0350 C   0  0  0  0  0  0  0  0  0  0  0  0
    5.3420   -4.7760   19.9460 O   0  0  0  0  0  0  0  0  0  0  0  0
    5.2450   -2.7950   21.0120 N   0  0  0  0  0  0  0  0  0  0  0  0
    5.6000   -1.3750   21.1080 C   0  0  0  0  0  0  0  0  0  0  0  0
    7.1070   -1.2960   21.4820 C   0  0  0  0  0  0  0  0  0  0  0  0
    7.3270   -2.5090   22.4060 C   0  0  0  0  0  0  0  0  0  0  0  0
    8.5200   -1.9080   23.1570 C   0  0  0  0  0  0  0  0  0  0  0  0
    9.0100   -2.5560   24.0850 O   0  0  0  0  0  0  0  0  0  0  0  0
    9.0020   -0.5850   22.7280 N   0  0  0  0  0  0  0  0  0  0  0  0
    9.1190    0.4970   23.7180 C   0  0  0  0  0  0  0  0  0  0  0  0
   10.4020    0.5310   24.5840 C   0  0  2  0  0  0  0  0  0  0  0  0
   11.5600    0.5430   23.5960 C   0  0  0  0  0  0  0  0  0  0  0  0
   11.8540   -0.7820   22.8900 C   0  0  0  0  0  0  0  0  0  0  0  0
   12.9110   -0.8110   21.8160 C   0  0  0  0  0  0  0  0  0  0  0  0
   13.6550    0.4940   21.4610 C   0  0  0  0  0  0  0  0  0  0  0  0
   14.4550    0.2480   20.2200 N   0  0  0  0  0  0  0  0  0  0  0  0
   15.5350    1.0460   19.4850 C   0  0  0  0  0  0  0  0  0  0  0  0
   14.1950   -0.8290   19.7550 C   0  0  0  0  0  0  0  0  0  0  0  0
   13.4860    1.6770   22.1340 C   0  0  0  0  0  0  0  0  0  0  0  0
   12.4340    1.7710   23.2180 C   0  0  0  0  0  0  0  0  0  0  0  0
   10.6310   -0.3450   25.4840 N   0  0  0  0  0  0  0  0  0  0  0  0
    9.4670   -0.3930   26.2340 C   0  0  0  0  0  0  0  0  0  0  0  0
   11.0500   -1.6320   24.9300 C   0  0  0  0  0  0  0  0  0  0  0  0
    6.1240   -2.7730   23.2960 C   0  0  0  0  0  0  0  0  0  0  0  0
    5.0130   -3.2900   22.4180 C   0  0  0  0  0  0  0  0  0  0  0  0
  1  2  1  0
  2  3  2  0
  2  4  1  0
  4  5  1  0
  5  6  1  0
  6  7  1  0
  7  8  1  0
  8  9  2  0
  8 10  1  0
 10 11  1  0
 12 11  1  6
 12 13  1  0
 13 14  2  0
 14 15  1  0
 15 16  2  0
 16 17  1  0
 17 18  1  0
 17 19  1  0
 16 20  1  0
 13 21  1  0
 20 21  2  0
 12 22  1  0
 22 23  1  0
 22 24  1  0
  7 25  1  0
  4 26  1  0
 25 26  1  0
M  END
