SAD-SAT-29425be4-27-vinylsulfonamide
     RDKit          3D

 30 32  0  0  0  0  0  0  0  0999 V2000
    8.4590   -3.7410   20.2230 C   0  0  0  0  0  0  0  0  0  0  0  0
    7.1710   -3.0610   19.7850 C   0  0  0  0  0  0  0  0  0  0  0  0
    5.7190   -3.7760   20.4960 S   0  0  0  0  0  0  0  0  0  0  0  0
    4.9150   -4.2480   19.4280 O   0  0  0  0  0  0  0  0  0  0  0  0
    5.1890   -2.7120   21.2920 O   0  0  0  0  0  0  0  0  0  0  0  0
    5.9450   -5.1880   21.4730 N   0  0  0  0  0  0  0  0  0  0  0  0
    7.2390   -5.7740   21.8290 C   0  0  0  0  0  0  0  0  0  0  0  0
    7.5340   -5.1060   23.1630 C   0  0  0  0  0  0  0  0  0  0  0  0
    6.4580   -4.0200   23.1720 C   0  0  0  0  0  0  0  0  0  0  0  0
    7.1930   -3.2250   24.1890 C   0  0  0  0  0  0  0  0  0  0  0  0
    6.8580   -3.1100   25.3730 O   0  0  0  0  0  0  0  0  0  0  0  0
    8.3310   -2.6420   23.5440 N   0  0  0  0  0  0  0  0  0  0  0  0
    9.6440   -3.0570   23.9670 C   0  0  0  0  0  0  0  0  0  0  0  0
   10.4440   -1.8360   23.7690 C   0  0  0  0  0  0  0  0  0  0  0  0
   11.6230   -1.8600   22.8170 C   0  0  0  0  0  0  0  0  0  0  0  0
   12.3620   -0.5910   22.5790 C   0  0  0  0  0  0  0  0  0  0  0  0
   11.8960    0.6770   23.2970 C   0  0  0  0  0  0  0  0  0  0  0  0
   12.7020    1.7960   22.8950 C   0  0  0  0  0  0  0  0  0  0  0  0
   13.7670    0.8230   22.5650 C   0  0  0  0  0  0  0  0  0  0  0  0
   10.8640    0.7380   24.1800 C   0  0  0  0  0  0  0  0  0  0  0  0
   10.0820   -0.4860   24.4780 C   0  0  0  0  0  0  0  0  0  0  0  0
    8.3660   -2.1570   22.1450 C   0  0  0  0  0  0  0  0  0  0  0  0
    7.3670   -1.0800   21.7130 C   0  0  0  0  0  0  0  0  0  0  0  0
    7.4840   -0.6160   20.2740 C   0  0  0  0  0  0  0  0  0  0  0  0
    6.5210    0.4480   19.8340 C   0  0  0  0  0  0  0  0  0  0  0  0
    5.5450    0.9260   20.8880 C   0  0  0  0  0  0  0  0  0  0  0  0
    5.4960    0.4620   22.1620 N   0  0  0  0  0  0  0  0  0  0  0  0
    6.3900   -0.5160   22.5330 C   0  0  0  0  0  0  0  0  0  0  0  0
    5.0920   -4.5720   23.5060 C   0  0  0  0  0  0  0  0  0  0  0  0
    4.9040   -5.4480   22.4930 C   0  0  0  0  0  0  0  0  0  0  0  0
  1  2  1  0
  3  2  1  0
  3  4  2  0
  3  5  2  0
  3  6  1  0
  6  7  1  0
  7  8  1  0
  8  9  1  0
  9 10  1  0
 10 11  2  0
 10 12  1  0
 12 13  1  0
 13 14  1  0
 14 15  2  0
 15 16  1  0
 16 17  2  0
 17 18  1  0
 18 19  1  0
 17 20  1  0
 14 21  1  0
 20 21  2  0
 12 22  1  0
 22 23  1  0
 23 24  2  0
 24 25  1  0
 25 26  2  0
 26 27  1  0
 23 28  1  0
 27 28  2  0
  9 29  1  0
  6 30  1  0
 29 30  1  0
M  END
