SAD-SAT-2ceae68f-3-nitrile
     RDKit          3D

 29 31  0  0  0  0  0  0  0  0999 V2000
    6.4020   -3.8040   19.4810 C   0  0  0  0  0  0  0  0  0  0  0  0
    5.1450   -3.8660   19.5550 N   0  0  0  0  0  0  0  0  0  0  0  0
    6.9970   -2.7810   18.8010 N   0  0  0  0  0  0  0  0  0  0  0  0
    6.3840   -1.4420   18.7980 C   0  0  0  0  0  0  0  0  0  0  0  0
    6.2780   -1.3310   20.3300 C   0  0  0  0  0  0  0  0  0  0  0  0
    7.6060   -1.9860   20.7870 C   0  0  0  0  0  0  0  0  0  0  0  0
    7.8130   -2.0430   22.3110 C   0  0  0  0  0  0  0  0  0  0  0  0
    6.6670   -1.4350   23.1100 C   0  0  0  0  0  0  0  0  0  0  0  0
    7.2570   -1.6670   24.4820 C   0  0  0  0  0  0  0  0  0  0  0  0
    6.5780   -1.9560   25.4640 O   0  0  0  0  0  0  0  0  0  0  0  0
    8.7280   -1.4720   24.3580 N   0  0  0  0  0  0  0  0  0  0  0  0
    9.2150   -0.1420   23.9970 C   0  0  0  0  0  0  0  0  0  0  0  0
    9.9380   -0.2070   22.6990 C   0  0  0  0  0  0  0  0  0  0  0  0
   11.1570   -1.0620   22.8130 N   0  0  0  0  0  0  0  0  0  0  0  0
   12.4500   -0.1990   23.4800 S   0  0  0  0  0  0  0  0  0  0  0  0
   13.0750    0.5770   22.4290 O   0  0  0  0  0  0  0  0  0  0  0  0
   13.2000   -0.9830   24.4570 O   0  0  0  0  0  0  0  0  0  0  0  0
   11.4220    0.8380   24.4230 C   0  0  0  0  0  0  0  0  0  0  0  0
   11.6590   -0.4890   24.8600 C   0  0  0  0  0  0  0  0  0  0  0  0
   12.6420   -1.4030   24.0300 C   0  0  0  0  0  0  0  0  0  0  0  0
   13.0370   -2.6860   24.2540 C   0  0  0  0  0  0  0  0  0  0  0  0
   13.1030   -0.6250   22.9150 C   0  0  0  0  0  0  0  0  0  0  0  0
   12.3860    0.3960   23.3300 C   0  0  0  0  0  0  0  0  0  0  0  0
   11.8780    1.5920   23.3560 C   0  0  0  0  0  0  0  0  0  0  0  0
   11.8280    2.8420   22.7270 C   0  0  0  0  0  0  0  0  0  0  0  0
   10.8300   -2.2780   23.5290 C   0  0  0  0  0  0  0  0  0  0  0  0
    9.4550   -2.5320   23.6320 C   0  0  0  0  0  0  0  0  0  0  0  0
    5.4890   -0.8570   22.6600 C   0  0  0  0  0  0  0  0  0  0  0  0
    5.2790   -0.8020   21.1520 C   0  0  0  0  0  0  0  0  0  0  0  0
  1  2  2  3
  1  3  1  0
  3  4  1  0
  4  5  1  0
  5  6  2  0
  6  7  1  0
  7  8  2  0
  8  9  1  0
  9 10  2  0
  9 11  1  0
 11 12  1  0
 12 13  1  0
 13 14  1  0
 14 15  1  0
 15 16  2  0
 15 17  2  0
 15 18  1  0
 18 19  2  0
 19 20  1  0
 20 21  1  0
 20 22  2  0
 22 23  1  0
 18 24  1  0
 23 24  2  0
 24 25  1  0
 14 26  1  0
 11 27  1  0
 26 27  1  0
  8 28  1  0
  5 29  1  0
 28 29  2  0
M  END
