SAD-SAT-6b5a89f0-10-nitrile
     RDKit          3D

  8  8  0  0  0  0  0  0  0  0999 V2000
    6.9970   -3.5580   19.8820 C   0  0  0  0  0  0  0  0  0  0  0  0
    5.8870   -3.4760   19.2450 N   0  0  0  0  0  0  0  0  0  0  0  0
    7.1400   -3.9320   21.1980 N   0  0  0  0  0  0  0  0  0  0  0  0
    6.2320   -3.5350   22.2680 C   0  0  0  0  0  0  0  0  0  0  0  0
    6.1460   -2.3300   22.6440 C   0  0  0  0  0  0  0  0  0  0  0  0
    5.3070   -3.1890   23.3540 C   0  0  0  0  0  0  0  0  0  0  0  0
    6.0780   -4.7910   22.1390 S   0  0  0  0  0  0  0  0  0  0  0  0
    5.2290   -4.3570   23.1630 C   0  0  0  0  0  0  0  0  0  0  0  0
  1  2  2  3
  1  3  1  0
  3  4  1  0
  4  5  1  0
  5  6  2  0
  6  7  1  0
  4  8  2  0
  7  8  1  0
M  END
