SAD-SAT-65574d3f-8-chloroacetamide
     RDKit          3D

 20 21  0  0  0  0  0  0  0  0999 V2000
    7.3430   -4.1770   20.7210 C   0  0  0  0  0  0  0  0  0  0  0  0
    5.8840   -3.7190   20.6610 C   0  0  0  0  0  0  0  0  0  0  0  0
    5.1880   -3.9750   19.6610 O   0  0  0  0  0  0  0  0  0  0  0  0
    5.3290   -3.0240   21.7470 N   0  0  0  0  0  0  0  0  0  0  0  0
    4.7160   -3.6810   22.9080 C   0  0  0  0  0  0  0  0  0  0  0  0
    4.4250   -2.7960   24.1220 C   0  0  0  0  0  0  0  0  0  0  0  0
    4.3680   -1.2800   23.8830 C   0  0  0  0  0  0  0  0  0  0  0  0
    4.0650   -0.6520   25.2090 C   0  0  0  0  0  0  0  0  0  0  0  0
    3.8390   -1.1770   26.5560 C   0  0  0  0  0  0  0  0  0  0  0  0
    3.9290   -2.5680   26.6010 C   0  0  0  0  0  0  0  0  0  0  0  0
    4.2100   -3.3710   25.4490 C   0  0  0  0  0  0  0  0  0  0  0  0
    4.2810   -5.1210   25.7370 S   0  0  0  0  0  0  0  0  0  0  0  0
    4.6380   -5.3150   27.1220 O   0  0  0  0  0  0  0  0  0  0  0  0
    3.1000   -5.7320   25.1770 O   0  0  0  0  0  0  0  0  0  0  0  0
    5.5700   -5.6740   24.8230 N   0  0  0  0  0  0  0  0  0  0  0  0
    5.2820   -6.3530   23.5360 C   0  0  0  0  0  0  0  0  0  0  0  0
    6.3560   -6.5430   22.6690 C   0  0  0  0  0  0  0  0  0  0  0  0
    7.4760   -6.1810   23.0540 O   0  0  0  0  0  0  0  0  0  0  0  0
    7.4780   -4.8760   23.6580 C   0  0  0  0  0  0  0  0  0  0  0  0
    6.8240   -4.8920   24.8960 C   0  0  0  0  0  0  0  0  0  0  0  0
  1  2  1  0
  2  3  2  0
  2  4  1  0
  4  5  1  0
  5  6  1  0
  6  7  2  0
  7  8  1  0
  8  9  2  0
  9 10  1  0
  6 11  1  0
 10 11  2  0
 12 11  1  0
 12 13  2  0
 12 14  2  0
 12 15  1  0
 15 16  1  0
 16 17  1  0
 17 18  1  0
 18 19  1  0
 15 20  1  0
 19 20  1  0
M  END
