SAD-SAT-2ceae68f-9-vinylsulfonamide
     RDKit          3D

 21 22  0  0  0  0  0  0  0  0999 V2000
    7.7100   -4.2910   20.0820 C   0  0  0  0  0  0  0  0  0  0  0  0
    7.8990   -3.1260   20.9050 C   0  0  0  0  0  0  0  0  0  0  0  0
    6.4250   -2.1970   20.8790 S   0  0  0  0  0  0  0  0  0  0  0  0
    5.1220   -3.2660   21.1000 O   0  0  0  0  0  0  0  0  0  0  0  0
    6.4730   -1.5070   19.5740 O   0  0  0  0  0  0  0  0  0  0  0  0
    7.4000   -1.0790   21.9880 N   0  0  0  0  0  0  0  0  0  0  0  0
    8.9790   -0.5910   21.6630 C   0  0  0  0  0  0  0  0  0  0  0  0
   10.2870   -0.2560   22.5850 C   0  0  0  0  0  0  0  0  0  0  0  0
   11.6530    0.5810   23.4290 C   0  0  0  0  0  0  0  0  0  0  0  0
   11.1730   -0.4970   23.3180 C   0  0  0  0  0  0  0  0  0  0  0  0
   10.7740    0.7390   22.6970 C   0  0  0  0  0  0  0  0  0  0  0  0
   11.8170    2.0680   23.0940 S   0  0  0  0  0  0  0  0  0  0  0  0
   13.1930    1.6400   23.3840 O   0  0  0  0  0  0  0  0  0  0  0  0
   11.0680    2.9070   24.0550 O   0  0  0  0  0  0  0  0  0  0  0  0
   11.9770    3.1370   21.7690 N   0  0  0  0  0  0  0  0  0  0  0  0
   10.8320    3.8030   21.3450 C   0  0  0  0  0  0  0  0  0  0  0  0
   10.9230    4.6280   20.2170 C   0  0  0  0  0  0  0  0  0  0  0  0
   12.1780    5.2070   20.0080 O   0  0  0  0  0  0  0  0  0  0  0  0
   12.8660    5.2530   21.2800 C   0  0  0  0  0  0  0  0  0  0  0  0
   13.1210    3.9150   21.7030 C   0  0  0  0  0  0  0  0  0  0  0  0
    9.5790    1.0610   21.7610 S   0  0  0  0  0  0  0  0  0  0  0  0
  1  2  1  0
  2  3  1  0
  3  4  2  0
  3  5  2  0
  3  6  1  0
  6  7  1  0
  7  8  1  0
  8  9  2  0
  9 10  1  0
 10 11  2  0
 12 11  1  0
 12 13  2  0
 12 14  2  0
 12 15  1  0
 15 16  1  0
 16 17  1  0
 17 18  1  0
 18 19  1  0
 15 20  1  0
 19 20  1  0
  8 21  1  0
 11 21  1  0
M  END
