SAD-SAT-1b030f84-9-vinylsulfonamide
     RDKit          3D

 15 15  0  0  0  0  0  0  0  0999 V2000
    5.9410   -5.7150   20.1290 C   0  0  0  0  0  0  0  0  0  0  0  0
    6.0030   -6.2160   21.5950 C   0  0  0  0  0  0  0  0  0  0  0  0
    5.9060   -4.7520   22.5300 S   0  0  0  0  0  0  0  0  0  0  0  0
    4.9190   -3.8980   21.8900 O   0  0  0  0  0  0  0  0  0  0  0  0
    7.2800   -4.3620   22.7490 O   0  0  0  0  0  0  0  0  0  0  0  0
    5.2810   -5.1130   24.0570 N   0  0  0  0  0  0  0  0  0  0  0  0
    6.3090   -4.7440   25.0160 C   0  0  0  0  0  0  0  0  0  0  0  0
    6.8180   -3.3460   24.6640 C   0  0  0  0  0  0  0  0  0  0  0  0
    5.9330   -2.6380   23.7090 N   0  0  0  0  0  0  0  0  0  0  0  0
    6.4620   -2.2040   22.4700 C   0  0  0  0  0  0  0  0  0  0  0  0
    5.7090   -1.9140   21.5310 O   0  0  0  0  0  0  0  0  0  0  0  0
    7.9830   -2.0860   22.2580 C   0  0  0  0  0  0  0  0  0  0  0  0
    8.5200   -0.4220   22.6130 Cl  0  0  0  0  0  0  0  0  0  0  0  0
    4.5670   -2.9160   23.9440 C   0  0  0  0  0  0  0  0  0  0  0  0
    4.1380   -4.2160   24.2130 C   0  0  0  0  0  0  0  0  0  0  0  0
  1  2  1  0
  3  2  1  0
  3  4  2  0
  3  5  2  0
  3  6  1  0
  6  7  1  0
  7  8  1  0
  8  9  1  0
  9 10  1  0
 10 11  2  0
 10 12  1  0
 12 13  1  0
  9 14  1  0
  6 15  1  0
 14 15  1  0
M  END
