SAD-SAT-1b030f84-8-chloroacetamide
     RDKit          3D

 16 16  0  0  0  0  0  0  0  0999 V2000
    7.3880   -5.5180   20.9120 C   0  0  0  0  0  0  0  0  0  0  0  0
    5.9990   -5.4870   21.2730 C   0  0  0  0  0  0  0  0  0  0  0  0
    5.2700   -5.2910   20.2320 O   0  0  0  0  0  0  0  0  0  0  0  0
    5.6890   -5.6450   22.6200 N   0  0  0  0  0  0  0  0  0  0  0  0
    6.8420   -5.4690   23.4810 C   0  0  0  0  0  0  0  0  0  0  0  0
    7.3310   -4.1020   23.0520 C   0  0  0  0  0  0  0  0  0  0  0  0
    6.4370   -3.4220   22.2790 N   0  0  0  0  0  0  0  0  0  0  0  0
    6.7910   -3.1120   21.0050 C   0  0  0  0  0  0  0  0  0  0  0  0
    5.9860   -3.4180   20.1040 O   0  0  0  0  0  0  0  0  0  0  0  0
    8.0060   -2.4660   20.7200 C   0  0  0  0  0  0  0  0  0  0  0  0
    8.5310   -1.1080   21.6270 S   0  0  0  0  0  0  0  0  0  0  0  0
    7.8370   -1.2440   23.1590 N   0  0  0  0  0  0  0  0  0  0  0  0
    7.9430    0.0850   21.0490 O   0  0  0  0  0  0  0  0  0  0  0  0
    9.9660   -1.2190   21.8020 O   0  0  0  0  0  0  0  0  0  0  0  0
    5.0350   -3.5330   22.7590 C   0  0  0  0  0  0  0  0  0  0  0  0
    4.7700   -4.8410   23.1020 C   0  0  0  0  0  0  0  0  0  0  0  0
  1  2  1  0
  2  3  2  0
  2  4  1  0
  4  5  1  0
  5  6  1  0
  6  7  1  0
  7  8  1  0
  8  9  2  0
  8 10  1  0
 10 11  1  0
 11 12  1  0
 11 13  2  0
 11 14  2  0
  7 15  1  0
  4 16  1  0
 15 16  1  0
M  END
