SAD-SAT-1b030f84-6-nitrile
     RDKit          3D

 19 20  0  0  0  0  0  0  0  0999 V2000
    7.3440   -4.9010   20.4530 C   0  0  0  0  0  0  0  0  0  0  0  0
    6.4230   -5.7140   20.1420 N   0  0  0  0  0  0  0  0  0  0  0  0
    7.2030   -4.1510   21.5660 N   0  0  0  0  0  0  0  0  0  0  0  0
    7.0210   -4.7490   22.7740 C   0  0  0  0  0  0  0  0  0  0  0  0
    7.3560   -3.6600   24.0410 S   0  0  0  0  0  0  0  0  0  0  0  0
    6.3430   -2.3210   23.4190 C   0  0  0  0  0  0  0  0  0  0  0  0
    6.7030   -1.9990   22.1290 N   0  0  0  0  0  0  0  0  0  0  0  0
    8.0460   -1.4600   21.8560 C   0  0  0  0  0  0  0  0  0  0  0  0
    8.3200   -0.4090   20.9180 O   0  0  0  0  0  0  0  0  0  0  0  0
    9.2600   -1.9720   22.6060 C   0  0  0  0  0  0  0  0  0  0  0  0
    9.2720   -3.1160   23.0620 O   0  0  0  0  0  0  0  0  0  0  0  0
   10.2980   -1.0660   22.7620 C   0  0  0  0  0  0  0  0  0  0  0  0
   11.6390   -1.3820   22.4940 C   0  0  0  0  0  0  0  0  0  0  0  0
   12.6430   -0.4330   22.6700 C   0  0  0  0  0  0  0  0  0  0  0  0
   12.3160    0.8330   23.1010 C   0  0  0  0  0  0  0  0  0  0  0  0
   11.0020    1.1690   23.3610 C   0  0  0  0  0  0  0  0  0  0  0  0
   10.7170    2.8360   23.8720 Cl  0  0  0  0  0  0  0  0  0  0  0  0
    9.9760    0.2390   23.2080 C   0  0  0  0  0  0  0  0  0  0  0  0
    6.4010   -3.0210   21.2650 C   0  0  0  0  0  0  0  0  0  0  0  0
  1  2  2  3
  1  3  1  0
  3  4  1  0
  4  5  1  0
  5  6  1  0
  6  7  1  0
  7  8  1  0
  8  9  2  0
  8 10  1  0
 10 11  2  0
 10 12  1  0
 12 13  2  0
 13 14  1  0
 14 15  2  0
 15 16  1  0
 16 17  1  0
 12 18  1  0
 16 18  2  0
  3 19  1  0
  7 19  1  0
M  END
