SAD-SAT-65574d3f-5-chloroacetamide
     RDKit          3D

 13 14  0  0  0  0  0  0  0  0999 V2000
    7.1440   -3.3870   19.8840 C   0  0  0  0  0  0  0  0  0  0  0  0
    6.2320   -4.4040   20.5710 C   0  0  0  0  0  0  0  0  0  0  0  0
    5.2720   -4.8210   19.9450 O   0  0  0  0  0  0  0  0  0  0  0  0
    6.4100   -4.8710   21.8750 N   0  0  0  0  0  0  0  0  0  0  0  0
    5.5480   -5.9050   22.4070 C   0  0  0  0  0  0  0  0  0  0  0  0
    4.3700   -5.3090   23.1830 C   0  0  0  0  0  0  0  0  0  0  0  0
    4.7240   -4.3560   24.3180 C   0  0  0  0  0  0  0  0  0  0  0  0
    6.2790   -4.2060   24.3280 C   0  0  0  0  0  0  0  0  0  0  0  0
    6.9370   -4.0040   22.9470 C   0  0  0  0  0  0  0  0  0  0  0  0
    4.3860   -4.8770   25.5540 O   0  0  0  0  0  0  0  0  0  0  0  0
    3.5300   -3.8570   25.9820 C   0  0  0  0  0  0  0  0  0  0  0  0
    3.8830   -2.6940   25.3620 C   0  0  0  0  0  0  0  0  0  0  0  0
    4.2040   -3.1520   24.2540 O   0  0  0  0  0  0  0  0  0  0  0  0
  1  2  1  0
  2  3  2  0
  2  4  1  0
  4  5  1  0
  5  6  1  0
  6  7  1  0
  7  8  1  0
  4  9  1  0
  8  9  1  0
  7 10  1  0
 10 11  1  0
 11 12  1  0
  7 13  1  0
 12 13  1  0
M  END
