SAD-SAT-2ceae68f-7-vinylsulfonamide
     RDKit          3D

 25 27  0  0  0  0  0  0  0  0999 V2000
    8.2210   -3.9670   20.2810 C   0  0  0  0  0  0  0  0  0  0  0  0
    7.0780   -4.8490   20.8640 C   0  0  0  0  0  0  0  0  0  0  0  0
    6.2600   -4.1290   22.2510 S   0  0  0  0  0  0  0  0  0  0  0  0
    4.9220   -3.6870   21.8020 O   0  0  0  0  0  0  0  0  0  0  0  0
    6.3520   -5.0980   23.3260 O   0  0  0  0  0  0  0  0  0  0  0  0
    7.3620   -2.9070   22.6490 N   0  0  0  0  0  0  0  0  0  0  0  0
    7.2960   -1.6500   21.8850 C   0  0  0  0  0  0  0  0  0  0  0  0
    8.2940   -0.7350   22.6580 C   0  0  0  0  0  0  0  0  0  0  0  0
    9.6430   -1.1030   21.9650 C   0  0  0  0  0  0  0  0  0  0  0  0
   10.4600   -1.8520   22.9450 N   0  0  0  0  0  0  0  0  0  0  0  0
   11.8180   -0.9470   23.6410 S   0  0  0  0  0  0  0  0  0  0  0  0
   12.7370   -0.6670   22.5300 O   0  0  0  0  0  0  0  0  0  0  0  0
   12.2910   -1.6260   24.8550 O   0  0  0  0  0  0  0  0  0  0  0  0
   10.9900    0.5930   24.0960 C   0  0  0  0  0  0  0  0  0  0  0  0
   10.3650   -0.5790   24.8310 C   0  0  0  0  0  0  0  0  0  0  0  0
   11.2380   -1.8240   24.3990 C   0  0  0  0  0  0  0  0  0  0  0  0
   12.3480   -1.4620   23.4470 C   0  0  0  0  0  0  0  0  0  0  0  0
   12.4840   -0.0220   23.0390 C   0  0  0  0  0  0  0  0  0  0  0  0
   11.3420    0.1780   23.8920 C   0  0  0  0  0  0  0  0  0  0  0  0
   10.6410    1.6280   24.1200 N   0  0  0  0  0  0  0  0  0  0  0  0
   11.1410    2.8190   23.4880 C   0  0  0  0  0  0  0  0  0  0  0  0
   12.1230    2.4490   22.8120 C   0  0  0  0  0  0  0  0  0  0  0  0
   11.9610    1.1130   23.2140 C   0  0  0  0  0  0  0  0  0  0  0  0
    9.6060   -2.7490   23.7690 C   0  0  0  0  0  0  0  0  0  0  0  0
    8.7030   -3.4720   22.9670 C   0  0  0  0  0  0  0  0  0  0  0  0
  1  2  1  0
  3  2  1  0
  3  4  2  0
  3  5  2  0
  3  6  1  0
  6  7  1  0
  7  8  1  0
  8  9  1  0
  9 10  1  0
 10 11  1  0
 11 12  2  0
 11 13  2  0
 11 14  1  0
 14 15  2  0
 15 16  1  0
 16 17  2  0
 17 18  1  0
 18 19  1  0
 19 20  2  0
 20 21  1  0
 21 22  2  0
 14 23  1  0
 18 23  2  0
 22 23  1  0
 10 24  1  0
  6 25  1  0
 24 25  1  0
M  END
