SAD-SAT-bc31ec01-9
     RDKit          3D

 19 20  0  0  0  0  0  0  0  0999 V2000
   11.8080    7.3410   28.2800 C   0  0  0  0  0  0  0  0  0  0  0  0
   12.0680    8.7580   27.8080 C   0  0  0  0  0  0  0  0  0  0  0  0
   12.5250    9.6300   28.5380 O   0  0  0  0  0  0  0  0  0  0  0  0
   11.7950    9.1480   26.4910 C   0  0  0  0  0  0  0  0  0  0  0  0
   12.0880   10.3220   26.2430 O   0  0  0  0  0  0  0  0  0  0  0  0
   11.2000    8.0800   25.6290 N   0  0  0  0  0  0  0  0  0  0  0  0
   11.0020    8.4650   24.2370 C   0  0  0  0  0  0  0  0  0  0  0  0
   10.2410    7.4670   23.5740 C   0  0  0  0  0  0  0  0  0  0  0  0
   11.0040    6.2940   23.4910 N   0  0  0  0  0  0  0  0  0  0  0  0
   10.0840    4.8790   23.7420 S   0  0  0  0  0  0  0  0  0  0  0  0
    9.7060    4.9370   25.1260 O   0  0  0  0  0  0  0  0  0  0  0  0
    9.0470    4.8380   22.7470 O   0  0  0  0  0  0  0  0  0  0  0  0
   11.1150    3.4300   23.4660 C   0  0  0  0  0  0  0  0  0  0  0  0
   12.4390    3.5090   22.9290 C   0  0  0  0  0  0  0  0  0  0  0  0
   13.1110    2.4000   22.7320 C   0  0  0  0  0  0  0  0  0  0  0  0
   12.1560    1.1290   23.2300 S   0  0  0  0  0  0  0  0  0  0  0  0
   10.6790    1.9470   23.7710 C   0  0  0  0  0  0  0  0  0  0  0  0
   12.1630    6.4530   24.2510 C   0  0  0  0  0  0  0  0  0  0  0  0
   11.8380    6.8410   25.6850 C   0  0  0  0  0  0  0  0  0  0  0  0
  1  2  1  0
  2  3  2  0
  2  4  1  0
  4  5  2  0
  4  6  1  0
  6  7  1  0
  7  8  1  0
  8  9  1  0
  9 10  1  0
 10 11  2  0
 10 12  2  0
 10 13  1  0
 13 14  1  0
 14 15  2  0
 15 16  1  0
 13 17  2  0
 16 17  1  0
  9 18  1  0
  6 19  1  0
 18 19  1  0
M  END
