SAD-SAT-1b030f84-9-chloroacetamide
     RDKit          3D

 13 13  0  0  0  0  0  0  0  0999 V2000
    7.2580   -3.2840   19.6740 C   0  0  0  0  0  0  0  0  0  0  0  0
    6.4040   -4.2700   20.4300 C   0  0  0  0  0  0  0  0  0  0  0  0
    5.3280   -4.5730   19.9150 O   0  0  0  0  0  0  0  0  0  0  0  0
    6.7870   -4.8650   21.6290 N   0  0  0  0  0  0  0  0  0  0  0  0
    6.2210   -6.1370   22.0080 C   0  0  0  0  0  0  0  0  0  0  0  0
    5.4410   -5.9500   23.2970 C   0  0  0  0  0  0  0  0  0  0  0  0
    6.0180   -5.2730   24.3130 N   0  0  0  0  0  0  0  0  0  0  0  0
    5.6320   -5.6610   25.5500 C   0  0  0  0  0  0  0  0  0  0  0  0
    6.4870   -6.0200   26.3480 O   0  0  0  0  0  0  0  0  0  0  0  0
    4.2950   -5.6820   25.9180 C   0  0  0  0  0  0  0  0  0  0  0  0
    3.8320   -5.9260   27.6110 Cl  0  0  0  0  0  0  0  0  0  0  0  0
    6.6900   -4.0150   23.9240 C   0  0  0  0  0  0  0  0  0  0  0  0
    7.3670   -4.2680   22.7190 C   0  0  0  0  0  0  0  0  0  0  0  0
  1  2  1  0
  2  3  2  0
  2  4  1  0
  4  5  1  0
  5  6  1  0
  6  7  1  0
  7  8  1  0
  8  9  2  0
  8 10  1  0
 10 11  1  0
  7 12  1  0
  4 13  1  0
 12 13  1  0
M  END
