SAD-SAT-65574d3f-6-vinylsulfonamide
     RDKit          3D

 14 14  0  0  0  0  0  0  0  0999 V2000
    6.0780   -5.1160   20.2450 C   0  0  0  0  0  0  0  0  0  0  0  0
    6.1400   -5.0970   21.7660 C   0  0  0  0  0  0  0  0  0  0  0  0
    5.6620   -3.4920   22.3730 S   0  0  0  0  0  0  0  0  0  0  0  0
    4.6860   -3.0140   21.4490 O   0  0  0  0  0  0  0  0  0  0  0  0
    6.8620   -2.7370   22.6590 O   0  0  0  0  0  0  0  0  0  0  0  0
    4.8140   -3.7450   23.8350 N   0  0  0  0  0  0  0  0  0  0  0  0
    3.5030   -4.3340   23.6920 C   0  0  0  0  0  0  0  0  0  0  0  0
    3.4870   -5.8370   23.9420 C   0  0  0  0  0  0  0  0  0  0  0  0
    4.8010   -6.4660   24.3730 C   0  0  0  0  0  0  0  0  0  0  0  0
    5.9270   -5.4710   24.7680 C   0  0  1  0  0  0  0  0  0  0  0  0
    7.0790   -5.6310   23.8010 C   0  0  0  0  0  0  0  0  0  0  0  0
    8.0110   -4.6000   23.5670 N   0  0  0  0  0  0  0  0  0  0  0  0
    7.2170   -6.6820   23.1690 O   0  0  0  0  0  0  0  0  0  0  0  0
    5.4990   -4.1570   24.9590 C   0  0  0  0  0  0  0  0  0  0  0  0
  1  2  1  0
  3  2  1  0
  3  4  2  0
  3  5  2  0
  3  6  1  0
  6  7  1  0
  7  8  1  0
  8  9  1  0
  9 10  1  0
 10 11  1  6
 11 12  1  0
 11 13  2  0
  6 14  1  0
 10 14  1  0
M  END
