SAD-SAT-29425be4-24-acrylamide
     RDKit          3D

 60 64  0  0  0  0  0  0  0  0999 V2000
    5.7420   -4.8280   20.1660 C   0  0  0  0  0  0  0  0  0  0  0  0
    5.6050   -3.3290   19.7830 C   0  0  0  0  0  0  0  0  0  0  0  0
    5.1480   -2.5540   20.9950 C   0  0  0  0  0  0  0  0  0  0  0  0
    4.5380   -3.1690   21.8710 O   0  0  0  0  0  0  0  0  0  0  0  0
    5.3810   -1.1800   21.0600 N   0  0  0  0  0  0  0  0  0  0  0  0
    5.1130   -0.3690   22.2520 C   0  0  0  0  0  0  0  0  0  0  0  0
    6.4830    0.2270   22.6530 C   0  0  0  0  0  0  0  0  0  0  0  0
    6.9700    0.7980   21.2860 C   0  0  0  0  0  0  0  0  0  0  0  0
    7.6460    2.1480   21.8040 C   0  0  0  0  0  0  0  0  0  0  0  0
    6.6740    3.3210   21.6830 C   0  0  0  0  0  0  0  0  0  0  0  0
    7.1700    4.6990   22.1540 C   0  0  0  0  0  0  0  0  0  0  0  0
    8.6220    4.6880   22.6970 C   0  0  0  0  0  0  0  0  0  0  0  0
    9.0380    6.0930   23.1500 C   0  0  0  0  0  0  0  0  0  0  0  0
    8.3850    7.1690   22.6030 N   0  0  0  0  0  0  0  0  0  0  0  0
    9.9070    6.2890   23.9830 O   0  0  0  0  0  0  0  0  0  0  0  0
    9.3900    3.4760   22.7310 C   0  0  0  0  0  0  0  0  0  0  0  0
   10.7420    3.3980   23.2250 N   0  0  0  0  0  0  0  0  0  0  0  0
   11.7360    4.3640   23.0410 C   0  0  0  0  0  0  0  0  0  0  0  0
   11.9910    5.2820   23.8050 O   0  0  0  0  0  0  0  0  0  0  0  0
   12.6450    4.3690   21.8090 C   0  0  0  0  0  0  0  0  0  0  0  0
   14.0620    3.8410   22.0620 C   0  0  0  0  0  0  0  0  0  0  0  0
   14.9760    4.0590   20.7940 C   0  0  0  0  0  0  0  0  0  0  0  0
   14.7080    5.2550   19.9720 N   0  0  0  0  0  0  0  0  0  0  0  0
   15.1420    5.3360   18.6600 C   0  0  0  0  0  0  0  0  0  0  0  0
   15.2000    4.2140   17.8340 O   0  0  0  0  0  0  0  0  0  0  0  0
   15.5010    6.7050   18.1060 C   0  0  0  0  0  0  0  0  0  0  0  0
   14.9390    6.8450   16.4240 Cl  0  0  0  0  0  0  0  0  0  0  0  0
   13.5500    5.9510   20.2760 C   0  0  0  0  0  0  0  0  0  0  0  0
   12.8840    5.8220   21.6050 C   0  0  0  0  0  0  0  0  0  0  0  0
   11.1960    2.1790   23.4860 C   0  0  0  0  0  0  0  0  0  0  0  0
   12.3930    1.7290   22.8940 C   0  0  0  0  0  0  0  0  0  0  0  0
   12.8870    0.4650   23.1570 C   0  0  0  0  0  0  0  0  0  0  0  0
   12.2250   -0.4080   24.0150 C   0  0  0  0  0  0  0  0  0  0  0  0
   12.6950   -1.6480   24.2470 C   0  0  0  0  0  0  0  0  0  0  0  0
   13.6140   -1.8910   25.0240 O   0  0  0  0  0  0  0  0  0  0  0  0
   11.9910   -2.5690   23.5550 N   0  0  0  0  0  0  0  0  0  0  0  0
   11.5690   -2.1550   22.1900 C   0  0  0  0  0  0  0  0  0  0  0  0
   10.0820   -2.1860   21.8790 C   0  0  0  0  0  0  0  0  0  0  0  0
    9.2510   -2.7360   22.9310 N   0  0  0  0  0  0  0  0  0  0  0  0
    7.9560   -3.1650   22.6680 C   0  0  0  0  0  0  0  0  0  0  0  0
    7.4160   -4.0620   23.3190 O   0  0  0  0  0  0  0  0  0  0  0  0
    7.2410   -2.4530   21.5110 C   0  0  0  0  0  0  0  0  0  0  0  0
    8.1400   -2.2410   20.3050 C   0  0  0  0  0  0  0  0  0  0  0  0
    7.5610   -2.2590   18.8460 C   0  0  0  0  0  0  0  0  0  0  0  0
    8.2820   -3.1150   17.7310 C   0  0  0  0  0  0  0  0  0  0  0  0
    9.2780   -4.2020   18.1960 N   0  0  0  0  0  0  0  0  0  0  0  0
   10.2200   -5.2960   17.7540 C   0  0  0  0  0  0  0  0  0  0  0  0
   11.0580   -5.3530   18.5920 O   0  0  0  0  0  0  0  0  0  0  0  0
   10.4580   -6.2330   16.4530 O   0  0  0  0  0  0  0  0  0  0  0  0
   11.6320   -6.8500   15.3180 C   0  0  0  0  0  0  0  0  0  0  0  0
   12.7460   -6.1040   15.2460 C   0  0  0  0  0  0  0  0  0  0  0  0
   11.1270   -6.5120   14.0660 C   0  0  0  0  0  0  0  0  0  0  0  0
   12.9580   -7.7510   15.1530 C   0  0  0  0  0  0  0  0  0  0  0  0
    9.7160   -2.4310   24.2500 C   0  0  0  0  0  0  0  0  0  0  0  0
   10.9580   -3.0100   24.4750 C   0  0  0  0  0  0  0  0  0  0  0  0
   11.0510   -0.0260   24.6240 C   0  0  0  0  0  0  0  0  0  0  0  0
   10.5120    1.3320   24.3420 C   0  0  0  0  0  0  0  0  0  0  0  0
    8.9010    2.2580   22.2940 N   0  0  0  0  0  0  0  0  0  0  0  0
    5.9140    0.9840   20.1760 C   0  0  0  0  0  0  0  0  0  0  0  0
    5.3240   -0.3810   19.8530 C   0  0  0  0  0  0  0  0  0  0  0  0
  1  2  1  0
  2  3  1  0
  3  4  2  0
  3  5  1  0
  5  6  1  0
  6  7  1  0
  7  8  1  0
  8  9  1  0
  9 10  2  0
 10 11  1  0
 11 12  2  0
 12 13  1  0
 13 14  1  0
 13 15  2  0
 12 16  1  0
 16 17  1  0
 17 18  1  0
 18 19  2  0
 18 20  1  0
 20 21  1  0
 21 22  1  0
 22 23  1  0
 23 24  1  0
 24 25  2  0
 24 26  1  0
 26 27  1  0
 23 28  1  0
 20 29  1  0
 28 29  1  0
 17 30  1  0
 30 31  2  0
 31 32  1  0
 32 33  2  0
 33 34  1  0
 34 35  2  0
 34 36  1  0
 36 37  1  0
 37 38  1  0
 38 39  1  0
 39 40  1  0
 40 41  2  0
 40 42  1  0
 42 43  1  0
 43 44  1  0
 44 45  1  0
 45 46  1  0
 46 47  1  0
 47 48  2  0
 47 49  1  0
 50 49  1  0
 50 51  1  0
 50 52  1  0
 50 53  1  0
 39 54  1  0
 36 55  1  0
 54 55  1  0
 33 56  1  0
 30 57  1  0
 56 57  2  0
  9 58  1  0
 16 58  2  0
  8 59  1  0
  5 60  1  0
 59 60  1  0
M  END
