SAD-SAT-2ceae68f-9-vinylsulfonamide
     RDKit          3D

 21 22  0  0  0  0  0  0  0  0999 V2000
    7.3560   -3.1840   19.3240 C   0  0  0  0  0  0  0  0  0  0  0  0
    5.8890   -2.7750   19.4280 C   0  0  0  0  0  0  0  0  0  0  0  0
    5.5010   -2.1900   21.0590 S   0  0  0  0  0  0  0  0  0  0  0  0
    4.6430   -3.1550   21.7140 O   0  0  0  0  0  0  0  0  0  0  0  0
    5.1000   -0.8080   20.9310 O   0  0  0  0  0  0  0  0  0  0  0  0
    6.9380   -2.2150   21.8960 N   0  0  0  0  0  0  0  0  0  0  0  0
    8.0570   -1.3490   21.5330 C   0  0  0  0  0  0  0  0  0  0  0  0
    9.1450   -2.2260   22.2260 C   0  0  0  0  0  0  0  0  0  0  0  0
   10.5930   -1.5040   22.3220 C   0  0  0  0  0  0  0  0  0  0  0  0
    9.2690   -1.5270   21.9510 C   0  0  0  0  0  0  0  0  0  0  0  0
   10.2800   -2.6580   22.7470 C   0  0  0  0  0  0  0  0  0  0  0  0
   11.2750   -1.2860   22.4470 S   0  0  0  0  0  0  0  0  0  0  0  0
   12.4930   -1.7660   21.8090 O   0  0  0  0  0  0  0  0  0  0  0  0
   10.4640   -0.2140   21.8940 O   0  0  0  0  0  0  0  0  0  0  0  0
   11.6760   -0.7560   24.0210 N   0  0  0  0  0  0  0  0  0  0  0  0
   10.6350   -1.0090   24.9980 C   0  0  0  0  0  0  0  0  0  0  0  0
   10.5610   -2.4670   25.2160 C   0  0  0  0  0  0  0  0  0  0  0  0
   11.6200   -3.1440   24.5220 O   0  0  0  0  0  0  0  0  0  0  0  0
   12.9330   -2.5390   24.5700 C   0  0  0  0  0  0  0  0  0  0  0  0
   12.9140   -1.2030   24.5160 C   0  0  0  0  0  0  0  0  0  0  0  0
    8.9410   -3.6870   22.8080 S   0  0  0  0  0  0  0  0  0  0  0  0
  1  2  1  0
  2  3  1  0
  3  4  2  0
  3  5  2  0
  3  6  1  0
  6  7  1  0
  7  8  1  0
  8  9  2  0
  9 10  1  0
 10 11  2  0
 12 11  1  0
 12 13  2  0
 12 14  2  0
 12 15  1  0
 15 16  1  0
 16 17  1  0
 17 18  1  0
 18 19  1  0
 15 20  1  0
 19 20  1  0
  8 21  1  0
 11 21  1  0
M  END
