SAD-SAT-6b5a89f0-9-vinylsulfonamide
     RDKit          3D

  9  9  0  0  0  0  0  0  0  0999 V2000
    7.3680   -3.1090   19.3740 C   0  0  0  0  0  0  0  0  0  0  0  0
    7.2510   -3.2770   20.8650 C   0  0  0  0  0  0  0  0  0  0  0  0
    5.5320   -3.5770   21.0140 S   0  0  0  0  0  0  0  0  0  0  0  0
    5.1570   -4.4050   19.8770 O   0  0  0  0  0  0  0  0  0  0  0  0
    4.9600   -2.2760   21.2530 O   0  0  0  0  0  0  0  0  0  0  0  0
    5.4110   -4.4640   22.4460 N   0  0  0  0  0  0  0  0  0  0  0  0
    4.9620   -3.6560   23.6250 C   0  0  0  0  0  0  0  0  0  0  0  0
    6.3450   -3.6010   24.1350 C   0  0  0  0  0  0  0  0  0  0  0  0
    6.6120   -4.6440   23.1210 C   0  0  0  0  0  0  0  0  0  0  0  0
  1  2  1  0
  3  2  1  0
  3  4  2  0
  3  5  2  0
  3  6  1  0
  6  7  1  0
  7  8  1  0
  6  9  1  0
  8  9  1  0
M  END
