SAD-SAT-bc31ec01-8-vinylsulfonamide
     RDKit          3D

 23 25  0  0  0  0  0  0  0  0999 V2000
    7.9160   -2.9810   19.5870 C   0  0  0  0  0  0  0  0  0  0  0  0
    6.8510   -1.8460   19.7500 C   0  0  0  0  0  0  0  0  0  0  0  0
    6.0610   -1.7700   21.3300 S   0  0  0  0  0  0  0  0  0  0  0  0
    4.8820   -3.0100   21.2970 O   0  0  0  0  0  0  0  0  0  0  0  0
    5.6270   -0.3700   21.5010 O   0  0  0  0  0  0  0  0  0  0  0  0
    7.5870   -1.5040   22.3220 N   0  0  0  0  0  0  0  0  0  0  0  0
    8.9500   -1.9980   21.9350 C   0  0  0  0  0  0  0  0  0  0  0  0
    9.8580   -1.9760   22.9870 C   0  0  0  0  0  0  0  0  0  0  0  0
   10.1460   -0.7390   23.3520 N   0  0  0  0  0  0  0  0  0  0  0  0
   10.8660   -0.4880   24.8330 S   0  0  0  0  0  0  0  0  0  0  0  0
   11.6310    0.6990   24.5500 O   0  0  0  0  0  0  0  0  0  0  0  0
   11.5300   -1.7300   25.1620 O   0  0  0  0  0  0  0  0  0  0  0  0
    9.4010   -0.2240   25.8650 C   0  0  0  0  0  0  0  0  0  0  0  0
    9.4820    0.1260   27.4000 C   0  0  0  0  0  0  0  0  0  0  0  0
    8.2990    0.3460   28.4430 C   0  0  1  0  0  0  0  0  0  0  0  0
    8.3660    1.6800   28.9550 O   0  0  0  0  0  0  0  0  0  0  0  0
    7.2590    2.3760   28.3680 C   0  0  0  0  0  0  0  0  0  0  0  0
    6.2120    1.4740   28.0260 O   0  0  0  0  0  0  0  0  0  0  0  0
    6.8420    0.2030   27.9600 C   0  0  1  0  0  0  0  0  0  0  0  0
    7.4660   -0.0550   26.7520 C   0  0  0  0  0  0  0  0  0  0  0  0
    7.9650   -0.3320   25.4620 C   0  0  0  0  0  0  0  0  0  0  0  0
    9.3000    0.2740   22.8840 C   0  0  0  0  0  0  0  0  0  0  0  0
    7.8020   -0.1390   22.6730 C   0  0  0  0  0  0  0  0  0  0  0  0
  1  2  1  0
  3  2  1  0
  3  4  2  0
  3  5  2  0
  3  6  1  0
  6  7  1  0
  7  8  1  0
  8  9  1  0
  9 10  1  0
 10 11  2  0
 10 12  2  0
 10 13  1  0
 13 14  2  0
 15 14  1  6
 15 16  1  0
 16 17  1  0
 17 18  1  0
 15 19  1  0
 18 19  1  0
 19 20  1  6
 13 21  1  0
 20 21  2  0
  9 22  1  0
  6 23  1  0
 22 23  1  0
M  END
