SAD-SAT-9a6c5cf3-8
     RDKit          3D

 40 44  0  0  0  0  0  0  0  0999 V2000
    5.2490   -4.2470   19.4520 O   0  0  0  0  0  0  0  0  0  0  0  0
    6.0390   -3.4850   20.0000 C   0  0  0  0  0  0  0  0  0  0  0  0
    6.6150   -2.2970   19.2380 C   0  0  0  0  0  0  0  0  0  0  0  0
    5.6240   -0.8490   19.5060 Cl  0  0  0  0  0  0  0  0  0  0  0  0
    6.4310   -3.7550   21.2990 N   0  0  0  0  0  0  0  0  0  0  0  0
    7.7320   -3.3090   21.7600 C   0  0  0  0  0  0  0  0  0  0  0  0
    7.6870   -3.0470   23.2520 C   0  0  0  0  0  0  0  0  0  0  0  0
    6.2760   -3.2870   23.8270 C   0  0  0  0  0  0  0  0  0  0  0  0
    6.1370   -2.9920   25.3280 C   0  0  0  0  0  0  0  0  0  0  0  0
    5.1460   -3.4160   25.9290 O   0  0  0  0  0  0  0  0  0  0  0  0
    7.1140   -2.2420   25.9930 N   0  0  0  0  0  0  0  0  0  0  0  0
    8.4070   -1.9260   25.3590 C   0  0  0  0  0  0  0  0  0  0  0  0
    8.2770   -0.7200   24.4060 C   0  0  0  0  0  0  0  0  0  0  0  0
    7.1490   -0.3350   24.0860 O   0  0  0  0  0  0  0  0  0  0  0  0
    9.5500   -0.0610   23.9130 N   0  0  0  0  0  0  0  0  0  0  0  0
   10.8090   -0.7690   23.7770 C   0  0  0  0  0  0  0  0  0  0  0  0
   11.7940   -0.2550   22.9260 C   0  0  0  0  0  0  0  0  0  0  0  0
   13.0060   -0.9160   22.7760 C   0  0  0  0  0  0  0  0  0  0  0  0
   13.2410   -2.0990   23.4760 C   0  0  0  0  0  0  0  0  0  0  0  0
   12.2640   -2.6080   24.3220 C   0  0  0  0  0  0  0  0  0  0  0  0
   11.0550   -1.9450   24.4700 C   0  0  0  0  0  0  0  0  0  0  0  0
    9.6280    1.4020   24.2050 C   0  0  1  0  0  0  0  0  0  0  0  0
   10.8780    2.0790   23.6280 C   0  0  0  0  0  0  0  0  0  0  0  0
   10.5320    3.1530   22.6080 C   0  0  0  0  0  0  0  0  0  0  0  0
    8.8170    3.2460   22.4290 S   0  0  0  0  0  0  0  0  0  0  0  0
    8.4160    2.5950   21.1890 O   0  0  0  0  0  0  0  0  0  0  0  0
    8.3850    4.5840   22.7800 O   0  0  0  0  0  0  0  0  0  0  0  0
    8.3790    2.1980   23.8150 C   0  0  0  0  0  0  0  0  0  0  0  0
    6.7410   -1.2130   26.9260 C   0  0  0  0  0  0  0  0  0  0  0  0
    7.1380   -1.3020   28.2600 C   0  0  0  0  0  0  0  0  0  0  0  0
    6.8220   -0.3260   29.1890 C   0  0  0  0  0  0  0  0  0  0  0  0
    6.0130    0.8780   28.7440 C   0  0  0  0  0  0  0  0  0  0  0  0
    5.6550    1.9060   29.6250 C   0  0  0  0  0  0  0  0  0  0  0  0
    4.8420    3.0750   29.1070 C   0  0  0  0  0  0  0  0  0  0  0  0
    4.4790    3.0910   27.7700 C   0  0  0  0  0  0  0  0  0  0  0  0
    4.8600    2.0390   26.9260 C   0  0  0  0  0  0  0  0  0  0  0  0
    5.6150    0.9420   27.3910 C   0  0  0  0  0  0  0  0  0  0  0  0
    5.9840   -0.1000   26.5120 C   0  0  0  0  0  0  0  0  0  0  0  0
    5.7690   -4.6870   23.4450 C   0  0  0  0  0  0  0  0  0  0  0  0
    5.9600   -4.9690   21.9670 C   0  0  0  0  0  0  0  0  0  0  0  0
  1  2  2  0
  2  3  1  0
  3  4  1  0
  2  5  1  0
  5  6  1  0
  6  7  1  0
  7  8  1  0
  8  9  1  0
  9 10  2  0
  9 11  1  0
 11 12  1  0
 12 13  1  0
 13 14  2  0
 13 15  1  0
 15 16  1  0
 16 17  2  0
 17 18  1  0
 18 19  2  0
 19 20  1  0
 16 21  1  0
 20 21  2  0
 22 15  1  6
 22 23  1  0
 23 24  2  0
 25 24  1  0
 25 26  2  0
 25 27  2  0
 22 28  1  0
 25 28  1  0
 11 29  1  0
 29 30  2  0
 30 31  1  0
 31 32  2  0
 32 33  1  0
 33 34  2  0
 34 35  1  0
 35 36  2  0
 32 37  1  0
 36 37  1  0
 29 38  1  0
 37 38  2  0
  8 39  1  0
  5 40  1  0
 39 40  1  0
M  END
