SAD-SAT-2ceae68f-10-chloroacetamide
     RDKit          3D

 20 21  0  0  0  0  0  0  0  0999 V2000
    7.7890   -2.7870   19.3660 C   0  0  0  0  0  0  0  0  0  0  0  0
    6.6380   -1.8040   19.6230 C   0  0  0  0  0  0  0  0  0  0  0  0
    5.9280   -2.6570   18.9540 O   0  0  0  0  0  0  0  0  0  0  0  0
    7.7440   -1.1540   20.2630 N   0  0  0  0  0  0  0  0  0  0  0  0
    7.8120    0.0990   21.0730 C   0  0  0  0  0  0  0  0  0  0  0  0
    9.2000   -0.0550   21.7890 C   0  0  0  0  0  0  0  0  0  0  0  0
    9.5230    1.4190   22.1670 C   0  0  0  0  0  0  0  0  0  0  0  0
    9.3200    2.4180   21.4810 O   0  0  0  0  0  0  0  0  0  0  0  0
   10.1270    1.4200   23.5060 N   0  0  0  0  0  0  0  0  0  0  0  0
    9.2720    1.2200   24.6630 C   0  0  0  0  0  0  0  0  0  0  0  0
    9.4730   -0.1570   25.2700 C   0  0  0  0  0  0  0  0  0  0  0  0
   10.2630   -0.9140   24.3700 O   0  0  0  0  0  0  0  0  0  0  0  0
   11.5600   -0.3190   24.2790 C   0  0  1  0  0  0  0  0  0  0  0  0
   12.2880   -1.3320   23.5690 C   0  0  0  0  0  0  0  0  0  0  0  0
   13.3410   -2.0170   24.3980 C   0  0  0  0  0  0  0  0  0  0  0  0
   13.6250   -2.7360   23.3030 C   0  0  0  0  0  0  0  0  0  0  0  0
   13.0520   -2.7060   22.0060 C   0  0  0  0  0  0  0  0  0  0  0  0
   13.4370   -3.6170   20.6270 Cl  0  0  0  0  0  0  0  0  0  0  0  0
   11.8800   -1.6150   21.9410 S   0  0  0  0  0  0  0  0  0  0  0  0
   11.5100    0.9320   23.6290 C   0  0  0  0  0  0  0  0  0  0  0  0
  1  2  1  0
  2  3  2  0
  2  4  1  0
  4  5  1  0
  5  6  1  0
  6  7  1  0
  7  8  2  0
  7  9  1  0
  9 10  1  0
 10 11  1  0
 11 12  1  0
 12 13  1  0
 13 14  1  6
 14 15  2  0
 15 16  1  0
 16 17  2  0
 17 18  1  0
 14 19  1  0
 17 19  1  0
  9 20  1  0
 13 20  1  0
M  END
