SAD-SAT-29425be4-15-vinylsulfonamide
     RDKit          3D

 26 27  0  0  0  0  0  0  0  0999 V2000
    6.7560   -5.2570   20.1320 C   0  0  0  0  0  0  0  0  0  0  0  0
    7.1650   -3.8930   20.6560 C   0  0  0  0  0  0  0  0  0  0  0  0
    5.6360   -3.0430   20.6480 S   0  0  0  0  0  0  0  0  0  0  0  0
    4.8740   -3.6570   19.5810 O   0  0  0  0  0  0  0  0  0  0  0  0
    5.8950   -1.6200   20.6740 O   0  0  0  0  0  0  0  0  0  0  0  0
    5.0070   -3.5070   22.1590 N   0  0  0  0  0  0  0  0  0  0  0  0
    5.0950   -4.9430   22.5390 C   0  0  0  0  0  0  0  0  0  0  0  0
    6.4320   -5.2880   23.2060 C   0  0  0  0  0  0  0  0  0  0  0  0
    6.8730   -4.2720   24.2840 C   0  0  0  0  0  0  0  0  0  0  0  0
    8.3480   -4.4850   24.6480 C   0  0  0  0  0  0  0  0  0  0  0  0
    8.8160   -5.6320   24.5890 O   0  0  0  0  0  0  0  0  0  0  0  0
    9.1360   -3.3970   25.0420 N   0  0  0  0  0  0  0  0  0  0  0  0
   10.3330   -3.1490   24.2150 C   0  0  0  0  0  0  0  0  0  0  0  0
   10.9580   -1.8060   24.4630 C   0  0  0  0  0  0  0  0  0  0  0  0
   11.8190   -1.1120   23.5830 C   0  0  0  0  0  0  0  0  0  0  0  0
   13.1510   -1.5380   23.7940 C   0  0  0  0  0  0  0  0  0  0  0  0
   12.6000   -0.8190   24.7610 C   0  0  0  0  0  0  0  0  0  0  0  0
   11.2420   -0.4060   24.3990 C   0  0  0  0  0  0  0  0  0  0  0  0
   10.7460   -0.8380   23.0980 C   0  0  0  0  0  0  0  0  0  0  0  0
    9.4550   -0.4720   22.6980 C   0  0  0  0  0  0  0  0  0  0  0  0
    9.2540    0.8270   22.2400 C   0  0  0  0  0  0  0  0  0  0  0  0
    8.9200   -1.4650   21.6610 C   0  0  0  0  0  0  0  0  0  0  0  0
   11.5570   -1.6470   22.1930 C   0  0  0  0  0  0  0  0  0  0  0  0
   12.8560   -2.0260   22.5650 C   0  0  0  0  0  0  0  0  0  0  0  0
    6.6550   -2.8180   23.8080 C   0  0  0  0  0  0  0  0  0  0  0  0
    5.2400   -2.5990   23.2710 C   0  0  0  0  0  0  0  0  0  0  0  0
  1  2  1  0
  3  2  1  0
  3  4  2  0
  3  5  2  0
  3  6  1  0
  6  7  1  0
  7  8  1  0
  8  9  1  0
  9 10  1  0
 10 11  2  0
 10 12  1  0
 12 13  1  0
 13 14  1  0
 14 15  1  0
 15 16  1  0
 16 17  2  0
 17 18  1  0
 18 19  2  0
 19 20  1  0
 20 21  1  0
 20 22  1  0
 19 23  1  0
 16 24  1  0
 23 24  2  0
  9 25  1  0
  6 26  1  0
 25 26  1  0
M  END
