SAD-SAT-bc31ec01-10-nitrile
     RDKit          3D

 26 28  0  0  0  0  0  0  0  0999 V2000
    6.9790   -3.1110   19.7680 C   0  0  0  0  0  0  0  0  0  0  0  0
    5.7880   -3.5530   19.4610 N   0  0  0  0  0  0  0  0  0  0  0  0
    7.2370   -1.9110   20.5720 N   0  0  0  0  0  0  0  0  0  0  0  0
    8.2680   -1.8480   21.6430 C   0  0  0  0  0  0  0  0  0  0  0  0
    8.9560   -0.6000   21.7210 C   0  0  0  0  0  0  0  0  0  0  0  0
    8.1080    0.6210   21.6740 N   0  0  0  0  0  0  0  0  0  0  0  0
    8.5890    2.1200   22.4890 S   0  0  0  0  0  0  0  0  0  0  0  0
    7.8790    2.3720   23.7340 O   0  0  0  0  0  0  0  0  0  0  0  0
    8.7550    3.1400   21.4790 O   0  0  0  0  0  0  0  0  0  0  0  0
   10.2350    1.6330   22.9260 C   0  0  0  0  0  0  0  0  0  0  0  0
   11.2600    2.5360   22.5910 C   0  0  0  0  0  0  0  0  0  0  0  0
   12.6330    2.1740   22.8510 C   0  0  0  0  0  0  0  0  0  0  0  0
   12.8190    0.8720   23.4530 C   0  0  0  0  0  0  0  0  0  0  0  0
   11.8010    0.0620   23.7880 C   0  0  0  0  0  0  0  0  0  0  0  0
   10.4960    0.3920   23.5530 C   0  0  0  0  0  0  0  0  0  0  0  0
    9.4030   -0.5810   23.9500 C   0  0  0  0  0  0  0  0  0  0  0  0
    8.1220   -0.1120   24.6200 C   0  0  0  0  0  0  0  0  0  0  0  0
    7.0180   -1.0980   25.0060 C   0  0  0  0  0  0  0  0  0  0  0  0
    7.2760   -2.5730   24.6750 C   0  0  0  0  0  0  0  0  0  0  0  0
    8.4640   -3.0020   24.0590 C   0  0  0  0  0  0  0  0  0  0  0  0
    8.5690   -4.3150   23.8200 F   0  0  0  0  0  0  0  0  0  0  0  0
    9.6100   -2.0790   23.6600 C   0  0  0  0  0  0  0  0  0  0  0  0
   10.7760   -2.5720   23.0600 C   0  0  0  0  0  0  0  0  0  0  0  0
   11.9260   -2.7750   23.7410 N   0  0  0  0  0  0  0  0  0  0  0  0
    6.7840    0.1270   21.7180 C   0  0  0  0  0  0  0  0  0  0  0  0
    6.3900   -0.7380   20.6240 C   0  0  0  0  0  0  0  0  0  0  0  0
  1  2  2  3
  1  3  1  0
  3  4  1  0
  4  5  1  0
  5  6  1  0
  6  7  1  0
  7  8  2  0
  7  9  2  0
  7 10  1  0
 10 11  2  0
 11 12  1  0
 12 13  2  0
 13 14  1  0
 10 15  1  0
 14 15  2  0
 15 16  1  0
 16 17  2  0
 17 18  1  0
 18 19  2  0
 19 20  1  0
 20 21  1  0
 16 22  1  0
 20 22  2  0
 22 23  1  0
 23 24  3  0
  6 25  1  0
  3 26  1  0
 25 26  1  0
M  END
