SAD-SAT-bc31ec01-8-chloroacetamide
     RDKit          3D

 21 23  0  0  0  0  0  0  0  0999 V2000
    7.4270   -4.4820   20.9560 C   0  0  0  0  0  0  0  0  0  0  0  0
    7.4080   -3.1180   20.3230 C   0  0  0  0  0  0  0  0  0  0  0  0
    6.7060   -3.0180   19.2130 O   0  0  0  0  0  0  0  0  0  0  0  0
    8.2390   -2.0770   21.0760 N   0  0  0  0  0  0  0  0  0  0  0  0
    9.4840   -2.6120   21.6780 C   0  0  0  0  0  0  0  0  0  0  0  0
   10.1860   -1.8090   22.6280 C   0  0  0  0  0  0  0  0  0  0  0  0
   10.1150   -0.4610   22.4680 N   0  0  0  0  0  0  0  0  0  0  0  0
   10.7640    0.4750   23.7560 S   0  0  0  0  0  0  0  0  0  0  0  0
    9.6620    1.1630   24.3970 O   0  0  0  0  0  0  0  0  0  0  0  0
   11.6470   -0.3920   24.5070 O   0  0  0  0  0  0  0  0  0  0  0  0
   11.7260    1.6490   22.9660 C   0  0  0  0  0  0  0  0  0  0  0  0
   11.1440    2.9660   22.6990 C   0  0  0  0  0  0  0  0  0  0  0  0
   11.8890    4.0350   22.0000 C   0  0  1  0  0  0  0  0  0  0  0  0
   11.5530    5.2610   22.6510 O   0  0  0  0  0  0  0  0  0  0  0  0
   12.7350    5.6480   23.3450 C   0  0  0  0  0  0  0  0  0  0  0  0
   13.7290    4.6440   23.2060 O   0  0  0  0  0  0  0  0  0  0  0  0
   13.4030    4.0100   21.9840 C   0  0  1  0  0  0  0  0  0  0  0  0
   13.9990    2.6320   21.9950 C   0  0  0  0  0  0  0  0  0  0  0  0
   13.1460    1.4780   22.4880 C   0  0  0  0  0  0  0  0  0  0  0  0
    8.9060    0.0730   21.9800 C   0  0  0  0  0  0  0  0  0  0  0  0
    7.8080   -1.0100   21.8760 C   0  0  0  0  0  0  0  0  0  0  0  0
  1  2  1  0
  2  3  2  0
  2  4  1  0
  4  5  1  0
  5  6  1  0
  6  7  1  0
  7  8  1  0
  8  9  2  0
  8 10  2  0
  8 11  1  0
 11 12  2  0
 13 12  1  1
 13 14  1  0
 14 15  1  0
 15 16  1  0
 13 17  1  0
 16 17  1  0
 17 18  1  1
 11 19  1  0
 18 19  2  0
  7 20  1  0
  4 21  1  0
 20 21  1  0
M  END
