SAD-SAT-2fd372d1-9
     RDKit          3D

 23 25  0  0  0  0  0  0  0  0999 V2000
    0.3820   -1.1690   25.6980 C   0  0  0  0  0  0  0  0  0  0  0  0
    1.4750   -2.2000   25.7320 C   0  0  0  0  0  0  0  0  0  0  0  0
    1.1270   -3.5580   25.6710 C   0  0  0  0  0  0  0  0  0  0  0  0
    2.1080   -4.5460   25.7100 C   0  0  0  0  0  0  0  0  0  0  0  0
    3.4600   -4.2150   25.8110 C   0  0  0  0  0  0  0  0  0  0  0  0
    4.6600   -5.5250   25.8730 S   0  0  0  0  0  0  0  0  0  0  0  0
    3.9340   -6.7750   25.9420 O   0  0  0  0  0  0  0  0  0  0  0  0
    5.6480   -5.1850   26.8680 O   0  0  0  0  0  0  0  0  0  0  0  0
    5.4570   -5.4780   24.3630 N   0  0  0  0  0  0  0  0  0  0  0  0
    6.3740   -4.3340   24.0720 C   0  0  0  0  0  0  0  0  0  0  0  0
    7.2730   -4.7560   23.0770 C   0  0  0  0  0  0  0  0  0  0  0  0
    6.5780   -5.1470   21.8360 N   0  0  0  0  0  0  0  0  0  0  0  0
    6.2180   -4.2290   20.8520 C   0  0  0  0  0  0  0  0  0  0  0  0
    5.4760   -4.4550   19.8940 O   0  0  0  0  0  0  0  0  0  0  0  0
    6.7790   -2.9440   20.9760 N   0  0  0  0  0  0  0  0  0  0  0  0
    8.0600   -2.4910   20.7690 C   0  0  0  0  0  0  0  0  0  0  0  0
    8.0480   -1.1290   21.0430 C   0  0  0  0  0  0  0  0  0  0  0  0
    6.7990   -0.7260   21.4100 N   0  0  0  0  0  0  0  0  0  0  0  0
    6.0630   -1.8200   21.3660 C   0  0  0  0  0  0  0  0  0  0  0  0
    5.6530   -6.2580   22.0360 C   0  0  0  0  0  0  0  0  0  0  0  0
    4.6980   -5.9840   23.1720 C   0  0  0  0  0  0  0  0  0  0  0  0
    3.8690   -2.8860   25.8680 C   0  0  0  0  0  0  0  0  0  0  0  0
    2.8200   -1.8230   25.8260 C   0  0  0  0  0  0  0  0  0  0  0  0
  1  2  1  0
  2  3  2  0
  3  4  1  0
  4  5  2  0
  6  5  1  0
  6  7  2  0
  6  8  2  0
  6  9  1  0
  9 10  1  0
 10 11  1  0
 11 12  1  0
 12 13  1  0
 13 14  2  0
 13 15  1  0
 15 16  1  0
 16 17  2  0
 17 18  1  0
 15 19  1  0
 18 19  2  0
 12 20  1  0
  9 21  1  0
 20 21  1  0
  5 22  1  0
  2 23  1  0
 22 23  2  0
M  END
