SAD-SAT-2ceae68f-6-vinylsulfonamide
     RDKit          3D

 28 30  0  0  0  0  0  0  0  0999 V2000
    6.9790   -2.7520   20.8680 C   0  0  0  0  0  0  0  0  0  0  0  0
    5.7370   -3.5450   20.5130 C   0  0  0  0  0  0  0  0  0  0  0  0
    5.5670   -5.0540   21.4390 S   0  0  0  0  0  0  0  0  0  0  0  0
    4.4860   -4.7640   22.3620 O   0  0  0  0  0  0  0  0  0  0  0  0
    5.3500   -6.1100   20.4960 O   0  0  0  0  0  0  0  0  0  0  0  0
    7.0490   -5.4250   22.1670 N   0  0  0  0  0  0  0  0  0  0  0  0
    7.9640   -6.3170   21.3530 C   0  0  0  0  0  0  0  0  0  0  0  0
    9.7530   -6.1330   20.8920 C   0  0  0  0  0  0  0  0  0  0  0  0
   10.7530   -5.3830   20.0250 C   0  0  0  0  0  0  0  0  0  0  0  0
   10.7350   -5.2690   18.7020 O   0  0  0  0  0  0  0  0  0  0  0  0
   11.8480   -4.7020   20.6680 N   0  0  0  0  0  0  0  0  0  0  0  0
   11.7840   -3.3320   21.0170 C   0  0  0  0  0  0  0  0  0  0  0  0
   12.7910   -3.0630   21.9310 C   0  0  0  0  0  0  0  0  0  0  0  0
   13.7310   -2.9760   21.3360 N   0  0  0  0  0  0  0  0  0  0  0  0
   13.3280   -1.5060   21.0070 S   0  0  0  0  0  0  0  0  0  0  0  0
   12.2830   -2.1330   20.3410 O   0  0  0  0  0  0  0  0  0  0  0  0
   14.1940   -0.7600   20.1520 O   0  0  0  0  0  0  0  0  0  0  0  0
   12.1500   -0.7180   22.0440 C   0  0  0  0  0  0  0  0  0  0  0  0
   11.0210   -1.5150   22.2350 C   0  0  0  0  0  0  0  0  0  0  0  0
    9.9360   -1.0630   22.9490 C   0  0  0  0  0  0  0  0  0  0  0  0
    9.9840    0.2110   23.4500 C   0  0  0  0  0  0  0  0  0  0  0  0
   11.0610    1.0250   23.2820 C   0  0  0  0  0  0  0  0  0  0  0  0
   12.2010    0.5780   22.5910 C   0  0  0  0  0  0  0  0  0  0  0  0
   10.7490    2.2210   23.8650 C   0  0  0  0  0  0  0  0  0  0  0  0
    9.3890    2.1950   24.2620 C   0  0  0  0  0  0  0  0  0  0  0  0
    8.9900    0.8610   24.1640 C   0  0  0  0  0  0  0  0  0  0  0  0
   14.0370   -3.9580   20.4720 C   0  0  0  0  0  0  0  0  0  0  0  0
   12.9050   -4.8180   20.0190 C   0  0  0  0  0  0  0  0  0  0  0  0
  1  2  1  0
  2  3  1  0
  3  4  2  0
  3  5  2  0
  3  6  1  0
  6  7  1  0
  7  8  1  0
  8  9  1  0
  9 10  2  0
  9 11  1  0
 11 12  1  0
 12 13  1  0
 13 14  1  0
 14 15  1  0
 15 16  2  0
 15 17  2  0
 15 18  1  0
 18 19  2  0
 19 20  1  0
 20 21  2  0
 21 22  1  0
 18 23  1  0
 22 23  2  0
 22 24  1  0
 24 25  1  0
 21 26  1  0
 25 26  1  0
 14 27  1  0
 11 28  1  0
 27 28  1  0
M  END
