SAD-SAT-2ceae68f-4-chloroacetamide
     RDKit          3D

 28 30  0  0  0  0  0  0  0  0999 V2000
    6.2760   -5.4400   20.1150 C   0  0  0  0  0  0  0  0  0  0  0  0
    6.1920   -3.9200   20.1500 C   0  0  0  0  0  0  0  0  0  0  0  0
    5.4910   -3.4020   19.2880 O   0  0  0  0  0  0  0  0  0  0  0  0
    6.8590   -3.1350   21.0920 N   0  0  0  0  0  0  0  0  0  0  0  0
    8.1780   -2.6170   20.7260 C   0  0  0  0  0  0  0  0  0  0  0  0
    8.8870   -1.6580   21.6840 C   0  0  0  0  0  0  0  0  0  0  0  0
    7.9770   -1.0160   22.6650 C   0  0  0  0  0  0  0  0  0  0  0  0
    8.6600   -0.2270   23.5930 C   0  0  0  0  0  0  0  0  0  0  0  0
    8.8920   -0.6320   24.7370 O   0  0  0  0  0  0  0  0  0  0  0  0
    9.0960    1.0360   23.2740 N   0  0  0  0  0  0  0  0  0  0  0  0
   10.5330    1.3310   23.4210 C   0  0  0  0  0  0  0  0  0  0  0  0
   10.8010    2.7040   23.2080 C   0  0  0  0  0  0  0  0  0  0  0  0
    9.7490    3.5170   22.7020 N   0  0  0  0  0  0  0  0  0  0  0  0
    9.5360    4.9810   23.5820 S   0  0  0  0  0  0  0  0  0  0  0  0
   10.7660    5.1840   24.3210 O   0  0  0  0  0  0  0  0  0  0  0  0
    9.0160    5.9630   22.6470 O   0  0  0  0  0  0  0  0  0  0  0  0
    8.2760    4.5100   24.6640 C   0  0  0  0  0  0  0  0  0  0  0  0
    7.2570    4.9500   25.7670 C   0  0  0  0  0  0  0  0  0  0  0  0
    6.3120    4.1010   26.4350 C   0  0  0  0  0  0  0  0  0  0  0  0
    6.7730    3.2190   25.7430 C   0  0  0  0  0  0  0  0  0  0  0  0
    7.5680    4.2840   25.2820 C   0  0  0  0  0  0  0  0  0  0  0  0
    8.1070    5.6420   25.1520 C   0  0  0  0  0  0  0  0  0  0  0  0
    9.0300    6.4590   24.5020 C   0  0  0  0  0  0  0  0  0  0  0  0
    9.1690    7.7790   24.7610 N   0  0  0  0  0  0  0  0  0  0  0  0
    8.5680    2.9400   22.4010 C   0  0  0  0  0  0  0  0  0  0  0  0
    8.2310    2.0640   23.4220 C   0  0  0  0  0  0  0  0  0  0  0  0
    7.0110   -1.8740   23.1450 C   0  0  0  0  0  0  0  0  0  0  0  0
    6.1210   -2.4130   22.0120 C   0  0  0  0  0  0  0  0  0  0  0  0
  1  2  1  0
  2  3  2  0
  2  4  1  0
  4  5  1  0
  5  6  1  0
  6  7  1  0
  7  8  1  0
  8  9  2  0
  8 10  1  0
 10 11  1  0
 11 12  1  0
 12 13  1  0
 13 14  1  0
 14 15  2  0
 14 16  2  0
 14 17  1  0
 17 18  2  0
 18 19  1  0
 19 20  2  0
 20 21  1  0
 17 22  1  0
 21 22  2  0
 22 23  1  0
 23 24  3  0
 13 25  1  0
 10 26  1  0
 25 26  1  0
  7 27  1  0
  4 28  1  0
 27 28  1  0
M  END
