SAD-SAT-2ceae68f-10-nitrile
     RDKit          3D

 19 20  0  0  0  0  0  0  0  0999 V2000
    6.9190   -3.4350   19.6460 C   0  0  0  0  0  0  0  0  0  0  0  0
    5.8530   -3.1410   19.0090 N   0  0  0  0  0  0  0  0  0  0  0  0
    7.6690   -2.5520   20.4030 N   0  0  0  0  0  0  0  0  0  0  0  0
    7.1260   -1.5340   21.3590 C   0  0  0  0  0  0  0  0  0  0  0  0
    8.2090   -0.3890   21.4080 C   0  0  0  0  0  0  0  0  0  0  0  0
    7.8290    0.4730   22.6780 C   0  0  0  0  0  0  0  0  0  0  0  0
    6.6630    0.5300   23.0670 O   0  0  0  0  0  0  0  0  0  0  0  0
    8.8530    1.1910   23.3310 N   0  0  0  0  0  0  0  0  0  0  0  0
    9.9990    1.7570   22.6530 C   0  0  0  0  0  0  0  0  0  0  0  0
   11.2700    1.1240   23.2530 C   0  0  0  0  0  0  0  0  0  0  0  0
   11.0120   -0.2530   23.6150 O   0  0  0  0  0  0  0  0  0  0  0  0
    9.9260   -0.3700   24.5720 C   0  0  2  0  0  0  0  0  0  0  0  0
    9.0320   -1.6090   24.2650 C   0  0  0  0  0  0  0  0  0  0  0  0
    9.5570   -2.6080   23.3440 C   0  0  0  0  0  0  0  0  0  0  0  0
    8.5180   -3.6560   23.2470 C   0  0  0  0  0  0  0  0  0  0  0  0
    7.4270   -3.4250   23.9910 C   0  0  0  0  0  0  0  0  0  0  0  0
    6.0510   -4.4500   24.1020 Cl  0  0  0  0  0  0  0  0  0  0  0  0
    7.4650   -1.9760   24.8810 S   0  0  0  0  0  0  0  0  0  0  0  0
    9.2360    0.8370   24.6190 C   0  0  0  0  0  0  0  0  0  0  0  0
  1  2  2  3
  1  3  1  0
  3  4  1  0
  4  5  1  0
  5  6  1  0
  6  7  2  0
  6  8  1  0
  8  9  1  0
  9 10  1  0
 10 11  1  0
 11 12  1  0
 12 13  1  6
 13 14  2  0
 14 15  1  0
 15 16  2  0
 16 17  1  0
 13 18  1  0
 16 18  1  0
  8 19  1  0
 12 19  1  0
M  END
