SAD-SAT-29425be4-27-nitrile
     RDKit          3D

 27 29  0  0  0  0  0  0  0  0999 V2000
    6.8490   -3.1370   19.0640 C   0  0  0  0  0  0  0  0  0  0  0  0
    6.1360   -3.0980   18.0290 N   0  0  0  0  0  0  0  0  0  0  0  0
    6.6550   -2.2690   20.0470 N   0  0  0  0  0  0  0  0  0  0  0  0
    6.4630   -0.8420   19.7590 C   0  0  0  0  0  0  0  0  0  0  0  0
    7.3360   -0.1330   20.8460 C   0  0  0  0  0  0  0  0  0  0  0  0
    6.9620   -0.8450   22.1590 C   0  0  0  0  0  0  0  0  0  0  0  0
    8.1230   -1.8370   22.3320 C   0  0  0  0  0  0  0  0  0  0  0  0
    9.1420   -1.6670   21.6640 O   0  0  0  0  0  0  0  0  0  0  0  0
    8.0350   -2.8760   23.2540 N   0  0  0  0  0  0  0  0  0  0  0  0
    9.1290   -2.9500   24.1950 C   0  0  0  0  0  0  0  0  0  0  0  0
   10.1830   -1.8950   23.7590 C   0  0  0  0  0  0  0  0  0  0  0  0
    9.7650   -0.5680   24.4250 C   0  0  0  0  0  0  0  0  0  0  0  0
   10.6560    0.6220   24.0970 C   0  0  0  0  0  0  0  0  0  0  0  0
   11.8410    0.4080   23.1750 C   0  0  0  0  0  0  0  0  0  0  0  0
   12.5760    1.6620   22.9440 C   0  0  0  0  0  0  0  0  0  0  0  0
   13.7790    1.1150   22.2630 C   0  0  0  0  0  0  0  0  0  0  0  0
   12.2340   -0.8010   22.5840 C   0  0  0  0  0  0  0  0  0  0  0  0
   11.4230   -2.0430   22.8380 C   0  0  0  0  0  0  0  0  0  0  0  0
    6.8680   -2.9800   23.8860 C   0  0  0  0  0  0  0  0  0  0  0  0
    5.9410   -4.1590   23.5470 C   0  0  0  0  0  0  0  0  0  0  0  0
    6.5860   -5.4560   23.0830 C   0  0  0  0  0  0  0  0  0  0  0  0
    5.6950   -6.6200   22.7530 C   0  0  0  0  0  0  0  0  0  0  0  0
    4.2080   -6.3630   22.9290 C   0  0  0  0  0  0  0  0  0  0  0  0
    3.6020   -5.2290   23.3380 N   0  0  0  0  0  0  0  0  0  0  0  0
    4.4000   -4.1710   23.6340 C   0  0  0  0  0  0  0  0  0  0  0  0
    5.6870   -1.6960   22.0130 C   0  0  0  0  0  0  0  0  0  0  0  0
    5.9220   -2.7680   21.1750 C   0  0  0  0  0  0  0  0  0  0  0  0
  1  2  2  3
  1  3  1  0
  3  4  1  0
  4  5  1  0
  5  6  1  0
  6  7  1  0
  7  8  2  0
  7  9  1  0
  9 10  1  0
 10 11  1  0
 11 12  2  0
 12 13  1  0
 13 14  2  0
 14 15  1  0
 15 16  1  0
 14 17  1  0
 11 18  1  0
 17 18  2  0
  9 19  1  0
 19 20  1  0
 20 21  2  0
 21 22  1  0
 22 23  2  0
 23 24  1  0
 20 25  1  0
 24 25  2  0
  6 26  1  0
  3 27  1  0
 26 27  1  0
M  END
