SAD-SAT-29425be4-17-nitrile
     RDKit          3D

 43 47  0  0  0  0  0  0  0  0999 V2000
    6.4480   -4.8290   20.4370 C   0  0  0  0  0  0  0  0  0  0  0  0
    5.6140   -4.1140   19.7890 N   0  0  0  0  0  0  0  0  0  0  0  0
    6.2350   -5.0870   21.7920 N   0  0  0  0  0  0  0  0  0  0  0  0
    7.0710   -5.9150   22.7220 C   0  0  0  0  0  0  0  0  0  0  0  0
    7.5790   -4.9540   23.8700 C   0  0  0  0  0  0  0  0  0  0  0  0
    6.5240   -3.8470   23.9140 C   0  0  0  0  0  0  0  0  0  0  0  0
    6.6780   -3.1310   25.2650 C   0  0  0  0  0  0  0  0  0  0  0  0
    6.3490   -3.6870   26.3140 O   0  0  0  0  0  0  0  0  0  0  0  0
    7.1300   -1.8150   25.2360 N   0  0  0  0  0  0  0  0  0  0  0  0
    8.5330   -1.5040   24.8640 C   0  0  0  0  0  0  0  0  0  0  0  0
    8.7950    0.0710   24.8670 C   0  0  0  0  0  0  0  0  0  0  0  0
   10.2630    0.3930   24.4630 C   0  0  0  0  0  0  0  0  0  0  0  0
   10.7190    1.5290   24.3800 O   0  0  0  0  0  0  0  0  0  0  0  0
   11.6020    1.7960   23.2940 C   0  0  0  0  0  0  0  0  0  0  0  0
   11.2530   -0.7020   24.1390 C   0  0  0  0  0  0  0  0  0  0  0  0
   12.6050   -0.4100   23.7750 O   0  0  0  0  0  0  0  0  0  0  0  0
   13.0260   -0.8370   22.5460 C   0  0  0  0  0  0  0  0  0  0  0  0
   10.8680   -2.0350   24.1880 C   0  0  0  0  0  0  0  0  0  0  0  0
   11.8110   -2.9570   23.8960 O   0  0  0  0  0  0  0  0  0  0  0  0
   13.0820   -2.7740   24.5480 C   0  0  0  0  0  0  0  0  0  0  0  0
    9.5590   -2.4280   24.5280 C   0  0  0  0  0  0  0  0  0  0  0  0
    6.3840   -1.1930   24.3540 C   0  0  0  0  0  0  0  0  0  0  0  0
    7.1020   -0.7610   23.0460 C   0  0  0  0  0  0  0  0  0  0  0  0
    6.2930   -0.0580   21.9740 C   0  0  0  0  0  0  0  0  0  0  0  0
    4.8370    0.1410   22.3120 C   0  0  0  0  0  0  0  0  0  0  0  0
    4.3530    0.7980   21.1380 C   0  0  0  0  0  0  0  0  0  0  0  0
    5.7280    0.7060   20.6300 C   0  0  0  0  0  0  0  0  0  0  0  0
    6.4280    1.2600   19.1350 S   0  0  0  0  0  0  0  0  0  0  0  0
    5.3880    1.7410   18.2550 O   0  0  0  0  0  0  0  0  0  0  0  0
    7.4430    2.0610   19.7460 O   0  0  0  0  0  0  0  0  0  0  0  0
    7.2630   -0.0410   18.4270 N   0  0  0  0  0  0  0  0  0  0  0  0
    7.4150   -1.2190   19.3120 C   0  0  0  0  0  0  0  0  0  0  0  0
    6.2130   -1.8570   19.3960 C   0  0  0  0  0  0  0  0  0  0  0  0
    5.5950   -1.8850   18.1870 C   0  0  0  0  0  0  0  0  0  0  0  0
    6.4650   -1.7200   17.1100 C   0  0  0  0  0  0  0  0  0  0  0  0
    6.8020   -0.4080   17.0580 C   0  0  2  0  0  0  0  0  0  0  0  0
    7.8680   -0.2220   15.9890 C   0  0  0  0  0  0  0  0  0  0  0  0
    6.5650    0.0560   21.5990 C   0  0  0  0  0  0  0  0  0  0  0  0
    6.0600   -0.4900   23.0360 C   0  0  0  0  0  0  0  0  0  0  0  0
    4.5640   -0.3410   23.5020 C   0  0  0  0  0  0  0  0  0  0  0  0
    5.0530   -0.9550   24.5710 N   0  0  0  0  0  0  0  0  0  0  0  0
    5.1300   -4.4650   23.8200 C   0  0  0  0  0  0  0  0  0  0  0  0
    4.9280   -4.7670   22.3540 C   0  0  0  0  0  0  0  0  0  0  0  0
  1  2  2  3
  1  3  1  0
  3  4  1  0
  4  5  1  0
  5  6  1  0
  6  7  1  0
  7  8  2  0
  7  9  1  0
  9 10  1  0
 10 11  2  0
 11 12  1  0
 12 13  1  0
 13 14  1  0
 12 15  2  0
 15 16  1  0
 16 17  1  0
 15 18  1  0
 18 19  1  0
 19 20  1  0
 10 21  1  0
 18 21  2  0
  9 22  1  0
 22 23  2  0
 23 24  1  0
 24 25  2  0
 25 26  1  0
 26 27  2  0
 28 27  1  0
 28 29  2  0
 28 30  2  0
 28 31  1  0
 31 32  1  0
 32 33  1  0
 33 34  1  0
 34 35  1  0
 31 36  1  0
 35 36  1  0
 36 37  1  6
 27 38  1  0
 38 39  2  0
 25 40  1  0
 39 40  1  0
 22 41  1  0
 40 41  2  0
  6 42  1  0
  3 43  1  0
 42 43  1  0
M  END
