SAD-SAT-7d5528d9-13
     RDKit          3D

 23 25  0  0  0  0  0  0  0  0999 V2000
    5.2830    0.6940   22.1280 C   0  0  0  0  0  0  0  0  0  0  0  0
    5.6580    0.5770   20.6760 C   0  0  0  0  0  0  0  0  0  0  0  0
    4.7920    1.2130   19.6130 C   0  0  0  0  0  0  0  0  0  0  0  0
    5.2090    1.0710   18.1740 C   0  0  0  0  0  0  0  0  0  0  0  0
    6.2950    0.4130   17.7420 N   0  0  0  0  0  0  0  0  0  0  0  0
    7.0570   -0.1530   18.7100 C   0  0  0  0  0  0  0  0  0  0  0  0
    6.7930   -0.1020   20.2200 C   0  0  0  0  0  0  0  0  0  0  0  0
    7.7580   -0.7690   21.0760 N   0  0  0  0  0  0  0  0  0  0  0  0
    8.6210    0.1650   21.7970 C   0  0  0  0  0  0  0  0  0  0  0  0
    9.5860   -0.4800   22.5590 C   0  0  0  0  0  0  0  0  0  0  0  0
   10.4080   -1.4150   21.9820 C   0  0  0  0  0  0  0  0  0  0  0  0
   11.3830   -1.9270   22.8030 C   0  0  0  0  0  0  0  0  0  0  0  0
   11.2380   -1.9070   24.2070 N   0  0  0  0  0  0  0  0  0  0  0  0
   11.7450   -3.1820   24.6940 C   0  0  0  0  0  0  0  0  0  0  0  0
   10.6300   -3.9620   25.0420 C   0  0  0  0  0  0  0  0  0  0  0  0
   10.5900   -4.4920   26.3210 C   0  0  0  0  0  0  0  0  0  0  0  0
    9.4440   -5.3400   26.8360 C   0  0  0  0  0  0  0  0  0  0  0  0
    8.2980   -5.6250   25.9060 C   0  0  0  0  0  0  0  0  0  0  0  0
    8.4140   -5.0150   24.4910 C   0  0  0  0  0  0  0  0  0  0  0  0
    7.1630   -5.2930   23.3400 Cl  0  0  0  0  0  0  0  0  0  0  0  0
    9.5450   -4.2270   24.1300 C   0  0  0  0  0  0  0  0  0  0  0  0
    9.9420   -1.6340   24.6640 C   0  0  0  0  0  0  0  0  0  0  0  0
    8.8900   -1.1970   23.7020 C   0  0  0  0  0  0  0  0  0  0  0  0
  1  2  1  0
  2  3  2  0
  3  4  1  0
  4  5  2  0
  5  6  1  0
  2  7  1  0
  6  7  2  0
  7  8  1  0
  8  9  1  0
  9 10  1  0
 10 11  1  0
 11 12  1  0
 12 13  1  0
 13 14  1  0
 14 15  1  0
 15 16  2  0
 16 17  1  0
 17 18  2  0
 18 19  1  0
 19 20  1  0
 15 21  1  0
 19 21  2  0
 13 22  1  0
 10 23  1  0
 22 23  1  0
M  END
