SAD-SAT-29425be4-27-acrylamide
     RDKit          3D

 29 31  0  0  0  0  0  0  0  0999 V2000
    7.3550   -2.9530   18.4120 C   0  0  0  0  0  0  0  0  0  0  0  0
    6.6460   -1.8800   19.2040 C   0  0  0  0  0  0  0  0  0  0  0  0
    5.8650   -2.5450   20.2970 C   0  0  0  0  0  0  0  0  0  0  0  0
    4.9880   -3.3770   20.0830 O   0  0  0  0  0  0  0  0  0  0  0  0
    6.2420   -2.1880   21.5400 N   0  0  0  0  0  0  0  0  0  0  0  0
    5.9560   -3.0580   22.6910 C   0  0  0  0  0  0  0  0  0  0  0  0
    7.3140   -3.6920   23.0520 C   0  0  0  0  0  0  0  0  0  0  0  0
    7.9690   -2.3700   23.4400 C   0  0  0  0  0  0  0  0  0  0  0  0
    9.2570   -2.8630   24.1760 C   0  0  0  0  0  0  0  0  0  0  0  0
    9.2370   -3.9580   24.7480 O   0  0  0  0  0  0  0  0  0  0  0  0
   10.4550   -2.0290   24.1930 N   0  0  0  0  0  0  0  0  0  0  0  0
   10.2520   -0.7850   24.9260 C   0  0  0  0  0  0  0  0  0  0  0  0
   10.5740    0.5540   24.2290 C   0  0  0  0  0  0  0  0  0  0  0  0
    9.3860    1.4970   23.9020 C   0  0  0  0  0  0  0  0  0  0  0  0
    9.6530    2.8760   23.2520 C   0  0  0  0  0  0  0  0  0  0  0  0
   11.0960    3.2690   22.9540 C   0  0  0  0  0  0  0  0  0  0  0  0
   11.3040    4.6420   22.3820 C   0  0  0  0  0  0  0  0  0  0  0  0
   12.3390    5.1890   23.3700 C   0  0  0  0  0  0  0  0  0  0  0  0
   12.1530    2.4480   23.1990 C   0  0  0  0  0  0  0  0  0  0  0  0
   11.9810    1.0780   23.8330 C   0  0  0  0  0  0  0  0  0  0  0  0
   11.8290   -2.4440   24.0460 C   0  0  0  0  0  0  0  0  0  0  0  0
   12.5060   -1.4250   23.2260 C   0  0  0  0  0  0  0  0  0  0  0  0
   12.4780   -0.0670   23.8720 C   0  0  0  0  0  0  0  0  0  0  0  0
   13.1330    1.0050   23.0690 C   0  0  0  0  0  0  0  0  0  0  0  0
   13.7000    0.5250   21.7910 C   0  0  0  0  0  0  0  0  0  0  0  0
   13.6670   -0.7440   21.2970 N   0  0  0  0  0  0  0  0  0  0  0  0
   13.0820   -1.6760   22.0130 C   0  0  0  0  0  0  0  0  0  0  0  0
    8.3790   -1.5380   22.2290 C   0  0  0  0  0  0  0  0  0  0  0  0
    7.1760   -1.0780   21.7330 C   0  0  0  0  0  0  0  0  0  0  0  0
  1  2  1  0
  2  3  1  0
  3  4  2  0
  3  5  1  0
  5  6  1  0
  6  7  1  0
  7  8  1  0
  8  9  1  0
  9 10  2  0
  9 11  1  0
 11 12  1  0
 12 13  1  0
 13 14  2  0
 14 15  1  0
 15 16  2  0
 16 17  1  0
 17 18  1  0
 16 19  1  0
 13 20  1  0
 19 20  2  0
 11 21  1  0
 21 22  1  0
 22 23  2  0
 23 24  1  0
 24 25  2  0
 25 26  1  0
 22 27  1  0
 26 27  2  0
  8 28  1  0
  5 29  1  0
 28 29  1  0
M  END
