SAD-SAT-29425be4-11-nitrile
     RDKit          3D

 26 27  0  0  0  0  0  0  0  0999 V2000
    7.1860   -3.2860   19.1270 C   0  0  0  0  0  0  0  0  0  0  0  0
    6.3620   -3.0280   18.1920 N   0  0  0  0  0  0  0  0  0  0  0  0
    6.7880   -3.2850   20.4060 N   0  0  0  0  0  0  0  0  0  0  0  0
    5.5900   -2.5040   20.6430 C   0  0  0  0  0  0  0  0  0  0  0  0
    5.5860   -1.9380   22.0470 C   0  0  0  0  0  0  0  0  0  0  0  0
    5.8880   -3.0100   23.0650 C   0  0  0  0  0  0  0  0  0  0  0  0
    7.1070   -2.6120   23.9020 C   0  0  0  0  0  0  0  0  0  0  0  0
    7.0290   -2.4270   25.1140 O   0  0  0  0  0  0  0  0  0  0  0  0
    8.2970   -2.4690   23.2210 N   0  0  0  0  0  0  0  0  0  0  0  0
    9.4540   -2.9150   23.9380 C   0  0  0  0  0  0  0  0  0  0  0  0
   10.6110   -1.9680   23.7630 C   0  0  0  0  0  0  0  0  0  0  0  0
   10.6150   -0.6800   24.4960 C   0  0  0  0  0  0  0  0  0  0  0  0
   11.6330    0.2240   24.3610 C   0  0  0  0  0  0  0  0  0  0  0  0
   12.6900   -0.1540   23.4870 C   0  0  0  0  0  0  0  0  0  0  0  0
   13.7650    0.5480   23.2130 O   0  0  0  0  0  0  0  0  0  0  0  0
   13.5110    1.6440   22.4180 C   0  0  0  0  0  0  0  0  0  0  0  0
   12.3820    2.3930   22.9830 C   0  0  0  0  0  0  0  0  0  0  0  0
   11.0360    2.0170   23.0350 C   0  0  0  0  0  0  0  0  0  0  0  0
   12.6870   -1.3360   22.8110 C   0  0  0  0  0  0  0  0  0  0  0  0
   11.6780   -2.2320   22.9360 C   0  0  0  0  0  0  0  0  0  0  0  0
    8.5390   -1.2210   22.3770 C   0  0  0  0  0  0  0  0  0  0  0  0
    9.8060   -1.1530   21.8180 C   0  0  0  0  0  0  0  0  0  0  0  0
    8.3870    0.0480   23.2550 C   0  0  0  0  0  0  0  0  0  0  0  0
    7.6340   -1.0790   21.1490 C   0  0  0  0  0  0  0  0  0  0  0  0
    6.0450   -4.3690   22.4070 C   0  0  0  0  0  0  0  0  0  0  0  0
    7.1440   -4.3080   21.4030 C   0  0  0  0  0  0  0  0  0  0  0  0
  1  2  2  3
  1  3  1  0
  3  4  1  0
  4  5  1  0
  5  6  1  0
  6  7  1  0
  7  8  2  0
  7  9  1  0
  9 10  1  0
 10 11  1  0
 11 12  2  0
 12 13  1  0
 13 14  2  0
 14 15  1  0
 15 16  1  0
 16 17  1  0
 17 18  2  3
 14 19  1  0
 11 20  1  0
 19 20  2  0
 21  9  1  0
 21 22  1  0
 21 23  1  0
 21 24  1  0
  6 25  1  0
  3 26  1  0
 25 26  1  0
M  END
