SAD-SAT-6b5a89f0-3-vinylsulfonamide
     RDKit          3D

 12 12  0  0  0  0  0  0  0  0999 V2000
    6.7880   -3.6340   19.8100 C   0  0  0  0  0  0  0  0  0  0  0  0
    6.9230   -3.8780   21.3010 C   0  0  0  0  0  0  0  0  0  0  0  0
    5.3110   -4.2770   21.8550 S   0  0  0  0  0  0  0  0  0  0  0  0
    4.9030   -5.5170   21.2700 O   0  0  0  0  0  0  0  0  0  0  0  0
    4.5310   -3.1500   21.5350 O   0  0  0  0  0  0  0  0  0  0  0  0
    5.3600   -4.3890   23.5100 N   0  0  0  0  0  0  0  0  0  0  0  0
    6.6990   -4.4170   24.0480 C   0  0  0  0  0  0  0  0  0  0  0  0
    6.9940   -3.1730   24.4240 N   0  0  0  0  0  0  0  0  0  0  0  0
    5.8020   -2.5990   24.4410 C   0  0  0  0  0  0  0  0  0  0  0  0
    5.7290   -1.1410   24.8190 C   0  0  0  0  0  0  0  0  0  0  0  0
    6.3610   -0.0800   24.1290 N   0  0  0  0  0  0  0  0  0  0  0  0
    4.6610   -3.3580   24.1090 C   0  0  0  0  0  0  0  0  0  0  0  0
  1  2  1  0
  3  2  1  0
  3  4  2  0
  3  5  2  0
  3  6  1  0
  6  7  1  0
  7  8  1  0
  8  9  2  0
  9 10  1  0
 10 11  3  0
  6 12  1  0
  9 12  1  0
M  END
