SAD-SAT-f0a2747f-6-nitrile
     RDKit          3D

 18 20  0  0  0  0  0  0  0  0999 V2000
    7.5980   -3.3180   19.6550 C   0  0  0  0  0  0  0  0  0  0  0  0
    6.4030   -3.6240   19.2590 N   0  0  0  0  0  0  0  0  0  0  0  0
    7.8940   -2.0590   20.1480 N   0  0  0  0  0  0  0  0  0  0  0  0
    6.9900   -1.0090   19.8440 C   0  0  0  0  0  0  0  0  0  0  0  0
    5.9720   -0.7430   20.7720 C   0  0  0  0  0  0  0  0  0  0  0  0
    6.2110   -1.2830   21.9880 N   0  0  0  0  0  0  0  0  0  0  0  0
    5.7210   -2.6710   22.0870 C   0  0  0  0  0  0  0  0  0  0  0  0
    5.4220   -3.1260   23.3830 C   0  0  0  0  0  0  0  0  0  0  0  0
    6.8270   -3.7560   23.1080 N   0  0  0  0  0  0  0  0  0  0  0  0
    7.5960   -4.6150   24.0480 C   0  0  0  0  0  0  0  0  0  0  0  0
    8.7300   -4.9410   23.4420 C   0  0  0  0  0  0  0  0  0  0  0  0
    9.3800   -5.7090   24.3410 C   0  0  0  0  0  0  0  0  0  0  0  0
    8.4670   -5.7430   25.4610 C   0  0  0  0  0  0  0  0  0  0  0  0
    7.0520   -4.9660   25.4210 C   0  0  0  0  0  0  0  0  0  0  0  0
    6.4670   -4.0890   24.2220 C   0  0  0  0  0  0  0  0  0  0  0  0
    5.4390   -3.7250   24.6240 N   0  0  0  0  0  0  0  0  0  0  0  0
    7.5830   -1.1510   22.3320 C   0  0  0  0  0  0  0  0  0  0  0  0
    8.5320   -1.8850   21.4130 C   0  0  0  0  0  0  0  0  0  0  0  0
  1  2  2  3
  1  3  1  0
  3  4  1  0
  4  5  1  0
  5  6  1  0
  6  7  1  0
  7  8  1  0
  8  9  2  0
  9 10  1  0
 10 11  2  0
 11 12  1  0
 12 13  2  0
 13 14  1  0
 10 15  1  0
 14 15  2  0
  8 16  1  0
 15 16  1  0
  6 17  1  0
  3 18  1  0
 17 18  1  0
M  END
