SAD-SAT-29425be4-5-acrylamide
     RDKit          3D

 37 39  0  0  0  0  0  0  0  0999 V2000
    7.9300   -3.2640   19.0550 C   0  0  0  0  0  0  0  0  0  0  0  0
    6.7050   -2.4450   18.8510 C   0  0  0  0  0  0  0  0  0  0  0  0
    5.7820   -2.8290   19.9440 C   0  0  0  0  0  0  0  0  0  0  0  0
    4.9150   -3.6400   19.6800 O   0  0  0  0  0  0  0  0  0  0  0  0
    6.0650   -2.2810   21.1910 N   0  0  0  0  0  0  0  0  0  0  0  0
    6.0260   -3.1920   22.3660 C   0  0  0  0  0  0  0  0  0  0  0  0
    7.3760   -3.4250   23.1170 C   0  0  0  0  0  0  0  0  0  0  0  0
    8.1880   -2.1440   23.2230 C   0  0  0  0  0  0  0  0  0  0  0  0
    9.5190   -2.2890   23.9790 C   0  0  0  0  0  0  0  0  0  0  0  0
    9.6730   -3.2010   24.7860 O   0  0  0  0  0  0  0  0  0  0  0  0
   10.5020   -1.3410   23.6770 N   0  0  0  0  0  0  0  0  0  0  0  0
   11.4590   -1.6610   22.6260 C   0  0  0  0  0  0  0  0  0  0  0  0
   12.4000   -0.6660   22.4400 C   0  0  0  0  0  0  0  0  0  0  0  0
   13.5450   -0.9700   22.1090 O   0  0  0  0  0  0  0  0  0  0  0  0
   11.8530    0.7120   22.6390 N   0  0  0  0  0  0  0  0  0  0  0  0
   10.4770    1.1740   22.6290 C   0  0  0  0  0  0  0  0  0  0  0  0
    9.4140    0.3210   22.8080 C   0  0  0  0  0  0  0  0  0  0  0  0
    8.0300    0.7540   22.8190 C   0  0  0  0  0  0  0  0  0  0  0  0
    7.7030    2.0770   22.6480 C   0  0  0  0  0  0  0  0  0  0  0  0
    8.6630    3.0510   22.4560 C   0  0  0  0  0  0  0  0  0  0  0  0
    8.3890    4.4040   22.2930 C   0  0  0  0  0  0  0  0  0  0  0  0
   10.1390    2.5780   22.4360 C   0  0  0  0  0  0  0  0  0  0  0  0
   11.1470    3.5170   22.2350 C   0  0  0  0  0  0  0  0  0  0  0  0
   10.8920   -0.3810   24.7810 C   0  0  0  0  0  0  0  0  0  0  0  0
   10.2250    1.0070   24.7840 C   0  0  0  0  0  0  0  0  0  0  0  0
    9.1060    1.1530   25.2750 O   0  0  0  0  0  0  0  0  0  0  0  0
   11.0110    2.0170   24.2150 N   0  0  0  0  0  0  0  0  0  0  0  0
   10.8100    3.4400   24.1960 C   0  0  0  0  0  0  0  0  0  0  0  0
    9.6380    4.1230   24.8750 C   0  0  0  0  0  0  0  0  0  0  0  0
    9.5340    5.6270   24.8000 C   0  0  0  0  0  0  0  0  0  0  0  0
   10.6080    6.3920   24.0460 C   0  0  0  0  0  0  0  0  0  0  0  0
   11.6650    5.6880   23.4410 C   0  0  0  0  0  0  0  0  0  0  0  0
   12.7490    6.4380   22.6850 C   0  0  0  0  0  0  0  0  0  0  0  0
   11.7700    4.2760   23.5060 C   0  0  0  0  0  0  0  0  0  0  0  0
   12.9850    3.6890   22.7910 C   0  0  0  0  0  0  0  0  0  0  0  0
    8.3720   -1.6560   21.8030 C   0  0  0  0  0  0  0  0  0  0  0  0
    7.0360   -1.1940   21.2540 C   0  0  0  0  0  0  0  0  0  0  0  0
  1  2  1  0
  2  3  1  0
  3  4  2  0
  3  5  1  0
  5  6  1  0
  6  7  1  0
  7  8  1  0
  8  9  1  0
  9 10  2  0
  9 11  1  0
 11 12  1  0
 12 13  1  0
 13 14  2  0
 13 15  1  0
 15 16  1  0
 16 17  2  0
 17 18  1  0
 18 19  2  0
 19 20  1  0
 20 21  1  0
 16 22  1  0
 20 22  2  0
 22 23  1  0
 11 24  1  0
 24 25  1  0
 25 26  2  0
 25 27  1  0
 27 28  1  0
 28 29  2  0
 29 30  1  0
 30 31  2  0
 31 32  1  0
 32 33  1  0
 28 34  1  0
 32 34  2  0
 34 35  1  0
  8 36  1  0
  5 37  1  0
 36 37  1  0
M  END
