SAD-SAT-f0a2747f-5-vinylsulfonamide
     RDKit          3D

 22 23  0  0  0  0  0  0  0  0999 V2000
    8.0350   -3.3570   19.3080 C   0  0  0  0  0  0  0  0  0  0  0  0
    7.8820   -2.8590   20.7350 C   0  0  0  0  0  0  0  0  0  0  0  0
    6.1300   -2.6240   21.1330 S   0  0  0  0  0  0  0  0  0  0  0  0
    5.2620   -3.7430   20.6970 O   0  0  0  0  0  0  0  0  0  0  0  0
    5.8450   -1.2810   20.6800 O   0  0  0  0  0  0  0  0  0  0  0  0
    6.2450   -2.5950   22.8310 N   0  0  0  0  0  0  0  0  0  0  0  0
    7.5840   -2.6290   23.4010 C   0  0  0  0  0  0  0  0  0  0  0  0
    8.1750   -1.5860   24.1020 C   0  0  0  0  0  0  0  0  0  0  0  0
    9.4540   -1.6800   24.6210 C   0  0  0  0  0  0  0  0  0  0  0  0
   10.2930   -2.9020   24.4630 C   0  0  0  0  0  0  0  0  0  0  0  0
   11.5900   -3.0030   24.9710 C   0  0  0  0  0  0  0  0  0  0  0  0
    9.6870   -3.9430   23.7680 C   0  0  0  0  0  0  0  0  0  0  0  0
    8.3800   -3.7750   23.2690 C   0  0  0  0  0  0  0  0  0  0  0  0
    7.8210   -5.1460   22.4820 S   0  0  0  0  0  0  0  0  0  0  0  0
    6.8350   -4.8170   21.4760 O   0  0  0  0  0  0  0  0  0  0  0  0
    8.9280   -6.0300   22.2070 O   0  0  0  0  0  0  0  0  0  0  0  0
    7.0440   -5.7340   23.8190 N   0  0  0  0  0  0  0  0  0  0  0  0
    7.6000   -7.0510   24.0880 C   0  0  0  0  0  0  0  0  0  0  0  0
    6.6370   -8.0080   23.3810 C   0  0  0  0  0  0  0  0  0  0  0  0
    5.4410   -8.0780   24.1790 O   0  0  0  0  0  0  0  0  0  0  0  0
    4.9580   -6.7750   24.5100 C   0  0  0  0  0  0  0  0  0  0  0  0
    5.6230   -5.7150   23.6810 C   0  0  0  0  0  0  0  0  0  0  0  0
  1  2  1  0
  2  3  1  0
  3  4  2  0
  3  5  2  0
  3  6  1  0
  6  7  1  0
  7  8  2  0
  8  9  1  0
  9 10  2  0
 10 11  1  0
 10 12  1  0
  7 13  1  0
 12 13  2  0
 14 13  1  0
 14 15  2  0
 14 16  2  0
 14 17  1  0
 17 18  1  0
 18 19  1  0
 19 20  1  0
 20 21  1  0
 17 22  1  0
 21 22  1  0
M  END
