SAD-SAT-65574d3f-3-vinylsulfonamide
     RDKit          3D

 16 16  0  0  0  0  0  0  0  0999 V2000
    7.4360   -4.0190   20.6610 C   0  0  0  0  0  0  0  0  0  0  0  0
    5.9970   -4.4710   20.6650 C   0  0  0  0  0  0  0  0  0  0  0  0
    5.7260   -5.6850   21.9050 S   0  0  0  0  0  0  0  0  0  0  0  0
    4.2800   -5.6940   21.9510 O   0  0  0  0  0  0  0  0  0  0  0  0
    6.5590   -6.8260   21.6240 O   0  0  0  0  0  0  0  0  0  0  0  0
    6.1510   -5.0870   23.4370 N   0  0  0  0  0  0  0  0  0  0  0  0
    5.0040   -5.3940   24.1270 N   0  0  0  0  0  0  0  0  0  0  0  0
    4.8190   -5.0700   25.8190 S   0  0  0  0  0  0  0  0  0  0  0  0
    4.0650   -6.1770   26.3560 O   0  0  0  0  0  0  0  0  0  0  0  0
    6.0500   -4.6390   26.3990 O   0  0  0  0  0  0  0  0  0  0  0  0
    3.7570   -3.6630   25.8280 C   0  0  0  0  0  0  0  0  0  0  0  0
    2.1880   -3.8600   25.4950 C   0  0  0  0  0  0  0  0  0  0  0  0
    1.1040   -2.7480   25.4720 C   0  0  0  0  0  0  0  0  0  0  0  0
    1.7750   -1.4820   25.8120 C   0  0  0  0  0  0  0  0  0  0  0  0
    3.0800   -2.0750   25.9590 C   0  0  0  0  0  0  0  0  0  0  0  0
    4.3580   -2.3700   26.1510 C   0  0  0  0  0  0  0  0  0  0  0  0
  1  2  1  0
  2  3  1  0
  3  4  2  0
  3  5  2  0
  3  6  1  0
  6  7  1  0
  8  7  1  0
  8  9  2  0
  8 10  2  0
  8 11  1  0
 11 12  2  0
 12 13  1  0
 13 14  2  0
 14 15  1  0
 11 16  1  0
 15 16  2  0
M  END
