SAD-SAT-f2e2579e-9
     RDKit          3D

 28 30  0  0  0  0  0  0  0  0999 V2000
    5.3220   -4.2470   19.5520 O   0  0  0  0  0  0  0  0  0  0  0  0
    6.2030   -3.5270   20.0390 C   0  0  0  0  0  0  0  0  0  0  0  0
    6.7810   -2.4770   19.2370 C   0  0  0  0  0  0  0  0  0  0  0  0
    6.0550   -0.9080   19.6420 Cl  0  0  0  0  0  0  0  0  0  0  0  0
    6.6780   -3.7580   21.3200 N   0  0  0  0  0  0  0  0  0  0  0  0
    7.6200   -2.9100   22.0390 C   0  0  0  0  0  0  0  0  0  0  0  0
    7.1630   -2.6230   23.3280 C   0  0  0  0  0  0  0  0  0  0  0  0
    6.7600   -3.6770   24.1740 C   0  0  0  0  0  0  0  0  0  0  0  0
    5.9650   -3.1010   25.3670 C   0  0  0  0  0  0  0  0  0  0  0  0
    4.7330   -3.1360   25.3220 O   0  0  0  0  0  0  0  0  0  0  0  0
    6.6050   -2.5620   26.5040 N   0  0  0  0  0  0  0  0  0  0  0  0
    7.3350   -1.3100   26.5690 C   0  0  0  0  0  0  0  0  0  0  0  0
    6.4820   -0.1020   26.2070 C   0  0  0  0  0  0  0  0  0  0  0  0
    5.9510    0.5120   27.4840 C   0  0  0  0  0  0  0  0  0  0  0  0
    6.1720   -0.3990   28.6200 N   0  0  0  0  0  0  0  0  0  0  0  0
    6.2890    0.2970   30.1470 S   0  0  0  0  0  0  0  0  0  0  0  0
    5.7120    1.6220   30.0730 O   0  0  0  0  0  0  0  0  0  0  0  0
    5.7860   -0.6740   31.0930 O   0  0  0  0  0  0  0  0  0  0  0  0
    7.9810    0.5240   30.6720 C   0  0  0  0  0  0  0  0  0  0  0  0
    9.3140    0.5800   29.9290 C   0  0  0  0  0  0  0  0  0  0  0  0
   10.3990    0.7930   30.8360 C   0  0  0  0  0  0  0  0  0  0  0  0
    9.8690    0.8920   32.2590 C   0  0  0  0  0  0  0  0  0  0  0  0
   10.9410    1.1750   33.8150 Br  0  0  0  0  0  0  0  0  0  0  0  0
    8.1860    0.7270   32.3620 S   0  0  0  0  0  0  0  0  0  0  0  0
    5.3460   -1.6580   28.5610 C   0  0  0  0  0  0  0  0  0  0  0  0
    5.9250   -2.8480   27.7740 C   0  0  0  0  0  0  0  0  0  0  0  0
    5.8940   -4.7420   23.4440 C   0  0  0  0  0  0  0  0  0  0  0  0
    6.3210   -5.0040   21.9930 C   0  0  0  0  0  0  0  0  0  0  0  0
  1  2  2  0
  2  3  1  0
  3  4  1  0
  2  5  1  0
  5  6  1  0
  6  7  1  0
  7  8  1  0
  8  9  1  0
  9 10  2  0
  9 11  1  0
 11 12  1  0
 12 13  1  0
 13 14  1  0
 14 15  1  0
 15 16  1  0
 16 17  2  0
 16 18  2  0
 16 19  1  0
 19 20  2  0
 20 21  1  0
 21 22  2  0
 22 23  1  0
 19 24  1  0
 22 24  1  0
 15 25  1  0
 11 26  1  0
 25 26  1  0
  8 27  1  0
  5 28  1  0
 27 28  1  0
M  END
