SAD-SAT-2ceae68f-5-chloroacetamide
     RDKit          3D

 27 28  0  0  0  0  0  0  0  0999 V2000
    5.8690   -5.8830   19.8310 C   0  0  0  0  0  0  0  0  0  0  0  0
    5.6200   -4.4900   20.2880 C   0  0  0  0  0  0  0  0  0  0  0  0
    5.6380   -3.5640   19.4900 O   0  0  0  0  0  0  0  0  0  0  0  0
    5.3340   -4.3960   21.6280 N   0  0  0  0  0  0  0  0  0  0  0  0
    5.1240   -5.5940   22.4600 C   0  0  0  0  0  0  0  0  0  0  0  0
    5.5910   -3.2060   22.4290 C   0  0  0  0  0  0  0  0  0  0  0  0
    6.6400   -3.7450   23.4510 C   0  0  0  0  0  0  0  0  0  0  0  0
    6.5770   -4.8140   24.0610 O   0  0  0  0  0  0  0  0  0  0  0  0
    7.7170   -2.7520   23.5610 N   0  0  0  0  0  0  0  0  0  0  0  0
    8.5170   -2.3880   22.3840 C   0  0  0  0  0  0  0  0  0  0  0  0
    9.4790   -1.2520   22.7030 C   0  0  0  0  0  0  0  0  0  0  0  0
    8.7810   -0.0370   23.2360 N   0  0  0  0  0  0  0  0  0  0  0  0
    9.5150    0.7850   24.4950 S   0  0  0  0  0  0  0  0  0  0  0  0
    8.5660    1.7630   24.9730 O   0  0  0  0  0  0  0  0  0  0  0  0
   10.0620   -0.2000   25.4050 O   0  0  0  0  0  0  0  0  0  0  0  0
   10.8680    1.7130   23.7920 C   0  0  0  0  0  0  0  0  0  0  0  0
   11.3240    0.0780   23.5190 C   0  0  0  0  0  0  0  0  0  0  0  0
   12.6420   -0.5780   22.8260 C   0  0  0  0  0  0  0  0  0  0  0  0
   13.0040   -1.8830   22.5840 N   0  0  0  0  0  0  0  0  0  0  0  0
   13.3720   -2.1220   21.4240 O   0  0  0  0  0  0  0  0  0  0  0  0
   13.3360   -2.5620   23.5630 O   0  0  0  0  0  0  0  0  0  0  0  0
   13.2960    0.3990   22.5410 C   0  0  0  0  0  0  0  0  0  0  0  0
   12.3870    1.1300   23.0030 C   0  0  0  0  0  0  0  0  0  0  0  0
   12.0200    2.1920   23.1930 C   0  0  0  0  0  0  0  0  0  0  0  0
   12.5700    3.5440   22.9060 C   0  0  0  0  0  0  0  0  0  0  0  0
    7.4910   -0.3790   23.5270 C   0  0  0  0  0  0  0  0  0  0  0  0
    7.3190   -1.5110   24.3190 C   0  0  0  0  0  0  0  0  0  0  0  0
  1  2  1  0
  2  3  2  0
  2  4  1  0
  4  5  1  0
  4  6  1  0
  6  7  1  0
  7  8  2  0
  7  9  1  0
  9 10  1  0
 10 11  1  0
 11 12  1  0
 12 13  1  0
 13 14  2  0
 13 15  2  0
 13 16  1  0
 16 17  2  0
 17 18  1  0
 18 19  1  0
 19 20  2  0
 19 21  1  0
 18 22  2  0
 22 23  1  0
 16 24  1  0
 23 24  2  0
 24 25  1  0
 12 26  1  0
  9 27  1  0
 26 27  1  0
M  CHG  2  19   1  21  -1
M  END
