SAD-SAT-9a6c5cf3-6
     RDKit          3D

 30 33  0  0  0  0  0  0  0  0999 V2000
    5.3590   -4.4130   19.6770 O   0  0  0  0  0  0  0  0  0  0  0  0
    6.0930   -3.5750   20.2220 C   0  0  0  0  0  0  0  0  0  0  0  0
    6.4790   -2.2950   19.4800 C   0  0  0  0  0  0  0  0  0  0  0  0
    5.6290   -0.8880   20.1480 Cl  0  0  0  0  0  0  0  0  0  0  0  0
    6.6050   -3.8310   21.4880 N   0  0  0  0  0  0  0  0  0  0  0  0
    7.5140   -2.8470   22.0480 C   0  0  0  0  0  0  0  0  0  0  0  0
    6.9550   -2.3230   23.3550 C   0  0  0  0  0  0  0  0  0  0  0  0
    7.0080   -3.4450   24.3960 C   0  0  0  0  0  0  0  0  0  0  0  0
    6.2990   -3.0890   25.7470 C   0  0  0  0  0  0  0  0  0  0  0  0
    5.4750   -3.8690   26.2110 O   0  0  0  0  0  0  0  0  0  0  0  0
    6.5620   -1.8550   26.4010 N   0  0  0  0  0  0  0  0  0  0  0  0
    5.5000   -0.9830   26.1590 C   0  0  0  0  0  0  0  0  0  0  0  0
    6.0270    0.3820   25.8940 C   0  0  0  0  0  0  0  0  0  0  0  0
    6.5720    0.8690   27.1880 N   0  0  0  0  0  0  0  0  0  0  0  0
    6.5640    2.5560   27.4920 S   0  0  0  0  0  0  0  0  0  0  0  0
    5.2930    3.0930   27.0530 O   0  0  0  0  0  0  0  0  0  0  0  0
    6.9710    2.7200   28.8740 O   0  0  0  0  0  0  0  0  0  0  0  0
    7.8340    3.2420   26.4640 C   0  0  0  0  0  0  0  0  0  0  0  0
    8.5190    4.3950   26.8690 C   0  0  0  0  0  0  0  0  0  0  0  0
    9.5210    4.9350   26.0530 C   0  0  0  0  0  0  0  0  0  0  0  0
    9.8410    4.3230   24.8370 C   0  0  0  0  0  0  0  0  0  0  0  0
    9.1560    3.1720   24.4360 C   0  0  0  0  0  0  0  0  0  0  0  0
    8.1560    2.6380   25.2490 C   0  0  0  0  0  0  0  0  0  0  0  0
    9.6530    2.6780   23.1080 C   0  0  0  0  0  0  0  0  0  0  0  0
   10.9450    3.4810   22.9700 C   0  0  0  0  0  0  0  0  0  0  0  0
   10.8750    4.7400   23.8280 C   0  0  0  0  0  0  0  0  0  0  0  0
    6.3940   -0.1380   28.3060 C   0  0  0  0  0  0  0  0  0  0  0  0
    6.7870   -1.6050   27.8560 C   0  0  0  0  0  0  0  0  0  0  0  0
    6.4580   -4.7510   23.7550 C   0  0  0  0  0  0  0  0  0  0  0  0
    5.8590   -4.6240   22.4770 C   0  0  0  0  0  0  0  0  0  0  0  0
  1  2  2  0
  2  3  1  0
  3  4  1  0
  2  5  1  0
  5  6  1  0
  6  7  1  0
  7  8  1  0
  8  9  1  0
  9 10  2  0
  9 11  1  0
 11 12  1  0
 12 13  1  0
 13 14  1  0
 14 15  1  0
 15 16  2  0
 15 17  2  0
 15 18  1  0
 18 19  2  0
 19 20  1  0
 20 21  2  0
 21 22  1  0
 18 23  1  0
 22 23  2  0
 22 24  1  0
 24 25  1  0
 21 26  1  0
 25 26  1  0
 14 27  1  0
 11 28  1  0
 27 28  1  0
  8 29  1  0
  5 30  1  0
 29 30  1  0
M  END
