SAD-SAT-29425be4-18-nitrile
     RDKit          3D

 30 32  0  0  0  0  0  0  0  0999 V2000
    7.1180   -3.3390   19.1430 C   0  0  0  0  0  0  0  0  0  0  0  0
    6.4080   -2.9870   18.1490 N   0  0  0  0  0  0  0  0  0  0  0  0
    6.7260   -3.3470   20.3870 N   0  0  0  0  0  0  0  0  0  0  0  0
    6.9900   -2.1630   21.1810 C   0  0  0  0  0  0  0  0  0  0  0  0
    5.8890   -2.1660   22.2760 C   0  0  0  0  0  0  0  0  0  0  0  0
    5.9230   -3.5900   22.9030 C   0  0  0  0  0  0  0  0  0  0  0  0
    7.3610   -3.8180   23.3570 C   0  0  0  0  0  0  0  0  0  0  0  0
    7.6510   -4.9280   23.8200 O   0  0  0  0  0  0  0  0  0  0  0  0
    8.2940   -2.8160   23.2930 N   0  0  0  0  0  0  0  0  0  0  0  0
    8.8620   -2.2970   22.0330 C   0  0  0  0  0  0  0  0  0  0  0  0
    9.2390   -2.7300   24.3700 C   0  0  0  0  0  0  0  0  0  0  0  0
   10.1410   -1.6300   23.9410 C   0  0  0  0  0  0  0  0  0  0  0  0
   11.3760   -1.9660   23.1360 C   0  0  0  0  0  0  0  0  0  0  0  0
   12.2070   -0.8170   22.6770 C   0  0  0  0  0  0  0  0  0  0  0  0
   13.3690   -1.2900   21.8860 C   0  0  0  0  0  0  0  0  0  0  0  0
   11.7640    0.4550   23.0390 C   0  0  0  0  0  0  0  0  0  0  0  0
   12.2750    1.4710   22.7440 O   0  0  0  0  0  0  0  0  0  0  0  0
   11.1420    2.3500   22.9160 C   0  0  0  0  0  0  0  0  0  0  0  0
   11.7370    3.6960   22.8200 C   0  0  0  0  0  0  0  0  0  0  0  0
   10.9600    4.9980   22.9420 C   0  0  0  0  0  0  0  0  0  0  0  0
   11.7400    6.3350   22.8240 C   0  0  0  0  0  0  0  0  0  0  0  0
   13.2580    6.2700   22.5870 C   0  0  0  0  0  0  0  0  0  0  0  0
   13.9950    4.9380   22.4690 C   0  0  0  0  0  0  0  0  0  0  0  0
   15.4640    4.6950   22.2440 C   0  0  0  0  0  0  0  0  0  0  0  0
   13.2090    3.6880   22.5900 C   0  0  0  0  0  0  0  0  0  0  0  0
   10.6190    0.6780   23.7910 C   0  0  0  0  0  0  0  0  0  0  0  0
   10.2240    1.9640   24.0880 C   0  0  0  0  0  0  0  0  0  0  0  0
    9.8300   -0.3360   24.2390 C   0  0  0  0  0  0  0  0  0  0  0  0
    5.4790   -4.5840   21.8560 C   0  0  0  0  0  0  0  0  0  0  0  0
    5.4650   -3.9800   20.6410 C   0  0  0  0  0  0  0  0  0  0  0  0
  1  2  2  3
  1  3  1  0
  3  4  1  0
  4  5  1  0
  5  6  1  0
  6  7  1  0
  7  8  2  0
  7  9  1  0
  9 10  1  0
  9 11  1  0
 11 12  1  0
 12 13  2  0
 13 14  1  0
 14 15  1  0
 14 16  2  0
 16 17  1  0
 17 18  1  0
 18 19  1  0
 19 20  2  0
 20 21  1  0
 21 22  2  0
 22 23  1  0
 23 24  1  0
 19 25  1  0
 23 25  2  0
 16 26  1  0
 26 27  1  0
 12 28  1  0
 26 28  2  0
  6 29  1  0
  3 30  1  0
 29 30  1  0
M  END
