SAD-SAT-f0a2747f-10-vinylsulfonamide
     RDKit          3D

 16 17  0  0  0  0  0  0  0  0999 V2000
    8.2340   -3.9360   20.3080 C   0  0  0  0  0  0  0  0  0  0  0  0
    7.0680   -2.9730   20.2150 C   0  0  0  0  0  0  0  0  0  0  0  0
    5.6290   -3.7830   20.8410 S   0  0  0  0  0  0  0  0  0  0  0  0
    4.6540   -2.8520   21.1870 O   0  0  0  0  0  0  0  0  0  0  0  0
    5.2400   -4.8110   19.9090 O   0  0  0  0  0  0  0  0  0  0  0  0
    6.0830   -4.4070   22.3260 N   0  0  0  0  0  0  0  0  0  0  0  0
    5.2700   -5.4830   22.7890 C   0  0  0  0  0  0  0  0  0  0  0  0
    5.8090   -6.7370   22.6560 C   0  0  0  0  0  0  0  0  0  0  0  0
    7.2000   -6.7480   22.9770 O   0  0  0  0  0  0  0  0  0  0  0  0
    7.6070   -5.5860   23.7340 C   0  0  1  0  0  0  0  0  0  0  0  0
    8.9950   -5.8580   24.2170 C   0  0  0  0  0  0  0  0  0  0  0  0
    9.0760   -5.0990   25.6280 C   0  0  0  0  0  0  0  0  0  0  0  0
    7.9730   -4.4560   25.9710 C   0  0  0  0  0  0  0  0  0  0  0  0
    8.0700   -5.0770   24.9340 C   0  0  0  0  0  0  0  0  0  0  0  0
    9.8570   -5.5760   25.3350 S   0  0  0  0  0  0  0  0  0  0  0  0
    7.4630   -4.3140   22.8880 C   0  0  0  0  0  0  0  0  0  0  0  0
  1  2  1  0
  3  2  1  0
  3  4  2  0
  3  5  2  0
  3  6  1  0
  6  7  1  0
  7  8  1  0
  8  9  1  0
  9 10  1  0
 10 11  1  6
 11 12  2  0
 12 13  1  0
 13 14  2  0
 11 15  1  0
 14 15  1  0
  6 16  1  0
 10 16  1  0
M  END
