SAD-SAT-29425be4-1-vinylsulfonamide
     RDKit          3D

 32 34  0  0  0  0  0  0  0  0999 V2000
    7.5340   -3.7770   20.2840 C   0  0  0  0  0  0  0  0  0  0  0  0
    7.1930   -2.7190   19.2460 C   0  0  0  0  0  0  0  0  0  0  0  0
    5.4480   -2.4340   19.2680 S   0  0  0  0  0  0  0  0  0  0  0  0
    4.7790   -3.7150   19.4140 O   0  0  0  0  0  0  0  0  0  0  0  0
    5.1890   -1.5670   18.1490 O   0  0  0  0  0  0  0  0  0  0  0  0
    5.1800   -1.5380   20.6670 N   0  0  0  0  0  0  0  0  0  0  0  0
    5.6460   -2.1320   21.9230 C   0  0  0  0  0  0  0  0  0  0  0  0
    7.1120   -1.7900   22.0560 C   0  0  0  0  0  0  0  0  0  0  0  0
    7.2600   -0.2740   22.1000 C   0  0  0  0  0  0  0  0  0  0  0  0
    6.6210    0.1900   23.3900 C   0  0  0  0  0  0  0  0  0  0  0  0
    5.6170    0.9080   23.3640 O   0  0  0  0  0  0  0  0  0  0  0  0
    7.2100   -0.2190   24.5770 N   0  0  0  0  0  0  0  0  0  0  0  0
    6.4040    0.0490   25.7740 C   0  0  0  0  0  0  0  0  0  0  0  0
    6.7340    1.4070   26.3240 C   0  0  0  0  0  0  0  0  0  0  0  0
    8.5780    0.2510   24.6840 C   0  0  0  0  0  0  0  0  0  0  0  0
    9.6730   -0.5310   24.1810 C   0  0  0  0  0  0  0  0  0  0  0  0
    9.5900   -1.5490   23.2490 C   0  0  0  0  0  0  0  0  0  0  0  0
   10.8620   -2.1800   22.8730 C   0  0  0  0  0  0  0  0  0  0  0  0
   11.9110   -1.5650   23.5800 C   0  0  0  0  0  0  0  0  0  0  0  0
   13.2950   -1.6810   23.5820 C   0  0  0  0  0  0  0  0  0  0  0  0
   13.1430   -2.7050   24.4350 C   0  0  0  0  0  0  0  0  0  0  0  0
   11.8800   -3.0990   24.7150 C   0  0  0  0  0  0  0  0  0  0  0  0
   10.7680   -2.4730   24.1280 C   0  0  0  0  0  0  0  0  0  0  0  0
    9.4970   -3.0350   24.4880 C   0  0  0  0  0  0  0  0  0  0  0  0
    8.7080   -3.8120   23.4260 C   0  0  0  0  0  0  0  0  0  0  0  0
    8.5290   -2.1340   25.2310 C   0  0  0  0  0  0  0  0  0  0  0  0
    9.7700   -4.1330   25.5540 C   0  0  0  0  0  0  0  0  0  0  0  0
   11.0700   -1.3150   23.1980 C   0  0  0  0  0  0  0  0  0  0  0  0
   12.5470   -0.8310   22.8690 C   0  0  0  0  0  0  0  0  0  0  0  0
   11.3070   -0.3190   24.6440 S   0  0  0  0  0  0  0  0  0  0  0  0
    6.6550    0.4240   20.8650 C   0  0  0  0  0  0  0  0  0  0  0  0
    5.2630   -0.0880   20.5070 C   0  0  0  0  0  0  0  0  0  0  0  0
  1  2  1  0
  3  2  1  0
  3  4  2  0
  3  5  2  0
  3  6  1  0
  6  7  1  0
  7  8  1  0
  8  9  1  0
  9 10  1  0
 10 11  2  0
 10 12  1  0
 12 13  1  0
 13 14  1  0
 12 15  1  0
 15 16  1  0
 16 17  2  0
 17 18  1  0
 18 19  2  0
 19 20  1  0
 20 21  2  0
 21 22  1  0
 22 23  2  0
 23 24  1  0
 24 25  1  0
 24 26  1  0
 24 27  1  0
 23 28  1  0
 20 29  1  0
 28 29  2  0
 16 30  1  0
 19 30  1  0
  9 31  1  0
  6 32  1  0
 31 32  1  0
M  END
