SAD-SAT-29425be4-20-vinylsulfonamide
     RDKit          3D

 25 26  0  0  0  0  0  0  0  0999 V2000
    7.8890   -3.6260   19.9580 C   0  0  0  0  0  0  0  0  0  0  0  0
    7.3410   -4.6340   21.0160 C   0  0  0  0  0  0  0  0  0  0  0  0
    5.5830   -4.5340   20.7980 S   0  0  0  0  0  0  0  0  0  0  0  0
    4.8090   -5.3460   21.7030 O   0  0  0  0  0  0  0  0  0  0  0  0
    5.2480   -4.5040   19.4130 O   0  0  0  0  0  0  0  0  0  0  0  0
    5.4010   -2.9900   21.3280 N   0  0  0  0  0  0  0  0  0  0  0  0
    6.6550   -2.2710   21.3270 C   0  0  0  0  0  0  0  0  0  0  0  0
    7.3570   -2.6670   22.6520 C   0  0  0  0  0  0  0  0  0  0  0  0
    6.6020   -3.8950   23.2420 C   0  0  0  0  0  0  0  0  0  0  0  0
    7.4200   -3.9950   24.5030 C   0  0  0  0  0  0  0  0  0  0  0  0
    7.8410   -5.0620   24.9620 O   0  0  0  0  0  0  0  0  0  0  0  0
    7.6220   -2.6950   25.0960 N   0  0  0  0  0  0  0  0  0  0  0  0
    8.9870   -2.4480   25.4370 C   0  0  0  0  0  0  0  0  0  0  0  0
   10.0940   -2.9940   24.5630 C   0  0  0  0  0  0  0  0  0  0  0  0
   10.8930   -4.0130   25.4040 C   0  0  0  0  0  0  0  0  0  0  0  0
    9.6060   -3.5830   23.2630 C   0  0  0  0  0  0  0  0  0  0  0  0
   10.9310   -1.8200   24.0960 C   0  0  0  0  0  0  0  0  0  0  0  0
   10.9790   -0.4400   24.7570 C   0  0  0  0  0  0  0  0  0  0  0  0
   11.8950    0.5970   24.1020 C   0  0  0  0  0  0  0  0  0  0  0  0
   12.7240    0.3170   22.8760 C   0  0  0  0  0  0  0  0  0  0  0  0
   12.5880   -1.0700   22.3110 C   0  0  0  0  0  0  0  0  0  0  0  0
   13.2870   -1.6070   21.0820 C   0  0  0  0  0  0  0  0  0  0  0  0
   11.6860   -2.0660   22.9700 C   0  0  0  0  0  0  0  0  0  0  0  0
    5.1860   -3.5530   23.6380 C   0  0  0  0  0  0  0  0  0  0  0  0
    4.5650   -2.8180   22.5120 C   0  0  0  0  0  0  0  0  0  0  0  0
  1  2  1  0
  3  2  1  0
  3  4  2  0
  3  5  2  0
  3  6  1  0
  6  7  1  0
  7  8  1  0
  8  9  1  0
  9 10  1  0
 10 11  2  0
 10 12  1  0
 12 13  1  0
 14 13  1  0
 14 15  1  0
 14 16  1  0
 14 17  1  0
 17 18  2  0
 18 19  1  0
 19 20  2  0
 20 21  1  0
 21 22  1  0
 17 23  1  0
 21 23  2  0
  9 24  1  0
  6 25  1  0
 24 25  1  0
M  END
