SAD-SAT-29425be4-22-chloroacetamide
     RDKit          3D

 30 31  0  0  0  0  0  0  0  0999 V2000
    7.2290   -2.9850   18.8640 C   0  0  0  0  0  0  0  0  0  0  0  0
    6.2610   -3.3290   19.9850 C   0  0  0  0  0  0  0  0  0  0  0  0
    5.4050   -4.2110   19.8120 O   0  0  0  0  0  0  0  0  0  0  0  0
    6.4080   -2.6200   21.1980 N   0  0  0  0  0  0  0  0  0  0  0  0
    6.2380   -3.2790   22.4970 C   0  0  0  0  0  0  0  0  0  0  0  0
    7.6860   -3.4820   23.0220 C   0  0  0  0  0  0  0  0  0  0  0  0
    8.1800   -2.0350   23.1890 C   0  0  0  0  0  0  0  0  0  0  0  0
    9.4970   -2.3960   23.9480 C   0  0  0  0  0  0  0  0  0  0  0  0
    9.5090   -3.4120   24.6550 O   0  0  0  0  0  0  0  0  0  0  0  0
   10.6780   -1.5030   23.8030 N   0  0  0  0  0  0  0  0  0  0  0  0
   10.7780   -0.2860   24.6070 C   0  0  0  0  0  0  0  0  0  0  0  0
   10.2180    1.0120   23.9680 C   0  0  0  0  0  0  0  0  0  0  0  0
    8.6950    1.0320   23.7650 C   0  0  0  0  0  0  0  0  0  0  0  0
    8.0490    2.2750   23.1500 C   0  0  0  0  0  0  0  0  0  0  0  0
    8.9210    3.4710   22.7630 C   0  0  0  0  0  0  0  0  0  0  0  0
   10.4220    3.3120   23.0270 C   0  0  0  0  0  0  0  0  0  0  0  0
   11.1960    4.2290   22.7660 O   0  0  0  0  0  0  0  0  0  0  0  0
   12.2900    3.8330   21.9490 C   0  0  0  0  0  0  0  0  0  0  0  0
   10.9790    2.1290   23.5850 C   0  0  0  0  0  0  0  0  0  0  0  0
   12.3110    2.0280   23.7790 O   0  0  0  0  0  0  0  0  0  0  0  0
   12.9730    1.0020   23.0650 C   0  0  0  0  0  0  0  0  0  0  0  0
   11.7190   -1.6210   22.7920 C   0  0  0  0  0  0  0  0  0  0  0  0
   12.5130   -0.3680   22.5490 C   0  0  0  0  0  0  0  0  0  0  0  0
   12.7620   -2.6610   23.0500 C   0  0  0  0  0  0  0  0  0  0  0  0
   11.1470   -2.1870   21.6890 C   0  0  0  0  0  0  0  0  0  0  0  0
   10.0570   -2.7290   21.6840 O   0  0  0  0  0  0  0  0  0  0  0  0
   11.9680   -2.0780   20.6320 O   0  0  0  0  0  0  0  0  0  0  0  0
   13.3270   -2.2210   20.9460 C   0  0  0  0  0  0  0  0  0  0  0  0
    8.3270   -1.3240   21.8470 C   0  0  0  0  0  0  0  0  0  0  0  0
    7.1030   -1.3230   21.1630 C   0  0  0  0  0  0  0  0  0  0  0  0
  1  2  1  0
  2  3  2  0
  2  4  1  0
  4  5  1  0
  5  6  1  0
  6  7  1  0
  7  8  1  0
  8  9  2  0
  8 10  1  0
 10 11  1  0
 11 12  1  0
 12 13  2  0
 13 14  1  0
 14 15  2  0
 15 16  1  0
 16 17  1  0
 17 18  1  0
 12 19  1  0
 16 19  2  0
 19 20  1  0
 20 21  1  0
 10 22  1  0
 22 23  1  0
 22 24  1  0
 22 25  1  0
 25 26  2  0
 25 27  1  0
 27 28  1  0
  7 29  1  0
  4 30  1  0
 29 30  1  0
M  END
