SAD-SAT-bc31ec01-3-chloroacetamide
     RDKit          3D

 20 21  0  0  0  0  0  0  0  0999 V2000
    7.3260   -4.1450   20.6510 C   0  0  0  0  0  0  0  0  0  0  0  0
    5.9650   -3.4440   20.5570 C   0  0  0  0  0  0  0  0  0  0  0  0
    5.5910   -4.4710   19.9530 O   0  0  0  0  0  0  0  0  0  0  0  0
    6.7100   -2.4350   21.2710 N   0  0  0  0  0  0  0  0  0  0  0  0
    6.4790   -1.0540   20.9450 C   0  0  0  0  0  0  0  0  0  0  0  0
    7.6490   -0.5190   20.4340 C   0  0  0  0  0  0  0  0  0  0  0  0
    8.6720   -0.4420   21.3280 N   0  0  0  0  0  0  0  0  0  0  0  0
    8.7670    1.0690   22.0990 S   0  0  0  0  0  0  0  0  0  0  0  0
    7.5540    1.1670   22.8850 O   0  0  0  0  0  0  0  0  0  0  0  0
    9.0690    2.1150   21.1520 O   0  0  0  0  0  0  0  0  0  0  0  0
   10.0370    0.9540   23.2310 C   0  0  2  0  0  0  0  0  0  0  0  0
    9.4980    1.6150   24.3630 C   0  0  0  0  0  0  0  0  0  0  0  0
    8.9400    3.1940   23.9500 S   0  0  0  0  0  0  0  0  0  0  0  0
   10.4400    4.1110   23.4360 C   0  0  0  0  0  0  0  0  0  0  0  0
   11.3240    3.5310   22.5410 C   0  0  1  0  0  0  0  0  0  0  0  0
   12.5640    4.1980   22.5140 C   0  0  0  0  0  0  0  0  0  0  0  0
   13.2360    4.6490   20.9850 Cl  0  0  0  0  0  0  0  0  0  0  0  0
   11.6850    1.7420   22.8700 S   0  0  0  0  0  0  0  0  0  0  0  0
    8.9110   -1.6960   21.9870 C   0  0  0  0  0  0  0  0  0  0  0  0
    7.7110   -2.6350   22.2640 C   0  0  0  0  0  0  0  0  0  0  0  0
  1  2  1  0
  2  3  2  0
  2  4  1  0
  4  5  1  0
  5  6  1  0
  6  7  1  0
  8  7  1  0
  8  9  2  0
  8 10  2  0
 11  8  1  6
 11 12  1  0
 12 13  1  0
 13 14  1  0
 14 15  1  0
 15 16  1  1
 16 17  1  0
 11 18  1  0
 15 18  1  0
  7 19  1  0
  4 20  1  0
 19 20  1  0
M  END
