SAD-SAT-6b5a89f0-9-acrylamide
     RDKit          3D

  8  8  0  0  0  0  0  0  0  0999 V2000
    6.7420   -3.1240   19.0710 C   0  0  0  0  0  0  0  0  0  0  0  0
    6.2920   -2.7950   20.4660 C   0  0  0  0  0  0  0  0  0  0  0  0
    5.4230   -3.8900   21.0380 C   0  0  0  0  0  0  0  0  0  0  0  0
    5.2400   -4.9630   20.4530 O   0  0  0  0  0  0  0  0  0  0  0  0
    4.8480   -3.5440   22.2480 N   0  0  0  0  0  0  0  0  0  0  0  0
    5.2200   -4.2430   23.4950 C   0  0  0  0  0  0  0  0  0  0  0  0
    6.0970   -3.1440   23.9050 C   0  0  0  0  0  0  0  0  0  0  0  0
    5.3600   -2.3920   22.8480 C   0  0  0  0  0  0  0  0  0  0  0  0
  1  2  1  0
  2  3  1  0
  3  4  2  0
  3  5  1  0
  5  6  1  0
  6  7  1  0
  5  8  1  0
  7  8  1  0
M  END
