SAD-SAT-29425be4-25-nitrile
     RDKit          3D

 29 31  0  0  0  0  0  0  0  0999 V2000
    6.7930   -3.9660   20.1110 C   0  0  0  0  0  0  0  0  0  0  0  0
    5.9970   -3.4180   19.2700 N   0  0  0  0  0  0  0  0  0  0  0  0
    6.8530   -3.5700   21.4350 N   0  0  0  0  0  0  0  0  0  0  0  0
    6.0770   -2.4100   21.8930 C   0  0  0  0  0  0  0  0  0  0  0  0
    7.1610   -1.2770   21.8470 C   0  0  0  0  0  0  0  0  0  0  0  0
    8.0090   -1.5790   23.1010 C   0  0  0  0  0  0  0  0  0  0  0  0
    9.3970   -1.0670   22.6660 C   0  0  0  0  0  0  0  0  0  0  0  0
    9.4330   -0.1440   21.8430 O   0  0  0  0  0  0  0  0  0  0  0  0
   10.5770   -1.6590   23.1930 N   0  0  0  0  0  0  0  0  0  0  0  0
   11.7800   -0.8730   23.6570 C   0  0  2  0  0  0  0  0  0  0  0  0
   11.8910   -0.9920   25.2200 C   0  0  0  0  0  0  0  0  0  0  0  0
   11.0290   -0.1380   24.3550 C   0  0  0  0  0  0  0  0  0  0  0  0
   11.4570   -0.5100   22.8750 C   0  0  0  0  0  0  0  0  0  0  0  0
   12.5820   -1.6000   22.5900 C   0  0  0  0  0  0  0  0  0  0  0  0
   13.0560   -2.0240   21.0270 Cl  0  0  0  0  0  0  0  0  0  0  0  0
   13.2860   -2.3150   23.7490 C   0  0  0  0  0  0  0  0  0  0  0  0
   12.8770   -1.9460   25.1250 C   0  0  0  0  0  0  0  0  0  0  0  0
   11.6100    0.6360   23.3740 C   0  0  0  0  0  0  0  0  0  0  0  0
   12.8220    1.4730   22.9340 C   0  0  0  0  0  0  0  0  0  0  0  0
   12.6150    2.9760   22.6710 C   0  0  0  0  0  0  0  0  0  0  0  0
   11.2370    3.6160   22.8450 C   0  0  0  0  0  0  0  0  0  0  0  0
   10.0890    2.7470   23.2800 C   0  0  0  0  0  0  0  0  0  0  0  0
    8.7240    3.3660   23.4580 C   0  0  0  0  0  0  0  0  0  0  0  0
    7.8810    2.5290   24.4060 C   0  0  0  0  0  0  0  0  0  0  0  0
    8.0110    3.4320   22.0820 C   0  0  0  0  0  0  0  0  0  0  0  0
    8.8490    4.6610   23.9790 C   0  0  0  0  0  0  0  0  0  0  0  0
   10.3310    1.2440   23.5340 C   0  0  0  0  0  0  0  0  0  0  0  0
    8.0300   -3.0740   23.4170 C   0  0  0  0  0  0  0  0  0  0  0  0
    8.0840   -3.7670   22.2060 C   0  0  0  0  0  0  0  0  0  0  0  0
  1  2  2  3
  1  3  1  0
  3  4  1  0
  4  5  1  0
  5  6  1  0
  6  7  1  0
  7  8  2  0
  7  9  1  0
 10  9  1  1
 10 11  1  0
 11 12  2  0
 12 13  1  0
 13 14  2  0
 14 15  1  0
 14 16  1  0
 11 17  1  0
 16 17  2  0
 10 18  1  0
 18 19  2  0
 19 20  1  0
 20 21  2  0
 21 22  1  0
 22 23  1  0
 23 24  1  0
 23 25  1  0
 23 26  1  0
 18 27  1  0
 22 27  2  0
  6 28  1  0
  3 29  1  0
 28 29  1  0
M  END
