SAD-SAT-bc31ec01-3-acrylamide
     RDKit          3D

 21 22  0  0  0  0  0  0  0  0999 V2000
    8.0930   -3.6800   20.2420 C   0  0  0  0  0  0  0  0  0  0  0  0
    6.8560   -2.8290   20.1430 C   0  0  0  0  0  0  0  0  0  0  0  0
    6.2420   -2.8810   21.4990 C   0  0  0  0  0  0  0  0  0  0  0  0
    4.9530   -3.3750   21.5680 O   0  0  0  0  0  0  0  0  0  0  0  0
    7.2730   -2.4330   22.5120 N   0  0  0  0  0  0  0  0  0  0  0  0
    7.9910   -1.0550   22.4450 C   0  0  0  0  0  0  0  0  0  0  0  0
    9.3960   -1.0230   22.7930 C   0  0  0  0  0  0  0  0  0  0  0  0
    9.6030   -1.8660   23.8590 N   0  0  0  0  0  0  0  0  0  0  0  0
   10.9250   -1.3860   24.7560 S   0  0  0  0  0  0  0  0  0  0  0  0
   11.7290   -2.5460   25.0730 O   0  0  0  0  0  0  0  0  0  0  0  0
   10.4910   -0.3990   25.7130 O   0  0  0  0  0  0  0  0  0  0  0  0
   11.7140   -0.6310   23.4260 C   0  0  2  0  0  0  0  0  0  0  0  0
   13.1100   -0.6070   23.4780 C   0  0  0  0  0  0  0  0  0  0  0  0
   13.4350   -0.3830   21.8750 S   0  0  0  0  0  0  0  0  0  0  0  0
   13.6830    1.3010   22.0710 C   0  0  0  0  0  0  0  0  0  0  0  0
   12.6220    1.9870   22.7180 C   0  0  1  0  0  0  0  0  0  0  0  0
   12.2270    3.4130   22.3450 C   0  0  0  0  0  0  0  0  0  0  0  0
   13.3970    4.5430   21.7760 Cl  0  0  0  0  0  0  0  0  0  0  0  0
   11.0750    1.0270   22.9710 S   0  0  0  0  0  0  0  0  0  0  0  0
    9.5450   -3.1270   23.3460 C   0  0  0  0  0  0  0  0  0  0  0  0
    8.1050   -3.4920   23.0700 C   0  0  0  0  0  0  0  0  0  0  0  0
  1  2  1  0
  2  3  1  0
  3  4  2  0
  3  5  1  0
  5  6  1  0
  6  7  1  0
  7  8  1  0
  9  8  1  0
  9 10  2  0
  9 11  2  0
 12  9  1  1
 12 13  1  0
 13 14  1  0
 14 15  1  0
 15 16  1  0
 16 17  1  6
 17 18  1  0
 12 19  1  0
 16 19  1  0
  8 20  1  0
  5 21  1  0
 20 21  1  0
M  END
