SAD-SAT-edc8a235-2
     RDKit          3D

  8  8  0  0  0  0  0  0  0  0999 V2000
    8.5290   -2.8290   23.6770 N   0  0  0  0  0  0  0  0  0  0  0  0
    9.5630   -2.3230   23.7110 C   0  0  0  0  0  0  0  0  0  0  0  0
   10.8920   -1.7380   23.8060 C   0  0  2  0  0  0  0  0  0  0  0  0
   10.8840   -0.2660   24.1750 C   0  0  0  0  0  0  0  0  0  0  0  0
   12.1890    0.1450   23.7560 N   0  0  0  0  0  0  0  0  0  0  0  0
   12.6200   -0.6170   22.6850 C   0  0  0  0  0  0  0  0  0  0  0  0
   13.5850   -0.3770   22.0050 O   0  0  0  0  0  0  0  0  0  0  0  0
   11.6640   -1.7790   22.4960 C   0  0  0  0  0  0  0  0  0  0  0  0
  1  2  3  0
  3  2  1  6
  3  4  1  0
  4  5  1  0
  5  6  1  0
  6  7  2  0
  3  8  1  0
  6  8  1  0
M  END
