SAD-SAT-f0a2747f-5-chloroacetamide
     RDKit          3D

 20 21  0  0  0  0  0  0  0  0999 V2000
    8.3510   -4.0680   20.4490 C   0  0  0  0  0  0  0  0  0  0  0  0
    6.8510   -3.8960   20.7030 C   0  0  0  0  0  0  0  0  0  0  0  0
    5.9620   -4.0930   19.8050 O   0  0  0  0  0  0  0  0  0  0  0  0
    6.5680   -3.5220   22.0310 N   0  0  0  0  0  0  0  0  0  0  0  0
    7.7690   -3.3810   22.8610 C   0  0  0  0  0  0  0  0  0  0  0  0
    8.2060   -2.1410   23.3340 C   0  0  0  0  0  0  0  0  0  0  0  0
    9.3590   -2.0440   24.1160 C   0  0  0  0  0  0  0  0  0  0  0  0
   10.1530   -3.2660   24.4590 C   0  0  0  0  0  0  0  0  0  0  0  0
   11.3100   -3.1730   25.2230 C   0  0  0  0  0  0  0  0  0  0  0  0
    9.6950   -4.4760   23.9890 C   0  0  0  0  0  0  0  0  0  0  0  0
    8.5400   -4.5080   23.2190 C   0  0  0  0  0  0  0  0  0  0  0  0
    8.1690   -6.0770   22.7760 S   0  0  0  0  0  0  0  0  0  0  0  0
    9.1530   -6.9580   23.3580 O   0  0  0  0  0  0  0  0  0  0  0  0
    7.9120   -6.1410   21.3700 O   0  0  0  0  0  0  0  0  0  0  0  0
    6.6850   -6.1850   23.5840 N   0  0  0  0  0  0  0  0  0  0  0  0
    5.9680   -4.9120   23.8920 C   0  0  0  0  0  0  0  0  0  0  0  0
    4.4620   -4.8210   23.4340 C   0  0  0  0  0  0  0  0  0  0  0  0
    4.3310   -5.2290   22.0580 O   0  0  0  0  0  0  0  0  0  0  0  0
    5.3900   -6.1230   21.6750 C   0  0  0  0  0  0  0  0  0  0  0  0
    5.8450   -6.9590   22.8210 C   0  0  0  0  0  0  0  0  0  0  0  0
  1  2  1  0
  2  3  2  0
  2  4  1  0
  4  5  1  0
  5  6  2  0
  6  7  1  0
  7  8  2  0
  8  9  1  0
  8 10  1  0
  5 11  1  0
 10 11  2  0
 12 11  1  0
 12 13  2  0
 12 14  2  0
 12 15  1  0
 15 16  1  0
 16 17  1  0
 17 18  1  0
 18 19  1  0
 15 20  1  0
 19 20  1  0
M  END
