SAD-SAT-bc31ec01-1-vinylsulfonamide
     RDKit          3D

 18 19  0  0  0  0  0  0  0  0999 V2000
    6.8850   -2.7920   19.2050 C   0  0  0  0  0  0  0  0  0  0  0  0
    7.2830   -1.5350   20.0960 C   0  0  0  0  0  0  0  0  0  0  0  0
    6.2840   -1.4910   21.5310 S   0  0  0  0  0  0  0  0  0  0  0  0
    4.8860   -2.8530   21.2620 O   0  0  0  0  0  0  0  0  0  0  0  0
    6.0560    0.0090   21.6770 O   0  0  0  0  0  0  0  0  0  0  0  0
    7.9470   -1.2450   22.5130 N   0  0  0  0  0  0  0  0  0  0  0  0
    9.3970   -1.7380   22.2490 C   0  0  0  0  0  0  0  0  0  0  0  0
   10.2150   -1.7360   23.4130 C   0  0  0  0  0  0  0  0  0  0  0  0
   10.4630   -0.4940   23.8680 N   0  0  0  0  0  0  0  0  0  0  0  0
    9.6520   -0.1790   25.0640 C   0  0  0  0  0  0  0  0  0  0  0  0
    9.2720    1.2450   25.0730 C   0  0  0  0  0  0  0  0  0  0  0  0
    8.4310    2.1760   25.4610 C   0  0  0  0  0  0  0  0  0  0  0  0
    7.7140    3.5330   25.7000 S   0  0  0  0  0  0  0  0  0  0  0  0
    6.9210    2.1570   26.4290 C   0  0  0  0  0  0  0  0  0  0  0  0
    7.9320    1.0690   25.9590 C   0  0  0  0  0  0  0  0  0  0  0  0
    7.4320   -0.4830   26.5320 Cl  0  0  0  0  0  0  0  0  0  0  0  0
    9.9180    0.2900   22.8530 C   0  0  0  0  0  0  0  0  0  0  0  0
    8.3420    0.1660   22.7670 C   0  0  0  0  0  0  0  0  0  0  0  0
  1  2  1  0
  3  2  1  0
  3  4  2  0
  3  5  2  0
  3  6  1  0
  6  7  1  0
  7  8  1  0
  8  9  1  0
  9 10  1  0
 10 11  1  0
 11 12  2  0
 12 13  1  0
 13 14  1  0
 11 15  1  0
 14 15  2  0
 15 16  1  0
  9 17  1  0
  6 18  1  0
 17 18  1  0
M  END
