SAD-SAT-29425be4-20-acrylamide
     RDKit          3D

 24 25  0  0  0  0  0  0  0  0999 V2000
    8.0110   -3.4450   19.8280 C   0  0  0  0  0  0  0  0  0  0  0  0
    6.9010   -2.6140   19.2190 C   0  0  0  0  0  0  0  0  0  0  0  0
    5.7570   -3.0570   20.0450 C   0  0  0  0  0  0  0  0  0  0  0  0
    5.0490   -4.0000   19.7040 O   0  0  0  0  0  0  0  0  0  0  0  0
    5.6120   -2.3950   21.2290 N   0  0  0  0  0  0  0  0  0  0  0  0
    6.3580   -1.1510   21.5290 C   0  0  0  0  0  0  0  0  0  0  0  0
    7.8120   -1.5270   21.9700 C   0  0  0  0  0  0  0  0  0  0  0  0
    7.5520   -2.8450   22.7360 C   0  0  0  0  0  0  0  0  0  0  0  0
    8.7140   -2.9120   23.7900 C   0  0  0  0  0  0  0  0  0  0  0  0
    8.5610   -3.7710   24.6480 O   0  0  0  0  0  0  0  0  0  0  0  0
    9.9100   -2.0570   23.8070 N   0  0  0  0  0  0  0  0  0  0  0  0
    9.8210   -0.8540   24.6230 C   0  0  0  0  0  0  0  0  0  0  0  0
   11.1190   -0.0680   24.5130 C   0  0  0  0  0  0  0  0  0  0  0  0
   10.7760    1.3900   24.1400 C   0  0  0  0  0  0  0  0  0  0  0  0
   12.2040   -0.5050   25.2630 C   0  0  0  0  0  0  0  0  0  0  0  0
   11.8770   -0.5450   23.3740 C   0  0  0  0  0  0  0  0  0  0  0  0
   12.8100    0.5050   22.7830 C   0  0  0  0  0  0  0  0  0  0  0  0
   13.7270    0.2740   21.6150 C   0  0  0  0  0  0  0  0  0  0  0  0
   13.7040   -1.1580   20.9760 C   0  0  0  0  0  0  0  0  0  0  0  0
   12.7660   -2.0670   21.6400 C   0  0  0  0  0  0  0  0  0  0  0  0
   12.7670   -0.7120   22.3010 C   0  0  0  0  0  0  0  0  0  0  0  0
   11.8420   -1.9580   22.7610 C   0  0  0  0  0  0  0  0  0  0  0  0
    6.2250   -2.9300   23.4900 C   0  0  0  0  0  0  0  0  0  0  0  0
    5.1140   -3.0220   22.4880 C   0  0  0  0  0  0  0  0  0  0  0  0
  1  2  1  0
  2  3  1  0
  3  4  2  0
  3  5  1  0
  5  6  1  0
  6  7  1  0
  7  8  1  0
  8  9  1  0
  9 10  2  0
  9 11  1  0
 11 12  1  0
 13 12  1  0
 13 14  1  0
 13 15  1  0
 13 16  1  0
 16 17  2  0
 17 18  1  0
 18 19  2  0
 19 20  1  0
 20 21  1  0
 16 22  1  0
 20 22  2  0
  8 23  1  0
  5 24  1  0
 23 24  1  0
M  END
