SAD-SAT-1b030f84-4-nitrile
     RDKit          3D

 17 18  0  0  0  0  0  0  0  0999 V2000
    6.6810   -4.3510   20.3250 C   0  0  0  0  0  0  0  0  0  0  0  0
    5.5070   -4.2350   19.8440 N   0  0  0  0  0  0  0  0  0  0  0  0
    6.9360   -4.9100   21.5570 N   0  0  0  0  0  0  0  0  0  0  0  0
    6.1340   -6.0640   22.0110 C   0  0  0  0  0  0  0  0  0  0  0  0
    5.3570   -5.7290   23.2890 C   0  0  0  0  0  0  0  0  0  0  0  0
    6.1870   -5.0540   24.2880 N   0  0  0  0  0  0  0  0  0  0  0  0
    6.0650   -5.4370   25.6220 C   0  0  0  0  0  0  0  0  0  0  0  0
    7.0480   -5.7330   26.3020 O   0  0  0  0  0  0  0  0  0  0  0  0
    4.6630   -5.4680   26.2550 C   0  0  0  0  0  0  0  0  0  0  0  0
    4.0840   -6.8650   26.4810 C   0  0  2  0  0  0  0  0  0  0  0  0
    3.7280   -7.5460   25.1700 C   0  0  0  0  0  0  0  0  0  0  0  0
    2.4840   -8.0580   24.9670 C   0  0  0  0  0  0  0  0  0  0  0  0
    1.5590   -7.7710   26.3740 S   0  0  0  0  0  0  0  0  0  0  0  0
    0.7410   -6.4830   25.6000 C   0  0  0  0  0  0  0  0  0  0  0  0
    2.7580   -6.8360   27.1360 N   0  0  0  0  0  0  0  0  0  0  0  0
    6.9400   -3.8930   23.8040 C   0  0  0  0  0  0  0  0  0  0  0  0
    7.7370   -4.2440   22.5980 C   0  0  0  0  0  0  0  0  0  0  0  0
  1  2  2  3
  1  3  1  0
  3  4  1  0
  4  5  1  0
  5  6  1  0
  6  7  1  0
  7  8  2  0
  7  9  1  0
 10  9  1  6
 10 11  1  0
 11 12  2  0
 12 13  1  0
 13 14  1  6
 10 15  1  0
 13 15  2  0
  6 16  1  0
  3 17  1  0
 16 17  1  0
M  END
