SAD-SAT-6b5a89f0-2-acrylamide
     RDKit          3D

  9  9  0  0  0  0  0  0  0  0999 V2000
    6.6420   -3.7550   19.7170 C   0  0  0  0  0  0  0  0  0  0  0  0
    6.2330   -4.7870   20.7530 C   0  0  0  0  0  0  0  0  0  0  0  0
    5.3150   -4.0070   21.6170 C   0  0  0  0  0  0  0  0  0  0  0  0
    4.8000   -3.0100   21.1290 O   0  0  0  0  0  0  0  0  0  0  0  0
    5.1450   -4.3210   22.9310 N   0  0  0  0  0  0  0  0  0  0  0  0
    6.4800   -4.2810   23.4630 C   0  0  0  0  0  0  0  0  0  0  0  0
    6.6800   -2.8300   23.2460 C   0  0  0  0  0  0  0  0  0  0  0  0
    5.5740   -2.3010   23.4220 O   0  0  0  0  0  0  0  0  0  0  0  0
    4.6070   -3.2640   23.5970 C   0  0  0  0  0  0  0  0  0  0  0  0
  1  2  1  0
  2  3  1  0
  3  4  2  0
  3  5  1  0
  5  6  1  0
  6  7  1  0
  7  8  1  0
  5  9  1  0
  8  9  1  0
M  END
