SAD-SAT-bc31ec01-4-acrylamide
     RDKit          3D

 20 21  0  0  0  0  0  0  0  0999 V2000
    6.2130   -3.6070   19.2240 C   0  0  0  0  0  0  0  0  0  0  0  0
    6.2080   -2.2450   19.8600 C   0  0  0  0  0  0  0  0  0  0  0  0
    5.4990   -2.2140   21.1950 C   0  0  0  0  0  0  0  0  0  0  0  0
    4.7470   -3.1540   21.5730 O   0  0  0  0  0  0  0  0  0  0  0  0
    5.7480   -1.0470   21.9360 N   0  0  0  0  0  0  0  0  0  0  0  0
    6.2860    0.0840   21.1780 C   0  0  0  0  0  0  0  0  0  0  0  0
    6.2600    1.2230   21.9860 C   0  0  0  0  0  0  0  0  0  0  0  0
    7.2290    1.0170   22.9470 N   0  0  0  0  0  0  0  0  0  0  0  0
    8.7530    1.7470   22.6890 S   0  0  0  0  0  0  0  0  0  0  0  0
    8.7530    2.1580   21.2870 O   0  0  0  0  0  0  0  0  0  0  0  0
    8.9510    2.6830   23.7880 O   0  0  0  0  0  0  0  0  0  0  0  0
    9.9490    0.4300   22.9310 C   0  0  0  0  0  0  0  0  0  0  0  0
   11.3630   -0.3120   23.0680 C   0  0  0  0  0  0  0  0  0  0  0  0
   11.4490   -2.1840   23.4180 P   0  0  0  0  0  0  0  0  0  0  0  0
   10.3390   -0.9080   23.1840 C   0  0  0  0  0  0  0  0  0  0  0  0
   11.2680    0.1740   22.9780 C   0  0  0  0  0  0  0  0  0  0  0  0
   12.9640   -0.1890   23.0320 Cl  0  0  0  0  0  0  0  0  0  0  0  0
   10.7890    1.4840   22.7400 C   0  0  0  0  0  0  0  0  0  0  0  0
    6.8740    0.0380   23.8950 C   0  0  0  0  0  0  0  0  0  0  0  0
    5.9420   -1.0680   23.3630 C   0  0  0  0  0  0  0  0  0  0  0  0
  1  2  1  0
  2  3  1  0
  3  4  2  0
  3  5  1  0
  5  6  1  0
  6  7  1  0
  7  8  1  0
  8  9  1  0
  9 10  2  0
  9 11  2  0
  9 12  1  0
 12 13  2  0
 13 14  1  0
 14 15  2  0
 15 16  1  0
 16 17  1  0
 12 18  1  0
 16 18  2  0
  8 19  1  0
  5 20  1  0
 19 20  1  0
M  END
