SAD-SAT-6b5a89f0-2-vinylsulfonamide
     RDKit          3D

 10 10  0  0  0  0  0  0  0  0999 V2000
    7.5700   -4.0380   20.7330 C   0  0  0  0  0  0  0  0  0  0  0  0
    6.4070   -4.9990   20.9420 C   0  0  0  0  0  0  0  0  0  0  0  0
    5.1680   -4.0350   21.6740 S   0  0  0  0  0  0  0  0  0  0  0  0
    4.8730   -3.0190   20.7000 O   0  0  0  0  0  0  0  0  0  0  0  0
    4.1300   -4.9310   22.1370 O   0  0  0  0  0  0  0  0  0  0  0  0
    5.8560   -3.3540   22.9880 N   0  0  0  0  0  0  0  0  0  0  0  0
    4.9760   -2.5820   23.8590 C   0  0  0  0  0  0  0  0  0  0  0  0
    5.4300   -2.9330   25.2370 C   0  0  0  0  0  0  0  0  0  0  0  0
    6.3550   -3.8840   25.1030 O   0  0  0  0  0  0  0  0  0  0  0  0
    6.6090   -4.2190   23.7150 C   0  0  0  0  0  0  0  0  0  0  0  0
  1  2  1  0
  3  2  1  0
  3  4  2  0
  3  5  2  0
  3  6  1  0
  6  7  1  0
  7  8  1  0
  8  9  1  0
  6 10  1  0
  9 10  1  0
M  END
