SAD-SAT-1b030f84-2-vinylsulfonamide
     RDKit          3D

 13 13  0  0  0  0  0  0  0  0999 V2000
    7.7540   -4.0610   20.6080 C   0  0  0  0  0  0  0  0  0  0  0  0
    6.5870   -3.0780   20.6490 C   0  0  0  0  0  0  0  0  0  0  0  0
    5.8710   -3.0500   22.2700 S   0  0  0  0  0  0  0  0  0  0  0  0
    4.5810   -3.7230   22.2020 O   0  0  0  0  0  0  0  0  0  0  0  0
    5.9270   -1.6600   22.6850 O   0  0  0  0  0  0  0  0  0  0  0  0
    6.9350   -3.9320   23.2470 N   0  0  0  0  0  0  0  0  0  0  0  0
    6.5450   -5.2420   23.8150 C   0  0  0  0  0  0  0  0  0  0  0  0
    6.7910   -6.3640   22.8200 C   0  0  0  0  0  0  0  0  0  0  0  0
    7.3360   -5.3020   23.4840 C   0  0  0  0  0  0  0  0  0  0  0  0
    6.1130   -5.0570   24.1950 N   0  0  0  0  0  0  0  0  0  0  0  0
    5.8480   -4.0740   25.1390 F   0  0  0  0  0  0  0  0  0  0  0  0
    5.1230   -6.1380   23.6850 N   0  0  0  0  0  0  0  0  0  0  0  0
    5.7410   -6.9910   22.7180 N   0  0  0  0  0  0  0  0  0  0  0  0
  1  2  1  0
  2  3  1  0
  3  4  2  0
  3  5  2  0
  3  6  1  0
  6  7  1  0
  7  8  1  0
  8  9  2  0
  9 10  1  0
 10 11  1  0
 10 12  1  0
  8 13  1  0
 12 13  2  0
M  END
