SAD-SAT-29425be4-2-acrylamide
     RDKit          3D

 28 29  0  0  0  0  0  0  0  0999 V2000
    7.2890   -3.1360   19.2160 C   0  0  0  0  0  0  0  0  0  0  0  0
    5.9780   -2.5540   19.6570 C   0  0  0  0  0  0  0  0  0  0  0  0
    5.8270   -2.7970   21.1380 C   0  0  0  0  0  0  0  0  0  0  0  0
    4.8840   -3.4160   21.6170 O   0  0  0  0  0  0  0  0  0  0  0  0
    6.8350   -2.3220   21.9650 N   0  0  0  0  0  0  0  0  0  0  0  0
    6.7640   -2.7810   23.3430 C   0  0  0  0  0  0  0  0  0  0  0  0
    8.0430   -2.4520   24.1160 C   0  0  0  0  0  0  0  0  0  0  0  0
    9.1610   -2.0560   23.1590 C   0  0  0  0  0  0  0  0  0  0  0  0
   10.4580   -1.7960   23.9330 C   0  0  0  0  0  0  0  0  0  0  0  0
   10.6620   -2.3530   25.0110 O   0  0  0  0  0  0  0  0  0  0  0  0
   11.3590   -0.9180   23.3610 N   0  0  0  0  0  0  0  0  0  0  0  0
   11.6060    0.3820   23.9360 C   0  0  0  0  0  0  0  0  0  0  0  0
   12.4250   -1.5100   22.5340 C   0  0  2  0  0  0  0  0  0  0  0  0
   13.3140   -0.5820   21.9380 C   0  0  0  0  0  0  0  0  0  0  0  0
   13.7810   -0.9260   20.4970 N   0  0  0  0  0  0  0  0  0  0  0  0
   14.6070   -0.1880   19.5410 C   0  0  0  0  0  0  0  0  0  0  0  0
   14.8060    1.1600   19.5010 O   0  0  0  0  0  0  0  0  0  0  0  0
   15.2850   -1.0150   18.6740 O   0  0  0  0  0  0  0  0  0  0  0  0
   16.4110   -0.5680   17.8750 C   0  0  0  0  0  0  0  0  0  0  0  0
   16.1110   -0.4620   16.5500 C   0  0  0  0  0  0  0  0  0  0  0  0
   16.7420    0.8580   18.2660 C   0  0  0  0  0  0  0  0  0  0  0  0
   17.6570   -1.4870   17.9250 C   0  0  0  0  0  0  0  0  0  0  0  0
   11.8340   -2.2950   21.6040 C   0  0  0  0  0  0  0  0  0  0  0  0
   12.9620   -2.8570   21.0650 C   0  0  0  0  0  0  0  0  0  0  0  0
   13.5630   -3.3880   22.2250 O   0  0  0  0  0  0  0  0  0  0  0  0
   13.0460   -2.5360   23.2570 C   0  0  0  0  0  0  0  0  0  0  0  0
    8.7790   -0.8530   22.2700 C   0  0  0  0  0  0  0  0  0  0  0  0
    7.3480   -0.9710   21.7300 C   0  0  0  0  0  0  0  0  0  0  0  0
  1  2  1  0
  2  3  1  0
  3  4  2  0
  3  5  1  0
  5  6  1  0
  6  7  1  0
  7  8  1  0
  8  9  1  0
  9 10  2  0
  9 11  1  0
 11 12  1  0
 13 11  1  0
 13 14  1  6
 14 15  1  0
 15 16  1  0
 16 17  2  0
 16 18  1  0
 19 18  1  0
 19 20  1  0
 19 21  1  0
 19 22  1  0
 13 23  1  0
 23 24  1  0
 24 25  1  0
 13 26  1  0
 25 26  1  0
  8 27  1  0
  5 28  1  0
 27 28  1  0
M  END
