SAD-SAT-29425be4-7-nitrile
     RDKit          3D

 32 33  0  0  0  0  0  0  0  0999 V2000
    7.7520   -3.3510   19.6430 C   0  0  0  0  0  0  0  0  0  0  0  0
    6.5330   -3.4510   19.2350 N   0  0  0  0  0  0  0  0  0  0  0  0
    8.2320   -2.4290   20.6180 N   0  0  0  0  0  0  0  0  0  0  0  0
    9.4380   -2.5940   21.4470 C   0  0  0  0  0  0  0  0  0  0  0  0
    9.0090   -2.8150   22.8710 C   0  0  0  0  0  0  0  0  0  0  0  0
    7.5150   -2.5620   22.9520 C   0  0  0  0  0  0  0  0  0  0  0  0
    6.9120   -2.8250   24.3340 C   0  0  0  0  0  0  0  0  0  0  0  0
    6.1500   -2.0730   24.9450 O   0  0  0  0  0  0  0  0  0  0  0  0
    7.3510   -4.0290   24.8090 N   0  0  0  0  0  0  0  0  0  0  0  0
    7.3440   -5.1440   23.8630 C   0  0  0  0  0  0  0  0  0  0  0  0
    6.0610   -5.3460   23.0210 C   0  0  0  0  0  0  0  0  0  0  0  0
    6.3930   -6.1990   21.8400 C   0  0  0  0  0  0  0  0  0  0  0  0
    4.9760   -6.0620   23.8400 C   0  0  0  0  0  0  0  0  0  0  0  0
    5.4960   -4.0480   22.5190 N   0  0  0  0  0  0  0  0  0  0  0  0
    5.4570   -3.6090   21.2040 C   0  0  0  0  0  0  0  0  0  0  0  0
    5.2190   -4.4290   20.1120 O   0  0  0  0  0  0  0  0  0  0  0  0
    5.6830   -2.2470   21.2050 O   0  0  0  0  0  0  0  0  0  0  0  0
    5.6910   -1.3090   20.0470 C   0  0  0  0  0  0  0  0  0  0  0  0
    5.2800   -2.0430   18.8870 C   0  0  0  0  0  0  0  0  0  0  0  0
    4.7560   -0.1020   20.2800 C   0  0  0  0  0  0  0  0  0  0  0  0
    7.0500   -0.6940   19.5890 C   0  0  0  0  0  0  0  0  0  0  0  0
    8.4410   -4.0400   25.6450 C   0  0  1  0  0  0  0  0  0  0  0  0
    9.0650   -5.2870   25.7420 C   0  0  0  0  0  0  0  0  0  0  0  0
    9.4430   -2.9240   25.3280 C   0  0  0  0  0  0  0  0  0  0  0  0
    8.9640   -1.5950   25.2300 C   0  0  0  0  0  0  0  0  0  0  0  0
    9.8970   -0.4240   24.9140 C   0  0  0  0  0  0  0  0  0  0  0  0
   11.3590   -0.7210   24.7000 C   0  0  0  0  0  0  0  0  0  0  0  0
   11.8250   -2.1510   24.8100 C   0  0  0  0  0  0  0  0  0  0  0  0
   13.4680   -2.5480   24.5780 Cl  0  0  0  0  0  0  0  0  0  0  0  0
   10.8030   -3.2300   25.1340 C   0  0  0  0  0  0  0  0  0  0  0  0
    7.2210   -1.1940   22.3590 C   0  0  0  0  0  0  0  0  0  0  0  0
    7.5720   -1.1620   20.9980 C   0  0  0  0  0  0  0  0  0  0  0  0
  1  2  2  3
  1  3  1  0
  3  4  1  0
  4  5  1  0
  5  6  1  0
  6  7  1  0
  7  8  2  0
  7  9  1  0
  9 10  1  0
 10 11  1  0
 11 12  1  0
 11 13  1  0
 11 14  1  0
 14 15  1  0
 15 16  2  0
 15 17  1  0
 18 17  1  0
 18 19  1  0
 18 20  1  0
 18 21  1  0
  9 22  1  0
 22 23  1  6
 22 24  1  0
 24 25  2  0
 25 26  1  0
 26 27  2  0
 27 28  1  0
 28 29  1  0
 24 30  1  0
 28 30  2  0
  6 31  1  0
  3 32  1  0
 31 32  1  0
M  END
