SAD-SAT-2ceae68f-5-acrylamide
     RDKit          3D

 28 29  0  0  0  0  0  0  0  0999 V2000
    7.7310   -3.5970   20.1280 C   0  0  0  0  0  0  0  0  0  0  0  0
    7.1500   -3.1280   21.4470 C   0  0  0  0  0  0  0  0  0  0  0  0
    5.6810   -2.8690   21.2510 C   0  0  0  0  0  0  0  0  0  0  0  0
    4.8580   -3.6050   21.8190 O   0  0  0  0  0  0  0  0  0  0  0  0
    5.3330   -1.8100   20.4220 N   0  0  0  0  0  0  0  0  0  0  0  0
    5.5270   -1.9420   18.9660 C   0  0  0  0  0  0  0  0  0  0  0  0
    4.9800   -0.5950   20.8980 C   0  0  0  0  0  0  0  0  0  0  0  0
    5.6800    0.5850   20.6860 C   0  0  0  0  0  0  0  0  0  0  0  0
    5.2890    1.3930   19.8430 O   0  0  0  0  0  0  0  0  0  0  0  0
    6.8030    0.9510   21.3600 N   0  0  0  0  0  0  0  0  0  0  0  0
    7.8400   -0.0880   21.3590 C   0  0  0  0  0  0  0  0  0  0  0  0
    8.9850    0.3730   22.0050 C   0  0  0  0  0  0  0  0  0  0  0  0
    9.2230    1.7670   22.0150 N   0  0  0  0  0  0  0  0  0  0  0  0
   10.4920    2.2140   23.0970 S   0  0  0  0  0  0  0  0  0  0  0  0
   11.4330    2.9890   22.3170 O   0  0  0  0  0  0  0  0  0  0  0  0
    9.8580    2.8360   24.2500 O   0  0  0  0  0  0  0  0  0  0  0  0
   11.2800    0.7040   23.5040 C   0  0  0  0  0  0  0  0  0  0  0  0
   11.2770   -0.2680   24.3270 C   0  0  0  0  0  0  0  0  0  0  0  0
   12.2720   -0.7430   23.6360 C   0  0  0  0  0  0  0  0  0  0  0  0
   12.9240   -0.3610   22.5980 N   0  0  0  0  0  0  0  0  0  0  0  0
   13.4370    0.7540   22.6520 O   0  0  0  0  0  0  0  0  0  0  0  0
   13.2650   -1.2390   21.7900 O   0  0  0  0  0  0  0  0  0  0  0  0
   12.3530   -1.7350   24.3840 C   0  0  0  0  0  0  0  0  0  0  0  0
   11.1940   -0.8830   24.9340 C   0  0  0  0  0  0  0  0  0  0  0  0
   10.4570    0.4580   24.6140 C   0  0  0  0  0  0  0  0  0  0  0  0
    9.9380    1.6520   24.1780 C   0  0  0  0  0  0  0  0  0  0  0  0
    8.1640    2.6030   22.0760 C   0  0  0  0  0  0  0  0  0  0  0  0
    7.2070    2.2240   21.1390 C   0  0  0  0  0  0  0  0  0  0  0  0
  1  2  1  0
  2  3  1  0
  3  4  2  0
  3  5  1  0
  5  6  1  0
  5  7  1  0
  7  8  1  0
  8  9  2  0
  8 10  1  0
 10 11  1  0
 11 12  1  0
 12 13  1  0
 13 14  1  0
 14 15  2  0
 14 16  2  0
 14 17  1  0
 17 18  2  0
 18 19  1  0
 19 20  1  0
 20 21  2  0
 20 22  1  0
 19 23  2  0
 23 24  1  0
 17 25  1  0
 24 25  2  0
 25 26  1  0
 13 27  1  0
 10 28  1  0
 27 28  1  0
M  CHG  2  20   1  22  -1
M  END
