SAD-SAT-f0a2747f-9-vinylsulfonamide
     RDKit          3D

 23 24  0  0  0  0  0  0  0  0999 V2000
    8.7380   -3.8720   20.2010 C   0  0  0  0  0  0  0  0  0  0  0  0
    7.7040   -4.4980   21.1800 C   0  0  0  0  0  0  0  0  0  0  0  0
    6.0940   -3.6990   21.0440 S   0  0  0  0  0  0  0  0  0  0  0  0
    5.2230   -4.2580   19.9930 O   0  0  0  0  0  0  0  0  0  0  0  0
    5.5870   -3.6810   22.3920 O   0  0  0  0  0  0  0  0  0  0  0  0
    6.6600   -2.1250   20.6710 N   0  0  0  0  0  0  0  0  0  0  0  0
    5.6880   -1.0690   20.4880 C   0  0  0  0  0  0  0  0  0  0  0  0
    5.3730   -0.1890   21.5440 C   0  0  0  0  0  0  0  0  0  0  0  0
    6.2460   -0.2960   22.5760 N   0  0  0  0  0  0  0  0  0  0  0  0
    5.8320   -1.2320   23.6390 C   0  0  0  0  0  0  0  0  0  0  0  0
    4.3950   -1.7010   23.5900 C   0  0  0  0  0  0  0  0  0  0  0  0
    3.8810   -3.0260   24.5710 S   0  0  0  0  0  0  0  0  0  0  0  0
    3.4610   -4.0960   23.6820 O   0  0  0  0  0  0  0  0  0  0  0  0
    2.9510   -2.5410   25.5750 O   0  0  0  0  0  0  0  0  0  0  0  0
    5.3370   -3.6140   25.4060 C   0  0  0  0  0  0  0  0  0  0  0  0
    6.1520   -4.5600   24.7280 C   0  0  0  0  0  0  0  0  0  0  0  0
    7.3260   -5.0620   25.3250 C   0  0  0  0  0  0  0  0  0  0  0  0
    7.6720   -4.5430   26.7280 C   0  0  0  0  0  0  0  0  0  0  0  0
    9.2200   -5.1560   27.5990 Br  0  0  0  0  0  0  0  0  0  0  0  0
    6.7260   -3.5190   27.3960 C   0  0  0  0  0  0  0  0  0  0  0  0
    5.5900   -3.0980   26.6930 C   0  0  0  0  0  0  0  0  0  0  0  0
    7.5740   -0.5190   22.1260 C   0  0  0  0  0  0  0  0  0  0  0  0
    7.8620   -1.6650   21.3550 C   0  0  0  0  0  0  0  0  0  0  0  0
  1  2  1  0
  3  2  1  0
  3  4  2  0
  3  5  2  0
  3  6  1  0
  6  7  1  0
  7  8  1  0
  8  9  1  0
  9 10  1  0
 10 11  1  0
 12 11  1  0
 12 13  2  0
 12 14  2  0
 12 15  1  0
 15 16  2  0
 16 17  1  0
 17 18  2  0
 18 19  1  0
 18 20  1  0
 15 21  1  0
 20 21  2  0
  9 22  1  0
  6 23  1  0
 22 23  1  0
M  END
