SAD-SAT-7d5528d9-49
     RDKit          3D

 23 26  0  0  0  0  0  0  0  0999 V2000
    8.7120    2.2650   21.1490 O   0  0  0  0  0  0  0  0  0  0  0  0
    7.8700    1.4240   20.8990 C   0  0  0  0  0  0  0  0  0  0  0  0
    6.9260    2.3380   21.2600 N   0  0  0  0  0  0  0  0  0  0  0  0
    6.5730    1.1850   21.0230 C   0  0  0  0  0  0  0  0  0  0  0  0
    6.0120    0.1670   20.3380 C   0  0  0  0  0  0  0  0  0  0  0  0
    5.4990   -0.9140   19.7650 N   0  0  0  0  0  0  0  0  0  0  0  0
    5.0650   -0.2280   18.7060 C   0  0  0  0  0  0  0  0  0  0  0  0
    5.3130    1.1530   18.7340 C   0  0  0  0  0  0  0  0  0  0  0  0
    6.0200    1.6700   19.8770 C   0  0  0  0  0  0  0  0  0  0  0  0
    6.3750    0.5660   20.6670 C   0  0  0  0  0  0  0  0  0  0  0  0
    6.9190   -0.8090   20.1230 C   0  0  0  0  0  0  0  0  0  0  0  0
    7.7290   -1.5020   21.2900 C   0  0  0  0  0  0  0  0  0  0  0  0
    7.8750   -0.6870   22.5100 N   0  0  0  0  0  0  0  0  0  0  0  0
    8.8230   -1.2680   23.4910 C   0  0  0  0  0  0  0  0  0  0  0  0
    8.4620   -2.5190   24.0310 C   0  0  0  0  0  0  0  0  0  0  0  0
    8.5330   -2.7230   25.4110 C   0  0  0  0  0  0  0  0  0  0  0  0
    8.1840   -3.9540   25.9660 C   0  0  0  0  0  0  0  0  0  0  0  0
    7.7590   -4.9900   25.1450 C   0  0  0  0  0  0  0  0  0  0  0  0
    7.6790   -4.8030   23.7670 C   0  0  0  0  0  0  0  0  0  0  0  0
    7.1410   -6.0890   22.7520 Cl  0  0  0  0  0  0  0  0  0  0  0  0
    8.0320   -3.5730   23.2080 C   0  0  0  0  0  0  0  0  0  0  0  0
    6.6150   -0.2000   23.0910 C   0  0  0  0  0  0  0  0  0  0  0  0
    5.6800    0.4500   22.0570 C   0  0  0  0  0  0  0  0  0  0  0  0
  1  2  2  0
  2  3  1  0
  3  4  1  0
  4  5  2  0
  5  6  1  0
  6  7  2  0
  7  8  1  0
  4  9  1  0
  8  9  2  0
 10  2  1  0
  9 10  1  0
 10 11  1  0
 11 12  1  0
 12 13  1  0
 13 14  1  0
 14 15  1  0
 15 16  2  0
 16 17  1  0
 17 18  2  0
 18 19  1  0
 19 20  1  0
 15 21  1  0
 19 21  2  0
 13 22  1  0
 10 23  1  0
 22 23  1  0
M  END
