SAD-SAT-1b030f84-4-chloroacetamide
     RDKit          3D

 18 19  0  0  0  0  0  0  0  0999 V2000
    7.4800   -3.0530   18.8380 C   0  0  0  0  0  0  0  0  0  0  0  0
    6.4950   -3.2470   19.9550 C   0  0  0  0  0  0  0  0  0  0  0  0
    5.5890   -4.0980   19.7990 O   0  0  0  0  0  0  0  0  0  0  0  0
    6.6800   -2.4640   21.1080 N   0  0  0  0  0  0  0  0  0  0  0  0
    6.1530   -2.9280   22.3710 C   0  0  0  0  0  0  0  0  0  0  0  0
    6.8020   -2.1620   23.5190 C   0  0  0  0  0  0  0  0  0  0  0  0
    8.2640   -2.1840   23.4340 N   0  0  0  0  0  0  0  0  0  0  0  0
    8.7970   -3.2070   24.1280 C   0  0  0  0  0  0  0  0  0  0  0  0
    9.8820   -3.1320   24.7160 O   0  0  0  0  0  0  0  0  0  0  0  0
    7.9330   -4.4570   24.1140 C   0  0  0  0  0  0  0  0  0  0  0  0
    7.8650   -5.0360   25.4880 C   0  0  1  0  0  0  0  0  0  0  0  0
    7.6920   -6.3630   25.3940 C   0  0  0  0  0  0  0  0  0  0  0  0
    8.9420   -6.9060   25.3000 C   0  0  0  0  0  0  0  0  0  0  0  0
   10.1430   -5.6360   25.3340 S   0  0  0  0  0  0  0  0  0  0  0  0
    9.6490   -5.2530   23.6380 C   0  0  0  0  0  0  0  0  0  0  0  0
    9.0140   -4.6450   26.0220 N   0  0  0  0  0  0  0  0  0  0  0  0
    8.8350   -2.0440   22.1040 C   0  0  0  0  0  0  0  0  0  0  0  0
    7.8680   -1.5780   21.2080 C   0  0  0  0  0  0  0  0  0  0  0  0
  1  2  1  0
  2  3  2  0
  2  4  1  0
  4  5  1  0
  5  6  1  0
  6  7  1  0
  7  8  1  0
  8  9  2  0
  8 10  1  0
 11 10  1  6
 11 12  1  0
 12 13  2  0
 13 14  1  0
 14 15  1  6
 11 16  1  0
 14 16  2  0
  7 17  1  0
  4 18  1  0
 17 18  1  0
M  END
