SAD-SAT-9a6c5cf3-5
     RDKit          3D

 30 32  0  0  0  0  0  0  0  0999 V2000
    5.3470   -4.2270   19.6060 O   0  0  0  0  0  0  0  0  0  0  0  0
    6.2320   -3.5360   20.1310 C   0  0  0  0  0  0  0  0  0  0  0  0
    6.9190   -2.4480   19.3090 C   0  0  0  0  0  0  0  0  0  0  0  0
    5.9820   -0.9410   19.3500 Cl  0  0  0  0  0  0  0  0  0  0  0  0
    6.6330   -3.7870   21.4440 N   0  0  0  0  0  0  0  0  0  0  0  0
    7.6450   -2.9020   22.0400 C   0  0  0  0  0  0  0  0  0  0  0  0
    7.5920   -2.8840   23.5730 C   0  0  0  0  0  0  0  0  0  0  0  0
    6.1800   -3.2410   24.0770 C   0  0  0  0  0  0  0  0  0  0  0  0
    5.9040   -3.1050   25.6150 C   0  0  0  0  0  0  0  0  0  0  0  0
    4.9680   -3.7530   26.0730 O   0  0  0  0  0  0  0  0  0  0  0  0
    6.6440   -2.2620   26.4880 N   0  0  0  0  0  0  0  0  0  0  0  0
    7.0310   -0.9740   26.0170 C   0  0  0  0  0  0  0  0  0  0  0  0
    5.8290   -0.0660   26.2020 C   0  0  0  0  0  0  0  0  0  0  0  0
    5.8530    0.4320   27.6110 N   0  0  0  0  0  0  0  0  0  0  0  0
    6.5100    1.9940   27.8390 S   0  0  0  0  0  0  0  0  0  0  0  0
    6.1700    2.4470   29.1690 O   0  0  0  0  0  0  0  0  0  0  0  0
    7.9000    1.9110   27.4400 O   0  0  0  0  0  0  0  0  0  0  0  0
    5.6500    3.0050   26.6870 C   0  0  0  0  0  0  0  0  0  0  0  0
    4.3120    3.3850   26.9270 C   0  0  0  0  0  0  0  0  0  0  0  0
    3.6240    4.1980   26.0010 C   0  0  0  0  0  0  0  0  0  0  0  0
    4.2690    4.6330   24.8390 C   0  0  0  0  0  0  0  0  0  0  0  0
    3.5710    5.4830   23.8600 N   0  0  0  0  0  0  0  0  0  0  0  0
    3.8670    6.6850   23.8470 O   0  0  0  0  0  0  0  0  0  0  0  0
    2.5620    5.0090   23.3200 O   0  0  0  0  0  0  0  0  0  0  0  0
    5.5810    4.2330   24.6490 C   0  0  0  0  0  0  0  0  0  0  0  0
    6.2830    3.4370   25.5350 C   0  0  0  0  0  0  0  0  0  0  0  0
    6.5230   -0.5930   28.4800 C   0  0  0  0  0  0  0  0  0  0  0  0
    6.3780   -2.0620   27.9570 C   0  0  0  0  0  0  0  0  0  0  0  0
    5.7810   -4.6590   23.5970 C   0  0  0  0  0  0  0  0  0  0  0  0
    6.3050   -5.0010   22.1960 C   0  0  0  0  0  0  0  0  0  0  0  0
  1  2  2  0
  2  3  1  0
  3  4  1  0
  2  5  1  0
  5  6  1  0
  6  7  1  0
  7  8  1  0
  8  9  1  0
  9 10  2  0
  9 11  1  0
 11 12  1  0
 12 13  1  0
 13 14  1  0
 14 15  1  0
 15 16  2  0
 15 17  2  0
 15 18  1  0
 18 19  2  0
 19 20  1  0
 20 21  2  0
 21 22  1  0
 22 23  2  0
 22 24  1  0
 21 25  1  0
 18 26  1  0
 25 26  2  0
 14 27  1  0
 11 28  1  0
 27 28  1  0
  8 29  1  0
  5 30  1  0
 29 30  1  0
M  CHG  2  22   1  24  -1
M  END
