SAD-SAT-2ceae68f-2-vinylsulfonamide
     RDKit          3D

 31 33  0  0  0  0  0  0  0  0999 V2000
    6.9010   -5.5440   20.3430 C   0  0  0  0  0  0  0  0  0  0  0  0
    6.4730   -4.8730   21.6190 C   0  0  0  0  0  0  0  0  0  0  0  0
    5.3640   -3.5780   21.1930 S   0  0  0  0  0  0  0  0  0  0  0  0
    5.0100   -3.7090   19.7780 O   0  0  0  0  0  0  0  0  0  0  0  0
    4.2800   -3.6970   22.1290 O   0  0  0  0  0  0  0  0  0  0  0  0
    6.2160   -2.1540   21.4740 N   0  0  0  0  0  0  0  0  0  0  0  0
    6.5670   -1.2840   20.3500 C   0  0  0  0  0  0  0  0  0  0  0  0
    5.6770   -1.4420   19.1040 C   0  0  0  0  0  0  0  0  0  0  0  0
    7.2130   -2.1380   22.3960 C   0  0  0  0  0  0  0  0  0  0  0  0
    6.9630   -2.0170   23.7740 C   0  0  0  0  0  0  0  0  0  0  0  0
    6.9040   -3.0740   24.4120 O   0  0  0  0  0  0  0  0  0  0  0  0
    6.8100   -0.7750   24.3410 N   0  0  0  0  0  0  0  0  0  0  0  0
    5.7020    0.0390   23.8060 C   0  0  0  0  0  0  0  0  0  0  0  0
    5.7200    1.3150   24.3890 C   0  0  0  0  0  0  0  0  0  0  0  0
    6.6050    2.2060   23.7750 C   0  0  0  0  0  0  0  0  0  0  0  0
    7.8680    1.6470   23.6790 N   0  0  0  0  0  0  0  0  0  0  0  0
    9.0870    2.5190   22.8460 S   0  0  0  0  0  0  0  0  0  0  0  0
    9.1970    3.7660   23.5880 O   0  0  0  0  0  0  0  0  0  0  0  0
    8.7370    2.4160   21.4310 O   0  0  0  0  0  0  0  0  0  0  0  0
   10.5740    1.6130   23.0430 C   0  0  0  0  0  0  0  0  0  0  0  0
   10.5370    0.1930   23.3740 C   0  0  0  0  0  0  0  0  0  0  0  0
   11.6280   -0.6770   23.5630 C   0  0  0  0  0  0  0  0  0  0  0  0
   12.8650   -0.1540   23.4280 C   0  0  0  0  0  0  0  0  0  0  0  0
   12.7920    1.1510   23.1260 C   0  0  0  0  0  0  0  0  0  0  0  0
   11.4340    1.0570   23.1620 C   0  0  0  0  0  0  0  0  0  0  0  0
   10.5880    2.1400   22.9130 N   0  0  0  0  0  0  0  0  0  0  0  0
   11.0630    3.4310   22.6030 C   0  0  0  0  0  0  0  0  0  0  0  0
   12.4160    3.5550   22.5690 C   0  0  0  0  0  0  0  0  0  0  0  0
   11.9610    2.1630   22.9000 C   0  0  0  0  0  0  0  0  0  0  0  0
    8.2820    1.1620   24.8840 C   0  0  0  0  0  0  0  0  0  0  0  0
    7.8040   -0.2780   25.1330 C   0  0  0  0  0  0  0  0  0  0  0  0
  1  2  1  0
  2  3  1  0
  3  4  2  0
  3  5  2  0
  3  6  1  0
  6  7  1  0
  7  8  1  0
  6  9  1  0
  9 10  1  0
 10 11  2  0
 10 12  1  0
 12 13  1  0
 13 14  1  0
 14 15  1  0
 15 16  1  0
 16 17  1  0
 17 18  2  0
 17 19  2  0
 17 20  1  0
 20 21  2  0
 21 22  1  0
 22 23  2  0
 23 24  1  0
 24 25  1  0
 25 26  2  0
 26 27  1  0
 27 28  2  0
 20 29  1  0
 24 29  2  0
 28 29  1  0
 16 30  1  0
 12 31  1  0
 30 31  1  0
M  END
