SAD-SAT-edc8a235-1-nitrile
     RDKit          3D

  9  9  0  0  0  0  0  0  0  0999 V2000
    7.6880   -3.7930   20.4530 C   0  0  0  0  0  0  0  0  0  0  0  0
    6.4520   -4.3180   20.3050 N   0  0  0  0  0  0  0  0  0  0  0  0
    8.0190   -2.5770   21.3390 N   0  0  0  0  0  0  0  0  0  0  0  0
    9.3090   -1.7300   21.8320 C   0  0  0  0  0  0  0  0  0  0  0  0
    9.1670   -0.9540   23.1790 C   0  0  0  0  0  0  0  0  0  0  0  0
   10.4670   -0.4310   23.8790 C   0  0  0  0  0  0  0  0  0  0  0  0
   11.7590   -0.3850   23.0710 C   0  0  0  0  0  0  0  0  0  0  0  0
   11.9650   -1.6880   22.3240 C   0  0  0  0  0  0  0  0  0  0  0  0
   10.6710   -2.4500   21.9380 C   0  0  0  0  0  0  0  0  0  0  0  0
  1  2  2  3
  1  3  1  0
  3  4  1  0
  4  5  1  0
  5  6  1  0
  6  7  1  0
  7  8  1  0
  4  9  1  0
  8  9  1  0
M  END
