SAD-SAT-65574d3f-5-nitrile
     RDKit          3D

 12 13  0  0  0  0  0  0  0  0999 V2000
    6.4400   -5.0220   20.5090 C   0  0  0  0  0  0  0  0  0  0  0  0
    5.6010   -5.7660   19.9430 N   0  0  0  0  0  0  0  0  0  0  0  0
    6.5300   -4.9710   21.8980 N   0  0  0  0  0  0  0  0  0  0  0  0
    6.7290   -3.7430   22.6410 C   0  0  0  0  0  0  0  0  0  0  0  0
    5.3830   -3.2950   23.2160 C   0  0  0  0  0  0  0  0  0  0  0  0
    4.8630   -4.1810   24.3440 C   0  0  0  0  0  0  0  0  0  0  0  0
    5.5910   -5.5200   24.2010 C   0  0  0  0  0  0  0  0  0  0  0  0
    5.7090   -5.9320   22.6920 C   0  0  0  0  0  0  0  0  0  0  0  0
    5.0810   -3.6470   25.4960 O   0  0  0  0  0  0  0  0  0  0  0  0
    3.8450   -3.1090   25.8900 C   0  0  0  0  0  0  0  0  0  0  0  0
    2.9020   -3.8670   25.2990 C   0  0  0  0  0  0  0  0  0  0  0  0
    3.6440   -4.5780   24.3090 O   0  0  0  0  0  0  0  0  0  0  0  0
  1  2  2  3
  1  3  1  0
  3  4  1  0
  4  5  1  0
  5  6  1  0
  6  7  1  0
  3  8  1  0
  7  8  1  0
  6  9  1  0
  9 10  1  0
 10 11  1  0
  6 12  1  0
 11 12  1  0
M  END
