SAD-SAT-29425be4-13-vinylsulfonamide
     RDKit          3D

 28 29  0  0  0  0  0  0  0  0999 V2000
    7.9560   -3.0270   18.3830 C   0  0  0  0  0  0  0  0  0  0  0  0
    6.4810   -2.9220   18.4730 C   0  0  0  0  0  0  0  0  0  0  0  0
    5.7060   -3.7360   19.8010 S   0  0  0  0  0  0  0  0  0  0  0  0
    4.5980   -2.9250   19.9700 O   0  0  0  0  0  0  0  0  0  0  0  0
    5.4990   -5.1300   19.6210 O   0  0  0  0  0  0  0  0  0  0  0  0
    6.6630   -3.3930   21.0800 N   0  0  0  0  0  0  0  0  0  0  0  0
    6.3190   -4.2700   22.1990 C   0  0  0  0  0  0  0  0  0  0  0  0
    5.1800   -3.5790   22.8860 C   0  0  0  0  0  0  0  0  0  0  0  0
    5.8370   -2.4700   23.6730 C   0  0  0  0  0  0  0  0  0  0  0  0
    6.7320   -3.1220   24.6800 C   0  0  0  0  0  0  0  0  0  0  0  0
    6.3340   -4.1090   25.3090 O   0  0  0  0  0  0  0  0  0  0  0  0
    7.9720   -2.5880   24.8710 N   0  0  0  0  0  0  0  0  0  0  0  0
    9.0710   -3.2680   24.2220 C   0  0  1  0  0  0  0  0  0  0  0  0
    9.9880   -2.1930   23.8670 C   0  0  0  0  0  0  0  0  0  0  0  0
   10.0240   -1.0780   24.6770 C   0  0  0  0  0  0  0  0  0  0  0  0
   10.9010   -0.0390   24.3700 C   0  0  0  0  0  0  0  0  0  0  0  0
   11.6500   -0.1780   23.3010 C   0  0  0  0  0  0  0  0  0  0  0  0
   12.5710    0.7020   22.8610 C   0  0  0  0  0  0  0  0  0  0  0  0
   13.4740   -0.2600   22.7330 C   0  0  0  0  0  0  0  0  0  0  0  0
   13.4090   -1.1210   23.8530 C   0  0  0  0  0  0  0  0  0  0  0  0
   13.3000   -1.2250   21.5590 C   0  0  0  0  0  0  0  0  0  0  0  0
   11.6280   -1.2760   22.4850 C   0  0  0  0  0  0  0  0  0  0  0  0
   10.7980   -2.2930   22.7580 C   0  0  0  0  0  0  0  0  0  0  0  0
    9.6740   -4.2820   25.2130 C   0  0  0  0  0  0  0  0  0  0  0  0
    9.5160   -5.7040   24.6890 C   0  0  0  0  0  0  0  0  0  0  0  0
   11.1220   -3.8840   25.4760 C   0  0  0  0  0  0  0  0  0  0  0  0
    6.7370   -1.5940   22.7750 C   0  0  0  0  0  0  0  0  0  0  0  0
    6.5780   -1.9340   21.3160 C   0  0  0  0  0  0  0  0  0  0  0  0
  1  2  1  0
  3  2  1  0
  3  4  2  0
  3  5  2  0
  3  6  1  0
  6  7  1  0
  7  8  1  0
  8  9  1  0
  9 10  1  0
 10 11  2  0
 10 12  1  0
 13 12  1  1
 13 14  1  0
 14 15  2  0
 15 16  1  0
 16 17  2  0
 17 18  1  0
 18 19  1  0
 19 20  1  0
 19 21  1  0
 17 22  1  0
 14 23  1  0
 22 23  2  0
 13 24  1  0
 24 25  1  0
 24 26  1  0
  9 27  1  0
  6 28  1  0
 27 28  1  0
M  END
