SAD-SAT-29425be4-3-chloroacetamide
     RDKit          3D

 23 24  0  0  0  0  0  0  0  0999 V2000
    7.2500   -3.0400   18.9450 C   0  0  0  0  0  0  0  0  0  0  0  0
    6.1450   -3.2820   19.9200 C   0  0  0  0  0  0  0  0  0  0  0  0
    5.3000   -4.1600   19.7460 O   0  0  0  0  0  0  0  0  0  0  0  0
    6.1340   -2.4670   21.0550 N   0  0  0  0  0  0  0  0  0  0  0  0
    5.8730   -3.0800   22.3770 C   0  0  0  0  0  0  0  0  0  0  0  0
    7.1750   -3.3730   23.1010 C   0  0  0  0  0  0  0  0  0  0  0  0
    8.3170   -2.4810   22.5980 C   0  0  0  0  0  0  0  0  0  0  0  0
    9.3270   -2.3350   23.7060 C   0  0  0  0  0  0  0  0  0  0  0  0
    9.2130   -3.0010   24.7050 O   0  0  0  0  0  0  0  0  0  0  0  0
   10.3530   -1.4310   23.5490 N   0  0  0  0  0  0  0  0  0  0  0  0
    9.8920   -0.0490   23.4130 C   0  0  0  0  0  0  0  0  0  0  0  0
   10.5880    0.8480   24.3460 C   0  0  0  0  0  0  0  0  0  0  0  0
   12.2160    1.1610   24.0470 S   0  0  0  0  0  0  0  0  0  0  0  0
   12.5810   -0.4090   23.5720 C   0  0  0  0  0  0  0  0  0  0  0  0
   12.4530   -1.5930   24.3630 C   0  0  0  0  0  0  0  0  0  0  0  0
   12.7320   -2.7760   23.6840 C   0  0  0  0  0  0  0  0  0  0  0  0
   13.1280   -2.8140   22.2580 C   0  0  0  0  0  0  0  0  0  0  0  0
   13.4460   -3.6470   21.1570 C   0  0  0  0  0  0  0  0  0  0  0  0
   13.2500   -1.5500   21.6830 C   0  0  0  0  0  0  0  0  0  0  0  0
   13.6110   -1.4920   20.4840 C   0  0  0  0  0  0  0  0  0  0  0  0
   12.9730   -0.3620   22.3460 C   0  0  0  0  0  0  0  0  0  0  0  0
    7.7810   -1.1340   22.1440 C   0  0  0  0  0  0  0  0  0  0  0  0
    6.9910   -1.2720   21.0080 C   0  0  0  0  0  0  0  0  0  0  0  0
  1  2  1  0
  2  3  2  0
  2  4  1  0
  4  5  1  0
  5  6  1  0
  6  7  1  0
  7  8  1  0
  8  9  2  0
  8 10  1  0
 10 11  1  0
 11 12  1  0
 12 13  1  0
 13 14  1  0
 14 15  2  0
 15 16  1  0
 16 17  2  0
 17 18  1  0
 17 19  1  0
 19 20  1  0
 14 21  1  0
 19 21  2  0
  7 22  1  0
  4 23  1  0
 22 23  1  0
M  END
