SAD-SAT-65574d3f-7-acrylamide
     RDKit          3D

 13 13  0  0  0  0  0  0  0  0999 V2000
    7.0730   -2.8590   18.5780 C   0  0  0  0  0  0  0  0  0  0  0  0
    6.2530   -2.1840   19.7050 C   0  0  0  0  0  0  0  0  0  0  0  0
    5.3370   -3.0470   20.5880 C   0  0  0  0  0  0  0  0  0  0  0  0
    4.7350   -3.3790   19.5720 O   0  0  0  0  0  0  0  0  0  0  0  0
    6.2110   -2.4770   21.4790 N   0  0  0  0  0  0  0  0  0  0  0  0
    6.8910   -3.5010   22.2200 C   0  0  0  0  0  0  0  0  0  0  0  0
    6.3390   -4.8620   21.7800 C   0  0  0  0  0  0  0  0  0  0  0  0
    5.6250   -5.0510   20.6180 O   0  0  0  0  0  0  0  0  0  0  0  0
    6.5690   -5.9420   22.7140 N   0  0  0  0  0  0  0  0  0  0  0  0
    7.1520   -5.3170   23.9050 C   0  0  0  0  0  0  0  0  0  0  0  0
    5.9600   -5.0770   24.7730 C   0  0  0  0  0  0  0  0  0  0  0  0
    4.8770   -5.7550   24.1950 C   0  0  0  0  0  0  0  0  0  0  0  0
    5.3260   -6.5880   23.1430 C   0  0  0  0  0  0  0  0  0  0  0  0
  1  2  1  0
  2  3  1  0
  3  4  2  0
  3  5  1  0
  5  6  1  0
  6  7  1  0
  7  8  2  0
  7  9  1  0
  9 10  1  0
 10 11  1  0
 11 12  1  0
  9 13  1  0
 12 13  1  0
M  END
