SAD-SAT-65574d3f-8-vinylsulfonamide
     RDKit          3D

 22 23  0  0  0  0  0  0  0  0999 V2000
    6.8690   -3.0800   18.9930 C   0  0  0  0  0  0  0  0  0  0  0  0
    6.9560   -1.8590   19.9100 C   0  0  0  0  0  0  0  0  0  0  0  0
    5.4030   -1.7220   20.7380 S   0  0  0  0  0  0  0  0  0  0  0  0
    4.9100   -3.0890   20.9120 O   0  0  0  0  0  0  0  0  0  0  0  0
    4.6490   -0.7240   20.0080 O   0  0  0  0  0  0  0  0  0  0  0  0
    5.7420   -1.0710   22.2810 N   0  0  0  0  0  0  0  0  0  0  0  0
    5.7460   -2.0210   23.3960 C   0  0  0  0  0  0  0  0  0  0  0  0
    4.6640   -1.7860   24.4640 C   0  0  0  0  0  0  0  0  0  0  0  0
    4.1120   -0.3750   24.5760 C   0  0  0  0  0  0  0  0  0  0  0  0
    3.0350   -0.0700   25.6130 C   0  0  0  0  0  0  0  0  0  0  0  0
    2.5900   -1.2160   26.4660 C   0  0  0  0  0  0  0  0  0  0  0  0
    3.1590   -2.4840   26.2930 C   0  0  0  0  0  0  0  0  0  0  0  0
    4.1580   -2.8090   25.3460 C   0  0  0  0  0  0  0  0  0  0  0  0
    4.7160   -4.5220   25.3440 S   0  0  0  0  0  0  0  0  0  0  0  0
    5.6310   -4.6520   26.4560 O   0  0  0  0  0  0  0  0  0  0  0  0
    3.5290   -5.3350   25.2410 O   0  0  0  0  0  0  0  0  0  0  0  0
    5.6320   -4.8010   23.9850 N   0  0  0  0  0  0  0  0  0  0  0  0
    5.3810   -5.9600   23.0780 C   0  0  0  0  0  0  0  0  0  0  0  0
    6.4200   -6.3840   22.2340 C   0  0  0  0  0  0  0  0  0  0  0  0
    7.6820   -5.7210   22.3650 O   0  0  0  0  0  0  0  0  0  0  0  0
    7.8470   -5.1490   23.6620 C   0  0  0  0  0  0  0  0  0  0  0  0
    6.9280   -4.1530   23.8140 C   0  0  0  0  0  0  0  0  0  0  0  0
  1  2  1  0
  2  3  1  0
  3  4  2  0
  3  5  2  0
  3  6  1  0
  6  7  1  0
  7  8  1  0
  8  9  2  0
  9 10  1  0
 10 11  2  0
 11 12  1  0
  8 13  1  0
 12 13  2  0
 14 13  1  0
 14 15  2  0
 14 16  2  0
 14 17  1  0
 17 18  1  0
 18 19  1  0
 19 20  1  0
 20 21  1  0
 17 22  1  0
 21 22  1  0
M  END
