SAD-SAT-1b030f84-4-vinylsulfonamide
     RDKit          3D

 20 21  0  0  0  0  0  0  0  0999 V2000
    6.8230   -6.1290   21.1200 C   0  0  0  0  0  0  0  0  0  0  0  0
    6.9090   -5.5210   22.5480 C   0  0  0  0  0  0  0  0  0  0  0  0
    5.3550   -5.5350   23.3570 S   0  0  0  0  0  0  0  0  0  0  0  0
    4.2790   -5.1620   22.3670 O   0  0  0  0  0  0  0  0  0  0  0  0
    5.2910   -6.6000   24.3190 O   0  0  0  0  0  0  0  0  0  0  0  0
    5.7510   -4.2530   24.3390 N   0  0  0  0  0  0  0  0  0  0  0  0
    4.7580   -3.2930   24.0770 C   0  0  0  0  0  0  0  0  0  0  0  0
    4.7560   -3.1150   22.5870 C   0  0  0  0  0  0  0  0  0  0  0  0
    6.0940   -3.0890   22.0150 N   0  0  0  0  0  0  0  0  0  0  0  0
    6.1970   -2.4690   20.7710 C   0  0  0  0  0  0  0  0  0  0  0  0
    5.2830   -2.6020   19.9440 O   0  0  0  0  0  0  0  0  0  0  0  0
    7.4680   -1.7070   20.3980 C   0  0  0  0  0  0  0  0  0  0  0  0
    7.2710   -0.1940   20.6090 C   0  0  2  0  0  0  0  0  0  0  0  0
    6.2520    0.1950   21.4290 C   0  0  0  0  0  0  0  0  0  0  0  0
    5.3420    1.0610   20.8940 C   0  0  0  0  0  0  0  0  0  0  0  0
    5.8360    1.4000   19.2270 S   0  0  0  0  0  0  0  0  0  0  0  0
    4.7760    0.2160   18.3800 C   0  0  0  0  0  0  0  0  0  0  0  0
    7.1750    0.3700   19.3730 N   0  0  0  0  0  0  0  0  0  0  0  0
    7.2980   -3.1080   22.8820 C   0  0  0  0  0  0  0  0  0  0  0  0
    7.1200   -3.7710   24.0960 C   0  0  0  0  0  0  0  0  0  0  0  0
  1  2  1  0
  3  2  1  0
  3  4  2  0
  3  5  2  0
  3  6  1  0
  6  7  1  0
  7  8  1  0
  8  9  1  0
  9 10  1  0
 10 11  2  0
 10 12  1  0
 13 12  1  6
 13 14  1  0
 14 15  2  0
 15 16  1  0
 16 17  1  6
 13 18  1  0
 16 18  2  0
  9 19  1  0
  6 20  1  0
 19 20  1  0
M  END
