SAD-SAT-29425be4-30-nitrile
     RDKit          3D

 27 28  0  0  0  0  0  0  0  0999 V2000
    6.9960   -3.1450   19.0030 C   0  0  0  0  0  0  0  0  0  0  0  0
    6.2540   -3.1120   17.9980 N   0  0  0  0  0  0  0  0  0  0  0  0
    6.7640   -2.1790   19.8780 N   0  0  0  0  0  0  0  0  0  0  0  0
    7.2520   -0.8160   19.6640 C   0  0  0  0  0  0  0  0  0  0  0  0
    7.7740   -0.4130   21.0940 C   0  0  0  0  0  0  0  0  0  0  0  0
    7.0620   -1.5070   21.8990 C   0  0  0  0  0  0  0  0  0  0  0  0
    7.4350   -1.3620   23.3500 C   0  0  0  0  0  0  0  0  0  0  0  0
    7.2920   -0.2980   23.9590 O   0  0  0  0  0  0  0  0  0  0  0  0
    7.9340   -2.5110   23.9430 N   0  0  0  0  0  0  0  0  0  0  0  0
    6.9930   -3.6100   24.1920 C   0  0  0  0  0  0  0  0  0  0  0  0
    6.1650   -3.9820   22.8910 C   0  0  0  0  0  0  0  0  0  0  0  0
    4.6910   -3.8550   23.3720 C   0  0  0  0  0  0  0  0  0  0  0  0
    9.2410   -2.9130   23.6890 C   0  0  0  0  0  0  0  0  0  0  0  0
   10.3530   -1.8860   23.6280 C   0  0  0  0  0  0  0  0  0  0  0  0
   11.6320   -2.4130   23.0630 C   0  0  0  0  0  0  0  0  0  0  0  0
   12.7790   -1.4970   22.9610 C   0  0  0  0  0  0  0  0  0  0  0  0
   12.5620   -0.1060   23.4320 C   0  0  0  0  0  0  0  0  0  0  0  0
   13.6580    0.6390   23.3090 O   0  0  0  0  0  0  0  0  0  0  0  0
   13.4260    1.6900   22.4390 C   0  0  0  0  0  0  0  0  0  0  0  0
   12.2820    2.4760   23.0460 C   0  0  0  0  0  0  0  0  0  0  0  0
   11.3170    0.3400   23.9470 C   0  0  0  0  0  0  0  0  0  0  0  0
   11.1900    1.6970   24.3490 O   0  0  0  0  0  0  0  0  0  0  0  0
    9.9680    2.3590   23.9880 C   0  0  0  0  0  0  0  0  0  0  0  0
    9.5380    1.9690   22.5770 C   0  0  0  0  0  0  0  0  0  0  0  0
   10.2450   -0.5510   24.0420 C   0  0  0  0  0  0  0  0  0  0  0  0
    5.5530   -1.4510   21.7020 C   0  0  0  0  0  0  0  0  0  0  0  0
    5.4150   -2.1960   20.4170 C   0  0  0  0  0  0  0  0  0  0  0  0
  1  2  2  3
  1  3  1  0
  3  4  1  0
  4  5  1  0
  5  6  1  0
  6  7  1  0
  7  8  2  0
  7  9  1  0
  9 10  1  0
 10 11  1  0
 11 12  1  0
  9 13  1  0
 13 14  1  0
 14 15  2  0
 15 16  1  0
 16 17  2  0
 17 18  1  0
 18 19  1  0
 19 20  1  0
 17 21  1  0
 21 22  1  0
 22 23  1  0
 23 24  1  0
 14 25  1  0
 21 25  2  0
  6 26  1  0
  3 27  1  0
 26 27  1  0
M  END
