SAD-SAT-1b030f84-8-vinylsulfonamide
     RDKit          3D

 18 18  0  0  0  0  0  0  0  0999 V2000
    6.5960   -5.5980   20.0440 C   0  0  0  0  0  0  0  0  0  0  0  0
    6.5560   -5.8840   21.5780 C   0  0  0  0  0  0  0  0  0  0  0  0
    5.2250   -5.0140   22.3960 S   0  0  0  0  0  0  0  0  0  0  0  0
    3.9670   -5.6800   22.1710 O   0  0  0  0  0  0  0  0  0  0  0  0
    5.3040   -3.6310   22.0230 O   0  0  0  0  0  0  0  0  0  0  0  0
    5.5840   -5.0440   24.0200 N   0  0  0  0  0  0  0  0  0  0  0  0
    5.4350   -3.7510   24.6030 C   0  0  0  0  0  0  0  0  0  0  0  0
    6.4810   -2.8610   23.9300 C   0  0  0  0  0  0  0  0  0  0  0  0
    7.4500   -3.4500   23.1760 N   0  0  0  0  0  0  0  0  0  0  0  0
    7.6870   -2.9380   21.9380 C   0  0  0  0  0  0  0  0  0  0  0  0
    6.8150   -3.1540   20.9120 O   0  0  0  0  0  0  0  0  0  0  0  0
    8.8050   -2.1690   21.6030 C   0  0  0  0  0  0  0  0  0  0  0  0
    9.8590   -1.7030   22.8540 S   0  0  0  0  0  0  0  0  0  0  0  0
   11.2080   -1.3780   21.9050 N   0  0  0  0  0  0  0  0  0  0  0  0
    9.4340   -0.4270   23.4240 O   0  0  0  0  0  0  0  0  0  0  0  0
   10.2510   -2.8210   23.6720 O   0  0  0  0  0  0  0  0  0  0  0  0
    7.9680   -4.7120   23.7310 C   0  0  0  0  0  0  0  0  0  0  0  0
    6.8690   -5.4530   24.1540 C   0  0  0  0  0  0  0  0  0  0  0  0
  1  2  1  0
  3  2  1  0
  3  4  2  0
  3  5  2  0
  3  6  1  0
  6  7  1  0
  7  8  1  0
  8  9  1  0
  9 10  1  0
 10 11  2  0
 10 12  1  0
 12 13  1  0
 13 14  1  0
 13 15  2  0
 13 16  2  0
  9 17  1  0
  6 18  1  0
 17 18  1  0
M  END
