SAD-SAT-2ceae68f-5-chloroacetamide
     RDKit          3D

 27 28  0  0  0  0  0  0  0  0999 V2000
    6.1100   -4.1700   20.0560 C   0  0  0  0  0  0  0  0  0  0  0  0
    6.3260   -2.9540   19.1880 C   0  0  0  0  0  0  0  0  0  0  0  0
    5.7940   -2.9430   18.0830 O   0  0  0  0  0  0  0  0  0  0  0  0
    7.0550   -1.8560   19.6120 N   0  0  0  0  0  0  0  0  0  0  0  0
    7.0040   -0.5780   18.9380 C   0  0  0  0  0  0  0  0  0  0  0  0
    7.6360   -1.7830   20.9610 C   0  0  0  0  0  0  0  0  0  0  0  0
    7.9440   -0.3880   21.4430 C   0  0  0  0  0  0  0  0  0  0  0  0
    9.1280   -0.0620   21.4640 O   0  0  0  0  0  0  0  0  0  0  0  0
    6.9190    0.5060   21.8640 N   0  0  0  0  0  0  0  0  0  0  0  0
    7.2790    1.9170   21.7390 C   0  0  0  0  0  0  0  0  0  0  0  0
    8.3110    2.1910   22.6340 C   0  0  0  0  0  0  0  0  0  0  0  0
    8.1080    1.4260   23.7610 N   0  0  0  0  0  0  0  0  0  0  0  0
    9.5070    0.5350   24.2090 S   0  0  0  0  0  0  0  0  0  0  0  0
    9.4960    0.4970   25.6500 O   0  0  0  0  0  0  0  0  0  0  0  0
    9.5280   -0.6810   23.4250 O   0  0  0  0  0  0  0  0  0  0  0  0
   10.7400    1.5840   23.6960 C   0  0  0  0  0  0  0  0  0  0  0  0
   11.2970    0.0790   23.3970 C   0  0  0  0  0  0  0  0  0  0  0  0
   12.5970   -0.5280   22.8070 C   0  0  0  0  0  0  0  0  0  0  0  0
   12.9680   -1.8460   22.5720 N   0  0  0  0  0  0  0  0  0  0  0  0
   13.3310   -2.0850   21.4130 O   0  0  0  0  0  0  0  0  0  0  0  0
   13.3370   -2.5070   23.5480 O   0  0  0  0  0  0  0  0  0  0  0  0
   13.3520    0.4990   22.5390 C   0  0  0  0  0  0  0  0  0  0  0  0
   12.3550    1.0800   22.9820 C   0  0  0  0  0  0  0  0  0  0  0  0
   11.9090    2.1700   23.1990 C   0  0  0  0  0  0  0  0  0  0  0  0
   12.5100    3.4160   22.9560 C   0  0  0  0  0  0  0  0  0  0  0  0
    6.7540    0.9530   24.0920 C   0  0  0  0  0  0  0  0  0  0  0  0
    6.3570    0.0810   23.0890 C   0  0  0  0  0  0  0  0  0  0  0  0
  1  2  1  0
  2  3  2  0
  2  4  1  0
  4  5  1  0
  4  6  1  0
  6  7  1  0
  7  8  2  0
  7  9  1  0
  9 10  1  0
 10 11  1  0
 11 12  1  0
 12 13  1  0
 13 14  2  0
 13 15  2  0
 13 16  1  0
 16 17  2  0
 17 18  1  0
 18 19  1  0
 19 20  2  0
 19 21  1  0
 18 22  2  0
 22 23  1  0
 16 24  1  0
 23 24  2  0
 24 25  1  0
 12 26  1  0
  9 27  1  0
 26 27  1  0
M  CHG  2  19   1  21  -1
M  END
