SAD-SAT-edc8a235-1-acrylamide
     RDKit          3D

 11 11  0  0  0  0  0  0  0  0999 V2000
    7.4610   -4.9450   22.0980 C   0  0  0  0  0  0  0  0  0  0  0  0
    6.4880   -4.2130   22.9810 C   0  0  0  0  0  0  0  0  0  0  0  0
    6.0980   -3.0160   22.2430 C   0  0  0  0  0  0  0  0  0  0  0  0
    4.9160   -3.2300   21.4890 O   0  0  0  0  0  0  0  0  0  0  0  0
    7.0140   -1.8090   22.5030 N   0  0  0  0  0  0  0  0  0  0  0  0
    8.5880   -1.4560   22.6010 C   0  0  0  0  0  0  0  0  0  0  0  0
    9.0510   -0.6820   23.8790 C   0  0  0  0  0  0  0  0  0  0  0  0
   10.4400    0.0120   23.7590 C   0  0  0  0  0  0  0  0  0  0  0  0
   11.5900   -0.9340   23.4090 C   0  0  0  0  0  0  0  0  0  0  0  0
   11.1940   -1.9270   22.3150 C   0  0  0  0  0  0  0  0  0  0  0  0
    9.7240   -2.4900   22.3710 C   0  0  0  0  0  0  0  0  0  0  0  0
  1  2  1  0
  2  3  1  0
  3  4  2  0
  3  5  1  0
  5  6  1  0
  6  7  1  0
  7  8  1  0
  8  9  1  0
  9 10  1  0
  6 11  1  0
 10 11  1  0
M  END
