SAD-SAT-65574d3f-4-nitrile
     RDKit          3D

 13 13  0  0  0  0  0  0  0  0999 V2000
    6.0830   -5.1200   20.8790 C   0  0  0  0  0  0  0  0  0  0  0  0
    5.3670   -5.9020   20.1960 N   0  0  0  0  0  0  0  0  0  0  0  0
    5.9730   -4.8000   22.3800 N   0  0  0  0  0  0  0  0  0  0  0  0
    5.1150   -5.2570   23.8750 S   0  0  0  0  0  0  0  0  0  0  0  0
    4.2510   -6.3970   23.6930 O   0  0  0  0  0  0  0  0  0  0  0  0
    6.1420   -5.3290   24.9010 O   0  0  0  0  0  0  0  0  0  0  0  0
    4.0630   -3.9720   24.5810 C   0  0  0  0  0  0  0  0  0  0  0  0
    2.5480   -4.1570   24.6770 C   0  0  0  0  0  0  0  0  0  0  0  0
    1.6650   -3.0720   25.2950 C   0  0  0  0  0  0  0  0  0  0  0  0
    2.3870   -1.8360   25.7930 C   0  0  0  0  0  0  0  0  0  0  0  0
    1.5080   -0.7380   26.4160 C   0  0  0  0  0  0  0  0  0  0  0  0
    3.7900   -1.7680   25.6570 C   0  0  0  0  0  0  0  0  0  0  0  0
    4.5990   -2.7740   25.0850 C   0  0  0  0  0  0  0  0  0  0  0  0
  1  2  2  3
  1  3  1  0
  4  3  1  0
  4  5  2  0
  4  6  2  0
  4  7  1  0
  7  8  2  0
  8  9  1  0
  9 10  2  0
 10 11  1  0
 10 12  1  0
  7 13  1  0
 12 13  2  0
M  END
