SAD-SAT-29425be4-27-chloroacetamide
     RDKit          3D

 28 30  0  0  0  0  0  0  0  0999 V2000
    7.2620   -3.0060   18.8350 C   0  0  0  0  0  0  0  0  0  0  0  0
    6.2830   -3.3290   19.9430 C   0  0  0  0  0  0  0  0  0  0  0  0
    5.3780   -4.1580   19.7720 O   0  0  0  0  0  0  0  0  0  0  0  0
    6.4790   -2.6670   21.1580 N   0  0  0  0  0  0  0  0  0  0  0  0
    5.9190   -3.2140   22.3900 C   0  0  0  0  0  0  0  0  0  0  0  0
    7.1160   -3.3530   23.3560 C   0  0  0  0  0  0  0  0  0  0  0  0
    8.3040   -2.7840   22.5730 C   0  0  0  0  0  0  0  0  0  0  0  0
    9.2100   -2.9330   23.7910 C   0  0  0  0  0  0  0  0  0  0  0  0
    9.0130   -3.8930   24.5390 O   0  0  0  0  0  0  0  0  0  0  0  0
   10.2640   -1.9500   23.9970 N   0  0  0  0  0  0  0  0  0  0  0  0
    9.9870   -0.8680   24.9520 C   0  0  0  0  0  0  0  0  0  0  0  0
    9.9710    0.6220   24.5120 C   0  0  0  0  0  0  0  0  0  0  0  0
   11.2460    1.3410   24.0250 C   0  0  0  0  0  0  0  0  0  0  0  0
   11.2010    2.8250   23.6330 C   0  0  0  0  0  0  0  0  0  0  0  0
    9.8980    3.6050   23.7140 C   0  0  0  0  0  0  0  0  0  0  0  0
   10.0270    5.0730   23.3150 C   0  0  0  0  0  0  0  0  0  0  0  0
   11.4540    5.4840   23.6970 C   0  0  0  0  0  0  0  0  0  0  0  0
    8.7040    3.0210   24.1280 C   0  0  0  0  0  0  0  0  0  0  0  0
    8.6900    1.5490   24.5330 C   0  0  0  0  0  0  0  0  0  0  0  0
   11.6500   -2.3570   23.9660 C   0  0  0  0  0  0  0  0  0  0  0  0
   12.3880   -1.3150   23.2180 C   0  0  0  0  0  0  0  0  0  0  0  0
   12.3580    0.0360   23.8840 C   0  0  0  0  0  0  0  0  0  0  0  0
   13.0820    1.0670   23.1170 C   0  0  0  0  0  0  0  0  0  0  0  0
   13.7080    0.6100   21.8690 C   0  0  0  0  0  0  0  0  0  0  0  0
   13.6700   -0.6420   21.3490 N   0  0  0  0  0  0  0  0  0  0  0  0
   13.0220   -1.5660   22.0280 C   0  0  0  0  0  0  0  0  0  0  0  0
    8.1540   -1.3540   22.0630 C   0  0  0  0  0  0  0  0  0  0  0  0
    7.1020   -1.3380   21.1770 C   0  0  0  0  0  0  0  0  0  0  0  0
  1  2  1  0
  2  3  2  0
  2  4  1  0
  4  5  1  0
  5  6  1  0
  6  7  1  0
  7  8  1  0
  8  9  2  0
  8 10  1  0
 10 11  1  0
 11 12  1  0
 12 13  2  0
 13 14  1  0
 14 15  2  0
 15 16  1  0
 16 17  1  0
 15 18  1  0
 12 19  1  0
 18 19  2  0
 10 20  1  0
 20 21  1  0
 21 22  2  0
 22 23  1  0
 23 24  2  0
 24 25  1  0
 21 26  1  0
 25 26  2  0
  7 27  1  0
  4 28  1  0
 27 28  1  0
M  END
