SAD-SAT-f2e2579e-7
     RDKit          3D

 32 35  0  0  0  0  0  0  0  0999 V2000
    5.3630   -4.3390   19.5890 O   0  0  0  0  0  0  0  0  0  0  0  0
    6.1000   -3.5340   20.1750 C   0  0  0  0  0  0  0  0  0  0  0  0
    6.4780   -2.2960   19.5330 C   0  0  0  0  0  0  0  0  0  0  0  0
    5.6310   -0.9240   20.2740 Cl  0  0  0  0  0  0  0  0  0  0  0  0
    6.5970   -3.8480   21.4290 N   0  0  0  0  0  0  0  0  0  0  0  0
    7.4640   -2.9600   22.1930 C   0  0  0  0  0  0  0  0  0  0  0  0
    6.9010   -2.6420   23.4410 C   0  0  0  0  0  0  0  0  0  0  0  0
    6.5070   -3.7020   24.2760 C   0  0  0  0  0  0  0  0  0  0  0  0
    5.8120   -3.1880   25.5820 C   0  0  0  0  0  0  0  0  0  0  0  0
    4.6390   -3.5040   25.7820 O   0  0  0  0  0  0  0  0  0  0  0  0
    6.4990   -2.3660   26.5090 N   0  0  0  0  0  0  0  0  0  0  0  0
    6.9750   -1.1080   26.1490 C   0  0  0  0  0  0  0  0  0  0  0  0
    5.7960   -0.1670   26.0770 C   0  0  0  0  0  0  0  0  0  0  0  0
    5.4930    0.1770   27.4730 N   0  0  0  0  0  0  0  0  0  0  0  0
    5.2420    1.8030   27.9150 S   0  0  0  0  0  0  0  0  0  0  0  0
    4.0280    2.2610   27.2730 O   0  0  0  0  0  0  0  0  0  0  0  0
    5.3980    1.8820   29.3550 O   0  0  0  0  0  0  0  0  0  0  0  0
    6.5920    2.7250   27.1910 C   0  0  0  0  0  0  0  0  0  0  0  0
    7.5850    3.4400   28.1110 C   0  0  0  0  0  0  0  0  0  0  0  0
    8.7200    4.2140   27.4400 C   0  0  0  0  0  0  0  0  0  0  0  0
    8.8160    4.2390   26.0060 C   0  0  0  0  0  0  0  0  0  0  0  0
    7.7620    3.4830   25.2060 C   0  0  0  0  0  0  0  0  0  0  0  0
    6.7210    2.7780   25.8050 C   0  0  0  0  0  0  0  0  0  0  0  0
    7.7790    3.4510   23.8400 O   0  0  0  0  0  0  0  0  0  0  0  0
    8.9520    2.8060   23.3370 C   0  0  0  0  0  0  0  0  0  0  0  0
   10.1520    3.7370   23.3400 C   0  0  0  0  0  0  0  0  0  0  0  0
    9.7940    5.0570   24.0310 C   0  0  0  0  0  0  0  0  0  0  0  0
    9.8570    4.9460   25.4580 O   0  0  0  0  0  0  0  0  0  0  0  0
    6.1260   -0.8000   28.4180 C   0  0  0  0  0  0  0  0  0  0  0  0
    6.0370   -2.1600   27.9340 C   0  0  0  0  0  0  0  0  0  0  0  0
    5.6700   -4.7470   23.5170 C   0  0  0  0  0  0  0  0  0  0  0  0
    6.2440   -5.0760   22.1360 C   0  0  0  0  0  0  0  0  0  0  0  0
  1  2  2  0
  2  3  1  0
  3  4  1  0
  2  5  1  0
  5  6  1  0
  6  7  1  0
  7  8  1  0
  8  9  1  0
  9 10  2  0
  9 11  1  0
 11 12  1  0
 12 13  1  0
 13 14  1  0
 14 15  1  0
 15 16  2  0
 15 17  2  0
 15 18  1  0
 18 19  2  0
 19 20  1  0
 20 21  2  0
 21 22  1  0
 18 23  1  0
 22 23  2  0
 22 24  1  0
 24 25  1  0
 25 26  1  0
 26 27  1  0
 21 28  1  0
 27 28  1  0
 14 29  1  0
 11 30  1  0
 29 30  1  0
  8 31  1  0
  5 32  1  0
 31 32  1  0
M  END
