SAD-SAT-29425be4-16-chloroacetamide
     RDKit          3D

 27 29  0  0  0  0  0  0  0  0999 V2000
    7.1570   -2.9750   18.8830 C   0  0  0  0  0  0  0  0  0  0  0  0
    6.1600   -3.3590   19.9760 C   0  0  0  0  0  0  0  0  0  0  0  0
    5.3290   -4.2530   19.7950 O   0  0  0  0  0  0  0  0  0  0  0  0
    6.2260   -2.6740   21.1910 N   0  0  0  0  0  0  0  0  0  0  0  0
    7.0130   -1.4380   21.3070 C   0  0  0  0  0  0  0  0  0  0  0  0
    8.3280   -1.8880   21.9760 C   0  0  0  0  0  0  0  0  0  0  0  0
    7.7960   -2.4190   23.3080 C   0  0  0  0  0  0  0  0  0  0  0  0
    9.1770   -2.6740   23.9150 C   0  0  0  0  0  0  0  0  0  0  0  0
    9.4260   -3.7710   24.3870 O   0  0  0  0  0  0  0  0  0  0  0  0
   10.1370   -1.5840   23.9120 N   0  0  0  0  0  0  0  0  0  0  0  0
    9.6550   -0.3810   24.6370 C   0  0  0  0  0  0  0  0  0  0  0  0
   10.1110    0.9840   24.1160 C   0  0  0  0  0  0  0  0  0  0  0  0
    9.1960    2.2390   23.8350 C   0  0  0  0  0  0  0  0  0  0  0  0
   10.0510    3.4120   23.3180 C   0  0  0  0  0  0  0  0  0  0  0  0
   11.4230    2.8230   23.3120 C   0  0  0  0  0  0  0  0  0  0  0  0
   12.7870    3.2550   22.9670 C   0  0  0  0  0  0  0  0  0  0  0  0
   13.5280    4.5120   23.4430 C   0  0  0  0  0  0  0  0  0  0  0  0
   15.0270    4.6960   23.0530 C   0  0  0  0  0  0  0  0  0  0  0  0
   15.6310    3.6440   22.1830 C   0  0  0  0  0  0  0  0  0  0  0  0
   14.7420    2.4410   21.7640 C   0  0  0  0  0  0  0  0  0  0  0  0
   13.3690    2.3290   22.1990 C   0  0  0  0  0  0  0  0  0  0  0  0
   11.7250    1.2480   23.7880 S   0  0  0  0  0  0  0  0  0  0  0  0
   11.4350   -1.7600   23.1650 C   0  0  0  0  0  0  0  0  0  0  0  0
   11.1550   -1.9530   21.6990 C   0  0  0  0  0  0  0  0  0  0  0  0
   12.6000   -0.7320   23.1700 C   0  0  0  0  0  0  0  0  0  0  0  0
    6.9640   -3.6890   23.1840 C   0  0  0  0  0  0  0  0  0  0  0  0
    5.8470   -3.3910   22.4090 C   0  0  0  0  0  0  0  0  0  0  0  0
  1  2  1  0
  2  3  2  0
  2  4  1  0
  4  5  1  0
  5  6  1  0
  6  7  1  0
  7  8  1  0
  8  9  2  0
  8 10  1  0
 10 11  1  0
 11 12  1  0
 12 13  2  0
 13 14  1  0
 14 15  2  0
 15 16  1  0
 16 17  2  0
 17 18  1  0
 18 19  2  0
 19 20  1  0
 16 21  1  0
 20 21  2  0
 12 22  1  0
 15 22  1  0
 10 23  1  0
 23 24  1  0
 23 25  1  0
  7 26  1  0
  4 27  1  0
 26 27  1  0
M  END
