SAD-SAT-29425be4-14-chloroacetamide
     RDKit          3D

 22 23  0  0  0  0  0  0  0  0999 V2000
    7.2040   -2.9780   18.8130 C   0  0  0  0  0  0  0  0  0  0  0  0
    6.2830   -3.3360   19.9290 C   0  0  0  0  0  0  0  0  0  0  0  0
    5.4020   -4.1940   19.7880 O   0  0  0  0  0  0  0  0  0  0  0  0
    6.4850   -2.6600   21.1470 N   0  0  0  0  0  0  0  0  0  0  0  0
    6.1620   -3.3580   22.4160 C   0  0  0  0  0  0  0  0  0  0  0  0
    7.3960   -3.4760   23.3080 C   0  0  0  0  0  0  0  0  0  0  0  0
    8.1620   -2.1470   23.4010 C   0  0  0  0  0  0  0  0  0  0  0  0
    9.4020   -2.2850   24.2860 C   0  0  0  0  0  0  0  0  0  0  0  0
    9.4440   -3.1350   25.1720 O   0  0  0  0  0  0  0  0  0  0  0  0
   10.4780   -1.4240   24.0670 N   0  0  0  0  0  0  0  0  0  0  0  0
   10.5200   -0.1010   24.7540 C   0  0  0  0  0  0  0  0  0  0  0  0
   11.5470    0.7890   24.0820 C   0  0  0  0  0  0  0  0  0  0  0  0
   12.5780    1.1740   23.2590 C   0  0  0  0  0  0  0  0  0  0  0  0
   12.5380   -0.0220   22.9540 C   0  0  0  0  0  0  0  0  0  0  0  0
   13.1070   -0.7880   22.2110 C   0  0  0  0  0  0  0  0  0  0  0  0
   12.9420   -2.1600   21.9690 C   0  0  0  0  0  0  0  0  0  0  0  0
   13.4560   -2.8250   20.9070 C   0  0  0  0  0  0  0  0  0  0  0  0
   11.4240   -2.3290   21.8130 C   0  0  0  0  0  0  0  0  0  0  0  0
   13.3850   -2.7760   23.3040 C   0  0  0  0  0  0  0  0  0  0  0  0
   11.8150   -0.8790   23.3790 S   0  0  0  0  0  0  0  0  0  0  0  0
    8.5210   -1.7310   21.9720 C   0  0  0  0  0  0  0  0  0  0  0  0
    7.3440   -1.4630   21.2620 C   0  0  0  0  0  0  0  0  0  0  0  0
  1  2  1  0
  2  3  2  0
  2  4  1  0
  4  5  1  0
  5  6  1  0
  6  7  1  0
  7  8  1  0
  8  9  2  0
  8 10  1  0
 10 11  1  0
 11 12  1  0
 12 13  2  0
 13 14  1  0
 14 15  2  0
 15 16  1  0
 16 17  1  0
 16 18  1  0
 16 19  1  0
 12 20  1  0
 15 20  1  0
  7 21  1  0
  4 22  1  0
 21 22  1  0
M  END
