SAD-SAT-65574d3f-1-chloroacetamide
     RDKit          3D

 18 19  0  0  0  0  0  0  0  0999 V2000
    7.2280   -3.4230   19.9340 C   0  0  0  0  0  0  0  0  0  0  0  0
    6.3120   -4.4730   20.5470 C   0  0  0  0  0  0  0  0  0  0  0  0
    5.2820   -4.7330   19.9430 O   0  0  0  0  0  0  0  0  0  0  0  0
    6.5790   -5.1680   21.7310 N   0  0  0  0  0  0  0  0  0  0  0  0
    5.7110   -6.2320   22.1810 C   0  0  0  0  0  0  0  0  0  0  0  0
    4.6870   -5.7410   23.2010 C   0  0  0  0  0  0  0  0  0  0  0  0
    5.3170   -5.1870   24.2970 N   0  0  0  0  0  0  0  0  0  0  0  0
    4.7010   -4.9660   25.5630 C   0  0  0  0  0  0  0  0  0  0  0  0
    3.4950   -3.9970   25.5780 C   0  0  0  0  0  0  0  0  0  0  0  0
    3.5470   -2.5360   25.9810 C   0  0  0  0  0  0  0  0  0  0  0  0
    2.4060   -1.7180   25.9820 C   0  0  0  0  0  0  0  0  0  0  0  0
    2.6260   -0.3870   26.3740 C   0  0  0  0  0  0  0  0  0  0  0  0
    1.6340    0.5020   26.4310 C   0  0  0  0  0  0  0  0  0  0  0  0
    0.4380    0.0350   26.0930 C   0  0  0  0  0  0  0  0  0  0  0  0
    0.2170   -1.2870   25.7030 C   0  0  0  0  0  0  0  0  0  0  0  0
    1.1590   -2.3800   25.5810 C   0  0  0  0  0  0  0  0  0  0  0  0
    6.2690   -4.0800   23.9680 C   0  0  0  0  0  0  0  0  0  0  0  0
    7.2570   -4.5150   22.8490 C   0  0  0  0  0  0  0  0  0  0  0  0
  1  2  1  0
  2  3  2  0
  2  4  1  0
  4  5  1  0
  5  6  1  0
  6  7  1  0
  7  8  1  0
  8  9  1  0
  9 10  2  3
 10 11  1  0
 11 12  2  0
 12 13  1  0
 13 14  2  0
 14 15  1  0
 11 16  1  0
 15 16  2  0
  7 17  1  0
  4 18  1  0
 17 18  1  0
M  END
