SAD-SAT-29425be4-9-vinylsulfonamide
     RDKit          3D

 29 30  0  0  0  0  0  0  0  0999 V2000
    7.5500   -3.0190   18.8850 C   0  0  0  0  0  0  0  0  0  0  0  0
    7.0430   -3.0380   20.2840 C   0  0  0  0  0  0  0  0  0  0  0  0
    5.3310   -3.2720   20.0970 S   0  0  0  0  0  0  0  0  0  0  0  0
    5.1070   -4.6530   19.7910 O   0  0  0  0  0  0  0  0  0  0  0  0
    4.9000   -2.2290   19.2110 O   0  0  0  0  0  0  0  0  0  0  0  0
    4.7250   -2.9640   21.6480 N   0  0  0  0  0  0  0  0  0  0  0  0
    5.0660   -1.6560   22.2290 C   0  0  0  0  0  0  0  0  0  0  0  0
    6.4460   -1.8250   22.7810 C   0  0  0  0  0  0  0  0  0  0  0  0
    6.6580   -3.3300   22.9680 C   0  0  0  0  0  0  0  0  0  0  0  0
    7.8230   -3.4950   23.8340 C   0  0  0  0  0  0  0  0  0  0  0  0
    8.0640   -4.5660   24.3990 O   0  0  0  0  0  0  0  0  0  0  0  0
    8.5730   -2.3810   23.9690 N   0  0  0  0  0  0  0  0  0  0  0  0
    9.7960   -2.5900   24.6680 C   0  0  0  0  0  0  0  0  0  0  0  0
   10.7300   -1.5680   24.2320 C   0  0  0  0  0  0  0  0  0  0  0  0
   10.7440   -0.2860   24.7150 C   0  0  0  0  0  0  0  0  0  0  0  0
   11.6700    0.6920   24.2930 C   0  0  0  0  0  0  0  0  0  0  0  0
   12.5430    0.3410   23.4150 C   0  0  0  0  0  0  0  0  0  0  0  0
   12.6440   -0.9020   22.8260 C   0  0  0  0  0  0  0  0  0  0  0  0
   13.6470   -0.9150   21.9970 C   0  0  0  0  0  0  0  0  0  0  0  0
   13.7310   -1.0650   20.6370 C   0  0  0  0  0  0  0  0  0  0  0  0
   13.2540   -2.3210   20.4260 O   0  0  0  0  0  0  0  0  0  0  0  0
   14.2900    0.1190   19.9600 O   0  0  0  0  0  0  0  0  0  0  0  0
   15.1100    0.6870   18.7590 C   0  0  0  0  0  0  0  0  0  0  0  0
   15.0810    2.0690   18.8980 C   0  0  0  0  0  0  0  0  0  0  0  0
   16.5630    0.4910   18.6090 C   0  0  0  0  0  0  0  0  0  0  0  0
   14.7430    0.4290   17.3320 C   0  0  0  0  0  0  0  0  0  0  0  0
   11.7880   -1.9100   23.1620 C   0  0  0  0  0  0  0  0  0  0  0  0
    5.4770   -4.0490   23.6050 C   0  0  0  0  0  0  0  0  0  0  0  0
    4.4110   -4.0570   22.5770 C   0  0  0  0  0  0  0  0  0  0  0  0
  1  2  1  0
  3  2  1  0
  3  4  2  0
  3  5  2  0
  3  6  1  0
  6  7  1  0
  7  8  1  0
  8  9  1  0
  9 10  1  0
 10 11  2  0
 10 12  1  0
 12 13  1  0
 13 14  1  0
 14 15  2  0
 15 16  1  0
 16 17  2  0
 17 18  1  0
 18 19  1  0
 19 20  1  0
 20 21  2  0
 20 22  1  0
 23 22  1  0
 23 24  1  0
 23 25  1  0
 23 26  1  0
 14 27  1  0
 18 27  2  0
  9 28  1  0
  6 29  1  0
 28 29  1  0
M  END
