SAD-SAT-29425be4-13-acrylamide
     RDKit          3D

 27 28  0  0  0  0  0  0  0  0999 V2000
    7.9340   -3.2800   19.1220 C   0  0  0  0  0  0  0  0  0  0  0  0
    6.7420   -2.4080   18.9340 C   0  0  0  0  0  0  0  0  0  0  0  0
    5.7700   -2.7970   19.9860 C   0  0  0  0  0  0  0  0  0  0  0  0
    4.8930   -3.5920   19.6730 O   0  0  0  0  0  0  0  0  0  0  0  0
    5.9870   -2.3040   21.2710 N   0  0  0  0  0  0  0  0  0  0  0  0
    5.8860   -3.2700   22.3660 C   0  0  0  0  0  0  0  0  0  0  0  0
    6.8560   -3.0050   23.5250 C   0  0  0  0  0  0  0  0  0  0  0  0
    8.2730   -2.6800   23.0710 C   0  0  0  0  0  0  0  0  0  0  0  0
    9.1010   -2.2590   24.2830 C   0  0  0  0  0  0  0  0  0  0  0  0
    8.9320   -2.8190   25.3600 O   0  0  0  0  0  0  0  0  0  0  0  0
   10.0110   -1.2380   24.0950 N   0  0  0  0  0  0  0  0  0  0  0  0
    9.9610    0.0240   24.8500 C   0  0  1  0  0  0  0  0  0  0  0  0
   10.8120    0.9250   24.2460 C   0  0  0  0  0  0  0  0  0  0  0  0
   11.1250   -0.5250   23.9490 C   0  0  0  0  0  0  0  0  0  0  0  0
   12.1880   -1.0570   23.1170 C   0  0  0  0  0  0  0  0  0  0  0  0
   13.1690   -0.3050   22.3970 C   0  0  0  0  0  0  0  0  0  0  0  0
   13.5920   -1.5030   22.0370 C   0  0  0  0  0  0  0  0  0  0  0  0
   12.6980   -2.4890   21.8800 C   0  0  0  0  0  0  0  0  0  0  0  0
   11.3450   -2.2560   21.6880 C   0  0  0  0  0  0  0  0  0  0  0  0
   13.3540   -3.1500   20.7170 C   0  0  0  0  0  0  0  0  0  0  0  0
   12.2640    0.1690   23.1090 C   0  0  0  0  0  0  0  0  0  0  0  0
   11.8590    1.2860   23.4680 C   0  0  0  0  0  0  0  0  0  0  0  0
    8.5080    0.5370   25.0200 C   0  0  0  0  0  0  0  0  0  0  0  0
    7.6460    0.4640   23.7720 C   0  0  0  0  0  0  0  0  0  0  0  0
    7.8130   -0.1680   26.1840 C   0  0  0  0  0  0  0  0  0  0  0  0
    8.3380   -1.6590   21.9260 C   0  0  0  0  0  0  0  0  0  0  0  0
    6.9640   -1.2080   21.4220 C   0  0  0  0  0  0  0  0  0  0  0  0
  1  2  1  0
  2  3  1  0
  3  4  2  0
  3  5  1  0
  5  6  1  0
  6  7  1  0
  7  8  1  0
  8  9  1  0
  9 10  2  0
  9 11  1  0
 12 11  1  6
 12 13  1  0
 13 14  2  0
 14 15  1  0
 15 16  2  0
 16 17  1  0
 17 18  1  0
 18 19  1  0
 18 20  1  0
 16 21  1  0
 13 22  1  0
 21 22  2  0
 12 23  1  0
 23 24  1  0
 23 25  1  0
  8 26  1  0
  5 27  1  0
 26 27  1  0
M  END
