SAG-UNI-75aa781c-1
     RDKit          3D

 28 30  0  0  0  0  0  0  0  0999 V2000
    4.7110    0.0590   25.5210 C   0  0  0  0  0  0  0  0  0  0  0  0
    4.0070   -1.2630   25.2710 C   0  0  0  0  0  0  0  0  0  0  0  0
    4.6660   -2.1890   24.5350 N   0  0  0  0  0  0  0  0  0  0  0  0
    5.9880   -1.9820   24.1780 C   0  0  0  0  0  0  0  0  0  0  0  0
    6.7690   -1.3490   24.8940 O   0  0  0  0  0  0  0  0  0  0  0  0
    6.4000   -2.5440   22.9620 C   0  0  2  0  0  0  0  0  0  0  0  0
    7.1340   -3.7240   23.0650 C   0  0  0  0  0  0  0  0  0  0  0  0
    6.3920   -4.8860   22.8590 C   0  0  1  0  0  0  0  0  0  0  0  0
    7.2190   -5.8770   22.2130 C   0  0  0  0  0  0  0  0  0  0  0  0
    6.3730   -6.9030   22.6810 C   0  0  0  0  0  0  0  0  0  0  0  0
    5.2400   -6.6130   23.5120 N   0  0  0  0  0  0  0  0  0  0  0  0
    5.8140   -5.4080   24.0090 C   0  0  0  0  0  0  0  0  0  0  0  0
    5.7790   -5.0010   25.1630 O   0  0  0  0  0  0  0  0  0  0  0  0
    7.0440   -1.6260   22.1550 N   0  0  0  0  0  0  0  0  0  0  0  0
    6.4880   -1.4580   20.9280 C   0  0  0  0  0  0  0  0  0  0  0  0
    5.7010   -0.3590   20.6390 C   0  0  1  0  0  0  0  0  0  0  0  0
    4.4780   -0.1650   21.4380 C   0  0  0  0  0  0  0  0  0  0  0  0
    4.4640    1.0540   22.2760 C   0  0  2  0  0  0  0  0  0  0  0  0
    3.1370    1.6980   22.7210 C   0  0  0  0  0  0  0  0  0  0  0  0
    2.0020    1.2620   22.0990 N   0  0  0  0  0  0  0  0  0  0  0  0
    3.0530    2.5660   23.5840 O   0  0  0  0  0  0  0  0  0  0  0  0
    5.3240    1.9210   21.3460 C   0  0  2  0  0  0  0  0  0  0  0  0
    4.7270    2.6030   20.3250 C   0  0  2  0  0  0  0  0  0  0  0  0
    3.3910    2.9540   20.2270 C   0  0  0  0  0  0  0  0  0  0  0  0
    2.9060    3.5300   19.0470 C   0  0  0  0  0  0  0  0  0  0  0  0
    4.2500    3.1710   17.8850 S   0  0  0  0  0  0  0  0  0  0  0  0
    4.9820    1.9480   18.9770 C   0  0  0  0  0  0  0  0  0  0  0  0
    6.4450    0.9650   20.8840 C   0  0  0  0  0  0  0  0  0  0  0  0
  1  2  1  0
  2  3  1  0
  3  4  1  0
  4  5  2  0
  4  6  1  0
  6  7  1  1
  8  7  1  1
  8  9  1  0
  9 10  2  0
 10 11  1  0
  8 12  1  0
 11 12  1  0
 12 13  2  0
  6 14  1  0
 14 15  1  0
 16 15  1  1
 16 17  1  0
 17 18  1  0
 18 19  1  6
 19 20  1  0
 19 21  2  0
 18 22  1  0
 22 23  1  0
 23 24  1  1
 24 25  1  0
 25 26  1  0
 23 27  1  0
 26 27  1  0
 16 28  1  0
 22 28  1  6
M  END
