SAG-UNI-75aa781c-3
     RDKit          3D

 29 31  0  0  0  0  0  0  0  0999 V2000
    5.3330   -6.7030   23.0520 C   0  0  0  0  0  0  0  0  0  0  0  0
    6.4120   -6.0720   22.2020 C   0  0  0  0  0  0  0  0  0  0  0  0
    7.5960   -6.3730   22.2800 O   0  0  0  0  0  0  0  0  0  0  0  0
    6.0300   -5.1290   21.3270 N   0  0  0  0  0  0  0  0  0  0  0  0
    6.8380   -4.0350   21.1710 C   0  0  0  0  0  0  0  0  0  0  0  0
    8.0590   -4.0810   21.2500 O   0  0  0  0  0  0  0  0  0  0  0  0
    6.1840   -2.8440   20.9430 C   0  0  1  0  0  0  0  0  0  0  0  0
    5.9160   -2.1980   22.1490 C   0  0  0  0  0  0  0  0  0  0  0  0
    5.6870   -3.0070   23.2830 C   0  0  2  0  0  0  0  0  0  0  0  0
    6.8130   -3.7760   23.7570 C   0  0  0  0  0  0  0  0  0  0  0  0
    5.9970   -4.4850   24.7200 C   0  0  0  0  0  0  0  0  0  0  0  0
    4.5870   -4.1400   24.6930 N   0  0  0  0  0  0  0  0  0  0  0  0
    4.5500   -3.7610   23.3230 C   0  0  0  0  0  0  0  0  0  0  0  0
    3.7240   -4.0550   22.4780 O   0  0  0  0  0  0  0  0  0  0  0  0
    7.0340   -2.0540   20.1800 N   0  0  0  0  0  0  0  0  0  0  0  0
    6.4460   -1.2560   19.2430 C   0  0  0  0  0  0  0  0  0  0  0  0
    6.1030    0.0560   19.5580 C   0  0  2  0  0  0  0  0  0  0  0  0
    5.2200    0.2610   20.7020 C   0  0  0  0  0  0  0  0  0  0  0  0
    4.5710    1.5910   20.7350 C   0  0  2  0  0  0  0  0  0  0  0  0
    3.1240    1.7430   21.2050 C   0  0  0  0  0  0  0  0  0  0  0  0
    2.9580    2.4060   22.3840 N   0  0  0  0  0  0  0  0  0  0  0  0
    2.1460    1.3160   20.5990 O   0  0  0  0  0  0  0  0  0  0  0  0
    4.7410    2.0620   19.2940 C   0  0  2  0  0  0  0  0  0  0  0  0
    3.6620    2.6700   18.7010 C   0  0  1  0  0  0  0  0  0  0  0  0
    2.7690    3.5590   19.2900 C   0  0  0  0  0  0  0  0  0  0  0  0
    2.0110    4.4870   18.5520 C   0  0  0  0  0  0  0  0  0  0  0  0
    2.8780    4.6190   16.9720 S   0  0  0  0  0  0  0  0  0  0  0  0
    4.1470    3.4110   17.4660 C   0  0  0  0  0  0  0  0  0  0  0  0
    5.3670    0.8760   18.4890 C   0  0  0  0  0  0  0  0  0  0  0  0
  1  2  1  0
  2  3  2  0
  2  4  1  0
  4  5  1  0
  5  6  2  0
  5  7  1  0
  7  8  1  1
  9  8  1  6
  9 10  1  0
 10 11  2  0
 11 12  1  0
  9 13  1  0
 12 13  1  0
 13 14  2  0
  7 15  1  0
 15 16  1  0
 17 16  1  6
 17 18  1  0
 18 19  1  0
 19 20  1  6
 20 21  1  0
 20 22  2  0
 19 23  1  0
 23 24  1  0
 24 25  1  1
 25 26  1  0
 26 27  1  0
 24 28  1  0
 27 28  1  0
 17 29  1  0
 23 29  1  6
M  END
