SAL-INS-1c7a5a55-5-nitrile
     RDKit          3D

 25 28  0  0  0  0  0  0  0  0999 V2000
    6.9280   -3.3810   19.7900 C   0  0  0  0  0  0  0  0  0  0  0  0
    5.8510   -3.2910   19.1260 N   0  0  0  0  0  0  0  0  0  0  0  0
    7.1060   -2.7350   21.0220 N   0  0  0  0  0  0  0  0  0  0  0  0
    6.3930   -3.0820   22.2320 C   0  0  0  0  0  0  0  0  0  0  0  0
    7.4000   -3.5190   23.3120 C   0  0  0  0  0  0  0  0  0  0  0  0
    6.7760   -4.3320   24.4480 C   0  0  0  0  0  0  0  0  0  0  0  0
    7.6750   -4.7440   25.4380 C   0  0  0  0  0  0  0  0  0  0  0  0
    7.1870   -5.4820   26.5250 C   0  0  0  0  0  0  0  0  0  0  0  0
    5.8230   -5.8210   26.6660 N   0  0  0  0  0  0  0  0  0  0  0  0
    5.2060   -6.0860   25.6290 O   0  0  0  0  0  0  0  0  0  0  0  0
    5.2910   -5.5810   27.7570 O   0  0  0  0  0  0  0  0  0  0  0  0
    8.0730   -5.9730   27.6430 C   0  0  0  0  0  0  0  0  0  0  0  0
    9.5140   -5.6000   27.4690 C   0  0  0  0  0  0  0  0  0  0  0  0
    9.9510   -4.8590   26.3570 C   0  0  0  0  0  0  0  0  0  0  0  0
    9.0630   -4.4300   25.3660 C   0  0  0  0  0  0  0  0  0  0  0  0
    9.5800   -3.6780   24.3080 C   0  0  0  0  0  0  0  0  0  0  0  0
    8.7590   -3.2120   23.2800 C   0  0  0  0  0  0  0  0  0  0  0  0
    9.2850   -2.4450   22.2280 C   0  0  2  0  0  0  0  0  0  0  0  0
   10.2770   -1.4190   22.7030 C   0  0  0  0  0  0  0  0  0  0  0  0
    9.8760   -0.4470   23.6390 C   0  0  0  0  0  0  0  0  0  0  0  0
   10.7320    0.5550   24.1340 C   0  0  0  0  0  0  0  0  0  0  0  0
   12.0670    0.6320   23.7070 C   0  0  0  0  0  0  0  0  0  0  0  0
   12.5860   -0.3880   22.6980 C   0  0  0  0  0  0  0  0  0  0  0  0
   11.5950   -1.4360   22.2120 C   0  0  0  0  0  0  0  0  0  0  0  0
    8.1830   -1.7730   21.3480 C   0  0  0  0  0  0  0  0  0  0  0  0
  1  2  2  3
  1  3  1  0
  3  4  1  0
  4  5  1  0
  5  6  1  0
  6  7  2  0
  7  8  1  0
  8  9  1  0
  9 10  2  0
  9 11  1  0
  8 12  2  0
 12 13  1  0
 13 14  2  0
  7 15  1  0
 14 15  1  0
 15 16  2  0
  5 17  2  0
 16 17  1  0
 17 18  1  0
 18 19  1  1
 19 20  2  0
 20 21  1  0
 21 22  2  0
 22 23  1  0
 19 24  1  0
 23 24  2  0
  3 25  1  0
 18 25  1  0
M  CHG  2   9   1  11  -1
M  END
