SAL-INS-1c7a5a55-4-chloroacetamide
     RDKit          3D

 27 30  0  0  0  0  0  0  0  0999 V2000
    7.4980   -2.9950   18.7090 C   0  0  0  0  0  0  0  0  0  0  0  0
    6.6690   -3.3410   19.9040 C   0  0  0  0  0  0  0  0  0  0  0  0
    5.6950   -4.1240   19.8000 O   0  0  0  0  0  0  0  0  0  0  0  0
    6.9660   -2.8380   21.1400 N   0  0  0  0  0  0  0  0  0  0  0  0
    6.1810   -2.8350   22.2440 C   0  0  0  0  0  0  0  0  0  0  0  0
    6.9970   -3.1380   23.4790 C   0  0  0  0  0  0  0  0  0  0  0  0
    6.4020   -4.0230   24.3650 C   0  0  0  0  0  0  0  0  0  0  0  0
    7.0870   -4.3310   25.5270 C   0  0  0  0  0  0  0  0  0  0  0  0
    6.4730   -5.2820   26.5420 C   0  0  0  0  0  0  0  0  0  0  0  0
    5.2640   -5.5020   26.5950 O   0  0  0  0  0  0  0  0  0  0  0  0
    7.5400   -5.8300   27.3680 N   0  0  0  0  0  0  0  0  0  0  0  0
    7.4060   -5.3430   28.7500 C   0  0  0  0  0  0  0  0  0  0  0  0
    8.7800   -5.4460   26.7320 C   0  0  0  0  0  0  0  0  0  0  0  0
    9.8520   -5.0210   27.4740 C   0  0  0  0  0  0  0  0  0  0  0  0
   10.8140   -4.7060   26.5640 N   0  0  0  0  0  0  0  0  0  0  0  0
   10.2870   -4.9620   25.3380 C   0  0  0  0  0  0  0  0  0  0  0  0
    9.0660   -5.4140   25.3990 N   0  0  0  0  0  0  0  0  0  0  0  0
    8.3560   -3.7790   25.8030 C   0  0  0  0  0  0  0  0  0  0  0  0
    8.9990   -2.8880   24.9270 C   0  0  0  0  0  0  0  0  0  0  0  0
    8.2280   -2.5610   23.6900 C   0  0  0  0  0  0  0  0  0  0  0  0
    8.6550   -1.6830   22.7130 C   0  0  1  0  0  0  0  0  0  0  0  0
    9.9270   -1.0850   22.8900 C   0  0  0  0  0  0  0  0  0  0  0  0
   10.2070   -0.0270   23.7000 C   0  0  0  0  0  0  0  0  0  0  0  0
   11.4850    0.3960   23.7220 N   0  0  0  0  0  0  0  0  0  0  0  0
   11.8720   -0.6170   22.7830 C   0  0  0  0  0  0  0  0  0  0  0  0
   11.0060   -1.4870   22.2840 N   0  0  0  0  0  0  0  0  0  0  0  0
    8.3800   -2.3210   21.3300 C   0  0  0  0  0  0  0  0  0  0  0  0
  1  2  1  0
  2  3  2  0
  2  4  1  0
  4  5  1  0
  5  6  1  0
  6  7  1  0
  7  8  2  0
  8  9  1  0
  9 10  2  0
  9 11  1  0
 11 12  1  0
 11 13  1  0
 13 14  2  0
 14 15  1  0
 15 16  1  0
 13 17  1  0
 16 17  2  0
  8 18  1  0
 18 19  2  0
  6 20  2  0
 19 20  1  0
 20 21  1  0
 21 22  1  1
 22 23  2  0
 23 24  1  0
 24 25  1  0
 22 26  1  0
 25 26  2  0
  4 27  1  0
 21 27  1  0
M  END
