SAL-INS-1c7a5a55-7-vinylsulfonamide
     RDKit          3D

 27 29  0  0  0  0  0  0  0  0999 V2000
    6.9270   -4.0780   20.0850 C   0  0  0  0  0  0  0  0  0  0  0  0
    6.3640   -2.7100   20.1270 C   0  0  0  0  0  0  0  0  0  0  0  0
    5.6090   -2.4880   21.6840 S   0  0  0  0  0  0  0  0  0  0  0  0
    4.7400   -3.6100   21.9870 O   0  0  0  0  0  0  0  0  0  0  0  0
    5.0960   -1.1860   21.4320 O   0  0  0  0  0  0  0  0  0  0  0  0
    6.6910   -2.0710   22.9030 N   0  0  0  0  0  0  0  0  0  0  0  0
    7.4780   -2.9170   23.6450 C   0  0  0  0  0  0  0  0  0  0  0  0
    6.8210   -3.7660   24.7480 C   0  0  0  0  0  0  0  0  0  0  0  0
    7.6330   -4.5830   25.5510 C   0  0  0  0  0  0  0  0  0  0  0  0
    9.0270   -4.5920   25.3280 C   0  0  0  0  0  0  0  0  0  0  0  0
    9.9480   -5.4480   26.1910 C   0  0  0  0  0  0  0  0  0  0  0  0
    9.5980   -3.8090   24.3000 C   0  0  0  0  0  0  0  0  0  0  0  0
    8.8530   -2.9840   23.4430 C   0  0  0  0  0  0  0  0  0  0  0  0
    9.4590   -2.2470   22.4170 C   0  0  0  0  0  0  0  0  0  0  0  0
   10.4070   -1.3250   22.8100 C   0  0  0  0  0  0  0  0  0  0  0  0
   11.7180   -1.3330   22.3510 C   0  0  0  0  0  0  0  0  0  0  0  0
   12.6320   -0.3730   22.7600 C   0  0  0  0  0  0  0  0  0  0  0  0
   12.1300    0.6680   23.7180 C   0  0  0  0  0  0  0  0  0  0  0  0
   10.8010    0.5740   24.1160 C   0  0  0  0  0  0  0  0  0  0  0  0
    9.9040   -0.4010   23.6930 C   0  0  0  0  0  0  0  0  0  0  0  0
    6.3140   -0.8620   23.6580 C   0  0  1  0  0  0  0  0  0  0  0  0
    4.7900   -0.7690   23.8240 C   0  0  0  0  0  0  0  0  0  0  0  0
    4.3170   -0.2320   25.1650 C   0  0  0  0  0  0  0  0  0  0  0  0
    5.7110    0.1190   26.1220 S   0  0  0  0  0  0  0  0  0  0  0  0
    5.9910    1.5370   26.0400 O   0  0  0  0  0  0  0  0  0  0  0  0
    5.6020   -0.5710   27.3880 O   0  0  0  0  0  0  0  0  0  0  0  0
    6.9080   -0.7440   25.0810 C   0  0  0  0  0  0  0  0  0  0  0  0
  1  2  1  0
  2  3  1  0
  3  4  2  0
  3  5  2  0
  3  6  1  0
  6  7  1  0
  7  8  2  0
  8  9  1  0
  9 10  2  0
 10 11  1  0
 10 12  1  0
  7 13  1  0
 12 13  2  0
 13 14  1  0
 14 15  1  0
 15 16  2  0
 16 17  1  0
 17 18  2  0
 18 19  1  0
 15 20  1  0
 19 20  2  0
 21  6  1  1
 21 22  1  0
 22 23  2  0
 24 23  1  0
 24 25  2  0
 24 26  2  0
 21 27  1  0
 24 27  1  0
M  END
