SAL-INS-1c7a5a55-3-acrylamide
     RDKit          3D

 26 28  0  0  0  0  0  0  0  0999 V2000
    7.2540   -4.0170   20.4120 C   0  0  0  0  0  0  0  0  0  0  0  0
    6.1870   -2.9270   20.2750 C   0  0  0  0  0  0  0  0  0  0  0  0
    5.6170   -2.7740   21.6480 C   0  0  0  0  0  0  0  0  0  0  0  0
    4.4940   -3.1850   21.9250 O   0  0  0  0  0  0  0  0  0  0  0  0
    6.4300   -2.2200   22.6110 N   0  0  0  0  0  0  0  0  0  0  0  0
    7.8680   -2.5130   22.4870 C   0  0  0  0  0  0  0  0  0  0  0  0
    7.6800   -2.8050   23.7670 C   0  0  0  0  0  0  0  0  0  0  0  0
    7.2220   -3.4680   24.9390 C   0  0  0  0  0  0  0  0  0  0  0  0
    6.3630   -4.7210   25.0370 C   0  0  0  0  0  0  0  0  0  0  0  0
    5.9810   -5.1550   26.4230 C   0  0  0  0  0  0  0  0  0  0  0  0
    5.2700   -6.1570   26.5180 O   0  0  0  0  0  0  0  0  0  0  0  0
    6.4240   -4.3920   27.4990 N   0  0  0  0  0  0  0  0  0  0  0  0
    5.8160   -3.0790   27.7020 C   0  0  0  0  0  0  0  0  0  0  0  0
    7.2310   -4.9520   28.5720 C   0  0  0  0  0  0  0  0  0  0  0  0
    6.9870   -6.2990   28.7510 C   0  0  0  0  0  0  0  0  0  0  0  0
    8.7150   -4.7550   28.2480 C   0  0  0  0  0  0  0  0  0  0  0  0
    5.9530   -5.4130   23.9380 C   0  0  0  0  0  0  0  0  0  0  0  0
    6.3040   -5.0230   22.5350 C   0  0  0  0  0  0  0  0  0  0  0  0
    7.0370   -3.8630   22.9640 C   0  0  0  0  0  0  0  0  0  0  0  0
    6.8130   -4.0090   24.2350 C   0  0  1  0  0  0  0  0  0  0  0  0
    8.0570   -4.1760   24.9390 C   0  0  0  0  0  0  0  0  0  0  0  0
    9.1910   -3.1810   25.1000 C   0  0  0  0  0  0  0  0  0  0  0  0
   10.1840   -3.7010   25.7970 N   0  0  0  0  0  0  0  0  0  0  0  0
    9.7380   -4.9840   26.0960 C   0  0  0  0  0  0  0  0  0  0  0  0
    8.5140   -5.2830   25.6090 N   0  0  0  0  0  0  0  0  0  0  0  0
    6.1810   -2.5740   24.0860 C   0  0  0  0  0  0  0  0  0  0  0  0
  1  2  1  0
  2  3  1  0
  3  4  2  0
  3  5  1  0
  5  6  1  0
  6  7  1  0
  7  8  1  0
  8  9  2  0
  9 10  1  0
 10 11  2  0
 10 12  1  0
 12 13  1  0
 12 14  1  0
 14 15  1  0
 14 16  1  0
  9 17  1  0
 17 18  2  0
  7 19  2  0
 18 19  1  0
 19 20  1  0
 20 21  1  1
 21 22  2  0
 22 23  1  0
 23 24  1  0
 21 25  1  0
 24 25  2  0
  5 26  1  0
 20 26  1  0
M  END
