SAL-INS-1c7a5a55-2-chloroacetamide
     RDKit          3D

 28 31  0  0  0  0  0  0  0  0999 V2000
    7.5010   -3.0390   18.7700 C   0  0  0  0  0  0  0  0  0  0  0  0
    6.6660   -3.3870   19.9780 C   0  0  0  0  0  0  0  0  0  0  0  0
    5.6820   -4.1570   19.8430 O   0  0  0  0  0  0  0  0  0  0  0  0
    7.0150   -2.8920   21.2270 N   0  0  0  0  0  0  0  0  0  0  0  0
    6.3760   -2.9310   22.4620 C   0  0  0  0  0  0  0  0  0  0  0  0
    7.3690   -3.4160   23.5290 C   0  0  0  0  0  0  0  0  0  0  0  0
    6.9470   -4.3750   24.4440 C   0  0  0  0  0  0  0  0  0  0  0  0
    7.8800   -4.8130   25.4040 C   0  0  0  0  0  0  0  0  0  0  0  0
    7.4740   -5.7970   26.4860 C   0  0  0  0  0  0  0  0  0  0  0  0
    8.3190   -6.4520   27.0690 O   0  0  0  0  0  0  0  0  0  0  0  0
    6.0020   -5.7840   26.7370 N   0  0  0  0  0  0  0  0  0  0  0  0
    5.3680   -4.4460   26.5550 C   0  0  0  0  0  0  0  0  0  0  0  0
    5.4990   -6.5220   27.8870 C   0  0  0  0  0  0  0  0  0  0  0  0
    6.2560   -6.5900   29.0390 C   0  0  0  0  0  0  0  0  0  0  0  0
    5.5280   -7.3390   29.9210 N   0  0  0  0  0  0  0  0  0  0  0  0
    4.3720   -7.6870   29.2650 C   0  0  0  0  0  0  0  0  0  0  0  0
    4.3290   -7.2040   28.0360 N   0  0  0  0  0  0  0  0  0  0  0  0
    9.1960   -4.3590   25.4300 C   0  0  0  0  0  0  0  0  0  0  0  0
    9.6570   -3.3910   24.5450 C   0  0  0  0  0  0  0  0  0  0  0  0
    8.6380   -2.9040   23.5740 C   0  0  0  0  0  0  0  0  0  0  0  0
    8.8710   -1.9120   22.6800 C   0  0  1  0  0  0  0  0  0  0  0  0
   10.0890   -1.2320   22.8040 C   0  0  0  0  0  0  0  0  0  0  0  0
   11.2950   -1.6350   22.1770 C   0  0  0  0  0  0  0  0  0  0  0  0
   12.5750   -0.8010   22.3980 C   0  0  0  0  0  0  0  0  0  0  0  0
   12.4720    0.4300   23.2880 C   0  0  0  0  0  0  0  0  0  0  0  0
   11.1050    0.7400   23.9000 C   0  0  0  0  0  0  0  0  0  0  0  0
   10.0210   -0.0840   23.6330 C   0  0  0  0  0  0  0  0  0  0  0  0
    8.4350   -2.3740   21.2960 C   0  0  0  0  0  0  0  0  0  0  0  0
  1  2  1  0
  2  3  2  0
  2  4  1  0
  4  5  1  0
  5  6  1  0
  6  7  1  0
  7  8  2  0
  8  9  1  0
  9 10  2  0
  9 11  1  0
 11 12  1  0
 11 13  1  0
 13 14  2  0
 14 15  1  0
 15 16  1  0
 13 17  1  0
 16 17  2  0
  8 18  1  0
 18 19  2  0
  6 20  2  0
 19 20  1  0
 20 21  1  0
 21 22  1  6
 22 23  2  0
 23 24  1  0
 24 25  2  0
 25 26  1  0
 22 27  1  0
 26 27  2  0
  4 28  1  0
 21 28  1  0
M  END
