SAL-INS-3161d1be-3
     RDKit          3D

 26 29  0  0  0  0  0  0  0  0999 V2000
    8.6310    1.0890   21.0560 O   0  0  0  0  0  0  0  0  0  0  0  0
    8.1960   -0.0360   21.3630 C   0  0  0  0  0  0  0  0  0  0  0  0
    7.1650   -0.6980   20.7560 N   0  0  0  0  0  0  0  0  0  0  0  0
    6.3580   -0.0060   19.9230 C   0  0  0  0  0  0  0  0  0  0  0  0
    5.0880    0.3200   20.3510 C   0  0  0  0  0  0  0  0  0  0  0  0
    4.2490    1.0490   19.4870 C   0  0  0  0  0  0  0  0  0  0  0  0
    4.8140    1.4220   18.1510 N   0  0  0  0  0  0  0  0  0  0  0  0
    6.0670    1.0800   17.7710 C   0  0  0  0  0  0  0  0  0  0  0  0
    6.8620    0.3710   18.6270 N   0  0  0  0  0  0  0  0  0  0  0  0
    8.7030   -0.8130   22.3880 N   0  0  0  0  0  0  0  0  0  0  0  0
    9.8800   -0.3290   23.0740 C   0  0  0  0  0  0  0  0  0  0  0  0
   11.4600   -0.6470   22.5660 S   0  0  0  0  0  0  0  0  0  0  0  0
   12.5470    0.2180   23.6960 C   0  0  0  0  0  0  0  0  0  0  0  0
   13.2410   -0.4900   22.6800 C   0  0  0  0  0  0  0  0  0  0  0  0
   12.1420   -0.9700   22.1220 C   0  0  0  0  0  0  0  0  0  0  0  0
   11.0130   -0.3900   22.9810 N   0  0  0  0  0  0  0  0  0  0  0  0
   11.3650    0.5250   24.1990 C   0  0  0  0  0  0  0  0  0  0  0  0
   10.0220    0.4080   24.1230 C   0  0  0  0  0  0  0  0  0  0  0  0
    9.0650    0.9550   24.9510 C   0  0  0  0  0  0  0  0  0  0  0  0
    8.3420   -0.0340   25.6460 C   0  0  2  0  0  0  0  0  0  0  0  0
    6.9760    0.2220   25.7750 C   0  0  0  0  0  0  0  0  0  0  0  0
    6.5080   -0.0950   27.0730 C   0  0  0  0  0  0  0  0  0  0  0  0
    6.9670   -1.5380   27.4220 C   0  0  2  0  0  0  0  0  0  0  0  0
    6.7260   -2.0400   28.6700 O   0  0  0  0  0  0  0  0  0  0  0  0
    8.3500   -1.6610   27.3040 C   0  0  0  0  0  0  0  0  0  0  0  0
    8.9350   -0.4810   26.8350 C   0  0  0  0  0  0  0  0  0  0  0  0
  1  2  2  0
  2  3  1  0
  3  4  1  0
  4  5  2  0
  5  6  1  0
  6  7  2  0
  7  8  1  0
  4  9  1  0
  8  9  2  0
  2 10  1  0
 10 11  1  0
 11 12  1  0
 12 13  1  0
 13 14  1  0
 14 15  2  0
 15 16  1  0
 13 17  2  0
 16 17  1  0
 11 18  2  0
 17 18  1  0
 18 19  1  0
 20 19  1  1
 20 21  1  0
 21 22  1  0
 22 23  1  0
 23 24  1  1
 23 25  1  0
 20 26  1  0
 25 26  1  0
M  END
