SAL-INS-68b48d12-12
     RDKit          3D

 38 38  0  0  0  0  0  0  0  0999 V2000
   13.3670    4.8030   20.3340 C   0  0  0  0  0  0  0  0  0  0  0  0
   12.7770    4.0310   21.5020 C   0  0  0  0  0  0  0  0  0  0  0  0
   13.3560    3.0830   22.0130 O   0  0  0  0  0  0  0  0  0  0  0  0
   11.5520    4.4830   21.9160 N   0  0  0  0  0  0  0  0  0  0  0  0
   10.8280    3.9120   23.0540 C   0  0  1  0  0  0  0  0  0  0  0  0
    9.5800    4.7190   23.3890 C   0  0  0  0  0  0  0  0  0  0  0  0
    9.6260    5.9980   22.7380 O   0  0  0  0  0  0  0  0  0  0  0  0
   10.4930    2.4370   22.7100 C   0  0  0  0  0  0  0  0  0  0  0  0
   11.3910    1.6080   22.6420 O   0  0  0  0  0  0  0  0  0  0  0  0
    9.1580    2.1240   22.4730 N   0  0  0  0  0  0  0  0  0  0  0  0
    8.5920    0.7640   22.6020 C   0  0  1  0  0  0  0  0  0  0  0  0
    9.2820   -0.2000   23.3380 C   0  0  0  0  0  0  0  0  0  0  0  0
   10.6010   -0.5060   23.1030 C   0  0  0  0  0  0  0  0  0  0  0  0
   11.6540    0.1560   23.7420 C   0  0  0  0  0  0  0  0  0  0  0  0
   12.8000   -0.3780   23.3120 C   0  0  0  0  0  0  0  0  0  0  0  0
   13.3200   -1.3010   22.5060 C   0  0  0  0  0  0  0  0  0  0  0  0
   12.3440   -1.9760   21.8460 C   0  0  0  0  0  0  0  0  0  0  0  0
   10.9030   -1.5550   22.1660 C   0  0  0  0  0  0  0  0  0  0  0  0
    7.2110    0.7810   23.2970 C   0  0  0  0  0  0  0  0  0  0  0  0
    6.8700   -0.1860   23.9720 O   0  0  0  0  0  0  0  0  0  0  0  0
    6.3870    1.8720   23.1140 N   0  0  0  0  0  0  0  0  0  0  0  0
    4.9960    1.8320   23.6010 C   0  0  2  0  0  0  0  0  0  0  0  0
    4.0440    1.1750   22.5800 C   0  0  0  0  0  0  0  0  0  0  0  0
    2.9010    0.6040   23.2190 O   0  0  0  0  0  0  0  0  0  0  0  0
    4.5090    3.2660   23.8900 C   0  0  0  0  0  0  0  0  0  0  0  0
    4.1680    4.0330   22.9870 O   0  0  0  0  0  0  0  0  0  0  0  0
    4.4820    3.6090   25.2330 N   0  0  0  0  0  0  0  0  0  0  0  0
    3.6000    4.6660   25.7540 C   0  0  1  0  0  0  0  0  0  0  0  0
    2.1670    4.1140   25.8750 C   0  0  0  0  0  0  0  0  0  0  0  0
    1.1150    5.1020   26.3920 C   0  0  0  0  0  0  0  0  0  0  0  0
   -0.2640    4.9170   25.7420 C   0  0  0  0  0  0  0  0  0  0  0  0
   -1.2830    4.5840   26.7140 N   0  0  0  0  0  0  0  0  0  0  0  0
   -2.6040    4.7450   26.4120 C   0  0  0  0  0  0  0  0  0  0  0  0
   -3.3880    3.8340   27.0370 N   0  0  0  0  0  0  0  0  0  0  0  0
   -3.0590    5.6040   25.6690 O   0  0  0  0  0  0  0  0  0  0  0  0
    4.1820    5.0730   27.1270 C   0  0  0  0  0  0  0  0  0  0  0  0
    4.6120    6.3580   27.2540 N   0  0  0  0  0  0  0  0  0  0  0  0
    4.2640    4.2870   28.0730 O   0  0  0  0  0  0  0  0  0  0  0  0
  1  2  1  0
  2  3  2  0
  2  4  1  0
  4  5  1  0
  5  6  1  6
  6  7  1  0
  5  8  1  0
  8  9  2  0
  8 10  1  0
 10 11  1  0
 11 12  1  1
 12 13  1  0
 13 14  2  0
 14 15  1  0
 15 16  2  0
 16 17  1  0
 13 18  1  0
 17 18  2  0
 11 19  1  0
 19 20  2  0
 19 21  1  0
 21 22  1  0
 22 23  1  6
 23 24  1  0
 22 25  1  0
 25 26  2  0
 25 27  1  0
 27 28  1  0
 28 29  1  1
 29 30  1  0
 30 31  1  0
 31 32  1  0
 32 33  1  0
 33 34  1  0
 33 35  2  0
 28 36  1  0
 36 37  1  0
 36 38  2  0
M  END
