SAL-INS-cba98abe-1
     RDKit          3D

 32 36  0  0  0  0  0  0  0  0999 V2000
    8.3710    1.7540   20.9380 O   0  0  0  0  0  0  0  0  0  0  0  0
    7.8750    0.8430   21.6160 C   0  0  0  0  0  0  0  0  0  0  0  0
    6.7630    0.1040   21.2090 N   0  0  0  0  0  0  0  0  0  0  0  0
    6.1960    0.4000   20.0200 C   0  0  0  0  0  0  0  0  0  0  0  0
    6.6410   -0.0960   18.6740 C   0  0  0  0  0  0  0  0  0  0  0  0
    5.8980    0.3750   17.6520 N   0  0  0  0  0  0  0  0  0  0  0  0
    4.9610    1.1760   18.2720 C   0  0  0  0  0  0  0  0  0  0  0  0
    5.1330    1.1990   19.7730 N   0  0  0  0  0  0  0  0  0  0  0  0
    8.3510    0.4470   22.8460 N   0  0  0  0  0  0  0  0  0  0  0  0
    9.5370    0.9740   23.2580 C   0  0  0  0  0  0  0  0  0  0  0  0
   10.9460    0.0180   23.0240 S   0  0  0  0  0  0  0  0  0  0  0  0
   12.3460    0.9630   23.6080 C   0  0  0  0  0  0  0  0  0  0  0  0
   12.9760   -0.1280   23.2170 C   0  0  0  0  0  0  0  0  0  0  0  0
   11.8110   -0.5890   22.9000 C   0  0  0  0  0  0  0  0  0  0  0  0
   11.6700   -1.8970   22.3640 C   0  0  0  0  0  0  0  0  0  0  0  0
   10.9430   -2.6550   23.5000 C   0  0  0  0  0  0  0  0  0  0  0  0
    9.5210   -2.8570   23.1290 C   0  0  0  0  0  0  0  0  0  0  0  0
    8.7910   -2.0220   22.3820 N   0  0  0  0  0  0  0  0  0  0  0  0
    7.5620   -2.5990   22.3040 C   0  0  0  0  0  0  0  0  0  0  0  0
    7.5480   -3.8430   23.0390 C   0  0  0  0  0  0  0  0  0  0  0  0
    8.7920   -3.9750   23.5460 N   0  0  0  0  0  0  0  0  0  0  0  0
   10.8470    0.4460   23.2190 N   0  0  0  0  0  0  0  0  0  0  0  0
   11.2800    1.7460   23.8180 C   0  0  0  0  0  0  0  0  0  0  0  0
    9.8380    2.1200   23.8080 C   0  0  0  0  0  0  0  0  0  0  0  0
    9.0030    3.3400   24.2480 C   0  0  0  0  0  0  0  0  0  0  0  0
    9.4860    4.6550   24.2060 C   0  0  1  0  0  0  0  0  0  0  0  0
    9.5590    5.3040   22.9410 C   0  0  0  0  0  0  0  0  0  0  0  0
    9.9020    6.6800   22.8020 C   0  0  0  0  0  0  0  0  0  0  0  0
    9.5160    7.4860   23.8490 C   0  0  1  0  0  0  0  0  0  0  0  0
    8.5370    8.4520   23.4430 O   0  0  0  0  0  0  0  0  0  0  0  0
    8.9910    6.6780   24.7820 C   0  0  0  0  0  0  0  0  0  0  0  0
    8.6270    5.4240   25.2830 C   0  0  0  0  0  0  0  0  0  0  0  0
  1  2  2  0
  2  3  1  0
  3  4  1  0
  4  5  2  0
  5  6  1  0
  6  7  2  0
  4  8  1  0
  7  8  1  0
  2  9  1  0
  9 10  1  0
 10 11  1  0
 11 12  1  0
 12 13  1  0
 13 14  2  0
 14 15  1  0
 15 16  1  0
 16 17  1  0
 17 18  2  0
 18 19  1  0
 19 20  2  0
 17 21  1  0
 20 21  1  0
 14 22  1  0
 12 23  2  0
 22 23  1  0
 10 24  2  0
 23 24  1  0
 24 25  1  0
 26 25  1  6
 26 27  1  0
 27 28  1  0
 28 29  1  0
 29 30  1  6
 29 31  1  0
 26 32  1  0
 31 32  1  0
M  END
