SAL-INS-cba98abe-7
     RDKit          3D

 24 27  0  0  0  0  0  0  0  0999 V2000
    7.2140    1.0780   20.4380 O   0  0  0  0  0  0  0  0  0  0  0  0
    6.3640    0.5050   21.1200 C   0  0  0  0  0  0  0  0  0  0  0  0
    5.3660   -0.4340   20.4610 C   0  0  0  0  0  0  0  0  0  0  0  0
    5.4390   -1.8280   21.0290 C   0  0  0  0  0  0  0  0  0  0  0  0
    5.6000   -3.0150   20.3490 C   0  0  0  0  0  0  0  0  0  0  0  0
    5.5950   -4.0000   21.2970 N   0  0  0  0  0  0  0  0  0  0  0  0
    5.4350   -3.3960   22.5120 C   0  0  0  0  0  0  0  0  0  0  0  0
    5.3360   -2.0870   22.3850 N   0  0  0  0  0  0  0  0  0  0  0  0
    6.2050    0.6400   22.4900 N   0  0  0  0  0  0  0  0  0  0  0  0
    7.1960    1.0710   23.3440 C   0  0  0  0  0  0  0  0  0  0  0  0
    7.3230    1.6700   24.4830 C   0  0  0  0  0  0  0  0  0  0  0  0
    8.7350    1.6880   24.5680 C   0  0  0  0  0  0  0  0  0  0  0  0
    8.6320    0.9990   23.2650 N   0  0  0  0  0  0  0  0  0  0  0  0
    9.8090    0.6110   22.5770 C   0  0  0  0  0  0  0  0  0  0  0  0
   10.9180    1.0010   23.3480 C   0  0  0  0  0  0  0  0  0  0  0  0
   12.3800    0.9560   23.3300 C   0  0  0  0  0  0  0  0  0  0  0  0
   12.6890   -0.2420   23.8830 C   0  0  0  0  0  0  0  0  0  0  0  0
   12.5990   -1.3110   22.8890 C   0  0  0  0  0  0  0  0  0  0  0  0
   11.6600   -1.4710   21.9940 N   0  0  0  0  0  0  0  0  0  0  0  0
   12.0340   -2.5760   21.2960 C   0  0  0  0  0  0  0  0  0  0  0  0
   13.1860   -3.0840   21.7710 C   0  0  0  0  0  0  0  0  0  0  0  0
   13.5380   -2.2810   22.8000 N   0  0  0  0  0  0  0  0  0  0  0  0
    9.9620    1.4650   24.1900 C   0  0  0  0  0  0  0  0  0  0  0  0
    8.8570    0.7980   22.8860 S   0  0  0  0  0  0  0  0  0  0  0  0
  1  2  2  0
  2  3  1  0
  3  4  1  0
  4  5  2  0
  5  6  1  0
  6  7  1  0
  4  8  1  0
  7  8  2  0
  2  9  1  0
  9 10  1  0
 10 11  2  0
 11 12  1  0
 12 13  1  0
 13 14  1  0
 14 15  2  0
 15 16  1  0
 16 17  1  0
 17 18  1  0
 18 19  2  0
 19 20  1  0
 20 21  2  0
 18 22  1  0
 21 22  1  0
 12 23  2  0
 15 23  1  0
 10 24  1  0
 23 24  1  0
M  END
