SAL-INS-1c7a5a55-6-chloroacetamide
     RDKit          3D

 25 28  0  0  0  0  0  0  0  0999 V2000
    7.5150   -3.0850   18.9230 C   0  0  0  0  0  0  0  0  0  0  0  0
    6.4760   -3.3990   20.0000 C   0  0  0  0  0  0  0  0  0  0  0  0
    5.5130   -4.1620   19.7940 O   0  0  0  0  0  0  0  0  0  0  0  0
    6.5640   -2.8540   21.2530 N   0  0  0  0  0  0  0  0  0  0  0  0
    6.0180   -3.2370   22.4520 C   0  0  0  0  0  0  0  0  0  0  0  0
    7.1340   -3.5980   23.4490 C   0  0  0  0  0  0  0  0  0  0  0  0
    6.7290   -4.3010   24.6100 C   0  0  0  0  0  0  0  0  0  0  0  0
    7.5930   -4.7500   25.6840 C   0  0  0  0  0  0  0  0  0  0  0  0
    9.0600   -4.9390   26.4550 C   0  0  0  0  0  0  0  0  0  0  0  0
   10.3220   -4.4120   25.8240 N   0  0  0  0  0  0  0  0  0  0  0  0
   11.3230   -4.3940   26.5510 O   0  0  0  0  0  0  0  0  0  0  0  0
   10.4290   -4.6650   24.6200 O   0  0  0  0  0  0  0  0  0  0  0  0
    9.2680   -5.6250   27.7910 C   0  0  0  0  0  0  0  0  0  0  0  0
    8.1180   -5.5100   27.2440 C   0  0  0  0  0  0  0  0  0  0  0  0
    9.2100   -4.8960   26.4310 C   0  0  0  0  0  0  0  0  0  0  0  0
    8.7540   -4.3360   25.2770 C   0  0  0  0  0  0  0  0  0  0  0  0
    9.3100   -3.6490   24.1960 C   0  0  0  0  0  0  0  0  0  0  0  0
    8.4400   -3.2650   23.2400 C   0  0  0  0  0  0  0  0  0  0  0  0
    8.9330   -2.5200   22.0430 C   0  0  2  0  0  0  0  0  0  0  0  0
    9.8770   -1.5270   22.3200 C   0  0  0  0  0  0  0  0  0  0  0  0
   11.2510   -1.5560   22.2510 C   0  0  0  0  0  0  0  0  0  0  0  0
   11.8050   -0.4010   22.6040 N   0  0  0  0  0  0  0  0  0  0  0  0
   10.6210    0.4270   22.9230 C   0  0  0  0  0  0  0  0  0  0  0  0
    9.4380   -0.2950   22.7370 N   0  0  0  0  0  0  0  0  0  0  0  0
    7.6560   -1.8660   21.4510 C   0  0  0  0  0  0  0  0  0  0  0  0
  1  2  1  0
  2  3  2  0
  2  4  1  0
  4  5  1  0
  5  6  1  0
  6  7  1  0
  7  8  2  0
  8  9  1  0
  9 10  1  0
 10 11  2  0
 10 12  1  0
  9 13  2  0
 13 14  1  0
 14 15  2  0
  8 16  1  0
 15 16  1  0
 16 17  2  0
  6 18  2  0
 17 18  1  0
 18 19  1  0
 19 20  1  1
 20 21  2  0
 21 22  1  0
 22 23  1  0
 20 24  1  0
 23 24  2  0
  4 25  1  0
 19 25  1  0
M  CHG  2  10   1  12  -1
M  END
