SAL-INS-1c7a5a55-6-nitrile
     RDKit          3D

 24 27  0  0  0  0  0  0  0  0999 V2000
    6.9710   -3.3510   19.7040 C   0  0  0  0  0  0  0  0  0  0  0  0
    5.9670   -3.1770   18.9430 N   0  0  0  0  0  0  0  0  0  0  0  0
    7.1110   -2.8120   20.9870 N   0  0  0  0  0  0  0  0  0  0  0  0
    6.4170   -3.2810   22.1730 C   0  0  0  0  0  0  0  0  0  0  0  0
    7.4140   -3.5830   23.3080 C   0  0  0  0  0  0  0  0  0  0  0  0
    6.8110   -4.3780   24.4750 C   0  0  0  0  0  0  0  0  0  0  0  0
    7.6980   -4.6690   25.5220 C   0  0  0  0  0  0  0  0  0  0  0  0
    7.2350   -5.3790   26.6420 C   0  0  0  0  0  0  0  0  0  0  0  0
    5.9000   -5.8140   26.7740 N   0  0  0  0  0  0  0  0  0  0  0  0
    5.3200   -5.4620   27.8090 O   0  0  0  0  0  0  0  0  0  0  0  0
    5.3110   -6.1490   25.7370 O   0  0  0  0  0  0  0  0  0  0  0  0
    8.1250   -5.7350   27.8170 C   0  0  0  0  0  0  0  0  0  0  0  0
    9.5400   -5.2590   27.6670 C   0  0  0  0  0  0  0  0  0  0  0  0
    9.9440   -4.5530   26.5230 C   0  0  0  0  0  0  0  0  0  0  0  0
    9.0610   -4.2560   25.4800 C   0  0  0  0  0  0  0  0  0  0  0  0
    9.5610   -3.5320   24.3910 C   0  0  0  0  0  0  0  0  0  0  0  0
    8.7530   -3.1830   23.3080 C   0  0  0  0  0  0  0  0  0  0  0  0
    9.2660   -2.4380   22.2300 C   0  0  2  0  0  0  0  0  0  0  0  0
   10.2730   -1.4040   22.6930 C   0  0  0  0  0  0  0  0  0  0  0  0
   10.0630   -0.4310   23.6180 C   0  0  0  0  0  0  0  0  0  0  0  0
   11.1460    0.4250   23.8900 N   0  0  0  0  0  0  0  0  0  0  0  0
   11.9630   -0.2640   22.9520 C   0  0  0  0  0  0  0  0  0  0  0  0
   11.5160   -1.2870   22.2670 N   0  0  0  0  0  0  0  0  0  0  0  0
    8.1480   -1.8110   21.3480 C   0  0  0  0  0  0  0  0  0  0  0  0
  1  2  2  3
  1  3  1  0
  3  4  1  0
  4  5  1  0
  5  6  1  0
  6  7  2  0
  7  8  1  0
  8  9  1  0
  9 10  2  0
  9 11  1  0
  8 12  2  0
 12 13  1  0
 13 14  2  0
  7 15  1  0
 14 15  1  0
 15 16  2  0
  5 17  2  0
 16 17  1  0
 17 18  1  0
 18 19  1  1
 19 20  2  0
 20 21  1  0
 21 22  1  0
 19 23  1  0
 22 23  2  0
  3 24  1  0
 18 24  1  0
M  CHG  2   9   1  11  -1
M  END
