SAL-INS-1c7a5a55-6-vinylsulfonamide
     RDKit          3D

 27 30  0  0  0  0  0  0  0  0999 V2000
    6.4670   -4.3650   19.9650 C   0  0  0  0  0  0  0  0  0  0  0  0
    7.0330   -3.1330   19.2490 C   0  0  0  0  0  0  0  0  0  0  0  0
    5.9420   -2.1080   20.0570 S   0  0  0  0  0  0  0  0  0  0  0  0
    4.8200   -3.0220   20.2530 O   0  0  0  0  0  0  0  0  0  0  0  0
    5.8730   -0.8200   19.4020 O   0  0  0  0  0  0  0  0  0  0  0  0
    6.7870   -1.9770   21.4960 N   0  0  0  0  0  0  0  0  0  0  0  0
    6.1410   -2.7580   22.4080 C   0  0  0  0  0  0  0  0  0  0  0  0
    7.0390   -3.2210   23.5470 C   0  0  0  0  0  0  0  0  0  0  0  0
    6.4660   -4.1640   24.3450 C   0  0  0  0  0  0  0  0  0  0  0  0
    6.8820   -4.8410   25.4910 C   0  0  0  0  0  0  0  0  0  0  0  0
    7.6430   -5.2720   26.5490 C   0  0  0  0  0  0  0  0  0  0  0  0
    6.3650   -6.0180   26.7590 N   0  0  0  0  0  0  0  0  0  0  0  0
    5.6660   -6.1580   25.7450 O   0  0  0  0  0  0  0  0  0  0  0  0
    5.8570   -5.8590   27.8820 O   0  0  0  0  0  0  0  0  0  0  0  0
    7.9390   -5.9730   27.6680 C   0  0  0  0  0  0  0  0  0  0  0  0
    9.1450   -5.6440   28.0230 C   0  0  0  0  0  0  0  0  0  0  0  0
    9.1940   -4.7100   26.8340 C   0  0  0  0  0  0  0  0  0  0  0  0
    8.2810   -4.2920   25.6980 C   0  0  0  0  0  0  0  0  0  0  0  0
    8.9220   -3.3080   24.8760 C   0  0  0  0  0  0  0  0  0  0  0  0
    8.2620   -2.7650   23.7920 C   0  0  0  0  0  0  0  0  0  0  0  0
    8.7770   -1.6960   22.8790 C   0  0  1  0  0  0  0  0  0  0  0  0
   10.0410   -1.1230   22.9810 C   0  0  0  0  0  0  0  0  0  0  0  0
   11.3130   -1.3100   22.4790 C   0  0  0  0  0  0  0  0  0  0  0  0
   12.1620   -0.3840   22.9560 N   0  0  0  0  0  0  0  0  0  0  0  0
   11.3020    0.4330   23.8310 C   0  0  0  0  0  0  0  0  0  0  0  0
   10.0110   -0.0490   23.8250 N   0  0  0  0  0  0  0  0  0  0  0  0
    8.2740   -2.0600   21.4690 C   0  0  0  0  0  0  0  0  0  0  0  0
  1  2  1  0
  3  2  1  0
  3  4  2  0
  3  5  2  0
  3  6  1  0
  6  7  1  0
  7  8  1  0
  8  9  1  0
  9 10  2  0
 10 11  1  0
 11 12  1  0
 12 13  2  0
 12 14  1  0
 11 15  2  0
 15 16  1  0
 16 17  2  0
 10 18  1  0
 17 18  1  0
 18 19  2  0
  8 20  2  0
 19 20  1  0
 20 21  1  0
 21 22  1  6
 22 23  2  0
 23 24  1  0
 24 25  1  0
 22 26  1  0
 25 26  2  0
  6 27  1  0
 21 27  1  0
M  CHG  2  12   1  14  -1
M  END
