SAL-INS-1c7a5a55-4-vinylsulfonamide
     RDKit          3D

 29 32  0  0  0  0  0  0  0  0999 V2000
    7.6390   -3.2880   19.2040 C   0  0  0  0  0  0  0  0  0  0  0  0
    7.2980   -3.6530   20.6220 C   0  0  0  0  0  0  0  0  0  0  0  0
    5.8660   -2.7370   20.8030 S   0  0  0  0  0  0  0  0  0  0  0  0
    5.0010   -3.5970   21.5630 O   0  0  0  0  0  0  0  0  0  0  0  0
    5.5470   -2.2250   19.4920 O   0  0  0  0  0  0  0  0  0  0  0  0
    6.5410   -1.5010   21.7150 N   0  0  0  0  0  0  0  0  0  0  0  0
    6.0550   -1.5540   22.9700 C   0  0  0  0  0  0  0  0  0  0  0  0
    6.8950   -2.5210   23.7770 C   0  0  0  0  0  0  0  0  0  0  0  0
    6.2090   -3.1740   24.7870 C   0  0  0  0  0  0  0  0  0  0  0  0
    6.7560   -4.0980   25.6600 C   0  0  0  0  0  0  0  0  0  0  0  0
    5.8630   -4.7510   26.7520 C   0  0  0  0  0  0  0  0  0  0  0  0
    4.6630   -4.9010   26.5530 O   0  0  0  0  0  0  0  0  0  0  0  0
    6.6110   -5.1290   27.9680 N   0  0  0  0  0  0  0  0  0  0  0  0
    6.0640   -6.3050   28.7010 C   0  0  0  0  0  0  0  0  0  0  0  0
    7.9750   -5.2870   27.5740 C   0  0  0  0  0  0  0  0  0  0  0  0
    8.9910   -4.5990   28.1660 C   0  0  0  0  0  0  0  0  0  0  0  0
   10.1100   -4.9930   27.5180 N   0  0  0  0  0  0  0  0  0  0  0  0
    9.7150   -5.8910   26.5780 C   0  0  0  0  0  0  0  0  0  0  0  0
    8.4330   -6.0830   26.6020 N   0  0  0  0  0  0  0  0  0  0  0  0
    8.1300   -4.3880   25.4960 C   0  0  0  0  0  0  0  0  0  0  0  0
    8.9060   -3.7660   24.4890 C   0  0  0  0  0  0  0  0  0  0  0  0
    8.2470   -2.7720   23.5640 C   0  0  0  0  0  0  0  0  0  0  0  0
    8.9410   -2.1170   22.5350 C   0  0  2  0  0  0  0  0  0  0  0  0
   10.0440   -1.3120   22.8550 C   0  0  0  0  0  0  0  0  0  0  0  0
   11.3530   -1.3510   22.3850 C   0  0  0  0  0  0  0  0  0  0  0  0
   11.9710   -0.3670   23.0090 N   0  0  0  0  0  0  0  0  0  0  0  0
   11.0440    0.2410   23.8350 C   0  0  0  0  0  0  0  0  0  0  0  0
    9.8500   -0.3220   23.7580 N   0  0  0  0  0  0  0  0  0  0  0  0
    8.0130   -1.3140   21.5530 C   0  0  0  0  0  0  0  0  0  0  0  0
  1  2  1  0
  3  2  1  0
  3  4  2  0
  3  5  2  0
  3  6  1  0
  6  7  1  0
  7  8  1  0
  8  9  1  0
  9 10  2  0
 10 11  1  0
 11 12  2  0
 11 13  1  0
 13 14  1  0
 13 15  1  0
 15 16  2  0
 16 17  1  0
 17 18  1  0
 15 19  1  0
 18 19  2  0
 10 20  1  0
 20 21  2  0
  8 22  2  0
 21 22  1  0
 22 23  1  0
 23 24  1  1
 24 25  2  0
 25 26  1  0
 26 27  1  0
 24 28  1  0
 27 28  2  0
  6 29  1  0
 23 29  1  0
M  END
