SAL-INS-1c7a5a55-7-nitrile
     RDKit          3D

 24 26  0  0  0  0  0  0  0  0999 V2000
    6.5980   -4.6070   20.5070 C   0  0  0  0  0  0  0  0  0  0  0  0
    5.5520   -4.2270   19.8750 N   0  0  0  0  0  0  0  0  0  0  0  0
    7.2750   -3.7640   21.3930 N   0  0  0  0  0  0  0  0  0  0  0  0
    7.9210   -4.0330   22.7060 C   0  0  0  0  0  0  0  0  0  0  0  0
    7.2230   -5.0230   23.6720 C   0  0  0  0  0  0  0  0  0  0  0  0
    7.9250   -5.3190   25.0330 C   0  0  0  0  0  0  0  0  0  0  0  0
    9.1510   -4.6790   25.3090 C   0  0  0  0  0  0  0  0  0  0  0  0
    9.7830   -4.9860   26.5270 C   0  0  0  0  0  0  0  0  0  0  0  0
    9.7290   -3.7770   24.4090 C   0  0  0  0  0  0  0  0  0  0  0  0
    9.1340   -3.4170   23.0780 C   0  0  0  0  0  0  0  0  0  0  0  0
    9.7690   -2.5010   22.2140 C   0  0  0  0  0  0  0  0  0  0  0  0
   10.4300   -1.4410   22.8230 C   0  0  0  0  0  0  0  0  0  0  0  0
    9.8870   -0.5960   23.7720 C   0  0  0  0  0  0  0  0  0  0  0  0
   10.6900    0.4280   24.2580 C   0  0  0  0  0  0  0  0  0  0  0  0
   12.0150    0.6080   23.8100 C   0  0  0  0  0  0  0  0  0  0  0  0
   12.5300   -0.3630   22.7790 C   0  0  0  0  0  0  0  0  0  0  0  0
   11.7030   -1.3690   22.3150 C   0  0  0  0  0  0  0  0  0  0  0  0
    7.5970   -2.5210   20.7890 C   0  0  1  0  0  0  0  0  0  0  0  0
    7.0080   -2.3130   19.5480 C   0  0  0  0  0  0  0  0  0  0  0  0
    5.6130   -1.7700   19.6670 C   0  0  0  0  0  0  0  0  0  0  0  0
    5.3280   -1.5430   21.3440 S   0  0  0  0  0  0  0  0  0  0  0  0
    4.8070   -0.2140   21.5290 O   0  0  0  0  0  0  0  0  0  0  0  0
    4.7100   -2.7540   21.9000 O   0  0  0  0  0  0  0  0  0  0  0  0
    7.0870   -1.4300   21.6920 C   0  0  0  0  0  0  0  0  0  0  0  0
  1  2  2  3
  1  3  1  0
  3  4  1  0
  4  5  2  0
  5  6  1  0
  6  7  2  0
  7  8  1  0
  7  9  1  0
  4 10  1  0
  9 10  2  0
 10 11  1  0
 11 12  1  0
 12 13  2  0
 13 14  1  0
 14 15  2  0
 15 16  1  0
 12 17  1  0
 16 17  2  0
 18  3  1  1
 18 19  1  0
 19 20  2  0
 21 20  1  0
 21 22  2  0
 21 23  2  0
 18 24  1  0
 21 24  1  0
M  END
