SAL-INS-cba98abe-4
     RDKit          3D

 32 36  0  0  0  0  0  0  0  0999 V2000
   13.3300   -2.2350   25.0900 O   0  0  0  0  0  0  0  0  0  0  0  0
   12.8330   -2.0680   23.9770 C   0  0  0  0  0  0  0  0  0  0  0  0
   13.5910   -2.2960   22.8380 C   0  0  0  0  0  0  0  0  0  0  0  0
   12.9640   -3.0650   21.6690 C   0  0  0  0  0  0  0  0  0  0  0  0
   13.6070   -4.1660   20.8340 C   0  0  0  0  0  0  0  0  0  0  0  0
   12.8140   -4.6640   19.9500 N   0  0  0  0  0  0  0  0  0  0  0  0
   11.6740   -4.0100   20.0670 C   0  0  0  0  0  0  0  0  0  0  0  0
   11.7050   -2.9750   21.1190 N   0  0  0  0  0  0  0  0  0  0  0  0
   11.5950   -1.6850   23.6130 N   0  0  0  0  0  0  0  0  0  0  0  0
   11.2550   -0.3480   23.5610 C   0  0  0  0  0  0  0  0  0  0  0  0
   12.5350    0.7250   23.2150 S   0  0  0  0  0  0  0  0  0  0  0  0
   11.4770    2.0620   23.3340 C   0  0  0  0  0  0  0  0  0  0  0  0
   11.5390    3.4110   23.2270 C   0  0  0  0  0  0  0  0  0  0  0  0
   10.2420    3.8670   23.4640 C   0  0  0  0  0  0  0  0  0  0  0  0
   10.0140    5.3920   23.4180 C   0  0  0  0  0  0  0  0  0  0  0  0
    8.8220    5.7400   24.2210 C   0  0  0  0  0  0  0  0  0  0  0  0
    7.6450    5.8810   23.2300 C   0  0  0  0  0  0  0  0  0  0  0  0
    6.5480    5.6210   22.7750 N   0  0  0  0  0  0  0  0  0  0  0  0
    6.2050    6.3900   21.6020 C   0  0  0  0  0  0  0  0  0  0  0  0
    7.3000    7.2200   21.3730 C   0  0  0  0  0  0  0  0  0  0  0  0
    8.1730    6.9080   22.3650 N   0  0  0  0  0  0  0  0  0  0  0  0
    9.3870    2.8080   23.7060 N   0  0  0  0  0  0  0  0  0  0  0  0
   10.1590    1.6490   23.6300 C   0  0  0  0  0  0  0  0  0  0  0  0
   10.0010    0.1490   23.7650 C   0  0  0  0  0  0  0  0  0  0  0  0
    8.7490   -0.4850   24.0420 C   0  0  0  0  0  0  0  0  0  0  0  0
    8.5160   -1.3660   25.1270 C   0  0  1  0  0  0  0  0  0  0  0  0
    7.2770   -2.2080   25.0980 C   0  0  0  0  0  0  0  0  0  0  0  0
    6.9770   -3.3520   25.9600 C   0  0  0  0  0  0  0  0  0  0  0  0
    8.1700   -3.7880   26.3230 C   0  0  1  0  0  0  0  0  0  0  0  0
    8.1650   -5.1870   26.0970 O   0  0  0  0  0  0  0  0  0  0  0  0
    9.4020   -3.3940   26.0320 C   0  0  0  0  0  0  0  0  0  0  0  0
    9.8720   -2.1340   25.3590 C   0  0  0  0  0  0  0  0  0  0  0  0
  1  2  2  0
  2  3  1  0
  3  4  1  0
  4  5  2  0
  5  6  1  0
  6  7  2  0
  4  8  1  0
  7  8  1  0
  2  9  1  0
  9 10  1  0
 10 11  1  0
 11 12  1  0
 12 13  1  0
 13 14  2  0
 14 15  1  0
 15 16  1  0
 16 17  1  0
 17 18  2  0
 18 19  1  0
 19 20  2  0
 17 21  1  0
 20 21  1  0
 14 22  1  0
 12 23  2  0
 22 23  1  0
 10 24  2  0
 23 24  1  0
 24 25  1  0
 26 25  1  6
 26 27  1  0
 27 28  1  0
 28 29  1  0
 29 30  1  6
 29 31  1  0
 26 32  1  0
 31 32  1  0
M  END
