SAL-INS-1ea6d4ee-4-acrylamide
     RDKit          3D

 29 31  0  0  0  0  0  0  0  0999 V2000
    7.3680   -3.0880   19.0420 C   0  0  0  0  0  0  0  0  0  0  0  0
    6.9750   -3.1130   20.4900 C   0  0  0  0  0  0  0  0  0  0  0  0
    6.0580   -4.2780   20.7790 C   0  0  0  0  0  0  0  0  0  0  0  0
    5.1920   -4.6490   19.9790 O   0  0  0  0  0  0  0  0  0  0  0  0
    6.2540   -4.9090   21.9810 N   0  0  0  0  0  0  0  0  0  0  0  0
    7.1950   -4.5720   23.0440 C   0  0  0  0  0  0  0  0  0  0  0  0
    6.2260   -4.1720   24.1330 C   0  0  0  0  0  0  0  0  0  0  0  0
    5.6900   -5.4580   24.6630 N   0  0  0  0  0  0  0  0  0  0  0  0
    5.0500   -5.4600   26.1890 S   0  0  0  0  0  0  0  0  0  0  0  0
    4.2950   -6.6870   26.3000 O   0  0  0  0  0  0  0  0  0  0  0  0
    6.0430   -5.1040   27.1680 O   0  0  0  0  0  0  0  0  0  0  0  0
    3.8600   -4.1390   26.1410 C   0  0  0  0  0  0  0  0  0  0  0  0
    4.3580   -2.6710   26.0980 C   0  0  0  0  0  0  0  0  0  0  0  0
    3.2410   -1.6580   26.0650 C   0  0  0  0  0  0  0  0  0  0  0  0
    1.8220   -2.1510   26.0760 C   0  0  0  0  0  0  0  0  0  0  0  0
    0.6390   -0.8350   26.0490 Cl  0  0  0  0  0  0  0  0  0  0  0  0
    1.4990   -3.5090   26.1110 C   0  0  0  0  0  0  0  0  0  0  0  0
    2.5010   -4.4870   26.1430 C   0  0  0  0  0  0  0  0  0  0  0  0
    4.8980   -6.1740   23.6340 C   0  0  1  0  0  0  0  0  0  0  0  0
    3.5590   -5.7340   23.7040 C   0  0  0  0  0  0  0  0  0  0  0  0
    2.6280   -6.5170   23.0150 C   0  0  0  0  0  0  0  0  0  0  0  0
    1.8900   -7.3660   23.8370 C   0  0  0  0  0  0  0  0  0  0  0  0
    2.5680   -8.1740   24.7360 C   0  0  0  0  0  0  0  0  0  0  0  0
    1.7630   -9.1070   25.6200 C   0  0  0  0  0  0  0  0  0  0  0  0
    0.3760   -9.1960   25.5860 C   0  0  0  0  0  0  0  0  0  0  0  0
   -0.3130   -8.3750   24.6790 C   0  0  0  0  0  0  0  0  0  0  0  0
    0.4640   -7.4140   23.7550 C   0  0  0  0  0  0  0  0  0  0  0  0
   -0.1950   -6.6170   22.8620 O   0  0  0  0  0  0  0  0  0  0  0  0
    5.5870   -6.1520   22.3720 C   0  0  0  0  0  0  0  0  0  0  0  0
  1  2  1  0
  2  3  1  0
  3  4  2  0
  3  5  1  0
  5  6  1  0
  6  7  1  0
  7  8  1  0
  8  9  1  0
  9 10  2  0
  9 11  2  0
  9 12  1  0
 12 13  2  0
 13 14  1  0
 14 15  2  0
 15 16  1  0
 15 17  1  0
 12 18  1  0
 17 18  2  0
  8 19  1  0
 19 20  1  6
 20 21  1  0
 21 22  1  0
 22 23  2  0
 23 24  1  0
 24 25  2  0
 25 26  1  0
 22 27  1  0
 26 27  2  0
 27 28  1  0
  5 29  1  0
 19 29  1  0
M  END
