SAL-INS-1c7a5a55-2-acrylamide
     RDKit          3D

 29 32  0  0  0  0  0  0  0  0999 V2000
    8.0560   -3.5350   19.7040 C   0  0  0  0  0  0  0  0  0  0  0  0
    6.9290   -2.7070   19.1530 C   0  0  0  0  0  0  0  0  0  0  0  0
    6.1710   -2.8080   20.3970 C   0  0  0  0  0  0  0  0  0  0  0  0
    5.0920   -3.3880   20.4730 O   0  0  0  0  0  0  0  0  0  0  0  0
    6.8730   -2.2490   21.4390 N   0  0  0  0  0  0  0  0  0  0  0  0
    6.2790   -2.2440   22.7850 C   0  0  0  0  0  0  0  0  0  0  0  0
    7.0750   -2.9540   23.6950 C   0  0  0  0  0  0  0  0  0  0  0  0
    6.4920   -3.8260   24.5860 C   0  0  0  0  0  0  0  0  0  0  0  0
    7.3010   -4.6040   25.5630 C   0  0  0  0  0  0  0  0  0  0  0  0
    6.4350   -5.4200   26.4760 C   0  0  0  0  0  0  0  0  0  0  0  0
    5.4020   -5.8830   25.9890 O   0  0  0  0  0  0  0  0  0  0  0  0
    6.7970   -5.5500   27.8220 N   0  0  0  0  0  0  0  0  0  0  0  0
    8.1630   -6.0030   28.0010 C   0  0  0  0  0  0  0  0  0  0  0  0
    5.8230   -5.9980   28.8530 C   0  0  0  0  0  0  0  0  0  0  0  0
    6.0220   -7.2470   29.4340 C   0  0  0  0  0  0  0  0  0  0  0  0
    5.0320   -7.4990   30.3400 N   0  0  0  0  0  0  0  0  0  0  0  0
    4.2450   -6.3890   30.3070 C   0  0  0  0  0  0  0  0  0  0  0  0
    4.7060   -5.3860   29.3630 N   0  0  0  0  0  0  0  0  0  0  0  0
    8.6910   -4.4710   25.5280 C   0  0  0  0  0  0  0  0  0  0  0  0
    9.3120   -3.4900   24.5560 C   0  0  0  0  0  0  0  0  0  0  0  0
    8.4650   -2.7640   23.7050 C   0  0  0  0  0  0  0  0  0  0  0  0
    8.8220   -1.7780   22.8070 C   0  0  1  0  0  0  0  0  0  0  0  0
   10.0990   -1.2070   22.8840 C   0  0  0  0  0  0  0  0  0  0  0  0
   10.1270    0.0540   23.7510 C   0  0  0  0  0  0  0  0  0  0  0  0
   11.4350    0.7840   23.9090 C   0  0  0  0  0  0  0  0  0  0  0  0
   12.6510    0.1980   23.1890 C   0  0  0  0  0  0  0  0  0  0  0  0
   12.5200   -0.9680   22.4230 C   0  0  0  0  0  0  0  0  0  0  0  0
   11.2910   -1.6580   22.2660 C   0  0  0  0  0  0  0  0  0  0  0  0
    8.3580   -2.1660   21.4250 C   0  0  0  0  0  0  0  0  0  0  0  0
  1  2  1  0
  2  3  1  0
  3  4  2  0
  3  5  1  0
  5  6  1  0
  6  7  1  0
  7  8  1  0
  8  9  2  0
  9 10  1  0
 10 11  2  0
 10 12  1  0
 12 13  1  0
 12 14  1  0
 14 15  2  0
 15 16  1  0
 16 17  1  0
 14 18  1  0
 17 18  2  0
  9 19  1  0
 19 20  2  0
  7 21  2  0
 20 21  1  0
 21 22  1  0
 22 23  1  6
 23 24  2  0
 24 25  1  0
 25 26  2  0
 26 27  1  0
 23 28  1  0
 27 28  2  0
  5 29  1  0
 22 29  1  0
M  END
