SAL-INS-68b48d12-11
     RDKit          3D

 35 35  0  0  0  0  0  0  0  0999 V2000
   11.5270   13.7740   27.1450 N   0  0  0  0  0  0  0  0  0  0  0  0
   12.1270   12.7990   26.4100 C   0  0  0  0  0  0  0  0  0  0  0  0
   13.1270   13.0450   25.5400 N   0  0  0  0  0  0  0  0  0  0  0  0
   11.8100   11.4820   26.4490 N   0  0  0  0  0  0  0  0  0  0  0  0
   11.2220   10.7980   25.3050 C   0  0  0  0  0  0  0  0  0  0  0  0
   11.6800    9.3330   25.2080 C   0  0  0  0  0  0  0  0  0  0  0  0
   10.5470    8.3130   25.1690 C   0  0  0  0  0  0  0  0  0  0  0  0
   10.8300    6.9920   25.5360 C   0  0  2  0  0  0  0  0  0  0  0  0
    9.8730    6.0430   24.9400 N   0  0  0  0  0  0  0  0  0  0  0  0
   10.1970    5.1340   23.9380 C   0  0  0  0  0  0  0  0  0  0  0  0
   11.3360    5.0290   23.4850 O   0  0  0  0  0  0  0  0  0  0  0  0
    9.1300    4.3330   23.4670 C   0  0  1  0  0  0  0  0  0  0  0  0
    8.0340    5.0080   22.9140 C   0  0  0  0  0  0  0  0  0  0  0  0
    8.4730    6.1930   22.2370 O   0  0  0  0  0  0  0  0  0  0  0  0
    9.6890    3.3920   22.4710 N   0  0  0  0  0  0  0  0  0  0  0  0
    9.1940    2.0880   22.3420 C   0  0  0  0  0  0  0  0  0  0  0  0
    8.8970    1.6490   21.2230 O   0  0  0  0  0  0  0  0  0  0  0  0
    9.0160    1.3230   23.5350 C   0  0  2  0  0  0  0  0  0  0  0  0
    9.5870    0.0430   23.6980 C   0  0  0  0  0  0  0  0  0  0  0  0
   10.7930   -0.2960   23.1150 C   0  0  0  0  0  0  0  0  0  0  0  0
   10.8850   -1.5770   22.2900 C   0  0  0  0  0  0  0  0  0  0  0  0
   12.1280   -1.6790   21.8340 C   0  0  0  0  0  0  0  0  0  0  0  0
   13.3070   -1.0950   21.8260 C   0  0  0  0  0  0  0  0  0  0  0  0
   13.2170    0.1920   22.6610 C   0  0  0  0  0  0  0  0  0  0  0  0
   11.9670    0.5250   23.2640 C   0  0  0  0  0  0  0  0  0  0  0  0
    7.5680    1.1730   23.7230 N   0  0  0  0  0  0  0  0  0  0  0  0
    6.9420   -0.0060   23.3370 C   0  0  0  0  0  0  0  0  0  0  0  0
    6.3340   -1.0780   23.3830 O   0  0  0  0  0  0  0  0  0  0  0  0
    6.7760   -0.0440   24.8730 C   0  0  1  0  0  0  0  0  0  0  0  0
    5.3290   -0.1490   25.1980 N   0  0  0  0  0  0  0  0  0  0  0  0
    7.5330   -1.1840   25.5620 C   0  0  0  0  0  0  0  0  0  0  0  0
    6.6200   -2.1080   26.1690 O   0  0  0  0  0  0  0  0  0  0  0  0
   10.9160    6.7940   27.0630 C   0  0  0  0  0  0  0  0  0  0  0  0
    9.9870    6.5050   27.8040 O   0  0  0  0  0  0  0  0  0  0  0  0
   12.1510    6.9740   27.5970 O   0  0  0  0  0  0  0  0  0  0  0  0
  1  2  2  3
  2  3  1  0
  2  4  1  0
  4  5  1  0
  5  6  1  0
  6  7  1  0
  8  7  1  1
  8  9  1  0
  9 10  1  0
 10 11  2  0
 10 12  1  0
 12 13  1  6
 13 14  1  0
 12 15  1  0
 15 16  1  0
 16 17  2  0
 16 18  1  0
 18 19  1  6
 19 20  1  0
 20 21  2  0
 21 22  1  0
 22 23  2  0
 23 24  1  0
 20 25  1  0
 24 25  2  0
 18 26  1  0
 26 27  1  0
 27 28  2  0
 27 29  1  0
 29 30  1  6
 29 31  1  0
 31 32  1  0
  8 33  1  0
 33 34  2  0
 33 35  1  0
M  END
