SAL-INS-1c7a5a55-7-acrylamide
     RDKit          3D

 26 28  0  0  0  0  0  0  0  0999 V2000
    8.5820   -5.3580   20.9930 C   0  0  0  0  0  0  0  0  0  0  0  0
    7.7930   -4.1940   21.4890 C   0  0  0  0  0  0  0  0  0  0  0  0
    6.2910   -4.3740   21.4470 C   0  0  0  0  0  0  0  0  0  0  0  0
    5.0870   -4.0740   21.6870 O   0  0  0  0  0  0  0  0  0  0  0  0
    6.7240   -3.2640   22.1400 N   0  0  0  0  0  0  0  0  0  0  0  0
    7.6050   -3.6360   23.2880 C   0  0  0  0  0  0  0  0  0  0  0  0
    6.9490   -4.3680   24.3150 C   0  0  0  0  0  0  0  0  0  0  0  0
    7.7130   -4.7730   25.4190 C   0  0  0  0  0  0  0  0  0  0  0  0
    9.1880   -4.4400   25.5160 C   0  0  0  0  0  0  0  0  0  0  0  0
    9.9240   -4.9250   26.7400 C   0  0  0  0  0  0  0  0  0  0  0  0
    9.7760   -3.7140   24.4780 C   0  0  0  0  0  0  0  0  0  0  0  0
    9.0160   -3.3040   23.3650 C   0  0  0  0  0  0  0  0  0  0  0  0
    9.6740   -2.5890   22.3530 C   0  0  0  0  0  0  0  0  0  0  0  0
   10.5590   -1.5820   22.7470 C   0  0  0  0  0  0  0  0  0  0  0  0
   11.8480   -1.4910   22.2360 C   0  0  0  0  0  0  0  0  0  0  0  0
   12.6310   -0.3320   22.7770 C   0  0  0  0  0  0  0  0  0  0  0  0
   12.0440    0.5280   23.7040 C   0  0  0  0  0  0  0  0  0  0  0  0
   10.7280    0.3380   24.1550 C   0  0  0  0  0  0  0  0  0  0  0  0
    9.9790   -0.7370   23.6640 C   0  0  0  0  0  0  0  0  0  0  0  0
    7.4150   -2.3330   21.2420 C   0  0  1  0  0  0  0  0  0  0  0  0
    6.7850   -2.5230   19.8600 C   0  0  0  0  0  0  0  0  0  0  0  0
    5.5490   -1.7030   19.6870 C   0  0  0  0  0  0  0  0  0  0  0  0
    5.3580   -0.8090   21.1540 S   0  0  0  0  0  0  0  0  0  0  0  0
    4.7060   -1.6550   22.1240 O   0  0  0  0  0  0  0  0  0  0  0  0
    4.9710    0.5600   20.8870 O   0  0  0  0  0  0  0  0  0  0  0  0
    7.1080   -0.8810   21.5500 C   0  0  0  0  0  0  0  0  0  0  0  0
  1  2  1  0
  2  3  1  0
  3  4  2  0
  3  5  1  0
  5  6  1  0
  6  7  2  0
  7  8  1  0
  8  9  2  0
  9 10  1  0
  9 11  1  0
  6 12  1  0
 11 12  2  0
 12 13  1  0
 13 14  1  0
 14 15  2  0
 15 16  1  0
 16 17  2  0
 17 18  1  0
 14 19  1  0
 18 19  2  0
 20  5  1  1
 20 21  1  0
 21 22  2  0
 23 22  1  0
 23 24  2  0
 23 25  2  0
 20 26  1  0
 23 26  1  0
M  END
