SAL-INS-1ea6d4ee-4-nitrile
     RDKit          3D

 27 29  0  0  0  0  0  0  0  0999 V2000
    6.7120   -4.0320   20.1920 C   0  0  0  0  0  0  0  0  0  0  0  0
    5.5950   -3.8710   19.5960 N   0  0  0  0  0  0  0  0  0  0  0  0
    6.8640   -3.9920   21.5520 N   0  0  0  0  0  0  0  0  0  0  0  0
    7.8100   -4.8810   22.2300 C   0  0  0  0  0  0  0  0  0  0  0  0
    7.3760   -5.2600   23.6430 C   0  0  0  0  0  0  0  0  0  0  0  0
    6.0740   -4.6350   23.9980 N   0  0  0  0  0  0  0  0  0  0  0  0
    5.1310   -5.3290   25.2490 S   0  0  0  0  0  0  0  0  0  0  0  0
    4.1840   -6.2590   24.6770 O   0  0  0  0  0  0  0  0  0  0  0  0
    5.9940   -5.7380   26.3290 O   0  0  0  0  0  0  0  0  0  0  0  0
    4.1220   -4.0510   25.9540 C   0  0  0  0  0  0  0  0  0  0  0  0
    4.4030   -3.2860   27.0780 C   0  0  0  0  0  0  0  0  0  0  0  0
    3.4650   -2.2690   27.5320 C   0  0  0  0  0  0  0  0  0  0  0  0
    2.2650   -2.0320   26.8590 C   0  0  0  0  0  0  0  0  0  0  0  0
    1.1170   -0.8510   27.3410 Cl  0  0  0  0  0  0  0  0  0  0  0  0
    1.9510   -2.8000   25.7060 C   0  0  0  0  0  0  0  0  0  0  0  0
    2.9490   -3.8430   25.2660 C   0  0  0  0  0  0  0  0  0  0  0  0
    5.9980   -3.1290   23.7430 C   0  0  1  0  0  0  0  0  0  0  0  0
    6.7790   -2.3540   24.8130 C   0  0  0  0  0  0  0  0  0  0  0  0
    6.5350   -0.9490   25.0870 C   0  0  0  0  0  0  0  0  0  0  0  0
    7.6980   -0.1700   24.9790 C   0  0  0  0  0  0  0  0  0  0  0  0
    7.6850   -0.7750   26.1700 C   0  0  0  0  0  0  0  0  0  0  0  0
    6.4880   -1.4880   26.2720 C   0  0  0  0  0  0  0  0  0  0  0  0
    5.5630   -1.4380   25.1490 C   0  0  0  0  0  0  0  0  0  0  0  0
    5.8140   -0.6950   23.9250 C   0  0  0  0  0  0  0  0  0  0  0  0
    7.0130    0.0120   23.8360 C   0  0  0  0  0  0  0  0  0  0  0  0
    7.4410    0.7830   22.7890 O   0  0  0  0  0  0  0  0  0  0  0  0
    6.5350   -2.7890   22.3220 C   0  0  0  0  0  0  0  0  0  0  0  0
  1  2  2  3
  1  3  1  0
  3  4  1  0
  4  5  1  0
  5  6  1  0
  6  7  1  0
  7  8  2  0
  7  9  2  0
  7 10  1  0
 10 11  2  0
 11 12  1  0
 12 13  2  0
 13 14  1  0
 13 15  1  0
 10 16  1  0
 15 16  2  0
  6 17  1  0
 17 18  1  1
 18 19  1  0
 19 20  1  0
 20 21  2  0
 21 22  1  0
 22 23  2  0
 23 24  1  0
 20 25  1  0
 24 25  2  0
 25 26  1  0
  3 27  1  0
 17 27  1  0
M  END
