SAL-INS-1ea6d4ee-3-vinylsulfonamide
     RDKit          3D

 29 31  0  0  0  0  0  0  0  0999 V2000
    7.4280   -2.9150   18.6340 C   0  0  0  0  0  0  0  0  0  0  0  0
    6.8170   -2.3640   19.8930 C   0  0  0  0  0  0  0  0  0  0  0  0
    5.8030   -3.5990   20.6530 S   0  0  0  0  0  0  0  0  0  0  0  0
    4.7120   -2.9750   21.3090 O   0  0  0  0  0  0  0  0  0  0  0  0
    5.5170   -4.7120   19.7740 O   0  0  0  0  0  0  0  0  0  0  0  0
    6.8080   -4.0660   21.8890 N   0  0  0  0  0  0  0  0  0  0  0  0
    6.7630   -5.5210   22.2960 C   0  0  0  0  0  0  0  0  0  0  0  0
    7.8210   -5.6090   23.4270 C   0  0  0  0  0  0  0  0  0  0  0  0
    7.3510   -4.7510   24.5310 N   0  0  0  0  0  0  0  0  0  0  0  0
    5.7760   -5.0430   25.1700 S   0  0  0  0  0  0  0  0  0  0  0  0
    5.8940   -5.9030   26.3230 O   0  0  0  0  0  0  0  0  0  0  0  0
    4.8440   -5.3590   24.1130 O   0  0  0  0  0  0  0  0  0  0  0  0
    5.3170   -3.4500   25.8250 C   0  0  0  0  0  0  0  0  0  0  0  0
    5.8600   -2.8920   27.1420 C   0  0  0  0  0  0  0  0  0  0  0  0
    5.2390   -1.5090   27.3680 C   0  0  0  0  0  0  0  0  0  0  0  0
    4.3240   -1.2180   26.2090 C   0  0  0  0  0  0  0  0  0  0  0  0
    3.4780    0.3400   26.2460 Cl  0  0  0  0  0  0  0  0  0  0  0  0
    4.2060   -2.4090   25.0080 S   0  0  0  0  0  0  0  0  0  0  0  0
    7.7360   -3.3900   24.1510 C   0  0  1  0  0  0  0  0  0  0  0  0
    9.0920   -3.2770   23.7140 C   0  0  0  0  0  0  0  0  0  0  0  0
    9.4870   -1.9560   23.2930 C   0  0  0  0  0  0  0  0  0  0  0  0
   10.7010   -1.5080   23.9040 C   0  0  0  0  0  0  0  0  0  0  0  0
   10.4470   -0.9560   25.0360 C   0  0  0  0  0  0  0  0  0  0  0  0
    9.3270   -1.4600   24.2430 C   0  0  0  0  0  0  0  0  0  0  0  0
    9.5490   -2.1190   22.8780 C   0  0  0  0  0  0  0  0  0  0  0  0
   10.8310   -2.3160   22.2410 C   0  0  0  0  0  0  0  0  0  0  0  0
   11.7840   -1.7700   23.1610 C   0  0  0  0  0  0  0  0  0  0  0  0
   13.2110   -1.6380   23.1330 O   0  0  0  0  0  0  0  0  0  0  0  0
    6.8120   -3.0270   22.9390 C   0  0  0  0  0  0  0  0  0  0  0  0
  1  2  1  0
  3  2  1  0
  3  4  2  0
  3  5  2  0
  3  6  1  0
  6  7  1  0
  7  8  1  0
  8  9  1  0
  9 10  1  0
 10 11  2  0
 10 12  2  0
 10 13  1  0
 13 14  2  0
 14 15  1  0
 15 16  2  0
 16 17  1  0
 13 18  1  0
 16 18  1  0
  9 19  1  0
 19 20  1  6
 20 21  1  0
 21 22  1  0
 22 23  2  0
 23 24  1  0
 24 25  2  0
 25 26  1  0
 22 27  1  0
 26 27  2  0
 27 28  1  0
  6 29  1  0
 19 29  1  0
M  END
