SAL-INS-1ea6d4ee-3-chloroacetamide
     RDKit          3D

 27 29  0  0  0  0  0  0  0  0999 V2000
    7.1470   -3.4560   19.9430 C   0  0  0  0  0  0  0  0  0  0  0  0
    6.2790   -4.5260   20.5650 C   0  0  0  0  0  0  0  0  0  0  0  0
    5.2900   -4.8930   19.9670 O   0  0  0  0  0  0  0  0  0  0  0  0
    6.5580   -5.1130   21.7840 N   0  0  0  0  0  0  0  0  0  0  0  0
    7.4700   -4.6470   22.8740 C   0  0  0  0  0  0  0  0  0  0  0  0
    6.4120   -4.1320   23.8940 C   0  0  0  0  0  0  0  0  0  0  0  0
    5.7900   -5.3440   24.4860 N   0  0  0  0  0  0  0  0  0  0  0  0
    5.2400   -5.2670   26.0460 S   0  0  0  0  0  0  0  0  0  0  0  0
    4.3490   -6.4000   26.1770 O   0  0  0  0  0  0  0  0  0  0  0  0
    6.3540   -5.0810   26.9410 O   0  0  0  0  0  0  0  0  0  0  0  0
    4.2190   -3.8070   26.0800 C   0  0  0  0  0  0  0  0  0  0  0  0
    4.7380   -2.3710   25.9480 C   0  0  0  0  0  0  0  0  0  0  0  0
    3.5480   -1.4040   26.0370 C   0  0  0  0  0  0  0  0  0  0  0  0
    2.3240   -2.2440   26.2250 C   0  0  0  0  0  0  0  0  0  0  0  0
    0.7990   -1.3560   26.3770 Cl  0  0  0  0  0  0  0  0  0  0  0  0
    2.4590   -3.9450   26.2880 S   0  0  0  0  0  0  0  0  0  0  0  0
    5.0300   -6.1590   23.5240 C   0  0  1  0  0  0  0  0  0  0  0  0
    3.7400   -5.6480   23.3000 C   0  0  0  0  0  0  0  0  0  0  0  0
    2.7830   -6.6840   23.2970 C   0  0  0  0  0  0  0  0  0  0  0  0
    1.4220   -6.3210   23.1990 C   0  0  0  0  0  0  0  0  0  0  0  0
    0.8730   -5.2830   23.9670 C   0  0  0  0  0  0  0  0  0  0  0  0
   -0.4720   -4.9070   23.8770 C   0  0  0  0  0  0  0  0  0  0  0  0
   -1.3790   -5.5310   23.0200 C   0  0  0  0  0  0  0  0  0  0  0  0
   -0.9230   -6.5730   22.2270 C   0  0  0  0  0  0  0  0  0  0  0  0
    0.5430   -6.9840   22.3260 C   0  0  0  0  0  0  0  0  0  0  0  0
    0.9510   -8.0690   21.4880 O   0  0  0  0  0  0  0  0  0  0  0  0
    5.7850   -6.3040   22.1390 C   0  0  0  0  0  0  0  0  0  0  0  0
  1  2  1  0
  2  3  2  0
  2  4  1  0
  4  5  1  0
  5  6  1  0
  6  7  1  0
  7  8  1  0
  8  9  2  0
  8 10  2  0
  8 11  1  0
 11 12  2  0
 12 13  1  0
 13 14  2  0
 14 15  1  0
 11 16  1  0
 14 16  1  0
  7 17  1  0
 17 18  1  6
 18 19  1  0
 19 20  1  0
 20 21  2  0
 21 22  1  0
 22 23  2  0
 23 24  1  0
 20 25  1  0
 24 25  2  0
 25 26  1  0
  4 27  1  0
 17 27  1  0
M  END
