SAL-INS-1ea6d4ee-3-vinylsulfonamide
     RDKit          3D

 29 31  0  0  0  0  0  0  0  0999 V2000
    7.5320   -3.0250   18.7910 C   0  0  0  0  0  0  0  0  0  0  0  0
    7.1520   -2.5530   20.1790 C   0  0  0  0  0  0  0  0  0  0  0  0
    5.9330   -3.6480   20.8590 S   0  0  0  0  0  0  0  0  0  0  0  0
    4.7470   -2.9320   21.0890 O   0  0  0  0  0  0  0  0  0  0  0  0
    5.7910   -4.8810   20.1170 O   0  0  0  0  0  0  0  0  0  0  0  0
    6.5130   -3.8810   22.4320 N   0  0  0  0  0  0  0  0  0  0  0  0
    6.4880   -2.6390   23.2190 C   0  0  0  0  0  0  0  0  0  0  0  0
    6.8240   -2.8730   24.6970 C   0  0  0  0  0  0  0  0  0  0  0  0
    7.0920   -4.3170   24.9800 N   0  0  0  0  0  0  0  0  0  0  0  0
    5.7200   -5.3140   25.2630 S   0  0  0  0  0  0  0  0  0  0  0  0
    5.8420   -5.8740   26.5900 O   0  0  0  0  0  0  0  0  0  0  0  0
    5.5460   -6.1630   24.1030 O   0  0  0  0  0  0  0  0  0  0  0  0
    4.2050   -4.3760   25.3370 C   0  0  0  0  0  0  0  0  0  0  0  0
    3.9070   -2.9890   25.5420 C   0  0  0  0  0  0  0  0  0  0  0  0
    2.5580   -2.7420   25.5230 C   0  0  0  0  0  0  0  0  0  0  0  0
    1.8020   -3.9290   25.3050 C   0  0  0  0  0  0  0  0  0  0  0  0
    0.0950   -4.0660   25.2140 Cl  0  0  0  0  0  0  0  0  0  0  0  0
    2.7720   -5.2990   25.1270 S   0  0  0  0  0  0  0  0  0  0  0  0
    8.1550   -4.8720   24.0530 C   0  0  2  0  0  0  0  0  0  0  0  0
    9.5710   -4.2960   24.2990 C   0  0  0  0  0  0  0  0  0  0  0  0
    9.9610   -3.0710   23.4350 C   0  0  0  0  0  0  0  0  0  0  0  0
   10.9160   -2.1560   23.9730 C   0  0  0  0  0  0  0  0  0  0  0  0
   10.7260   -2.1210   25.2080 C   0  0  0  0  0  0  0  0  0  0  0  0
    9.9280   -2.9320   24.3200 C   0  0  0  0  0  0  0  0  0  0  0  0
   10.1760   -2.9570   22.8090 C   0  0  0  0  0  0  0  0  0  0  0  0
   11.2220   -2.1740   22.1560 C   0  0  0  0  0  0  0  0  0  0  0  0
   11.7690   -1.5540   23.1620 C   0  0  0  0  0  0  0  0  0  0  0  0
   12.7980   -0.6640   23.2390 O   0  0  0  0  0  0  0  0  0  0  0  0
    7.7220   -4.7000   22.5730 C   0  0  0  0  0  0  0  0  0  0  0  0
  1  2  1  0
  3  2  1  0
  3  4  2  0
  3  5  2  0
  3  6  1  0
  6  7  1  0
  7  8  1  0
  8  9  1  0
  9 10  1  0
 10 11  2  0
 10 12  2  0
 10 13  1  0
 13 14  2  0
 14 15  1  0
 15 16  2  0
 16 17  1  0
 13 18  1  0
 16 18  1  0
  9 19  1  0
 19 20  1  6
 20 21  1  0
 21 22  1  0
 22 23  2  0
 23 24  1  0
 24 25  2  0
 25 26  1  0
 22 27  1  0
 26 27  2  0
 27 28  1  0
  6 29  1  0
 19 29  1  0
M  END
