SAL-INS-1c7a5a55-3-nitrile
     RDKit          3D

 24 26  0  0  0  0  0  0  0  0999 V2000
    6.9770   -3.3430   19.7490 C   0  0  0  0  0  0  0  0  0  0  0  0
    5.9380   -3.2090   19.0240 N   0  0  0  0  0  0  0  0  0  0  0  0
    7.1550   -2.7560   21.0220 N   0  0  0  0  0  0  0  0  0  0  0  0
    6.4110   -3.1530   22.2120 C   0  0  0  0  0  0  0  0  0  0  0  0
    7.4060   -3.5630   23.3120 C   0  0  0  0  0  0  0  0  0  0  0  0
    6.8290   -4.3650   24.4770 C   0  0  0  0  0  0  0  0  0  0  0  0
    7.7740   -4.7300   25.4550 C   0  0  0  0  0  0  0  0  0  0  0  0
    7.3400   -5.4400   26.5880 C   0  0  0  0  0  0  0  0  0  0  0  0
    8.2160   -5.9530   27.2710 O   0  0  0  0  0  0  0  0  0  0  0  0
    5.9640   -5.5110   26.9150 N   0  0  0  0  0  0  0  0  0  0  0  0
    4.9940   -5.5030   25.8220 C   0  0  0  0  0  0  0  0  0  0  0  0
    5.5170   -6.0120   28.2330 C   0  0  0  0  0  0  0  0  0  0  0  0
    4.7860   -7.2090   28.1870 C   0  0  0  0  0  0  0  0  0  0  0  0
    6.7250   -6.1760   29.1420 C   0  0  0  0  0  0  0  0  0  0  0  0
    9.1330   -4.4010   25.3470 C   0  0  0  0  0  0  0  0  0  0  0  0
    9.6230   -3.6580   24.2830 C   0  0  0  0  0  0  0  0  0  0  0  0
    8.7620   -3.2370   23.2830 C   0  0  0  0  0  0  0  0  0  0  0  0
    9.3780   -2.4130   22.1900 C   0  0  2  0  0  0  0  0  0  0  0  0
   10.3250   -1.4590   22.6100 C   0  0  0  0  0  0  0  0  0  0  0  0
   10.0850   -0.4120   23.5010 C   0  0  0  0  0  0  0  0  0  0  0  0
   11.2770    0.2520   23.6230 N   0  0  0  0  0  0  0  0  0  0  0  0
   12.1940   -0.3960   22.8200 C   0  0  0  0  0  0  0  0  0  0  0  0
   11.6380   -1.4270   22.2070 N   0  0  0  0  0  0  0  0  0  0  0  0
    8.2330   -1.7670   21.3470 C   0  0  0  0  0  0  0  0  0  0  0  0
  1  2  2  3
  1  3  1  0
  3  4  1  0
  4  5  1  0
  5  6  1  0
  6  7  2  0
  7  8  1  0
  8  9  2  0
  8 10  1  0
 10 11  1  0
 10 12  1  0
 12 13  1  0
 12 14  1  0
  7 15  1  0
 15 16  2  0
  5 17  2  0
 16 17  1  0
 17 18  1  0
 18 19  1  1
 19 20  2  0
 20 21  1  0
 21 22  1  0
 19 23  1  0
 22 23  2  0
  3 24  1  0
 18 24  1  0
M  END
