SAL-INS-1ea6d4ee-4-vinylsulfonamide
     RDKit          3D

 30 32  0  0  0  0  0  0  0  0999 V2000
    7.2580   -3.0390   18.8610 C   0  0  0  0  0  0  0  0  0  0  0  0
    6.6400   -2.4030   20.0960 C   0  0  0  0  0  0  0  0  0  0  0  0
    5.5700   -3.5930   20.8940 S   0  0  0  0  0  0  0  0  0  0  0  0
    4.5440   -2.9900   21.6510 O   0  0  0  0  0  0  0  0  0  0  0  0
    5.1450   -4.6270   19.9660 O   0  0  0  0  0  0  0  0  0  0  0  0
    6.5890   -4.2580   22.0680 N   0  0  0  0  0  0  0  0  0  0  0  0
    6.4220   -5.6820   22.2930 C   0  0  0  0  0  0  0  0  0  0  0  0
    6.0210   -5.9730   23.7380 C   0  0  0  0  0  0  0  0  0  0  0  0
    5.1240   -4.9710   24.3810 N   0  0  0  0  0  0  0  0  0  0  0  0
    4.4870   -5.4050   25.9020 S   0  0  0  0  0  0  0  0  0  0  0  0
    5.4850   -5.2180   26.9380 O   0  0  0  0  0  0  0  0  0  0  0  0
    3.7740   -6.6540   25.7480 O   0  0  0  0  0  0  0  0  0  0  0  0
    3.2260   -4.1910   26.1610 C   0  0  0  0  0  0  0  0  0  0  0  0
    1.9640   -4.1800   25.4700 C   0  0  0  0  0  0  0  0  0  0  0  0
    1.0150   -3.1850   25.7150 C   0  0  0  0  0  0  0  0  0  0  0  0
    1.2420   -2.1220   26.6640 C   0  0  0  0  0  0  0  0  0  0  0  0
    0.1250   -0.8740   27.0100 Cl  0  0  0  0  0  0  0  0  0  0  0  0
    2.5760   -2.1210   27.4070 C   0  0  0  0  0  0  0  0  0  0  0  0
    3.5400   -3.2230   27.0890 C   0  0  0  0  0  0  0  0  0  0  0  0
    5.5580   -3.5300   24.2030 C   0  0  1  0  0  0  0  0  0  0  0  0
    5.8370   -2.9010   25.4330 C   0  0  0  0  0  0  0  0  0  0  0  0
    5.4010   -1.5670   25.6430 C   0  0  0  0  0  0  0  0  0  0  0  0
    5.2350   -1.2250   27.0010 C   0  0  0  0  0  0  0  0  0  0  0  0
    5.5300   -0.7510   28.3550 C   0  0  0  0  0  0  0  0  0  0  0  0
    6.8020   -0.2280   28.8790 C   0  0  0  0  0  0  0  0  0  0  0  0
    7.9980   -0.0810   28.1210 C   0  0  0  0  0  0  0  0  0  0  0  0
    7.7700   -0.4870   26.8720 C   0  0  0  0  0  0  0  0  0  0  0  0
    6.5070   -0.8320   27.0190 C   0  0  0  0  0  0  0  0  0  0  0  0
    6.5590   -1.1650   25.7040 O   0  0  0  0  0  0  0  0  0  0  0  0
    6.7890   -3.4710   23.2700 C   0  0  0  0  0  0  0  0  0  0  0  0
  1  2  1  0
  3  2  1  0
  3  4  2  0
  3  5  2  0
  3  6  1  0
  6  7  1  0
  7  8  1  0
  8  9  1  0
  9 10  1  0
 10 11  2  0
 10 12  2  0
 10 13  1  0
 13 14  2  0
 14 15  1  0
 15 16  2  0
 16 17  1  0
 16 18  1  0
 13 19  1  0
 18 19  2  0
  9 20  1  0
 20 21  1  1
 21 22  1  0
 22 23  1  0
 23 24  2  0
 24 25  1  0
 25 26  2  0
 26 27  1  0
 23 28  1  0
 27 28  2  0
 28 29  1  0
  6 30  1  0
 20 30  1  0
M  END
