SAL-INS-cba98abe-2
     RDKit          3D

 24 27  0  0  0  0  0  0  0  0999 V2000
    8.7030    0.9540   21.3190 O   0  0  0  0  0  0  0  0  0  0  0  0
    8.4730   -0.2530   21.3490 C   0  0  0  0  0  0  0  0  0  0  0  0
    7.1800   -0.7150   21.0550 N   0  0  0  0  0  0  0  0  0  0  0  0
    6.5330   -0.1180   20.0070 C   0  0  0  0  0  0  0  0  0  0  0  0
    6.9500   -0.2780   18.5750 C   0  0  0  0  0  0  0  0  0  0  0  0
    6.1980    0.3990   17.6850 N   0  0  0  0  0  0  0  0  0  0  0  0
    5.2830    1.0100   18.4870 C   0  0  0  0  0  0  0  0  0  0  0  0
    5.4430    0.7200   19.9710 N   0  0  0  0  0  0  0  0  0  0  0  0
    9.4360   -1.2370   21.6240 N   0  0  0  0  0  0  0  0  0  0  0  0
   10.5850   -0.7840   22.2440 C   0  0  0  0  0  0  0  0  0  0  0  0
   11.8400   -1.1730   22.4810 C   0  0  0  0  0  0  0  0  0  0  0  0
   12.1150    0.0240   23.1420 C   0  0  0  0  0  0  0  0  0  0  0  0
   10.6930    0.3440   22.8350 N   0  0  0  0  0  0  0  0  0  0  0  0
   10.0750    1.5830   23.2190 C   0  0  0  0  0  0  0  0  0  0  0  0
   11.0430    2.2420   23.8310 C   0  0  0  0  0  0  0  0  0  0  0  0
   10.7010    3.6850   24.3690 C   0  0  0  0  0  0  0  0  0  0  0  0
   11.2030    4.7160   23.4320 C   0  0  0  0  0  0  0  0  0  0  0  0
   10.3140    5.9620   23.6070 C   0  0  0  0  0  0  0  0  0  0  0  0
   10.1040    6.6700   24.7320 N   0  0  0  0  0  0  0  0  0  0  0  0
    9.2390    7.6520   24.3530 C   0  0  0  0  0  0  0  0  0  0  0  0
    8.9190    7.5320   22.9520 C   0  0  0  0  0  0  0  0  0  0  0  0
    9.6160    6.4620   22.5140 N   0  0  0  0  0  0  0  0  0  0  0  0
   11.9480    1.2790   23.6830 C   0  0  0  0  0  0  0  0  0  0  0  0
   10.3680    0.7620   22.9170 S   0  0  0  0  0  0  0  0  0  0  0  0
  1  2  2  0
  2  3  1  0
  3  4  1  0
  4  5  2  0
  5  6  1  0
  6  7  1  0
  4  8  1  0
  7  8  2  0
  2  9  1  0
  9 10  1  0
 10 11  2  0
 11 12  1  0
 12 13  1  0
 13 14  1  0
 14 15  2  0
 15 16  1  0
 16 17  1  0
 17 18  1  0
 18 19  2  0
 19 20  1  0
 20 21  2  0
 18 22  1  0
 21 22  1  0
 12 23  2  0
 15 23  1  0
 10 24  1  0
 23 24  1  0
M  END
