SAL-INS-1c7a5a55-1-vinylsulfonamide
     RDKit          3D

 28 30  0  0  0  0  0  0  0  0999 V2000
    7.9150   -3.4690   19.5520 C   0  0  0  0  0  0  0  0  0  0  0  0
    7.0420   -2.5440   18.7240 C   0  0  0  0  0  0  0  0  0  0  0  0
    5.6570   -2.5190   19.7890 S   0  0  0  0  0  0  0  0  0  0  0  0
    5.0250   -3.8370   19.7180 O   0  0  0  0  0  0  0  0  0  0  0  0
    4.9480   -1.2790   19.5810 O   0  0  0  0  0  0  0  0  0  0  0  0
    6.5540   -2.3500   21.2090 N   0  0  0  0  0  0  0  0  0  0  0  0
    6.6960   -3.5670   21.9180 C   0  0  0  0  0  0  0  0  0  0  0  0
    7.1160   -3.3240   23.4070 C   0  0  0  0  0  0  0  0  0  0  0  0
    8.0110   -2.8150   24.3390 C   0  0  0  0  0  0  0  0  0  0  0  0
    6.8420   -3.4060   24.5590 C   0  0  0  0  0  0  0  0  0  0  0  0
    6.1590   -3.6300   25.8790 C   0  0  0  0  0  0  0  0  0  0  0  0
    4.9430   -3.7370   25.9230 O   0  0  0  0  0  0  0  0  0  0  0  0
    7.1080   -3.6670   26.9910 N   0  0  0  0  0  0  0  0  0  0  0  0
    7.9880   -2.4580   27.1310 C   0  0  0  0  0  0  0  0  0  0  0  0
    7.7280   -4.9600   27.1190 C   0  0  0  0  0  0  0  0  0  0  0  0
    7.1620   -5.6250   28.1850 C   0  0  0  0  0  0  0  0  0  0  0  0
    9.2380   -4.8590   27.2890 C   0  0  0  0  0  0  0  0  0  0  0  0
    6.3260   -3.7910   23.2890 C   0  0  0  0  0  0  0  0  0  0  0  0
    7.0120   -3.5160   21.9740 C   0  0  0  0  0  0  0  0  0  0  0  0
    8.0790   -2.7940   22.8200 C   0  0  0  0  0  0  0  0  0  0  0  0
    8.8520   -2.3710   21.7860 C   0  0  2  0  0  0  0  0  0  0  0  0
   10.0290   -1.6720   22.1600 C   0  0  0  0  0  0  0  0  0  0  0  0
    9.9230   -0.5570   23.0210 C   0  0  0  0  0  0  0  0  0  0  0  0
   11.1620    0.2230   23.4680 C   0  0  0  0  0  0  0  0  0  0  0  0
   12.5230   -0.2250   22.9680 C   0  0  0  0  0  0  0  0  0  0  0  0
   12.5250   -1.4540   22.0360 C   0  0  0  0  0  0  0  0  0  0  0  0
   11.3140   -2.0870   21.6940 C   0  0  0  0  0  0  0  0  0  0  0  0
    7.7910   -1.5270   21.0970 C   0  0  0  0  0  0  0  0  0  0  0  0
  1  2  1  0
  3  2  1  0
  3  4  2  0
  3  5  2  0
  3  6  1  0
  6  7  1  0
  7  8  1  0
  8  9  1  0
  9 10  2  0
 10 11  1  0
 11 12  2  0
 11 13  1  0
 13 14  1  0
 13 15  1  0
 15 16  1  0
 15 17  1  0
 10 18  1  0
 18 19  2  0
  8 20  2  0
 19 20  1  0
 20 21  1  0
 21 22  1  1
 22 23  2  0
 23 24  1  0
 24 25  2  0
 25 26  1  0
 22 27  1  0
 26 27  2  0
  6 28  1  0
 21 28  1  0
M  END
