SAM-UNK-2684b532-12
     RDKit          3D

 21 22  0  0  0  0  0  0  0  0999 V2000
    8.5680    0.8660   21.2160 O   0  0  0  0  0  0  0  0  0  0  0  0
    8.0000   -0.1590   21.5810 C   0  0  0  0  0  0  0  0  0  0  0  0
    8.5820   -0.9130   22.7180 C   0  0  0  0  0  0  0  0  0  0  0  0
   10.0270   -0.5690   22.8690 C   0  0  0  0  0  0  0  0  0  0  0  0
   10.3950    0.5730   23.8000 C   0  0  0  0  0  0  0  0  0  0  0  0
   11.8510    0.9040   23.9140 C   0  0  0  0  0  0  0  0  0  0  0  0
   12.8470    0.0880   23.1080 C   0  0  0  0  0  0  0  0  0  0  0  0
   12.3200   -1.0130   22.2380 C   0  0  0  0  0  0  0  0  0  0  0  0
   13.2720   -2.0140   21.2760 Cl  0  0  0  0  0  0  0  0  0  0  0  0
   10.9770   -1.2780   22.1620 C   0  0  0  0  0  0  0  0  0  0  0  0
    6.8560   -0.6590   21.0170 N   0  0  0  0  0  0  0  0  0  0  0  0
    6.2630    0.0390   20.0020 C   0  0  0  0  0  0  0  0  0  0  0  0
    6.9220   -0.0460   18.7770 C   0  0  0  0  0  0  0  0  0  0  0  0
    6.3970    0.6740   17.6280 N   0  0  0  0  0  0  0  0  0  0  0  0
    5.1740    1.4540   17.8490 C   0  0  0  0  0  0  0  0  0  0  0  0
    4.5750    1.4810   19.0880 C   0  0  0  0  0  0  0  0  0  0  0  0
    5.0810    0.7960   20.1780 C   0  0  0  0  0  0  0  0  0  0  0  0
    4.3480    0.8790   21.5470 C   0  0  0  0  0  0  0  0  0  0  0  0
    2.9960    0.9850   21.4260 F   0  0  0  0  0  0  0  0  0  0  0  0
    4.5550   -0.2090   22.3430 F   0  0  0  0  0  0  0  0  0  0  0  0
    4.7360    1.9550   22.2920 F   0  0  0  0  0  0  0  0  0  0  0  0
  1  2  2  0
  2  3  1  0
  3  4  1  0
  4  5  2  0
  5  6  1  0
  6  7  2  0
  7  8  1  0
  8  9  1  0
  4 10  1  0
  8 10  2  0
  2 11  1  0
 11 12  1  0
 12 13  2  0
 13 14  1  0
 14 15  2  0
 15 16  1  0
 12 17  1  0
 16 17  2  0
 17 18  1  0
 18 19  1  0
 18 20  1  0
 18 21  1  0
M  END
