SAM-UNK-2684b532-8
     RDKit          3D

 25 27  0  0  0  0  0  0  0  0999 V2000
    4.2110    1.0070   21.8550 C   0  0  0  0  0  0  0  0  0  0  0  0
    4.9510    0.7690   20.5690 C   0  0  0  0  0  0  0  0  0  0  0  0
    4.3530    1.2200   19.2580 C   0  0  0  0  0  0  0  0  0  0  0  0
    5.1310    0.9620   17.9970 C   0  0  0  0  0  0  0  0  0  0  0  0
    6.3290    0.3520   17.9160 N   0  0  0  0  0  0  0  0  0  0  0  0
    6.8480   -0.0500   19.1020 C   0  0  0  0  0  0  0  0  0  0  0  0
    6.1990    0.1410   20.4940 C   0  0  0  0  0  0  0  0  0  0  0  0
    6.9610   -0.3450   21.6420 N   0  0  0  0  0  0  0  0  0  0  0  0
    8.0300    0.6260   21.9010 C   0  0  0  0  0  0  0  0  0  0  0  0
    8.3960    1.5660   20.8940 O   0  0  0  0  0  0  0  0  0  0  0  0
    8.6380    0.6190   23.1060 N   0  0  0  0  0  0  0  0  0  0  0  0
    9.7790    1.3460   23.0810 C   0  0  0  0  0  0  0  0  0  0  0  0
    9.7690    2.6010   22.4940 C   0  0  0  0  0  0  0  0  0  0  0  0
   10.9010    3.3830   22.4180 C   0  0  0  0  0  0  0  0  0  0  0  0
   12.1070    2.9590   22.9170 C   0  0  0  0  0  0  0  0  0  0  0  0
   12.1440    1.7100   23.5190 C   0  0  0  0  0  0  0  0  0  0  0  0
   11.0050    0.9220   23.6080 C   0  0  0  0  0  0  0  0  0  0  0  0
   11.1600   -0.4180   24.3030 C   0  0  0  0  0  0  0  0  0  0  0  0
   12.3170   -0.9880   23.8800 N   0  0  0  0  0  0  0  0  0  0  0  0
   12.1190   -2.3150   23.5240 C   0  0  0  0  0  0  0  0  0  0  0  0
   11.4570   -2.1920   22.1390 C   0  0  0  0  0  0  0  0  0  0  0  0
   12.4920   -2.1760   21.2690 C   0  0  0  0  0  0  0  0  0  0  0  0
   13.1130   -3.4560   21.2740 O   0  0  0  0  0  0  0  0  0  0  0  0
   13.3890   -1.3090   21.7840 C   0  0  0  0  0  0  0  0  0  0  0  0
   12.8280   -0.3480   22.7830 C   0  0  0  0  0  0  0  0  0  0  0  0
  1  2  1  0
  2  3  2  0
  3  4  1  0
  4  5  2  0
  5  6  1  0
  2  7  1  0
  6  7  2  0
  7  8  1  0
  8  9  1  0
  9 10  2  0
  9 11  1  0
 11 12  1  0
 12 13  2  0
 13 14  1  0
 14 15  2  0
 15 16  1  0
 12 17  1  0
 16 17  2  0
 17 18  1  0
 18 19  1  0
 19 20  1  0
 20 21  1  0
 21 22  1  0
 22 23  1  0
 22 24  1  0
 19 25  1  0
 24 25  1  0
M  END
