SAM-UNK-83e03154-2
     RDKit          3D

 23 24  0  0  0  0  0  0  0  0999 V2000
    8.9900    6.7850   22.6900 C   0  0  0  0  0  0  0  0  0  0  0  0
   10.1940    6.2190   23.4220 C   0  0  0  0  0  0  0  0  0  0  0  0
   10.4000    6.4460   24.6070 O   0  0  0  0  0  0  0  0  0  0  0  0
   10.9750    5.4140   22.5080 N   0  0  0  0  0  0  0  0  0  0  0  0
   12.2610    4.9370   22.7100 C   0  0  0  0  0  0  0  0  0  0  0  0
   12.6760    3.6580   23.0080 C   0  0  0  0  0  0  0  0  0  0  0  0
   11.7960    2.5380   23.1880 C   0  0  0  0  0  0  0  0  0  0  0  0
   10.5620    2.8180   23.6930 C   0  0  0  0  0  0  0  0  0  0  0  0
    9.8240    1.6160   23.7790 N   0  0  0  0  0  0  0  0  0  0  0  0
   10.6100    0.4930   23.3070 C   0  0  0  0  0  0  0  0  0  0  0  0
   10.3400   -0.9770   23.1480 C   0  0  0  0  0  0  0  0  0  0  0  0
    8.9780   -1.5980   23.4900 C   0  0  0  0  0  0  0  0  0  0  0  0
    9.1010   -2.9550   24.1250 C   0  0  0  0  0  0  0  0  0  0  0  0
    8.0460   -3.4720   24.8490 N   0  0  0  0  0  0  0  0  0  0  0  0
    8.2900   -4.5640   26.1040 S   0  0  0  0  0  0  0  0  0  0  0  0
    6.6410   -5.1330   26.4570 C   0  0  0  0  0  0  0  0  0  0  0  0
    9.0370   -5.6670   25.5620 O   0  0  0  0  0  0  0  0  0  0  0  0
    8.7530   -3.8580   27.2620 O   0  0  0  0  0  0  0  0  0  0  0  0
   11.3310   -1.7890   22.6650 C   0  0  0  0  0  0  0  0  0  0  0  0
   12.6430   -1.2340   22.3040 C   0  0  0  0  0  0  0  0  0  0  0  0
   13.5400   -2.0970   21.8340 F   0  0  0  0  0  0  0  0  0  0  0  0
   12.8620    0.2750   22.4850 C   0  0  0  0  0  0  0  0  0  0  0  0
   11.8760    1.0960   22.9540 C   0  0  0  0  0  0  0  0  0  0  0  0
  1  2  1  0
  2  3  2  0
  2  4  1  0
  4  5  1  0
  5  6  2  3
  6  7  1  0
  7  8  2  0
  8  9  1  0
  9 10  1  0
 10 11  1  0
 11 12  1  0
 12 13  1  0
 13 14  1  0
 15 14  1  0
 15 16  1  0
 15 17  2  0
 15 18  2  0
 11 19  2  0
 19 20  1  0
 20 21  1  0
 20 22  2  0
  7 23  1  0
 10 23  2  0
 22 23  1  0
M  END
