SAM-UNK-2684b532-3
     RDKit          3D

 24 26  0  0  0  0  0  0  0  0999 V2000
    9.2260   -5.2770   25.7970 C   0  0  0  0  0  0  0  0  0  0  0  0
    8.9570   -3.9000   25.2230 C   0  0  0  0  0  0  0  0  0  0  0  0
    8.2710   -2.9910   25.9820 N   0  0  0  0  0  0  0  0  0  0  0  0
    8.1370   -1.8070   25.3020 N   0  0  0  0  0  0  0  0  0  0  0  0
    8.7040   -1.8180   24.0540 C   0  0  0  0  0  0  0  0  0  0  0  0
    8.6650   -0.5720   23.1290 C   0  0  2  0  0  0  0  0  0  0  0  0
    8.1150   -0.7290   21.7190 C   0  0  0  0  0  0  0  0  0  0  0  0
    8.9210   -0.8180   20.8370 O   0  0  0  0  0  0  0  0  0  0  0  0
    6.8030   -0.6880   21.3380 N   0  0  0  0  0  0  0  0  0  0  0  0
    6.3780   -0.1040   20.2300 C   0  0  0  0  0  0  0  0  0  0  0  0
    6.9490   -0.0870   18.8230 C   0  0  0  0  0  0  0  0  0  0  0  0
    6.4230    0.5730   17.7660 N   0  0  0  0  0  0  0  0  0  0  0  0
    5.2120    1.3340   17.9320 C   0  0  0  0  0  0  0  0  0  0  0  0
    4.6080    1.3720   19.1720 C   0  0  0  0  0  0  0  0  0  0  0  0
    5.0850    0.7250   20.3100 C   0  0  0  0  0  0  0  0  0  0  0  0
    4.3650    0.8600   21.4880 C   0  0  0  0  0  0  0  0  0  0  0  0
    9.9860   -0.0940   23.1620 C   0  0  0  0  0  0  0  0  0  0  0  0
   10.4990    1.0750   23.6800 C   0  0  0  0  0  0  0  0  0  0  0  0
   11.9830    1.3870   23.5580 C   0  0  0  0  0  0  0  0  0  0  0  0
   12.9040    0.4140   22.8850 C   0  0  0  0  0  0  0  0  0  0  0  0
   12.2170   -0.8420   22.3590 C   0  0  0  0  0  0  0  0  0  0  0  0
   13.1240   -2.0250   21.5590 Cl  0  0  0  0  0  0  0  0  0  0  0  0
   10.8390   -1.0280   22.5170 C   0  0  0  0  0  0  0  0  0  0  0  0
    9.4370   -3.3310   23.6780 S   0  0  0  0  0  0  0  0  0  0  0  0
  1  2  1  0
  2  3  2  0
  3  4  1  0
  4  5  2  0
  5  6  1  0
  6  7  1  6
  7  8  2  0
  7  9  1  0
  9 10  1  0
 10 11  2  0
 11 12  1  0
 12 13  2  0
 13 14  1  0
 10 15  1  0
 14 15  2  0
 15 16  1  0
  6 17  1  0
 17 18  2  0
 18 19  1  0
 19 20  2  0
 20 21  1  0
 21 22  1  0
 17 23  1  0
 21 23  2  0
  2 24  1  0
  5 24  1  0
M  END
