SAM-UNK-2684b532-14
     RDKit          3D

 19 21  0  0  0  0  0  0  0  0999 V2000
    8.5180    1.0220   21.3970 O   0  0  0  0  0  0  0  0  0  0  0  0
    8.1210   -0.1330   21.5020 C   0  0  0  0  0  0  0  0  0  0  0  0
    8.9160   -1.1060   22.3380 C   0  0  0  0  0  0  0  0  0  0  0  0
   10.2770   -0.5230   22.5890 C   0  0  0  0  0  0  0  0  0  0  0  0
   11.5310   -1.3850   22.4500 C   0  0  0  0  0  0  0  0  0  0  0  0
   12.8600   -0.7060   22.6910 C   0  0  0  0  0  0  0  0  0  0  0  0
   12.8320    0.7830   23.0430 C   0  0  0  0  0  0  0  0  0  0  0  0
   11.5170    1.5080   23.1490 C   0  0  0  0  0  0  0  0  0  0  0  0
   11.3590    3.1820   23.5060 Cl  0  0  0  0  0  0  0  0  0  0  0  0
   10.3390    0.8270   22.9290 C   0  0  0  0  0  0  0  0  0  0  0  0
    7.0100   -0.5940   20.8560 N   0  0  0  0  0  0  0  0  0  0  0  0
    7.2320   -1.6220   19.9720 C   0  0  0  0  0  0  0  0  0  0  0  0
    7.1640   -1.1870   18.6290 C   0  0  0  0  0  0  0  0  0  0  0  0
    6.3880   -0.0940   18.6830 C   0  0  0  0  0  0  0  0  0  0  0  0
    5.7560    0.6520   17.7520 C   0  0  0  0  0  0  0  0  0  0  0  0
    5.0500    1.6520   18.3220 C   0  0  0  0  0  0  0  0  0  0  0  0
    4.7080    2.2070   19.2630 N   0  0  0  0  0  0  0  0  0  0  0  0
    5.3640    1.4930   20.4060 C   0  0  0  0  0  0  0  0  0  0  0  0
    6.2420    0.2810   19.9860 C   0  0  0  0  0  0  0  0  0  0  0  0
  1  2  2  0
  2  3  1  0
  3  4  1  0
  4  5  2  0
  5  6  1  0
  6  7  2  0
  7  8  1  0
  8  9  1  0
  4 10  1  0
  8 10  2  0
  2 11  1  0
 11 12  1  0
 12 13  1  0
 13 14  1  0
 14 15  1  0
 15 16  2  0
 16 17  1  0
 17 18  2  0
 11 19  1  0
 14 19  2  0
 18 19  1  0
M  END
