SAM-UNK-2684b532-1
     RDKit          3D

 24 26  0  0  0  0  0  0  0  0999 V2000
    4.4910    0.7110   21.7170 C   0  0  0  0  0  0  0  0  0  0  0  0
    5.1670    0.6530   20.3810 C   0  0  0  0  0  0  0  0  0  0  0  0
    4.5930    1.4260   19.2140 C   0  0  0  0  0  0  0  0  0  0  0  0
    5.3040    1.3490   17.8920 C   0  0  0  0  0  0  0  0  0  0  0  0
    6.4210    0.6370   17.6650 N   0  0  0  0  0  0  0  0  0  0  0  0
    6.9200   -0.0570   18.7160 C   0  0  0  0  0  0  0  0  0  0  0  0
    6.3270   -0.0880   20.1360 C   0  0  0  0  0  0  0  0  0  0  0  0
    7.0290   -0.8940   21.1290 N   0  0  0  0  0  0  0  0  0  0  0  0
    8.2950   -0.3120   21.5690 C   0  0  0  0  0  0  0  0  0  0  0  0
    8.6990    0.9980   21.1850 O   0  0  0  0  0  0  0  0  0  0  0  0
    9.0730   -1.1420   22.3960 C   0  0  1  0  0  0  0  0  0  0  0  0
   10.3590   -0.6890   22.6200 C   0  0  0  0  0  0  0  0  0  0  0  0
   10.5490    0.4530   23.4220 C   0  0  0  0  0  0  0  0  0  0  0  0
   11.8090    0.9850   23.6860 C   0  0  0  0  0  0  0  0  0  0  0  0
   12.9250    0.3670   23.1420 C   0  0  0  0  0  0  0  0  0  0  0  0
   12.8760   -0.7520   22.3570 C   0  0  0  0  0  0  0  0  0  0  0  0
   11.4880   -1.3160   22.0790 C   0  0  0  0  0  0  0  0  0  0  0  0
    8.3870   -1.5050   23.5640 C   0  0  0  0  0  0  0  0  0  0  0  0
    8.5140   -2.8980   24.1920 C   0  0  0  0  0  0  0  0  0  0  0  0
    7.8530   -3.2600   25.3430 C   0  0  0  0  0  0  0  0  0  0  0  0
    7.0280   -2.3820   26.0020 C   0  0  0  0  0  0  0  0  0  0  0  0
    6.7910   -0.9760   25.5130 C   0  0  0  0  0  0  0  0  0  0  0  0
    5.7520    0.1110   26.3460 Cl  0  0  0  0  0  0  0  0  0  0  0  0
    7.5430   -0.5830   24.2220 C   0  0  0  0  0  0  0  0  0  0  0  0
  1  2  1  0
  2  3  2  0
  3  4  1  0
  4  5  2  0
  5  6  1  0
  2  7  1  0
  6  7  2  0
  7  8  1  0
  8  9  1  0
  9 10  2  0
 11  9  1  1
 11 12  1  0
 12 13  2  0
 13 14  1  0
 14 15  2  0
 15 16  1  0
 12 17  1  0
 16 17  2  0
 11 18  1  0
 18 19  2  0
 19 20  1  0
 20 21  2  0
 21 22  1  0
 22 23  1  0
 18 24  1  0
 22 24  2  0
M  END
