SAM-UNK-2684b532-7
     RDKit          3D

 19 20  0  0  0  0  0  0  0  0999 V2000
    8.5980   -2.3970   22.8380 C   0  0  0  0  0  0  0  0  0  0  0  0
    8.6650   -0.8860   22.8430 C   0  0  2  0  0  0  0  0  0  0  0  0
    8.0430   -0.1990   21.6440 C   0  0  0  0  0  0  0  0  0  0  0  0
    8.5450    0.8410   21.1970 O   0  0  0  0  0  0  0  0  0  0  0  0
    6.9360   -0.8010   21.1500 N   0  0  0  0  0  0  0  0  0  0  0  0
    6.2520   -0.0280   20.1290 C   0  0  0  0  0  0  0  0  0  0  0  0
    6.9450   -0.0580   18.7830 C   0  0  0  0  0  0  0  0  0  0  0  0
    6.4230    0.6790   17.6180 N   0  0  0  0  0  0  0  0  0  0  0  0
    5.1840    1.4220   17.9010 C   0  0  0  0  0  0  0  0  0  0  0  0
    4.5500    1.3970   19.2550 C   0  0  0  0  0  0  0  0  0  0  0  0
    5.0760    0.6900   20.3340 C   0  0  0  0  0  0  0  0  0  0  0  0
    4.2550    0.7400   21.8590 Cl  0  0  0  0  0  0  0  0  0  0  0  0
   10.0000   -0.5490   22.9730 C   0  0  0  0  0  0  0  0  0  0  0  0
   10.4600    0.4490   23.8430 C   0  0  0  0  0  0  0  0  0  0  0  0
   11.8120    0.7770   23.9410 C   0  0  0  0  0  0  0  0  0  0  0  0
   12.7340    0.0970   23.1590 C   0  0  0  0  0  0  0  0  0  0  0  0
   12.3560   -0.8960   22.2860 C   0  0  0  0  0  0  0  0  0  0  0  0
   13.3560   -1.7960   21.2790 Cl  0  0  0  0  0  0  0  0  0  0  0  0
   10.8990   -1.2340   22.1910 C   0  0  0  0  0  0  0  0  0  0  0  0
  2  1  1  6
  2  3  1  0
  3  4  2  0
  3  5  1  0
  5  6  1  0
  6  7  2  0
  7  8  1  0
  8  9  2  0
  9 10  1  0
  6 11  1  0
 10 11  2  0
 11 12  1  0
  2 13  1  0
 13 14  2  0
 14 15  1  0
 15 16  2  0
 16 17  1  0
 17 18  1  0
 13 19  1  0
 17 19  2  0
M  END
