SAM-UNK-2684b532-2
     RDKit          3D

 24 26  0  0  0  0  0  0  0  0999 V2000
    4.4840    0.7620   21.6640 C   0  0  0  0  0  0  0  0  0  0  0  0
    5.1630    0.7230   20.3290 C   0  0  0  0  0  0  0  0  0  0  0  0
    4.5630    1.4700   19.1610 C   0  0  0  0  0  0  0  0  0  0  0  0
    5.2710    1.4050   17.8390 C   0  0  0  0  0  0  0  0  0  0  0  0
    6.4070    0.7230   17.6070 N   0  0  0  0  0  0  0  0  0  0  0  0
    6.9270    0.0600   18.6610 C   0  0  0  0  0  0  0  0  0  0  0  0
    6.3450    0.0240   20.0750 C   0  0  0  0  0  0  0  0  0  0  0  0
    7.0820   -0.7510   21.0550 N   0  0  0  0  0  0  0  0  0  0  0  0
    8.2710   -0.1080   21.6200 C   0  0  0  0  0  0  0  0  0  0  0  0
    8.7930    1.1560   21.1690 O   0  0  0  0  0  0  0  0  0  0  0  0
    8.8490   -0.8190   22.6150 N   0  0  0  0  0  0  0  0  0  0  0  0
   10.1760   -0.5740   22.7660 C   0  0  0  0  0  0  0  0  0  0  0  0
   10.5500    0.4770   23.6040 C   0  0  0  0  0  0  0  0  0  0  0  0
   11.8610    0.8530   23.8240 C   0  0  0  0  0  0  0  0  0  0  0  0
   12.8870    0.1720   23.1990 C   0  0  0  0  0  0  0  0  0  0  0  0
   12.5370   -0.8880   22.3670 C   0  0  0  0  0  0  0  0  0  0  0  0
   11.2200   -1.2800   22.1330 C   0  0  0  0  0  0  0  0  0  0  0  0
    8.3990   -2.1250   22.9970 C   0  0  0  0  0  0  0  0  0  0  0  0
    7.3610   -2.8990   22.1590 C   0  0  0  0  0  0  0  0  0  0  0  0
    6.9080   -4.2890   22.6020 C   0  0  0  0  0  0  0  0  0  0  0  0
    7.4140   -4.8560   23.7410 C   0  0  0  0  0  0  0  0  0  0  0  0
    8.3370   -4.1870   24.5100 C   0  0  0  0  0  0  0  0  0  0  0  0
    8.8890   -5.0070   25.9180 Cl  0  0  0  0  0  0  0  0  0  0  0  0
    8.8550   -2.7990   24.1620 C   0  0  0  0  0  0  0  0  0  0  0  0
  1  2  1  0
  2  3  2  0
  3  4  1  0
  4  5  2  0
  5  6  1  0
  2  7  1  0
  6  7  2  0
  7  8  1  0
  8  9  1  0
  9 10  2  0
  9 11  1  0
 11 12  1  0
 12 13  2  0
 13 14  1  0
 14 15  2  0
 15 16  1  0
 12 17  1  0
 16 17  2  0
 11 18  1  0
 18 19  2  0
 19 20  1  0
 20 21  2  0
 21 22  1  0
 22 23  1  0
 18 24  1  0
 22 24  2  0
M  END
