SAN-PRS-3c4a6997-10
     RDKit          3D

 16 17  0  0  0  0  0  0  0  0999 V2000
    8.7600    1.1860   24.9800 C   0  0  0  0  0  0  0  0  0  0  0  0
    9.9470    1.3940   24.3080 N   0  0  0  0  0  0  0  0  0  0  0  0
   10.4520    2.6180   24.0170 C   0  0  0  0  0  0  0  0  0  0  0  0
    9.9230    3.6880   24.3030 O   0  0  0  0  0  0  0  0  0  0  0  0
   11.6530    2.3900   23.3460 C   0  0  0  0  0  0  0  0  0  0  0  0
   12.5140    3.4050   22.8450 C   0  0  0  0  0  0  0  0  0  0  0  0
   12.1790    4.7110   23.5230 N   0  0  0  0  0  0  0  0  0  0  0  0
   11.7380    5.7160   22.7490 C   0  0  0  0  0  0  0  0  0  0  0  0
   10.5240    6.2300   23.1580 N   0  0  0  0  0  0  0  0  0  0  0  0
   12.4690    6.1910   21.6300 O   0  0  0  0  0  0  0  0  0  0  0  0
   11.9460    1.0370   23.1970 C   0  0  0  0  0  0  0  0  0  0  0  0
   12.9790    0.2850   22.6370 C   0  0  0  0  0  0  0  0  0  0  0  0
   12.9190   -1.2420   22.6410 C   0  0  0  0  0  0  0  0  0  0  0  0
   11.8470   -1.8750   23.2230 C   0  0  0  0  0  0  0  0  0  0  0  0
   10.7980   -1.0450   23.8160 C   0  0  0  0  0  0  0  0  0  0  0  0
   10.8660    0.3500   23.7900 C   0  0  0  0  0  0  0  0  0  0  0  0
  1  2  1  0
  2  3  1  0
  3  4  1  0
  3  5  2  0
  5  6  1  0
  6  7  1  0
  7  8  1  0
  8  9  1  0
  8 10  2  0
  5 11  1  0
 11 12  1  0
 12 13  2  0
 13 14  1  0
 14 15  2  0
  2 16  1  0
 11 16  2  0
 15 16  1  0
M  END
