SAN-PRS-3c4a6997-2
     RDKit          3D

 15 16  0  0  0  0  0  0  0  0999 V2000
    9.0540    6.6490   22.5520 C   0  0  0  0  0  0  0  0  0  0  0  0
   10.2590    6.1820   23.3330 C   0  0  0  0  0  0  0  0  0  0  0  0
   10.3030    6.3170   24.5600 O   0  0  0  0  0  0  0  0  0  0  0  0
   11.2830    5.5980   22.6010 N   0  0  0  0  0  0  0  0  0  0  0  0
   12.2940    4.8310   23.3320 C   0  0  0  0  0  0  0  0  0  0  0  0
   12.5300    3.5520   22.7340 C   0  0  0  0  0  0  0  0  0  0  0  0
   11.7230    2.5360   23.2370 C   0  0  0  0  0  0  0  0  0  0  0  0
   10.5420    2.7610   23.8900 C   0  0  0  0  0  0  0  0  0  0  0  0
    9.9850    1.5580   24.2350 N   0  0  0  0  0  0  0  0  0  0  0  0
   10.8350    0.5490   23.7880 C   0  0  0  0  0  0  0  0  0  0  0  0
   10.7870   -0.9810   23.8420 C   0  0  0  0  0  0  0  0  0  0  0  0
   11.8230   -1.7080   23.2810 C   0  0  0  0  0  0  0  0  0  0  0  0
   12.9460   -0.9870   22.6590 C   0  0  0  0  0  0  0  0  0  0  0  0
   12.9960    0.4130   22.6200 C   0  0  0  0  0  0  0  0  0  0  0  0
   11.9480    1.1440   23.1650 C   0  0  0  0  0  0  0  0  0  0  0  0
  1  2  1  0
  2  3  2  0
  2  4  1  0
  4  5  1  0
  5  6  1  0
  6  7  1  0
  7  8  2  0
  8  9  1  0
  9 10  1  0
 10 11  1  0
 11 12  2  0
 12 13  1  0
 13 14  2  0
  7 15  1  0
 10 15  2  0
 14 15  1  0
M  END
