SAN-PRS-3c4a6997-6
     RDKit          3D

 16 17  0  0  0  0  0  0  0  0999 V2000
    8.7820    1.1450   24.8120 C   0  0  0  0  0  0  0  0  0  0  0  0
    9.9940    1.3730   24.1990 N   0  0  0  0  0  0  0  0  0  0  0  0
   10.5380    2.6050   23.9730 C   0  0  0  0  0  0  0  0  0  0  0  0
   10.0020    3.6700   24.2860 O   0  0  0  0  0  0  0  0  0  0  0  0
   11.7850    2.4130   23.3360 C   0  0  0  0  0  0  0  0  0  0  0  0
   12.5440    3.4710   23.0000 O   0  0  0  0  0  0  0  0  0  0  0  0
   12.0850    4.5980   23.7190 N   0  0  0  0  0  0  0  0  0  0  0  0
   11.7980    5.6510   22.9420 C   0  0  0  0  0  0  0  0  0  0  0  0
   10.5860    6.2530   23.1060 N   0  0  0  0  0  0  0  0  0  0  0  0
   13.0220    6.1210   21.8600 S   0  0  0  0  0  0  0  0  0  0  0  0
   12.0420    1.0140   23.1460 C   0  0  0  0  0  0  0  0  0  0  0  0
   13.0590    0.2250   22.6020 C   0  0  0  0  0  0  0  0  0  0  0  0
   12.9260   -1.1660   22.5780 C   0  0  0  0  0  0  0  0  0  0  0  0
   11.6920   -1.8540   23.1570 C   0  0  0  0  0  0  0  0  0  0  0  0
   10.6940   -1.0790   23.7120 C   0  0  0  0  0  0  0  0  0  0  0  0
   10.9320    0.3720   23.6710 C   0  0  0  0  0  0  0  0  0  0  0  0
  1  2  1  0
  2  3  1  0
  3  4  1  0
  3  5  2  0
  5  6  1  0
  6  7  1  0
  7  8  1  0
  8  9  1  0
  8 10  2  0
  5 11  1  0
 11 12  1  0
 12 13  2  0
 13 14  1  0
 14 15  2  0
  2 16  1  0
 11 16  2  0
 15 16  1  0
M  END
