SAN-PRS-52b81272-1
     RDKit          3D

 16 17  0  0  0  0  0  0  0  0999 V2000
    7.1290   -1.3750   22.2060 O   0  0  0  0  0  0  0  0  0  0  0  0
    7.6360   -0.4980   21.5110 C   0  0  0  0  0  0  0  0  0  0  0  0
    8.9920    0.0200   21.7210 N   0  0  0  0  0  0  0  0  0  0  0  0
    9.3440    0.0730   23.1440 C   0  0  0  0  0  0  0  0  0  0  0  0
   10.4300   -0.7460   23.3930 C   0  0  0  0  0  0  0  0  0  0  0  0
   11.3310   -0.9530   22.3460 C   0  0  0  0  0  0  0  0  0  0  0  0
   12.3510   -1.8320   22.6620 C   0  0  0  0  0  0  0  0  0  0  0  0
   13.2020   -1.2970   23.6260 C   0  0  0  0  0  0  0  0  0  0  0  0
   12.5860   -0.4360   24.5400 C   0  0  0  0  0  0  0  0  0  0  0  0
   11.0830   -0.4430   24.5810 C   0  0  0  0  0  0  0  0  0  0  0  0
    6.8620    0.0840   20.3960 C   0  0  0  0  0  0  0  0  0  0  0  0
    5.6760    1.0450   20.6040 C   0  0  0  0  0  0  0  0  0  0  0  0
    4.8980    1.6320   19.4370 C   0  0  0  0  0  0  0  0  0  0  0  0
    5.3420    1.2350   18.0680 C   0  0  0  0  0  0  0  0  0  0  0  0
    6.4370    0.3400   17.7720 N   0  0  0  0  0  0  0  0  0  0  0  0
    7.1260   -0.1850   18.8920 C   0  0  0  0  0  0  0  0  0  0  0  0
  1  2  2  0
  2  3  1  0
  3  4  1  0
  4  5  1  0
  5  6  1  0
  6  7  1  0
  7  8  1  0
  8  9  1  0
  5 10  1  0
  9 10  1  0
  2 11  1  0
 11 12  2  0
 12 13  1  0
 13 14  2  0
 14 15  1  0
 11 16  1  0
 15 16  2  0
M  END
