SAN-PRS-3c4a6997-4
     RDKit          3D

 16 17  0  0  0  0  0  0  0  0999 V2000
    9.2620    6.5930   22.5600 C   0  0  0  0  0  0  0  0  0  0  0  0
   10.4210    6.1090   23.4010 C   0  0  0  0  0  0  0  0  0  0  0  0
   10.3800    6.1740   24.6310 O   0  0  0  0  0  0  0  0  0  0  0  0
   11.3410    5.6820   22.7050 O   0  0  0  0  0  0  0  0  0  0  0  0
   12.3320    4.8830   23.3830 C   0  0  0  0  0  0  0  0  0  0  0  0
   12.5180    3.6040   22.7600 C   0  0  0  0  0  0  0  0  0  0  0  0
   11.6910    2.6030   23.2610 C   0  0  0  0  0  0  0  0  0  0  0  0
   10.5240    2.8660   23.9590 C   0  0  0  0  0  0  0  0  0  0  0  0
    9.9170    1.6720   24.3090 N   0  0  0  0  0  0  0  0  0  0  0  0
   10.7660    0.6010   23.7920 C   0  0  0  0  0  0  0  0  0  0  0  0
   10.5730   -0.9010   23.8770 C   0  0  0  0  0  0  0  0  0  0  0  0
   11.5320   -1.6960   23.2860 C   0  0  0  0  0  0  0  0  0  0  0  0
   12.6810   -1.0270   22.6270 C   0  0  0  0  0  0  0  0  0  0  0  0
   13.5930   -1.7950   22.0560 F   0  0  0  0  0  0  0  0  0  0  0  0
   12.8410    0.3790   22.5800 C   0  0  0  0  0  0  0  0  0  0  0  0
   11.8670    1.1750   23.1550 C   0  0  0  0  0  0  0  0  0  0  0  0
  1  2  1  0
  2  3  2  0
  2  4  1  0
  4  5  1  0
  5  6  1  0
  6  7  1  0
  7  8  2  0
  8  9  1  0
  9 10  1  0
 10 11  1  0
 11 12  2  0
 12 13  1  0
 13 14  1  0
 13 15  2  0
  7 16  1  0
 10 16  2  0
 15 16  1  0
M  END
