SAN-PRS-c955de36-1
     RDKit          3D

 13 13  0  0  0  0  0  0  0  0999 V2000
   12.9370    1.8220   22.9600 C   0  0  0  0  0  0  0  0  0  0  0  0
   13.8940    0.7560   23.0330 O   0  0  0  0  0  0  0  0  0  0  0  0
   13.3350   -0.3710   23.5040 C   0  0  0  0  0  0  0  0  0  0  0  0
   13.8310   -1.2770   24.1360 O   0  0  0  0  0  0  0  0  0  0  0  0
   12.0940   -0.4820   23.2290 C   0  0  0  0  0  0  0  0  0  0  0  0
   11.7950   -1.4140   22.2510 C   0  0  0  0  0  0  0  0  0  0  0  0
   10.4880   -1.5080   21.9650 C   0  0  0  0  0  0  0  0  0  0  0  0
    9.5540   -0.7200   22.6150 C   0  0  0  0  0  0  0  0  0  0  0  0
    8.2640   -0.8880   22.2270 C   0  0  0  0  0  0  0  0  0  0  0  0
    7.8430   -0.2740   21.0770 N   0  0  0  0  0  0  0  0  0  0  0  0
    7.4880   -1.5690   22.8850 O   0  0  0  0  0  0  0  0  0  0  0  0
    9.8940    0.2040   23.6000 C   0  0  0  0  0  0  0  0  0  0  0  0
   11.2000    0.3160   23.9060 C   0  0  0  0  0  0  0  0  0  0  0  0
  1  2  1  0
  2  3  1  0
  3  4  2  0
  3  5  1  0
  5  6  2  0
  6  7  1  0
  7  8  2  0
  8  9  1  0
  9 10  1  0
  9 11  2  0
  8 12  1  0
  5 13  1  0
 12 13  2  0
M  END
