SCO-VAN-260d9628-8
     RDKit          3D

 22 24  0  0  0  0  0  0  0  0999 V2000
    6.5720   -3.5150   22.0120 C   0  0  0  0  0  0  0  0  0  0  0  0
    6.3190   -3.2060   20.5720 C   0  0  0  0  0  0  0  0  0  0  0  0
    5.5950   -3.9270   19.8650 O   0  0  0  0  0  0  0  0  0  0  0  0
    6.9850   -2.0620   20.1510 N   0  0  0  0  0  0  0  0  0  0  0  0
    6.8330   -1.5540   18.7990 C   0  0  0  0  0  0  0  0  0  0  0  0
    5.9790   -0.3190   18.7830 C   0  0  0  0  0  0  0  0  0  0  0  0
    5.6720   -1.0010   20.0810 C   0  0  0  0  0  0  0  0  0  0  0  0
    4.8110   -0.5650   21.0000 N   0  0  0  0  0  0  0  0  0  0  0  0
    4.3750    0.5450   20.4330 C   0  0  0  0  0  0  0  0  0  0  0  0
    3.3950    1.3530   21.1100 C   0  0  0  0  0  0  0  0  0  0  0  0
    2.8420    1.0450   22.3760 C   0  0  0  0  0  0  0  0  0  0  0  0
    3.7030    0.4150   23.4530 C   0  0  0  0  0  0  0  0  0  0  0  0
    4.3850    0.9740   24.4320 N   0  0  0  0  0  0  0  0  0  0  0  0
    4.9730   -0.0730   25.1090 N   0  0  0  0  0  0  0  0  0  0  0  0
    4.5570   -1.2940   24.4130 C   0  0  0  0  0  0  0  0  0  0  0  0
    4.9460   -2.7300   24.7810 C   0  0  0  0  0  0  0  0  0  0  0  0
    3.8240   -1.0140   23.4580 O   0  0  0  0  0  0  0  0  0  0  0  0
    3.0260    2.5040   20.3780 C   0  0  0  0  0  0  0  0  0  0  0  0
    3.7280    2.5120   19.2200 C   0  0  0  0  0  0  0  0  0  0  0  0
    4.0780    1.4240   19.9010 F   0  0  0  0  0  0  0  0  0  0  0  0
    4.6470    1.8500   18.4790 C   0  0  0  0  0  0  0  0  0  0  0  0
    5.0450    0.7030   19.1460 C   0  0  0  0  0  0  0  0  0  0  0  0
  1  2  1  0
  2  3  2  0
  2  4  1  0
  4  5  1  0
  5  6  1  0
  6  7  2  0
  7  8  1  0
  8  9  1  0
  9 10  1  0
 10 11  1  0
 11 12  1  0
 12 13  2  0
 13 14  1  0
 14 15  2  0
 15 16  1  0
 12 17  1  0
 15 17  1  0
 10 18  2  0
 18 19  1  0
 19 20  1  0
 19 21  2  0
  6 22  1  0
  9 22  2  0
 21 22  1  0
M  END
