SCO-VAN-260d9628-4-chloroacetamide
     RDKit          3D

 26 27  0  0  0  0  0  0  0  0999 V2000
    7.4710   -3.1230   19.5640 C   0  0  0  0  0  0  0  0  0  0  0  0
    6.3010   -2.6890   18.6740 C   0  0  0  0  0  0  0  0  0  0  0  0
    5.3250   -3.4160   18.6510 O   0  0  0  0  0  0  0  0  0  0  0  0
    6.1410   -1.3640   17.9460 C   0  0  0  0  0  0  0  0  0  0  0  0
    5.8940   -0.9880   19.0870 C   0  0  0  0  0  0  0  0  0  0  0  0
    5.8880   -1.6780   20.1700 C   0  0  0  0  0  0  0  0  0  0  0  0
    5.5440   -0.4090   20.7170 C   0  0  0  0  0  0  0  0  0  0  0  0
    5.3510   -0.3740   22.1970 C   0  0  0  0  0  0  0  0  0  0  0  0
    6.0650   -1.3220   22.9110 N   0  0  0  0  0  0  0  0  0  0  0  0
    5.7570   -2.5990   22.4420 C   0  0  0  0  0  0  0  0  0  0  0  0
    4.6560   -2.8920   21.6680 O   0  0  0  0  0  0  0  0  0  0  0  0
    6.6010   -3.5430   22.7750 N   0  0  0  0  0  0  0  0  0  0  0  0
    5.9850   -4.8660   22.4080 C   0  0  0  0  0  0  0  0  0  0  0  0
    6.6620   -5.8980   23.3030 C   0  0  0  0  0  0  0  0  0  0  0  0
    6.2290   -5.7500   24.4510 O   0  0  0  0  0  0  0  0  0  0  0  0
    6.1280   -4.3610   24.7810 C   0  0  0  0  0  0  0  0  0  0  0  0
    7.2070   -3.6990   24.1240 C   0  0  0  0  0  0  0  0  0  0  0  0
    5.4960    0.5740   19.4750 C   0  0  0  0  0  0  0  0  0  0  0  0
    5.1790    1.9360   19.5370 C   0  0  0  0  0  0  0  0  0  0  0  0
    3.9070    2.3970   20.2550 C   0  0  0  0  0  0  0  0  0  0  0  0
    2.6740    1.8970   19.6600 N   0  0  0  0  0  0  0  0  0  0  0  0
    1.2200    2.1850   20.5160 S   0  0  0  0  0  0  0  0  0  0  0  0
    1.8300    2.0700   22.1830 C   0  0  0  0  0  0  0  0  0  0  0  0
    0.8390    3.5620   20.2770 O   0  0  0  0  0  0  0  0  0  0  0  0
    0.2610    1.1020   20.3560 O   0  0  0  0  0  0  0  0  0  0  0  0
    5.8130    0.0360   18.1230 C   0  0  0  0  0  0  0  0  0  0  0  0
  1  2  1  0
  2  3  2  0
  2  4  1  0
  4  5  2  0
  5  6  1  0
  6  7  2  0
  7  8  1  0
  8  9  1  0
  9 10  1  0
 10 11  2  0
 10 12  1  0
 12 13  1  0
 13 14  1  0
 14 15  1  0
 15 16  1  0
 12 17  1  0
 16 17  1  0
  7 18  1  0
 18 19  1  0
 19 20  1  0
 20 21  1  0
 22 21  1  0
 22 23  1  0
 22 24  2  0
 22 25  2  0
  4 26  1  0
 18 26  2  0
M  END
