SCO-VAN-260d9628-5-vinylsulfonamide
     RDKit          3D

 19 20  0  0  0  0  0  0  0  0999 V2000
    6.5270   -3.9850   20.1970 C   0  0  0  0  0  0  0  0  0  0  0  0
    6.5490   -2.8850   21.2590 C   0  0  0  0  0  0  0  0  0  0  0  0
    5.6580   -3.4150   22.7250 S   0  0  0  0  0  0  0  0  0  0  0  0
    4.6950   -4.4110   22.2270 O   0  0  0  0  0  0  0  0  0  0  0  0
    6.4690   -3.5830   23.9250 O   0  0  0  0  0  0  0  0  0  0  0  0
    4.5840   -2.0880   22.9740 C   0  0  0  0  0  0  0  0  0  0  0  0
    4.1560   -3.3480   22.8180 C   0  0  0  0  0  0  0  0  0  0  0  0
    5.2180   -4.2610   22.7250 C   0  0  0  0  0  0  0  0  0  0  0  0
    6.6930   -3.6720   22.8260 C   0  0  0  0  0  0  0  0  0  0  0  0
    7.8610   -4.3510   22.7830 N   0  0  0  0  0  0  0  0  0  0  0  0
    8.9310   -3.3730   22.9170 C   0  0  0  0  0  0  0  0  0  0  0  0
    8.5980   -1.8890   23.0690 C   0  0  0  0  0  0  0  0  0  0  0  0
   10.1220   -2.0900   23.0850 C   0  0  0  0  0  0  0  0  0  0  0  0
   10.8690   -1.5460   22.1380 N   0  0  0  0  0  0  0  0  0  0  0  0
   12.3070   -1.6930   22.5300 C   0  0  0  0  0  0  0  0  0  0  0  0
   12.7350   -2.3530   23.8430 C   0  0  0  0  0  0  0  0  0  0  0  0
   13.1890   -1.2620   21.7930 O   0  0  0  0  0  0  0  0  0  0  0  0
    7.1940   -2.1800   23.0030 C   0  0  0  0  0  0  0  0  0  0  0  0
    5.8750   -1.3820   23.0690 C   0  0  0  0  0  0  0  0  0  0  0  0
  1  2  1  0
  3  2  1  0
  3  4  2  0
  3  5  2  0
  3  6  1  0
  6  7  2  0
  7  8  1  0
  8  9  2  0
  9 10  1  0
 10 11  1  0
 11 12  2  0
 12 13  1  0
 13 14  1  0
 14 15  1  0
 15 16  1  0
 15 17  2  0
  9 18  1  0
 12 18  1  0
  6 19  1  0
 18 19  2  0
M  END
