SCO-VAN-260d9628-4-vinylsulfonamide
     RDKit          3D

 28 29  0  0  0  0  0  0  0  0999 V2000
    7.7890   -4.8160   21.0540 C   0  0  0  0  0  0  0  0  0  0  0  0
    7.7160   -5.3300   22.1290 C   0  0  0  0  0  0  0  0  0  0  0  0
    6.6570   -3.9090   22.2140 S   0  0  0  0  0  0  0  0  0  0  0  0
    5.1870   -4.2640   21.5210 O   0  0  0  0  0  0  0  0  0  0  0  0
    6.1630   -3.9970   23.7240 O   0  0  0  0  0  0  0  0  0  0  0  0
    7.7830   -2.4550   22.3220 C   0  0  0  0  0  0  0  0  0  0  0  0
    8.2590   -1.1350   21.3160 C   0  0  0  0  0  0  0  0  0  0  0  0
    9.0180    0.1940   21.8760 C   0  0  0  0  0  0  0  0  0  0  0  0
    9.3210    0.3990   23.1010 C   0  0  0  0  0  0  0  0  0  0  0  0
    9.5410    1.0840   23.0680 C   0  0  0  0  0  0  0  0  0  0  0  0
    7.9690    1.5210   23.6420 N   0  0  0  0  0  0  0  0  0  0  0  0
    7.3300    2.5450   22.6440 C   0  0  0  0  0  0  0  0  0  0  0  0
    7.1960    2.0060   21.5380 O   0  0  0  0  0  0  0  0  0  0  0  0
    6.8540    3.4850   23.6670 N   0  0  0  0  0  0  0  0  0  0  0  0
    5.2240    3.9450   23.1330 C   0  0  0  0  0  0  0  0  0  0  0  0
    4.4840    3.2250   24.5250 C   0  0  0  0  0  0  0  0  0  0  0  0
    4.9130    3.0810   26.0950 O   0  0  0  0  0  0  0  0  0  0  0  0
    6.3180    3.6830   25.9770 C   0  0  0  0  0  0  0  0  0  0  0  0
    6.8840    2.8390   24.9070 C   0  0  0  0  0  0  0  0  0  0  0  0
    8.8700   -1.0040   23.1710 C   0  0  0  0  0  0  0  0  0  0  0  0
    9.3600   -0.9280   24.4400 C   0  0  0  0  0  0  0  0  0  0  0  0
    8.7840   -0.9720   25.8210 C   0  0  0  0  0  0  0  0  0  0  0  0
    8.6690   -2.1580   26.7650 N   0  0  0  0  0  0  0  0  0  0  0  0
    8.4760   -3.8600   26.6740 S   0  0  0  0  0  0  0  0  0  0  0  0
    6.5370   -4.1580   27.1860 C   0  0  0  0  0  0  0  0  0  0  0  0
    8.6620   -4.6130   25.2590 O   0  0  0  0  0  0  0  0  0  0  0  0
    9.1720   -4.2830   27.8440 O   0  0  0  0  0  0  0  0  0  0  0  0
    8.4620   -2.3290   23.2800 C   0  0  0  0  0  0  0  0  0  0  0  0
  1  2  1  0
  3  2  1  0
  3  4  2  0
  3  5  2  0
  3  6  1  0
  6  7  2  0
  7  8  1  0
  8  9  2  0
  9 10  1  0
 10 11  1  0
 11 12  1  0
 12 13  2  0
 12 14  1  0
 14 15  1  0
 15 16  1  0
 16 17  1  0
 17 18  1  0
 14 19  1  0
 18 19  1  0
  9 20  1  0
 20 21  1  0
 21 22  1  0
 22 23  1  0
 24 23  1  0
 24 25  1  0
 24 26  2  0
 24 27  2  0
  6 28  1  0
 20 28  2  0
M  END
