SCO-CSI-e56d7cb6-1
     RDKit          3D

 36 39  0  0  0  0  0  0  0  0999 V2000
    4.8900   -2.2270   21.8830 O   0  0  0  0  0  0  0  0  0  0  0  0
    5.9160   -2.8430   21.6500 C   0  0  0  0  0  0  0  0  0  0  0  0
    7.1780   -2.2190   21.6800 C   0  0  0  0  0  0  0  0  0  0  0  0
    7.1720   -1.1150   22.5780 O   0  0  0  0  0  0  0  0  0  0  0  0
    6.3330   -0.0300   22.1700 C   0  0  0  0  0  0  0  0  0  0  0  0
    6.9820    0.8440   21.2830 C   0  0  2  0  0  0  0  0  0  0  0  0
    6.9200    2.1670   21.6970 C   0  0  0  0  0  0  0  0  0  0  0  0
    5.6940    2.7150   21.3840 C   0  0  0  0  0  0  0  0  0  0  0  0
    5.0140    1.9010   20.4820 C   0  0  0  0  0  0  0  0  0  0  0  0
    6.0600    0.9150   20.1060 N   0  0  0  0  0  0  0  0  0  0  0  0
    6.7300    1.3570   18.8500 C   0  0  0  0  0  0  0  0  0  0  0  0
    7.5360    0.3700   17.9330 C   0  0  0  0  0  0  0  0  0  0  0  0
    7.9350   -0.6820   18.4050 O   0  0  0  0  0  0  0  0  0  0  0  0
    7.8990    0.6130   16.5550 N   0  0  0  0  0  0  0  0  0  0  0  0
    8.6320   -0.3800   15.7780 C   0  0  0  0  0  0  0  0  0  0  0  0
    9.5900    0.1000   14.6770 C   0  0  0  0  0  0  0  0  0  0  0  0
    8.7840    0.5050   13.6420 O   0  0  0  0  0  0  0  0  0  0  0  0
    7.5400    0.8460   14.2060 C   0  0  0  0  0  0  0  0  0  0  0  0
    7.4870    1.5790   15.5840 C   0  0  0  0  0  0  0  0  0  0  0  0
    5.8930   -4.3430   21.3100 C   0  0  0  0  0  0  0  0  0  0  0  0
    5.4080   -4.6940   20.2170 O   0  0  0  0  0  0  0  0  0  0  0  0
    6.4240   -5.2310   22.2380 N   0  0  0  0  0  0  0  0  0  0  0  0
    7.0020   -4.7880   23.5130 C   0  0  0  0  0  0  0  0  0  0  0  0
    5.9970   -4.5590   24.4460 C   0  0  0  0  0  0  0  0  0  0  0  0
    5.2300   -5.8070   24.6940 N   0  0  0  0  0  0  0  0  0  0  0  0
    4.4070   -5.9650   26.1650 S   0  0  0  0  0  0  0  0  0  0  0  0
    3.7870   -7.2710   26.1880 O   0  0  0  0  0  0  0  0  0  0  0  0
    5.3000   -5.5300   27.2170 O   0  0  0  0  0  0  0  0  0  0  0  0
    3.1030   -4.7520   26.0330 C   0  0  0  0  0  0  0  0  0  0  0  0
    3.2530   -3.5020   26.6410 C   0  0  0  0  0  0  0  0  0  0  0  0
    2.2290   -2.5580   26.5380 C   0  0  0  0  0  0  0  0  0  0  0  0
    1.0650   -2.8640   25.8310 C   0  0  0  0  0  0  0  0  0  0  0  0
    0.9180   -4.1090   25.2240 C   0  0  0  0  0  0  0  0  0  0  0  0
    1.9360   -5.0600   25.3200 C   0  0  0  0  0  0  0  0  0  0  0  0
    4.7360   -6.5380   23.4900 C   0  0  0  0  0  0  0  0  0  0  0  0
    5.7690   -6.5270   22.3510 C   0  0  0  0  0  0  0  0  0  0  0  0
  1  2  2  0
  2  3  1  0
  3  4  1  0
  4  5  1  0
  6  5  1  1
  6  7  1  0
  7  8  1  0
  8  9  1  0
  6 10  1  0
  9 10  1  0
 10 11  1  0
 11 12  1  0
 12 13  2  0
 12 14  1  0
 14 15  1  0
 15 16  1  0
 16 17  1  0
 17 18  1  0
 14 19  1  0
 18 19  1  0
  2 20  1  0
 20 21  2  0
 20 22  1  0
 22 23  1  0
 23 24  1  0
 24 25  1  0
 25 26  1  0
 26 27  2  0
 26 28  2  0
 26 29  1  0
 29 30  2  0
 30 31  1  0
 31 32  2  0
 32 33  1  0
 29 34  1  0
 33 34  2  0
 25 35  1  0
 22 36  1  0
 35 36  1  0
M  END
