SCO-VAN-260d9628-7
     RDKit          3D

 22 24  0  0  0  0  0  0  0  0999 V2000
    6.3650   -3.3930   21.9710 C   0  0  0  0  0  0  0  0  0  0  0  0
    6.2810   -3.1590   20.4900 C   0  0  0  0  0  0  0  0  0  0  0  0
    5.5620   -3.8610   19.7610 O   0  0  0  0  0  0  0  0  0  0  0  0
    7.0920   -2.1090   20.0770 N   0  0  0  0  0  0  0  0  0  0  0  0
    6.9720   -1.4980   18.7620 C   0  0  0  0  0  0  0  0  0  0  0  0
    6.0200   -0.3430   18.8660 C   0  0  0  0  0  0  0  0  0  0  0  0
    6.2080   -0.9160   20.2300 C   0  0  0  0  0  0  0  0  0  0  0  0
    5.6180   -0.4710   21.3250 N   0  0  0  0  0  0  0  0  0  0  0  0
    4.9080    0.5200   20.8240 C   0  0  0  0  0  0  0  0  0  0  0  0
    4.1040    1.2840   21.6520 C   0  0  0  0  0  0  0  0  0  0  0  0
    3.9880    1.0690   23.0470 C   0  0  0  0  0  0  0  0  0  0  0  0
    3.6930   -0.3120   23.5960 C   0  0  0  0  0  0  0  0  0  0  0  0
    4.2390   -1.4320   23.1470 N   0  0  0  0  0  0  0  0  0  0  0  0
    3.8060   -2.5600   23.8120 N   0  0  0  0  0  0  0  0  0  0  0  0
    2.8570   -2.1980   24.8370 C   0  0  0  0  0  0  0  0  0  0  0  0
    2.1530   -3.1760   25.7780 C   0  0  0  0  0  0  0  0  0  0  0  0
    2.5750   -0.5070   24.9030 S   0  0  0  0  0  0  0  0  0  0  0  0
    3.4060    2.3030   20.9830 C   0  0  0  0  0  0  0  0  0  0  0  0
    3.5640    2.4800   19.6010 C   0  0  0  0  0  0  0  0  0  0  0  0
    2.8780    3.4640   19.0150 F   0  0  0  0  0  0  0  0  0  0  0  0
    4.4100    1.6580   18.8350 C   0  0  0  0  0  0  0  0  0  0  0  0
    5.1200    0.6260   19.4270 C   0  0  0  0  0  0  0  0  0  0  0  0
  1  2  1  0
  2  3  2  0
  2  4  1  0
  4  5  1  0
  5  6  1  0
  6  7  2  0
  7  8  1  0
  8  9  1  0
  9 10  1  0
 10 11  1  0
 11 12  1  0
 12 13  2  0
 13 14  1  0
 14 15  2  0
 15 16  1  0
 12 17  1  0
 15 17  1  0
 10 18  2  0
 18 19  1  0
 19 20  1  0
 19 21  2  0
  6 22  1  0
  9 22  2  0
 21 22  1  0
M  END
