SCO-VAN-260d9628-5-chloroacetamide
     RDKit          3D

 17 18  0  0  0  0  0  0  0  0999 V2000
    7.7380   -3.0700   19.1720 C   0  0  0  0  0  0  0  0  0  0  0  0
    6.5860   -2.4740   18.3890 C   0  0  0  0  0  0  0  0  0  0  0  0
    6.0850   -3.1330   17.4990 O   0  0  0  0  0  0  0  0  0  0  0  0
    6.0480   -1.0850   18.5780 C   0  0  0  0  0  0  0  0  0  0  0  0
    5.5540    0.1130   19.2800 C   0  0  0  0  0  0  0  0  0  0  0  0
    5.0050    1.6170   18.9380 C   0  0  0  0  0  0  0  0  0  0  0  0
    4.9200    1.6770   20.0560 C   0  0  0  0  0  0  0  0  0  0  0  0
    4.7120    2.0400   21.3390 N   0  0  0  0  0  0  0  0  0  0  0  0
    5.1460    0.7770   22.0190 C   0  0  0  0  0  0  0  0  0  0  0  0
    5.5510   -0.1520   21.0000 C   0  0  0  0  0  0  0  0  0  0  0  0
    6.0630   -1.5600   21.2090 C   0  0  0  0  0  0  0  0  0  0  0  0
    5.4660   -2.1130   22.3270 N   0  0  0  0  0  0  0  0  0  0  0  0
    5.4510   -3.5600   22.5940 C   0  0  0  0  0  0  0  0  0  0  0  0
    6.6420   -4.0130   23.4520 C   0  0  0  0  0  0  0  0  0  0  0  0
    4.5950   -4.3470   22.1690 O   0  0  0  0  0  0  0  0  0  0  0  0
    5.3980    0.4560   19.7240 C   0  0  0  0  0  0  0  0  0  0  0  0
    5.6510    0.0220   18.1750 C   0  0  0  0  0  0  0  0  0  0  0  0
  1  2  1  0
  2  3  2  0
  2  4  1  0
  4  5  2  0
  5  6  1  0
  6  7  2  0
  7  8  1  0
  8  9  1  0
  9 10  2  0
 10 11  1  0
 11 12  1  0
 12 13  1  0
 13 14  1  0
 13 15  2  0
  7 16  1  0
 10 16  1  0
  4 17  1  0
 16 17  2  0
M  END
