SCO-VAN-260d9628-5-nitrile
     RDKit          3D

 16 17  0  0  0  0  0  0  0  0999 V2000
    7.1140   -3.4150   19.8250 C   0  0  0  0  0  0  0  0  0  0  0  0
    6.1040   -4.2350   19.8880 N   0  0  0  0  0  0  0  0  0  0  0  0
    6.4940   -1.9840   19.3160 C   0  0  0  0  0  0  0  0  0  0  0  0
    7.1870   -0.6800   19.3960 C   0  0  0  0  0  0  0  0  0  0  0  0
    7.9750   -1.1570   20.4950 C   0  0  0  0  0  0  0  0  0  0  0  0
    7.1790   -2.4710   20.7940 C   0  0  0  0  0  0  0  0  0  0  0  0
    7.3970   -3.2800   21.8170 N   0  0  0  0  0  0  0  0  0  0  0  0
    6.5190   -4.2860   21.7490 C   0  0  0  0  0  0  0  0  0  0  0  0
    5.5370   -4.3880   20.6950 C   0  0  0  0  0  0  0  0  0  0  0  0
    5.3280   -5.5060   21.5290 C   0  0  0  0  0  0  0  0  0  0  0  0
    5.8350   -5.5680   22.7620 N   0  0  0  0  0  0  0  0  0  0  0  0
    5.5270   -6.7140   23.3820 C   0  0  0  0  0  0  0  0  0  0  0  0
    6.8100   -7.0240   22.5980 C   0  0  0  0  0  0  0  0  0  0  0  0
    4.5660   -6.0980   23.8390 O   0  0  0  0  0  0  0  0  0  0  0  0
    5.9940   -3.1290   20.0140 C   0  0  0  0  0  0  0  0  0  0  0  0
    5.4780   -2.4150   18.7800 C   0  0  0  0  0  0  0  0  0  0  0  0
  1  2  2  3
  1  3  1  0
  3  4  2  0
  4  5  1  0
  5  6  2  0
  6  7  1  0
  7  8  1  0
  8  9  2  0
  9 10  1  0
 10 11  1  0
 11 12  1  0
 12 13  1  0
 12 14  2  0
  6 15  1  0
  9 15  1  0
  3 16  1  0
 15 16  2  0
M  END
