SCO-VAN-260d9628-4-nitrile
     RDKit          3D

 25 26  0  0  0  0  0  0  0  0999 V2000
    6.6190   -3.4650   19.2930 C   0  0  0  0  0  0  0  0  0  0  0  0
    5.7930   -4.2920   19.8240 N   0  0  0  0  0  0  0  0  0  0  0  0
    6.0240   -2.3600   18.4830 C   0  0  0  0  0  0  0  0  0  0  0  0
    6.3160   -1.3060   19.3700 C   0  0  0  0  0  0  0  0  0  0  0  0
    6.9790   -1.3940   20.5850 C   0  0  0  0  0  0  0  0  0  0  0  0
    6.8980   -0.0140   20.9000 C   0  0  0  0  0  0  0  0  0  0  0  0
    7.5680   -0.4900   22.0030 C   0  0  0  0  0  0  0  0  0  0  0  0
    6.7180   -1.2260   22.8120 N   0  0  0  0  0  0  0  0  0  0  0  0
    6.1760   -2.3820   22.2400 C   0  0  0  0  0  0  0  0  0  0  0  0
    5.2740   -2.4140   21.4030 O   0  0  0  0  0  0  0  0  0  0  0  0
    6.7200   -3.5800   22.7000 N   0  0  0  0  0  0  0  0  0  0  0  0
    6.3390   -4.9210   22.2340 C   0  0  0  0  0  0  0  0  0  0  0  0
    6.3600   -5.9320   23.3410 C   0  0  0  0  0  0  0  0  0  0  0  0
    7.6490   -5.9920   23.9520 O   0  0  0  0  0  0  0  0  0  0  0  0
    8.0760   -4.6790   24.3210 C   0  0  0  0  0  0  0  0  0  0  0  0
    7.9500   -3.5270   23.3220 C   0  0  0  0  0  0  0  0  0  0  0  0
    6.1650    0.0660   19.5440 C   0  0  0  0  0  0  0  0  0  0  0  0
    5.6700    1.2650   19.0380 C   0  0  0  0  0  0  0  0  0  0  0  0
    4.3040    1.3570   19.3320 C   0  0  0  0  0  0  0  0  0  0  0  0
    3.8550    2.1040   20.3710 N   0  0  0  0  0  0  0  0  0  0  0  0
    2.2740    2.6800   20.3040 S   0  0  0  0  0  0  0  0  0  0  0  0
    2.2900    3.5590   18.7590 C   0  0  0  0  0  0  0  0  0  0  0  0
    1.3640    1.5610   20.2440 O   0  0  0  0  0  0  0  0  0  0  0  0
    2.1780    3.6370   21.3870 O   0  0  0  0  0  0  0  0  0  0  0  0
    5.7330   -0.9760   18.3690 C   0  0  0  0  0  0  0  0  0  0  0  0
  1  2  2  3
  1  3  1  0
  3  4  2  0
  4  5  1  0
  5  6  2  0
  6  7  1  0
  7  8  1  0
  8  9  1  0
  9 10  2  0
  9 11  1  0
 11 12  1  0
 12 13  1  0
 13 14  1  0
 14 15  1  0
 11 16  1  0
 15 16  1  0
  6 17  1  0
 17 18  1  0
 18 19  1  0
 19 20  1  0
 21 20  1  0
 21 22  1  0
 21 23  2  0
 21 24  2  0
  3 25  1  0
 17 25  2  0
M  END
