SEA-TRI-6cb4f71a-1-chloroacetamide
     RDKit          3D

 28 30  0  0  0  0  0  0  0  0999 V2000
    7.1420   -2.9800   18.8670 C   0  0  0  0  0  0  0  0  0  0  0  0
    6.2190   -3.3690   19.9830 C   0  0  0  0  0  0  0  0  0  0  0  0
    5.3550   -4.2350   19.7880 O   0  0  0  0  0  0  0  0  0  0  0  0
    6.3670   -2.7610   21.2120 N   0  0  0  0  0  0  0  0  0  0  0  0
    5.9690   -3.3410   22.4920 C   0  0  0  0  0  0  0  0  0  0  0  0
    7.3480   -3.7970   23.0600 C   0  0  0  0  0  0  0  0  0  0  0  0
    8.1490   -2.5610   23.3310 N   0  0  0  0  0  0  0  0  0  0  0  0
    9.3040   -2.8370   24.2020 C   0  0  1  0  0  0  0  0  0  0  0  0
   10.1880   -1.6710   23.8070 C   0  0  0  0  0  0  0  0  0  0  0  0
   11.2950   -2.1070   22.9350 C   0  0  0  0  0  0  0  0  0  0  0  0
   12.2410   -1.0020   22.4390 C   0  0  0  0  0  0  0  0  0  0  0  0
   13.4830   -1.4740   21.4240 Cl  0  0  0  0  0  0  0  0  0  0  0  0
   11.9930    0.4160   22.8660 C   0  0  0  0  0  0  0  0  0  0  0  0
   10.8340    0.7210   23.7410 C   0  0  0  0  0  0  0  0  0  0  0  0
   10.6680    1.9940   24.0410 C   0  0  0  0  0  0  0  0  0  0  0  0
   10.3710    3.0140   23.0730 C   0  0  0  0  0  0  0  0  0  0  0  0
    9.9270    4.4470   23.8710 S   0  0  0  0  0  0  0  0  0  0  0  0
    8.7600    3.9140   24.9980 N   0  0  0  0  0  0  0  0  0  0  0  0
   11.0440    4.8740   24.6840 O   0  0  0  0  0  0  0  0  0  0  0  0
    9.2550    5.3620   22.9830 O   0  0  0  0  0  0  0  0  0  0  0  0
    9.9570   -0.2330   24.2190 C   0  0  0  0  0  0  0  0  0  0  0  0
    8.9630   -2.9760   25.6880 C   0  0  0  0  0  0  0  0  0  0  0  0
    9.2300   -4.0830   26.5070 C   0  0  0  0  0  0  0  0  0  0  0  0
    8.8190   -3.9430   27.8150 C   0  0  0  0  0  0  0  0  0  0  0  0
    8.2200   -2.7190   28.0590 C   0  0  0  0  0  0  0  0  0  0  0  0
    8.1690   -1.7510   26.6410 S   0  0  0  0  0  0  0  0  0  0  0  0
    8.3370   -1.7640   22.0940 C   0  0  0  0  0  0  0  0  0  0  0  0
    7.1680   -1.5460   21.3600 C   0  0  0  0  0  0  0  0  0  0  0  0
  1  2  1  0
  2  3  2  0
  2  4  1  0
  4  5  1  0
  5  6  1  0
  6  7  1  0
  7  8  1  0
  8  9  1  1
  9 10  2  0
 10 11  1  0
 11 12  1  0
 11 13  2  0
 13 14  1  0
 14 15  1  0
 15 16  1  0
 16 17  1  0
 17 18  1  0
 17 19  2  0
 17 20  2  0
  9 21  1  0
 14 21  2  0
  8 22  1  0
 22 23  2  0
 23 24  1  0
 24 25  2  0
 22 26  1  0
 25 26  1  0
  7 27  1  0
  4 28  1  0
 27 28  1  0
M  END
