SEA-TRI-6cb4f71a-1-acrylamide
     RDKit          3D

 29 31  0  0  0  0  0  0  0  0999 V2000
    8.0320   -3.3670   19.7310 C   0  0  0  0  0  0  0  0  0  0  0  0
    6.8740   -2.6500   19.1290 C   0  0  0  0  0  0  0  0  0  0  0  0
    5.8910   -3.1640   20.0970 C   0  0  0  0  0  0  0  0  0  0  0  0
    5.0870   -4.0260   19.7670 O   0  0  0  0  0  0  0  0  0  0  0  0
    6.0590   -2.6270   21.3760 N   0  0  0  0  0  0  0  0  0  0  0  0
    6.0610   -3.4720   22.4420 C   0  0  0  0  0  0  0  0  0  0  0  0
    7.1180   -3.4360   23.3490 C   0  0  0  0  0  0  0  0  0  0  0  0
    7.9220   -2.3130   23.4570 N   0  0  0  0  0  0  0  0  0  0  0  0
    9.1330   -2.4030   24.2890 C   0  0  1  0  0  0  0  0  0  0  0  0
   10.0930   -1.3110   23.8570 C   0  0  0  0  0  0  0  0  0  0  0  0
   11.1940   -1.8530   22.9860 C   0  0  0  0  0  0  0  0  0  0  0  0
   12.2480   -0.9740   22.4210 C   0  0  0  0  0  0  0  0  0  0  0  0
   13.4320   -1.6340   21.4330 Cl  0  0  0  0  0  0  0  0  0  0  0  0
   12.1310    0.4890   22.7860 C   0  0  0  0  0  0  0  0  0  0  0  0
   10.9840    0.9740   23.6570 C   0  0  0  0  0  0  0  0  0  0  0  0
   10.9640    2.3590   23.8680 C   0  0  0  0  0  0  0  0  0  0  0  0
   10.0800    3.0820   22.8650 C   0  0  0  0  0  0  0  0  0  0  0  0
    8.8600    4.0120   23.6220 S   0  0  0  0  0  0  0  0  0  0  0  0
    9.4290    5.5780   23.4100 N   0  0  0  0  0  0  0  0  0  0  0  0
    7.6100    3.9270   22.9010 O   0  0  0  0  0  0  0  0  0  0  0  0
    8.8780    3.7980   25.0520 O   0  0  0  0  0  0  0  0  0  0  0  0
   10.0320    0.0650   24.1600 C   0  0  0  0  0  0  0  0  0  0  0  0
    8.8730   -2.5560   25.6610 C   0  0  0  0  0  0  0  0  0  0  0  0
    9.1200   -3.7860   26.5140 C   0  0  0  0  0  0  0  0  0  0  0  0
    8.7560   -3.6210   27.8690 C   0  0  0  0  0  0  0  0  0  0  0  0
    8.2490   -2.3660   28.1270 C   0  0  0  0  0  0  0  0  0  0  0  0
    8.2020   -1.3590   26.7190 S   0  0  0  0  0  0  0  0  0  0  0  0
    8.1530   -1.7070   22.1420 C   0  0  0  0  0  0  0  0  0  0  0  0
    6.9020   -1.4370   21.6040 C   0  0  0  0  0  0  0  0  0  0  0  0
  1  2  1  0
  2  3  1  0
  3  4  2  0
  3  5  1  0
  5  6  1  0
  6  7  1  0
  7  8  1  0
  8  9  1  0
  9 10  1  1
 10 11  2  0
 11 12  1  0
 12 13  1  0
 12 14  2  0
 14 15  1  0
 15 16  1  0
 16 17  1  0
 17 18  1  0
 18 19  1  0
 18 20  2  0
 18 21  2  0
 10 22  1  0
 15 22  2  0
  9 23  1  0
 23 24  2  0
 24 25  1  0
 25 26  2  0
 23 27  1  0
 26 27  1  0
  8 28  1  0
  5 29  1  0
 28 29  1  0
M  END
