SEA-TRI-38830027-1-vinylsulfonamide
     RDKit          3D

 30 33  0  0  0  0  0  0  0  0999 V2000
    8.9170   -4.0020   20.2060 C   0  0  0  0  0  0  0  0  0  0  0  0
    7.7030   -3.2150   19.6970 C   0  0  0  0  0  0  0  0  0  0  0  0
    6.4110   -3.6470   20.8010 S   0  0  0  0  0  0  0  0  0  0  0  0
    5.0840   -3.4600   20.2120 O   0  0  0  0  0  0  0  0  0  0  0  0
    6.7430   -4.9180   21.4150 O   0  0  0  0  0  0  0  0  0  0  0  0
    6.7330   -2.4330   21.9150 N   0  0  0  0  0  0  0  0  0  0  0  0
    6.3640   -2.7950   23.2660 C   0  0  0  0  0  0  0  0  0  0  0  0
    7.3990   -3.4410   23.9100 C   0  0  0  0  0  0  0  0  0  0  0  0
    7.0830   -4.2960   24.9410 C   0  0  0  0  0  0  0  0  0  0  0  0
    5.7390   -4.4080   25.2070 O   0  0  0  0  0  0  0  0  0  0  0  0
    5.2490   -5.5270   25.9580 C   0  0  0  0  0  0  0  0  0  0  0  0
    4.4120   -5.3210   27.2120 C   0  0  0  0  0  0  0  0  0  0  0  0
    5.1660   -5.0670   28.3940 N   0  0  0  0  0  0  0  0  0  0  0  0
    6.1460   -5.9660   28.8660 C   0  0  0  0  0  0  0  0  0  0  0  0
    5.6340   -6.9770   29.8760 C   0  0  0  0  0  0  0  0  0  0  0  0
    5.0150   -6.3270   30.9890 O   0  0  0  0  0  0  0  0  0  0  0  0
    3.9710   -5.4260   30.5860 C   0  0  0  0  0  0  0  0  0  0  0  0
    4.4220   -4.4260   29.5110 C   0  0  0  0  0  0  0  0  0  0  0  0
    8.0900   -4.9690   25.6250 C   0  0  0  0  0  0  0  0  0  0  0  0
    9.5790   -4.8340   25.3190 C   0  0  0  0  0  0  0  0  0  0  0  0
    9.9350   -3.9260   24.2210 C   0  0  0  0  0  0  0  0  0  0  0  0
    8.7350   -3.2380   23.5340 C   0  0  0  0  0  0  0  0  0  0  0  0
    9.1050   -2.2900   22.3790 C   0  0  2  0  0  0  0  0  0  0  0  0
   10.0730   -1.3510   22.9080 C   0  0  0  0  0  0  0  0  0  0  0  0
   10.1440   -0.2090   23.1700 C   0  0  0  0  0  0  0  0  0  0  0  0
   11.2300   -0.3160   23.8780 O   0  0  0  0  0  0  0  0  0  0  0  0
   12.2610    0.1030   23.7310 C   0  0  0  0  0  0  0  0  0  0  0  0
   11.6190   -0.9990   22.8610 C   0  0  0  0  0  0  0  0  0  0  0  0
   12.7230   -1.8210   21.8430 Cl  0  0  0  0  0  0  0  0  0  0  0  0
    7.9850   -1.6440   21.8020 C   0  0  0  0  0  0  0  0  0  0  0  0
  1  2  1  0
  3  2  1  0
  3  4  2  0
  3  5  2  0
  3  6  1  0
  6  7  1  0
  7  8  1  0
  8  9  1  0
  9 10  1  0
 10 11  1  0
 11 12  1  0
 12 13  1  0
 13 14  1  0
 14 15  1  0
 15 16  1  0
 16 17  1  0
 13 18  1  0
 17 18  1  0
  9 19  2  0
 19 20  1  0
 20 21  2  0
  8 22  2  0
 21 22  1  0
 22 23  1  0
 23 24  1  1
 24 25  2  0
 25 26  1  0
 26 27  1  0
 24 28  1  0
 27 28  2  0
 28 29  1  0
  6 30  1  0
 23 30  1  0
M  END
