SEA-TRI-67e8f1c7-1-acrylamide
     RDKit          3D

 31 34  0  0  0  0  0  0  0  0999 V2000
    7.9530   -3.3320   19.1950 C   0  0  0  0  0  0  0  0  0  0  0  0
    6.8080   -2.4390   18.8780 C   0  0  0  0  0  0  0  0  0  0  0  0
    5.8840   -2.6080   20.0230 C   0  0  0  0  0  0  0  0  0  0  0  0
    4.8210   -3.2190   19.8980 O   0  0  0  0  0  0  0  0  0  0  0  0
    6.3230   -2.1010   21.2270 N   0  0  0  0  0  0  0  0  0  0  0  0
    6.2530   -2.9730   22.2780 C   0  0  0  0  0  0  0  0  0  0  0  0
    7.3850   -3.2490   23.0140 C   0  0  0  0  0  0  0  0  0  0  0  0
    8.2820   -2.2290   23.1570 N   0  0  0  0  0  0  0  0  0  0  0  0
    9.3910   -2.2280   24.1200 C   0  0  0  0  0  0  0  0  0  0  0  0
   10.3270   -1.3340   23.6760 C   0  0  0  0  0  0  0  0  0  0  0  0
   11.3860   -1.9040   22.7800 C   0  0  0  0  0  0  0  0  0  0  0  0
   12.4480   -1.0300   22.1980 C   0  0  0  0  0  0  0  0  0  0  0  0
   13.5500   -1.7000   21.1550 Cl  0  0  0  0  0  0  0  0  0  0  0  0
   12.3680    0.4170   22.6120 C   0  0  0  0  0  0  0  0  0  0  0  0
   11.2670    0.9500   23.5020 C   0  0  0  0  0  0  0  0  0  0  0  0
   11.2930    2.4510   23.7690 C   0  0  0  0  0  0  0  0  0  0  0  0
   10.1460    2.9430   24.6400 C   0  0  0  0  0  0  0  0  0  0  0  0
    9.1070    1.9650   25.1830 C   0  0  0  0  0  0  0  0  0  0  0  0
    9.2300    0.6130   24.8480 C   0  0  0  0  0  0  0  0  0  0  0  0
    8.3600   -0.1330   25.3020 O   0  0  0  0  0  0  0  0  0  0  0  0
    7.9660    0.2000   26.6430 C   0  0  0  0  0  0  0  0  0  0  0  0
    6.7360    0.8510   26.7100 C   0  0  0  0  0  0  0  0  0  0  0  0
    5.5870    0.1240   27.1080 N   0  0  0  0  0  0  0  0  0  0  0  0
    4.2820    0.4860   26.8860 C   0  0  0  0  0  0  0  0  0  0  0  0
    3.4140   -0.5760   27.1630 C   0  0  0  0  0  0  0  0  0  0  0  0
    3.8840   -1.3250   28.2940 O   0  0  0  0  0  0  0  0  0  0  0  0
    5.1530   -1.9500   28.0580 C   0  0  0  0  0  0  0  0  0  0  0  0
    5.7510   -1.3370   26.9520 C   0  0  0  0  0  0  0  0  0  0  0  0
   10.2650    0.0650   24.0210 C   0  0  0  0  0  0  0  0  0  0  0  0
    8.6060   -1.6270   21.8670 C   0  0  0  0  0  0  0  0  0  0  0  0
    7.4720   -1.1570   21.1920 C   0  0  0  0  0  0  0  0  0  0  0  0
  1  2  1  0
  2  3  1  0
  3  4  2  0
  3  5  1  0
  5  6  1  0
  6  7  1  0
  7  8  1  0
  8  9  1  0
  9 10  1  0
 10 11  2  0
 11 12  1  0
 12 13  1  0
 12 14  2  0
 14 15  1  0
 15 16  1  0
 16 17  2  0
 17 18  1  0
 18 19  2  0
 19 20  1  0
 20 21  1  0
 21 22  1  0
 22 23  1  0
 23 24  1  0
 24 25  1  0
 25 26  1  0
 26 27  1  0
 23 28  1  0
 27 28  1  0
 10 29  1  0
 15 29  2  0
 19 29  1  0
  8 30  1  0
  5 31  1  0
 30 31  1  0
M  END
