SEA-TRI-8ad086cf-1
     RDKit          3D

 28 30  0  0  0  0  0  0  0  0999 V2000
    8.1040   -4.9290   26.0750 C   0  0  0  0  0  0  0  0  0  0  0  0
    8.1840   -3.9060   24.9670 C   0  0  0  0  0  0  0  0  0  0  0  0
    7.7960   -4.1270   23.6560 C   0  0  0  0  0  0  0  0  0  0  0  0
    7.9670   -3.0660   22.8040 C   0  0  0  0  0  0  0  0  0  0  0  0
    8.5050   -1.9800   23.4670 C   0  0  0  0  0  0  0  0  0  0  0  0
    8.7910   -0.8250   22.8670 N   0  0  0  0  0  0  0  0  0  0  0  0
    8.1350   -0.2980   21.7680 C   0  0  0  0  0  0  0  0  0  0  0  0
    8.6010    0.6850   21.2030 O   0  0  0  0  0  0  0  0  0  0  0  0
    6.9330   -0.8280   21.2520 N   0  0  0  0  0  0  0  0  0  0  0  0
    5.9930   -1.4920   22.1940 C   0  0  0  0  0  0  0  0  0  0  0  0
    5.4510   -0.5440   23.2700 C   0  0  0  0  0  0  0  0  0  0  0  0
    5.5970    0.8540   23.0430 O   0  0  0  0  0  0  0  0  0  0  0  0
    4.8020   -1.2400   24.4660 C   0  0  0  0  0  0  0  0  0  0  0  0
    4.2120   -2.8450   24.2430 Cl  0  0  0  0  0  0  0  0  0  0  0  0
    6.3140   -0.0780   20.1490 C   0  0  0  0  0  0  0  0  0  0  0  0
    5.0430    0.7660   20.2500 C   0  0  0  0  0  0  0  0  0  0  0  0
    4.5090    1.4680   19.1580 C   0  0  0  0  0  0  0  0  0  0  0  0
    5.2320    1.3810   17.8270 C   0  0  0  0  0  0  0  0  0  0  0  0
    6.3710    0.6170   17.7360 N   0  0  0  0  0  0  0  0  0  0  0  0
    6.8790   -0.0910   18.8930 C   0  0  0  0  0  0  0  0  0  0  0  0
   10.0920   -0.4680   22.9810 C   0  0  0  0  0  0  0  0  0  0  0  0
   10.5530    0.6680   23.8500 C   0  0  0  0  0  0  0  0  0  0  0  0
   11.9660    0.8780   23.8220 C   0  0  0  0  0  0  0  0  0  0  0  0
   12.8080    0.0920   23.0590 C   0  0  0  0  0  0  0  0  0  0  0  0
   12.3030   -0.9350   22.2910 C   0  0  0  0  0  0  0  0  0  0  0  0
   13.2460   -1.9540   21.3240 Cl  0  0  0  0  0  0  0  0  0  0  0  0
   10.9900   -1.1940   22.2600 C   0  0  0  0  0  0  0  0  0  0  0  0
    8.7720   -2.3060   25.1420 S   0  0  0  0  0  0  0  0  0  0  0  0
  1  2  1  0
  2  3  2  0
  3  4  1  0
  4  5  2  0
  5  6  1  0
  6  7  1  0
  7  8  2  0
  7  9  1  0
  9 10  1  0
 10 11  1  0
 11 12  2  0
 11 13  1  0
 13 14  1  0
  9 15  1  0
 15 16  2  0
 16 17  1  0
 17 18  2  0
 18 19  1  0
 15 20  1  0
 19 20  2  0
  6 21  1  0
 21 22  2  0
 22 23  1  0
 23 24  2  0
 24 25  1  0
 25 26  1  0
 21 27  1  0
 25 27  2  0
  2 28  1  0
  5 28  1  0
M  END
