SEA-TRI-38830027-1-acrylamide
     RDKit          3D

 29 32  0  0  0  0  0  0  0  0999 V2000
    7.9030   -3.2940   19.1540 C   0  0  0  0  0  0  0  0  0  0  0  0
    6.7320   -2.3690   19.1580 C   0  0  0  0  0  0  0  0  0  0  0  0
    6.0950   -2.6620   20.4620 C   0  0  0  0  0  0  0  0  0  0  0  0
    5.0050   -3.2300   20.4760 O   0  0  0  0  0  0  0  0  0  0  0  0
    6.7680   -2.3600   21.6050 N   0  0  0  0  0  0  0  0  0  0  0  0
    6.1670   -2.7980   22.8530 C   0  0  0  0  0  0  0  0  0  0  0  0
    7.3680   -3.3590   23.6470 C   0  0  0  0  0  0  0  0  0  0  0  0
    6.7360   -4.2440   24.7250 C   0  0  0  0  0  0  0  0  0  0  0  0
    5.3080   -4.3500   24.7520 O   0  0  0  0  0  0  0  0  0  0  0  0
    4.7910   -5.2450   25.7620 C   0  0  0  0  0  0  0  0  0  0  0  0
    4.9670   -4.5160   27.1220 C   0  0  0  0  0  0  0  0  0  0  0  0
    4.2320   -5.4370   28.0260 N   0  0  0  0  0  0  0  0  0  0  0  0
    4.8210   -6.7530   28.2180 C   0  0  0  0  0  0  0  0  0  0  0  0
    5.7850   -6.7550   29.3340 C   0  0  0  0  0  0  0  0  0  0  0  0
    5.4380   -6.0770   30.4550 O   0  0  0  0  0  0  0  0  0  0  0  0
    4.0850   -5.6090   30.3800 C   0  0  0  0  0  0  0  0  0  0  0  0
    3.8010   -4.7650   29.2450 C   0  0  0  0  0  0  0  0  0  0  0  0
    7.8220   -4.8940   25.6340 C   0  0  0  0  0  0  0  0  0  0  0  0
    9.2200   -4.5740   25.3420 C   0  0  0  0  0  0  0  0  0  0  0  0
    9.6320   -3.7290   24.3010 C   0  0  0  0  0  0  0  0  0  0  0  0
    8.7340   -3.1200   23.4400 C   0  0  0  0  0  0  0  0  0  0  0  0
    9.2040   -2.2970   22.3990 C   0  0  2  0  0  0  0  0  0  0  0  0
   10.2870   -1.3960   22.7210 C   0  0  0  0  0  0  0  0  0  0  0  0
   10.1940   -0.3680   23.5370 C   0  0  0  0  0  0  0  0  0  0  0  0
   11.3310    0.3100   23.6780 O   0  0  0  0  0  0  0  0  0  0  0  0
   12.4730   -0.0970   22.9920 C   0  0  0  0  0  0  0  0  0  0  0  0
   11.6610   -1.2800   22.3490 C   0  0  0  0  0  0  0  0  0  0  0  0
   12.4910   -2.2850   21.3000 Cl  0  0  0  0  0  0  0  0  0  0  0  0
    8.0250   -1.5750   21.6930 C   0  0  0  0  0  0  0  0  0  0  0  0
  1  2  1  0
  2  3  1  0
  3  4  2  0
  3  5  1  0
  5  6  1  0
  6  7  1  0
  7  8  1  0
  8  9  1  0
  9 10  1  0
 10 11  1  0
 11 12  1  0
 12 13  1  0
 13 14  1  0
 14 15  1  0
 15 16  1  0
 12 17  1  0
 16 17  1  0
  8 18  2  0
 18 19  1  0
 19 20  2  0
  7 21  2  0
 20 21  1  0
 21 22  1  0
 22 23  1  1
 23 24  2  0
 24 25  1  0
 25 26  1  0
 23 27  1  0
 26 27  2  0
 27 28  1  0
  5 29  1  0
 22 29  1  0
M  END
