SEA-TRI-f93fcab4-1-nitrile
     RDKit          3D

 25 27  0  0  0  0  0  0  0  0999 V2000
    7.5470   -3.3080   19.6510 C   0  0  0  0  0  0  0  0  0  0  0  0
    6.9010   -2.7520   18.6810 N   0  0  0  0  0  0  0  0  0  0  0  0
    8.3080   -2.5160   20.8180 C   0  0  0  0  0  0  0  0  0  0  0  0
    8.5720   -0.9510   20.8080 C   0  0  0  0  0  0  0  0  0  0  0  0
    9.3590   -0.2020   22.0000 C   0  0  0  0  0  0  0  0  0  0  0  0
    9.8430   -1.0380   23.2200 C   0  0  0  0  0  0  0  0  0  0  0  0
    9.4650   -2.4750   23.0540 C   0  0  0  0  0  0  0  0  0  0  0  0
    9.8840   -3.1560   24.2990 C   0  0  0  0  0  0  0  0  0  0  0  0
    8.4350   -3.2830   24.6890 N   0  0  0  0  0  0  0  0  0  0  0  0
    7.7860   -4.4380   24.0510 C   0  0  0  0  0  0  0  0  0  0  0  0
    6.4820   -4.0800   23.4300 C   0  0  0  0  0  0  0  0  0  0  0  0
    6.6750   -2.9210   22.5380 N   0  0  0  0  0  0  0  0  0  0  0  0
    5.6590   -2.7120   21.5260 C   0  0  0  0  0  0  0  0  0  0  0  0
    4.9510   -3.6240   21.0760 O   0  0  0  0  0  0  0  0  0  0  0  0
    5.4690   -1.4620   21.1130 C   0  0  0  0  0  0  0  0  0  0  0  0
    5.0830   -0.4330   22.0450 C   0  0  0  0  0  0  0  0  0  0  0  0
    5.6380   -1.0790   19.7790 C   0  0  0  0  0  0  0  0  0  0  0  0
    5.3120    0.3200   19.4750 C   0  0  0  0  0  0  0  0  0  0  0  0
    4.8210    0.8560   18.3270 C   0  0  0  0  0  0  0  0  0  0  0  0
    4.6460    2.1970   18.4450 C   0  0  0  0  0  0  0  0  0  0  0  0
    5.0660    2.5680   19.8070 N   0  0  0  0  0  0  0  0  0  0  0  0
    5.4790    1.3400   20.4000 O   0  0  0  0  0  0  0  0  0  0  0  0
    7.1260   -1.7410   23.2360 C   0  0  0  0  0  0  0  0  0  0  0  0
    7.6600   -2.0250   24.5540 C   0  0  0  0  0  0  0  0  0  0  0  0
    8.7640   -3.1800   21.9370 C   0  0  0  0  0  0  0  0  0  0  0  0
  1  2  2  3
  1  3  1  0
  3  4  2  0
  4  5  1  0
  5  6  2  0
  6  7  1  0
  7  8  1  0
  8  9  1  0
  9 10  1  0
 10 11  1  0
 11 12  1  0
 12 13  1  0
 13 14  2  0
 13 15  1  0
 15 16  2  3
 15 17  1  0
 17 18  1  0
 18 19  2  0
 19 20  1  0
 20 21  2  0
 18 22  1  0
 21 22  1  0
 12 23  1  0
  9 24  1  0
 23 24  1  0
  3 25  1  0
  7 25  2  0
M  END
