SEA-TRI-ec70a9dd-1-chloroacetamide
     RDKit          3D

 27 29  0  0  0  0  0  0  0  0999 V2000
    7.8830   -4.5230   20.5640 C   0  0  0  0  0  0  0  0  0  0  0  0
    8.8910   -3.4540   20.0520 C   0  0  0  0  0  0  0  0  0  0  0  0
    8.4840   -3.4800   18.7430 O   0  0  0  0  0  0  0  0  0  0  0  0
    9.9300   -2.6220   21.1040 C   0  0  0  0  0  0  0  0  0  0  0  0
   11.3750   -1.8780   21.0180 C   0  0  0  0  0  0  0  0  0  0  0  0
   12.0440   -1.1520   22.2950 C   0  0  0  0  0  0  0  0  0  0  0  0
   11.2480   -1.2040   23.6260 C   0  0  0  0  0  0  0  0  0  0  0  0
    9.9250   -1.9790   23.4200 C   0  0  0  0  0  0  0  0  0  0  0  0
    9.1150   -2.0410   24.6860 C   0  0  0  0  0  0  0  0  0  0  0  0
    7.7470   -1.9610   24.1270 N   0  0  0  0  0  0  0  0  0  0  0  0
    7.6980   -0.8670   23.0800 C   0  0  0  0  0  0  0  0  0  0  0  0
    7.4300   -1.2470   21.5890 C   0  0  0  0  0  0  0  0  0  0  0  0
    6.7960   -2.4480   21.3470 N   0  0  0  0  0  0  0  0  0  0  0  0
    6.0620   -2.7200   19.8140 S   0  0  0  0  0  0  0  0  0  0  0  0
    5.0890   -3.7790   19.9990 O   0  0  0  0  0  0  0  0  0  0  0  0
    7.1410   -2.9350   18.8830 O   0  0  0  0  0  0  0  0  0  0  0  0
    5.2900   -1.2220   19.3840 C   0  0  0  0  0  0  0  0  0  0  0  0
    4.6480   -0.3430   20.4600 C   0  0  0  0  0  0  0  0  0  0  0  0
    4.0160    0.9280   19.8770 C   0  0  0  0  0  0  0  0  0  0  0  0
    3.0430    1.4590   20.6580 N   0  0  0  0  0  0  0  0  0  0  0  0
    1.9270    1.9610   20.0100 C   0  0  0  0  0  0  0  0  0  0  0  0
    1.9520    3.1750   20.8370 C   0  0  0  0  0  0  0  0  0  0  0  0
    3.2100    2.5900   21.4980 C   0  0  0  0  0  0  0  0  0  0  0  0
    4.0420    2.8940   22.3690 O   0  0  0  0  0  0  0  0  0  0  0  0
    6.1980   -3.1150   22.5080 C   0  0  0  0  0  0  0  0  0  0  0  0
    7.1810   -3.2590   23.6560 C   0  0  0  0  0  0  0  0  0  0  0  0
    9.3970   -2.5730   22.3270 C   0  0  0  0  0  0  0  0  0  0  0  0
  1  2  1  0
  2  3  2  0
  2  4  1  0
  4  5  2  0
  5  6  1  0
  6  7  2  0
  7  8  1  0
  8  9  1  0
  9 10  1  0
 10 11  1  0
 11 12  1  0
 12 13  1  0
 13 14  1  0
 14 15  2  0
 14 16  2  0
 14 17  1  0
 17 18  2  3
 18 19  1  0
 19 20  1  0
 20 21  1  0
 21 22  1  0
 20 23  1  0
 22 23  1  0
 23 24  2  0
 13 25  1  0
 10 26  1  0
 25 26  1  0
  4 27  1  0
  8 27  2  0
M  END
