SEA-TRI-67e8f1c7-1-chloroacetamide
     RDKit          3D

 30 33  0  0  0  0  0  0  0  0999 V2000
    7.5960   -3.6950   19.7350 C   0  0  0  0  0  0  0  0  0  0  0  0
    6.3450   -2.9740   19.8870 C   0  0  0  0  0  0  0  0  0  0  0  0
    5.4040   -3.2000   19.1160 O   0  0  0  0  0  0  0  0  0  0  0  0
    6.3420   -2.1360   20.9800 N   0  0  0  0  0  0  0  0  0  0  0  0
    7.4130   -1.1490   21.0850 C   0  0  0  0  0  0  0  0  0  0  0  0
    8.6000   -1.5480   21.6780 C   0  0  0  0  0  0  0  0  0  0  0  0
    8.3270   -2.2000   22.9800 N   0  0  0  0  0  0  0  0  0  0  0  0
    9.2910   -2.2630   23.9730 C   0  0  0  0  0  0  0  0  0  0  0  0
   10.2670   -1.3720   23.6160 C   0  0  0  0  0  0  0  0  0  0  0  0
   11.2620   -1.8520   22.8280 C   0  0  0  0  0  0  0  0  0  0  0  0
   12.3960   -1.0780   22.2840 C   0  0  0  0  0  0  0  0  0  0  0  0
   13.4670   -1.8620   21.2830 Cl  0  0  0  0  0  0  0  0  0  0  0  0
   12.4060    0.3890   22.7040 C   0  0  0  0  0  0  0  0  0  0  0  0
   11.2590    0.9070   23.5620 C   0  0  0  0  0  0  0  0  0  0  0  0
   11.2730    2.4140   23.8860 C   0  0  0  0  0  0  0  0  0  0  0  0
   10.1270    3.0170   24.7140 C   0  0  0  0  0  0  0  0  0  0  0  0
    9.0540    2.0440   25.1960 C   0  0  0  0  0  0  0  0  0  0  0  0
    9.1680    0.5770   24.8120 C   0  0  0  0  0  0  0  0  0  0  0  0
    8.2810   -0.1690   25.2140 O   0  0  0  0  0  0  0  0  0  0  0  0
    7.4310    0.2040   26.3050 C   0  0  0  0  0  0  0  0  0  0  0  0
    7.7550   -0.5980   27.4090 C   0  0  0  0  0  0  0  0  0  0  0  0
    6.7610   -0.9100   28.2760 N   0  0  0  0  0  0  0  0  0  0  0  0
    5.6680   -0.1110   28.3000 C   0  0  0  0  0  0  0  0  0  0  0  0
    5.8890    1.0020   29.1170 C   0  0  0  0  0  0  0  0  0  0  0  0
    5.9600    0.6510   30.2910 O   0  0  0  0  0  0  0  0  0  0  0  0
    7.1290   -0.1340   30.5580 C   0  0  0  0  0  0  0  0  0  0  0  0
    7.2320   -1.0870   29.5510 C   0  0  0  0  0  0  0  0  0  0  0  0
   10.2190    0.0220   24.0090 C   0  0  0  0  0  0  0  0  0  0  0  0
    7.2970   -3.2360   22.8970 C   0  0  0  0  0  0  0  0  0  0  0  0
    6.1240   -2.7410   22.2960 C   0  0  0  0  0  0  0  0  0  0  0  0
  1  2  1  0
  2  3  2  0
  2  4  1  0
  4  5  1  0
  5  6  1  0
  6  7  1  0
  7  8  1  0
  8  9  1  0
  9 10  2  0
 10 11  1  0
 11 12  1  0
 11 13  2  0
 13 14  1  0
 14 15  1  0
 15 16  2  0
 16 17  1  0
 17 18  2  0
 18 19  1  0
 19 20  1  0
 20 21  1  0
 21 22  1  0
 22 23  1  0
 23 24  1  0
 24 25  1  0
 25 26  1  0
 22 27  1  0
 26 27  1  0
  9 28  1  0
 14 28  2  0
 18 28  1  0
  7 29  1  0
  4 30  1  0
 29 30  1  0
M  END
