SEA-TRI-f93fcab4-1-vinylsulfonamide
     RDKit          3D

 28 30  0  0  0  0  0  0  0  0999 V2000
    6.4110   -3.7130   19.6140 C   0  0  0  0  0  0  0  0  0  0  0  0
    6.3200   -2.8560   20.8470 C   0  0  0  0  0  0  0  0  0  0  0  0
    6.0790   -3.9410   22.2250 S   0  0  0  0  0  0  0  0  0  0  0  0
    4.6800   -4.3220   22.2400 O   0  0  0  0  0  0  0  0  0  0  0  0
    7.1210   -4.9650   22.2250 O   0  0  0  0  0  0  0  0  0  0  0  0
    6.3960   -2.9030   23.6190 C   0  0  0  0  0  0  0  0  0  0  0  0
    7.1480   -1.9550   24.6620 C   0  0  0  0  0  0  0  0  0  0  0  0
    8.3670   -1.1120   25.3170 C   0  0  0  0  0  0  0  0  0  0  0  0
    9.2270   -1.6160   24.1540 C   0  0  0  0  0  0  0  0  0  0  0  0
    7.8470   -2.1000   24.0950 C   0  0  0  0  0  0  0  0  0  0  0  0
    6.9780   -1.5610   25.3140 C   0  0  0  0  0  0  0  0  0  0  0  0
    6.2890   -0.2770   24.9690 N   0  0  0  0  0  0  0  0  0  0  0  0
    7.0940    0.9400   24.8950 C   0  0  0  0  0  0  0  0  0  0  0  0
    7.6930    0.9850   23.5410 C   0  0  0  0  0  0  0  0  0  0  0  0
    6.7030    1.0560   22.5720 N   0  0  0  0  0  0  0  0  0  0  0  0
    6.9700    1.4170   21.2300 C   0  0  0  0  0  0  0  0  0  0  0  0
    8.2240    2.0450   20.8990 O   0  0  0  0  0  0  0  0  0  0  0  0
    6.0140    1.1670   20.1660 C   0  0  0  0  0  0  0  0  0  0  0  0
    6.3510    0.7290   18.9350 C   0  0  0  0  0  0  0  0  0  0  0  0
    4.6500    1.3950   20.4650 C   0  0  0  0  0  0  0  0  0  0  0  0
    3.9860    2.1560   19.4880 C   0  0  0  0  0  0  0  0  0  0  0  0
    4.3470    2.5880   18.3960 C   0  0  0  0  0  0  0  0  0  0  0  0
    3.3350    2.4470   19.4100 C   0  0  0  0  0  0  0  0  0  0  0  0
    2.6770    2.1530   20.4550 N   0  0  0  0  0  0  0  0  0  0  0  0
    2.5380    2.7180   19.4670 O   0  0  0  0  0  0  0  0  0  0  0  0
    5.3520    0.8240   23.1190 C   0  0  0  0  0  0  0  0  0  0  0  0
    5.2760   -0.3100   23.9290 C   0  0  0  0  0  0  0  0  0  0  0  0
    7.5860   -2.9180   23.0090 C   0  0  0  0  0  0  0  0  0  0  0  0
  1  2  1  0
  3  2  1  0
  3  4  2  0
  3  5  2  0
  3  6  1  0
  6  7  2  0
  7  8  1  0
  8  9  2  0
  9 10  1  0
 10 11  1  0
 11 12  1  0
 12 13  1  0
 13 14  1  0
 14 15  1  0
 15 16  1  0
 16 17  2  0
 16 18  1  0
 18 19  2  3
 18 20  1  0
 20 21  1  0
 21 22  2  0
 22 23  1  0
 23 24  2  0
 21 25  1  0
 24 25  1  0
 15 26  1  0
 12 27  1  0
 26 27  1  0
  6 28  1  0
 10 28  2  0
M  END
