SEA-TRI-38830027-1-nitrile
     RDKit          3D

 27 30  0  0  0  0  0  0  0  0999 V2000
    6.9270   -3.4550   19.7880 C   0  0  0  0  0  0  0  0  0  0  0  0
    5.9130   -3.1670   19.0560 N   0  0  0  0  0  0  0  0  0  0  0  0
    7.1240   -2.8450   21.0550 N   0  0  0  0  0  0  0  0  0  0  0  0
    6.4140   -3.2160   22.1700 C   0  0  0  0  0  0  0  0  0  0  0  0
    7.2780   -3.6320   23.2060 C   0  0  0  0  0  0  0  0  0  0  0  0
    6.8170   -4.4300   24.2480 C   0  0  0  0  0  0  0  0  0  0  0  0
    5.6250   -4.7350   24.2080 O   0  0  0  0  0  0  0  0  0  0  0  0
    5.0430   -5.2510   25.4140 C   0  0  0  0  0  0  0  0  0  0  0  0
    3.6760   -4.9490   25.2980 C   0  0  0  0  0  0  0  0  0  0  0  0
    2.8170   -5.8930   25.8630 N   0  0  0  0  0  0  0  0  0  0  0  0
    1.3700   -5.7670   25.6640 C   0  0  0  0  0  0  0  0  0  0  0  0
    0.7350   -4.7050   26.5490 C   0  0  0  0  0  0  0  0  0  0  0  0
    1.4390   -4.5410   27.7650 O   0  0  0  0  0  0  0  0  0  0  0  0
    2.1190   -5.7250   28.1810 C   0  0  0  0  0  0  0  0  0  0  0  0
    3.1380   -6.2430   27.1510 C   0  0  0  0  0  0  0  0  0  0  0  0
    7.7110   -4.8400   25.2710 C   0  0  0  0  0  0  0  0  0  0  0  0
    9.0600   -4.4850   25.3040 C   0  0  0  0  0  0  0  0  0  0  0  0
    9.6120   -3.6050   24.1870 C   0  0  0  0  0  0  0  0  0  0  0  0
    8.6230   -3.2500   23.1980 C   0  0  0  0  0  0  0  0  0  0  0  0
    9.2030   -2.3810   22.0760 C   0  0  2  0  0  0  0  0  0  0  0  0
   10.3560   -1.4630   22.5310 C   0  0  0  0  0  0  0  0  0  0  0  0
   10.1780   -0.4720   23.4060 C   0  0  0  0  0  0  0  0  0  0  0  0
   11.1960    0.1450   23.6250 O   0  0  0  0  0  0  0  0  0  0  0  0
   12.3690   -0.2710   22.9550 C   0  0  0  0  0  0  0  0  0  0  0  0
   11.6870   -1.3270   22.2800 C   0  0  0  0  0  0  0  0  0  0  0  0
   12.8140   -2.2100   21.2490 Cl  0  0  0  0  0  0  0  0  0  0  0  0
    8.1840   -1.7930   21.3020 C   0  0  0  0  0  0  0  0  0  0  0  0
  1  2  2  3
  1  3  1  0
  3  4  1  0
  4  5  1  0
  5  6  1  0
  6  7  1  0
  7  8  1  0
  8  9  1  0
  9 10  1  0
 10 11  1  0
 11 12  1  0
 12 13  1  0
 13 14  1  0
 10 15  1  0
 14 15  1  0
  6 16  2  0
 16 17  1  0
 17 18  2  0
  5 19  2  0
 18 19  1  0
 19 20  1  0
 20 21  1  1
 21 22  2  0
 22 23  1  0
 23 24  1  0
 21 25  1  0
 24 25  2  0
 25 26  1  0
  3 27  1  0
 20 27  1  0
M  END
