SEA-TRI-f93fcab4-1-chloroacetamide
     RDKit          3D

 26 28  0  0  0  0  0  0  0  0999 V2000
    7.7380   -4.1490   20.5690 C   0  0  0  0  0  0  0  0  0  0  0  0
    6.4750   -3.3420   20.6010 C   0  0  0  0  0  0  0  0  0  0  0  0
    6.0430   -4.3310   19.9260 O   0  0  0  0  0  0  0  0  0  0  0  0
    7.4430   -2.4850   21.3860 C   0  0  0  0  0  0  0  0  0  0  0  0
    8.4880   -1.4020   21.1600 C   0  0  0  0  0  0  0  0  0  0  0  0
    9.1430   -0.9810   22.6770 C   0  0  0  0  0  0  0  0  0  0  0  0
    8.6670   -1.6620   24.1340 C   0  0  0  0  0  0  0  0  0  0  0  0
    7.6160   -2.6310   23.7360 C   0  0  0  0  0  0  0  0  0  0  0  0
    6.7880   -3.5380   24.6580 C   0  0  0  0  0  0  0  0  0  0  0  0
    5.3860   -3.2370   24.3470 N   0  0  0  0  0  0  0  0  0  0  0  0
    4.7300   -4.1570   23.4260 C   0  0  0  0  0  0  0  0  0  0  0  0
    5.3770   -4.0050   22.1020 C   0  0  0  0  0  0  0  0  0  0  0  0
    5.1630   -2.7030   21.5930 N   0  0  0  0  0  0  0  0  0  0  0  0
    5.1360   -2.3060   20.1810 C   0  0  0  0  0  0  0  0  0  0  0  0
    5.1600   -3.1610   19.0750 O   0  0  0  0  0  0  0  0  0  0  0  0
    4.9790   -0.9300   19.7090 C   0  0  0  0  0  0  0  0  0  0  0  0
    5.1130    0.3150   19.2170 C   0  0  0  0  0  0  0  0  0  0  0  0
    6.3560   -1.0200   19.4040 C   0  0  0  0  0  0  0  0  0  0  0  0
    6.8200   -0.6370   18.1240 C   0  0  0  0  0  0  0  0  0  0  0  0
    7.0760   -1.4480   17.0660 C   0  0  0  0  0  0  0  0  0  0  0  0
    7.4390   -0.4790   16.3080 C   0  0  0  0  0  0  0  0  0  0  0  0
    7.5590    0.6100   16.3290 N   0  0  0  0  0  0  0  0  0  0  0  0
    7.0940    0.5960   17.7350 O   0  0  0  0  0  0  0  0  0  0  0  0
    4.5650   -1.8370   22.6530 C   0  0  0  0  0  0  0  0  0  0  0  0
    5.2460   -1.8620   23.8740 C   0  0  0  0  0  0  0  0  0  0  0  0
    7.7740   -2.3210   22.5630 C   0  0  0  0  0  0  0  0  0  0  0  0
  1  2  1  0
  2  3  2  0
  2  4  1  0
  4  5  2  0
  5  6  1  0
  6  7  2  0
  7  8  1  0
  8  9  1  0
  9 10  1  0
 10 11  1  0
 11 12  1  0
 12 13  1  0
 13 14  1  0
 14 15  2  0
 14 16  1  0
 16 17  2  3
 16 18  1  0
 18 19  1  0
 19 20  2  0
 20 21  1  0
 21 22  2  0
 19 23  1  0
 22 23  1  0
 13 24  1  0
 10 25  1  0
 24 25  1  0
  4 26  1  0
  8 26  2  0
M  END
