SEA-TRI-f93fcab4-1-acrylamide
     RDKit          3D

 27 29  0  0  0  0  0  0  0  0999 V2000
    6.1300   -5.4020   20.1840 C   0  0  0  0  0  0  0  0  0  0  0  0
    6.3580   -5.7960   21.6230 C   0  0  0  0  0  0  0  0  0  0  0  0
    5.8310   -4.6570   22.4500 C   0  0  0  0  0  0  0  0  0  0  0  0
    4.6960   -4.1940   22.2230 O   0  0  0  0  0  0  0  0  0  0  0  0
    6.7590   -4.1360   23.5210 C   0  0  0  0  0  0  0  0  0  0  0  0
    8.0040   -3.2070   23.3490 C   0  0  0  0  0  0  0  0  0  0  0  0
    8.7520   -2.0740   24.0270 C   0  0  0  0  0  0  0  0  0  0  0  0
   10.1430   -2.4710   23.5490 C   0  0  0  0  0  0  0  0  0  0  0  0
    8.9590   -3.2270   23.3900 C   0  0  0  0  0  0  0  0  0  0  0  0
    8.5890   -1.7590   23.0310 C   0  0  0  0  0  0  0  0  0  0  0  0
    7.7210   -1.0740   23.9130 N   0  0  0  0  0  0  0  0  0  0  0  0
    6.4200   -1.6390   24.3190 C   0  0  0  0  0  0  0  0  0  0  0  0
    5.3660   -0.7340   24.9760 C   0  0  0  0  0  0  0  0  0  0  0  0
    5.5550    0.2920   24.0940 N   0  0  0  0  0  0  0  0  0  0  0  0
    4.9870    0.2200   22.8400 C   0  0  0  0  0  0  0  0  0  0  0  0
    4.6320   -0.9650   22.2390 O   0  0  0  0  0  0  0  0  0  0  0  0
    4.7500    1.5270   22.1020 C   0  0  0  0  0  0  0  0  0  0  0  0
    4.0300    2.4630   22.9440 C   0  0  0  0  0  0  0  0  0  0  0  0
    5.0830    1.9690   20.8280 C   0  0  0  0  0  0  0  0  0  0  0  0
    5.7840    1.0310   19.8350 C   0  0  0  0  0  0  0  0  0  0  0  0
    6.6360   -0.0610   20.3250 C   0  0  0  0  0  0  0  0  0  0  0  0
    6.8120   -0.3340   18.9700 C   0  0  0  0  0  0  0  0  0  0  0  0
    6.3000    0.3000   17.9140 N   0  0  0  0  0  0  0  0  0  0  0  0
    5.5840    1.2550   18.5240 O   0  0  0  0  0  0  0  0  0  0  0  0
    6.8060    0.9730   24.3580 C   0  0  0  0  0  0  0  0  0  0  0  0
    7.6470    0.3300   23.4970 C   0  0  0  0  0  0  0  0  0  0  0  0
    7.6290   -3.4250   23.0730 C   0  0  0  0  0  0  0  0  0  0  0  0
  1  2  1  0
  2  3  1  0
  3  4  2  0
  3  5  1  0
  5  6  2  0
  6  7  1  0
  7  8  2  0
  8  9  1  0
  9 10  1  0
 10 11  1  0
 11 12  1  0
 12 13  1  0
 13 14  1  0
 14 15  1  0
 15 16  2  0
 15 17  1  0
 17 18  2  3
 17 19  1  0
 19 20  1  0
 20 21  2  0
 21 22  1  0
 22 23  2  0
 20 24  1  0
 23 24  1  0
 14 25  1  0
 11 26  1  0
 25 26  1  0
  5 27  1  0
  9 27  2  0
M  END
