SEA-TRI-74689dea-1-acrylamide
     RDKit          3D

 22 23  0  0  0  0  0  0  0  0999 V2000
    7.0350   -2.9140   18.7370 C   0  0  0  0  0  0  0  0  0  0  0  0
    5.8090   -3.3030   19.5250 C   0  0  0  0  0  0  0  0  0  0  0  0
    5.7500   -2.8460   20.9450 C   0  0  0  0  0  0  0  0  0  0  0  0
    4.8940   -3.4280   21.6640 O   0  0  0  0  0  0  0  0  0  0  0  0
    6.6560   -1.7020   21.3830 C   0  0  0  0  0  0  0  0  0  0  0  0
    7.7820   -1.8160   22.2380 C   0  0  0  0  0  0  0  0  0  0  0  0
    8.2330   -3.0650   22.8330 C   0  0  0  0  0  0  0  0  0  0  0  0
    9.4980   -3.0270   23.5890 C   0  0  1  0  0  0  0  0  0  0  0  0
   10.2880   -1.8350   23.5950 C   0  0  0  0  0  0  0  0  0  0  0  0
   10.2170   -0.5770   24.3010 C   0  0  0  0  0  0  0  0  0  0  0  0
   11.1950    0.5850   24.1190 C   0  0  0  0  0  0  0  0  0  0  0  0
   12.3200    0.4030   23.1380 C   0  0  0  0  0  0  0  0  0  0  0  0
   12.2160   -0.9510   22.5140 C   0  0  0  0  0  0  0  0  0  0  0  0
   13.1920   -1.3700   21.4830 C   0  0  0  0  0  0  0  0  0  0  0  0
   13.8400   -1.6410   20.6180 N   0  0  0  0  0  0  0  0  0  0  0  0
   11.3380   -1.9530   22.6940 C   0  0  0  0  0  0  0  0  0  0  0  0
    9.2370   -3.8680   24.8530 C   0  0  0  0  0  0  0  0  0  0  0  0
    9.8490   -5.0840   25.1780 C   0  0  0  0  0  0  0  0  0  0  0  0
    9.4210   -5.6760   26.3370 C   0  0  0  0  0  0  0  0  0  0  0  0
    8.4460   -4.9460   26.9760 C   0  0  0  0  0  0  0  0  0  0  0  0
    7.6270   -5.3270   28.4250 Cl  0  0  0  0  0  0  0  0  0  0  0  0
    8.0940   -3.5160   26.1130 S   0  0  0  0  0  0  0  0  0  0  0  0
  1  2  1  0
  2  3  1  0
  3  4  2  0
  3  5  1  0
  5  6  2  3
  6  7  1  0
  8  7  1  1
  8  9  1  0
  9 10  2  0
 10 11  1  0
 11 12  2  0
 12 13  1  0
 13 14  1  0
 14 15  3  0
  9 16  1  0
 13 16  2  0
  8 17  1  0
 17 18  2  0
 18 19  1  0
 19 20  2  0
 20 21  1  0
 17 22  1  0
 20 22  1  0
M  END
