SEA-TRI-078a8df3-1-chloroacetamide
     RDKit          3D

 29 32  0  0  0  0  0  0  0  0999 V2000
    7.1400   -4.1600   20.7390 C   0  0  0  0  0  0  0  0  0  0  0  0
    7.7750   -2.9750   20.0790 C   0  0  0  0  0  0  0  0  0  0  0  0
    7.2360   -2.9220   18.8680 O   0  0  0  0  0  0  0  0  0  0  0  0
    8.7930   -2.0960   20.8550 N   0  0  0  0  0  0  0  0  0  0  0  0
    8.4530   -0.8160   21.5150 C   0  0  0  0  0  0  0  0  0  0  0  0
    9.7690   -0.1550   22.1420 C   0  0  0  0  0  0  0  0  0  0  0  0
    9.2210    1.2090   22.6660 C   0  0  0  0  0  0  0  0  0  0  0  0
    8.0400    1.5340   22.5490 O   0  0  0  0  0  0  0  0  0  0  0  0
    7.6620    2.6310   21.7090 C   0  0  0  0  0  0  0  0  0  0  0  0
    6.2630    3.1190   22.0850 C   0  0  0  0  0  0  0  0  0  0  0  0
    5.4120    2.5730   20.9720 N   0  0  0  0  0  0  0  0  0  0  0  0
    4.3470    3.4880   20.5650 C   0  0  0  0  0  0  0  0  0  0  0  0
    3.5680    2.8340   19.4910 C   0  0  0  0  0  0  0  0  0  0  0  0
    3.2550    1.4670   19.7410 O   0  0  0  0  0  0  0  0  0  0  0  0
    4.4620    0.7680   20.0750 C   0  0  0  0  0  0  0  0  0  0  0  0
    4.8920    1.2820   21.2290 C   0  0  0  0  0  0  0  0  0  0  0  0
   10.3700    2.0520   23.3380 C   0  0  0  0  0  0  0  0  0  0  0  0
   11.6200    1.5500   23.3890 C   0  0  0  0  0  0  0  0  0  0  0  0
   12.0380    0.2580   22.8740 C   0  0  0  0  0  0  0  0  0  0  0  0
   11.1310   -0.5800   22.2620 C   0  0  0  0  0  0  0  0  0  0  0  0
   11.5500   -1.8030   21.7950 C   0  0  2  0  0  0  0  0  0  0  0  0
   12.7880   -2.1180   20.9600 C   0  0  0  0  0  0  0  0  0  0  0  0
   13.1030   -3.4720   20.6920 C   0  0  0  0  0  0  0  0  0  0  0  0
   14.1420   -4.1050   19.9500 C   0  0  0  0  0  0  0  0  0  0  0  0
   15.1230   -3.3490   19.2440 C   0  0  0  0  0  0  0  0  0  0  0  0
   15.0560   -1.5340   19.3110 C   0  0  0  0  0  0  0  0  0  0  0  0
   16.0150   -0.3140   18.5590 Cl  0  0  0  0  0  0  0  0  0  0  0  0
   13.8560   -1.1150   20.2860 C   0  0  0  0  0  0  0  0  0  0  0  0
   10.1570   -2.5790   21.4460 C   0  0  0  0  0  0  0  0  0  0  0  0
  1  2  1  0
  2  3  2  0
  2  4  1  0
  4  5  1  0
  5  6  1  0
  6  7  1  0
  7  8  1  0
  8  9  1  0
  9 10  1  0
 10 11  1  0
 11 12  1  0
 12 13  1  0
 13 14  1  0
 14 15  1  0
 11 16  1  0
 15 16  1  0
  7 17  2  0
 17 18  1  0
 18 19  2  0
  6 20  2  0
 19 20  1  0
 20 21  1  0
 21 22  1  6
 22 23  2  0
 23 24  1  0
 24 25  2  0
 25 26  1  0
 26 27  1  0
 22 28  1  0
 26 28  2  0
  4 29  1  0
 21 29  1  0
M  END
