SEA-TRI-ec70a9dd-1-vinylsulfonamide
     RDKit          3D

 29 31  0  0  0  0  0  0  0  0999 V2000
    9.2810   -5.0090   21.0660 C   0  0  0  0  0  0  0  0  0  0  0  0
    7.7990   -5.2920   21.4860 C   0  0  0  0  0  0  0  0  0  0  0  0
    6.6740   -3.8980   21.2770 S   0  0  0  0  0  0  0  0  0  0  0  0
    5.2180   -4.2740   21.4640 O   0  0  0  0  0  0  0  0  0  0  0  0
    7.0570   -3.1770   20.0810 O   0  0  0  0  0  0  0  0  0  0  0  0
    7.3440   -2.9230   22.5910 C   0  0  0  0  0  0  0  0  0  0  0  0
    8.7640   -2.7060   22.6080 C   0  0  0  0  0  0  0  0  0  0  0  0
    9.2760   -1.9420   23.6450 C   0  0  0  0  0  0  0  0  0  0  0  0
    8.4290   -1.4120   24.6120 C   0  0  0  0  0  0  0  0  0  0  0  0
    7.0630   -1.6310   24.5800 C   0  0  0  0  0  0  0  0  0  0  0  0
    6.1760   -1.0180   25.6610 C   0  0  0  0  0  0  0  0  0  0  0  0
    5.7410    0.2930   25.1880 N   0  0  0  0  0  0  0  0  0  0  0  0
    4.7210    0.2280   24.1360 C   0  0  0  0  0  0  0  0  0  0  0  0
    5.3970    0.3710   22.8260 C   0  0  0  0  0  0  0  0  0  0  0  0
    6.3050    1.4510   22.7090 N   0  0  0  0  0  0  0  0  0  0  0  0
    7.6690    1.1800   21.6040 S   0  0  0  0  0  0  0  0  0  0  0  0
    7.6270   -0.2050   21.1880 O   0  0  0  0  0  0  0  0  0  0  0  0
    7.6760    2.2250   20.6110 O   0  0  0  0  0  0  0  0  0  0  0  0
    9.1010    1.3870   22.5880 C   0  0  0  0  0  0  0  0  0  0  0  0
    9.7610    2.5780   22.4000 C   0  0  0  0  0  0  0  0  0  0  0  0
   10.9200    2.9080   23.0850 C   0  0  0  0  0  0  0  0  0  0  0  0
   11.3810    4.1640   22.6920 N   0  0  0  0  0  0  0  0  0  0  0  0
   12.7420    4.3770   22.0950 C   0  0  0  0  0  0  0  0  0  0  0  0
   13.1380    5.3490   22.9850 C   0  0  0  0  0  0  0  0  0  0  0  0
   11.7870    5.2190   23.6520 C   0  0  0  0  0  0  0  0  0  0  0  0
   11.2130    5.7370   24.5880 O   0  0  0  0  0  0  0  0  0  0  0  0
    6.6150    2.1490   24.0090 C   0  0  0  0  0  0  0  0  0  0  0  0
    6.8380    1.2590   25.0730 C   0  0  0  0  0  0  0  0  0  0  0  0
    6.5270   -2.3990   23.5550 C   0  0  0  0  0  0  0  0  0  0  0  0
  1  2  1  0
  3  2  1  0
  3  4  2  0
  3  5  2  0
  3  6  1  0
  6  7  2  0
  7  8  1  0
  8  9  2  0
  9 10  1  0
 10 11  1  0
 11 12  1  0
 12 13  1  0
 13 14  1  0
 14 15  1  0
 15 16  1  0
 16 17  2  0
 16 18  2  0
 16 19  1  0
 19 20  2  3
 20 21  1  0
 21 22  1  0
 22 23  1  0
 23 24  1  0
 22 25  1  0
 24 25  1  0
 25 26  2  0
 15 27  1  0
 12 28  1  0
 27 28  1  0
  6 29  1  0
 10 29  2  0
M  END
