SEA-TRI-ec70a9dd-1-nitrile
     RDKit          3D

 26 28  0  0  0  0  0  0  0  0999 V2000
    8.5500   -3.0650   19.5650 C   0  0  0  0  0  0  0  0  0  0  0  0
    7.1770   -3.2240   19.2790 N   0  0  0  0  0  0  0  0  0  0  0  0
    9.0500   -2.9590   21.1410 C   0  0  0  0  0  0  0  0  0  0  0  0
    9.5270   -1.4700   21.0340 C   0  0  0  0  0  0  0  0  0  0  0  0
   10.1660   -0.3810   21.9010 C   0  0  0  0  0  0  0  0  0  0  0  0
   10.4370   -0.6300   23.1800 C   0  0  0  0  0  0  0  0  0  0  0  0
    9.9110   -1.6520   22.5100 C   0  0  0  0  0  0  0  0  0  0  0  0
    9.8980   -2.2410   23.7310 C   0  0  0  0  0  0  0  0  0  0  0  0
    8.4750   -2.3150   23.8670 N   0  0  0  0  0  0  0  0  0  0  0  0
    7.7460   -1.2740   23.3050 C   0  0  0  0  0  0  0  0  0  0  0  0
    7.1150   -1.4090   22.0430 C   0  0  0  0  0  0  0  0  0  0  0  0
    6.8270   -2.7340   21.6170 N   0  0  0  0  0  0  0  0  0  0  0  0
    5.9970   -2.9460   20.1100 S   0  0  0  0  0  0  0  0  0  0  0  0
    6.9190   -3.2390   19.0570 O   0  0  0  0  0  0  0  0  0  0  0  0
    4.9750   -3.9320   20.3600 O   0  0  0  0  0  0  0  0  0  0  0  0
    5.2880   -1.3910   19.6760 C   0  0  0  0  0  0  0  0  0  0  0  0
    5.7900   -0.5620   18.6660 C   0  0  0  0  0  0  0  0  0  0  0  0
    5.1410    0.6350   18.4030 C   0  0  0  0  0  0  0  0  0  0  0  0
    4.7540    1.4400   19.4230 N   0  0  0  0  0  0  0  0  0  0  0  0
    3.4250    1.4700   19.7030 C   0  0  0  0  0  0  0  0  0  0  0  0
    3.2230    2.7980   19.5870 C   0  0  0  0  0  0  0  0  0  0  0  0
    4.5840    2.9290   19.3010 C   0  0  0  0  0  0  0  0  0  0  0  0
    5.2120    4.1930   19.0430 O   0  0  0  0  0  0  0  0  0  0  0  0
    6.7500   -3.7120   22.7190 C   0  0  0  0  0  0  0  0  0  0  0  0
    7.8510   -3.6620   23.6070 C   0  0  0  0  0  0  0  0  0  0  0  0
    9.4680   -2.8700   22.4620 C   0  0  0  0  0  0  0  0  0  0  0  0
  1  2  2  3
  1  3  1  0
  3  4  2  0
  4  5  1  0
  5  6  2  0
  6  7  1  0
  7  8  1  0
  8  9  1  0
  9 10  1  0
 10 11  1  0
 11 12  1  0
 12 13  1  0
 13 14  2  0
 13 15  2  0
 13 16  1  0
 16 17  2  3
 17 18  1  0
 18 19  1  0
 19 20  1  0
 20 21  1  0
 19 22  1  0
 21 22  1  0
 22 23  2  0
 12 24  1  0
  9 25  1  0
 24 25  1  0
  3 26  1  0
  7 26  2  0
M  END
