SEA-TRI-ec70a9dd-1-nitrile
     RDKit          3D

 26 28  0  0  0  0  0  0  0  0999 V2000
    7.3530   -3.6790   20.0860 C   0  0  0  0  0  0  0  0  0  0  0  0
    6.2300   -3.7310   19.4500 N   0  0  0  0  0  0  0  0  0  0  0  0
    7.5030   -3.0200   21.4380 C   0  0  0  0  0  0  0  0  0  0  0  0
    8.8840   -2.4860   21.7690 C   0  0  0  0  0  0  0  0  0  0  0  0
    9.0780   -1.8220   23.1070 C   0  0  0  0  0  0  0  0  0  0  0  0
    8.0320   -1.6010   24.2240 C   0  0  0  0  0  0  0  0  0  0  0  0
    6.8810   -2.3010   23.3830 C   0  0  0  0  0  0  0  0  0  0  0  0
    5.8150   -2.0600   24.5400 C   0  0  0  0  0  0  0  0  0  0  0  0
    5.1810   -0.7210   24.6990 N   0  0  0  0  0  0  0  0  0  0  0  0
    5.4670   -0.0230   25.9680 C   0  0  0  0  0  0  0  0  0  0  0  0
    5.5460    1.5100   25.7020 C   0  0  0  0  0  0  0  0  0  0  0  0
    6.0420    2.0240   24.5930 N   0  0  0  0  0  0  0  0  0  0  0  0
    6.3330    3.7150   24.5460 S   0  0  0  0  0  0  0  0  0  0  0  0
    5.7710    4.2680   25.7620 O   0  0  0  0  0  0  0  0  0  0  0  0
    5.8640    4.1860   23.2610 O   0  0  0  0  0  0  0  0  0  0  0  0
    8.0670    3.9170   24.6350 C   0  0  0  0  0  0  0  0  0  0  0  0
    8.9210    4.1550   23.3800 C   0  0  0  0  0  0  0  0  0  0  0  0
   10.4140    4.3020   23.7000 C   0  0  0  0  0  0  0  0  0  0  0  0
   11.1410    4.9110   22.7360 N   0  0  0  0  0  0  0  0  0  0  0  0
   12.1750    4.2050   22.1570 C   0  0  0  0  0  0  0  0  0  0  0  0
   13.1570    5.2760   22.4010 C   0  0  0  0  0  0  0  0  0  0  0  0
   11.9900    6.0160   23.0150 C   0  0  0  0  0  0  0  0  0  0  0  0
   11.8910    7.2600   23.5850 O   0  0  0  0  0  0  0  0  0  0  0  0
    5.4620    1.4890   23.5000 C   0  0  0  0  0  0  0  0  0  0  0  0
    4.7020    0.1670   23.6290 C   0  0  0  0  0  0  0  0  0  0  0  0
    6.3620   -2.9790   22.2160 C   0  0  0  0  0  0  0  0  0  0  0  0
  1  2  2  3
  1  3  1  0
  3  4  2  0
  4  5  1  0
  5  6  2  0
  6  7  1  0
  7  8  1  0
  8  9  1  0
  9 10  1  0
 10 11  1  0
 11 12  1  0
 12 13  1  0
 13 14  2  0
 13 15  2  0
 13 16  1  0
 16 17  2  3
 17 18  1  0
 18 19  1  0
 19 20  1  0
 20 21  1  0
 19 22  1  0
 21 22  1  0
 22 23  2  0
 12 24  1  0
  9 25  1  0
 24 25  1  0
  3 26  1  0
  7 26  2  0
M  END
