SEA-TRI-8252c13b-1-vinylsulfonamide
     RDKit          3D

 26 28  0  0  0  0  0  0  0  0999 V2000
    7.6440   -2.9210   19.6420 C   0  0  0  0  0  0  0  0  0  0  0  0
    6.3610   -2.0160   19.6750 C   0  0  0  0  0  0  0  0  0  0  0  0
    5.4870   -1.7490   21.2220 S   0  0  0  0  0  0  0  0  0  0  0  0
    4.6970   -3.0080   21.5120 O   0  0  0  0  0  0  0  0  0  0  0  0
    4.7260   -0.5480   21.0030 O   0  0  0  0  0  0  0  0  0  0  0  0
    6.7220   -1.3180   22.3500 N   0  0  0  0  0  0  0  0  0  0  0  0
    7.5540   -2.4440   22.7910 C   0  0  0  0  0  0  0  0  0  0  0  0
    8.3970   -1.8450   23.8840 C   0  0  0  0  0  0  0  0  0  0  0  0
    9.2680   -0.8620   23.1980 N   0  0  0  0  0  0  0  0  0  0  0  0
   10.2080   -1.4650   22.2430 C   0  0  0  0  0  0  0  0  0  0  0  0
   11.2130   -2.0990   23.1770 C   0  0  0  0  0  0  0  0  0  0  0  0
   12.8150   -1.8740   23.3160 C   0  0  0  0  0  0  0  0  0  0  0  0
   13.8530   -2.4780   24.2540 C   0  0  0  0  0  0  0  0  0  0  0  0
   12.4770   -2.4310   23.8680 C   0  0  0  0  0  0  0  0  0  0  0  0
   11.1580   -3.2780   24.5160 Cl  0  0  0  0  0  0  0  0  0  0  0  0
   12.3570   -1.2640   22.5200 S   0  0  0  0  0  0  0  0  0  0  0  0
    8.5750    0.3180   22.7060 C   0  0  0  0  0  0  0  0  0  0  0  0
    7.3560    0.0290   22.0920 C   0  0  2  0  0  0  0  0  0  0  0  0
    6.3950    1.0020   22.2730 C   0  0  0  0  0  0  0  0  0  0  0  0
    6.0560    1.1600   20.9700 C   0  0  0  0  0  0  0  0  0  0  0  0
    4.9200    1.8370   20.5260 C   0  0  0  0  0  0  0  0  0  0  0  0
    4.6880    1.9050   19.1600 C   0  0  0  0  0  0  0  0  0  0  0  0
    5.6090    1.2920   18.3360 C   0  0  0  0  0  0  0  0  0  0  0  0
    5.4590    1.3040   16.9660 O   0  0  0  0  0  0  0  0  0  0  0  0
    6.7320    0.6290   18.7800 C   0  0  0  0  0  0  0  0  0  0  0  0
    6.9780    0.5510   20.1070 C   0  0  0  0  0  0  0  0  0  0  0  0
  1  2  1  0
  3  2  1  0
  3  4  2  0
  3  5  2  0
  3  6  1  0
  6  7  1  0
  7  8  1  0
  8  9  1  0
  9 10  1  0
 10 11  1  0
 11 12  2  0
 12 13  1  0
 13 14  2  0
 14 15  1  0
 11 16  1  0
 14 16  1  0
  9 17  1  0
  6 18  1  0
 17 18  1  0
 18 19  1  1
 19 20  1  0
 20 21  2  0
 21 22  1  0
 22 23  2  0
 23 24  1  0
 23 25  1  0
 20 26  1  0
 25 26  2  0
M  END
