SEA-TRI-ec70a9dd-1-vinylsulfonamide
     RDKit          3D

 29 31  0  0  0  0  0  0  0  0999 V2000
    6.3010   -5.3490   20.3190 C   0  0  0  0  0  0  0  0  0  0  0  0
    5.8560   -6.2230   21.5230 C   0  0  0  0  0  0  0  0  0  0  0  0
    5.4680   -5.1590   22.8660 S   0  0  0  0  0  0  0  0  0  0  0  0
    4.4960   -4.1820   22.3880 O   0  0  0  0  0  0  0  0  0  0  0  0
    5.1950   -5.9700   24.0370 O   0  0  0  0  0  0  0  0  0  0  0  0
    7.0720   -4.3630   23.1470 C   0  0  0  0  0  0  0  0  0  0  0  0
    8.6780   -4.3630   23.5480 C   0  0  0  0  0  0  0  0  0  0  0  0
    9.9790   -3.3080   23.7080 C   0  0  0  0  0  0  0  0  0  0  0  0
    9.4860   -4.6220   23.7940 C   0  0  0  0  0  0  0  0  0  0  0  0
    8.0560   -4.4880   23.4140 C   0  0  0  0  0  0  0  0  0  0  0  0
    9.0100   -3.2290   23.4600 C   0  0  0  0  0  0  0  0  0  0  0  0
    8.2510   -1.9610   23.7210 N   0  0  0  0  0  0  0  0  0  0  0  0
    6.8150   -2.0940   23.3530 C   0  0  0  0  0  0  0  0  0  0  0  0
    6.3410   -0.8300   22.6150 C   0  0  0  0  0  0  0  0  0  0  0  0
    6.9910   -0.6720   21.4100 N   0  0  0  0  0  0  0  0  0  0  0  0
    6.3350   -1.4210   20.0300 S   0  0  0  0  0  0  0  0  0  0  0  0
    7.4260   -1.6330   19.0980 O   0  0  0  0  0  0  0  0  0  0  0  0
    5.5010   -2.5210   20.4690 O   0  0  0  0  0  0  0  0  0  0  0  0
    5.2770   -0.2180   19.3900 C   0  0  0  0  0  0  0  0  0  0  0  0
    5.7640    1.1820   19.0810 C   0  0  0  0  0  0  0  0  0  0  0  0
    4.6170    2.0140   18.5390 C   0  0  0  0  0  0  0  0  0  0  0  0
    4.1740    2.9900   19.3550 N   0  0  0  0  0  0  0  0  0  0  0  0
    2.8300    3.2420   19.3000 C   0  0  0  0  0  0  0  0  0  0  0  0
    2.6790    3.1970   20.7480 C   0  0  0  0  0  0  0  0  0  0  0  0
    4.2000    2.9740   20.7750 C   0  0  0  0  0  0  0  0  0  0  0  0
    5.0990    2.8420   21.6170 O   0  0  0  0  0  0  0  0  0  0  0  0
    8.4530   -0.6790   21.5660 C   0  0  0  0  0  0  0  0  0  0  0  0
    8.8680   -0.8090   23.0200 C   0  0  0  0  0  0  0  0  0  0  0  0
    7.5260   -5.6770   23.4640 C   0  0  0  0  0  0  0  0  0  0  0  0
  1  2  1  0
  3  2  1  0
  3  4  2  0
  3  5  2  0
  3  6  1  0
  6  7  2  0
  7  8  1  0
  8  9  2  0
  9 10  1  0
 10 11  1  0
 11 12  1  0
 12 13  1  0
 13 14  1  0
 14 15  1  0
 15 16  1  0
 16 17  2  0
 16 18  2  0
 16 19  1  0
 19 20  2  3
 20 21  1  0
 21 22  1  0
 22 23  1  0
 23 24  1  0
 22 25  1  0
 24 25  1  0
 25 26  2  0
 15 27  1  0
 12 28  1  0
 27 28  1  0
  6 29  1  0
 10 29  2  0
M  END
