SEA-TRI-38830027-1-chloroacetamide
     RDKit          3D

 28 31  0  0  0  0  0  0  0  0999 V2000
    7.4300   -2.9970   18.8610 C   0  0  0  0  0  0  0  0  0  0  0  0
    6.5900   -3.3620   20.0340 C   0  0  0  0  0  0  0  0  0  0  0  0
    5.6400   -4.1540   19.8370 O   0  0  0  0  0  0  0  0  0  0  0  0
    6.9290   -2.8330   21.2850 N   0  0  0  0  0  0  0  0  0  0  0  0
    6.2460   -3.1830   22.5340 C   0  0  0  0  0  0  0  0  0  0  0  0
    7.4340   -3.6390   23.4380 C   0  0  0  0  0  0  0  0  0  0  0  0
    6.8020   -4.5820   24.5090 C   0  0  0  0  0  0  0  0  0  0  0  0
    5.6020   -4.8450   24.5430 O   0  0  0  0  0  0  0  0  0  0  0  0
    4.9700   -5.1200   25.7990 C   0  0  0  0  0  0  0  0  0  0  0  0
    4.5420   -6.5880   25.8440 C   0  0  0  0  0  0  0  0  0  0  0  0
    3.2960   -6.5730   26.6880 N   0  0  0  0  0  0  0  0  0  0  0  0
    2.1460   -5.9280   26.0710 C   0  0  0  0  0  0  0  0  0  0  0  0
    1.4450   -5.1450   27.1160 C   0  0  0  0  0  0  0  0  0  0  0  0
    1.3000   -5.7840   28.3950 O   0  0  0  0  0  0  0  0  0  0  0  0
    2.4470   -6.5930   28.7240 C   0  0  0  0  0  0  0  0  0  0  0  0
    3.4800   -6.1440   28.0190 C   0  0  0  0  0  0  0  0  0  0  0  0
    7.9200   -5.1110   25.4940 C   0  0  0  0  0  0  0  0  0  0  0  0
    9.2020   -4.7210   25.3210 C   0  0  0  0  0  0  0  0  0  0  0  0
    9.6660   -3.8190   24.2620 C   0  0  0  0  0  0  0  0  0  0  0  0
    8.7810   -3.2880   23.3310 C   0  0  0  0  0  0  0  0  0  0  0  0
    9.2350   -2.4290   22.3310 C   0  0  2  0  0  0  0  0  0  0  0  0
   10.1020   -1.4220   22.8210 C   0  0  0  0  0  0  0  0  0  0  0  0
   11.4290   -1.3750   22.3230 C   0  0  0  0  0  0  0  0  0  0  0  0
   11.6600   -0.2890   23.1680 O   0  0  0  0  0  0  0  0  0  0  0  0
   10.8800    0.4130   24.0910 C   0  0  0  0  0  0  0  0  0  0  0  0
    9.8350   -0.4360   23.7730 C   0  0  0  0  0  0  0  0  0  0  0  0
    8.3360   -0.2430   24.5400 Cl  0  0  0  0  0  0  0  0  0  0  0  0
    8.0510   -1.8700   21.4940 C   0  0  0  0  0  0  0  0  0  0  0  0
  1  2  1  0
  2  3  2  0
  2  4  1  0
  4  5  1  0
  5  6  1  0
  6  7  1  0
  7  8  1  0
  8  9  1  0
  9 10  1  0
 10 11  1  0
 11 12  1  0
 12 13  1  0
 13 14  1  0
 14 15  1  0
 11 16  1  0
 15 16  1  0
  7 17  2  0
 17 18  1  0
 18 19  2  0
  6 20  2  0
 19 20  1  0
 20 21  1  0
 21 22  1  1
 22 23  2  0
 23 24  1  0
 24 25  1  0
 22 26  1  0
 25 26  2  0
 26 27  1  0
  4 28  1  0
 21 28  1  0
M  END
