SEA-TRI-f93fcab4-1-chloroacetamide
     RDKit          3D

 26 28  0  0  0  0  0  0  0  0999 V2000
    7.3590   -3.9250   20.2040 C   0  0  0  0  0  0  0  0  0  0  0  0
    6.7540   -2.5740   20.0100 C   0  0  0  0  0  0  0  0  0  0  0  0
    6.2340   -3.1140   18.9920 O   0  0  0  0  0  0  0  0  0  0  0  0
    7.5530   -2.3840   21.2840 C   0  0  0  0  0  0  0  0  0  0  0  0
    8.6960   -1.5750   21.3780 C   0  0  0  0  0  0  0  0  0  0  0  0
    9.3800   -1.4260   22.5960 C   0  0  0  0  0  0  0  0  0  0  0  0
    8.9280   -2.0720   23.7450 C   0  0  0  0  0  0  0  0  0  0  0  0
    7.7050   -2.9290   23.6310 C   0  0  0  0  0  0  0  0  0  0  0  0
    7.1640   -3.6220   24.8540 C   0  0  0  0  0  0  0  0  0  0  0  0
    5.7550   -3.5580   24.8880 N   0  0  0  0  0  0  0  0  0  0  0  0
    5.0730   -4.6150   24.1310 C   0  0  0  0  0  0  0  0  0  0  0  0
    4.4030   -4.0620   22.8700 C   0  0  0  0  0  0  0  0  0  0  0  0
    4.8760   -2.8630   22.2620 N   0  0  0  0  0  0  0  0  0  0  0  0
    5.1560   -2.6910   20.7730 C   0  0  0  0  0  0  0  0  0  0  0  0
    5.0050   -3.7850   19.8370 O   0  0  0  0  0  0  0  0  0  0  0  0
    5.5400   -1.3730   20.3090 C   0  0  0  0  0  0  0  0  0  0  0  0
    4.4570   -0.3150   20.1840 C   0  0  0  0  0  0  0  0  0  0  0  0
    6.7690   -0.8200   19.9310 C   0  0  0  0  0  0  0  0  0  0  0  0
    6.9680   -0.8990   18.3890 C   0  0  0  0  0  0  0  0  0  0  0  0
    7.2100    0.3230   17.5860 C   0  0  0  0  0  0  0  0  0  0  0  0
    7.3740   -0.0840   16.2740 C   0  0  0  0  0  0  0  0  0  0  0  0
    7.2380   -1.4100   16.2350 N   0  0  0  0  0  0  0  0  0  0  0  0
    6.9860   -1.8470   17.5830 O   0  0  0  0  0  0  0  0  0  0  0  0
    5.3570   -1.8500   23.2500 C   0  0  0  0  0  0  0  0  0  0  0  0
    5.1840   -2.2170   24.5910 C   0  0  0  0  0  0  0  0  0  0  0  0
    7.0810   -3.0550   22.4090 C   0  0  0  0  0  0  0  0  0  0  0  0
  1  2  1  0
  2  3  2  0
  2  4  1  0
  4  5  2  0
  5  6  1  0
  6  7  2  0
  7  8  1  0
  8  9  1  0
  9 10  1  0
 10 11  1  0
 11 12  1  0
 12 13  1  0
 13 14  1  0
 14 15  2  0
 14 16  1  0
 16 17  2  3
 16 18  1  0
 18 19  1  0
 19 20  2  0
 20 21  1  0
 21 22  2  0
 19 23  1  0
 22 23  1  0
 13 24  1  0
 10 25  1  0
 24 25  1  0
  4 26  1  0
  8 26  2  0
M  END
