SEA-TRI-146a67b6-1
     RDKit          3D

 24 26  0  0  0  0  0  0  0  0999 V2000
    7.0540   -0.9640   18.5480 C   0  0  0  0  0  0  0  0  0  0  0  0
    6.7370   -2.1170   19.4310 C   0  0  0  0  0  0  0  0  0  0  0  0
    5.4910   -1.5140   19.4170 C   0  0  0  0  0  0  0  0  0  0  0  0
    5.4720   -0.1300   19.2910 C   0  0  0  0  0  0  0  0  0  0  0  0
    4.8170    0.5140   18.2890 C   0  0  0  0  0  0  0  0  0  0  0  0
    4.9890    1.8570   18.4590 C   0  0  0  0  0  0  0  0  0  0  0  0
    5.6820    2.0860   19.4550 O   0  0  0  0  0  0  0  0  0  0  0  0
    6.0460    0.8520   20.0670 N   0  0  0  0  0  0  0  0  0  0  0  0
    6.0110   -2.9910   20.2540 C   0  0  0  0  0  0  0  0  0  0  0  0
    5.3460   -3.9120   19.7520 O   0  0  0  0  0  0  0  0  0  0  0  0
    6.0860   -2.7430   21.6440 N   0  0  0  0  0  0  0  0  0  0  0  0
    6.2000   -3.7720   22.5920 C   0  0  0  0  0  0  0  0  0  0  0  0
    7.5370   -3.9280   23.3100 C   0  0  0  0  0  0  0  0  0  0  0  0
    8.4010   -2.7580   23.3190 N   0  0  0  0  0  0  0  0  0  0  0  0
    9.0730   -2.2670   24.3980 C   0  0  0  0  0  0  0  0  0  0  0  0
   10.2430   -1.4200   23.9010 C   0  0  0  0  0  0  0  0  0  0  0  0
   10.4130   -0.1410   24.4240 C   0  0  0  0  0  0  0  0  0  0  0  0
   11.5470    0.7940   24.0010 C   0  0  0  0  0  0  0  0  0  0  0  0
   12.5120    0.3270   23.0030 C   0  0  0  0  0  0  0  0  0  0  0  0
   12.2750   -1.0990   22.4540 C   0  0  0  0  0  0  0  0  0  0  0  0
   13.2900   -1.7860   21.2830 Cl  0  0  0  0  0  0  0  0  0  0  0  0
   11.1100   -1.9040   22.9640 C   0  0  0  0  0  0  0  0  0  0  0  0
    8.2460   -1.8570   22.1840 C   0  0  0  0  0  0  0  0  0  0  0  0
    6.9060   -1.5780   22.0490 C   0  0  0  0  0  0  0  0  0  0  0  0
  1  2  2  3
  2  3  1  0
  3  4  1  0
  4  5  1  0
  5  6  2  0
  6  7  1  0
  4  8  2  0
  7  8  1  0
  2  9  1  0
  9 10  2  0
  9 11  1  0
 11 12  1  0
 12 13  1  0
 13 14  1  0
 14 15  1  0
 15 16  1  0
 16 17  2  0
 17 18  1  0
 18 19  2  0
 19 20  1  0
 20 21  1  0
 16 22  1  0
 20 22  2  0
 14 23  1  0
 11 24  1  0
 23 24  1  0
M  END
