SEA-TRI-f93fcab4-1-vinylsulfonamide
     RDKit          3D

 28 30  0  0  0  0  0  0  0  0999 V2000
    6.6860   -5.4820   20.4890 C   0  0  0  0  0  0  0  0  0  0  0  0
    6.3300   -4.7970   21.7860 C   0  0  0  0  0  0  0  0  0  0  0  0
    5.2640   -3.4420   21.4360 S   0  0  0  0  0  0  0  0  0  0  0  0
    4.1860   -3.5150   22.3980 O   0  0  0  0  0  0  0  0  0  0  0  0
    4.9140   -3.4530   20.0260 O   0  0  0  0  0  0  0  0  0  0  0  0
    6.3030   -2.0360   21.7540 C   0  0  0  0  0  0  0  0  0  0  0  0
    6.6550   -1.2430   20.7250 C   0  0  0  0  0  0  0  0  0  0  0  0
    7.4500   -0.2110   21.0670 C   0  0  0  0  0  0  0  0  0  0  0  0
    7.8600    0.0020   22.3840 C   0  0  0  0  0  0  0  0  0  0  0  0
    7.5610   -0.7890   23.6960 C   0  0  0  0  0  0  0  0  0  0  0  0
    7.0660   -1.7850   24.7470 C   0  0  0  0  0  0  0  0  0  0  0  0
    6.7290   -1.2050   25.9790 N   0  0  0  0  0  0  0  0  0  0  0  0
    7.3480    0.1050   26.1940 C   0  0  0  0  0  0  0  0  0  0  0  0
    6.5190    1.1500   25.4480 C   0  0  0  0  0  0  0  0  0  0  0  0
    5.4900    0.6920   24.5790 N   0  0  0  0  0  0  0  0  0  0  0  0
    5.3790    0.9560   23.1120 C   0  0  0  0  0  0  0  0  0  0  0  0
    5.0990    0.1700   22.2200 O   0  0  0  0  0  0  0  0  0  0  0  0
    5.6380    2.2890   22.7350 C   0  0  0  0  0  0  0  0  0  0  0  0
    5.7480    3.4280   21.7300 C   0  0  0  0  0  0  0  0  0  0  0  0
    5.3340    1.9010   21.4310 C   0  0  0  0  0  0  0  0  0  0  0  0
    3.9890    2.4590   20.9180 C   0  0  0  0  0  0  0  0  0  0  0  0
    3.4350    2.2070   19.5520 C   0  0  0  0  0  0  0  0  0  0  0  0
    2.2020    2.9010   19.5230 C   0  0  0  0  0  0  0  0  0  0  0  0
    1.9870    3.5160   20.6990 N   0  0  0  0  0  0  0  0  0  0  0  0
    3.0880    3.2530   21.5740 O   0  0  0  0  0  0  0  0  0  0  0  0
    4.6740   -0.4370   25.1040 C   0  0  0  0  0  0  0  0  0  0  0  0
    5.2840   -1.0880   26.1720 C   0  0  0  0  0  0  0  0  0  0  0  0
    6.7310   -1.8010   23.0790 C   0  0  0  0  0  0  0  0  0  0  0  0
  1  2  1  0
  3  2  1  0
  3  4  2  0
  3  5  2  0
  3  6  1  0
  6  7  2  0
  7  8  1  0
  8  9  2  0
  9 10  1  0
 10 11  1  0
 11 12  1  0
 12 13  1  0
 13 14  1  0
 14 15  1  0
 15 16  1  0
 16 17  2  0
 16 18  1  0
 18 19  2  3
 18 20  1  0
 20 21  1  0
 21 22  2  0
 22 23  1  0
 23 24  2  0
 21 25  1  0
 24 25  1  0
 15 26  1  0
 12 27  1  0
 26 27  1  0
  6 28  1  0
 10 28  2  0
M  END
