SEA-TRI-74689dea-1-chloroacetamide
     RDKit          3D

 21 22  0  0  0  0  0  0  0  0999 V2000
    7.0800   -3.0060   19.0100 C   0  0  0  0  0  0  0  0  0  0  0  0
    6.3570   -3.3500   20.2310 C   0  0  0  0  0  0  0  0  0  0  0  0
    5.7130   -4.4240   20.0680 O   0  0  0  0  0  0  0  0  0  0  0  0
    6.4190   -2.3690   21.4330 C   0  0  0  0  0  0  0  0  0  0  0  0
    7.4080   -2.1650   22.6290 C   0  0  0  0  0  0  0  0  0  0  0  0
    8.5020   -3.2010   22.5340 C   0  0  0  0  0  0  0  0  0  0  0  0
    9.4850   -3.0960   23.7570 C   0  0  1  0  0  0  0  0  0  0  0  0
   10.3890   -1.8270   23.5910 C   0  0  0  0  0  0  0  0  0  0  0  0
   10.1760   -0.4940   24.3970 C   0  0  0  0  0  0  0  0  0  0  0  0
   11.2200    0.5980   24.0500 C   0  0  0  0  0  0  0  0  0  0  0  0
   12.2540    0.2420   23.0290 C   0  0  0  0  0  0  0  0  0  0  0  0
   12.2970   -0.9920   22.4030 C   0  0  0  0  0  0  0  0  0  0  0  0
   13.2180   -1.3070   21.4660 C   0  0  0  0  0  0  0  0  0  0  0  0
   13.8740   -1.5470   20.5940 N   0  0  0  0  0  0  0  0  0  0  0  0
   11.4070   -1.9620   22.6780 C   0  0  0  0  0  0  0  0  0  0  0  0
    9.1560   -3.9200   24.9970 C   0  0  0  0  0  0  0  0  0  0  0  0
    9.7920   -5.1200   25.3680 C   0  0  0  0  0  0  0  0  0  0  0  0
    9.3270   -5.7300   26.4960 C   0  0  0  0  0  0  0  0  0  0  0  0
    8.2870   -5.0210   27.0690 C   0  0  0  0  0  0  0  0  0  0  0  0
    7.4710   -5.5290   28.4820 Cl  0  0  0  0  0  0  0  0  0  0  0  0
    7.8770   -3.5410   26.1860 S   0  0  0  0  0  0  0  0  0  0  0  0
  1  2  1  0
  2  3  2  0
  2  4  1  0
  4  5  2  3
  5  6  1  0
  7  6  1  1
  7  8  1  0
  8  9  2  0
  9 10  1  0
 10 11  2  0
 11 12  1  0
 12 13  1  0
 13 14  3  0
  8 15  1  0
 12 15  2  0
  7 16  1  0
 16 17  2  0
 17 18  1  0
 18 19  2  0
 19 20  1  0
 16 21  1  0
 19 21  1  0
M  END
