SEA-TRI-8252c13b-1-nitrile
     RDKit          3D

 23 25  0  0  0  0  0  0  0  0999 V2000
    6.9260   -3.2620   20.0030 C   0  0  0  0  0  0  0  0  0  0  0  0
    6.1390   -2.7640   19.1050 N   0  0  0  0  0  0  0  0  0  0  0  0
    7.1280   -2.7090   21.3560 N   0  0  0  0  0  0  0  0  0  0  0  0
    7.7860   -3.4000   22.5120 C   0  0  0  0  0  0  0  0  0  0  0  0
    8.7490   -2.3300   23.1700 C   0  0  0  0  0  0  0  0  0  0  0  0
    9.2990   -1.3910   22.1370 N   0  0  0  0  0  0  0  0  0  0  0  0
   10.2120   -0.4140   22.7210 C   0  0  0  0  0  0  0  0  0  0  0  0
   11.2150   -1.1030   23.6400 C   0  0  0  0  0  0  0  0  0  0  0  0
   12.4570   -1.9500   23.6110 C   0  0  0  0  0  0  0  0  0  0  0  0
   13.5500   -2.6900   24.3230 C   0  0  0  0  0  0  0  0  0  0  0  0
   13.1000   -2.3970   22.9050 C   0  0  0  0  0  0  0  0  0  0  0  0
   12.0460   -1.6680   24.0400 Cl  0  0  0  0  0  0  0  0  0  0  0  0
   11.8800   -1.5750   22.0740 S   0  0  0  0  0  0  0  0  0  0  0  0
    8.2080   -0.6510   21.4480 C   0  0  0  0  0  0  0  0  0  0  0  0
    6.9490   -1.3030   21.9210 C   0  0  1  0  0  0  0  0  0  0  0  0
    5.7080   -0.7050   21.6780 C   0  0  0  0  0  0  0  0  0  0  0  0
    5.6600   -0.0220   20.4850 C   0  0  0  0  0  0  0  0  0  0  0  0
    4.5050    0.6520   20.1090 C   0  0  0  0  0  0  0  0  0  0  0  0
    4.4550    1.3190   18.9120 C   0  0  0  0  0  0  0  0  0  0  0  0
    5.5190    1.3560   18.0530 C   0  0  0  0  0  0  0  0  0  0  0  0
    5.3980    2.0220   16.8860 O   0  0  0  0  0  0  0  0  0  0  0  0
    6.6860    0.6990   18.4190 C   0  0  0  0  0  0  0  0  0  0  0  0
    6.7590    0.0060   19.6320 C   0  0  0  0  0  0  0  0  0  0  0  0
  1  2  2  3
  1  3  1  0
  3  4  1  0
  4  5  1  0
  5  6  1  0
  6  7  1  0
  7  8  1  0
  8  9  2  0
  9 10  1  0
 10 11  2  0
 11 12  1  0
  8 13  1  0
 11 13  1  0
  6 14  1  0
  3 15  1  0
 14 15  1  0
 15 16  1  6
 16 17  1  0
 17 18  2  0
 18 19  1  0
 19 20  2  0
 20 21  1  0
 20 22  1  0
 17 23  1  0
 22 23  2  0
M  END
