SEA-TRI-67e8f1c7-1-nitrile
     RDKit          3D

 29 32  0  0  0  0  0  0  0  0999 V2000
    6.8520   -3.3100   19.6260 C   0  0  0  0  0  0  0  0  0  0  0  0
    5.8670   -3.2030   18.8110 N   0  0  0  0  0  0  0  0  0  0  0  0
    6.8690   -2.6630   20.8410 N   0  0  0  0  0  0  0  0  0  0  0  0
    6.5100   -3.2880   22.1190 C   0  0  0  0  0  0  0  0  0  0  0  0
    7.7570   -3.4730   22.9690 C   0  0  0  0  0  0  0  0  0  0  0  0
    8.3660   -2.2820   23.1360 N   0  0  0  0  0  0  0  0  0  0  0  0
    9.3940   -2.1460   24.0600 C   0  0  0  0  0  0  0  0  0  0  0  0
   10.3480   -1.2610   23.6480 C   0  0  0  0  0  0  0  0  0  0  0  0
   11.3450   -1.7600   22.8450 C   0  0  0  0  0  0  0  0  0  0  0  0
   12.3650   -1.0390   22.3120 C   0  0  0  0  0  0  0  0  0  0  0  0
   13.4360   -1.8370   21.3160 Cl  0  0  0  0  0  0  0  0  0  0  0  0
   12.4350    0.4360   22.6370 C   0  0  0  0  0  0  0  0  0  0  0  0
   11.3150    0.9930   23.5040 C   0  0  0  0  0  0  0  0  0  0  0  0
   11.4190    2.4870   23.7270 C   0  0  0  0  0  0  0  0  0  0  0  0
   10.3210    3.1550   24.5740 C   0  0  0  0  0  0  0  0  0  0  0  0
    9.2090    2.2470   25.1470 C   0  0  0  0  0  0  0  0  0  0  0  0
    9.2730    0.7540   24.8180 C   0  0  0  0  0  0  0  0  0  0  0  0
    8.3760    0.0570   25.2830 O   0  0  0  0  0  0  0  0  0  0  0  0
    7.1880    0.6580   25.8220 C   0  0  0  0  0  0  0  0  0  0  0  0
    6.4890    1.3790   24.8490 C   0  0  0  0  0  0  0  0  0  0  0  0
    5.3310    1.9780   25.3000 N   0  0  0  0  0  0  0  0  0  0  0  0
    5.0200    2.4110   26.6080 C   0  0  0  0  0  0  0  0  0  0  0  0
    3.6530    2.6030   26.7900 C   0  0  0  0  0  0  0  0  0  0  0  0
    3.3050    3.5290   26.0650 O   0  0  0  0  0  0  0  0  0  0  0  0
    3.5360    3.1910   24.6920 C   0  0  0  0  0  0  0  0  0  0  0  0
    4.8770    2.9290   24.4020 C   0  0  0  0  0  0  0  0  0  0  0  0
   10.2880    0.1420   24.0090 C   0  0  0  0  0  0  0  0  0  0  0  0
    8.7740   -1.7160   21.8280 C   0  0  0  0  0  0  0  0  0  0  0  0
    7.6700   -1.4490   21.0110 C   0  0  0  0  0  0  0  0  0  0  0  0
  1  2  2  3
  1  3  1  0
  3  4  1  0
  4  5  1  0
  5  6  1  0
  6  7  1  0
  7  8  1  0
  8  9  2  0
  9 10  1  0
 10 11  1  0
 10 12  2  0
 12 13  1  0
 13 14  1  0
 14 15  2  0
 15 16  1  0
 16 17  2  0
 17 18  1  0
 18 19  1  0
 19 20  1  0
 20 21  1  0
 21 22  1  0
 22 23  1  0
 23 24  1  0
 24 25  1  0
 21 26  1  0
 25 26  1  0
  8 27  1  0
 13 27  2  0
 17 27  1  0
  6 28  1  0
  3 29  1  0
 28 29  1  0
M  END
