SEA-TRI-6cb4f71a-1-vinylsulfonamide
     RDKit          3D

 30 32  0  0  0  0  0  0  0  0999 V2000
    8.1110   -3.4880   19.7830 C   0  0  0  0  0  0  0  0  0  0  0  0
    6.9810   -2.7390   19.1920 C   0  0  0  0  0  0  0  0  0  0  0  0
    5.7560   -3.3910   20.2110 S   0  0  0  0  0  0  0  0  0  0  0  0
    4.5300   -3.1580   19.5530 O   0  0  0  0  0  0  0  0  0  0  0  0
    6.0670   -4.7500   20.5920 O   0  0  0  0  0  0  0  0  0  0  0  0
    5.9780   -2.4380   21.5820 N   0  0  0  0  0  0  0  0  0  0  0  0
    5.9360   -3.2000   22.8280 C   0  0  0  0  0  0  0  0  0  0  0  0
    7.1880   -3.3720   23.3810 C   0  0  0  0  0  0  0  0  0  0  0  0
    7.9060   -2.2430   23.4380 N   0  0  0  0  0  0  0  0  0  0  0  0
    9.1340   -2.3830   24.2750 C   0  0  1  0  0  0  0  0  0  0  0  0
   10.0230   -1.3860   23.8940 C   0  0  0  0  0  0  0  0  0  0  0  0
   11.1880   -1.8520   23.0550 C   0  0  0  0  0  0  0  0  0  0  0  0
   12.2160   -0.8740   22.5470 C   0  0  0  0  0  0  0  0  0  0  0  0
   13.4350   -1.5450   21.5960 Cl  0  0  0  0  0  0  0  0  0  0  0  0
   12.0460    0.5870   22.9110 C   0  0  0  0  0  0  0  0  0  0  0  0
   10.8370    0.9560   23.7450 C   0  0  0  0  0  0  0  0  0  0  0  0
   10.5650    2.4180   24.0990 C   0  0  0  0  0  0  0  0  0  0  0  0
    9.7350    3.0760   23.1790 C   0  0  0  0  0  0  0  0  0  0  0  0
    9.2930    4.6420   23.7110 S   0  0  0  0  0  0  0  0  0  0  0  0
    8.8090    4.3720   25.2920 N   0  0  0  0  0  0  0  0  0  0  0  0
   10.4730    5.4830   23.8030 O   0  0  0  0  0  0  0  0  0  0  0  0
    8.1010    5.0730   23.0100 O   0  0  0  0  0  0  0  0  0  0  0  0
    9.9010    0.0740   24.2180 C   0  0  0  0  0  0  0  0  0  0  0  0
    8.8740   -2.5530   25.7590 C   0  0  0  0  0  0  0  0  0  0  0  0
    9.1030   -3.8200   26.5920 C   0  0  0  0  0  0  0  0  0  0  0  0
    8.7370   -3.6160   28.0280 C   0  0  0  0  0  0  0  0  0  0  0  0
    8.2680   -2.2890   28.2500 C   0  0  0  0  0  0  0  0  0  0  0  0
    8.2520   -1.3090   26.8260 S   0  0  0  0  0  0  0  0  0  0  0  0
    8.1990   -1.7700   22.0660 C   0  0  0  0  0  0  0  0  0  0  0  0
    7.0090   -1.3790   21.4630 C   0  0  0  0  0  0  0  0  0  0  0  0
  1  2  1  0
  3  2  1  0
  3  4  2  0
  3  5  2  0
  3  6  1  0
  6  7  1  0
  7  8  1  0
  8  9  1  0
  9 10  1  0
 10 11  1  1
 11 12  2  0
 12 13  1  0
 13 14  1  0
 13 15  2  0
 15 16  1  0
 16 17  1  0
 17 18  1  0
 18 19  1  0
 19 20  1  0
 19 21  2  0
 19 22  2  0
 11 23  1  0
 16 23  2  0
 10 24  1  0
 24 25  2  0
 25 26  1  0
 26 27  2  0
 24 28  1  0
 27 28  1  0
  9 29  1  0
  6 30  1  0
 29 30  1  0
M  END
