SEA-TRI-6cb4f71a-1-vinylsulfonamide
     RDKit          3D

 30 32  0  0  0  0  0  0  0  0999 V2000
    7.8030   -4.0520   20.1210 C   0  0  0  0  0  0  0  0  0  0  0  0
    6.9750   -2.9920   19.5290 C   0  0  0  0  0  0  0  0  0  0  0  0
    5.5420   -3.2270   20.4830 S   0  0  0  0  0  0  0  0  0  0  0  0
    4.4830   -3.0830   19.5710 O   0  0  0  0  0  0  0  0  0  0  0  0
    5.5340   -4.4200   21.3000 O   0  0  0  0  0  0  0  0  0  0  0  0
    5.7820   -2.0420   21.6200 N   0  0  0  0  0  0  0  0  0  0  0  0
    5.6220   -2.5380   22.9900 C   0  0  0  0  0  0  0  0  0  0  0  0
    6.9180   -3.3750   23.2010 C   0  0  0  0  0  0  0  0  0  0  0  0
    8.0170   -2.3770   23.1940 N   0  0  0  0  0  0  0  0  0  0  0  0
    9.1580   -2.7750   24.0050 C   0  0  1  0  0  0  0  0  0  0  0  0
   10.0550   -1.5680   23.7470 C   0  0  0  0  0  0  0  0  0  0  0  0
   11.2170   -2.0200   22.9580 C   0  0  0  0  0  0  0  0  0  0  0  0
   12.1930   -0.9090   22.5510 C   0  0  0  0  0  0  0  0  0  0  0  0
   13.4990   -1.3810   21.6290 Cl  0  0  0  0  0  0  0  0  0  0  0  0
   11.9270    0.5040   22.9620 C   0  0  0  0  0  0  0  0  0  0  0  0
   10.7200    0.8410   23.7460 C   0  0  0  0  0  0  0  0  0  0  0  0
   10.5700    2.1400   23.9980 C   0  0  0  0  0  0  0  0  0  0  0  0
    9.9160    2.8970   22.9600 C   0  0  0  0  0  0  0  0  0  0  0  0
    9.0640    4.2210   23.5940 S   0  0  0  0  0  0  0  0  0  0  0  0
    8.6900    3.7530   25.1580 N   0  0  0  0  0  0  0  0  0  0  0  0
    7.7850    4.3380   22.9310 O   0  0  0  0  0  0  0  0  0  0  0  0
    9.9640    5.3510   23.6810 O   0  0  0  0  0  0  0  0  0  0  0  0
    9.7970   -0.1190   24.1600 C   0  0  0  0  0  0  0  0  0  0  0  0
    8.7260   -3.3180   25.3710 C   0  0  0  0  0  0  0  0  0  0  0  0
    8.8670   -4.6490   25.8070 C   0  0  0  0  0  0  0  0  0  0  0  0
    8.3970   -4.8990   27.0630 C   0  0  0  0  0  0  0  0  0  0  0  0
    7.8640   -3.7970   27.6850 C   0  0  0  0  0  0  0  0  0  0  0  0
    7.9550   -2.4070   26.6620 S   0  0  0  0  0  0  0  0  0  0  0  0
    8.1540   -1.7100   21.8830 C   0  0  0  0  0  0  0  0  0  0  0  0
    6.9550   -1.1850   21.3680 C   0  0  0  0  0  0  0  0  0  0  0  0
  1  2  1  0
  3  2  1  0
  3  4  2  0
  3  5  2  0
  3  6  1  0
  6  7  1  0
  7  8  1  0
  8  9  1  0
  9 10  1  0
 10 11  1  1
 11 12  2  0
 12 13  1  0
 13 14  1  0
 13 15  2  0
 15 16  1  0
 16 17  1  0
 17 18  1  0
 18 19  1  0
 19 20  1  0
 19 21  2  0
 19 22  2  0
 11 23  1  0
 16 23  2  0
 10 24  1  0
 24 25  2  0
 25 26  1  0
 26 27  2  0
 24 28  1  0
 27 28  1  0
  9 29  1  0
  6 30  1  0
 29 30  1  0
M  END
