SEL-UNI-cd366922-2-nitrile
     RDKit          3D

 21 22  0  0  0  0  0  0  0  0999 V2000
    6.7840   -3.5040   19.6660 C   0  0  0  0  0  0  0  0  0  0  0  0
    6.3160   -3.0890   18.5530 N   0  0  0  0  0  0  0  0  0  0  0  0
    6.7440   -2.7220   20.7950 N   0  0  0  0  0  0  0  0  0  0  0  0
    6.1140   -3.0780   22.0450 C   0  0  0  0  0  0  0  0  0  0  0  0
    7.2140   -3.3640   23.0470 C   0  0  0  0  0  0  0  0  0  0  0  0
    8.3460   -2.3350   23.0350 N   0  0  0  0  0  0  0  0  0  0  0  0
    9.4420   -2.3970   23.8820 C   0  0  2  0  0  0  0  0  0  0  0  0
    8.9880   -2.4840   25.3360 C   0  0  0  0  0  0  0  0  0  0  0  0
    9.7500   -3.5410   26.0160 N   0  0  0  0  0  0  0  0  0  0  0  0
    9.0570   -4.4260   27.2530 S   0  0  0  0  0  0  0  0  0  0  0  0
    8.9100   -6.0760   26.5090 C   0  0  0  0  0  0  0  0  0  0  0  0
    7.7320   -3.8750   27.4540 O   0  0  0  0  0  0  0  0  0  0  0  0
    9.9920   -4.5340   28.3360 O   0  0  0  0  0  0  0  0  0  0  0  0
   10.4930   -1.3180   23.6550 C   0  0  0  0  0  0  0  0  0  0  0  0
   10.2890    0.1030   24.1450 C   0  0  0  0  0  0  0  0  0  0  0  0
   11.3840    1.0960   23.8680 C   0  0  0  0  0  0  0  0  0  0  0  0
   12.5270    0.7070   23.1890 C   0  0  0  0  0  0  0  0  0  0  0  0
   12.7080   -0.7220   22.7100 C   0  0  0  0  0  0  0  0  0  0  0  0
   11.6970   -1.6540   22.9630 C   0  0  0  0  0  0  0  0  0  0  0  0
    8.7770   -2.0900   21.7620 C   0  0  0  0  0  0  0  0  0  0  0  0
    7.6780   -1.6200   21.0150 C   0  0  0  0  0  0  0  0  0  0  0  0
  1  2  2  3
  1  3  1  0
  3  4  1  0
  4  5  1  0
  5  6  1  0
  6  7  1  0
  7  8  1  1
  8  9  1  0
 10  9  1  0
 10 11  1  0
 10 12  2  0
 10 13  2  0
  7 14  1  0
 14 15  2  0
 15 16  1  0
 16 17  2  0
 17 18  1  0
 14 19  1  0
 18 19  2  0
  6 20  1  0
  3 21  1  0
 20 21  1  0
M  END
