SEL-UNI-cd366922-2-chloroacetamide
     RDKit          3D

 22 23  0  0  0  0  0  0  0  0999 V2000
    7.1850   -2.9790   18.7800 C   0  0  0  0  0  0  0  0  0  0  0  0
    6.1510   -3.1930   19.8670 C   0  0  0  0  0  0  0  0  0  0  0  0
    5.3160   -4.0980   19.7140 O   0  0  0  0  0  0  0  0  0  0  0  0
    6.2070   -2.3800   21.0000 N   0  0  0  0  0  0  0  0  0  0  0  0
    7.0140   -1.1590   21.0160 C   0  0  0  0  0  0  0  0  0  0  0  0
    8.3660   -1.2940   21.7090 C   0  0  0  0  0  0  0  0  0  0  0  0
    8.3200   -2.1290   22.9720 N   0  0  0  0  0  0  0  0  0  0  0  0
    9.3700   -2.3990   23.8230 C   0  0  2  0  0  0  0  0  0  0  0  0
    8.9410   -2.6860   25.2430 C   0  0  0  0  0  0  0  0  0  0  0  0
    8.5000   -4.0570   25.4800 N   0  0  0  0  0  0  0  0  0  0  0  0
    9.6680   -5.2290   25.9800 S   0  0  0  0  0  0  0  0  0  0  0  0
    9.3120   -5.3960   27.7060 C   0  0  0  0  0  0  0  0  0  0  0  0
   10.9520   -4.5870   25.7870 O   0  0  0  0  0  0  0  0  0  0  0  0
    9.2710   -6.4340   25.2910 O   0  0  0  0  0  0  0  0  0  0  0  0
   10.4680   -1.3310   23.6630 C   0  0  0  0  0  0  0  0  0  0  0  0
   11.8100   -1.5730   23.0070 C   0  0  0  0  0  0  0  0  0  0  0  0
   12.7580   -0.5750   22.8750 C   0  0  0  0  0  0  0  0  0  0  0  0
   12.4710    0.8090   23.3960 C   0  0  0  0  0  0  0  0  0  0  0  0
   11.2370    1.0060   23.9990 C   0  0  0  0  0  0  0  0  0  0  0  0
   10.2710   -0.0180   24.1310 C   0  0  0  0  0  0  0  0  0  0  0  0
    7.4950   -3.3360   22.7630 C   0  0  0  0  0  0  0  0  0  0  0  0
    6.2000   -3.0410   22.3090 C   0  0  0  0  0  0  0  0  0  0  0  0
  1  2  1  0
  2  3  2  0
  2  4  1  0
  4  5  1  0
  5  6  1  0
  6  7  1  0
  7  8  1  0
  8  9  1  1
  9 10  1  0
 11 10  1  0
 11 12  1  0
 11 13  2  0
 11 14  2  0
  8 15  1  0
 15 16  2  0
 16 17  1  0
 17 18  2  0
 18 19  1  0
 15 20  1  0
 19 20  2  0
  7 21  1  0
  4 22  1  0
 21 22  1  0
M  END
