SEL-UNI-cd366922-3-acrylamide
     RDKit          3D

 25 27  0  0  0  0  0  0  0  0999 V2000
    6.4630   -5.4370   20.0790 C   0  0  0  0  0  0  0  0  0  0  0  0
    6.6780   -4.0360   20.6350 C   0  0  0  0  0  0  0  0  0  0  0  0
    5.4050   -3.7020   21.3000 C   0  0  0  0  0  0  0  0  0  0  0  0
    4.5390   -3.4640   22.1090 O   0  0  0  0  0  0  0  0  0  0  0  0
    6.2830   -3.8550   22.3670 N   0  0  0  0  0  0  0  0  0  0  0  0
    7.0810   -2.8800   22.8410 N   0  0  0  0  0  0  0  0  0  0  0  0
    8.2820   -2.6060   22.1700 C   0  0  0  0  0  0  0  0  0  0  0  0
    8.4860   -2.9770   20.8140 O   0  0  0  0  0  0  0  0  0  0  0  0
    9.3280   -1.8690   23.0250 C   0  0  0  0  0  0  0  0  0  0  0  0
   10.4400   -2.4740   23.7430 C   0  0  0  0  0  0  0  0  0  0  0  0
   10.9880   -1.1970   24.2820 C   0  0  0  0  0  0  0  0  0  0  0  0
   10.8340    0.2970   24.3610 C   0  0  0  0  0  0  0  0  0  0  0  0
    9.4340   -0.0490   23.3170 S   0  0  0  0  0  0  0  0  0  0  0  0
   10.1640    1.6220   24.0750 C   0  0  1  0  0  0  0  0  0  0  0  0
   10.7890    2.6780   23.4140 C   0  0  0  0  0  0  0  0  0  0  0  0
    9.8020    3.8060   23.1090 C   0  0  2  0  0  0  0  0  0  0  0  0
   10.5770    5.3800   23.6040 S   0  0  0  0  0  0  0  0  0  0  0  0
   11.3640    5.8910   22.2190 N   0  0  0  0  0  0  0  0  0  0  0  0
   11.6730    5.1470   24.5130 O   0  0  0  0  0  0  0  0  0  0  0  0
    9.5750    6.3920   23.8610 O   0  0  0  0  0  0  0  0  0  0  0  0
    8.6470    3.6230   23.8810 C   0  0  0  0  0  0  0  0  0  0  0  0
    8.0100    2.3650   23.8280 C   0  0  0  0  0  0  0  0  0  0  0  0
    8.9320    1.3580   23.5640 C   0  0  2  0  0  0  0  0  0  0  0  0
    8.7350    0.0280   24.0110 C   0  0  0  0  0  0  0  0  0  0  0  0
    9.7980   -1.0070   23.5050 C   0  0  0  0  0  0  0  0  0  0  0  0
  1  2  1  0
  2  3  1  0
  3  4  2  0
  3  5  1  0
  5  6  1  0
  6  7  1  0
  7  8  2  0
  7  9  1  0
  9 10  2  0
 10 11  1  0
 11 12  2  0
  9 13  1  0
 12 13  1  0
 12 14  1  0
 14 15  1  6
 15 16  1  0
 16 17  1  1
 17 18  1  0
 17 19  2  0
 17 20  2  0
 16 21  1  0
 21 22  1  0
 14 23  1  0
 23 22  1  1
 23 24  1  0
 11 25  1  0
 24 25  1  0
M  END
