SEL-UNI-cd366922-5-chloroacetamide
     RDKit          3D

 23 25  0  0  0  0  0  0  0  0999 V2000
    7.2620   -2.9870   18.7730 C   0  0  0  0  0  0  0  0  0  0  0  0
    6.1770   -3.1480   19.8260 C   0  0  0  0  0  0  0  0  0  0  0  0
    5.3390   -4.0510   19.6900 O   0  0  0  0  0  0  0  0  0  0  0  0
    6.1910   -2.2700   20.9100 N   0  0  0  0  0  0  0  0  0  0  0  0
    7.1050   -1.1300   20.9160 C   0  0  0  0  0  0  0  0  0  0  0  0
    8.3810   -1.3230   21.7350 C   0  0  0  0  0  0  0  0  0  0  0  0
    8.1410   -1.9550   23.0890 N   0  0  0  0  0  0  0  0  0  0  0  0
    9.0860   -2.1790   24.0650 C   0  0  2  0  0  0  0  0  0  0  0  0
   10.3020   -1.2800   23.8170 C   0  0  0  0  0  0  0  0  0  0  0  0
   10.0830    0.1990   24.2050 C   0  0  0  0  0  0  0  0  0  0  0  0
   11.2460    1.1830   23.9750 C   0  0  0  0  0  0  0  0  0  0  0  0
   12.5110    0.5710   23.3780 C   0  0  0  0  0  0  0  0  0  0  0  0
   12.6350   -0.7600   23.0620 C   0  0  0  0  0  0  0  0  0  0  0  0
   11.5020   -1.7120   23.2890 C   0  0  0  0  0  0  0  0  0  0  0  0
    9.4640   -3.4560   24.4190 N   0  0  0  0  0  0  0  0  0  0  0  0
   10.5460   -3.5070   25.3760 C   0  0  0  0  0  0  0  0  0  0  0  0
   10.4900   -4.7700   25.9830 C   0  0  0  0  0  0  0  0  0  0  0  0
    9.3490   -5.5160   25.6530 C   0  0  0  0  0  0  0  0  0  0  0  0
    8.2290   -5.0690   26.4180 O   0  0  0  0  0  0  0  0  0  0  0  0
    9.0920   -5.6750   24.2870 C   0  0  0  0  0  0  0  0  0  0  0  0
    9.1610   -4.4010   23.5180 C   0  0  0  0  0  0  0  0  0  0  0  0
    7.1370   -3.0390   23.0210 C   0  0  0  0  0  0  0  0  0  0  0  0
    5.8730   -2.7100   22.2750 C   0  0  0  0  0  0  0  0  0  0  0  0
  1  2  1  0
  2  3  2  0
  2  4  1  0
  4  5  1  0
  5  6  1  0
  6  7  1  0
  7  8  1  0
  8  9  1  6
  9 10  2  0
 10 11  1  0
 11 12  2  0
 12 13  1  0
  9 14  1  0
 13 14  2  0
  8 15  1  0
 15 16  1  0
 16 17  1  0
 17 18  1  0
 18 19  1  0
 18 20  1  0
 15 21  1  0
 20 21  1  0
  7 22  1  0
  4 23  1  0
 22 23  1  0
M  END
