SEL-UNI-cd366922-6-chloroacetamide
     RDKit          3D

 19 20  0  0  0  0  0  0  0  0999 V2000
    7.2540   -2.9910   18.7860 C   0  0  0  0  0  0  0  0  0  0  0  0
    6.2530   -3.2330   19.9060 C   0  0  0  0  0  0  0  0  0  0  0  0
    5.4110   -4.1360   19.7640 O   0  0  0  0  0  0  0  0  0  0  0  0
    6.3480   -2.4190   21.0460 N   0  0  0  0  0  0  0  0  0  0  0  0
    7.1750   -1.2230   21.0300 C   0  0  0  0  0  0  0  0  0  0  0  0
    8.5050   -1.4160   21.7280 C   0  0  0  0  0  0  0  0  0  0  0  0
    8.3580   -2.0470   23.0910 N   0  0  0  0  0  0  0  0  0  0  0  0
    9.3280   -2.1030   24.0800 C   0  0  0  0  0  0  0  0  0  0  0  0
   10.4480   -1.0980   23.8110 C   0  0  0  0  0  0  0  0  0  0  0  0
   10.0260    0.3350   24.1240 C   0  0  0  0  0  0  0  0  0  0  0  0
   11.0190    1.4770   23.9020 C   0  0  0  0  0  0  0  0  0  0  0  0
   12.3920    1.0990   23.3660 C   0  0  0  0  0  0  0  0  0  0  0  0
   12.6760   -0.2200   23.1220 C   0  0  0  0  0  0  0  0  0  0  0  0
   11.7270   -1.3540   23.3390 C   0  0  0  0  0  0  0  0  0  0  0  0
   12.2260   -2.6010   23.0530 N   0  0  0  0  0  0  0  0  0  0  0  0
   13.5140   -2.6910   23.7150 C   0  0  0  0  0  0  0  0  0  0  0  0
   13.3280   -2.8190   25.0890 C   0  0  0  0  0  0  0  0  0  0  0  0
    7.4240   -3.2040   23.0970 C   0  0  0  0  0  0  0  0  0  0  0  0
    6.2080   -3.0000   22.3970 C   0  0  0  0  0  0  0  0  0  0  0  0
  1  2  1  0
  2  3  2  0
  2  4  1  0
  4  5  1  0
  5  6  1  0
  6  7  1  0
  7  8  1  0
  8  9  1  0
  9 10  2  0
 10 11  1  0
 11 12  2  0
 12 13  1  0
  9 14  1  0
 13 14  2  0
 14 15  1  0
 15 16  1  0
 16 17  1  0
  7 18  1  0
  4 19  1  0
 18 19  1  0
M  END
