SEL-UNI-cd366922-5-acrylamide
     RDKit          3D

 24 26  0  0  0  0  0  0  0  0999 V2000
    7.6920   -2.8120   18.5390 C   0  0  0  0  0  0  0  0  0  0  0  0
    6.1990   -2.7600   18.9280 C   0  0  0  0  0  0  0  0  0  0  0  0
    5.8390   -3.3610   20.2350 C   0  0  0  0  0  0  0  0  0  0  0  0
    5.2810   -4.4580   20.2260 O   0  0  0  0  0  0  0  0  0  0  0  0
    6.1660   -2.5720   21.3250 N   0  0  0  0  0  0  0  0  0  0  0  0
    6.6980   -1.2210   21.1610 C   0  0  0  0  0  0  0  0  0  0  0  0
    8.1000   -1.0950   21.7480 C   0  0  0  0  0  0  0  0  0  0  0  0
    8.1490   -1.6030   23.1420 N   0  0  0  0  0  0  0  0  0  0  0  0
    9.3550   -1.5370   23.7650 C   0  0  2  0  0  0  0  0  0  0  0  0
   10.1870   -0.2580   23.6340 C   0  0  0  0  0  0  0  0  0  0  0  0
    9.4900    1.0610   23.9490 C   0  0  0  0  0  0  0  0  0  0  0  0
   10.3820    2.2970   23.7940 C   0  0  0  0  0  0  0  0  0  0  0  0
   11.7020    2.1270   23.3970 C   0  0  0  0  0  0  0  0  0  0  0  0
   12.3050    0.7940   23.1150 C   0  0  0  0  0  0  0  0  0  0  0  0
   11.5440   -0.3360   23.2410 C   0  0  0  0  0  0  0  0  0  0  0  0
   10.1860   -2.5910   23.2120 N   0  0  0  0  0  0  0  0  0  0  0  0
   10.6280   -3.4330   24.1140 C   0  0  0  0  0  0  0  0  0  0  0  0
   11.8320   -2.8730   24.5450 C   0  0  0  0  0  0  0  0  0  0  0  0
   12.7680   -2.3870   23.6260 C   0  0  0  0  0  0  0  0  0  0  0  0
   13.6120   -1.5420   23.7890 O   0  0  0  0  0  0  0  0  0  0  0  0
   12.1740   -1.9690   22.2840 C   0  0  0  0  0  0  0  0  0  0  0  0
   10.8660   -2.2130   22.0460 C   0  0  0  0  0  0  0  0  0  0  0  0
    7.6470   -3.0070   23.1450 C   0  0  0  0  0  0  0  0  0  0  0  0
    6.3970   -3.1610   22.6590 C   0  0  0  0  0  0  0  0  0  0  0  0
  1  2  1  0
  2  3  1  0
  3  4  2  0
  3  5  1  0
  5  6  1  0
  6  7  1  0
  7  8  1  0
  8  9  1  0
  9 10  1  6
 10 11  2  0
 11 12  1  0
 12 13  2  0
 13 14  1  0
 10 15  1  0
 14 15  2  0
  9 16  1  0
 16 17  1  0
 17 18  1  0
 18 19  1  0
 19 20  1  0
 19 21  1  0
 16 22  1  0
 21 22  1  0
  8 23  1  0
  5 24  1  0
 23 24  1  0
M  END
