SEL-UNI-cd366922-6-vinylsulfonamide
     RDKit          3D

 21 22  0  0  0  0  0  0  0  0999 V2000
    7.9230   -3.3720   19.6370 C   0  0  0  0  0  0  0  0  0  0  0  0
    6.9620   -2.5530   18.8040 C   0  0  0  0  0  0  0  0  0  0  0  0
    5.5410   -2.5300   19.7880 S   0  0  0  0  0  0  0  0  0  0  0  0
    5.0850   -3.9150   19.8040 O   0  0  0  0  0  0  0  0  0  0  0  0
    4.7370   -1.4250   19.3440 O   0  0  0  0  0  0  0  0  0  0  0  0
    6.2200   -2.0880   21.2390 N   0  0  0  0  0  0  0  0  0  0  0  0
    7.2220   -1.0340   21.2150 C   0  0  0  0  0  0  0  0  0  0  0  0
    8.5500   -1.4450   21.7990 C   0  0  0  0  0  0  0  0  0  0  0  0
    8.3480   -2.1090   23.1300 N   0  0  0  0  0  0  0  0  0  0  0  0
    9.2580   -2.1600   24.1560 C   0  0  0  0  0  0  0  0  0  0  0  0
   10.3900   -1.1810   23.8880 C   0  0  0  0  0  0  0  0  0  0  0  0
   11.6120   -1.7570   23.1400 C   0  0  0  0  0  0  0  0  0  0  0  0
   12.7770   -0.8330   22.8190 C   0  0  0  0  0  0  0  0  0  0  0  0
   12.6510    0.6100   23.2600 C   0  0  0  0  0  0  0  0  0  0  0  0
   11.5190    1.0360   23.9280 C   0  0  0  0  0  0  0  0  0  0  0  0
   10.3420    0.1610   24.2740 C   0  0  0  0  0  0  0  0  0  0  0  0
    9.2280    0.6900   24.9640 N   0  0  0  0  0  0  0  0  0  0  0  0
    8.9450    2.1220   24.8260 C   0  0  0  0  0  0  0  0  0  0  0  0
    8.4620    2.6180   26.0430 C   0  0  0  0  0  0  0  0  0  0  0  0
    7.4460   -3.2710   23.0230 C   0  0  0  0  0  0  0  0  0  0  0  0
    6.2060   -3.0320   22.3810 C   0  0  0  0  0  0  0  0  0  0  0  0
  1  2  1  0
  3  2  1  0
  3  4  2  0
  3  5  2  0
  3  6  1  0
  6  7  1  0
  7  8  1  0
  8  9  1  0
  9 10  1  0
 10 11  1  0
 11 12  2  0
 12 13  1  0
 13 14  2  0
 14 15  1  0
 11 16  1  0
 15 16  2  0
 16 17  1  0
 17 18  1  0
 18 19  1  0
  9 20  1  0
  6 21  1  0
 20 21  1  0
M  END
