SEL-UNI-8426c22c-4
     RDKit          3D

 25 27  0  0  0  0  0  0  0  0999 V2000
    8.3640   -0.3860   21.4870 C   0  0  0  0  0  0  0  0  0  0  0  0
    8.1010   -1.8450   21.2690 C   0  0  0  0  0  0  0  0  0  0  0  0
    9.0310   -2.6270   21.4520 O   0  0  0  0  0  0  0  0  0  0  0  0
    6.8700   -2.2560   20.8780 N   0  0  0  0  0  0  0  0  0  0  0  0
    6.4880   -3.6040   20.9690 C   0  0  0  0  0  0  0  0  0  0  0  0
    5.6160   -4.0950   20.2240 O   0  0  0  0  0  0  0  0  0  0  0  0
    7.1300   -4.4380   21.9580 N   0  0  0  0  0  0  0  0  0  0  0  0
    7.7720   -3.7250   22.9240 C   0  0  0  0  0  0  0  0  0  0  0  0
    6.9080   -3.0200   23.6840 C   0  0  0  0  0  0  0  0  0  0  0  0
    5.6840   -3.7980   23.9730 N   0  0  0  0  0  0  0  0  0  0  0  0
    4.9170   -3.3840   25.0320 C   0  0  0  0  0  0  0  0  0  0  0  0
    3.5520   -3.8610   25.2110 C   0  0  0  0  0  0  0  0  0  0  0  0
    2.7330   -3.4670   26.2790 C   0  0  0  0  0  0  0  0  0  0  0  0
    3.2310   -2.5740   27.2300 C   0  0  0  0  0  0  0  0  0  0  0  0
    4.6050   -2.0330   27.1320 C   0  0  0  0  0  0  0  0  0  0  0  0
    5.4760   -2.4730   25.9660 C   0  0  0  0  0  0  0  0  0  0  0  0
    5.3520   -4.9810   23.2620 C   0  0  0  0  0  0  0  0  0  0  0  0
    6.3110   -5.4260   22.3390 C   0  0  0  0  0  0  0  0  0  0  0  0
    6.4690   -1.8560   19.6210 C   0  0  0  0  0  0  0  0  0  0  0  0
    7.1930   -2.4960   18.7000 C   0  0  0  0  0  0  0  0  0  0  0  0
    7.0530   -2.4220   17.4180 N   0  0  0  0  0  0  0  0  0  0  0  0
    6.1190   -1.6320   17.0170 C   0  0  0  0  0  0  0  0  0  0  0  0
    5.2510   -0.8080   17.9120 C   0  0  0  0  0  0  0  0  0  0  0  0
    5.4570   -0.9460   19.2630 C   0  0  0  0  0  0  0  0  0  0  0  0
    4.6510   -0.1890   20.1830 C   0  0  0  0  0  0  0  0  0  0  0  0
  1  2  1  0
  2  3  2  0
  2  4  1  0
  4  5  1  0
  5  6  2  0
  5  7  1  0
  7  8  1  0
  8  9  1  0
  9 10  1  0
 10 11  1  0
 11 12  2  0
 12 13  1  0
 13 14  2  0
 14 15  1  0
 11 16  1  0
 15 16  2  0
 10 17  1  0
  7 18  1  0
 17 18  1  0
  4 19  1  0
 19 20  2  0
 20 21  1  0
 21 22  2  0
 22 23  1  0
 19 24  1  0
 23 24  2  0
 24 25  1  0
M  END
