SEL-UNI-cd366922-2-vinylsulfonamide
     RDKit          3D

 24 25  0  0  0  0  0  0  0  0999 V2000
    7.9420   -3.2480   19.0590 C   0  0  0  0  0  0  0  0  0  0  0  0
    6.7920   -2.3780   18.6020 C   0  0  0  0  0  0  0  0  0  0  0  0
    5.5100   -2.4070   19.7620 S   0  0  0  0  0  0  0  0  0  0  0  0
    4.9100   -3.7020   19.6120 O   0  0  0  0  0  0  0  0  0  0  0  0
    4.7390   -1.2500   19.5600 O   0  0  0  0  0  0  0  0  0  0  0  0
    6.3040   -2.2450   21.2090 N   0  0  0  0  0  0  0  0  0  0  0  0
    5.9550   -2.9890   22.3950 C   0  0  0  0  0  0  0  0  0  0  0  0
    7.1610   -3.4190   23.2130 C   0  0  0  0  0  0  0  0  0  0  0  0
    8.3030   -2.4160   23.2600 N   0  0  0  0  0  0  0  0  0  0  0  0
    9.5220   -2.6870   23.8320 C   0  0  2  0  0  0  0  0  0  0  0  0
    9.4250   -3.4000   25.1880 C   0  0  0  0  0  0  0  0  0  0  0  0
    8.1270   -3.5580   25.8510 N   0  0  0  0  0  0  0  0  0  0  0  0
    8.1820   -4.0630   27.4620 S   0  0  0  0  0  0  0  0  0  0  0  0
    9.4780   -5.2860   27.4510 C   0  0  0  0  0  0  0  0  0  0  0  0
    6.9030   -4.7010   27.7000 O   0  0  0  0  0  0  0  0  0  0  0  0
    8.6250   -2.9150   28.2210 O   0  0  0  0  0  0  0  0  0  0  0  0
   10.5350   -1.5250   23.6530 C   0  0  0  0  0  0  0  0  0  0  0  0
   11.8560   -1.6950   22.9130 C   0  0  0  0  0  0  0  0  0  0  0  0
   12.7530   -0.6450   22.7540 C   0  0  0  0  0  0  0  0  0  0  0  0
   12.4500    0.7260   23.3140 C   0  0  0  0  0  0  0  0  0  0  0  0
   11.2380    0.8220   23.9760 C   0  0  0  0  0  0  0  0  0  0  0  0
   10.3020   -0.2270   24.1580 C   0  0  0  0  0  0  0  0  0  0  0  0
    8.5480   -1.8050   21.9330 C   0  0  0  0  0  0  0  0  0  0  0  0
    7.4150   -1.2930   21.2920 C   0  0  0  0  0  0  0  0  0  0  0  0
  1  2  1  0
  3  2  1  0
  3  4  2  0
  3  5  2  0
  3  6  1  0
  6  7  1  0
  7  8  1  0
  8  9  1  0
  9 10  1  0
 10 11  1  1
 11 12  1  0
 13 12  1  0
 13 14  1  0
 13 15  2  0
 13 16  2  0
 10 17  1  0
 17 18  2  0
 18 19  1  0
 19 20  2  0
 20 21  1  0
 17 22  1  0
 21 22  2  0
  9 23  1  0
  6 24  1  0
 23 24  1  0
M  END
