SEL-UNI-cd366922-5-vinylsulfonamide
     RDKit          3D

 25 27  0  0  0  0  0  0  0  0999 V2000
    8.7400   -3.8710   20.1210 C   0  0  0  0  0  0  0  0  0  0  0  0
    7.5230   -3.1660   19.4070 C   0  0  0  0  0  0  0  0  0  0  0  0
    6.0170   -3.4940   20.3280 S   0  0  0  0  0  0  0  0  0  0  0  0
    4.7730   -3.4320   19.5760 O   0  0  0  0  0  0  0  0  0  0  0  0
    6.2260   -4.7220   21.0360 O   0  0  0  0  0  0  0  0  0  0  0  0
    6.0040   -2.2360   21.4160 N   0  0  0  0  0  0  0  0  0  0  0  0
    5.6580   -2.5280   22.7980 C   0  0  0  0  0  0  0  0  0  0  0  0
    6.6800   -2.0690   23.8360 C   0  0  0  0  0  0  0  0  0  0  0  0
    8.1170   -2.0150   23.3430 N   0  0  0  0  0  0  0  0  0  0  0  0
    9.2740   -2.4260   23.9790 C   0  0  2  0  0  0  0  0  0  0  0  0
   10.3960   -1.4180   23.6930 C   0  0  0  0  0  0  0  0  0  0  0  0
   11.5410   -1.9460   22.7720 C   0  0  0  0  0  0  0  0  0  0  0  0
   12.7100   -0.9820   22.4580 C   0  0  0  0  0  0  0  0  0  0  0  0
   12.5940    0.4000   23.0950 C   0  0  0  0  0  0  0  0  0  0  0  0
   11.5450    0.7970   23.8950 C   0  0  0  0  0  0  0  0  0  0  0  0
   10.4100   -0.1260   24.2140 C   0  0  0  0  0  0  0  0  0  0  0  0
    9.7500   -3.7380   23.9460 N   0  0  0  0  0  0  0  0  0  0  0  0
    9.3700   -4.5020   25.1120 C   0  0  0  0  0  0  0  0  0  0  0  0
    8.9600   -5.7630   24.7350 C   0  0  0  0  0  0  0  0  0  0  0  0
    7.8830   -5.6990   23.8400 C   0  0  0  0  0  0  0  0  0  0  0  0
    6.7280   -5.5620   24.1640 O   0  0  0  0  0  0  0  0  0  0  0  0
    8.2130   -4.9060   22.7340 C   0  0  0  0  0  0  0  0  0  0  0  0
    9.5880   -4.2820   22.7430 C   0  0  0  0  0  0  0  0  0  0  0  0
    8.2850   -1.3870   22.0130 C   0  0  0  0  0  0  0  0  0  0  0  0
    7.0030   -1.1430   21.2520 C   0  0  0  0  0  0  0  0  0  0  0  0
  1  2  1  0
  3  2  1  0
  3  4  2  0
  3  5  2  0
  3  6  1  0
  6  7  1  0
  7  8  1  0
  8  9  1  0
  9 10  1  0
 10 11  1  6
 11 12  2  0
 12 13  1  0
 13 14  2  0
 14 15  1  0
 11 16  1  0
 15 16  2  0
 10 17  1  0
 17 18  1  0
 18 19  1  0
 19 20  1  0
 20 21  1  0
 20 22  1  0
 17 23  1  0
 22 23  1  0
  9 24  1  0
  6 25  1  0
 24 25  1  0
M  END
