SER-UNI-985a0e14-3
     RDKit          3D

 34 37  0  0  0  0  0  0  0  0999 V2000
    8.6580    3.8910   22.1700 C   0  0  0  0  0  0  0  0  0  0  0  0
    8.1500    5.2930   22.3670 C   0  0  0  0  0  0  0  0  0  0  0  0
    6.7330    5.6250   21.7850 C   0  0  0  0  0  0  0  0  0  0  0  0
    6.2240    7.0840   22.0190 C   0  0  0  0  0  0  0  0  0  0  0  0
    7.1830    7.9850   22.7900 C   0  0  0  0  0  0  0  0  0  0  0  0
    6.6810    9.6490   23.1480 S   0  0  0  0  0  0  0  0  0  0  0  0
    5.9680   10.1840   22.0120 O   0  0  0  0  0  0  0  0  0  0  0  0
    7.8180   10.3440   23.7180 O   0  0  0  0  0  0  0  0  0  0  0  0
    5.5670    9.3540   24.4710 N   0  0  0  0  0  0  0  0  0  0  0  0
    5.1760    7.9140   24.7170 C   0  0  0  0  0  0  0  0  0  0  0  0
    4.1760    7.3510   23.6710 C   0  0  0  0  0  0  0  0  0  0  0  0
    3.8540    5.9030   24.0040 C   0  0  0  0  0  0  0  0  0  0  0  0
    4.4620    5.1940   25.2000 C   0  0  0  0  0  0  0  0  0  0  0  0
    5.3500    5.8640   26.0440 C   0  0  0  0  0  0  0  0  0  0  0  0
    6.0230    5.0330   27.4020 Cl  0  0  0  0  0  0  0  0  0  0  0  0
    5.6870    7.1880   25.7920 C   0  0  0  0  0  0  0  0  0  0  0  0
    8.4240    7.5480   23.2330 C   0  0  0  0  0  0  0  0  0  0  0  0
    8.9320    6.2640   23.0510 C   0  0  0  0  0  0  0  0  0  0  0  0
   10.2190    5.9110   23.5480 N   0  0  0  0  0  0  0  0  0  0  0  0
   11.3870    5.7050   22.8180 C   0  0  0  0  0  0  0  0  0  0  0  0
   11.7100    6.2180   21.7810 O   0  0  0  0  0  0  0  0  0  0  0  0
   12.2410    4.8140   23.4300 C   0  0  0  0  0  0  0  0  0  0  0  0
   12.5120    3.6290   22.7520 C   0  0  0  0  0  0  0  0  0  0  0  0
   11.8080    2.5120   23.4200 N   0  0  0  0  0  0  0  0  0  0  0  0
   10.4730    2.7070   24.0030 C   0  0  0  0  0  0  0  0  0  0  0  0
    9.9450    3.9550   24.4580 O   0  0  0  0  0  0  0  0  0  0  0  0
    9.8020    1.5030   24.0450 N   0  0  0  0  0  0  0  0  0  0  0  0
    8.7550    1.3420   25.0580 C   0  0  0  0  0  0  0  0  0  0  0  0
   10.7280    0.4460   23.5450 C   0  0  0  0  0  0  0  0  0  0  0  0
   10.5480   -1.0770   23.3970 C   0  0  0  0  0  0  0  0  0  0  0  0
   11.6860   -1.9100   22.8380 C   0  0  0  0  0  0  0  0  0  0  0  0
   12.9480   -1.1680   22.4640 C   0  0  0  0  0  0  0  0  0  0  0  0
   13.1030    0.2200   22.6140 C   0  0  0  0  0  0  0  0  0  0  0  0
   11.9520    1.0500   23.1640 C   0  0  0  0  0  0  0  0  0  0  0  0
  1  2  1  0
  2  3  2  0
  3  4  1  0
  4  5  2  0
  5  6  1  0
  6  7  2  0
  6  8  2  0
  6  9  1  0
  9 10  1  0
 10 11  2  0
 11 12  1  0
 12 13  2  0
 13 14  1  0
 14 15  1  0
 10 16  1  0
 14 16  2  0
  5 17  1  0
  2 18  1  0
 17 18  2  0
 18 19  1  0
 19 20  1  0
 20 21  2  0
 20 22  1  0
 22 23  1  0
 23 24  1  0
 24 25  1  0
 25 26  2  0
 25 27  1  0
 27 28  1  0
 27 29  1  0
 29 30  1  0
 30 31  2  0
 31 32  1  0
 32 33  2  0
 24 34  1  0
 29 34  2  0
 33 34  1  0
M  END
