SER-UNI-400afb01-5
     RDKit          3D

 18 19  0  0  0  0  0  0  0  0999 V2000
    5.0240    1.0260   18.0190 O   0  0  0  0  0  0  0  0  0  0  0  0
    6.3120    0.4090   17.7470 B   0  0  0  0  0  0  0  0  0  0  0  0
    7.2230    1.2170   16.9550 O   0  0  0  0  0  0  0  0  0  0  0  0
    6.9640   -0.1980   19.0040 C   0  0  0  0  0  0  0  0  0  0  0  0
    7.0070    0.6260   20.2480 C   0  0  0  0  0  0  0  0  0  0  0  0
    7.6270    0.3210   21.6870 C   0  0  0  0  0  0  0  0  0  0  0  0
    8.2520   -0.2700   22.7580 O   0  0  0  0  0  0  0  0  0  0  0  0
    9.3570    0.3600   23.3400 C   0  0  0  0  0  0  0  0  0  0  0  0
   10.6570   -0.4380   23.1770 C   0  0  0  0  0  0  0  0  0  0  0  0
   11.2250   -0.2230   24.5630 C   0  0  0  0  0  0  0  0  0  0  0  0
   12.6130   -0.8900   24.8070 C   0  0  0  0  0  0  0  0  0  0  0  0
   13.1570   -1.6540   23.6070 C   0  0  0  0  0  0  0  0  0  0  0  0
   12.4420   -1.7680   22.2920 C   0  0  0  0  0  0  0  0  0  0  0  0
   11.2140   -1.1550   22.1240 C   0  0  0  0  0  0  0  0  0  0  0  0
    8.0670   -0.9500   21.3510 C   0  0  0  0  0  0  0  0  0  0  0  0
    8.0140   -1.7050   20.2170 C   0  0  0  0  0  0  0  0  0  0  0  0
    7.4770   -1.3970   19.0010 C   0  0  0  0  0  0  0  0  0  0  0  0
    7.4720   -2.2180   17.9060 F   0  0  0  0  0  0  0  0  0  0  0  0
  1  2  1  0
  2  3  1  0
  2  4  1  0
  4  5  2  0
  5  6  1  0
  6  7  1  0
  7  8  1  0
  8  9  1  0
  9 10  2  0
 10 11  1  0
 11 12  2  0
 12 13  1  0
  9 14  1  0
 13 14  2  0
  6 15  2  0
 15 16  1  0
  4 17  1  0
 16 17  2  0
 17 18  1  0
M  END
