SER-UNI-400afb01-3
     RDKit          3D

 24 26  0  0  0  0  0  0  0  0999 V2000
   13.1060   -1.3280   23.6450 Cl  0  0  0  0  0  0  0  0  0  0  0  0
   11.8930   -0.1480   23.9030 C   0  0  0  0  0  0  0  0  0  0  0  0
   10.6460   -0.6040   24.5870 C   0  0  0  0  0  0  0  0  0  0  0  0
    9.4410    0.3340   24.8880 C   0  0  0  0  0  0  0  0  0  0  0  0
    9.7410    1.7700   24.3760 C   0  0  0  0  0  0  0  0  0  0  0  0
    8.6290    2.8100   24.5760 C   0  0  0  0  0  0  0  0  0  0  0  0
    7.5810    2.4470   23.6580 O   0  0  0  0  0  0  0  0  0  0  0  0
    8.1760    1.6100   22.6630 C   0  0  2  0  0  0  0  0  0  0  0  0
    9.3550    2.4690   22.2010 C   0  0  0  0  0  0  0  0  0  0  0  0
    9.2600    3.8530   22.5330 N   0  0  0  0  0  0  0  0  0  0  0  0
    7.9510    4.5770   22.5300 C   0  0  0  0  0  0  0  0  0  0  0  0
    7.8750    6.0870   22.8870 C   0  0  0  0  0  0  0  0  0  0  0  0
    9.3860    6.1310   23.1100 N   0  0  0  0  0  0  0  0  0  0  0  0
   10.1430    4.8920   22.9110 C   0  0  0  0  0  0  0  0  0  0  0  0
    7.3970    1.2430   21.5830 C   0  0  0  0  0  0  0  0  0  0  0  0
    6.5800    2.1910   20.9730 C   0  0  0  0  0  0  0  0  0  0  0  0
    5.7990    1.8980   19.8720 C   0  0  0  0  0  0  0  0  0  0  0  0
    5.7900    0.6400   19.3120 C   0  0  0  0  0  0  0  0  0  0  0  0
    4.8470    0.2880   17.9580 Cl  0  0  0  0  0  0  0  0  0  0  0  0
    6.5950   -0.3200   19.9170 C   0  0  0  0  0  0  0  0  0  0  0  0
    7.3910   -0.0580   21.0300 C   0  0  0  0  0  0  0  0  0  0  0  0
    8.3390   -1.3570   21.6630 Cl  0  0  0  0  0  0  0  0  0  0  0  0
   11.0790    2.1260   23.6880 C   0  0  0  0  0  0  0  0  0  0  0  0
   12.0810    1.1660   23.4850 C   0  0  0  0  0  0  0  0  0  0  0  0
  1  2  1  0
  2  3  2  0
  3  4  1  0
  4  5  2  0
  5  6  1  0
  6  7  1  0
  7  8  1  0
  8  9  1  6
  9 10  1  0
 10 11  1  0
 11 12  2  0
 12 13  1  0
 10 14  1  0
 13 14  2  0
  8 15  1  0
 15 16  2  0
 16 17  1  0
 17 18  2  0
 18 19  1  0
 18 20  1  0
 15 21  1  0
 20 21  2  0
 21 22  1  0
  5 23  1  0
  2 24  1  0
 23 24  2  0
M  END
