SID-ELM-b654bfa2-10
     RDKit          3D

 21 23  0  0  0  0  0  0  0  0999 V2000
    9.0550    1.0370   21.6500 O   0  0  0  0  0  0  0  0  0  0  0  0
    8.8710   -0.1860   21.5770 C   0  0  0  0  0  0  0  0  0  0  0  0
    9.8440   -1.2150   22.0090 C   0  0  0  0  0  0  0  0  0  0  0  0
   10.1780   -1.2120   23.3530 C   0  0  0  0  0  0  0  0  0  0  0  0
   11.4450   -1.7410   23.5790 C   0  0  0  0  0  0  0  0  0  0  0  0
   12.4800   -0.9160   23.1190 C   0  0  0  0  0  0  0  0  0  0  0  0
   12.4210    0.4270   23.5110 C   0  0  0  0  0  0  0  0  0  0  0  0
   11.0250    1.0590   23.5700 C   0  0  0  0  0  0  0  0  0  0  0  0
   10.0050    0.0150   23.9760 C   0  0  0  0  0  0  0  0  0  0  0  0
    7.6940   -0.8360   21.0500 N   0  0  0  0  0  0  0  0  0  0  0  0
    6.8520   -0.3220   20.0330 C   0  0  0  0  0  0  0  0  0  0  0  0
    6.9460   -0.6870   18.5780 C   0  0  0  0  0  0  0  0  0  0  0  0
    7.8420   -1.5360   18.1240 F   0  0  0  0  0  0  0  0  0  0  0  0
    6.1680   -0.2130   17.6630 N   0  0  0  0  0  0  0  0  0  0  0  0
    5.2470    0.6380   18.0130 C   0  0  0  0  0  0  0  0  0  0  0  0
    5.0120    1.0740   19.2480 C   0  0  0  0  0  0  0  0  0  0  0  0
    3.9100    2.0160   19.3120 N   0  0  0  0  0  0  0  0  0  0  0  0
    3.6110    2.4980   20.5740 C   0  0  0  0  0  0  0  0  0  0  0  0
    4.3300    2.0970   21.6890 C   0  0  0  0  0  0  0  0  0  0  0  0
    5.3960    1.1940   21.6230 C   0  0  0  0  0  0  0  0  0  0  0  0
    5.8120    0.6020   20.3100 C   0  0  0  0  0  0  0  0  0  0  0  0
  1  2  2  0
  2  3  1  0
  3  4  1  0
  4  5  1  0
  5  6  1  0
  6  7  1  0
  7  8  1  0
  4  9  1  0
  8  9  1  0
  2 10  1  0
 10 11  1  0
 11 12  2  0
 12 13  1  0
 12 14  1  0
 14 15  2  0
 15 16  1  0
 16 17  1  0
 17 18  2  0
 18 19  1  0
 19 20  2  0
 11 21  1  0
 16 21  2  0
 20 21  1  0
M  END
