SID-ELM-1f105489-6
     RDKit          3D

 20 22  0  0  0  0  0  0  0  0999 V2000
   13.3550   -1.6290   23.5250 C   0  0  0  0  0  0  0  0  0  0  0  0
   12.0220   -1.1310   23.7690 N   0  0  0  0  0  0  0  0  0  0  0  0
   11.0400   -1.9790   23.0920 C   0  0  0  0  0  0  0  0  0  0  0  0
    9.8070   -1.4000   22.8890 C   0  0  0  0  0  0  0  0  0  0  0  0
    9.6880   -0.0790   22.5730 N   0  0  0  0  0  0  0  0  0  0  0  0
    8.8540    0.3120   21.5710 C   0  0  0  0  0  0  0  0  0  0  0  0
    8.8720    1.4890   21.1620 O   0  0  0  0  0  0  0  0  0  0  0  0
    7.9940   -0.6800   21.0460 C   0  0  0  0  0  0  0  0  0  0  0  0
    7.0720   -0.3070   20.0510 C   0  0  0  0  0  0  0  0  0  0  0  0
    6.9330   -0.7680   18.7380 C   0  0  0  0  0  0  0  0  0  0  0  0
    7.6940   -1.8980   17.7910 Cl  0  0  0  0  0  0  0  0  0  0  0  0
    5.9080   -0.0960   18.1610 N   0  0  0  0  0  0  0  0  0  0  0  0
    5.3620    0.7600   19.0340 C   0  0  0  0  0  0  0  0  0  0  0  0
    4.2840    1.5990   18.7750 N   0  0  0  0  0  0  0  0  0  0  0  0
    3.7810    2.4170   19.7210 C   0  0  0  0  0  0  0  0  0  0  0  0
    4.3860    2.4530   21.1100 C   0  0  0  0  0  0  0  0  0  0  0  0
    5.5750    1.5400   21.3860 C   0  0  0  0  0  0  0  0  0  0  0  0
    6.0640    0.6480   20.2440 C   0  0  0  0  0  0  0  0  0  0  0  0
   10.5050    0.7780   23.2670 C   0  0  0  0  0  0  0  0  0  0  0  0
   11.9320    0.2840   23.3640 C   0  0  0  0  0  0  0  0  0  0  0  0
  1  2  1  0
  2  3  1  0
  3  4  1  0
  4  5  1  0
  5  6  1  0
  6  7  2  0
  6  8  1  0
  8  9  1  0
  9 10  2  0
 10 11  1  0
 10 12  1  0
 12 13  1  0
 13 14  1  0
 14 15  2  0
 15 16  1  0
 16 17  2  0
  9 18  1  0
 13 18  2  0
 17 18  1  0
  5 19  1  0
  2 20  1  0
 19 20  1  0
M  END
