SID-ELM-1f105489-12
     RDKit          3D

 20 22  0  0  0  0  0  0  0  0999 V2000
   13.3320   -1.5900   23.5560 C   0  0  0  0  0  0  0  0  0  0  0  0
   11.9990   -1.0920   23.7900 N   0  0  0  0  0  0  0  0  0  0  0  0
   11.0080   -1.9730   23.1590 C   0  0  0  0  0  0  0  0  0  0  0  0
    9.7730   -1.4120   22.9670 C   0  0  0  0  0  0  0  0  0  0  0  0
    9.6300   -0.0960   22.6640 N   0  0  0  0  0  0  0  0  0  0  0  0
    8.9300    0.2850   21.5700 C   0  0  0  0  0  0  0  0  0  0  0  0
    8.9070    1.4910   21.2550 O   0  0  0  0  0  0  0  0  0  0  0  0
    8.2650   -0.7250   20.8270 N   0  0  0  0  0  0  0  0  0  0  0  0
    7.1800   -0.2140   19.9880 C   0  0  0  0  0  0  0  0  0  0  0  0
    7.1640   -0.6020   18.6630 C   0  0  0  0  0  0  0  0  0  0  0  0
    7.9840   -1.3990   18.0280 F   0  0  0  0  0  0  0  0  0  0  0  0
    6.1030    0.0080   18.0850 N   0  0  0  0  0  0  0  0  0  0  0  0
    5.4130    0.7600   18.9800 C   0  0  0  0  0  0  0  0  0  0  0  0
    4.3060    1.4660   18.6530 N   0  0  0  0  0  0  0  0  0  0  0  0
    3.7390    2.1410   19.6730 C   0  0  0  0  0  0  0  0  0  0  0  0
    4.2190    2.1870   21.1120 C   0  0  0  0  0  0  0  0  0  0  0  0
    5.4650    1.3840   21.3830 C   0  0  0  0  0  0  0  0  0  0  0  0
    6.0740    0.6330   20.2220 C   0  0  0  0  0  0  0  0  0  0  0  0
   10.4820    0.8640   23.3890 C   0  0  0  0  0  0  0  0  0  0  0  0
   11.8980    0.3120   23.3400 C   0  0  0  0  0  0  0  0  0  0  0  0
  1  2  1  0
  2  3  1  0
  3  4  1  0
  4  5  1  0
  5  6  1  0
  6  7  2  0
  6  8  1  0
  8  9  1  0
  9 10  2  0
 10 11  1  0
 10 12  1  0
 12 13  1  0
 13 14  1  0
 14 15  2  0
 15 16  1  0
 16 17  2  0
  9 18  1  0
 13 18  2  0
 17 18  1  0
  5 19  1  0
  2 20  1  0
 19 20  1  0
M  END
