SID-ELM-433ea7f3-3-chloroacetamide
     RDKit          3D

 28 30  0  0  0  0  0  0  0  0999 V2000
    7.2050   -4.4980   20.7920 C   0  0  0  0  0  0  0  0  0  0  0  0
    7.3140   -3.2310   20.0310 C   0  0  0  0  0  0  0  0  0  0  0  0
    6.5570   -3.0920   19.0270 O   0  0  0  0  0  0  0  0  0  0  0  0
    8.3180   -2.3550   20.5410 N   0  0  0  0  0  0  0  0  0  0  0  0
    8.0520   -1.1490   21.3480 C   0  0  1  0  0  0  0  0  0  0  0  0
    9.1870   -0.3390   21.8570 C   0  0  0  0  0  0  0  0  0  0  0  0
    9.2260    0.9410   21.3790 O   0  0  0  0  0  0  0  0  0  0  0  0
   10.2110   -0.8810   22.9530 N   0  0  0  0  0  0  0  0  0  0  0  0
    9.2520   -1.5020   23.8590 C   0  0  0  0  0  0  0  0  0  0  0  0
    9.9550   -2.3110   22.8360 C   0  0  0  0  0  0  0  0  0  0  0  0
   11.1060   -1.4990   22.1860 C   0  0  0  0  0  0  0  0  0  0  0  0
   12.0360   -2.1150   21.1520 C   0  0  0  0  0  0  0  0  0  0  0  0
   13.4140   -1.5930   21.2780 N   0  0  0  0  0  0  0  0  0  0  0  0
   11.2710   -0.1290   22.6310 C   0  0  0  0  0  0  0  0  0  0  0  0
   10.4750    0.5440   23.6270 N   0  0  0  0  0  0  0  0  0  0  0  0
    9.4130   -0.1070   24.3310 C   0  0  0  0  0  0  0  0  0  0  0  0
    8.6330    0.4430   25.3700 N   0  0  0  0  0  0  0  0  0  0  0  0
    8.1810   -0.5580   26.3340 C   0  0  0  0  0  0  0  0  0  0  0  0
    8.8660   -0.4000   27.5700 C   0  0  0  0  0  0  0  0  0  0  0  0
    7.2040   -0.4520   20.3080 C   0  0  0  0  0  0  0  0  0  0  0  0
    7.3540   -0.6000   18.9270 C   0  0  0  0  0  0  0  0  0  0  0  0
    6.4880    0.1160   18.1720 N   0  0  0  0  0  0  0  0  0  0  0  0
    5.6590    0.8080   18.9960 C   0  0  0  0  0  0  0  0  0  0  0  0
    4.6680    1.6190   18.5690 N   0  0  0  0  0  0  0  0  0  0  0  0
    3.9820    2.1850   19.5740 C   0  0  0  0  0  0  0  0  0  0  0  0
    4.2270    1.9940   21.0640 C   0  0  0  0  0  0  0  0  0  0  0  0
    5.3660    1.0670   21.4500 C   0  0  0  0  0  0  0  0  0  0  0  0
    6.1020    0.4570   20.4360 C   0  0  0  0  0  0  0  0  0  0  0  0
  1  2  1  0
  2  3  2  0
  2  4  1  0
  5  4  1  6
  5  6  1  0
  6  7  2  0
  6  8  1  0
  8  9  1  0
  9 10  2  0
 10 11  1  0
 11 12  1  0
 12 13  3  0
 11 14  2  0
 14 15  1  0
  9 16  1  0
 15 16  2  0
 16 17  1  0
 17 18  1  0
 18 19  1  0
  5 20  1  0
 20 21  2  0
 21 22  1  0
 22 23  1  0
 23 24  1  0
 24 25  2  0
 25 26  1  0
 26 27  2  0
 20 28  1  0
 23 28  2  0
 27 28  1  0
M  END
