SID-ELM-2583a2cd-19
     RDKit          3D

 18 19  0  0  0  0  0  0  0  0999 V2000
    2.5190    1.6560   20.4680 C   0  0  0  0  0  0  0  0  0  0  0  0
    3.6160    2.2210   19.7060 N   0  0  0  0  0  0  0  0  0  0  0  0
    4.8090    1.3860   19.5700 C   0  0  0  0  0  0  0  0  0  0  0  0
    5.2040    0.9550   18.1730 C   0  0  0  0  0  0  0  0  0  0  0  0
    6.2510    0.1940   17.8490 N   0  0  0  0  0  0  0  0  0  0  0  0
    7.0460   -0.2350   18.8520 C   0  0  0  0  0  0  0  0  0  0  0  0
    6.7610    0.1390   20.2950 C   0  0  0  0  0  0  0  0  0  0  0  0
    7.5700   -0.2670   21.3770 N   0  0  0  0  0  0  0  0  0  0  0  0
    8.6850    0.4190   21.8490 C   0  0  0  0  0  0  0  0  0  0  0  0
    9.1040    1.4830   21.3730 O   0  0  0  0  0  0  0  0  0  0  0  0
    9.2710   -0.2530   22.9380 C   0  0  0  0  0  0  0  0  0  0  0  0
   10.6770   -0.3130   22.9470 C   0  0  0  0  0  0  0  0  0  0  0  0
   11.2100   -1.3770   22.2060 C   0  0  0  0  0  0  0  0  0  0  0  0
   12.3590   -1.9620   22.7670 C   0  0  0  0  0  0  0  0  0  0  0  0
   13.1390   -1.0780   23.5220 C   0  0  0  0  0  0  0  0  0  0  0  0
   12.4200   -0.4010   24.5000 C   0  0  0  0  0  0  0  0  0  0  0  0
   11.0640   -0.4190   24.2790 C   0  0  0  0  0  0  0  0  0  0  0  0
    5.6380    0.9370   20.5990 C   0  0  0  0  0  0  0  0  0  0  0  0
  1  2  1  0
  2  3  1  0
  3  4  2  0
  4  5  1  0
  5  6  2  0
  6  7  1  0
  7  8  1  0
  8  9  1  0
  9 10  2  0
  9 11  1  0
 11 12  1  0
 12 13  1  0
 13 14  1  0
 14 15  1  0
 15 16  1  0
 12 17  1  0
 16 17  1  0
  3 18  1  0
  7 18  2  0
M  END
