SID-ELM-2583a2cd-7
     RDKit          3D

 19 20  0  0  0  0  0  0  0  0999 V2000
    3.0560    0.6000   22.9930 C   0  0  0  0  0  0  0  0  0  0  0  0
    2.9390    1.5420   21.8880 N   0  0  0  0  0  0  0  0  0  0  0  0
    1.5760    1.8940   21.4870 C   0  0  0  0  0  0  0  0  0  0  0  0
    3.9250    1.3070   20.8530 C   0  0  0  0  0  0  0  0  0  0  0  0
    3.7490    1.7530   19.4070 C   0  0  0  0  0  0  0  0  0  0  0  0
    4.6230    1.5580   18.3880 N   0  0  0  0  0  0  0  0  0  0  0  0
    5.7710    0.9040   18.6730 C   0  0  0  0  0  0  0  0  0  0  0  0
    6.2210    0.3840   19.8870 C   0  0  0  0  0  0  0  0  0  0  0  0
    7.4510   -0.2550   19.9460 N   0  0  0  0  0  0  0  0  0  0  0  0
    7.9120   -0.7750   21.1840 C   0  0  0  0  0  0  0  0  0  0  0  0
    7.5360   -1.8470   21.6690 O   0  0  0  0  0  0  0  0  0  0  0  0
    8.8490    0.1020   21.7940 N   0  0  0  0  0  0  0  0  0  0  0  0
   10.0440   -0.2760   22.3890 C   0  0  0  0  0  0  0  0  0  0  0  0
   10.4200   -1.6100   22.5440 C   0  0  0  0  0  0  0  0  0  0  0  0
   11.6440   -1.9060   23.1330 C   0  0  0  0  0  0  0  0  0  0  0  0
   12.5130   -0.9140   23.5780 C   0  0  0  0  0  0  0  0  0  0  0  0
   12.1380    0.4260   23.4330 C   0  0  0  0  0  0  0  0  0  0  0  0
   10.9080    0.7450   22.8430 C   0  0  0  0  0  0  0  0  0  0  0  0
    5.2600    0.5790   21.0860 C   0  0  0  0  0  0  0  0  0  0  0  0
  1  2  1  0
  2  3  1  0
  2  4  1  0
  4  5  2  0
  5  6  1  0
  6  7  2  0
  7  8  1  0
  8  9  1  0
  9 10  1  0
 10 11  2  0
 10 12  1  0
 12 13  1  0
 13 14  2  0
 14 15  1  0
 15 16  2  0
 16 17  1  0
 13 18  1  0
 17 18  2  0
  4 19  1  0
  8 19  2  0
M  END
