SID-ELM-2583a2cd-5
     RDKit          3D

 17 18  0  0  0  0  0  0  0  0999 V2000
    3.5910    1.9140   21.9450 N   0  0  0  0  0  0  0  0  0  0  0  0
    4.4010    1.5200   20.9180 C   0  0  0  0  0  0  0  0  0  0  0  0
    3.9720    1.8620   19.4930 C   0  0  0  0  0  0  0  0  0  0  0  0
    4.5730    1.5960   18.3450 N   0  0  0  0  0  0  0  0  0  0  0  0
    5.7370    0.9080   18.5830 C   0  0  0  0  0  0  0  0  0  0  0  0
    6.2940    0.4980   19.9380 C   0  0  0  0  0  0  0  0  0  0  0  0
    7.4420   -0.1610   19.9080 N   0  0  0  0  0  0  0  0  0  0  0  0
    7.9440   -0.7390   21.1620 C   0  0  0  0  0  0  0  0  0  0  0  0
    7.6220   -1.8350   21.6000 O   0  0  0  0  0  0  0  0  0  0  0  0
    8.8190    0.1470   21.7840 N   0  0  0  0  0  0  0  0  0  0  0  0
   10.0560   -0.1560   22.3930 C   0  0  0  0  0  0  0  0  0  0  0  0
   10.4010   -1.5120   22.5070 C   0  0  0  0  0  0  0  0  0  0  0  0
   11.6200   -1.9030   23.0860 C   0  0  0  0  0  0  0  0  0  0  0  0
   12.5090   -0.9390   23.5580 C   0  0  0  0  0  0  0  0  0  0  0  0
   12.1460    0.3950   23.4410 C   0  0  0  0  0  0  0  0  0  0  0  0
   10.9510    0.8340   22.8800 C   0  0  0  0  0  0  0  0  0  0  0  0
    5.5900    0.8270   21.0880 C   0  0  0  0  0  0  0  0  0  0  0  0
  1  2  1  0
  2  3  2  0
  3  4  1  0
  4  5  2  0
  5  6  1  0
  6  7  1  0
  7  8  1  0
  8  9  2  0
  8 10  1  0
 10 11  1  0
 11 12  2  0
 12 13  1  0
 13 14  2  0
 14 15  1  0
 11 16  1  0
 15 16  2  0
  2 17  1  0
  6 17  2  0
M  END
