SID-ELM-b654bfa2-11
     RDKit          3D

 20 22  0  0  0  0  0  0  0  0999 V2000
    9.0660    1.4490   21.3590 O   0  0  0  0  0  0  0  0  0  0  0  0
    8.6480    0.3720   21.8330 C   0  0  0  0  0  0  0  0  0  0  0  0
    9.1760   -0.2420   23.0770 C   0  0  0  0  0  0  0  0  0  0  0  0
   10.5580   -0.4190   23.0870 C   0  0  0  0  0  0  0  0  0  0  0  0
   11.1010   -0.5200   24.3550 C   0  0  0  0  0  0  0  0  0  0  0  0
   12.4430   -0.1860   24.3560 C   0  0  0  0  0  0  0  0  0  0  0  0
   13.2220   -0.8370   23.4090 C   0  0  0  0  0  0  0  0  0  0  0  0
   12.5130   -1.8330   22.4970 C   0  0  0  0  0  0  0  0  0  0  0  0
   11.0760   -1.4000   22.2430 C   0  0  0  0  0  0  0  0  0  0  0  0
    7.5860   -0.4430   21.2750 N   0  0  0  0  0  0  0  0  0  0  0  0
    6.7310    0.0770   20.2830 C   0  0  0  0  0  0  0  0  0  0  0  0
    6.8720   -0.1910   18.8020 C   0  0  0  0  0  0  0  0  0  0  0  0
    7.8320   -0.9910   18.3930 F   0  0  0  0  0  0  0  0  0  0  0  0
    6.1190    0.2930   17.8260 N   0  0  0  0  0  0  0  0  0  0  0  0
    5.1070    1.1040   18.1900 C   0  0  0  0  0  0  0  0  0  0  0  0
    4.7850    1.4630   19.4710 C   0  0  0  0  0  0  0  0  0  0  0  0
    3.7430    2.3020   20.0440 N   0  0  0  0  0  0  0  0  0  0  0  0
    3.9190    2.2940   21.4120 C   0  0  0  0  0  0  0  0  0  0  0  0
    5.0140    1.5020   21.7410 C   0  0  0  0  0  0  0  0  0  0  0  0
    5.6650    0.9080   20.6230 C   0  0  0  0  0  0  0  0  0  0  0  0
  1  2  2  0
  2  3  1  0
  3  4  1  0
  4  5  1  0
  5  6  1  0
  6  7  1  0
  7  8  1  0
  4  9  1  0
  8  9  1  0
  2 10  1  0
 10 11  1  0
 11 12  2  0
 12 13  1  0
 12 14  1  0
 14 15  2  0
 15 16  1  0
 16 17  1  0
 17 18  1  0
 18 19  2  0
 11 20  1  0
 16 20  2  0
 19 20  1  0
M  END
