SID-ELM-2583a2cd-3
     RDKit          3D

 20 22  0  0  0  0  0  0  0  0999 V2000
    9.0310    1.4780   21.3190 O   0  0  0  0  0  0  0  0  0  0  0  0
    8.6400    0.3990   21.7900 C   0  0  0  0  0  0  0  0  0  0  0  0
    9.1680   -0.1860   23.0860 C   0  0  0  0  0  0  0  0  0  0  0  0
   10.6930   -0.3380   23.0940 C   0  0  0  0  0  0  0  0  0  0  0  0
   11.1800   -1.4760   22.2030 C   0  0  0  0  0  0  0  0  0  0  0  0
   12.5440   -1.8950   22.6660 C   0  0  0  0  0  0  0  0  0  0  0  0
   13.2440   -0.9930   23.4660 C   0  0  0  0  0  0  0  0  0  0  0  0
   12.5340   -0.3500   24.4780 C   0  0  0  0  0  0  0  0  0  0  0  0
   11.1870   -0.6440   24.4980 C   0  0  0  0  0  0  0  0  0  0  0  0
    7.6300   -0.4170   21.1550 N   0  0  0  0  0  0  0  0  0  0  0  0
    6.7800    0.0840   20.0990 C   0  0  0  0  0  0  0  0  0  0  0  0
    7.0720   -0.0640   18.7660 C   0  0  0  0  0  0  0  0  0  0  0  0
    6.2700    0.4460   17.7730 N   0  0  0  0  0  0  0  0  0  0  0  0
    5.1270    1.1280   18.0350 C   0  0  0  0  0  0  0  0  0  0  0  0
    4.7810    1.2810   19.3760 C   0  0  0  0  0  0  0  0  0  0  0  0
    3.6600    1.9260   19.7950 N   0  0  0  0  0  0  0  0  0  0  0  0
    3.3150    2.0780   21.1340 C   0  0  0  0  0  0  0  0  0  0  0  0
    4.1600    1.5480   22.0800 C   0  0  0  0  0  0  0  0  0  0  0  0
    5.2810    0.9070   21.7370 N   0  0  0  0  0  0  0  0  0  0  0  0
    5.5840    0.7740   20.4230 C   0  0  0  0  0  0  0  0  0  0  0  0
  1  2  2  0
  2  3  1  0
  3  4  1  0
  4  5  1  0
  5  6  1  0
  6  7  1  0
  7  8  1  0
  4  9  1  0
  8  9  1  0
  2 10  1  0
 10 11  1  0
 11 12  2  0
 12 13  1  0
 13 14  2  0
 14 15  1  0
 15 16  1  0
 16 17  2  0
 17 18  1  0
 18 19  2  0
 11 20  1  0
 15 20  2  0
 19 20  1  0
M  END
