SID-ELM-2583a2cd-12
     RDKit          3D

 19 21  0  0  0  0  0  0  0  0999 V2000
    9.0830    1.7680   21.2200 O   0  0  0  0  0  0  0  0  0  0  0  0
    8.8630    0.7350   21.8450 C   0  0  0  0  0  0  0  0  0  0  0  0
    9.6370    0.4330   23.1370 C   0  0  0  0  0  0  0  0  0  0  0  0
   10.2960   -0.9560   23.3180 C   0  0  0  0  0  0  0  0  0  0  0  0
   11.1120   -1.4370   22.1140 C   0  0  0  0  0  0  0  0  0  0  0  0
   12.5680   -1.6310   22.4470 C   0  0  0  0  0  0  0  0  0  0  0  0
   13.1690   -0.7350   23.3210 C   0  0  0  0  0  0  0  0  0  0  0  0
   12.3590   -0.2230   24.3250 C   0  0  0  0  0  0  0  0  0  0  0  0
   11.1970   -0.9510   24.5650 C   0  0  0  0  0  0  0  0  0  0  0  0
    7.8420   -0.2040   21.3810 N   0  0  0  0  0  0  0  0  0  0  0  0
    6.9470    0.1080   20.2530 C   0  0  0  0  0  0  0  0  0  0  0  0
    7.1570   -0.2530   18.9270 C   0  0  0  0  0  0  0  0  0  0  0  0
    6.2760    0.1140   17.9090 N   0  0  0  0  0  0  0  0  0  0  0  0
    5.1490    0.8390   18.1470 C   0  0  0  0  0  0  0  0  0  0  0  0
    4.9490    1.1730   19.4760 C   0  0  0  0  0  0  0  0  0  0  0  0
    4.0140    1.8250   20.0380 N   0  0  0  0  0  0  0  0  0  0  0  0
    4.2350    1.9020   21.3430 N   0  0  0  0  0  0  0  0  0  0  0  0
    5.4140    1.2750   21.8280 C   0  0  0  0  0  0  0  0  0  0  0  0
    5.7830    0.8430   20.5130 C   0  0  0  0  0  0  0  0  0  0  0  0
  1  2  2  0
  2  3  1  0
  3  4  1  0
  4  5  1  0
  5  6  1  0
  6  7  1  0
  7  8  1  0
  4  9  1  0
  8  9  1  0
  2 10  1  0
 10 11  1  0
 11 12  2  0
 12 13  1  0
 13 14  2  0
 14 15  1  0
 15 16  1  0
 16 17  1  0
 17 18  2  0
 11 19  1  0
 15 19  2  0
 18 19  1  0
M  END
