SID-ELM-8b394441-11
     RDKit          3D

 20 22  0  0  0  0  0  0  0  0999 V2000
    8.8510    1.1380   21.4760 O   0  0  0  0  0  0  0  0  0  0  0  0
    8.4140    0.1010   21.9710 C   0  0  0  0  0  0  0  0  0  0  0  0
    9.2080   -0.7180   22.7250 N   0  0  0  0  0  0  0  0  0  0  0  0
   10.5420   -0.4100   22.9480 C   0  0  0  0  0  0  0  0  0  0  0  0
   11.6550   -0.9870   22.0890 C   0  0  0  0  0  0  0  0  0  0  0  0
   12.9690   -0.6230   22.3520 C   0  0  0  0  0  0  0  0  0  0  0  0
   13.2330    0.2600   23.3940 C   0  0  0  0  0  0  0  0  0  0  0  0
   12.1890    0.7630   24.1620 C   0  0  0  0  0  0  0  0  0  0  0  0
   10.8680    0.4550   23.9700 C   0  0  0  0  0  0  0  0  0  0  0  0
    7.1420   -0.2560   21.7440 N   0  0  0  0  0  0  0  0  0  0  0  0
    6.7230   -0.3680   20.3900 C   0  0  0  0  0  0  0  0  0  0  0  0
    7.5530   -1.6000   19.7740 C   0  0  0  0  0  0  0  0  0  0  0  0
    8.6420   -2.4560   20.8090 Cl  0  0  0  0  0  0  0  0  0  0  0  0
    7.4830   -2.0270   18.4430 N   0  0  0  0  0  0  0  0  0  0  0  0
    6.5780   -1.1010   17.8680 C   0  0  0  0  0  0  0  0  0  0  0  0
    6.1940   -0.2890   18.8490 N   0  0  0  0  0  0  0  0  0  0  0  0
    5.5680    0.1100   17.6530 N   0  0  0  0  0  0  0  0  0  0  0  0
    4.7850    1.1060   17.7320 C   0  0  0  0  0  0  0  0  0  0  0  0
    4.8510    1.4340   19.0840 C   0  0  0  0  0  0  0  0  0  0  0  0
    5.7730    0.6030   19.9280 C   0  0  0  0  0  0  0  0  0  0  0  0
  1  2  2  0
  2  3  1  0
  3  4  1  0
  4  5  2  0
  5  6  1  0
  6  7  2  0
  7  8  1  0
  4  9  1  0
  8  9  2  0
  2 10  1  0
 10 11  1  0
 11 12  2  0
 12 13  1  0
 12 14  1  0
 14 15  2  0
 15 16  1  0
 16 17  1  0
 17 18  2  0
 18 19  1  0
 11 20  1  0
 16 20  1  0
 19 20  2  0
M  END
