SID-ELM-2583a2cd-17
     RDKit          3D

 20 22  0  0  0  0  0  0  0  0999 V2000
    9.1590    1.4610   21.2800 O   0  0  0  0  0  0  0  0  0  0  0  0
    8.7100    0.4240   21.7790 C   0  0  0  0  0  0  0  0  0  0  0  0
    9.1300   -0.0550   23.0920 N   0  0  0  0  0  0  0  0  0  0  0  0
   10.5050   -0.5350   23.3000 C   0  0  0  0  0  0  0  0  0  0  0  0
   11.2000   -1.2990   22.1600 C   0  0  0  0  0  0  0  0  0  0  0  0
   12.6140   -1.7840   22.4210 C   0  0  0  0  0  0  0  0  0  0  0  0
   13.1780   -1.4630   23.7690 C   0  0  0  0  0  0  0  0  0  0  0  0
   12.4490   -0.7570   24.7280 C   0  0  0  0  0  0  0  0  0  0  0  0
   11.1420   -0.2960   24.5210 C   0  0  0  0  0  0  0  0  0  0  0  0
    7.7490   -0.3670   21.1540 N   0  0  0  0  0  0  0  0  0  0  0  0
    6.8700    0.0770   20.1460 C   0  0  0  0  0  0  0  0  0  0  0  0
    7.1180   -0.1630   18.7990 C   0  0  0  0  0  0  0  0  0  0  0  0
    6.2670    0.3050   17.8500 N   0  0  0  0  0  0  0  0  0  0  0  0
    5.1430    1.0150   18.1820 C   0  0  0  0  0  0  0  0  0  0  0  0
    4.8510    1.2600   19.5070 C   0  0  0  0  0  0  0  0  0  0  0  0
    3.7930    1.9140   19.7350 N   0  0  0  0  0  0  0  0  0  0  0  0
    3.5360    2.1280   20.9690 C   0  0  0  0  0  0  0  0  0  0  0  0
    4.2490    1.7510   22.0280 N   0  0  0  0  0  0  0  0  0  0  0  0
    5.4510    1.0240   21.9700 C   0  0  0  0  0  0  0  0  0  0  0  0
    5.7000    0.8030   20.5730 C   0  0  0  0  0  0  0  0  0  0  0  0
  1  2  2  0
  2  3  1  0
  3  4  1  0
  4  5  2  0
  5  6  1  0
  6  7  2  0
  7  8  1  0
  4  9  1  0
  8  9  2  0
  2 10  1  0
 10 11  1  0
 11 12  2  0
 12 13  1  0
 13 14  2  0
 14 15  1  0
 15 16  1  0
 16 17  2  0
 17 18  1  0
 18 19  2  0
 11 20  1  0
 15 20  2  0
 19 20  1  0
M  END
