SID-ELM-2583a2cd-16
     RDKit          3D

 17 18  0  0  0  0  0  0  0  0999 V2000
    3.5150    1.8700   19.4010 N   0  0  0  0  0  0  0  0  0  0  0  0
    4.6940    1.1750   19.4520 C   0  0  0  0  0  0  0  0  0  0  0  0
    5.2990    0.8520   18.1020 C   0  0  0  0  0  0  0  0  0  0  0  0
    6.3970    0.2010   17.8230 N   0  0  0  0  0  0  0  0  0  0  0  0
    7.0140   -0.2020   18.9720 C   0  0  0  0  0  0  0  0  0  0  0  0
    6.5690    0.0380   20.4090 C   0  0  0  0  0  0  0  0  0  0  0  0
    7.3950   -0.4750   21.3300 N   0  0  0  0  0  0  0  0  0  0  0  0
    8.5470    0.3360   21.7860 C   0  0  0  0  0  0  0  0  0  0  0  0
    8.9630    1.3850   21.2680 O   0  0  0  0  0  0  0  0  0  0  0  0
    9.1250   -0.2610   22.9340 C   0  0  0  0  0  0  0  0  0  0  0  0
   10.5300   -0.3640   23.0020 C   0  0  0  0  0  0  0  0  0  0  0  0
   11.0910   -1.3800   22.2090 C   0  0  0  0  0  0  0  0  0  0  0  0
   12.2430   -1.9450   22.7840 C   0  0  0  0  0  0  0  0  0  0  0  0
   13.0960   -1.0320   23.4070 C   0  0  0  0  0  0  0  0  0  0  0  0
   12.4410   -0.2560   24.3680 C   0  0  0  0  0  0  0  0  0  0  0  0
   11.0700   -0.4280   24.2980 C   0  0  0  0  0  0  0  0  0  0  0  0
    5.3790    0.7410   20.5980 C   0  0  0  0  0  0  0  0  0  0  0  0
  1  2  1  0
  2  3  2  0
  3  4  1  0
  4  5  2  0
  5  6  1  0
  6  7  1  0
  7  8  1  0
  8  9  2  0
  8 10  1  0
 10 11  1  0
 11 12  1  0
 12 13  1  0
 13 14  1  0
 14 15  1  0
 11 16  1  0
 15 16  1  0
  2 17  1  0
  6 17  2  0
M  END
