SID-ELM-8b394441-14
     RDKit          3D

 20 22  0  0  0  0  0  0  0  0999 V2000
    9.0870    1.3920   21.3300 O   0  0  0  0  0  0  0  0  0  0  0  0
    8.5840    0.3750   21.8390 C   0  0  0  0  0  0  0  0  0  0  0  0
    9.1420   -0.2260   22.9540 N   0  0  0  0  0  0  0  0  0  0  0  0
   10.4840   -0.6250   23.1890 C   0  0  0  0  0  0  0  0  0  0  0  0
   11.1460   -0.3260   24.5200 C   0  0  0  0  0  0  0  0  0  0  0  0
   12.4580   -0.7260   24.7530 C   0  0  0  0  0  0  0  0  0  0  0  0
   13.1550   -1.4060   23.7560 C   0  0  0  0  0  0  0  0  0  0  0  0
   12.5380   -1.6730   22.5400 C   0  0  0  0  0  0  0  0  0  0  0  0
   11.2380   -1.3060   22.2330 C   0  0  0  0  0  0  0  0  0  0  0  0
    7.4300   -0.1810   21.3410 N   0  0  0  0  0  0  0  0  0  0  0  0
    6.5820    0.4610   20.3520 C   0  0  0  0  0  0  0  0  0  0  0  0
    6.6390   -0.0960   18.9170 C   0  0  0  0  0  0  0  0  0  0  0  0
    7.5680   -1.4200   18.5350 Cl  0  0  0  0  0  0  0  0  0  0  0  0
    5.9350    0.4330   17.8540 N   0  0  0  0  0  0  0  0  0  0  0  0
    5.0610    1.5830   18.1460 C   0  0  0  0  0  0  0  0  0  0  0  0
    5.0020    2.0840   19.5740 C   0  0  0  0  0  0  0  0  0  0  0  0
    4.3460    3.0420   20.1540 N   0  0  0  0  0  0  0  0  0  0  0  0
    4.6430    3.0850   21.4620 N   0  0  0  0  0  0  0  0  0  0  0  0
    5.5590    2.1830   22.0690 C   0  0  0  0  0  0  0  0  0  0  0  0
    5.7850    1.4990   20.6860 C   0  0  0  0  0  0  0  0  0  0  0  0
  1  2  2  0
  2  3  1  0
  3  4  1  0
  4  5  2  0
  5  6  1  0
  6  7  2  0
  7  8  1  0
  4  9  1  0
  8  9  2  0
  2 10  1  0
 10 11  1  0
 11 12  2  0
 12 13  1  0
 12 14  1  0
 14 15  2  0
 15 16  1  0
 16 17  1  0
 17 18  1  0
 18 19  2  0
 11 20  1  0
 16 20  2  0
 19 20  1  0
M  END
