SID-ELM-2583a2cd-10
     RDKit          3D

 19 21  0  0  0  0  0  0  0  0999 V2000
    9.1760    1.4900   21.3030 O   0  0  0  0  0  0  0  0  0  0  0  0
    8.7330    0.4550   21.8100 C   0  0  0  0  0  0  0  0  0  0  0  0
    9.1580   -0.0220   23.1180 N   0  0  0  0  0  0  0  0  0  0  0  0
   10.5250   -0.5200   23.3150 C   0  0  0  0  0  0  0  0  0  0  0  0
   11.2110   -1.2790   22.1630 C   0  0  0  0  0  0  0  0  0  0  0  0
   12.6180   -1.7810   22.4160 C   0  0  0  0  0  0  0  0  0  0  0  0
   13.1870   -1.4830   23.7680 C   0  0  0  0  0  0  0  0  0  0  0  0
   12.4670   -0.7800   24.7360 C   0  0  0  0  0  0  0  0  0  0  0  0
   11.1680   -0.3040   24.5360 C   0  0  0  0  0  0  0  0  0  0  0  0
    7.7740   -0.3410   21.1950 N   0  0  0  0  0  0  0  0  0  0  0  0
    6.9380    0.0780   20.1500 C   0  0  0  0  0  0  0  0  0  0  0  0
    7.1440   -0.2160   18.7990 C   0  0  0  0  0  0  0  0  0  0  0  0
    6.2580    0.2790   17.8510 N   0  0  0  0  0  0  0  0  0  0  0  0
    5.1500    1.0610   18.1800 C   0  0  0  0  0  0  0  0  0  0  0  0
    4.9590    1.3220   19.5150 C   0  0  0  0  0  0  0  0  0  0  0  0
    4.0380    1.9960   20.1090 N   0  0  0  0  0  0  0  0  0  0  0  0
    4.1890    2.0330   21.4670 N   0  0  0  0  0  0  0  0  0  0  0  0
    5.3110    1.3090   21.6640 C   0  0  0  0  0  0  0  0  0  0  0  0
    5.8120    0.8540   20.4580 C   0  0  0  0  0  0  0  0  0  0  0  0
  1  2  2  0
  2  3  1  0
  3  4  1  0
  4  5  2  0
  5  6  1  0
  6  7  2  0
  7  8  1  0
  4  9  1  0
  8  9  2  0
  2 10  1  0
 10 11  1  0
 11 12  2  0
 12 13  1  0
 13 14  2  0
 14 15  1  0
 15 16  1  0
 16 17  1  0
 17 18  2  0
 11 19  1  0
 15 19  2  0
 18 19  1  0
M  END
