SID-ELM-b654bfa2-1
     RDKit          3D

 18 19  0  0  0  0  0  0  0  0999 V2000
    3.6230    2.4370   19.6950 N   0  0  0  0  0  0  0  0  0  0  0  0
    4.7760    1.5190   19.5640 C   0  0  0  0  0  0  0  0  0  0  0  0
    5.1000    1.1390   18.1920 C   0  0  0  0  0  0  0  0  0  0  0  0
    6.1000    0.3100   17.8800 N   0  0  0  0  0  0  0  0  0  0  0  0
    6.7910   -0.1440   18.8990 C   0  0  0  0  0  0  0  0  0  0  0  0
    7.7690   -0.9770   18.5790 F   0  0  0  0  0  0  0  0  0  0  0  0
    6.6120    0.1430   20.2490 C   0  0  0  0  0  0  0  0  0  0  0  0
    7.5540   -0.4890   21.1880 N   0  0  0  0  0  0  0  0  0  0  0  0
    8.6180    0.4090   21.7030 C   0  0  0  0  0  0  0  0  0  0  0  0
    8.9920    1.4710   21.1810 O   0  0  0  0  0  0  0  0  0  0  0  0
    9.1140   -0.1060   22.8490 N   0  0  0  0  0  0  0  0  0  0  0  0
   10.4280   -0.5310   23.1670 C   0  0  0  0  0  0  0  0  0  0  0  0
   11.0980   -0.2490   24.5010 C   0  0  0  0  0  0  0  0  0  0  0  0
   12.4920   -0.7270   24.8040 C   0  0  0  0  0  0  0  0  0  0  0  0
   13.1950   -1.4990   23.7310 C   0  0  0  0  0  0  0  0  0  0  0  0
   12.5090   -1.7670   22.4020 C   0  0  0  0  0  0  0  0  0  0  0  0
   11.1850   -1.2780   22.1940 C   0  0  0  0  0  0  0  0  0  0  0  0
    5.5630    1.0000   20.5940 C   0  0  0  0  0  0  0  0  0  0  0  0
  1  2  1  0
  2  3  2  0
  3  4  1  0
  4  5  2  0
  5  6  1  0
  5  7  1  0
  7  8  1  0
  8  9  1  0
  9 10  2  0
  9 11  1  0
 11 12  1  0
 12 13  2  0
 13 14  1  0
 14 15  2  0
 15 16  1  0
 12 17  1  0
 16 17  2  0
  2 18  1  0
  7 18  2  0
M  END
