SID-ELM-2583a2cd-13
     RDKit          3D

 20 22  0  0  0  0  0  0  0  0999 V2000
    9.1230    1.3870   21.3790 O   0  0  0  0  0  0  0  0  0  0  0  0
    8.6720    0.3390   21.8610 C   0  0  0  0  0  0  0  0  0  0  0  0
    9.0140   -0.1600   23.2710 C   0  0  0  0  0  0  0  0  0  0  0  0
   10.3340   -0.9600   23.4690 C   0  0  0  0  0  0  0  0  0  0  0  0
   11.0760   -1.3000   22.1720 C   0  0  0  0  0  0  0  0  0  0  0  0
   12.5300   -1.6340   22.4070 C   0  0  0  0  0  0  0  0  0  0  0  0
   13.1770   -1.0340   23.4820 C   0  0  0  0  0  0  0  0  0  0  0  0
   12.4130   -0.9320   24.6330 C   0  0  0  0  0  0  0  0  0  0  0  0
   11.2490   -0.2080   24.4410 C   0  0  0  0  0  0  0  0  0  0  0  0
    7.7320   -0.5030   21.1400 N   0  0  0  0  0  0  0  0  0  0  0  0
    6.8330    0.0300   20.1240 C   0  0  0  0  0  0  0  0  0  0  0  0
    7.0910   -0.1210   18.7840 C   0  0  0  0  0  0  0  0  0  0  0  0
    6.2820    0.3870   17.8040 N   0  0  0  0  0  0  0  0  0  0  0  0
    5.1610    1.0760   18.0940 C   0  0  0  0  0  0  0  0  0  0  0  0
    4.8360    1.2510   19.4410 C   0  0  0  0  0  0  0  0  0  0  0  0
    3.7320    1.9150   19.7310 N   0  0  0  0  0  0  0  0  0  0  0  0
    3.4430    2.0680   21.0110 C   0  0  0  0  0  0  0  0  0  0  0  0
    4.1850    1.6030   21.9830 N   0  0  0  0  0  0  0  0  0  0  0  0
    5.3590    0.8930   21.9600 C   0  0  0  0  0  0  0  0  0  0  0  0
    5.6560    0.7360   20.5370 C   0  0  0  0  0  0  0  0  0  0  0  0
  1  2  2  0
  2  3  1  0
  3  4  1  0
  4  5  1  0
  5  6  1  0
  6  7  1  0
  7  8  1  0
  4  9  1  0
  8  9  1  0
  2 10  1  0
 10 11  1  0
 11 12  2  0
 12 13  1  0
 13 14  2  0
 14 15  1  0
 15 16  1  0
 16 17  2  0
 17 18  1  0
 18 19  2  0
 11 20  1  0
 15 20  2  0
 19 20  1  0
M  END
