SID-ELM-1f105489-16
     RDKit          3D

 20 22  0  0  0  0  0  0  0  0999 V2000
   13.3600   -1.7240   23.5740 C   0  0  0  0  0  0  0  0  0  0  0  0
   12.0440   -1.1620   23.7560 N   0  0  0  0  0  0  0  0  0  0  0  0
   11.0600   -1.9670   23.0250 C   0  0  0  0  0  0  0  0  0  0  0  0
    9.8110   -1.4000   22.9000 C   0  0  0  0  0  0  0  0  0  0  0  0
    9.6610   -0.0780   22.6090 N   0  0  0  0  0  0  0  0  0  0  0  0
    8.8600    0.2870   21.5730 C   0  0  0  0  0  0  0  0  0  0  0  0
    8.8960    1.4750   21.1970 O   0  0  0  0  0  0  0  0  0  0  0  0
    8.0330   -0.7030   20.9770 N   0  0  0  0  0  0  0  0  0  0  0  0
    6.9920   -0.1870   20.0780 C   0  0  0  0  0  0  0  0  0  0  0  0
    6.9150   -0.6810   18.7860 C   0  0  0  0  0  0  0  0  0  0  0  0
    7.6780   -1.8010   17.8290 Cl  0  0  0  0  0  0  0  0  0  0  0  0
    5.9020   -0.0330   18.1680 N   0  0  0  0  0  0  0  0  0  0  0  0
    5.3000    0.8380   19.0030 C   0  0  0  0  0  0  0  0  0  0  0  0
    4.2590    1.6010   18.6500 N   0  0  0  0  0  0  0  0  0  0  0  0
    3.8840    2.3330   19.6930 C   0  0  0  0  0  0  0  0  0  0  0  0
    4.5470    2.2960   21.0500 C   0  0  0  0  0  0  0  0  0  0  0  0
    5.6030    1.5100   21.3380 N   0  0  0  0  0  0  0  0  0  0  0  0
    5.9600    0.7680   20.2460 C   0  0  0  0  0  0  0  0  0  0  0  0
   10.5870    0.8270   23.3010 C   0  0  0  0  0  0  0  0  0  0  0  0
   12.0050    0.2650   23.3900 C   0  0  0  0  0  0  0  0  0  0  0  0
  1  2  1  0
  2  3  1  0
  3  4  1  0
  4  5  1  0
  5  6  1  0
  6  7  2  0
  6  8  1  0
  8  9  1  0
  9 10  2  0
 10 11  1  0
 10 12  1  0
 12 13  1  0
 13 14  1  0
 14 15  2  0
 15 16  1  0
 16 17  2  0
  9 18  1  0
 13 18  2  0
 17 18  1  0
  5 19  1  0
  2 20  1  0
 19 20  1  0
M  END
