SID-ELM-8b394441-15
     RDKit          3D

 21 23  0  0  0  0  0  0  0  0999 V2000
    8.7430    1.6610   21.0880 O   0  0  0  0  0  0  0  0  0  0  0  0
    8.6820    0.4970   21.4830 C   0  0  0  0  0  0  0  0  0  0  0  0
    9.2580    0.1900   22.6840 N   0  0  0  0  0  0  0  0  0  0  0  0
   10.6210    0.3420   22.9410 C   0  0  0  0  0  0  0  0  0  0  0  0
   12.1210    0.0620   23.2900 C   0  0  0  0  0  0  0  0  0  0  0  0
   12.7670   -1.1310   23.5980 C   0  0  0  0  0  0  0  0  0  0  0  0
   12.0810   -2.2890   23.6320 C   0  0  0  0  0  0  0  0  0  0  0  0
   10.7770   -2.1720   23.3510 C   0  0  0  0  0  0  0  0  0  0  0  0
   10.1470   -0.9990   23.0470 C   0  0  0  0  0  0  0  0  0  0  0  0
    8.0600   -0.4840   20.7370 N   0  0  0  0  0  0  0  0  0  0  0  0
    6.9340   -0.1370   19.8630 C   0  0  0  0  0  0  0  0  0  0  0  0
    6.8480   -0.8880   18.4870 C   0  0  0  0  0  0  0  0  0  0  0  0
    7.8000   -2.0860   17.8040 Cl  0  0  0  0  0  0  0  0  0  0  0  0
    5.8800   -0.6310   17.6000 N   0  0  0  0  0  0  0  0  0  0  0  0
    4.9160    0.3510   17.9450 C   0  0  0  0  0  0  0  0  0  0  0  0
    4.9720    1.0450   19.2370 C   0  0  0  0  0  0  0  0  0  0  0  0
    3.9660    1.9320   19.4000 N   0  0  0  0  0  0  0  0  0  0  0  0
    3.8890    2.6420   20.5750 C   0  0  0  0  0  0  0  0  0  0  0  0
    4.9200    2.4390   21.6740 C   0  0  0  0  0  0  0  0  0  0  0  0
    5.9020    1.5130   21.3810 N   0  0  0  0  0  0  0  0  0  0  0  0
    5.9470    0.8010   20.1640 C   0  0  0  0  0  0  0  0  0  0  0  0
  1  2  2  0
  2  3  1  0
  3  4  1  0
  4  5  2  0
  5  6  1  0
  6  7  2  0
  7  8  1  0
  4  9  1  0
  8  9  2  0
  2 10  1  0
 10 11  1  0
 11 12  2  0
 12 13  1  0
 12 14  1  0
 14 15  2  0
 15 16  1  0
 16 17  1  0
 17 18  2  0
 18 19  1  0
 19 20  2  0
 11 21  1  0
 16 21  2  0
 20 21  1  0
M  END
