SID-ELM-b654bfa2-15
     RDKit          3D

 21 23  0  0  0  0  0  0  0  0999 V2000
    9.1490    1.4080   21.3740 O   0  0  0  0  0  0  0  0  0  0  0  0
    8.6870    0.3650   21.8740 C   0  0  0  0  0  0  0  0  0  0  0  0
    9.1040   -0.1560   23.2080 C   0  0  0  0  0  0  0  0  0  0  0  0
   10.3300   -0.8500   23.3140 C   0  0  0  0  0  0  0  0  0  0  0  0
   11.1710   -0.8760   22.2130 C   0  0  0  0  0  0  0  0  0  0  0  0
   12.3220   -1.6520   22.3970 C   0  0  0  0  0  0  0  0  0  0  0  0
   13.1860   -1.1320   23.3460 C   0  0  0  0  0  0  0  0  0  0  0  0
   12.5050   -0.2760   24.4030 C   0  0  0  0  0  0  0  0  0  0  0  0
   11.0250   -0.5980   24.4970 C   0  0  0  0  0  0  0  0  0  0  0  0
    7.6530   -0.4630   21.2660 N   0  0  0  0  0  0  0  0  0  0  0  0
    6.7570    0.0560   20.2930 C   0  0  0  0  0  0  0  0  0  0  0  0
    6.8830   -0.2040   18.8140 C   0  0  0  0  0  0  0  0  0  0  0  0
    7.8510   -0.9820   18.3860 F   0  0  0  0  0  0  0  0  0  0  0  0
    6.1110    0.2670   17.8650 N   0  0  0  0  0  0  0  0  0  0  0  0
    5.0940    1.0510   18.2620 C   0  0  0  0  0  0  0  0  0  0  0  0
    4.7660    1.4110   19.5500 C   0  0  0  0  0  0  0  0  0  0  0  0
    3.6380    2.2570   19.9320 N   0  0  0  0  0  0  0  0  0  0  0  0
    3.4560    2.5170   21.2950 C   0  0  0  0  0  0  0  0  0  0  0  0
    4.2670    2.0360   22.3300 C   0  0  0  0  0  0  0  0  0  0  0  0
    5.3990    1.1930   21.9730 N   0  0  0  0  0  0  0  0  0  0  0  0
    5.6760    0.8680   20.6720 C   0  0  0  0  0  0  0  0  0  0  0  0
  1  2  2  0
  2  3  1  0
  3  4  1  0
  4  5  1  0
  5  6  1  0
  6  7  1  0
  7  8  1  0
  4  9  1  0
  8  9  1  0
  2 10  1  0
 10 11  1  0
 11 12  2  0
 12 13  1  0
 12 14  1  0
 14 15  2  0
 15 16  1  0
 16 17  1  0
 17 18  2  0
 18 19  1  0
 19 20  2  0
 11 21  1  0
 16 21  2  0
 20 21  1  0
M  END
