SID-ELM-8b394441-16
     RDKit          3D

 18 19  0  0  0  0  0  0  0  0999 V2000
    3.9300    2.9540   19.7890 N   0  0  0  0  0  0  0  0  0  0  0  0
    4.8420    1.9380   19.5690 C   0  0  0  0  0  0  0  0  0  0  0  0
    5.0720    1.4320   18.1720 C   0  0  0  0  0  0  0  0  0  0  0  0
    5.9380    0.4290   17.9480 N   0  0  0  0  0  0  0  0  0  0  0  0
    6.5580   -0.0540   19.0330 C   0  0  0  0  0  0  0  0  0  0  0  0
    7.5580   -1.3200   18.6210 Cl  0  0  0  0  0  0  0  0  0  0  0  0
    6.4550    0.3440   20.3420 C   0  0  0  0  0  0  0  0  0  0  0  0
    7.2200   -0.2890   21.2700 N   0  0  0  0  0  0  0  0  0  0  0  0
    8.4430    0.4520   21.7570 C   0  0  0  0  0  0  0  0  0  0  0  0
    8.9050    1.4700   21.2240 O   0  0  0  0  0  0  0  0  0  0  0  0
    8.9900   -0.1600   22.9100 C   0  0  0  0  0  0  0  0  0  0  0  0
   10.3920   -0.3530   22.9840 C   0  0  0  0  0  0  0  0  0  0  0  0
   10.9300   -0.5050   24.4170 C   0  0  0  0  0  0  0  0  0  0  0  0
   12.4360   -0.1850   24.4710 C   0  0  0  0  0  0  0  0  0  0  0  0
   13.1910   -0.9060   23.3640 C   0  0  0  0  0  0  0  0  0  0  0  0
   12.3920   -1.7430   22.3540 C   0  0  0  0  0  0  0  0  0  0  0  0
   10.9140   -1.3440   22.1410 C   0  0  0  0  0  0  0  0  0  0  0  0
    5.5740    1.3510   20.6200 C   0  0  0  0  0  0  0  0  0  0  0  0
  1  2  1  0
  2  3  2  0
  3  4  1  0
  4  5  2  0
  5  6  1  0
  5  7  1  0
  7  8  1  0
  8  9  1  0
  9 10  2  0
  9 11  1  0
 11 12  1  0
 12 13  1  0
 13 14  1  0
 14 15  1  0
 15 16  1  0
 12 17  1  0
 16 17  1  0
  2 18  1  0
  7 18  2  0
M  END
