SID-ELM-433ea7f3-4-acrylamide
     RDKit          3D

 30 32  0  0  0  0  0  0  0  0999 V2000
    7.5070   -4.6270   20.7870 C   0  0  0  0  0  0  0  0  0  0  0  0
    6.3510   -4.7490   21.7520 C   0  0  0  0  0  0  0  0  0  0  0  0
    5.7970   -3.3760   21.9610 C   0  0  0  0  0  0  0  0  0  0  0  0
    4.5980   -3.1650   21.8010 O   0  0  0  0  0  0  0  0  0  0  0  0
    6.7760   -2.4560   22.3190 N   0  0  0  0  0  0  0  0  0  0  0  0
    6.6400   -0.9990   22.2870 C   0  0  1  0  0  0  0  0  0  0  0  0
    7.8560   -0.3560   22.6970 C   0  0  0  0  0  0  0  0  0  0  0  0
    8.1350    0.7270   21.9020 O   0  0  0  0  0  0  0  0  0  0  0  0
    8.6820   -0.7380   23.7680 N   0  0  0  0  0  0  0  0  0  0  0  0
    7.8980   -1.1790   24.9410 C   0  0  0  0  0  0  0  0  0  0  0  0
    8.3840   -2.2570   24.0420 C   0  0  0  0  0  0  0  0  0  0  0  0
    9.2790   -1.6870   22.9510 C   0  0  0  0  0  0  0  0  0  0  0  0
    9.9250   -2.6040   21.9270 C   0  0  0  0  0  0  0  0  0  0  0  0
   11.3600   -2.2980   21.7420 N   0  0  0  0  0  0  0  0  0  0  0  0
    9.4730   -0.2730   22.9710 C   0  0  0  0  0  0  0  0  0  0  0  0
    8.8770    0.6900   23.9700 N   0  0  0  0  0  0  0  0  0  0  0  0
    8.0590    0.1850   25.0040 C   0  0  0  0  0  0  0  0  0  0  0  0
    7.5200    0.9620   25.9700 N   0  0  0  0  0  0  0  0  0  0  0  0
    7.5280    0.4320   27.2060 C   0  0  0  0  0  0  0  0  0  0  0  0
    8.8640    0.2070   27.8910 C   0  0  0  0  0  0  0  0  0  0  0  0
    6.3780   -0.5270   20.8760 C   0  0  0  0  0  0  0  0  0  0  0  0
    6.9150   -1.0700   19.5540 C   0  0  0  0  0  0  0  0  0  0  0  0
    7.7230   -2.1130   19.4540 F   0  0  0  0  0  0  0  0  0  0  0  0
    6.4620   -0.3420   18.4680 N   0  0  0  0  0  0  0  0  0  0  0  0
    5.6320    0.6720   18.8740 C   0  0  0  0  0  0  0  0  0  0  0  0
    5.0280    1.5540   18.0800 N   0  0  0  0  0  0  0  0  0  0  0  0
    4.2700    2.4280   18.7860 C   0  0  0  0  0  0  0  0  0  0  0  0
    4.0520    2.5100   20.3040 C   0  0  0  0  0  0  0  0  0  0  0  0
    4.6840    1.5970   21.1570 C   0  0  0  0  0  0  0  0  0  0  0  0
    5.5430    0.5970   20.3820 C   0  0  0  0  0  0  0  0  0  0  0  0
  1  2  1  0
  2  3  1  0
  3  4  2  0
  3  5  1  0
  6  5  1  6
  6  7  1  0
  7  8  2  0
  7  9  1  0
  9 10  1  0
 10 11  2  0
 11 12  1  0
 12 13  1  0
 13 14  3  0
 12 15  2  0
 15 16  1  0
 10 17  1  0
 16 17  2  0
 17 18  1  0
 18 19  1  0
 19 20  1  0
  6 21  1  0
 21 22  2  0
 22 23  1  0
 22 24  1  0
 24 25  1  0
 25 26  1  0
 26 27  2  0
 27 28  1  0
 28 29  2  0
 21 30  1  0
 25 30  2  0
 29 30  1  0
M  END
