SID-ELM-8b394441-21
     RDKit          3D

 20 22  0  0  0  0  0  0  0  0999 V2000
    9.0200    1.4030   21.3500 O   0  0  0  0  0  0  0  0  0  0  0  0
    8.5000    0.3810   21.8300 C   0  0  0  0  0  0  0  0  0  0  0  0
    9.0370   -0.3690   23.0370 C   0  0  0  0  0  0  0  0  0  0  0  0
   10.5630   -0.3760   23.1240 C   0  0  0  0  0  0  0  0  0  0  0  0
   11.1020   -0.5710   24.3800 C   0  0  0  0  0  0  0  0  0  0  0  0
   12.4220   -0.2010   24.3950 C   0  0  0  0  0  0  0  0  0  0  0  0
   13.2060   -0.8900   23.4780 C   0  0  0  0  0  0  0  0  0  0  0  0
   12.6260   -1.7180   22.5220 C   0  0  0  0  0  0  0  0  0  0  0  0
   11.1530   -1.4270   22.1730 C   0  0  0  0  0  0  0  0  0  0  0  0
    7.3350   -0.1880   21.3240 N   0  0  0  0  0  0  0  0  0  0  0  0
    6.5470    0.4180   20.3760 C   0  0  0  0  0  0  0  0  0  0  0  0
    6.6300   -0.1030   18.9580 C   0  0  0  0  0  0  0  0  0  0  0  0
    7.5670   -1.4070   18.5450 Cl  0  0  0  0  0  0  0  0  0  0  0  0
    5.9200    0.4400   17.8320 N   0  0  0  0  0  0  0  0  0  0  0  0
    5.0500    1.5610   18.1610 C   0  0  0  0  0  0  0  0  0  0  0  0
    4.9580    2.0430   19.5990 C   0  0  0  0  0  0  0  0  0  0  0  0
    4.2150    3.0130   20.0110 N   0  0  0  0  0  0  0  0  0  0  0  0
    4.4140    3.1350   21.3530 C   0  0  0  0  0  0  0  0  0  0  0  0
    5.4420    2.1050   21.9630 C   0  0  0  0  0  0  0  0  0  0  0  0
    5.6760    1.4920   20.6530 C   0  0  0  0  0  0  0  0  0  0  0  0
  1  2  2  0
  2  3  1  0
  3  4  1  0
  4  5  1  0
  5  6  1  0
  6  7  1  0
  7  8  1  0
  4  9  1  0
  8  9  1  0
  2 10  1  0
 10 11  1  0
 11 12  2  0
 12 13  1  0
 12 14  1  0
 14 15  2  0
 15 16  1  0
 16 17  1  0
 17 18  1  0
 18 19  2  0
 11 20  1  0
 16 20  2  0
 19 20  1  0
M  END
