SID-ELM-b654bfa2-21
     RDKit          3D

 18 19  0  0  0  0  0  0  0  0999 V2000
    3.6260    2.3750   19.7370 N   0  0  0  0  0  0  0  0  0  0  0  0
    4.7790    1.4680   19.5910 C   0  0  0  0  0  0  0  0  0  0  0  0
    5.1100    1.1040   18.2140 C   0  0  0  0  0  0  0  0  0  0  0  0
    6.1160    0.2860   17.9040 N   0  0  0  0  0  0  0  0  0  0  0  0
    6.8070   -0.1780   18.9200 C   0  0  0  0  0  0  0  0  0  0  0  0
    7.7860   -0.9990   18.5880 F   0  0  0  0  0  0  0  0  0  0  0  0
    6.6190    0.0930   20.2780 C   0  0  0  0  0  0  0  0  0  0  0  0
    7.5550   -0.5400   21.2380 N   0  0  0  0  0  0  0  0  0  0  0  0
    8.5640    0.3930   21.8090 C   0  0  0  0  0  0  0  0  0  0  0  0
    9.0270    1.4040   21.2550 O   0  0  0  0  0  0  0  0  0  0  0  0
    8.9380    0.0080   23.1110 C   0  0  0  0  0  0  0  0  0  0  0  0
   10.2420   -0.8220   23.2460 C   0  0  0  0  0  0  0  0  0  0  0  0
   10.9690   -0.5480   24.5580 C   0  0  0  0  0  0  0  0  0  0  0  0
   12.4600   -0.3650   24.4700 C   0  0  0  0  0  0  0  0  0  0  0  0
   13.2100   -1.0910   23.3840 C   0  0  0  0  0  0  0  0  0  0  0  0
   12.3450   -1.6680   22.4440 C   0  0  0  0  0  0  0  0  0  0  0  0
   11.2000   -0.9120   22.2090 C   0  0  0  0  0  0  0  0  0  0  0  0
    5.5640    0.9380   20.6170 C   0  0  0  0  0  0  0  0  0  0  0  0
  1  2  1  0
  2  3  2  0
  3  4  1  0
  4  5  2  0
  5  6  1  0
  5  7  1  0
  7  8  1  0
  8  9  1  0
  9 10  2  0
  9 11  1  0
 11 12  1  0
 12 13  1  0
 13 14  1  0
 14 15  1  0
 15 16  1  0
 12 17  1  0
 16 17  1  0
  2 18  1  0
  7 18  2  0
M  END
