SID-ELM-433ea7f3-2-vinylsulfonamide
     RDKit          3D

 29 30  0  0  0  0  0  0  0  0999 V2000
    6.5560   -4.6310   20.3800 C   0  0  0  0  0  0  0  0  0  0  0  0
    6.2190   -5.0370   21.8070 C   0  0  0  0  0  0  0  0  0  0  0  0
    5.5650   -3.6930   22.7430 S   0  0  0  0  0  0  0  0  0  0  0  0
    4.3790   -3.2300   22.0780 O   0  0  0  0  0  0  0  0  0  0  0  0
    5.5070   -4.1230   24.1220 O   0  0  0  0  0  0  0  0  0  0  0  0
    6.7570   -2.4880   22.6270 N   0  0  0  0  0  0  0  0  0  0  0  0
    6.7680   -1.5360   21.4570 C   0  0  1  0  0  0  0  0  0  0  0  0
    7.3520   -0.2390   21.7420 C   0  0  0  0  0  0  0  0  0  0  0  0
    7.3180    0.7020   20.7470 O   0  0  0  0  0  0  0  0  0  0  0  0
    7.9550   -0.0050   23.1160 N   0  0  0  0  0  0  0  0  0  0  0  0
    9.4340    0.2630   23.1190 C   0  0  0  0  0  0  0  0  0  0  0  0
   10.5270   -0.7620   22.9400 C   0  0  0  0  0  0  0  0  0  0  0  0
   12.0580   -0.2900   22.9630 C   0  0  0  0  0  0  0  0  0  0  0  0
   13.0390   -1.4450   22.7670 C   0  0  0  0  0  0  0  0  0  0  0  0
   13.0580   -1.9030   21.3540 N   0  0  0  0  0  0  0  0  0  0  0  0
   12.7190    1.0320   23.1360 C   0  0  0  0  0  0  0  0  0  0  0  0
   11.5540    1.8400   23.2830 N   0  0  0  0  0  0  0  0  0  0  0  0
   10.2600    1.4140   23.2550 C   0  0  0  0  0  0  0  0  0  0  0  0
   11.0340    0.2420   23.1430 N   0  0  0  0  0  0  0  0  0  0  0  0
   11.2660   -0.4320   24.4630 C   0  0  0  0  0  0  0  0  0  0  0  0
   10.1280   -0.1800   25.3050 C   0  0  0  0  0  0  0  0  0  0  0  0
    7.5780   -2.1840   20.3550 C   0  0  0  0  0  0  0  0  0  0  0  0
    6.5180   -1.7070   19.5220 C   0  0  0  0  0  0  0  0  0  0  0  0
    5.7800   -1.0830   20.7960 C   0  0  0  0  0  0  0  0  0  0  0  0
    4.6150   -0.4640   20.4390 N   0  0  0  0  0  0  0  0  0  0  0  0
    6.2900   -1.1510   22.2640 C   0  0  0  0  0  0  0  0  0  0  0  0
    7.0990   -1.7360   21.4570 N   0  0  0  0  0  0  0  0  0  0  0  0
    8.2390   -2.3750   21.5440 C   0  0  0  0  0  0  0  0  0  0  0  0
    8.2840   -2.1910   22.8740 F   0  0  0  0  0  0  0  0  0  0  0  0
  1  2  1  0
  2  3  1  0
  3  4  2  0
  3  5  2  0
  3  6  1  0
  7  6  1  1
  7  8  1  0
  8  9  2  0
  8 10  1  0
 10 11  1  0
 11 12  2  0
 12 13  1  0
 13 14  1  0
 14 15  3  0
 13 16  2  0
 16 17  1  0
 11 18  1  0
 17 18  2  0
 18 19  1  0
 19 20  1  0
 20 21  1  0
  7 22  1  0
 22 23  2  0
 23 24  1  0
 24 25  1  0
 24 26  2  0
 26 27  1  0
 22 28  1  0
 27 28  2  0
 28 29  1  0
M  END
