SID-ELM-8b394441-5
     RDKit          3D

 18 19  0  0  0  0  0  0  0  0999 V2000
    3.9430    2.9940   19.8080 N   0  0  0  0  0  0  0  0  0  0  0  0
    4.8300    1.9790   19.4990 C   0  0  0  0  0  0  0  0  0  0  0  0
    5.0700    1.4490   18.1280 C   0  0  0  0  0  0  0  0  0  0  0  0
    5.9470    0.4420   17.9680 N   0  0  0  0  0  0  0  0  0  0  0  0
    6.5720   -0.0280   19.0690 C   0  0  0  0  0  0  0  0  0  0  0  0
    7.5610   -1.2950   18.6230 Cl  0  0  0  0  0  0  0  0  0  0  0  0
    6.5040    0.3530   20.3970 C   0  0  0  0  0  0  0  0  0  0  0  0
    7.2820   -0.2790   21.3170 N   0  0  0  0  0  0  0  0  0  0  0  0
    8.4930    0.5070   21.7700 C   0  0  0  0  0  0  0  0  0  0  0  0
    8.9180    1.5160   21.1930 O   0  0  0  0  0  0  0  0  0  0  0  0
    9.1630    0.0740   22.9000 N   0  0  0  0  0  0  0  0  0  0  0  0
   10.4520   -0.4710   23.1180 C   0  0  0  0  0  0  0  0  0  0  0  0
   11.0710   -0.2290   24.3530 C   0  0  0  0  0  0  0  0  0  0  0  0
   12.4440   -0.7270   24.7800 C   0  0  0  0  0  0  0  0  0  0  0  0
   13.2170   -1.5720   23.7760 C   0  0  0  0  0  0  0  0  0  0  0  0
   12.5660   -1.8440   22.4300 C   0  0  0  0  0  0  0  0  0  0  0  0
   11.1560   -1.2530   22.1640 C   0  0  0  0  0  0  0  0  0  0  0  0
    5.6240    1.3660   20.6820 C   0  0  0  0  0  0  0  0  0  0  0  0
  1  2  1  0
  2  3  2  0
  3  4  1  0
  4  5  2  0
  5  6  1  0
  5  7  1  0
  7  8  1  0
  8  9  1  0
  9 10  2  0
  9 11  1  0
 11 12  1  0
 12 13  2  0
 13 14  1  0
 14 15  2  0
 15 16  1  0
 12 17  1  0
 16 17  2  0
  2 18  1  0
  7 18  2  0
M  END
