SID-ELM-8b394441-9
     RDKit          3D

 21 23  0  0  0  0  0  0  0  0999 V2000
    8.7720    1.5730   21.0460 O   0  0  0  0  0  0  0  0  0  0  0  0
    8.6040    0.4390   21.5070 C   0  0  0  0  0  0  0  0  0  0  0  0
    9.2280    0.1250   22.6790 N   0  0  0  0  0  0  0  0  0  0  0  0
   10.5940    0.3170   22.9130 C   0  0  0  0  0  0  0  0  0  0  0  0
   12.0990    0.0720   23.2580 C   0  0  0  0  0  0  0  0  0  0  0  0
   12.7600   -1.1010   23.6210 C   0  0  0  0  0  0  0  0  0  0  0  0
   12.0800   -2.2600   23.7170 C   0  0  0  0  0  0  0  0  0  0  0  0
   10.7730   -2.1640   23.4420 C   0  0  0  0  0  0  0  0  0  0  0  0
   10.1310   -1.0170   23.0860 C   0  0  0  0  0  0  0  0  0  0  0  0
    7.7980   -0.4820   20.8610 N   0  0  0  0  0  0  0  0  0  0  0  0
    6.8330   -0.0310   19.8630 C   0  0  0  0  0  0  0  0  0  0  0  0
    6.8570   -0.6720   18.4450 C   0  0  0  0  0  0  0  0  0  0  0  0
    7.7880   -1.9210   17.8440 Cl  0  0  0  0  0  0  0  0  0  0  0  0
    6.0400   -0.2490   17.4700 N   0  0  0  0  0  0  0  0  0  0  0  0
    5.1200    0.7800   17.7980 C   0  0  0  0  0  0  0  0  0  0  0  0
    5.0270    1.3770   19.1460 C   0  0  0  0  0  0  0  0  0  0  0  0
    4.0580    2.2970   19.2060 N   0  0  0  0  0  0  0  0  0  0  0  0
    3.8330    2.9360   20.3900 C   0  0  0  0  0  0  0  0  0  0  0  0
    4.6620    2.6310   21.6250 C   0  0  0  0  0  0  0  0  0  0  0  0
    5.7490    1.5590   21.4090 C   0  0  0  0  0  0  0  0  0  0  0  0
    5.8820    0.9630   20.1480 C   0  0  0  0  0  0  0  0  0  0  0  0
  1  2  2  0
  2  3  1  0
  3  4  1  0
  4  5  2  0
  5  6  1  0
  6  7  2  0
  7  8  1  0
  4  9  1  0
  8  9  2  0
  2 10  1  0
 10 11  1  0
 11 12  2  0
 12 13  1  0
 12 14  1  0
 14 15  2  0
 15 16  1  0
 16 17  1  0
 17 18  2  0
 18 19  1  0
 19 20  2  0
 11 21  1  0
 16 21  2  0
 20 21  1  0
M  END
