SID-ELM-1f105489-13
     RDKit          3D

 20 22  0  0  0  0  0  0  0  0999 V2000
   13.3520   -1.7430   23.5820 C   0  0  0  0  0  0  0  0  0  0  0  0
   12.0500   -1.1450   23.7800 N   0  0  0  0  0  0  0  0  0  0  0  0
   11.0280   -1.9680   23.1200 C   0  0  0  0  0  0  0  0  0  0  0  0
    9.7960   -1.3760   22.9470 C   0  0  0  0  0  0  0  0  0  0  0  0
    9.6780   -0.0670   22.6000 N   0  0  0  0  0  0  0  0  0  0  0  0
    8.8840    0.2740   21.5570 C   0  0  0  0  0  0  0  0  0  0  0  0
    8.8860    1.4630   21.1830 O   0  0  0  0  0  0  0  0  0  0  0  0
    8.0950   -0.7320   20.9420 N   0  0  0  0  0  0  0  0  0  0  0  0
    7.0890   -0.2150   20.0150 C   0  0  0  0  0  0  0  0  0  0  0  0
    7.1390   -0.5880   18.6770 C   0  0  0  0  0  0  0  0  0  0  0  0
    7.9720   -1.3880   18.0620 F   0  0  0  0  0  0  0  0  0  0  0  0
    6.1140    0.0520   18.0540 N   0  0  0  0  0  0  0  0  0  0  0  0
    5.4060    0.7970   18.9380 C   0  0  0  0  0  0  0  0  0  0  0  0
    4.3330    1.5420   18.6440 N   0  0  0  0  0  0  0  0  0  0  0  0
    3.7980    2.1790   19.7130 C   0  0  0  0  0  0  0  0  0  0  0  0
    4.2040    2.1640   21.0080 N   0  0  0  0  0  0  0  0  0  0  0  0
    5.2900    1.4160   21.2750 C   0  0  0  0  0  0  0  0  0  0  0  0
    5.9870    0.6460   20.1830 C   0  0  0  0  0  0  0  0  0  0  0  0
   10.6060    0.8430   23.2830 C   0  0  0  0  0  0  0  0  0  0  0  0
   12.0190    0.2700   23.3660 C   0  0  0  0  0  0  0  0  0  0  0  0
  1  2  1  0
  2  3  1  0
  3  4  1  0
  4  5  1  0
  5  6  1  0
  6  7  2  0
  6  8  1  0
  8  9  1  0
  9 10  2  0
 10 11  1  0
 10 12  1  0
 12 13  1  0
 13 14  1  0
 14 15  2  0
 15 16  1  0
 16 17  2  0
  9 18  1  0
 13 18  2  0
 17 18  1  0
  5 19  1  0
  2 20  1  0
 19 20  1  0
M  END
