SID-ELM-1f105489-4
     RDKit          3D

 20 22  0  0  0  0  0  0  0  0999 V2000
   13.3540   -1.6520   23.5700 C   0  0  0  0  0  0  0  0  0  0  0  0
   12.0190   -1.1460   23.7780 N   0  0  0  0  0  0  0  0  0  0  0  0
   11.0580   -2.0150   23.0950 C   0  0  0  0  0  0  0  0  0  0  0  0
    9.8190   -1.4570   22.8980 C   0  0  0  0  0  0  0  0  0  0  0  0
    9.6950   -0.1370   22.6010 N   0  0  0  0  0  0  0  0  0  0  0  0
    8.8940    0.2910   21.5920 C   0  0  0  0  0  0  0  0  0  0  0  0
    8.9350    1.4740   21.2050 O   0  0  0  0  0  0  0  0  0  0  0  0
    8.0360   -0.6770   21.0360 C   0  0  0  0  0  0  0  0  0  0  0  0
    7.1300   -0.2470   20.0520 C   0  0  0  0  0  0  0  0  0  0  0  0
    7.1380   -0.6070   18.6970 C   0  0  0  0  0  0  0  0  0  0  0  0
    7.9660   -1.4180   18.0900 F   0  0  0  0  0  0  0  0  0  0  0  0
    6.1130    0.0390   18.0810 N   0  0  0  0  0  0  0  0  0  0  0  0
    5.4310    0.7820   18.9700 C   0  0  0  0  0  0  0  0  0  0  0  0
    4.3180    1.5810   18.7380 N   0  0  0  0  0  0  0  0  0  0  0  0
    3.6760    2.2940   19.7130 C   0  0  0  0  0  0  0  0  0  0  0  0
    4.1800    2.2090   20.9870 N   0  0  0  0  0  0  0  0  0  0  0  0
    5.3130    1.4220   21.2780 C   0  0  0  0  0  0  0  0  0  0  0  0
    6.0250    0.6260   20.2020 C   0  0  0  0  0  0  0  0  0  0  0  0
   10.5240    0.8200   23.3470 C   0  0  0  0  0  0  0  0  0  0  0  0
   11.9400    0.2650   23.3380 C   0  0  0  0  0  0  0  0  0  0  0  0
  1  2  1  0
  2  3  1  0
  3  4  1  0
  4  5  1  0
  5  6  1  0
  6  7  2  0
  6  8  1  0
  8  9  1  0
  9 10  2  0
 10 11  1  0
 10 12  1  0
 12 13  1  0
 13 14  1  0
 14 15  2  0
 15 16  1  0
 16 17  2  0
  9 18  1  0
 13 18  2  0
 17 18  1  0
  5 19  1  0
  2 20  1  0
 19 20  1  0
M  END
