SID-ELM-b654bfa2-12
     RDKit          3D

 20 22  0  0  0  0  0  0  0  0999 V2000
    9.3970    1.5040   21.5680 O   0  0  0  0  0  0  0  0  0  0  0  0
    8.6950    0.7120   22.2070 C   0  0  0  0  0  0  0  0  0  0  0  0
    9.1240   -0.0880   23.3930 C   0  0  0  0  0  0  0  0  0  0  0  0
   10.3540   -0.7780   23.3920 C   0  0  0  0  0  0  0  0  0  0  0  0
   11.2140   -0.6050   22.3300 C   0  0  0  0  0  0  0  0  0  0  0  0
   12.3180   -1.4650   22.3750 C   0  0  0  0  0  0  0  0  0  0  0  0
   13.2000   -1.1170   23.3800 C   0  0  0  0  0  0  0  0  0  0  0  0
   12.5300   -0.3990   24.5430 C   0  0  0  0  0  0  0  0  0  0  0  0
   11.0500   -0.7310   24.5990 C   0  0  0  0  0  0  0  0  0  0  0  0
    7.3030    0.4580   21.9120 N   0  0  0  0  0  0  0  0  0  0  0  0
    6.8900    0.1380   20.6200 C   0  0  0  0  0  0  0  0  0  0  0  0
    7.4620   -1.1460   20.1210 C   0  0  0  0  0  0  0  0  0  0  0  0
    8.2540   -1.8440   20.9420 F   0  0  0  0  0  0  0  0  0  0  0  0
    7.2710   -1.6480   18.9950 N   0  0  0  0  0  0  0  0  0  0  0  0
    6.5010   -0.8840   18.3170 C   0  0  0  0  0  0  0  0  0  0  0  0
    5.9420    0.3710   18.7330 N   0  0  0  0  0  0  0  0  0  0  0  0
    5.2590    0.7810   17.6310 N   0  0  0  0  0  0  0  0  0  0  0  0
    4.7630    1.9250   18.1610 C   0  0  0  0  0  0  0  0  0  0  0  0
    5.1880    2.0140   19.3720 C   0  0  0  0  0  0  0  0  0  0  0  0
    6.0270    1.1360   20.0590 C   0  0  0  0  0  0  0  0  0  0  0  0
  1  2  2  0
  2  3  1  0
  3  4  1  0
  4  5  1  0
  5  6  1  0
  6  7  1  0
  7  8  1  0
  4  9  1  0
  8  9  1  0
  2 10  1  0
 10 11  1  0
 11 12  2  0
 12 13  1  0
 12 14  1  0
 14 15  2  0
 15 16  1  0
 16 17  1  0
 17 18  2  0
 18 19  1  0
 11 20  1  0
 16 20  1  0
 19 20  2  0
M  END
