SID-ELM-1f105489-2
     RDKit          3D

 19 21  0  0  0  0  0  0  0  0999 V2000
   13.3610   -1.7210   23.5600 C   0  0  0  0  0  0  0  0  0  0  0  0
   12.0410   -1.1730   23.7730 N   0  0  0  0  0  0  0  0  0  0  0  0
   11.0410   -2.0070   23.0990 C   0  0  0  0  0  0  0  0  0  0  0  0
    9.8130   -1.4170   22.9570 C   0  0  0  0  0  0  0  0  0  0  0  0
    9.7030   -0.0930   22.6490 N   0  0  0  0  0  0  0  0  0  0  0  0
    8.9110    0.3320   21.6410 C   0  0  0  0  0  0  0  0  0  0  0  0
    8.9710    1.5100   21.2290 O   0  0  0  0  0  0  0  0  0  0  0  0
    8.0340   -0.6230   21.1100 C   0  0  0  0  0  0  0  0  0  0  0  0
    7.1830   -0.2100   20.0850 C   0  0  0  0  0  0  0  0  0  0  0  0
    7.3350   -0.5070   18.7420 C   0  0  0  0  0  0  0  0  0  0  0  0
    6.3710    0.0490   17.9840 N   0  0  0  0  0  0  0  0  0  0  0  0
    5.5390    0.7240   18.8260 C   0  0  0  0  0  0  0  0  0  0  0  0
    4.4100    1.4440   18.4920 N   0  0  0  0  0  0  0  0  0  0  0  0
    3.7310    2.0230   19.4940 C   0  0  0  0  0  0  0  0  0  0  0  0
    4.2460    1.8580   20.9090 C   0  0  0  0  0  0  0  0  0  0  0  0
    5.3650    1.1540   21.2300 N   0  0  0  0  0  0  0  0  0  0  0  0
    6.0040    0.5850   20.1460 C   0  0  0  0  0  0  0  0  0  0  0  0
   10.6020    0.8390   23.3420 C   0  0  0  0  0  0  0  0  0  0  0  0
   11.9990    0.2430   23.3460 C   0  0  0  0  0  0  0  0  0  0  0  0
  1  2  1  0
  2  3  1  0
  3  4  1  0
  4  5  1  0
  5  6  1  0
  6  7  2  0
  6  8  1  0
  8  9  1  0
  9 10  2  0
 10 11  1  0
 11 12  1  0
 12 13  1  0
 13 14  2  0
 14 15  1  0
 15 16  2  0
  9 17  1  0
 12 17  2  0
 16 17  1  0
  5 18  1  0
  2 19  1  0
 18 19  1  0
M  END
