SID-ELM-8b394441-20
     RDKit          3D

 21 23  0  0  0  0  0  0  0  0999 V2000
    8.8650    0.9620   21.5880 O   0  0  0  0  0  0  0  0  0  0  0  0
    8.7710   -0.2620   21.4750 C   0  0  0  0  0  0  0  0  0  0  0  0
    9.8310   -1.2560   21.9000 C   0  0  0  0  0  0  0  0  0  0  0  0
   10.1430   -1.3010   23.3810 C   0  0  0  0  0  0  0  0  0  0  0  0
   11.4160   -1.7540   23.7080 C   0  0  0  0  0  0  0  0  0  0  0  0
   12.4240   -0.9550   23.1710 C   0  0  0  0  0  0  0  0  0  0  0  0
   12.2890    0.4080   23.4520 C   0  0  0  0  0  0  0  0  0  0  0  0
   11.0230    0.9980   23.4820 C   0  0  0  0  0  0  0  0  0  0  0  0
    9.9160    0.0710   24.0150 C   0  0  0  0  0  0  0  0  0  0  0  0
    7.6720   -0.8890   20.9080 N   0  0  0  0  0  0  0  0  0  0  0  0
    6.8110   -0.3330   19.9730 C   0  0  0  0  0  0  0  0  0  0  0  0
    6.8370   -0.8650   18.5410 C   0  0  0  0  0  0  0  0  0  0  0  0
    7.7430   -2.0970   17.8490 Cl  0  0  0  0  0  0  0  0  0  0  0  0
    6.0030   -0.3310   17.5220 N   0  0  0  0  0  0  0  0  0  0  0  0
    5.1030    0.7360   17.8400 C   0  0  0  0  0  0  0  0  0  0  0  0
    5.0220    1.2590   19.2120 C   0  0  0  0  0  0  0  0  0  0  0  0
    4.1340    2.2430   19.4490 N   0  0  0  0  0  0  0  0  0  0  0  0
    3.9480    2.8080   20.6770 C   0  0  0  0  0  0  0  0  0  0  0  0
    4.7980    2.2920   21.8110 C   0  0  0  0  0  0  0  0  0  0  0  0
    5.7260    1.2780   21.5730 C   0  0  0  0  0  0  0  0  0  0  0  0
    5.9010    0.7030   20.3040 C   0  0  0  0  0  0  0  0  0  0  0  0
  1  2  2  0
  2  3  1  0
  3  4  1  0
  4  5  1  0
  5  6  1  0
  6  7  1  0
  7  8  1  0
  4  9  1  0
  8  9  1  0
  2 10  1  0
 10 11  1  0
 11 12  2  0
 12 13  1  0
 12 14  1  0
 14 15  2  0
 15 16  1  0
 16 17  1  0
 17 18  2  0
 18 19  1  0
 19 20  2  0
 11 21  1  0
 16 21  2  0
 20 21  1  0
M  END
