SID-ELM-8b394441-17
     RDKit          3D

 19 20  0  0  0  0  0  0  0  0999 V2000
    2.3360    2.5130   19.9770 C   0  0  0  0  0  0  0  0  0  0  0  0
    3.6890    2.7790   19.9060 N   0  0  0  0  0  0  0  0  0  0  0  0
    4.6750    1.8150   19.6630 C   0  0  0  0  0  0  0  0  0  0  0  0
    4.9400    1.4420   18.2270 C   0  0  0  0  0  0  0  0  0  0  0  0
    5.9300    0.4220   17.8890 N   0  0  0  0  0  0  0  0  0  0  0  0
    6.4870   -0.0340   19.0500 C   0  0  0  0  0  0  0  0  0  0  0  0
    7.5710   -1.2330   18.6610 Cl  0  0  0  0  0  0  0  0  0  0  0  0
    6.3280    0.2720   20.3820 C   0  0  0  0  0  0  0  0  0  0  0  0
    7.1330   -0.4110   21.2530 N   0  0  0  0  0  0  0  0  0  0  0  0
    8.3490    0.3140   21.7600 C   0  0  0  0  0  0  0  0  0  0  0  0
    8.9370    1.5180   21.2150 O   0  0  0  0  0  0  0  0  0  0  0  0
    8.9170   -0.3020   22.8930 C   0  0  0  0  0  0  0  0  0  0  0  0
   10.4580   -0.3680   23.0740 C   0  0  0  0  0  0  0  0  0  0  0  0
   11.0340   -1.4330   22.1110 C   0  0  0  0  0  0  0  0  0  0  0  0
   12.4740   -1.8320   22.4440 C   0  0  0  0  0  0  0  0  0  0  0  0
   13.2450   -1.0210   23.4940 C   0  0  0  0  0  0  0  0  0  0  0  0
   12.4250   -0.2840   24.5570 C   0  0  0  0  0  0  0  0  0  0  0  0
   10.9330   -0.4650   24.3630 C   0  0  0  0  0  0  0  0  0  0  0  0
    5.3880    1.2190   20.6970 C   0  0  0  0  0  0  0  0  0  0  0  0
  1  2  1  0
  2  3  1  0
  3  4  2  0
  4  5  1  0
  5  6  2  0
  6  7  1  0
  6  8  1  0
  8  9  1  0
  9 10  1  0
 10 11  2  0
 10 12  1  0
 12 13  1  0
 13 14  1  0
 14 15  1  0
 15 16  1  0
 16 17  1  0
 13 18  1  0
 17 18  1  0
  3 19  1  0
  8 19  2  0
M  END
