SID-ELM-2583a2cd-11
     RDKit          3D

 20 22  0  0  0  0  0  0  0  0999 V2000
    9.0340    1.3640   21.2770 O   0  0  0  0  0  0  0  0  0  0  0  0
    8.6120    0.2710   21.6990 C   0  0  0  0  0  0  0  0  0  0  0  0
    8.8950   -0.2430   23.0330 N   0  0  0  0  0  0  0  0  0  0  0  0
   10.0150   -1.1640   23.1870 C   0  0  0  0  0  0  0  0  0  0  0  0
   11.4760   -1.7480   23.3220 C   0  0  0  0  0  0  0  0  0  0  0  0
   12.8010   -1.0140   23.3060 C   0  0  0  0  0  0  0  0  0  0  0  0
   12.7470    0.4200   23.1380 C   0  0  0  0  0  0  0  0  0  0  0  0
   11.5210    0.9650   23.0200 C   0  0  0  0  0  0  0  0  0  0  0  0
   10.3290    0.2430   23.0460 C   0  0  0  0  0  0  0  0  0  0  0  0
    7.8000   -0.5740   20.9680 N   0  0  0  0  0  0  0  0  0  0  0  0
    6.9970   -0.1570   19.9000 C   0  0  0  0  0  0  0  0  0  0  0  0
    7.2560   -0.5030   18.5880 C   0  0  0  0  0  0  0  0  0  0  0  0
    6.4380   -0.0400   17.6020 N   0  0  0  0  0  0  0  0  0  0  0  0
    5.3550    0.7530   17.8070 C   0  0  0  0  0  0  0  0  0  0  0  0
    5.0660    1.1000   19.0640 C   0  0  0  0  0  0  0  0  0  0  0  0
    4.0310    1.8480   19.2500 N   0  0  0  0  0  0  0  0  0  0  0  0
    3.7080    2.2060   20.4840 C   0  0  0  0  0  0  0  0  0  0  0  0
    4.4450    1.8110   21.5810 C   0  0  0  0  0  0  0  0  0  0  0  0
    5.5440    1.0400   21.5080 N   0  0  0  0  0  0  0  0  0  0  0  0
    5.8560    0.6690   20.1490 C   0  0  0  0  0  0  0  0  0  0  0  0
  1  2  2  0
  2  3  1  0
  3  4  1  0
  4  5  2  0
  5  6  1  0
  6  7  2  0
  7  8  1  0
  4  9  1  0
  8  9  2  0
  2 10  1  0
 10 11  1  0
 11 12  2  0
 12 13  1  0
 13 14  2  0
 14 15  1  0
 15 16  1  0
 16 17  2  0
 17 18  1  0
 18 19  2  0
 11 20  1  0
 15 20  2  0
 19 20  1  0
M  END
