SID-ELM-1f105489-10
     RDKit          3D

 19 21  0  0  0  0  0  0  0  0999 V2000
   13.3600   -1.7730   23.5950 C   0  0  0  0  0  0  0  0  0  0  0  0
   12.0670   -1.1640   23.7890 N   0  0  0  0  0  0  0  0  0  0  0  0
   11.0560   -1.9680   23.0920 C   0  0  0  0  0  0  0  0  0  0  0  0
    9.8220   -1.3770   22.9810 C   0  0  0  0  0  0  0  0  0  0  0  0
    9.7010   -0.0670   22.6530 N   0  0  0  0  0  0  0  0  0  0  0  0
    8.9180    0.2760   21.6080 C   0  0  0  0  0  0  0  0  0  0  0  0
    8.9340    1.4590   21.2120 O   0  0  0  0  0  0  0  0  0  0  0  0
    8.1230   -0.7360   21.0170 N   0  0  0  0  0  0  0  0  0  0  0  0
    7.1760   -0.2290   20.0370 C   0  0  0  0  0  0  0  0  0  0  0  0
    7.3830   -0.5450   18.7050 C   0  0  0  0  0  0  0  0  0  0  0  0
    6.3920    0.0560   17.9940 N   0  0  0  0  0  0  0  0  0  0  0  0
    5.5560    0.7340   18.8460 C   0  0  0  0  0  0  0  0  0  0  0  0
    4.4740    1.4380   18.4880 N   0  0  0  0  0  0  0  0  0  0  0  0
    3.8120    2.0070   19.5340 C   0  0  0  0  0  0  0  0  0  0  0  0
    4.1010    1.9590   20.8580 N   0  0  0  0  0  0  0  0  0  0  0  0
    5.1930    1.2540   21.1940 C   0  0  0  0  0  0  0  0  0  0  0  0
    6.0250    0.5640   20.1330 C   0  0  0  0  0  0  0  0  0  0  0  0
   10.6420    0.8320   23.3310 C   0  0  0  0  0  0  0  0  0  0  0  0
   12.0540    0.2530   23.3780 C   0  0  0  0  0  0  0  0  0  0  0  0
  1  2  1  0
  2  3  1  0
  3  4  1  0
  4  5  1  0
  5  6  1  0
  6  7  2  0
  6  8  1  0
  8  9  1  0
  9 10  2  0
 10 11  1  0
 11 12  1  0
 12 13  1  0
 13 14  2  0
 14 15  1  0
 15 16  2  0
  9 17  1  0
 12 17  2  0
 16 17  1  0
  5 18  1  0
  2 19  1  0
 18 19  1  0
M  END
