SID-ELM-2583a2cd-9
     RDKit          3D

 19 21  0  0  0  0  0  0  0  0999 V2000
    9.1690    1.5020   21.2880 O   0  0  0  0  0  0  0  0  0  0  0  0
    8.7380    0.4620   21.7970 C   0  0  0  0  0  0  0  0  0  0  0  0
    9.1610   -0.0040   23.1060 N   0  0  0  0  0  0  0  0  0  0  0  0
   10.5280   -0.5040   23.3110 C   0  0  0  0  0  0  0  0  0  0  0  0
   11.2150   -1.2630   22.1620 C   0  0  0  0  0  0  0  0  0  0  0  0
   12.6230   -1.7680   22.4180 C   0  0  0  0  0  0  0  0  0  0  0  0
   13.1860   -1.4690   23.7730 C   0  0  0  0  0  0  0  0  0  0  0  0
   12.4650   -0.7670   24.7380 C   0  0  0  0  0  0  0  0  0  0  0  0
   11.1640   -0.2880   24.5340 C   0  0  0  0  0  0  0  0  0  0  0  0
    7.7910   -0.3500   21.1790 N   0  0  0  0  0  0  0  0  0  0  0  0
    6.9250    0.0570   20.1560 C   0  0  0  0  0  0  0  0  0  0  0  0
    7.1440   -0.2150   18.8030 C   0  0  0  0  0  0  0  0  0  0  0  0
    6.2530    0.2460   17.8590 N   0  0  0  0  0  0  0  0  0  0  0  0
    5.1220    0.9750   18.1950 C   0  0  0  0  0  0  0  0  0  0  0  0
    4.9110    1.2220   19.5280 C   0  0  0  0  0  0  0  0  0  0  0  0
    3.9340    1.8630   20.0700 N   0  0  0  0  0  0  0  0  0  0  0  0
    4.1590    1.8420   21.3820 C   0  0  0  0  0  0  0  0  0  0  0  0
    5.2930    1.1880   21.7560 N   0  0  0  0  0  0  0  0  0  0  0  0
    5.7730    0.7870   20.5220 C   0  0  0  0  0  0  0  0  0  0  0  0
  1  2  2  0
  2  3  1  0
  3  4  1  0
  4  5  2  0
  5  6  1  0
  6  7  2  0
  7  8  1  0
  4  9  1  0
  8  9  2  0
  2 10  1  0
 10 11  1  0
 11 12  2  0
 12 13  1  0
 13 14  2  0
 14 15  1  0
 15 16  1  0
 16 17  1  0
 17 18  2  0
 11 19  1  0
 15 19  2  0
 18 19  1  0
M  END
