SID-ELM-8b394441-13
     RDKit          3D

 20 22  0  0  0  0  0  0  0  0999 V2000
    9.1000    1.3860   21.3340 O   0  0  0  0  0  0  0  0  0  0  0  0
    8.6020    0.3720   21.8500 C   0  0  0  0  0  0  0  0  0  0  0  0
    9.1620   -0.2140   22.9740 N   0  0  0  0  0  0  0  0  0  0  0  0
   10.4990   -0.6210   23.2010 C   0  0  0  0  0  0  0  0  0  0  0  0
   11.1630   -0.3300   24.5340 C   0  0  0  0  0  0  0  0  0  0  0  0
   12.4740   -0.7390   24.7650 C   0  0  0  0  0  0  0  0  0  0  0  0
   13.1630   -1.4180   23.7640 C   0  0  0  0  0  0  0  0  0  0  0  0
   12.5470   -1.6790   22.5450 C   0  0  0  0  0  0  0  0  0  0  0  0
   11.2480   -1.3020   22.2430 C   0  0  0  0  0  0  0  0  0  0  0  0
    7.4570   -0.2010   21.3540 N   0  0  0  0  0  0  0  0  0  0  0  0
    6.5920    0.4430   20.3810 C   0  0  0  0  0  0  0  0  0  0  0  0
    6.6400   -0.0950   18.9350 C   0  0  0  0  0  0  0  0  0  0  0  0
    7.5750   -1.4070   18.5260 Cl  0  0  0  0  0  0  0  0  0  0  0  0
    5.9230    0.4340   17.8790 N   0  0  0  0  0  0  0  0  0  0  0  0
    5.0310    1.5750   18.1680 C   0  0  0  0  0  0  0  0  0  0  0  0
    4.9530    2.0850   19.5920 C   0  0  0  0  0  0  0  0  0  0  0  0
    4.2230    3.1010   20.1730 N   0  0  0  0  0  0  0  0  0  0  0  0
    4.5160    3.1750   21.5480 C   0  0  0  0  0  0  0  0  0  0  0  0
    5.4400    2.2090   21.8770 N   0  0  0  0  0  0  0  0  0  0  0  0
    5.7880    1.4680   20.7340 C   0  0  0  0  0  0  0  0  0  0  0  0
  1  2  2  0
  2  3  1  0
  3  4  1  0
  4  5  2  0
  5  6  1  0
  6  7  2  0
  7  8  1  0
  4  9  1  0
  8  9  2  0
  2 10  1  0
 10 11  1  0
 11 12  2  0
 12 13  1  0
 12 14  1  0
 14 15  2  0
 15 16  1  0
 16 17  1  0
 17 18  1  0
 18 19  2  0
 11 20  1  0
 16 20  2  0
 19 20  1  0
M  END
