SID-ELM-8b394441-26
     RDKit          3D

 21 23  0  0  0  0  0  0  0  0999 V2000
    9.1120    1.3090   21.3710 O   0  0  0  0  0  0  0  0  0  0  0  0
    8.5320    0.3520   21.9110 C   0  0  0  0  0  0  0  0  0  0  0  0
    8.9640   -0.2780   23.2340 C   0  0  0  0  0  0  0  0  0  0  0  0
   10.3430   -0.9620   23.2820 C   0  0  0  0  0  0  0  0  0  0  0  0
   11.2480   -0.7870   22.2670 C   0  0  0  0  0  0  0  0  0  0  0  0
   12.3630   -1.5870   22.4160 C   0  0  0  0  0  0  0  0  0  0  0  0
   13.1680   -1.0560   23.4020 C   0  0  0  0  0  0  0  0  0  0  0  0
   12.5460   -0.3540   24.4280 C   0  0  0  0  0  0  0  0  0  0  0  0
   11.0350   -0.6200   24.6150 C   0  0  0  0  0  0  0  0  0  0  0  0
    7.3770   -0.2250   21.3760 N   0  0  0  0  0  0  0  0  0  0  0  0
    6.5710    0.3690   20.4220 C   0  0  0  0  0  0  0  0  0  0  0  0
    6.6450   -0.1260   18.9970 C   0  0  0  0  0  0  0  0  0  0  0  0
    7.5890   -1.4050   18.5320 Cl  0  0  0  0  0  0  0  0  0  0  0  0
    5.9130    0.4270   17.8920 N   0  0  0  0  0  0  0  0  0  0  0  0
    5.0090    1.5300   18.2330 C   0  0  0  0  0  0  0  0  0  0  0  0
    4.8830    2.0220   19.6710 C   0  0  0  0  0  0  0  0  0  0  0  0
    4.0050    3.0500   19.9600 N   0  0  0  0  0  0  0  0  0  0  0  0
    3.8460    3.5540   21.2610 C   0  0  0  0  0  0  0  0  0  0  0  0
    4.6880    2.9100   22.3470 C   0  0  0  0  0  0  0  0  0  0  0  0
    5.5410    1.8920   22.0010 N   0  0  0  0  0  0  0  0  0  0  0  0
    5.6650    1.4220   20.6730 C   0  0  0  0  0  0  0  0  0  0  0  0
  1  2  2  0
  2  3  1  0
  3  4  1  0
  4  5  1  0
  5  6  1  0
  6  7  1  0
  7  8  1  0
  4  9  1  0
  8  9  1  0
  2 10  1  0
 10 11  1  0
 11 12  2  0
 12 13  1  0
 12 14  1  0
 14 15  2  0
 15 16  1  0
 16 17  1  0
 17 18  2  0
 18 19  1  0
 19 20  2  0
 11 21  1  0
 16 21  2  0
 20 21  1  0
M  END
