SID-ELM-8b394441-6
     RDKit          3D

 19 20  0  0  0  0  0  0  0  0999 V2000
    4.0440    4.0560   20.5520 C   0  0  0  0  0  0  0  0  0  0  0  0
    3.8130    2.8320   19.9640 N   0  0  0  0  0  0  0  0  0  0  0  0
    4.7700    1.8470   19.7070 C   0  0  0  0  0  0  0  0  0  0  0  0
    4.9650    1.4240   18.2670 C   0  0  0  0  0  0  0  0  0  0  0  0
    5.9260    0.3770   17.9140 N   0  0  0  0  0  0  0  0  0  0  0  0
    6.5330   -0.0560   19.0620 C   0  0  0  0  0  0  0  0  0  0  0  0
    7.5820   -1.2750   18.6390 Cl  0  0  0  0  0  0  0  0  0  0  0  0
    6.4390    0.2930   20.3900 C   0  0  0  0  0  0  0  0  0  0  0  0
    7.2780   -0.3780   21.2500 N   0  0  0  0  0  0  0  0  0  0  0  0
    8.4300    0.4030   21.8330 C   0  0  0  0  0  0  0  0  0  0  0  0
    9.1080    1.5190   21.2190 O   0  0  0  0  0  0  0  0  0  0  0  0
    8.8430   -0.0490   23.1910 N   0  0  0  0  0  0  0  0  0  0  0  0
   10.2720   -0.4950   23.3480 C   0  0  0  0  0  0  0  0  0  0  0  0
   10.8960   -1.2140   22.1490 C   0  0  0  0  0  0  0  0  0  0  0  0
   12.3480   -1.7040   22.2660 C   0  0  0  0  0  0  0  0  0  0  0  0
   13.1380   -1.4750   23.5470 C   0  0  0  0  0  0  0  0  0  0  0  0
   12.4380   -0.7340   24.7150 C   0  0  0  0  0  0  0  0  0  0  0  0
   10.9720   -0.2640   24.5440 C   0  0  0  0  0  0  0  0  0  0  0  0
    5.5240    1.2650   20.7270 C   0  0  0  0  0  0  0  0  0  0  0  0
  1  2  1  0
  2  3  1  0
  3  4  2  0
  4  5  1  0
  5  6  2  0
  6  7  1  0
  6  8  1  0
  8  9  1  0
  9 10  1  0
 10 11  2  0
 10 12  1  0
 12 13  1  0
 13 14  2  0
 14 15  1  0
 15 16  2  0
 16 17  1  0
 13 18  1  0
 17 18  2  0
  3 19  1  0
  8 19  2  0
M  END
