SID-ELM-1f105489-11
     RDKit          3D

 19 21  0  0  0  0  0  0  0  0999 V2000
   13.3580   -1.8050   23.6470 C   0  0  0  0  0  0  0  0  0  0  0  0
   12.0600   -1.1890   23.7710 N   0  0  0  0  0  0  0  0  0  0  0  0
   11.0530   -1.9870   23.0570 C   0  0  0  0  0  0  0  0  0  0  0  0
    9.8230   -1.3920   22.9450 C   0  0  0  0  0  0  0  0  0  0  0  0
    9.7050   -0.0700   22.6330 N   0  0  0  0  0  0  0  0  0  0  0  0
    8.9010    0.2880   21.6110 C   0  0  0  0  0  0  0  0  0  0  0  0
    8.9240    1.4720   21.2170 O   0  0  0  0  0  0  0  0  0  0  0  0
    8.0770   -0.7100   21.0430 N   0  0  0  0  0  0  0  0  0  0  0  0
    7.1410   -0.2070   20.0510 C   0  0  0  0  0  0  0  0  0  0  0  0
    7.3720   -0.5280   18.7270 C   0  0  0  0  0  0  0  0  0  0  0  0
    6.3940    0.0640   17.9960 N   0  0  0  0  0  0  0  0  0  0  0  0
    5.5350    0.7440   18.8240 C   0  0  0  0  0  0  0  0  0  0  0  0
    4.4620    1.4320   18.4090 N   0  0  0  0  0  0  0  0  0  0  0  0
    3.8070    1.9830   19.4410 C   0  0  0  0  0  0  0  0  0  0  0  0
    4.2720    1.8210   20.8750 C   0  0  0  0  0  0  0  0  0  0  0  0
    5.3650    1.1240   21.2390 N   0  0  0  0  0  0  0  0  0  0  0  0
    5.9830    0.5840   20.1440 C   0  0  0  0  0  0  0  0  0  0  0  0
   10.6620    0.8160   23.3090 C   0  0  0  0  0  0  0  0  0  0  0  0
   12.0680    0.2250   23.3480 C   0  0  0  0  0  0  0  0  0  0  0  0
  1  2  1  0
  2  3  1  0
  3  4  1  0
  4  5  1  0
  5  6  1  0
  6  7  2  0
  6  8  1  0
  8  9  1  0
  9 10  2  0
 10 11  1  0
 11 12  1  0
 12 13  1  0
 13 14  2  0
 14 15  1  0
 15 16  2  0
  9 17  1  0
 12 17  2  0
 16 17  1  0
  5 18  1  0
  2 19  1  0
 18 19  1  0
M  END
