SID-ELM-8b394441-7
     RDKit          3D

 20 21  0  0  0  0  0  0  0  0999 V2000
    2.3240    1.8600   20.6280 C   0  0  0  0  0  0  0  0  0  0  0  0
    3.4650    2.4750   20.1540 N   0  0  0  0  0  0  0  0  0  0  0  0
    3.4810    3.6100   19.3500 C   0  0  0  0  0  0  0  0  0  0  0  0
    4.5500    1.5830   19.8000 C   0  0  0  0  0  0  0  0  0  0  0  0
    4.7080    1.1940   18.4980 C   0  0  0  0  0  0  0  0  0  0  0  0
    5.7480    0.2840   18.1500 N   0  0  0  0  0  0  0  0  0  0  0  0
    6.5600   -0.1720   19.1290 C   0  0  0  0  0  0  0  0  0  0  0  0
    7.6450   -1.2730   18.5540 Cl  0  0  0  0  0  0  0  0  0  0  0  0
    6.4870    0.2210   20.4610 C   0  0  0  0  0  0  0  0  0  0  0  0
    7.3860   -0.2550   21.3470 N   0  0  0  0  0  0  0  0  0  0  0  0
    8.5170    0.4490   21.8340 C   0  0  0  0  0  0  0  0  0  0  0  0
    9.0490    1.4340   21.2840 O   0  0  0  0  0  0  0  0  0  0  0  0
    8.9370   -0.1170   23.0360 N   0  0  0  0  0  0  0  0  0  0  0  0
   10.3510   -0.5890   23.1780 C   0  0  0  0  0  0  0  0  0  0  0  0
   11.0040   -0.2870   24.5490 C   0  0  0  0  0  0  0  0  0  0  0  0
   12.4270   -0.7390   24.7890 C   0  0  0  0  0  0  0  0  0  0  0  0
   13.1890   -1.4770   23.7010 C   0  0  0  0  0  0  0  0  0  0  0  0
   12.5440   -1.7700   22.3460 C   0  0  0  0  0  0  0  0  0  0  0  0
   11.0920   -1.2690   22.1980 C   0  0  0  0  0  0  0  0  0  0  0  0
    5.4490    1.1010   20.7660 C   0  0  0  0  0  0  0  0  0  0  0  0
  1  2  1  0
  2  3  1  0
  2  4  1  0
  4  5  2  0
  5  6  1  0
  6  7  2  0
  7  8  1  0
  7  9  1  0
  9 10  1  0
 10 11  1  0
 11 12  2  0
 11 13  1  0
 13 14  1  0
 14 15  2  0
 15 16  1  0
 16 17  2  0
 17 18  1  0
 14 19  1  0
 18 19  2  0
  4 20  1  0
  9 20  2  0
M  END
