SIM-DEM-2843056b-1
     RDKit          3D

 25 27  0  0  0  0  0  0  0  0999 V2000
    2.6920    1.2020   21.3980 O   0  0  0  0  0  0  0  0  0  0  0  0
    3.5570    0.4780   21.8790 C   0  0  0  0  0  0  0  0  0  0  0  0
    3.5840    0.1210   23.3510 C   0  0  0  0  0  0  0  0  0  0  0  0
    2.3790    0.7420   24.1400 C   0  0  0  0  0  0  0  0  0  0  0  0
    1.6120   -0.3080   24.8440 N   0  0  0  0  0  0  0  0  0  0  0  0
    2.4620   -1.2060   25.6350 C   0  0  0  0  0  0  0  0  0  0  0  0
    3.2420   -0.2330   26.5230 C   0  0  0  0  0  0  0  0  0  0  0  0
    2.3790    0.4950   27.4060 O   0  0  0  0  0  0  0  0  0  0  0  0
    1.2400    1.0490   26.7410 C   0  0  0  0  0  0  0  0  0  0  0  0
    0.5270    0.1830   25.7110 C   0  0  0  0  0  0  0  0  0  0  0  0
    4.6170   -0.1320   21.2040 N   0  0  0  0  0  0  0  0  0  0  0  0
    5.1420    0.1630   19.8590 C   0  0  0  0  0  0  0  0  0  0  0  0
    4.8800    1.1980   18.9190 C   0  0  0  0  0  0  0  0  0  0  0  0
    4.1060    2.3130   18.7900 C   0  0  0  0  0  0  0  0  0  0  0  0
    5.0270    1.8950   17.7130 C   0  0  0  0  0  0  0  0  0  0  0  0
    5.9490    0.6130   17.8060 N   0  0  0  0  0  0  0  0  0  0  0  0
    5.9980   -0.2910   18.9350 C   0  0  0  0  0  0  0  0  0  0  0  0
    6.7950   -1.4100   19.0170 C   0  0  0  0  0  0  0  0  0  0  0  0
    6.9780   -1.8580   20.2820 N   0  0  0  0  0  0  0  0  0  0  0  0
    6.2910   -2.9570   20.7150 C   0  0  0  0  0  0  0  0  0  0  0  0
    5.4050   -3.4660   20.0250 O   0  0  0  0  0  0  0  0  0  0  0  0
    6.6750   -3.4740   21.9670 N   0  0  0  0  0  0  0  0  0  0  0  0
    5.8730   -4.5980   22.4630 C   0  0  0  0  0  0  0  0  0  0  0  0
    6.1870   -5.6900   21.9560 C   0  0  0  0  0  0  0  0  0  0  0  0
    6.4470   -5.5570   23.4040 C   0  0  0  0  0  0  0  0  0  0  0  0
  1  2  2  0
  2  3  1  0
  3  4  1  0
  4  5  1  0
  5  6  1  0
  6  7  1  0
  7  8  1  0
  8  9  1  0
  5 10  1  0
  9 10  1  0
  2 11  1  0
 11 12  1  0
 12 13  2  0
 13 14  1  0
 14 15  2  0
 15 16  1  0
 12 17  1  0
 16 17  2  0
 17 18  1  0
 18 19  1  0
 19 20  1  0
 20 21  2  0
 20 22  1  0
 22 23  1  0
 23 24  1  0
 23 25  1  0
 24 25  1  0
M  END
