SIM-DEM-2843056b-5
     RDKit          3D

 26 28  0  0  0  0  0  0  0  0999 V2000
    1.2650    0.9020   28.5540 C   0  0  0  0  0  0  0  0  0  0  0  0
    0.9500    0.3330   27.2460 N   0  0  0  0  0  0  0  0  0  0  0  0
    0.0330    1.1700   26.4800 C   0  0  0  0  0  0  0  0  0  0  0  0
    0.7990    2.0100   25.4080 C   0  0  0  0  0  0  0  0  0  0  0  0
    1.4700    0.9910   24.4700 C   0  0  0  0  0  0  0  0  0  0  0  0
    2.7890    1.4720   24.1260 O   0  0  0  0  0  0  0  0  0  0  0  0
    3.5260    0.5610   23.3020 C   0  0  0  0  0  0  0  0  0  0  0  0
    3.5450    0.7650   21.7650 C   0  0  0  0  0  0  0  0  0  0  0  0
    2.8800    1.6070   21.1630 O   0  0  0  0  0  0  0  0  0  0  0  0
    4.4960   -0.2420   21.2050 N   0  0  0  0  0  0  0  0  0  0  0  0
    5.0660    0.0680   19.8730 C   0  0  0  0  0  0  0  0  0  0  0  0
    4.8200    1.1520   18.9560 C   0  0  0  0  0  0  0  0  0  0  0  0
    4.0610    2.3030   18.8110 C   0  0  0  0  0  0  0  0  0  0  0  0
    5.0940    1.8040   17.7000 C   0  0  0  0  0  0  0  0  0  0  0  0
    5.9350    0.5950   17.7840 N   0  0  0  0  0  0  0  0  0  0  0  0
    5.9350   -0.3800   18.9730 C   0  0  0  0  0  0  0  0  0  0  0  0
    6.7180   -1.5160   19.0580 C   0  0  0  0  0  0  0  0  0  0  0  0
    6.9840   -2.0560   20.3060 N   0  0  0  0  0  0  0  0  0  0  0  0
    6.1660   -3.0930   20.5420 C   0  0  0  0  0  0  0  0  0  0  0  0
    5.5320   -3.7230   19.6760 O   0  0  0  0  0  0  0  0  0  0  0  0
    6.1190   -3.4090   21.8830 N   0  0  0  0  0  0  0  0  0  0  0  0
    6.4310   -4.7480   22.0120 C   0  0  0  0  0  0  0  0  0  0  0  0
    5.6680   -5.7040   22.2260 C   0  0  0  0  0  0  0  0  0  0  0  0
    6.4540   -5.2880   23.3790 C   0  0  0  0  0  0  0  0  0  0  0  0
    1.5350   -0.3580   25.2890 C   0  0  0  0  0  0  0  0  0  0  0  0
    2.1430    0.1070   26.4520 C   0  0  0  0  0  0  0  0  0  0  0  0
  1  2  1  0
  2  3  1  0
  3  4  1  0
  4  5  1  0
  5  6  1  0
  6  7  1  0
  7  8  1  0
  8  9  2  0
  8 10  1  0
 10 11  1  0
 11 12  2  0
 12 13  1  0
 13 14  2  0
 14 15  1  0
 11 16  1  0
 15 16  2  0
 16 17  1  0
 17 18  1  0
 18 19  1  0
 19 20  2  0
 19 21  1  0
 21 22  1  0
 22 23  1  0
 22 24  1  0
 23 24  1  0
  5 25  1  0
  2 26  1  0
 25 26  1  0
M  END
