SIM-SYN-a98e6a07-6
     RDKit          3D

 26 29  0  0  0  0  0  0  0  0999 V2000
    5.3500   -4.8110   19.7100 O   0  0  0  0  0  0  0  0  0  0  0  0
    5.7990   -3.9620   20.4770 C   0  0  0  0  0  0  0  0  0  0  0  0
    6.4940   -2.7600   20.0580 N   0  0  0  0  0  0  0  0  0  0  0  0
    5.7890   -1.5810   19.5130 C   0  0  0  0  0  0  0  0  0  0  0  0
    6.4160   -1.0790   18.2970 C   0  0  0  0  0  0  0  0  0  0  0  0
    6.4500   -0.0580   19.3140 C   0  0  0  0  0  0  0  0  0  0  0  0
    5.6150   -4.1550   21.9810 C   0  0  1  0  0  0  0  0  0  0  0  0
    5.4820   -5.6550   22.2780 C   0  0  0  0  0  0  0  0  0  0  0  0
    4.7800   -5.9550   23.4360 C   0  0  0  0  0  0  0  0  0  0  0  0
    5.6450   -5.2800   24.5590 C   0  0  0  0  0  0  0  0  0  0  0  0
    5.4110   -3.9350   24.8310 N   0  0  0  0  0  0  0  0  0  0  0  0
    4.1290   -3.4000   25.2490 C   0  0  0  0  0  0  0  0  0  0  0  0
    4.2510   -2.1170   26.0920 C   0  0  0  0  0  0  0  0  0  0  0  0
    2.8790   -1.4970   26.5020 C   0  0  0  0  0  0  0  0  0  0  0  0
    1.6840   -2.2340   26.0270 C   0  0  0  0  0  0  0  0  0  0  0  0
    1.6450   -3.3940   25.2850 C   0  0  0  0  0  0  0  0  0  0  0  0
    2.8910   -3.9870   24.8900 C   0  0  0  0  0  0  0  0  0  0  0  0
    6.2330   -2.9960   24.0310 C   0  0  0  0  0  0  0  0  0  0  0  0
    6.5690   -1.8850   24.4200 O   0  0  0  0  0  0  0  0  0  0  0  0
    6.6110   -3.5350   22.7230 N   0  0  0  0  0  0  0  0  0  0  0  0
    7.6980   -4.3670   23.0230 C   0  0  0  0  0  0  0  0  0  0  0  0
    8.9750   -3.6860   23.4360 C   0  0  0  0  0  0  0  0  0  0  0  0
   10.0150   -4.4870   23.7500 C   0  0  0  0  0  0  0  0  0  0  0  0
    9.7780   -5.8620   23.6550 C   0  0  0  0  0  0  0  0  0  0  0  0
    8.6980   -6.5230   23.2940 N   0  0  0  0  0  0  0  0  0  0  0  0
    7.6670   -5.7520   22.9790 C   0  0  0  0  0  0  0  0  0  0  0  0
  1  2  2  0
  2  3  1  0
  3  4  1  0
  4  5  1  0
  4  6  1  0
  5  6  1  0
  7  2  1  6
  7  8  1  0
  8  9  1  0
  9 10  1  0
 10 11  1  0
 11 12  1  0
 12 13  2  0
 13 14  1  0
 14 15  2  0
 15 16  1  0
 12 17  1  0
 16 17  2  0
 11 18  1  0
 18 19  2  0
  7 20  1  0
 18 20  1  0
 20 21  1  0
 21 22  2  0
 22 23  1  0
 23 24  2  0
 24 25  1  0
 21 26  1  0
 25 26  2  0
M  END
