SIM-SYN-3099a863-3
     RDKit          3D

 27 29  0  0  0  0  0  0  0  0999 V2000
    0.8230   -0.9180   25.8580 C   0  0  0  0  0  0  0  0  0  0  0  0
    1.9080   -1.9550   25.8510 C   0  0  0  0  0  0  0  0  0  0  0  0
    3.2830   -1.6100   26.4100 C   0  0  0  0  0  0  0  0  0  0  0  0
    4.3640   -2.6720   26.3990 C   0  0  0  0  0  0  0  0  0  0  0  0
    4.0630   -4.0220   25.8460 C   0  0  0  0  0  0  0  0  0  0  0  0
    5.3180   -5.2770   25.8350 S   0  0  0  0  0  0  0  0  0  0  0  0
    4.6710   -6.5490   26.0240 O   0  0  0  0  0  0  0  0  0  0  0  0
    6.3950   -4.8190   26.6830 O   0  0  0  0  0  0  0  0  0  0  0  0
    5.9110   -5.1960   24.2840 N   0  0  0  0  0  0  0  0  0  0  0  0
    5.3680   -5.9490   23.3000 C   0  0  0  0  0  0  0  0  0  0  0  0
    6.1320   -6.1130   22.1460 C   0  0  0  0  0  0  0  0  0  0  0  0
    6.7000   -4.9190   21.7870 N   0  0  0  0  0  0  0  0  0  0  0  0
    6.1930   -4.2600   20.7120 C   0  0  0  0  0  0  0  0  0  0  0  0
    5.4050   -4.8210   19.9430 O   0  0  0  0  0  0  0  0  0  0  0  0
    6.5890   -2.9800   20.4990 N   0  0  0  0  0  0  0  0  0  0  0  0
    7.7760   -2.6180   21.0330 C   0  0  0  0  0  0  0  0  0  0  0  0
    5.8860   -2.1420   19.6300 C   0  0  0  0  0  0  0  0  0  0  0  0
    5.9260   -0.6400   19.9520 C   0  0  0  0  0  0  0  0  0  0  0  0
    7.1550   -0.0450   20.2580 C   0  0  0  0  0  0  0  0  0  0  0  0
    7.1390    1.3200   20.5520 C   0  0  0  0  0  0  0  0  0  0  0  0
    5.9000    1.9600   20.5100 C   0  0  0  0  0  0  0  0  0  0  0  0
    4.7030    1.4170   20.2180 N   0  0  0  0  0  0  0  0  0  0  0  0
    4.7450    0.0940   19.9390 C   0  0  0  0  0  0  0  0  0  0  0  0
    7.3660   -4.2260   22.8030 C   0  0  0  0  0  0  0  0  0  0  0  0
    6.4760   -3.9390   23.8030 C   0  0  0  0  0  0  0  0  0  0  0  0
    2.7750   -4.2880   25.3380 C   0  0  0  0  0  0  0  0  0  0  0  0
    1.6820   -3.2330   25.3430 C   0  0  0  0  0  0  0  0  0  0  0  0
  1  2  1  0
  2  3  2  0
  3  4  1  0
  4  5  2  0
  6  5  1  0
  6  7  2  0
  6  8  2  0
  6  9  1  0
  9 10  1  0
 10 11  1  0
 11 12  1  0
 12 13  1  0
 13 14  2  0
 13 15  1  0
 15 16  1  0
 15 17  1  0
 17 18  1  0
 18 19  2  0
 19 20  1  0
 20 21  2  0
 21 22  1  0
 18 23  1  0
 22 23  2  0
 12 24  1  0
  9 25  1  0
 24 25  1  0
  5 26  1  0
  2 27  1  0
 26 27  2  0
M  END
