SIM-SYN-f15aaa3a-2-vinylsulfonamide
     RDKit          3D

 25 27  0  0  0  0  0  0  0  0999 V2000
    7.4990   -2.9230   18.2150 C   0  0  0  0  0  0  0  0  0  0  0  0
    6.5140   -2.2710   19.1520 C   0  0  0  0  0  0  0  0  0  0  0  0
    5.7850   -3.3940   20.2930 S   0  0  0  0  0  0  0  0  0  0  0  0
    4.6980   -2.8610   20.9840 O   0  0  0  0  0  0  0  0  0  0  0  0
    5.6540   -4.7370   19.7930 O   0  0  0  0  0  0  0  0  0  0  0  0
    6.9470   -3.1570   21.4000 N   0  0  0  0  0  0  0  0  0  0  0  0
    7.4330   -1.7280   21.3610 C   0  0  0  0  0  0  0  0  0  0  0  0
    8.6320   -1.7630   22.2980 C   0  0  0  0  0  0  0  0  0  0  0  0
    8.0780   -2.2470   23.5640 N   0  0  0  0  0  0  0  0  0  0  0  0
    8.8790   -2.0530   24.7190 C   0  0  2  0  0  0  0  0  0  0  0  0
   10.0700   -1.2290   24.1650 C   0  0  0  0  0  0  0  0  0  0  0  0
   11.1250   -2.1250   23.5560 C   0  0  0  0  0  0  0  0  0  0  0  0
   12.2830   -1.3180   22.9810 C   0  0  0  0  0  0  0  0  0  0  0  0
   12.3400    0.1790   23.0300 C   0  0  0  0  0  0  0  0  0  0  0  0
   11.2880    0.8850   23.6210 C   0  0  0  0  0  0  0  0  0  0  0  0
   11.3070    2.2720   23.6560 C   0  0  0  0  0  0  0  0  0  0  0  0
   10.1930    0.1750   24.1730 C   0  0  0  0  0  0  0  0  0  0  0  0
    8.9510   -3.3330   25.3350 C   0  0  0  0  0  0  0  0  0  0  0  0
    9.6730   -4.5310   25.0780 C   0  0  0  0  0  0  0  0  0  0  0  0
    9.3710   -5.5330   25.9940 C   0  0  0  0  0  0  0  0  0  0  0  0
    8.4490   -5.1450   26.9290 C   0  0  0  0  0  0  0  0  0  0  0  0
    7.7770   -6.0220   28.2260 Cl  0  0  0  0  0  0  0  0  0  0  0  0
    7.8920   -3.5490   26.7660 S   0  0  0  0  0  0  0  0  0  0  0  0
    7.7130   -3.5520   23.4870 C   0  0  0  0  0  0  0  0  0  0  0  0
    6.6000   -3.6930   22.6880 C   0  0  0  0  0  0  0  0  0  0  0  0
  1  2  1  0
  3  2  1  0
  3  4  2  0
  3  5  2  0
  3  6  1  0
  6  7  1  0
  7  8  1  0
  8  9  1  0
  9 10  1  0
 10 11  1  6
 11 12  2  0
 12 13  1  0
 13 14  2  0
 14 15  1  0
 15 16  1  0
 11 17  1  0
 15 17  2  0
 10 18  1  0
 18 19  2  0
 19 20  1  0
 20 21  2  0
 21 22  1  0
 18 23  1  0
 21 23  1  0
  9 24  1  0
  6 25  1  0
 24 25  1  0
M  END
