SIM-SYN-3099a863-1
     RDKit          3D

 28 30  0  0  0  0  0  0  0  0999 V2000
    0.7520   -0.9150   25.8910 C   0  0  0  0  0  0  0  0  0  0  0  0
    1.8410   -1.9500   25.9190 C   0  0  0  0  0  0  0  0  0  0  0  0
    3.2020   -1.5940   26.5010 C   0  0  0  0  0  0  0  0  0  0  0  0
    4.2870   -2.6510   26.5270 C   0  0  0  0  0  0  0  0  0  0  0  0
    3.9990   -4.0070   25.9850 C   0  0  0  0  0  0  0  0  0  0  0  0
    5.2620   -5.2510   26.0250 S   0  0  0  0  0  0  0  0  0  0  0  0
    6.2960   -4.7980   26.9200 O   0  0  0  0  0  0  0  0  0  0  0  0
    4.6220   -6.5360   26.1560 O   0  0  0  0  0  0  0  0  0  0  0  0
    5.8520   -5.1970   24.4810 N   0  0  0  0  0  0  0  0  0  0  0  0
    6.5480   -4.1190   24.1010 C   0  0  0  0  0  0  0  0  0  0  0  0
    7.3740   -4.3770   23.0430 C   0  0  0  0  0  0  0  0  0  0  0  0
    6.5290   -4.6630   21.9880 C   0  0  0  0  0  0  0  0  0  0  0  0
    5.7050   -3.4750   21.7050 N   0  0  0  0  0  0  0  0  0  0  0  0
    5.8840   -3.0430   20.3020 C   0  0  0  0  0  0  0  0  0  0  0  0
    5.3370   -3.6890   19.4030 O   0  0  0  0  0  0  0  0  0  0  0  0
    6.6530   -1.9740   20.1080 N   0  0  0  0  0  0  0  0  0  0  0  0
    7.7360   -1.5880   20.9060 C   0  0  0  0  0  0  0  0  0  0  0  0
    6.7630   -1.4710   18.8370 C   0  0  0  0  0  0  0  0  0  0  0  0
    6.0920   -0.2890   18.6140 C   0  0  0  0  0  0  0  0  0  0  0  0
    5.0660    0.1530   19.3810 C   0  0  0  0  0  0  0  0  0  0  0  0
    4.6300    1.3300   18.9070 C   0  0  0  0  0  0  0  0  0  0  0  0
    3.5800    2.0940   19.4390 C   0  0  0  0  0  0  0  0  0  0  0  0
    5.3540    1.6900   17.8210 O   0  0  0  0  0  0  0  0  0  0  0  0
    6.2930    0.6460   17.6350 N   0  0  0  0  0  0  0  0  0  0  0  0
    5.7550   -5.8310   22.1470 C   0  0  0  0  0  0  0  0  0  0  0  0
    5.1070   -5.8310   23.3750 C   0  0  0  0  0  0  0  0  0  0  0  0
    2.7240   -4.2850   25.4520 C   0  0  0  0  0  0  0  0  0  0  0  0
    1.6280   -3.2360   25.4200 C   0  0  0  0  0  0  0  0  0  0  0  0
  1  2  1  0
  2  3  2  0
  3  4  1  0
  4  5  2  0
  6  5  1  0
  6  7  2  0
  6  8  2  0
  6  9  1  0
  9 10  1  0
 10 11  1  0
 11 12  1  0
 12 13  1  0
 13 14  1  0
 14 15  2  0
 14 16  1  0
 16 17  1  0
 16 18  1  0
 18 19  1  0
 19 20  1  0
 20 21  2  0
 21 22  1  0
 21 23  1  0
 19 24  2  0
 23 24  1  0
 12 25  1  0
  9 26  1  0
 25 26  1  0
  5 27  1  0
  2 28  1  0
 27 28  2  0
M  END
