SIM-SYN-f15aaa3a-2-nitrile
     RDKit          3D

 22 24  0  0  0  0  0  0  0  0999 V2000
    6.5970   -3.7400   19.9010 C   0  0  0  0  0  0  0  0  0  0  0  0
    5.7750   -4.7100   19.9660 N   0  0  0  0  0  0  0  0  0  0  0  0
    6.5590   -2.7970   20.8930 N   0  0  0  0  0  0  0  0  0  0  0  0
    7.2700   -1.4980   20.9320 C   0  0  0  0  0  0  0  0  0  0  0  0
    8.5700   -1.7870   21.7640 C   0  0  0  0  0  0  0  0  0  0  0  0
    8.2760   -2.5260   23.0380 N   0  0  0  0  0  0  0  0  0  0  0  0
    9.5510   -2.9080   23.6540 C   0  0  1  0  0  0  0  0  0  0  0  0
   10.3940   -1.6090   23.6240 C   0  0  0  0  0  0  0  0  0  0  0  0
   11.7290   -2.0770   23.0590 C   0  0  0  0  0  0  0  0  0  0  0  0
   12.7990   -0.9650   22.8660 C   0  0  0  0  0  0  0  0  0  0  0  0
   12.3660    0.4330   23.2580 C   0  0  0  0  0  0  0  0  0  0  0  0
   10.9960    0.7520   23.8030 C   0  0  0  0  0  0  0  0  0  0  0  0
   10.6250    2.0610   24.1240 C   0  0  0  0  0  0  0  0  0  0  0  0
   10.0760   -0.2790   23.9710 C   0  0  0  0  0  0  0  0  0  0  0  0
    9.2620   -3.8530   24.8590 C   0  0  0  0  0  0  0  0  0  0  0  0
    9.8610   -5.0860   25.1270 C   0  0  0  0  0  0  0  0  0  0  0  0
    9.3970   -5.7390   26.2420 C   0  0  0  0  0  0  0  0  0  0  0  0
    8.4000   -5.0900   26.9470 C   0  0  0  0  0  0  0  0  0  0  0  0
    7.5770   -5.5900   28.3590 Cl  0  0  0  0  0  0  0  0  0  0  0  0
    8.0300   -3.5180   26.1320 S   0  0  0  0  0  0  0  0  0  0  0  0
    7.3620   -3.6340   22.8560 C   0  0  0  0  0  0  0  0  0  0  0  0
    6.1310   -3.1690   22.1110 C   0  0  0  0  0  0  0  0  0  0  0  0
  1  2  2  3
  1  3  1  0
  3  4  1  0
  4  5  1  0
  5  6  1  0
  6  7  1  0
  7  8  1  1
  8  9  2  0
  9 10  1  0
 10 11  2  0
 11 12  1  0
 12 13  1  0
  8 14  1  0
 12 14  2  0
  7 15  1  0
 15 16  2  0
 16 17  1  0
 17 18  2  0
 18 19  1  0
 15 20  1  0
 18 20  1  0
  6 21  1  0
  3 22  1  0
 21 22  1  0
M  END
