SIM-DEM-5935bd74-8
     RDKit          3D

 19 20  0  0  0  0  0  0  0  0999 V2000
   10.1080   -5.0660   25.8080 C   0  0  0  0  0  0  0  0  0  0  0  0
   11.3280   -4.1760   25.7210 C   0  0  0  0  0  0  0  0  0  0  0  0
   12.2610   -4.3070   26.4940 O   0  0  0  0  0  0  0  0  0  0  0  0
   11.3040   -3.2560   24.6970 N   0  0  0  0  0  0  0  0  0  0  0  0
   12.4610   -2.6690   24.1180 C   0  0  0  0  0  0  0  0  0  0  0  0
   12.7270   -1.3260   24.3280 C   0  0  0  0  0  0  0  0  0  0  0  0
   12.6130   -0.3820   23.3690 N   0  0  0  0  0  0  0  0  0  0  0  0
   11.9080   -0.7480   22.2890 C   0  0  0  0  0  0  0  0  0  0  0  0
   10.7610    0.0650   22.6310 C   0  0  0  0  0  0  0  0  0  0  0  0
   10.7630    0.8560   23.8020 C   0  0  2  0  0  0  0  0  0  0  0  0
   10.0380    2.2370   23.9920 C   0  0  0  0  0  0  0  0  0  0  0  0
   10.8710    3.4640   23.4690 C   0  0  0  0  0  0  0  0  0  0  0  0
   10.2490    5.1160   23.6410 S   0  0  0  0  0  0  0  0  0  0  0  0
    8.8820    5.2180   22.6600 N   0  0  0  0  0  0  0  0  0  0  0  0
   11.1850    6.0690   23.0790 O   0  0  0  0  0  0  0  0  0  0  0  0
    9.7120    5.3630   24.9610 O   0  0  0  0  0  0  0  0  0  0  0  0
   12.2040    3.1890   22.8300 C   0  0  0  0  0  0  0  0  0  0  0  0
   12.8310    1.9470   23.0300 C   0  0  0  0  0  0  0  0  0  0  0  0
   12.2730    0.9470   23.8120 C   0  0  2  0  0  0  0  0  0  0  0  0
  1  2  1  0
  2  3  2  0
  2  4  1  0
  4  5  1  0
  5  6  1  0
  6  7  1  0
  7  8  1  0
  8  9  2  0
 10  9  1  6
 10 11  1  0
 11 12  2  0
 12 13  1  0
 13 14  1  0
 13 15  2  0
 13 16  2  0
 12 17  1  0
 17 18  2  0
  7 19  1  0
 10 19  1  0
 19 18  1  6
M  END
