SIM-SYN-3099a863-2
     RDKit          3D

 27 29  0  0  0  0  0  0  0  0999 V2000
    0.7850   -0.8430   25.8860 C   0  0  0  0  0  0  0  0  0  0  0  0
    1.8580   -1.8960   25.8720 C   0  0  0  0  0  0  0  0  0  0  0  0
    3.2580   -1.6240   26.4150 C   0  0  0  0  0  0  0  0  0  0  0  0
    4.3280   -2.7040   26.4000 C   0  0  0  0  0  0  0  0  0  0  0  0
    4.0400   -4.0620   25.8540 C   0  0  0  0  0  0  0  0  0  0  0  0
    5.3050   -5.3040   25.8570 S   0  0  0  0  0  0  0  0  0  0  0  0
    4.6690   -6.5890   26.0020 O   0  0  0  0  0  0  0  0  0  0  0  0
    6.3420   -4.8470   26.7490 O   0  0  0  0  0  0  0  0  0  0  0  0
    5.9360   -5.1740   24.3240 N   0  0  0  0  0  0  0  0  0  0  0  0
    5.3440   -5.8520   23.3080 C   0  0  0  0  0  0  0  0  0  0  0  0
    6.0720   -6.0430   22.1220 C   0  0  0  0  0  0  0  0  0  0  0  0
    6.7110   -4.8820   21.7400 N   0  0  0  0  0  0  0  0  0  0  0  0
    6.1570   -4.1020   20.7810 C   0  0  0  0  0  0  0  0  0  0  0  0
    5.3760   -4.5710   19.9420 O   0  0  0  0  0  0  0  0  0  0  0  0
    6.5180   -2.8010   20.7790 N   0  0  0  0  0  0  0  0  0  0  0  0
    7.3980   -2.3960   19.8310 C   0  0  0  0  0  0  0  0  0  0  0  0
    5.7870   -1.8690   21.5030 C   0  0  0  0  0  0  0  0  0  0  0  0
    5.7030   -0.5080   20.8220 C   0  0  0  0  0  0  0  0  0  0  0  0
    5.4490   -0.4860   19.4720 C   0  0  0  0  0  0  0  0  0  0  0  0
    5.4320    0.8100   19.0670 C   0  0  0  0  0  0  0  0  0  0  0  0
    5.2160    1.2790   17.7810 C   0  0  0  0  0  0  0  0  0  0  0  0
    5.6800    1.6200   20.2120 O   0  0  0  0  0  0  0  0  0  0  0  0
    5.8480    0.7580   21.3180 N   0  0  0  0  0  0  0  0  0  0  0  0
    7.3620   -4.1330   22.8480 C   0  0  0  0  0  0  0  0  0  0  0  0
    6.5240   -3.8930   23.9080 C   0  0  0  0  0  0  0  0  0  0  0  0
    2.7590   -4.3490   25.3380 C   0  0  0  0  0  0  0  0  0  0  0  0
    1.6470   -3.3050   25.3290 C   0  0  0  0  0  0  0  0  0  0  0  0
  1  2  1  0
  2  3  2  0
  3  4  1  0
  4  5  2  0
  6  5  1  0
  6  7  2  0
  6  8  2  0
  6  9  1  0
  9 10  1  0
 10 11  1  0
 11 12  1  0
 12 13  1  0
 13 14  2  0
 13 15  1  0
 15 16  1  0
 15 17  1  0
 17 18  1  0
 18 19  1  0
 19 20  2  0
 20 21  1  0
 20 22  1  0
 18 23  2  0
 22 23  1  0
 12 24  1  0
  9 25  1  0
 24 25  1  0
  5 26  1  0
  2 27  1  0
 26 27  2  0
M  END
