STE-UNK-a3cce3f2-1
     RDKit          3D

 31 35  0  0  0  0  0  0  0  0999 V2000
    9.2060   -3.2980   25.6500 C   0  0  0  0  0  0  0  0  0  0  0  0
    9.5100   -1.8530   25.2630 C   0  0  0  0  0  0  0  0  0  0  0  0
    8.8100   -1.4590   23.9980 C   0  0  0  0  0  0  0  0  0  0  0  0
    8.3130   -0.1950   23.7570 C   0  0  0  0  0  0  0  0  0  0  0  0
    8.4050    0.7880   24.7220 C   0  0  0  0  0  0  0  0  0  0  0  0
    7.3630    0.6810   25.6280 C   0  0  0  0  0  0  0  0  0  0  0  0
    6.8580   -0.5690   25.9750 C   0  0  0  0  0  0  0  0  0  0  0  0
    5.8090   -0.6860   26.8800 C   0  0  0  0  0  0  0  0  0  0  0  0
    5.3120   -1.9390   27.2270 C   0  0  0  0  0  0  0  0  0  0  0  0
    5.2820    0.4860   27.4220 C   0  0  0  0  0  0  0  0  0  0  0  0
    5.8080    1.7280   27.0580 C   0  0  0  0  0  0  0  0  0  0  0  0
    5.2840    2.8980   27.6010 C   0  0  0  0  0  0  0  0  0  0  0  0
    5.8740    4.2540   27.1880 C   0  0  0  0  0  0  0  0  0  0  0  0
    6.8810    4.3180   26.3140 N   0  0  0  0  0  0  0  0  0  0  0  0
    7.3840    3.1460   25.7870 N   0  0  0  0  0  0  0  0  0  0  0  0
    6.8740    1.8300   26.1390 C   0  0  0  0  0  0  0  0  0  0  0  0
    7.6760    0.2020   22.6040 N   0  0  0  0  0  0  0  0  0  0  0  0
    7.4330   -0.6980   21.4860 C   0  0  0  0  0  0  0  0  0  0  0  0
    6.6910   -0.0900   20.3100 C   0  0  0  0  0  0  0  0  0  0  0  0
    7.1150   -0.3140   19.0270 C   0  0  0  0  0  0  0  0  0  0  0  0
    6.5180    0.2010   17.9220 N   0  0  0  0  0  0  0  0  0  0  0  0
    5.4340    0.9710   18.1160 C   0  0  0  0  0  0  0  0  0  0  0  0
    4.9230    1.2500   19.3760 C   0  0  0  0  0  0  0  0  0  0  0  0
    5.5570    0.7150   20.4900 C   0  0  0  0  0  0  0  0  0  0  0  0
    5.0730    0.9770   21.7750 C   0  0  0  0  0  0  0  0  0  0  0  0
    7.9090   -2.0160   21.6980 C   0  0  0  0  0  0  0  0  0  0  0  0
    7.8790   -3.1300   20.9570 N   0  0  0  0  0  0  0  0  0  0  0  0
    8.4790   -4.0630   21.7180 N   0  0  0  0  0  0  0  0  0  0  0  0
    8.9130   -3.6450   22.9250 C   0  0  0  0  0  0  0  0  0  0  0  0
    9.5790   -4.5510   23.8850 C   0  0  0  0  0  0  0  0  0  0  0  0
    8.5730   -2.3310   22.9520 C   0  0  0  0  0  0  0  0  0  0  0  0
  1  2  3  0
  2  3  1  0
  3  4  2  0
  4  5  1  0
  5  6  1  0
  6  7  2  0
  7  8  1  0
  8  9  1  0
  8 10  2  0
 10 11  1  0
 11 12  1  0
 12 13  2  0
 13 14  1  0
 14 15  2  0
  6 16  1  0
 11 16  2  0
 15 16  1  0
  4 17  1  0
 17 18  2  0
 18 19  1  0
 19 20  2  0
 20 21  1  0
 21 22  2  0
 22 23  1  0
 19 24  1  0
 23 24  2  0
 24 25  1  0
 18 26  1  0
 26 27  2  0
 27 28  1  0
 28 29  1  0
 29 30  1  0
  3 31  1  0
 26 31  1  0
 29 31  2  0
M  END
