STE-UNK-13e151dd-1-nitrile
     RDKit          3D

 21 22  0  0  0  0  0  0  0  0999 V2000
    6.6680   -3.5950   19.6990 C   0  0  0  0  0  0  0  0  0  0  0  0
    6.3150   -3.1090   18.5680 N   0  0  0  0  0  0  0  0  0  0  0  0
    6.7260   -2.7910   20.8190 N   0  0  0  0  0  0  0  0  0  0  0  0
    7.5050   -1.5560   20.8720 C   0  0  0  0  0  0  0  0  0  0  0  0
    8.7310   -1.7270   21.7810 C   0  0  0  0  0  0  0  0  0  0  0  0
    8.3320   -2.2210   23.1130 N   0  0  0  0  0  0  0  0  0  0  0  0
    9.5040   -2.4800   23.9560 C   0  0  0  0  0  0  0  0  0  0  0  0
   10.5100   -1.5770   23.6210 C   0  0  0  0  0  0  0  0  0  0  0  0
   11.8060   -1.8240   22.9810 C   0  0  0  0  0  0  0  0  0  0  0  0
   12.7470   -0.8100   22.6840 C   0  0  0  0  0  0  0  0  0  0  0  0
   12.5130    0.5390   22.9690 C   0  0  0  0  0  0  0  0  0  0  0  0
   11.2430    0.9160   23.6020 C   0  0  0  0  0  0  0  0  0  0  0  0
   10.9540    2.3160   23.8790 C   0  0  0  0  0  0  0  0  0  0  0  0
   10.2090   -0.1190   23.9630 C   0  0  0  0  0  0  0  0  0  0  0  0
    8.9550    0.1580   24.6000 C   0  0  0  0  0  0  0  0  0  0  0  0
    8.9540   -0.1350   25.9680 C   0  0  0  0  0  0  0  0  0  0  0  0
   10.0150   -0.3630   26.5290 O   0  0  0  0  0  0  0  0  0  0  0  0
    7.8190   -0.1840   26.7060 N   0  0  0  0  0  0  0  0  0  0  0  0
    7.9850   -0.6020   27.9860 C   0  0  0  0  0  0  0  0  0  0  0  0
    7.4950   -3.4340   23.0370 C   0  0  0  0  0  0  0  0  0  0  0  0
    6.3330   -3.1770   22.0680 C   0  0  0  0  0  0  0  0  0  0  0  0
  1  2  2  3
  1  3  1  0
  3  4  1  0
  4  5  1  0
  5  6  1  0
  6  7  1  0
  7  8  1  0
  8  9  2  0
  9 10  1  0
 10 11  2  0
 11 12  1  0
 12 13  1  0
  8 14  1  0
 12 14  2  0
 14 15  1  0
 15 16  1  0
 16 17  2  0
 16 18  1  0
 18 19  1  0
  6 20  1  0
  3 21  1  0
 20 21  1  0
M  END
