STE-UNK-13e151dd-1-acrylamide
     RDKit          3D

 23 24  0  0  0  0  0  0  0  0999 V2000
    7.9100   -3.2680   19.0870 C   0  0  0  0  0  0  0  0  0  0  0  0
    6.7040   -2.4340   18.8270 C   0  0  0  0  0  0  0  0  0  0  0  0
    5.7680   -2.7650   19.9290 C   0  0  0  0  0  0  0  0  0  0  0  0
    4.8490   -3.5210   19.6540 O   0  0  0  0  0  0  0  0  0  0  0  0
    6.1550   -2.2240   21.1410 N   0  0  0  0  0  0  0  0  0  0  0  0
    6.0990   -2.9350   22.3680 C   0  0  0  0  0  0  0  0  0  0  0  0
    7.2790   -3.2810   23.0460 C   0  0  0  0  0  0  0  0  0  0  0  0
    8.2260   -2.1430   23.1320 N   0  0  0  0  0  0  0  0  0  0  0  0
    9.4730   -2.4200   23.8760 C   0  0  0  0  0  0  0  0  0  0  0  0
   10.4510   -1.4690   23.6480 C   0  0  0  0  0  0  0  0  0  0  0  0
   11.7800   -1.9270   23.0930 C   0  0  0  0  0  0  0  0  0  0  0  0
   12.8020   -0.8350   22.8580 C   0  0  0  0  0  0  0  0  0  0  0  0
   12.5570    0.6060   23.1340 C   0  0  0  0  0  0  0  0  0  0  0  0
   11.2090    1.0480   23.6880 C   0  0  0  0  0  0  0  0  0  0  0  0
   10.6580    2.2910   24.0340 C   0  0  0  0  0  0  0  0  0  0  0  0
   10.1890   -0.0860   23.9320 C   0  0  0  0  0  0  0  0  0  0  0  0
    8.8490    0.2780   24.4980 C   0  0  0  0  0  0  0  0  0  0  0  0
    8.8300    0.0220   26.0120 C   0  0  0  0  0  0  0  0  0  0  0  0
    9.8560   -0.2220   26.6350 O   0  0  0  0  0  0  0  0  0  0  0  0
    7.5950    0.0650   26.6300 N   0  0  0  0  0  0  0  0  0  0  0  0
    7.4910   -0.3830   27.9990 C   0  0  0  0  0  0  0  0  0  0  0  0
    8.4850   -1.5870   21.8020 C   0  0  0  0  0  0  0  0  0  0  0  0
    7.1820   -1.1630   21.1760 C   0  0  0  0  0  0  0  0  0  0  0  0
  1  2  1  0
  2  3  1  0
  3  4  2  0
  3  5  1  0
  5  6  1  0
  6  7  1  0
  7  8  1  0
  8  9  1  0
  9 10  1  0
 10 11  2  0
 11 12  1  0
 12 13  2  0
 13 14  1  0
 14 15  1  0
 10 16  1  0
 14 16  2  0
 16 17  1  0
 17 18  1  0
 18 19  2  0
 18 20  1  0
 20 21  1  0
  8 22  1  0
  5 23  1  0
 22 23  1  0
M  END
