STE-LAU-c06d08a8-1
     RDKit          3D

 23 25  0  0  0  0  0  0  0  0999 V2000
    9.2510   -2.2520   25.6930 N   0  0  0  0  0  0  0  0  0  0  0  0
    9.4280   -1.0970   24.8160 C   0  0  1  0  0  0  0  0  0  0  0  0
   10.8090   -1.0550   24.2160 C   0  0  0  0  0  0  0  0  0  0  0  0
   11.2170   -1.2200   22.8840 C   0  0  0  0  0  0  0  0  0  0  0  0
   12.8810   -1.1740   22.3850 S   0  0  0  0  0  0  0  0  0  0  0  0
   13.0090   -1.7420   21.0570 O   0  0  0  0  0  0  0  0  0  0  0  0
   13.4000    0.1390   22.6830 O   0  0  0  0  0  0  0  0  0  0  0  0
   13.6130   -2.2170   23.4430 N   0  0  0  0  0  0  0  0  0  0  0  0
   12.9640   -2.8940   24.4250 C   0  0  0  0  0  0  0  0  0  0  0  0
   11.6560   -3.2500   24.6010 C   0  0  0  0  0  0  0  0  0  0  0  0
   11.5440   -3.9270   25.7620 N   0  0  0  0  0  0  0  0  0  0  0  0
   12.8190   -3.9590   26.2560 C   0  0  0  0  0  0  0  0  0  0  0  0
   13.6840   -3.3500   25.4880 N   0  0  0  0  0  0  0  0  0  0  0  0
    8.3690   -1.1340   23.6970 C   0  0  0  0  0  0  0  0  0  0  0  0
    7.8250   -2.5490   23.4060 C   0  0  0  0  0  0  0  0  0  0  0  0
    8.4130   -3.3220   22.4000 C   0  0  0  0  0  0  0  0  0  0  0  0
    7.8800   -4.6510   22.0950 C   0  0  0  0  0  0  0  0  0  0  0  0
    6.8130   -5.1030   22.8000 C   0  0  0  0  0  0  0  0  0  0  0  0
    6.1340   -6.2650   22.6750 C   0  0  0  0  0  0  0  0  0  0  0  0
    5.1250   -6.3390   23.5990 C   0  0  0  0  0  0  0  0  0  0  0  0
    5.1940   -5.1650   24.3180 N   0  0  0  0  0  0  0  0  0  0  0  0
    6.2380   -4.3660   23.8140 C   0  0  0  0  0  0  0  0  0  0  0  0
    6.7230   -3.0730   24.1490 C   0  0  0  0  0  0  0  0  0  0  0  0
  2  1  1  1
  2  3  1  0
  3  4  2  3
  5  4  1  0
  5  6  2  0
  5  7  2  0
  5  8  1  0
  8  9  1  0
  9 10  2  0
 10 11  1  0
 11 12  1  0
  9 13  1  0
 12 13  2  0
  2 14  1  0
 14 15  1  0
 15 16  2  0
 16 17  1  0
 17 18  2  0
 18 19  1  0
 19 20  2  0
 20 21  1  0
 18 22  1  0
 21 22  1  0
 15 23  1  0
 22 23  2  0
M  END
