STU-CHA-0f79177c-1-chloroacetamide
     RDKit          3D

 24 26  0  0  0  0  0  0  0  0999 V2000
    7.1190   -2.9450   18.7040 C   0  0  0  0  0  0  0  0  0  0  0  0
    6.1850   -3.2150   19.8480 C   0  0  0  0  0  0  0  0  0  0  0  0
    5.3610   -4.1360   19.7390 O   0  0  0  0  0  0  0  0  0  0  0  0
    6.3170   -2.4210   20.9800 N   0  0  0  0  0  0  0  0  0  0  0  0
    7.2100   -1.2550   20.9990 C   0  0  0  0  0  0  0  0  0  0  0  0
    8.4590   -1.5090   21.8390 C   0  0  0  0  0  0  0  0  0  0  0  0
    8.1170   -2.1360   23.1360 N   0  0  0  0  0  0  0  0  0  0  0  0
    9.2930   -2.2790   24.0140 C   0  0  0  0  0  0  0  0  0  0  0  0
   10.4810   -1.3670   23.6830 C   0  0  0  0  0  0  0  0  0  0  0  0
   11.7160   -1.8350   23.1860 C   0  0  0  0  0  0  0  0  0  0  0  0
   12.9040   -0.8190   22.8710 C   0  0  0  0  0  0  0  0  0  0  0  0
   12.6440    0.5100   23.1130 C   0  0  0  0  0  0  0  0  0  0  0  0
   11.2970    0.9040   23.6390 C   0  0  0  0  0  0  0  0  0  0  0  0
   10.9710    2.3000   23.9090 N   0  0  0  0  0  0  0  0  0  0  0  0
    9.6220    2.1880   24.3790 C   0  0  0  0  0  0  0  0  0  0  0  0
    8.7060    3.3050   24.8290 C   0  0  0  0  0  0  0  0  0  0  0  0
    7.9160    3.1720   26.3490 S   0  0  0  0  0  0  0  0  0  0  0  0
    8.2590    4.6030   27.1630 N   0  0  0  0  0  0  0  0  0  0  0  0
    6.4910    3.2300   26.1100 O   0  0  0  0  0  0  0  0  0  0  0  0
    8.5240    2.0890   27.0770 O   0  0  0  0  0  0  0  0  0  0  0  0
    9.2170    0.7800   24.3730 N   0  0  0  0  0  0  0  0  0  0  0  0
   10.2850    0.0030   23.9030 C   0  0  0  0  0  0  0  0  0  0  0  0
    7.4850   -3.2670   22.8970 C   0  0  0  0  0  0  0  0  0  0  0  0
    6.2520   -3.1280   22.2760 C   0  0  0  0  0  0  0  0  0  0  0  0
  1  2  1  0
  2  3  2  0
  2  4  1  0
  4  5  1  0
  5  6  1  0
  6  7  1  0
  7  8  1  0
  8  9  1  0
  9 10  2  0
 10 11  1  0
 11 12  2  0
 12 13  1  0
 13 14  1  0
 14 15  2  0
 15 16  1  0
 16 17  1  0
 17 18  1  0
 17 19  2  0
 17 20  2  0
 15 21  1  0
  9 22  1  0
 13 22  2  0
 21 22  1  0
  7 23  1  0
  4 24  1  0
 23 24  1  0
M  END
