STU-CHA-6cae54d3-1-vinylsulfonamide
     RDKit          3D

 29 31  0  0  0  0  0  0  0  0999 V2000
    7.9720   -3.3800   19.1870 C   0  0  0  0  0  0  0  0  0  0  0  0
    6.8570   -2.5320   18.6370 C   0  0  0  0  0  0  0  0  0  0  0  0
    5.5500   -2.5910   19.7650 S   0  0  0  0  0  0  0  0  0  0  0  0
    4.9210   -3.8670   19.5730 O   0  0  0  0  0  0  0  0  0  0  0  0
    4.8000   -1.4110   19.5910 O   0  0  0  0  0  0  0  0  0  0  0  0
    6.4090   -2.4190   21.2120 N   0  0  0  0  0  0  0  0  0  0  0  0
    6.2710   -3.3280   22.3540 C   0  0  0  0  0  0  0  0  0  0  0  0
    7.4420   -3.4130   23.1240 C   0  0  0  0  0  0  0  0  0  0  0  0
    8.0640   -2.2210   23.2630 N   0  0  0  0  0  0  0  0  0  0  0  0
    9.1500   -2.1910   24.2310 C   0  0  0  0  0  0  0  0  0  0  0  0
   10.2310   -1.3230   23.7800 C   0  0  0  0  0  0  0  0  0  0  0  0
   11.1840   -1.8260   22.7960 C   0  0  0  0  0  0  0  0  0  0  0  0
   12.2560   -1.1290   22.3120 C   0  0  0  0  0  0  0  0  0  0  0  0
   13.2430   -1.8720   21.1950 Cl  0  0  0  0  0  0  0  0  0  0  0  0
   12.4690    0.1730   22.7820 C   0  0  0  0  0  0  0  0  0  0  0  0
   11.5610    0.8180   23.7810 C   0  0  0  0  0  0  0  0  0  0  0  0
   10.3870   -0.0210   24.2780 C   0  0  0  0  0  0  0  0  0  0  0  0
    9.4810    0.6630   25.2970 C   0  0  0  0  0  0  0  0  0  0  0  0
    8.1520    0.6060   25.1340 N   0  0  0  0  0  0  0  0  0  0  0  0
    7.5280    1.5310   24.1480 C   0  0  0  0  0  0  0  0  0  0  0  0
    8.1620    2.4500   23.6270 O   0  0  0  0  0  0  0  0  0  0  0  0
    6.1100    1.2700   23.8500 N   0  0  0  0  0  0  0  0  0  0  0  0
    5.3070    1.0560   25.0730 C   0  0  0  0  0  0  0  0  0  0  0  0
    3.9730    0.4400   24.6750 C   0  0  0  0  0  0  0  0  0  0  0  0
    3.4490    1.1200   23.7950 O   0  0  0  0  0  0  0  0  0  0  0  0
    4.1900    1.1370   22.5690 C   0  0  0  0  0  0  0  0  0  0  0  0
    5.3840    1.8520   22.7280 C   0  0  0  0  0  0  0  0  0  0  0  0
    8.4570   -1.7110   22.0250 C   0  0  0  0  0  0  0  0  0  0  0  0
    7.4270   -1.3610   21.1950 C   0  0  0  0  0  0  0  0  0  0  0  0
  1  2  1  0
  3  2  1  0
  3  4  2  0
  3  5  2  0
  3  6  1  0
  6  7  1  0
  7  8  1  0
  8  9  1  0
  9 10  1  0
 10 11  1  0
 11 12  2  0
 12 13  1  0
 13 14  1  0
 13 15  2  0
 15 16  1  0
 11 17  1  0
 16 17  2  0
 17 18  1  0
 18 19  1  0
 19 20  1  0
 20 21  2  0
 20 22  1  0
 22 23  1  0
 23 24  1  0
 24 25  1  0
 25 26  1  0
 22 27  1  0
 26 27  1  0
  9 28  1  0
  6 29  1  0
 28 29  1  0
M  END
