STU-CHA-5350f95a-1-nitrile
     RDKit          3D

 27 29  0  0  0  0  0  0  0  0999 V2000
    6.5810   -3.7920   19.9650 C   0  0  0  0  0  0  0  0  0  0  0  0
    5.7460   -4.7590   19.9630 N   0  0  0  0  0  0  0  0  0  0  0  0
    6.5380   -2.8750   20.9830 N   0  0  0  0  0  0  0  0  0  0  0  0
    6.1800   -3.3630   22.3160 C   0  0  0  0  0  0  0  0  0  0  0  0
    7.4310   -3.4770   23.1960 C   0  0  0  0  0  0  0  0  0  0  0  0
    8.1810   -2.2220   23.2340 N   0  0  0  0  0  0  0  0  0  0  0  0
    9.2230   -2.1480   24.2470 C   0  0  0  0  0  0  0  0  0  0  0  0
   10.3320   -1.2420   23.8220 C   0  0  0  0  0  0  0  0  0  0  0  0
   11.2210   -1.7670   22.9090 C   0  0  0  0  0  0  0  0  0  0  0  0
   12.2820   -1.0410   22.4360 C   0  0  0  0  0  0  0  0  0  0  0  0
   13.2780   -1.8080   21.3050 Cl  0  0  0  0  0  0  0  0  0  0  0  0
   12.5110    0.2600   22.8660 C   0  0  0  0  0  0  0  0  0  0  0  0
   11.6310    0.8220   23.7820 C   0  0  0  0  0  0  0  0  0  0  0  0
   10.5380    0.0760   24.2600 C   0  0  0  0  0  0  0  0  0  0  0  0
    9.6570    0.6560   25.1710 C   0  0  0  0  0  0  0  0  0  0  0  0
    8.2440    0.5390   25.0120 N   0  0  0  0  0  0  0  0  0  0  0  0
    7.5260    1.4450   24.1260 C   0  0  0  0  0  0  0  0  0  0  0  0
    8.1240    2.3870   23.6050 O   0  0  0  0  0  0  0  0  0  0  0  0
    6.1890    1.1790   23.9310 N   0  0  0  0  0  0  0  0  0  0  0  0
    5.5280    1.8690   22.8170 C   0  0  0  0  0  0  0  0  0  0  0  0
    4.1900    1.1980   22.4390 C   0  0  0  0  0  0  0  0  0  0  0  0
    3.3470    0.9960   23.5940 N   0  0  0  0  0  0  0  0  0  0  0  0
    3.8710    0.5490   24.7800 C   0  0  0  0  0  0  0  0  0  0  0  0
    3.1860   -0.1310   25.5430 O   0  0  0  0  0  0  0  0  0  0  0  0
    5.3240    0.9440   25.1030 C   0  0  0  0  0  0  0  0  0  0  0  0
    8.5190   -1.6750   21.8980 C   0  0  0  0  0  0  0  0  0  0  0  0
    7.3010   -1.6010   20.9950 C   0  0  0  0  0  0  0  0  0  0  0  0
  1  2  2  3
  1  3  1  0
  3  4  1  0
  4  5  1  0
  5  6  1  0
  6  7  1  0
  7  8  1  0
  8  9  2  0
  9 10  1  0
 10 11  1  0
 10 12  2  0
 12 13  1  0
  8 14  1  0
 13 14  2  0
 14 15  1  0
 15 16  1  0
 16 17  1  0
 17 18  2  0
 17 19  1  0
 19 20  1  0
 20 21  1  0
 21 22  1  0
 22 23  1  0
 23 24  2  0
 19 25  1  0
 23 25  1  0
  6 26  1  0
  3 27  1  0
 26 27  1  0
M  END
