STU-CHA-07310c75-1-acrylamide
     RDKit          3D

 24 26  0  0  0  0  0  0  0  0999 V2000
    8.0170   -3.4350   19.6500 C   0  0  0  0  0  0  0  0  0  0  0  0
    6.9120   -2.6730   18.9960 C   0  0  0  0  0  0  0  0  0  0  0  0
    5.8960   -2.9940   20.0060 C   0  0  0  0  0  0  0  0  0  0  0  0
    5.0630   -3.8870   19.7770 O   0  0  0  0  0  0  0  0  0  0  0  0
    6.0500   -2.2760   21.1900 N   0  0  0  0  0  0  0  0  0  0  0  0
    7.0260   -1.1440   21.1320 C   0  0  0  0  0  0  0  0  0  0  0  0
    8.3010   -1.3100   21.9680 C   0  0  0  0  0  0  0  0  0  0  0  0
    7.9950   -2.0490   23.1970 N   0  0  0  0  0  0  0  0  0  0  0  0
    9.2180   -2.3660   23.9740 C   0  0  1  0  0  0  0  0  0  0  0  0
   10.2230   -1.4080   23.7880 C   0  0  0  0  0  0  0  0  0  0  0  0
   11.6720   -1.9160   23.4590 C   0  0  0  0  0  0  0  0  0  0  0  0
   12.7140   -1.0280   23.2470 C   0  0  0  0  0  0  0  0  0  0  0  0
   12.5430    0.4920   23.3190 C   0  0  0  0  0  0  0  0  0  0  0  0
   11.0840    0.9890   23.6590 C   0  0  0  0  0  0  0  0  0  0  0  0
   10.9000    2.4730   23.7270 C   0  0  0  0  0  0  0  0  0  0  0  0
   10.0430    0.1000   23.8710 C   0  0  0  0  0  0  0  0  0  0  0  0
    8.9230   -2.7620   25.3000 C   0  0  0  0  0  0  0  0  0  0  0  0
    8.9600   -4.0290   25.1010 C   0  0  2  0  0  0  0  0  0  0  0  0
    9.8900   -4.7970   26.0430 C   0  0  0  0  0  0  0  0  0  0  0  0
    9.4920   -6.0760   26.6280 N   0  0  0  0  0  0  0  0  0  0  0  0
   11.1610   -4.1820   26.2480 O   0  0  0  0  0  0  0  0  0  0  0  0
    9.4700   -3.7830   23.7480 C   0  0  0  0  0  0  0  0  0  0  0  0
    7.0130   -3.1370   23.1780 C   0  0  0  0  0  0  0  0  0  0  0  0
    5.8010   -2.8190   22.5310 C   0  0  0  0  0  0  0  0  0  0  0  0
  1  2  1  0
  2  3  1  0
  3  4  2  0
  3  5  1  0
  5  6  1  0
  6  7  1  0
  7  8  1  0
  8  9  1  0
  9 10  1  1
 10 11  2  0
 11 12  1  0
 12 13  2  0
 13 14  1  0
 14 15  1  0
 10 16  1  0
 14 16  2  0
  9 17  1  0
 17 18  1  0
 18 19  1  1
 19 20  1  0
 19 21  2  0
  9 22  1  0
 18 22  1  0
  8 23  1  0
  5 24  1  0
 23 24  1  0
M  END
