STU-CHA-464c0256-1-vinylsulfonamide
     RDKit          3D

 25 26  0  0  0  0  0  0  0  0999 V2000
    7.6110   -4.0860   20.5410 C   0  0  0  0  0  0  0  0  0  0  0  0
    6.2610   -3.4200   20.4250 C   0  0  0  0  0  0  0  0  0  0  0  0
    5.8600   -3.3270   22.1280 S   0  0  0  0  0  0  0  0  0  0  0  0
    4.4540   -3.6440   22.2720 O   0  0  0  0  0  0  0  0  0  0  0  0
    6.8980   -4.1430   22.7540 O   0  0  0  0  0  0  0  0  0  0  0  0
    6.1550   -1.7360   22.5440 N   0  0  0  0  0  0  0  0  0  0  0  0
    5.7560   -1.2610   23.8700 C   0  0  0  0  0  0  0  0  0  0  0  0
    6.8990   -1.1780   24.8790 C   0  0  0  0  0  0  0  0  0  0  0  0
    8.1690   -0.6800   24.2260 N   0  0  0  0  0  0  0  0  0  0  0  0
    9.4840   -0.9780   24.5650 C   0  0  0  0  0  0  0  0  0  0  0  0
   10.5620   -0.0650   24.0080 C   0  0  0  0  0  0  0  0  0  0  0  0
   10.1900    1.4080   24.0150 C   0  0  0  0  0  0  0  0  0  0  0  0
   11.1990    2.3800   23.4900 C   0  0  0  0  0  0  0  0  0  0  0  0
   12.5250    1.8480   22.9850 C   0  0  0  0  0  0  0  0  0  0  0  0
   12.8550    0.4050   22.9900 N   0  0  0  0  0  0  0  0  0  0  0  0
   11.8200   -0.5070   23.5200 C   0  0  0  0  0  0  0  0  0  0  0  0
   12.1410   -1.8840   23.5250 N   0  0  0  0  0  0  0  0  0  0  0  0
   13.2000   -2.4610   22.6820 C   0  0  0  0  0  0  0  0  0  0  0  0
   12.6820   -2.7410   21.4320 C   0  0  0  0  0  0  0  0  0  0  0  0
   13.4240   -3.9200   20.3840 S   0  0  0  0  0  0  0  0  0  0  0  0
   14.4310   -5.1610   20.8260 N   0  0  0  0  0  0  0  0  0  0  0  0
   14.5150   -3.2730   19.8540 O   0  0  0  0  0  0  0  0  0  0  0  0
   12.4470   -4.4730   19.4910 O   0  0  0  0  0  0  0  0  0  0  0  0
    7.9350   -0.1130   22.8950 C   0  0  0  0  0  0  0  0  0  0  0  0
    7.4990   -1.2060   22.1260 C   0  0  0  0  0  0  0  0  0  0  0  0
  1  2  1  0
  3  2  1  0
  3  4  2  0
  3  5  2  0
  3  6  1  0
  6  7  1  0
  7  8  1  0
  8  9  1  0
  9 10  1  0
 10 11  1  0
 11 12  2  0
 12 13  1  0
 13 14  2  0
 14 15  1  0
 11 16  1  0
 15 16  2  0
 16 17  1  0
 17 18  1  0
 18 19  1  0
 19 20  1  0
 20 21  1  0
 20 22  2  0
 20 23  2  0
  9 24  1  0
  6 25  1  0
 24 25  1  0
M  END
