STU-CHA-128b80be-2-acrylamide
     RDKit          3D

 29 31  0  0  0  0  0  0  0  0999 V2000
    7.8340   -3.1920   19.1030 C   0  0  0  0  0  0  0  0  0  0  0  0
    6.6310   -2.3740   18.7710 C   0  0  0  0  0  0  0  0  0  0  0  0
    5.6500   -2.6130   19.8520 C   0  0  0  0  0  0  0  0  0  0  0  0
    4.6320   -3.2190   19.6230 O   0  0  0  0  0  0  0  0  0  0  0  0
    6.0100   -2.1690   21.1030 N   0  0  0  0  0  0  0  0  0  0  0  0
    7.0830   -1.1730   21.2400 C   0  0  0  0  0  0  0  0  0  0  0  0
    8.1380   -1.7450   21.9410 C   0  0  0  0  0  0  0  0  0  0  0  0
    7.8810   -2.2250   23.1960 N   0  0  0  0  0  0  0  0  0  0  0  0
    8.8740   -2.2550   24.2560 C   0  0  0  0  0  0  0  0  0  0  0  0
   10.0510   -1.3800   23.8580 C   0  0  0  0  0  0  0  0  0  0  0  0
   11.0040   -1.9930   22.8520 C   0  0  0  0  0  0  0  0  0  0  0  0
   12.1910   -1.2350   22.3810 C   0  0  0  0  0  0  0  0  0  0  0  0
   13.2280   -1.9450   21.2450 Cl  0  0  0  0  0  0  0  0  0  0  0  0
   12.4080    0.1430   22.9420 C   0  0  0  0  0  0  0  0  0  0  0  0
   11.4650    0.6200   23.8670 C   0  0  0  0  0  0  0  0  0  0  0  0
   10.3250   -0.0520   24.3400 C   0  0  0  0  0  0  0  0  0  0  0  0
    9.5210    0.6050   25.2480 C   0  0  0  0  0  0  0  0  0  0  0  0
    8.0890    0.6320   24.9330 N   0  0  0  0  0  0  0  0  0  0  0  0
    7.5400    1.9740   24.0690 S   0  0  0  0  0  0  0  0  0  0  0  0
    7.6020    3.1040   24.9680 O   0  0  0  0  0  0  0  0  0  0  0  0
    8.1380    2.0300   22.7530 O   0  0  0  0  0  0  0  0  0  0  0  0
    5.9220    1.5320   23.8960 N   0  0  0  0  0  0  0  0  0  0  0  0
    5.1710    2.2610   22.9970 C   0  0  0  0  0  0  0  0  0  0  0  0
    4.0460    1.5190   22.5620 C   0  0  0  0  0  0  0  0  0  0  0  0
    3.1310    1.3890   23.6610 O   0  0  0  0  0  0  0  0  0  0  0  0
    3.7540    0.9500   24.8600 C   0  0  0  0  0  0  0  0  0  0  0  0
    5.2240    1.3890   25.0800 C   0  0  0  0  0  0  0  0  0  0  0  0
    7.0510   -3.3070   23.1070 C   0  0  0  0  0  0  0  0  0  0  0  0
    5.8070   -3.0160   22.3050 C   0  0  0  0  0  0  0  0  0  0  0  0
  1  2  1  0
  2  3  1  0
  3  4  2  0
  3  5  1  0
  5  6  1  0
  6  7  1  0
  7  8  1  0
  8  9  1  0
  9 10  1  0
 10 11  2  0
 11 12  1  0
 12 13  1  0
 12 14  2  0
 14 15  1  0
 10 16  1  0
 15 16  2  0
 16 17  1  0
 17 18  1  0
 19 18  1  0
 19 20  2  0
 19 21  2  0
 19 22  1  0
 22 23  1  0
 23 24  1  0
 24 25  1  0
 25 26  1  0
 22 27  1  0
 26 27  1  0
  8 28  1  0
  5 29  1  0
 28 29  1  0
M  END
