STU-CHA-545e7bd3-1-nitrile
     RDKit          3D

 23 25  0  0  0  0  0  0  0  0999 V2000
    6.7080   -3.3370   19.4040 C   0  0  0  0  0  0  0  0  0  0  0  0
    6.0240   -3.0470   18.3810 N   0  0  0  0  0  0  0  0  0  0  0  0
    6.5720   -2.6410   20.5810 N   0  0  0  0  0  0  0  0  0  0  0  0
    6.0820   -3.3460   21.7770 C   0  0  0  0  0  0  0  0  0  0  0  0
    7.2920   -3.5970   22.7210 C   0  0  0  0  0  0  0  0  0  0  0  0
    7.9870   -2.3400   23.0370 N   0  0  0  0  0  0  0  0  0  0  0  0
    9.0540   -2.4500   24.0200 C   0  0  1  0  0  0  0  0  0  0  0  0
   10.1260   -1.3850   23.8070 C   0  0  0  0  0  0  0  0  0  0  0  0
   11.2030   -1.7670   22.8410 C   0  0  0  0  0  0  0  0  0  0  0  0
   12.2910   -1.0010   22.5870 C   0  0  0  0  0  0  0  0  0  0  0  0
   13.2090   -1.6350   21.5350 C   0  0  0  0  0  0  0  0  0  0  0  0
   12.3800    0.2650   23.3360 N   0  0  0  0  0  0  0  0  0  0  0  0
   11.2920    0.8340   23.9690 C   0  0  0  0  0  0  0  0  0  0  0  0
   11.1920    2.0430   24.1600 O   0  0  0  0  0  0  0  0  0  0  0  0
   10.1490   -0.1130   24.3910 C   0  0  0  0  0  0  0  0  0  0  0  0
    8.3660   -2.5630   25.3930 C   0  0  0  0  0  0  0  0  0  0  0  0
    8.2350   -4.0370   25.2360 C   0  0  2  0  0  0  0  0  0  0  0  0
    9.1460   -5.0480   25.4750 C   0  0  0  0  0  0  0  0  0  0  0  0
    9.7130   -6.0510   25.4760 N   0  0  0  0  0  0  0  0  0  0  0  0
    9.8350   -4.3000   26.4950 O   0  0  0  0  0  0  0  0  0  0  0  0
    9.4210   -3.9670   24.2990 C   0  0  0  0  0  0  0  0  0  0  0  0
    8.4180   -1.5870   21.8420 C   0  0  0  0  0  0  0  0  0  0  0  0
    7.2910   -1.3810   20.8370 C   0  0  0  0  0  0  0  0  0  0  0  0
  1  2  2  3
  1  3  1  0
  3  4  1  0
  4  5  1  0
  5  6  1  0
  6  7  1  0
  7  8  1  1
  8  9  1  0
  9 10  2  0
 10 11  1  0
 10 12  1  0
 12 13  1  0
 13 14  2  0
  8 15  2  0
 13 15  1  0
  7 16  1  0
 16 17  1  0
 17 18  1  1
 18 19  1  0
 18 20  2  0
  7 21  1  0
 17 21  1  0
  6 22  1  0
  3 23  1  0
 22 23  1  0
M  END
