STU-CHA-09bcc2f6-1-chloroacetamide
     RDKit          3D

 25 27  0  0  0  0  0  0  0  0999 V2000
    6.9130   -4.5620   20.4720 C   0  0  0  0  0  0  0  0  0  0  0  0
    5.8550   -3.5350   20.3360 C   0  0  0  0  0  0  0  0  0  0  0  0
    5.0420   -3.6250   19.4100 O   0  0  0  0  0  0  0  0  0  0  0  0
    5.9090   -2.4830   21.2780 N   0  0  0  0  0  0  0  0  0  0  0  0
    6.2030   -1.1810   20.7140 C   0  0  0  0  0  0  0  0  0  0  0  0
    7.7280   -0.9350   20.6780 C   0  0  0  0  0  0  0  0  0  0  0  0
    8.6610   -1.5940   21.6890 C   0  0  0  0  0  0  0  0  0  0  0  0
    9.7870   -0.8070   22.0670 C   0  0  0  0  0  0  0  0  0  0  0  0
   10.6140   -1.2770   23.0950 N   0  0  0  0  0  0  0  0  0  0  0  0
   12.1050   -1.5400   22.9750 C   0  0  0  0  0  0  0  0  0  0  0  0
   12.9340   -0.3790   22.9510 C   0  0  0  0  0  0  0  0  0  0  0  0
   12.3470    0.8850   23.1340 C   0  0  0  0  0  0  0  0  0  0  0  0
   13.0080    2.0530   22.7010 C   0  0  0  0  0  0  0  0  0  0  0  0
   12.4750    3.3550   22.8290 C   0  0  0  0  0  0  0  0  0  0  0  0
   13.1900    4.6360   22.3500 C   0  0  0  0  0  0  0  0  0  0  0  0
   11.0820    3.5470   23.4950 C   0  0  0  0  0  0  0  0  0  0  0  0
   10.2770    5.1100   23.7280 S   0  0  0  0  0  0  0  0  0  0  0  0
   11.4310    6.2940   23.3400 N   0  0  0  0  0  0  0  0  0  0  0  0
    9.2310    5.2370   22.7430 O   0  0  0  0  0  0  0  0  0  0  0  0
    9.9350    5.2590   25.1150 O   0  0  0  0  0  0  0  0  0  0  0  0
   10.4010    2.2660   23.9630 C   0  0  0  0  0  0  0  0  0  0  0  0
   11.0400    0.8980   23.7810 C   0  0  0  0  0  0  0  0  0  0  0  0
   10.3810   -0.3920   24.2190 C   0  0  0  0  0  0  0  0  0  0  0  0
    7.7210   -1.6790   22.9110 C   0  0  0  0  0  0  0  0  0  0  0  0
    6.5380   -2.6310   22.6110 C   0  0  0  0  0  0  0  0  0  0  0  0
  1  2  1  0
  2  3  2  0
  2  4  1  0
  4  5  1  0
  5  6  1  0
  6  7  1  0
  7  8  1  0
  8  9  1  0
  9 10  1  0
 10 11  1  0
 11 12  1  0
 12 13  2  0
 13 14  1  0
 14 15  1  0
 14 16  2  0
 16 17  1  0
 17 18  1  0
 17 19  2  0
 17 20  2  0
 16 21  1  0
 12 22  1  0
 21 22  2  0
  9 23  1  0
 22 23  1  0
  7 24  1  0
  4 25  1  0
 24 25  1  0
M  END
