STU-CHA-7e77017b-1-chloroacetamide
     RDKit          3D

 25 27  0  0  0  0  0  0  0  0999 V2000
    7.0020   -4.4730   20.6670 C   0  0  0  0  0  0  0  0  0  0  0  0
    6.1000   -3.3490   20.3590 C   0  0  0  0  0  0  0  0  0  0  0  0
    5.3430   -3.4130   19.3720 O   0  0  0  0  0  0  0  0  0  0  0  0
    6.2070   -2.2550   21.2530 N   0  0  0  0  0  0  0  0  0  0  0  0
    6.4840   -2.4360   22.6940 C   0  0  0  0  0  0  0  0  0  0  0  0
    7.3080   -1.4360   23.2480 C   0  0  0  0  0  0  0  0  0  0  0  0
    8.4500   -1.1120   22.4930 C   0  0  0  0  0  0  0  0  0  0  0  0
    9.5740   -1.9570   22.7220 C   0  0  0  0  0  0  0  0  0  0  0  0
   10.8990   -1.4010   23.2460 N   0  0  0  0  0  0  0  0  0  0  0  0
   10.6990   -0.3760   24.2890 C   0  0  0  0  0  0  0  0  0  0  0  0
   11.1970    0.9850   23.8110 C   0  0  0  0  0  0  0  0  0  0  0  0
   10.5260    2.3160   24.0030 C   0  0  0  0  0  0  0  0  0  0  0  0
   11.1420    3.5860   23.4820 C   0  0  0  0  0  0  0  0  0  0  0  0
   10.3490    5.1440   23.6970 S   0  0  0  0  0  0  0  0  0  0  0  0
   11.5510    6.2370   23.2810 N   0  0  0  0  0  0  0  0  0  0  0  0
   10.0800    5.3490   25.0950 O   0  0  0  0  0  0  0  0  0  0  0  0
    9.2500    5.2170   22.7720 O   0  0  0  0  0  0  0  0  0  0  0  0
   12.3790    3.3800   22.8320 C   0  0  0  0  0  0  0  0  0  0  0  0
   12.9580    2.1140   22.6820 C   0  0  0  0  0  0  0  0  0  0  0  0
   12.3950    0.9300   23.1390 C   0  0  0  0  0  0  0  0  0  0  0  0
   12.9460   -0.3130   22.9550 C   0  0  0  0  0  0  0  0  0  0  0  0
   12.0250   -1.2530   22.3930 C   0  0  1  0  0  0  0  0  0  0  0  0
   12.6370   -2.5430   21.8690 C   0  0  0  0  0  0  0  0  0  0  0  0
    8.1710   -0.8490   21.1370 C   0  0  0  0  0  0  0  0  0  0  0  0
    6.8280   -1.0290   20.7370 C   0  0  0  0  0  0  0  0  0  0  0  0
  1  2  1  0
  2  3  2  0
  2  4  1  0
  4  5  1  0
  5  6  1  0
  6  7  1  0
  7  8  1  0
  8  9  1  0
  9 10  1  0
 10 11  1  0
 11 12  2  0
 12 13  1  0
 13 14  1  0
 14 15  1  0
 14 16  2  0
 14 17  2  0
 13 18  2  0
 18 19  1  0
 11 20  1  0
 19 20  2  0
 20 21  1  0
  9 22  1  0
 21 22  1  0
 22 23  1  1
  7 24  1  0
  4 25  1  0
 24 25  1  0
M  END
