STU-CHA-128b80be-1-nitrile
     RDKit          3D

 30 32  0  0  0  0  0  0  0  0999 V2000
    6.8170   -3.3760   19.2570 C   0  0  0  0  0  0  0  0  0  0  0  0
    7.0490   -2.9490   18.0610 N   0  0  0  0  0  0  0  0  0  0  0  0
    5.6420   -2.8100   19.9090 C   0  0  0  0  0  0  0  0  0  0  0  0
    5.5080   -3.0040   21.2730 C   0  0  0  0  0  0  0  0  0  0  0  0
    4.7220   -4.1480   21.5960 O   0  0  0  0  0  0  0  0  0  0  0  0
    6.0510   -2.2350   22.2150 N   0  0  0  0  0  0  0  0  0  0  0  0
    7.1870   -1.6130   21.8430 C   0  0  0  0  0  0  0  0  0  0  0  0
    8.4260   -2.2150   21.9840 C   0  0  0  0  0  0  0  0  0  0  0  0
    8.5430   -3.0540   23.1300 N   0  0  0  0  0  0  0  0  0  0  0  0
    9.1420   -2.5870   24.2510 C   0  0  0  0  0  0  0  0  0  0  0  0
   10.1510   -1.5140   23.9050 C   0  0  0  0  0  0  0  0  0  0  0  0
   11.1730   -1.9640   22.9180 C   0  0  0  0  0  0  0  0  0  0  0  0
   12.2360   -1.0800   22.4480 C   0  0  0  0  0  0  0  0  0  0  0  0
   13.3260   -1.7050   21.3140 Cl  0  0  0  0  0  0  0  0  0  0  0  0
   12.2900    0.3270   22.9920 C   0  0  0  0  0  0  0  0  0  0  0  0
   11.2800    0.6950   23.9320 C   0  0  0  0  0  0  0  0  0  0  0  0
   10.2390   -0.1610   24.3910 C   0  0  0  0  0  0  0  0  0  0  0  0
    9.3410    0.3720   25.3090 C   0  0  0  0  0  0  0  0  0  0  0  0
    8.0370    0.4240   24.6650 N   0  0  0  0  0  0  0  0  0  0  0  0
    7.1770    1.8600   24.7940 S   0  0  0  0  0  0  0  0  0  0  0  0
    7.7830    2.7690   23.8430 O   0  0  0  0  0  0  0  0  0  0  0  0
    7.0460    2.2070   26.1900 O   0  0  0  0  0  0  0  0  0  0  0  0
    5.6760    1.3960   24.2190 N   0  0  0  0  0  0  0  0  0  0  0  0
    5.1930    2.0240   23.1110 C   0  0  0  0  0  0  0  0  0  0  0  0
    4.0010    1.7390   22.4080 C   0  0  0  0  0  0  0  0  0  0  0  0
    2.9530    1.5530   23.3680 O   0  0  0  0  0  0  0  0  0  0  0  0
    3.3190    0.6850   24.4330 C   0  0  0  0  0  0  0  0  0  0  0  0
    4.6610    0.9700   25.1550 C   0  0  0  0  0  0  0  0  0  0  0  0
    7.3770   -3.7130   23.4450 C   0  0  0  0  0  0  0  0  0  0  0  0
    6.2110   -2.7740   23.4810 C   0  0  0  0  0  0  0  0  0  0  0  0
  1  2  2  3
  1  3  1  0
  3  4  1  0
  4  5  2  0
  4  6  1  0
  6  7  1  0
  7  8  1  0
  8  9  1  0
  9 10  1  0
 10 11  1  0
 11 12  2  0
 12 13  1  0
 13 14  1  0
 13 15  2  0
 15 16  1  0
 11 17  1  0
 16 17  2  0
 17 18  1  0
 18 19  1  0
 20 19  1  0
 20 21  2  0
 20 22  2  0
 20 23  1  0
 23 24  1  0
 24 25  1  0
 25 26  1  0
 26 27  1  0
 23 28  1  0
 27 28  1  0
  9 29  1  0
  6 30  1  0
 29 30  1  0
M  END
