STU-CHA-83dacf15-2-nitrile
     RDKit          3D

 23 25  0  0  0  0  0  0  0  0999 V2000
    6.7670   -4.1330   20.1800 C   0  0  0  0  0  0  0  0  0  0  0  0
    5.9800   -3.5220   19.3660 N   0  0  0  0  0  0  0  0  0  0  0  0
    6.9200   -3.6660   21.4870 N   0  0  0  0  0  0  0  0  0  0  0  0
    7.3230   -4.3770   22.5860 C   0  0  0  0  0  0  0  0  0  0  0  0
    8.2810   -3.6960   23.5930 C   0  0  0  0  0  0  0  0  0  0  0  0
    8.8370   -2.3620   23.0850 C   0  0  0  0  0  0  0  0  0  0  0  0
   10.3560   -2.4240   23.1040 C   0  0  0  0  0  0  0  0  0  0  0  0
   11.1790   -1.2970   23.3860 N   0  0  0  0  0  0  0  0  0  0  0  0
   12.5550   -1.2390   23.5690 C   0  0  0  0  0  0  0  0  0  0  0  0
   13.0610   -0.1900   22.8160 C   0  0  0  0  0  0  0  0  0  0  0  0
   12.4360    1.0370   23.0160 C   0  0  0  0  0  0  0  0  0  0  0  0
   13.0100    2.2700   22.6730 C   0  0  0  0  0  0  0  0  0  0  0  0
   12.3130    3.4570   22.8900 C   0  0  0  0  0  0  0  0  0  0  0  0
   11.0460    3.3820   23.4600 C   0  0  0  0  0  0  0  0  0  0  0  0
   10.2480    4.8760   23.6900 S   0  0  0  0  0  0  0  0  0  0  0  0
   11.4450    6.0210   23.4030 N   0  0  0  0  0  0  0  0  0  0  0  0
    9.2230    5.0390   22.6980 O   0  0  0  0  0  0  0  0  0  0  0  0
    9.8860    5.0100   25.0760 O   0  0  0  0  0  0  0  0  0  0  0  0
   10.4780    2.1510   23.8120 C   0  0  0  0  0  0  0  0  0  0  0  0
   11.1700    0.9530   23.5930 C   0  0  0  0  0  0  0  0  0  0  0  0
   10.4910   -0.2040   23.9810 C   0  0  0  0  0  0  0  0  0  0  0  0
    8.2520   -1.8810   21.9080 C   0  0  0  0  0  0  0  0  0  0  0  0
    6.9460   -2.2680   21.6780 C   0  0  0  0  0  0  0  0  0  0  0  0
  1  2  2  3
  1  3  1  0
  3  4  1  0
  4  5  1  0
  5  6  1  0
  6  7  1  0
  7  8  1  0
  8  9  1  0
  9 10  1  0
 10 11  1  0
 11 12  2  0
 12 13  1  0
 13 14  2  0
 14 15  1  0
 15 16  1  0
 15 17  2  0
 15 18  2  0
 14 19  1  0
 11 20  1  0
 19 20  2  0
  8 21  1  0
 20 21  1  0
  6 22  1  0
  3 23  1  0
 22 23  1  0
M  END
