STU-CHA-83dacf15-2-acrylamide
     RDKit          3D

 25 27  0  0  0  0  0  0  0  0999 V2000
    6.9220   -3.8410   20.2350 C   0  0  0  0  0  0  0  0  0  0  0  0
    6.7520   -3.6270   21.7420 C   0  0  0  0  0  0  0  0  0  0  0  0
    5.6530   -2.6340   22.0330 C   0  0  0  0  0  0  0  0  0  0  0  0
    5.0250   -3.4920   21.4010 O   0  0  0  0  0  0  0  0  0  0  0  0
    6.7300   -2.0080   22.6540 N   0  0  0  0  0  0  0  0  0  0  0  0
    7.8640   -1.4780   21.8510 C   0  0  0  0  0  0  0  0  0  0  0  0
    9.2140   -1.6890   22.5050 C   0  0  0  0  0  0  0  0  0  0  0  0
    9.2240   -1.9300   23.8900 C   0  0  0  0  0  0  0  0  0  0  0  0
   10.4540   -1.6450   24.5290 C   0  0  0  0  0  0  0  0  0  0  0  0
   11.2210   -0.8260   23.8210 N   0  0  0  0  0  0  0  0  0  0  0  0
   12.1470   -1.0180   22.7890 C   0  0  0  0  0  0  0  0  0  0  0  0
   13.1120   -0.0470   22.7080 C   0  0  0  0  0  0  0  0  0  0  0  0
   12.5310    1.2210   22.8950 C   0  0  0  0  0  0  0  0  0  0  0  0
   13.1850    2.4320   22.6250 C   0  0  0  0  0  0  0  0  0  0  0  0
   12.5770    3.6870   22.8290 C   0  0  0  0  0  0  0  0  0  0  0  0
   11.2740    3.7470   23.3230 C   0  0  0  0  0  0  0  0  0  0  0  0
   10.3690    5.2260   23.6470 S   0  0  0  0  0  0  0  0  0  0  0  0
   11.4750    6.4140   23.2220 N   0  0  0  0  0  0  0  0  0  0  0  0
    9.2240    5.3070   22.7740 O   0  0  0  0  0  0  0  0  0  0  0  0
   10.1670    5.3660   25.0670 O   0  0  0  0  0  0  0  0  0  0  0  0
   10.6700    2.5620   23.5700 C   0  0  0  0  0  0  0  0  0  0  0  0
   11.2320    1.3360   23.3760 C   0  0  0  0  0  0  0  0  0  0  0  0
   10.4450    0.2910   23.6770 C   0  0  0  0  0  0  0  0  0  0  0  0
    8.1710   -1.2210   24.4970 C   0  0  0  0  0  0  0  0  0  0  0  0
    6.8760   -1.9440   24.1140 C   0  0  0  0  0  0  0  0  0  0  0  0
  1  2  1  0
  2  3  1  0
  3  4  2  0
  3  5  1  0
  5  6  1  0
  6  7  1  0
  7  8  1  0
  8  9  1  0
  9 10  1  0
 10 11  1  0
 11 12  1  0
 12 13  1  0
 13 14  2  0
 14 15  1  0
 15 16  2  0
 16 17  1  0
 17 18  1  0
 17 19  2  0
 17 20  2  0
 16 21  1  0
 13 22  1  0
 21 22  2  0
 10 23  1  0
 22 23  1  0
  8 24  1  0
  5 25  1  0
 24 25  1  0
M  END
