STU-CHA-6cae54d3-1-acrylamide
     RDKit          3D

 28 30  0  0  0  0  0  0  0  0999 V2000
    8.0850   -3.4550   19.7620 C   0  0  0  0  0  0  0  0  0  0  0  0
    6.9430   -2.6990   19.1850 C   0  0  0  0  0  0  0  0  0  0  0  0
    5.8860   -3.1410   20.1060 C   0  0  0  0  0  0  0  0  0  0  0  0
    5.0760   -3.9970   19.7600 O   0  0  0  0  0  0  0  0  0  0  0  0
    5.9870   -2.5650   21.3710 N   0  0  0  0  0  0  0  0  0  0  0  0
    6.8080   -1.3430   21.4300 C   0  0  0  0  0  0  0  0  0  0  0  0
    8.1180   -1.6620   21.8140 C   0  0  0  0  0  0  0  0  0  0  0  0
    8.0270   -2.1840   23.0910 N   0  0  0  0  0  0  0  0  0  0  0  0
    9.0190   -2.0810   24.0760 C   0  0  0  0  0  0  0  0  0  0  0  0
   10.1710   -1.2450   23.7260 C   0  0  0  0  0  0  0  0  0  0  0  0
   11.0970   -1.7400   22.8470 C   0  0  0  0  0  0  0  0  0  0  0  0
   12.2430   -1.1140   22.3930 C   0  0  0  0  0  0  0  0  0  0  0  0
   13.1810   -2.0060   21.2870 Cl  0  0  0  0  0  0  0  0  0  0  0  0
   12.5920    0.2640   22.8690 C   0  0  0  0  0  0  0  0  0  0  0  0
   11.5960    0.8710   23.8390 C   0  0  0  0  0  0  0  0  0  0  0  0
   10.3610    0.0590   24.2540 C   0  0  0  0  0  0  0  0  0  0  0  0
    9.4370    0.7760   25.2260 C   0  0  0  0  0  0  0  0  0  0  0  0
    8.0850    0.7020   25.1630 N   0  0  0  0  0  0  0  0  0  0  0  0
    7.4330    1.4130   24.1930 C   0  0  0  0  0  0  0  0  0  0  0  0
    8.0300    2.3140   23.5910 O   0  0  0  0  0  0  0  0  0  0  0  0
    6.1460    1.1460   23.8910 N   0  0  0  0  0  0  0  0  0  0  0  0
    5.3120    1.0730   24.9720 C   0  0  0  0  0  0  0  0  0  0  0  0
    4.0630    0.5170   24.6400 C   0  0  0  0  0  0  0  0  0  0  0  0
    3.5010    1.0260   23.6780 O   0  0  0  0  0  0  0  0  0  0  0  0
    4.3770    1.1530   22.5470 C   0  0  0  0  0  0  0  0  0  0  0  0
    5.5580    1.8300   22.8670 C   0  0  0  0  0  0  0  0  0  0  0  0
    7.3180   -3.4800   23.1020 C   0  0  0  0  0  0  0  0  0  0  0  0
    6.0070   -3.3300   22.6310 C   0  0  0  0  0  0  0  0  0  0  0  0
  1  2  1  0
  2  3  1  0
  3  4  2  0
  3  5  1  0
  5  6  1  0
  6  7  1  0
  7  8  1  0
  8  9  1  0
  9 10  1  0
 10 11  2  0
 11 12  1  0
 12 13  1  0
 12 14  2  0
 14 15  1  0
 10 16  1  0
 15 16  2  0
 16 17  1  0
 17 18  1  0
 18 19  1  0
 19 20  2  0
 19 21  1  0
 21 22  1  0
 22 23  1  0
 23 24  1  0
 24 25  1  0
 21 26  1  0
 25 26  1  0
  8 27  1  0
  5 28  1  0
 27 28  1  0
M  END
