STU-CHA-464c0256-1-acrylamide
     RDKit          3D

 24 25  0  0  0  0  0  0  0  0999 V2000
    7.9300   -3.2740   19.0750 C   0  0  0  0  0  0  0  0  0  0  0  0
    6.7140   -2.4460   18.7840 C   0  0  0  0  0  0  0  0  0  0  0  0
    5.8150   -2.7340   19.9200 C   0  0  0  0  0  0  0  0  0  0  0  0
    4.9090   -3.5480   19.7230 O   0  0  0  0  0  0  0  0  0  0  0  0
    6.1400   -2.1390   21.1280 N   0  0  0  0  0  0  0  0  0  0  0  0
    5.9450   -2.9650   22.3470 C   0  0  0  0  0  0  0  0  0  0  0  0
    6.8620   -2.6620   23.5070 C   0  0  0  0  0  0  0  0  0  0  0  0
    7.8700   -1.6780   23.3790 N   0  0  0  0  0  0  0  0  0  0  0  0
    8.9790   -1.8180   24.3350 C   0  0  0  0  0  0  0  0  0  0  0  0
   10.0000   -0.9000   24.0810 C   0  0  0  0  0  0  0  0  0  0  0  0
    9.8630    0.4990   24.1150 C   0  0  0  0  0  0  0  0  0  0  0  0
   10.9410    1.3610   23.8490 C   0  0  0  0  0  0  0  0  0  0  0  0
   12.1770    0.8320   23.5310 C   0  0  0  0  0  0  0  0  0  0  0  0
   12.3420   -0.5190   23.4950 N   0  0  0  0  0  0  0  0  0  0  0  0
   11.2600   -1.3790   23.7800 C   0  0  0  0  0  0  0  0  0  0  0  0
   11.4410   -2.6180   23.7800 N   0  0  0  0  0  0  0  0  0  0  0  0
   12.6460   -2.7000   24.2670 C   0  0  0  0  0  0  0  0  0  0  0  0
   13.5320   -2.5500   23.2320 C   0  0  0  0  0  0  0  0  0  0  0  0
   12.9350   -2.3200   21.5740 S   0  0  0  0  0  0  0  0  0  0  0  0
   13.5050   -3.6370   20.7250 N   0  0  0  0  0  0  0  0  0  0  0  0
   13.6200   -1.2100   20.9630 O   0  0  0  0  0  0  0  0  0  0  0  0
   11.5000   -2.4430   21.5420 O   0  0  0  0  0  0  0  0  0  0  0  0
    8.2330   -1.5060   22.0890 C   0  0  0  0  0  0  0  0  0  0  0  0
    7.2570   -1.2370   21.1240 C   0  0  0  0  0  0  0  0  0  0  0  0
  1  2  1  0
  2  3  1  0
  3  4  2  0
  3  5  1  0
  5  6  1  0
  6  7  1  0
  7  8  1  0
  8  9  1  0
  9 10  1  0
 10 11  2  0
 11 12  1  0
 12 13  2  0
 13 14  1  0
 10 15  1  0
 14 15  2  0
 15 16  1  0
 16 17  1  0
 17 18  1  0
 18 19  1  0
 19 20  1  0
 19 21  2  0
 19 22  2  0
  8 23  1  0
  5 24  1  0
 23 24  1  0
M  END
