STU-CHA-128b80be-1-chloroacetamide
     RDKit          3D

 31 33  0  0  0  0  0  0  0  0999 V2000
    7.4780   -3.3270   19.2050 C   0  0  0  0  0  0  0  0  0  0  0  0
    6.1600   -2.7510   18.9040 C   0  0  0  0  0  0  0  0  0  0  0  0
    5.5850   -2.8840   17.8640 O   0  0  0  0  0  0  0  0  0  0  0  0
    5.5100   -2.0480   19.9850 C   0  0  0  0  0  0  0  0  0  0  0  0
    5.5270   -2.7320   21.1820 C   0  0  0  0  0  0  0  0  0  0  0  0
    4.5050   -3.6750   21.4610 O   0  0  0  0  0  0  0  0  0  0  0  0
    6.5450   -2.5980   22.0270 N   0  0  0  0  0  0  0  0  0  0  0  0
    7.6710   -1.7820   21.5650 C   0  0  0  0  0  0  0  0  0  0  0  0
    8.6650   -2.1460   22.4230 C   0  0  0  0  0  0  0  0  0  0  0  0
    8.1230   -2.1290   23.7890 N   0  0  0  0  0  0  0  0  0  0  0  0
    9.2060   -1.8740   24.6940 C   0  0  0  0  0  0  0  0  0  0  0  0
   10.3030   -1.1240   24.0140 C   0  0  0  0  0  0  0  0  0  0  0  0
   11.2520   -1.7440   23.0720 C   0  0  0  0  0  0  0  0  0  0  0  0
   12.3280   -0.9810   22.4170 C   0  0  0  0  0  0  0  0  0  0  0  0
   13.3390   -1.7780   21.3240 Cl  0  0  0  0  0  0  0  0  0  0  0  0
   12.4000    0.3860   22.7720 C   0  0  0  0  0  0  0  0  0  0  0  0
   11.4650    0.9200   23.6670 C   0  0  0  0  0  0  0  0  0  0  0  0
   10.4270    0.2280   24.2870 C   0  0  0  0  0  0  0  0  0  0  0  0
    9.5460    0.8700   25.1460 C   0  0  0  0  0  0  0  0  0  0  0  0
    8.1680    0.7380   24.6450 N   0  0  0  0  0  0  0  0  0  0  0  0
    7.5660    2.1240   23.8970 S   0  0  0  0  0  0  0  0  0  0  0  0
    7.6580    3.2540   24.7930 O   0  0  0  0  0  0  0  0  0  0  0  0
    8.1140    2.1980   22.5580 O   0  0  0  0  0  0  0  0  0  0  0  0
    5.9400    1.6800   23.7810 N   0  0  0  0  0  0  0  0  0  0  0  0
    5.2310    2.1330   22.6960 C   0  0  0  0  0  0  0  0  0  0  0  0
    3.8750    1.4500   22.5400 C   0  0  0  0  0  0  0  0  0  0  0  0
    3.2310    1.2130   23.8010 O   0  0  0  0  0  0  0  0  0  0  0  0
    4.1500    0.8720   24.8560 C   0  0  0  0  0  0  0  0  0  0  0  0
    5.2320    1.7580   24.9220 C   0  0  0  0  0  0  0  0  0  0  0  0
    7.5690   -3.3520   24.0100 C   0  0  0  0  0  0  0  0  0  0  0  0
    6.8300   -3.7360   22.9270 C   0  0  0  0  0  0  0  0  0  0  0  0
  1  2  1  0
  2  3  2  0
  2  4  1  0
  4  5  1  0
  5  6  2  0
  5  7  1  0
  7  8  1  0
  8  9  1  0
  9 10  1  0
 10 11  1  0
 11 12  1  0
 12 13  2  0
 13 14  1  0
 14 15  1  0
 14 16  2  0
 16 17  1  0
 12 18  1  0
 17 18  2  0
 18 19  1  0
 19 20  1  0
 21 20  1  0
 21 22  2  0
 21 23  2  0
 21 24  1  0
 24 25  1  0
 25 26  1  0
 26 27  1  0
 27 28  1  0
 24 29  1  0
 28 29  1  0
 10 30  1  0
  7 31  1  0
 30 31  1  0
M  END
