STU-CHA-5350f95a-1-chloroacetamide
     RDKit          3D

 28 30  0  0  0  0  0  0  0  0999 V2000
    7.1410   -2.9880   18.8040 C   0  0  0  0  0  0  0  0  0  0  0  0
    6.1920   -3.3660   19.9120 C   0  0  0  0  0  0  0  0  0  0  0  0
    5.3320   -4.2340   19.7710 O   0  0  0  0  0  0  0  0  0  0  0  0
    6.3530   -2.6900   21.1170 N   0  0  0  0  0  0  0  0  0  0  0  0
    6.2060   -3.4470   22.3700 C   0  0  0  0  0  0  0  0  0  0  0  0
    7.4890   -3.4850   23.2250 C   0  0  0  0  0  0  0  0  0  0  0  0
    8.1800   -2.1900   23.3090 N   0  0  0  0  0  0  0  0  0  0  0  0
    9.3050   -2.1670   24.2370 C   0  0  0  0  0  0  0  0  0  0  0  0
   10.3460   -1.3510   23.8070 C   0  0  0  0  0  0  0  0  0  0  0  0
   11.2280   -1.8470   22.8800 C   0  0  0  0  0  0  0  0  0  0  0  0
   12.2790   -1.1200   22.3970 C   0  0  0  0  0  0  0  0  0  0  0  0
   13.2670   -1.8620   21.2450 Cl  0  0  0  0  0  0  0  0  0  0  0  0
   12.5070    0.1740   22.8440 C   0  0  0  0  0  0  0  0  0  0  0  0
   11.6380    0.7260   23.7790 C   0  0  0  0  0  0  0  0  0  0  0  0
   10.5610   -0.0330   24.2530 C   0  0  0  0  0  0  0  0  0  0  0  0
    9.5930    0.5840   25.2740 C   0  0  0  0  0  0  0  0  0  0  0  0
    8.1850    0.5590   25.0580 N   0  0  0  0  0  0  0  0  0  0  0  0
    7.4740    1.4790   24.1510 C   0  0  0  0  0  0  0  0  0  0  0  0
    8.1540    2.5810   23.4900 O   0  0  0  0  0  0  0  0  0  0  0  0
    6.1310    1.2150   23.9930 N   0  0  0  0  0  0  0  0  0  0  0  0
    5.2210    1.0790   25.1260 C   0  0  0  0  0  0  0  0  0  0  0  0
    3.9550    0.2930   24.7340 C   0  0  0  0  0  0  0  0  0  0  0  0
    3.2650    0.9420   23.6550 N   0  0  0  0  0  0  0  0  0  0  0  0
    4.0320    1.3730   22.4880 C   0  0  0  0  0  0  0  0  0  0  0  0
    3.4660    1.5180   21.4060 O   0  0  0  0  0  0  0  0  0  0  0  0
    5.5380    1.6380   22.7050 C   0  0  0  0  0  0  0  0  0  0  0  0
    8.4670   -1.6830   21.9640 C   0  0  0  0  0  0  0  0  0  0  0  0
    7.2080   -1.4900   21.1460 C   0  0  0  0  0  0  0  0  0  0  0  0
  1  2  1  0
  2  3  2  0
  2  4  1  0
  4  5  1  0
  5  6  1  0
  6  7  1  0
  7  8  1  0
  8  9  1  0
  9 10  2  0
 10 11  1  0
 11 12  1  0
 11 13  2  0
 13 14  1  0
  9 15  1  0
 14 15  2  0
 15 16  1  0
 16 17  1  0
 17 18  1  0
 18 19  2  0
 18 20  1  0
 20 21  1  0
 21 22  1  0
 22 23  1  0
 23 24  1  0
 24 25  2  0
 20 26  1  0
 24 26  1  0
  7 27  1  0
  4 28  1  0
 27 28  1  0
M  END
