STU-CHA-128b80be-2-vinylsulfonamide
     RDKit          3D

 30 32  0  0  0  0  0  0  0  0999 V2000
    7.3440   -2.8470   18.3330 C   0  0  0  0  0  0  0  0  0  0  0  0
    6.3100   -2.3210   19.3150 C   0  0  0  0  0  0  0  0  0  0  0  0
    5.7870   -3.4810   20.5330 S   0  0  0  0  0  0  0  0  0  0  0  0
    4.7050   -2.9510   21.2640 O   0  0  0  0  0  0  0  0  0  0  0  0
    5.6600   -4.8130   19.9820 O   0  0  0  0  0  0  0  0  0  0  0  0
    7.0310   -3.2590   21.6190 N   0  0  0  0  0  0  0  0  0  0  0  0
    7.5210   -1.8790   21.5710 C   0  0  0  0  0  0  0  0  0  0  0  0
    8.7380   -1.8080   22.1700 C   0  0  0  0  0  0  0  0  0  0  0  0
    8.9690   -2.9140   23.1110 N   0  0  0  0  0  0  0  0  0  0  0  0
   10.0950   -2.6190   23.9450 C   0  0  0  0  0  0  0  0  0  0  0  0
   10.0570   -1.3000   24.3390 C   0  0  0  0  0  0  0  0  0  0  0  0
   11.1810   -1.4450   23.3460 C   0  0  0  0  0  0  0  0  0  0  0  0
   12.3000   -0.9140   22.5480 C   0  0  0  0  0  0  0  0  0  0  0  0
   13.2170   -1.8280   21.4850 Cl  0  0  0  0  0  0  0  0  0  0  0  0
   12.3970    0.4990   22.8840 C   0  0  0  0  0  0  0  0  0  0  0  0
   11.3710    0.9850   23.8780 C   0  0  0  0  0  0  0  0  0  0  0  0
   10.3440    0.1400   24.4950 C   0  0  0  0  0  0  0  0  0  0  0  0
    9.5030    0.8040   25.3660 C   0  0  0  0  0  0  0  0  0  0  0  0
    8.1060    0.6690   24.9750 N   0  0  0  0  0  0  0  0  0  0  0  0
    7.3480    2.0520   24.4310 S   0  0  0  0  0  0  0  0  0  0  0  0
    8.0070    2.5030   23.2290 O   0  0  0  0  0  0  0  0  0  0  0  0
    7.1720    2.9040   25.5880 O   0  0  0  0  0  0  0  0  0  0  0  0
    5.8690    1.3910   24.0270 N   0  0  0  0  0  0  0  0  0  0  0  0
    5.1820    2.0440   22.9200 C   0  0  0  0  0  0  0  0  0  0  0  0
    4.0840    1.2820   22.5260 C   0  0  0  0  0  0  0  0  0  0  0  0
    3.1500    1.0320   23.5000 O   0  0  0  0  0  0  0  0  0  0  0  0
    3.7280    0.4480   24.6720 C   0  0  0  0  0  0  0  0  0  0  0  0
    5.0360    1.1030   25.0910 C   0  0  0  0  0  0  0  0  0  0  0  0
    7.7720   -3.3420   23.8390 C   0  0  0  0  0  0  0  0  0  0  0  0
    6.7920   -3.7870   22.9550 C   0  0  0  0  0  0  0  0  0  0  0  0
  1  2  1  0
  3  2  1  0
  3  4  2  0
  3  5  2  0
  3  6  1  0
  6  7  1  0
  7  8  1  0
  8  9  1  0
  9 10  1  0
 10 11  1  0
 11 12  2  0
 12 13  1  0
 13 14  1  0
 13 15  2  0
 15 16  1  0
 11 17  1  0
 16 17  2  0
 17 18  1  0
 18 19  1  0
 20 19  1  0
 20 21  2  0
 20 22  2  0
 20 23  1  0
 23 24  1  0
 24 25  1  0
 25 26  1  0
 26 27  1  0
 23 28  1  0
 27 28  1  0
  9 29  1  0
  6 30  1  0
 29 30  1  0
M  END
