STU-CHA-83dacf15-1-acrylamide
     RDKit          3D

 25 27  0  0  0  0  0  0  0  0999 V2000
    6.6010   -5.8780   20.6140 C   0  0  0  0  0  0  0  0  0  0  0  0
    5.9350   -5.3290   21.8930 C   0  0  0  0  0  0  0  0  0  0  0  0
    5.7850   -3.8340   22.0380 C   0  0  0  0  0  0  0  0  0  0  0  0
    4.8580   -3.2510   21.4690 O   0  0  0  0  0  0  0  0  0  0  0  0
    6.6860   -3.1780   22.8530 N   0  0  0  0  0  0  0  0  0  0  0  0
    6.4940   -1.7680   23.1870 C   0  0  0  0  0  0  0  0  0  0  0  0
    7.8320   -1.0950   23.2030 C   0  0  0  0  0  0  0  0  0  0  0  0
    8.7580   -1.5990   22.2840 C   0  0  0  0  0  0  0  0  0  0  0  0
    9.8880   -0.7990   22.1760 C   0  0  0  0  0  0  0  0  0  0  0  0
   10.8050   -1.0680   23.1770 N   0  0  0  0  0  0  0  0  0  0  0  0
   12.1920   -1.2830   22.9550 C   0  0  0  0  0  0  0  0  0  0  0  0
   13.0960   -0.2190   22.9870 C   0  0  0  0  0  0  0  0  0  0  0  0
   12.4440    1.0060   23.1320 C   0  0  0  0  0  0  0  0  0  0  0  0
   13.0000    2.2230   22.6980 C   0  0  0  0  0  0  0  0  0  0  0  0
   12.5220    3.5860   22.7320 C   0  0  0  0  0  0  0  0  0  0  0  0
   11.2450    3.4370   23.3650 C   0  0  0  0  0  0  0  0  0  0  0  0
   10.2770    4.9030   23.6200 S   0  0  0  0  0  0  0  0  0  0  0  0
   11.3630    6.1250   23.2080 N   0  0  0  0  0  0  0  0  0  0  0  0
    9.1700    4.9490   22.6970 O   0  0  0  0  0  0  0  0  0  0  0  0
   10.0010    5.0890   25.0190 O   0  0  0  0  0  0  0  0  0  0  0  0
   10.6790    2.2640   23.8040 C   0  0  0  0  0  0  0  0  0  0  0  0
   11.2340    1.0410   23.7100 C   0  0  0  0  0  0  0  0  0  0  0  0
   10.5980   -0.0900   24.1710 C   0  0  0  0  0  0  0  0  0  0  0  0
    9.1340   -2.9260   22.5320 C   0  0  0  0  0  0  0  0  0  0  0  0
    8.0000   -3.7030   23.2230 C   0  0  0  0  0  0  0  0  0  0  0  0
  1  2  1  0
  2  3  1  0
  3  4  2  0
  3  5  1  0
  5  6  1  0
  6  7  1  0
  7  8  1  0
  8  9  1  0
  9 10  1  0
 10 11  1  0
 11 12  1  0
 12 13  1  0
 13 14  2  0
 14 15  1  0
 15 16  2  0
 16 17  1  0
 17 18  1  0
 17 19  2  0
 17 20  2  0
 16 21  1  0
 13 22  1  0
 21 22  2  0
 10 23  1  0
 22 23  1  0
  8 24  1  0
  5 25  1  0
 24 25  1  0
M  END
