STU-CHA-83dacf15-3-nitrile
     RDKit          3D

 26 28  0  0  0  0  0  0  0  0999 V2000
    7.5220   -3.3210   19.4420 C   0  0  0  0  0  0  0  0  0  0  0  0
    6.5280   -3.2450   18.6180 N   0  0  0  0  0  0  0  0  0  0  0  0
    7.3120   -2.9120   20.9310 C   0  0  0  0  0  0  0  0  0  0  0  0
    6.6790   -4.0540   21.7370 C   0  0  0  0  0  0  0  0  0  0  0  0
    5.6960   -4.6550   21.3100 O   0  0  0  0  0  0  0  0  0  0  0  0
    7.2050   -4.3860   22.9320 N   0  0  0  0  0  0  0  0  0  0  0  0
    6.9510   -3.5310   23.9300 C   0  0  0  0  0  0  0  0  0  0  0  0
    7.9900   -2.4400   23.9290 C   0  0  0  0  0  0  0  0  0  0  0  0
    9.2860   -2.7090   23.4560 C   0  0  0  0  0  0  0  0  0  0  0  0
    9.8400   -1.6640   22.7020 C   0  0  0  0  0  0  0  0  0  0  0  0
   11.0140   -1.2720   23.3270 N   0  0  0  0  0  0  0  0  0  0  0  0
   12.3150   -1.3840   22.6600 C   0  0  0  0  0  0  0  0  0  0  0  0
   13.1940   -0.3320   22.9410 C   0  0  0  0  0  0  0  0  0  0  0  0
   12.5370    0.8810   23.1000 C   0  0  0  0  0  0  0  0  0  0  0  0
   13.0690    2.0910   22.6260 C   0  0  0  0  0  0  0  0  0  0  0  0
   12.3570    3.2790   22.8030 C   0  0  0  0  0  0  0  0  0  0  0  0
   11.1250    3.3420   23.4430 C   0  0  0  0  0  0  0  0  0  0  0  0
   10.2280    4.8580   23.6620 S   0  0  0  0  0  0  0  0  0  0  0  0
   11.3460    6.0380   23.2380 N   0  0  0  0  0  0  0  0  0  0  0  0
    9.1580    4.9550   22.7010 O   0  0  0  0  0  0  0  0  0  0  0  0
    9.9310    5.0810   25.0520 O   0  0  0  0  0  0  0  0  0  0  0  0
   10.6510    2.1240   23.9000 C   0  0  0  0  0  0  0  0  0  0  0  0
   11.3170    0.9030   23.7510 C   0  0  0  0  0  0  0  0  0  0  0  0
   10.7940   -0.2850   24.2430 C   0  0  0  0  0  0  0  0  0  0  0  0
    9.5420   -3.9890   22.9180 C   0  0  0  0  0  0  0  0  0  0  0  0
    8.3960   -5.0120   23.1160 C   0  0  0  0  0  0  0  0  0  0  0  0
  1  2  2  3
  1  3  1  0
  3  4  1  0
  4  5  2  0
  4  6  1  0
  6  7  1  0
  7  8  1  0
  8  9  1  0
  9 10  1  0
 10 11  1  0
 11 12  1  0
 12 13  1  0
 13 14  1  0
 14 15  2  0
 15 16  1  0
 16 17  2  0
 17 18  1  0
 18 19  1  0
 18 20  2  0
 18 21  2  0
 17 22  1  0
 14 23  1  0
 22 23  2  0
 11 24  1  0
 23 24  1  0
  9 25  1  0
  6 26  1  0
 25 26  1  0
M  END
