STU-CHA-0be58c98-1-acrylamide
     RDKit          3D

 22 23  0  0  0  0  0  0  0  0999 V2000
    7.9070   -3.2830   19.0590 C   0  0  0  0  0  0  0  0  0  0  0  0
    6.7090   -2.4300   18.7690 C   0  0  0  0  0  0  0  0  0  0  0  0
    5.8370   -2.6150   19.9440 C   0  0  0  0  0  0  0  0  0  0  0  0
    4.8060   -3.2290   19.8810 O   0  0  0  0  0  0  0  0  0  0  0  0
    6.3790   -2.0750   21.0770 N   0  0  0  0  0  0  0  0  0  0  0  0
    6.1430   -2.7420   22.3470 C   0  0  0  0  0  0  0  0  0  0  0  0
    7.4200   -2.9330   23.0960 C   0  0  0  0  0  0  0  0  0  0  0  0
    8.2720   -1.9040   23.3960 N   0  0  0  0  0  0  0  0  0  0  0  0
    9.5080   -2.4400   23.7090 C   0  0  0  0  0  0  0  0  0  0  0  0
   10.4730   -1.4510   23.5600 C   0  0  0  0  0  0  0  0  0  0  0  0
   11.7880   -1.8130   23.1420 C   0  0  0  0  0  0  0  0  0  0  0  0
   12.9120   -0.8350   22.9280 C   0  0  0  0  0  0  0  0  0  0  0  0
   12.6740    0.6330   23.1580 C   0  0  0  0  0  0  0  0  0  0  0  0
   11.2860    1.0070   23.5980 C   0  0  0  0  0  0  0  0  0  0  0  0
   10.8990    2.3160   23.8360 C   0  0  0  0  0  0  0  0  0  0  0  0
   10.2370   -0.0800   23.7870 C   0  0  0  0  0  0  0  0  0  0  0  0
    8.3050   -0.9700   22.3840 C   0  0  2  0  0  0  0  0  0  0  0  0
    7.6370    0.2350   22.7460 C   0  0  0  0  0  0  0  0  0  0  0  0
    8.0700    1.4310   22.1290 C   0  0  0  0  0  0  0  0  0  0  0  0
    7.9340    2.6150   22.9960 N   0  0  0  0  0  0  0  0  0  0  0  0
    8.4980    1.4320   20.9710 O   0  0  0  0  0  0  0  0  0  0  0  0
    7.7270   -1.4600   21.0280 C   0  0  0  0  0  0  0  0  0  0  0  0
  1  2  1  0
  2  3  1  0
  3  4  2  0
  3  5  1  0
  5  6  1  0
  6  7  1  0
  7  8  1  0
  8  9  1  0
  9 10  1  0
 10 11  2  0
 11 12  1  0
 12 13  2  0
 13 14  1  0
 14 15  1  0
 10 16  1  0
 14 16  2  0
  8 17  1  0
 17 18  1  1
 18 19  1  0
 19 20  1  0
 19 21  2  0
  5 22  1  0
 17 22  1  0
M  END
