STU-CHA-6d5cfe2b-1-chloroacetamide
     RDKit          3D

 28 30  0  0  0  0  0  0  0  0999 V2000
    7.1840   -3.0280   18.8510 C   0  0  0  0  0  0  0  0  0  0  0  0
    6.2420   -3.4070   19.9430 C   0  0  0  0  0  0  0  0  0  0  0  0
    5.3360   -4.2170   19.7730 O   0  0  0  0  0  0  0  0  0  0  0  0
    6.4540   -2.8190   21.1850 N   0  0  0  0  0  0  0  0  0  0  0  0
    6.2660   -3.5160   22.4680 C   0  0  0  0  0  0  0  0  0  0  0  0
    7.4410   -3.5850   23.2180 C   0  0  0  0  0  0  0  0  0  0  0  0
    8.1140   -2.2730   23.2790 N   0  0  0  0  0  0  0  0  0  0  0  0
    9.1630   -2.1550   24.2740 C   0  0  0  0  0  0  0  0  0  0  0  0
   10.2120   -1.3510   23.8510 C   0  0  0  0  0  0  0  0  0  0  0  0
   11.1340   -1.9810   22.8220 C   0  0  0  0  0  0  0  0  0  0  0  0
   12.2920   -1.1780   22.3170 C   0  0  0  0  0  0  0  0  0  0  0  0
   13.2940   -1.8560   21.1800 Cl  0  0  0  0  0  0  0  0  0  0  0  0
   12.4580    0.1920   22.8710 C   0  0  0  0  0  0  0  0  0  0  0  0
   11.5280    0.7950   23.8850 C   0  0  0  0  0  0  0  0  0  0  0  0
   10.4300   -0.0010   24.3400 C   0  0  0  0  0  0  0  0  0  0  0  0
    9.5900    0.5880   25.2700 C   0  0  0  0  0  0  0  0  0  0  0  0
    8.1840    0.4890   24.8990 N   0  0  0  0  0  0  0  0  0  0  0  0
    7.6740    1.5800   23.7260 S   0  0  0  0  0  0  0  0  0  0  0  0
    8.2230    1.1240   22.4670 O   0  0  0  0  0  0  0  0  0  0  0  0
    7.8530    2.9450   24.1510 O   0  0  0  0  0  0  0  0  0  0  0  0
    6.0320    1.2100   23.7110 N   0  0  0  0  0  0  0  0  0  0  0  0
    5.2380    1.8610   22.6790 C   0  0  0  0  0  0  0  0  0  0  0  0
    4.0610    1.1430   22.4740 C   0  0  0  0  0  0  0  0  0  0  0  0
    3.2670    1.0500   23.6640 O   0  0  0  0  0  0  0  0  0  0  0  0
    3.9920    0.5030   24.7730 C   0  0  0  0  0  0  0  0  0  0  0  0
    5.3810    1.1210   24.9260 C   0  0  0  0  0  0  0  0  0  0  0  0
    8.4800   -1.8150   21.9460 C   0  0  0  0  0  0  0  0  0  0  0  0
    7.3210   -1.6240   21.1960 C   0  0  0  0  0  0  0  0  0  0  0  0
  1  2  1  0
  2  3  2  0
  2  4  1  0
  4  5  1  0
  5  6  1  0
  6  7  1  0
  7  8  1  0
  8  9  1  0
  9 10  2  0
 10 11  1  0
 11 12  1  0
 11 13  2  0
 13 14  1  0
  9 15  1  0
 14 15  2  0
 15 16  1  0
 16 17  1  0
 18 17  1  0
 18 19  2  0
 18 20  2  0
 18 21  1  0
 21 22  1  0
 22 23  1  0
 23 24  1  0
 24 25  1  0
 21 26  1  0
 25 26  1  0
  7 27  1  0
  4 28  1  0
 27 28  1  0
M  END
