STU-CHA-464c0256-1-nitrile
     RDKit          3D

 22 23  0  0  0  0  0  0  0  0999 V2000
    6.6470   -3.8730   20.0490 C   0  0  0  0  0  0  0  0  0  0  0  0
    5.6160   -3.5440   19.3810 N   0  0  0  0  0  0  0  0  0  0  0  0
    7.0780   -3.0720   21.0590 N   0  0  0  0  0  0  0  0  0  0  0  0
    7.4840   -1.7030   20.8220 C   0  0  0  0  0  0  0  0  0  0  0  0
    8.4310   -1.2580   21.9110 C   0  0  0  0  0  0  0  0  0  0  0  0
    7.8810   -1.5320   23.3050 N   0  0  0  0  0  0  0  0  0  0  0  0
    8.1910   -0.7330   24.3960 C   0  0  0  0  0  0  0  0  0  0  0  0
    9.4010    0.1560   24.1080 C   0  0  0  0  0  0  0  0  0  0  0  0
    9.1090    1.6070   23.8070 C   0  0  0  0  0  0  0  0  0  0  0  0
   10.3480    2.4580   23.5040 C   0  0  0  0  0  0  0  0  0  0  0  0
   11.7280    1.8030   23.5260 C   0  0  0  0  0  0  0  0  0  0  0  0
   11.7940    0.3690   23.8510 N   0  0  0  0  0  0  0  0  0  0  0  0
   10.6950   -0.3680   24.1190 C   0  0  0  0  0  0  0  0  0  0  0  0
   10.8740   -1.5900   24.3790 N   0  0  0  0  0  0  0  0  0  0  0  0
   11.9610   -2.1170   23.5790 C   0  0  0  0  0  0  0  0  0  0  0  0
   11.6260   -2.1290   22.0950 C   0  0  0  0  0  0  0  0  0  0  0  0
   13.0630   -2.6180   21.3910 S   0  0  0  0  0  0  0  0  0  0  0  0
   12.7950   -3.8670   20.2980 N   0  0  0  0  0  0  0  0  0  0  0  0
   13.7080   -3.2250   22.5190 O   0  0  0  0  0  0  0  0  0  0  0  0
   13.6750   -1.5230   20.6720 O   0  0  0  0  0  0  0  0  0  0  0  0
    7.2960   -2.8750   23.4480 C   0  0  0  0  0  0  0  0  0  0  0  0
    6.4480   -3.2460   22.3830 C   0  0  0  0  0  0  0  0  0  0  0  0
  1  2  2  3
  1  3  1  0
  3  4  1  0
  4  5  1  0
  5  6  1  0
  6  7  1  0
  7  8  1  0
  8  9  2  0
  9 10  1  0
 10 11  2  0
 11 12  1  0
  8 13  1  0
 12 13  2  0
 13 14  1  0
 14 15  1  0
 15 16  1  0
 16 17  1  0
 17 18  1  0
 17 19  2  0
 17 20  2  0
  6 21  1  0
  3 22  1  0
 21 22  1  0
M  END
