STU-CHA-128b80be-1-acrylamide
     RDKit          3D

 32 34  0  0  0  0  0  0  0  0999 V2000
    7.7230   -3.2730   19.5270 C   0  0  0  0  0  0  0  0  0  0  0  0
    6.7250   -2.6190   18.6280 C   0  0  0  0  0  0  0  0  0  0  0  0
    5.5120   -2.8120   19.4280 C   0  0  0  0  0  0  0  0  0  0  0  0
    4.7030   -3.7400   19.3150 O   0  0  0  0  0  0  0  0  0  0  0  0
    5.4190   -1.8640   20.4960 C   0  0  0  0  0  0  0  0  0  0  0  0
    5.4950   -2.5670   21.6590 C   0  0  0  0  0  0  0  0  0  0  0  0
    4.7780   -3.8220   21.6680 O   0  0  0  0  0  0  0  0  0  0  0  0
    6.2770   -2.0750   22.6540 N   0  0  0  0  0  0  0  0  0  0  0  0
    7.5970   -1.5660   22.2890 C   0  0  0  0  0  0  0  0  0  0  0  0
    8.5060   -2.7680   22.3340 C   0  0  0  0  0  0  0  0  0  0  0  0
    8.5970   -3.1830   23.7320 N   0  0  0  0  0  0  0  0  0  0  0  0
    8.9870   -2.0520   24.4770 C   0  0  0  0  0  0  0  0  0  0  0  0
   10.1130   -1.2160   23.9260 C   0  0  0  0  0  0  0  0  0  0  0  0
   11.0820   -1.8230   22.9270 C   0  0  0  0  0  0  0  0  0  0  0  0
   12.1470   -1.0870   22.4220 C   0  0  0  0  0  0  0  0  0  0  0  0
   13.1970   -1.8430   21.3160 Cl  0  0  0  0  0  0  0  0  0  0  0  0
   12.2950    0.2180   22.8510 C   0  0  0  0  0  0  0  0  0  0  0  0
   11.4220    0.7940   23.7460 C   0  0  0  0  0  0  0  0  0  0  0  0
   10.3250    0.1270   24.3050 C   0  0  0  0  0  0  0  0  0  0  0  0
    9.4660    0.7720   25.2180 C   0  0  0  0  0  0  0  0  0  0  0  0
    8.1910    0.6910   24.7230 N   0  0  0  0  0  0  0  0  0  0  0  0
    7.3180    2.1200   24.5320 S   0  0  0  0  0  0  0  0  0  0  0  0
    7.8770    2.9000   23.4510 O   0  0  0  0  0  0  0  0  0  0  0  0
    7.0830    2.7090   25.8300 O   0  0  0  0  0  0  0  0  0  0  0  0
    5.8640    1.4580   23.9960 N   0  0  0  0  0  0  0  0  0  0  0  0
    4.9680    1.0830   24.9700 C   0  0  0  0  0  0  0  0  0  0  0  0
    3.4900    0.6950   24.7060 C   0  0  0  0  0  0  0  0  0  0  0  0
    3.0280    1.3890   23.5240 O   0  0  0  0  0  0  0  0  0  0  0  0
    3.9980    1.3960   22.4600 C   0  0  0  0  0  0  0  0  0  0  0  0
    5.2030    2.2100   22.8720 C   0  0  0  0  0  0  0  0  0  0  0  0
    7.3440   -3.7660   24.1860 C   0  0  0  0  0  0  0  0  0  0  0  0
    6.2030   -2.7720   23.9490 C   0  0  0  0  0  0  0  0  0  0  0  0
  1  2  1  0
  2  3  1  0
  3  4  2  0
  3  5  1  0
  5  6  1  0
  6  7  2  0
  6  8  1  0
  8  9  1  0
  9 10  1  0
 10 11  1  0
 11 12  1  0
 12 13  1  0
 13 14  2  0
 14 15  1  0
 15 16  1  0
 15 17  2  0
 17 18  1  0
 13 19  1  0
 18 19  2  0
 19 20  1  0
 20 21  1  0
 22 21  1  0
 22 23  2  0
 22 24  2  0
 22 25  1  0
 25 26  1  0
 26 27  1  0
 27 28  1  0
 28 29  1  0
 25 30  1  0
 29 30  1  0
 11 31  1  0
  8 32  1  0
 31 32  1  0
M  END
