STU-CHA-0be58c98-1-vinylsulfonamide
     RDKit          3D

 23 24  0  0  0  0  0  0  0  0999 V2000
    7.3990   -2.8920   18.2550 C   0  0  0  0  0  0  0  0  0  0  0  0
    6.3740   -2.2550   19.1760 C   0  0  0  0  0  0  0  0  0  0  0  0
    5.7140   -3.3380   20.3850 S   0  0  0  0  0  0  0  0  0  0  0  0
    4.6470   -2.8440   21.1260 O   0  0  0  0  0  0  0  0  0  0  0  0
    5.6630   -4.7060   19.9380 O   0  0  0  0  0  0  0  0  0  0  0  0
    6.8870   -2.9640   21.4650 N   0  0  0  0  0  0  0  0  0  0  0  0
    7.4870   -1.6660   21.2300 C   0  0  0  0  0  0  0  0  0  0  0  0
    8.7520   -1.5460   22.0350 C   0  0  0  0  0  0  0  0  0  0  0  0
    8.5990   -2.0640   23.4250 N   0  0  0  0  0  0  0  0  0  0  0  0
    9.6020   -2.0220   24.3680 C   0  0  0  0  0  0  0  0  0  0  0  0
   10.6030   -1.1850   23.9920 C   0  0  0  0  0  0  0  0  0  0  0  0
   11.8470   -1.6490   23.5740 C   0  0  0  0  0  0  0  0  0  0  0  0
   12.9090   -0.8320   23.1650 C   0  0  0  0  0  0  0  0  0  0  0  0
   12.8110    0.6610   23.1360 C   0  0  0  0  0  0  0  0  0  0  0  0
   11.4490    1.1630   23.5940 C   0  0  0  0  0  0  0  0  0  0  0  0
   11.1050    2.6450   23.6410 C   0  0  0  0  0  0  0  0  0  0  0  0
   10.3780    0.1870   24.0160 C   0  0  0  0  0  0  0  0  0  0  0  0
    7.6040   -3.1370   23.6800 C   0  0  2  0  0  0  0  0  0  0  0  0
    8.0650   -4.4340   23.5720 C   0  0  0  0  0  0  0  0  0  0  0  0
    7.0880   -5.4050   23.8750 C   0  0  0  0  0  0  0  0  0  0  0  0
    7.0730   -6.4720   22.8580 N   0  0  0  0  0  0  0  0  0  0  0  0
    6.3120   -5.4090   24.8260 O   0  0  0  0  0  0  0  0  0  0  0  0
    6.3580   -3.0420   22.8140 C   0  0  0  0  0  0  0  0  0  0  0  0
  1  2  1  0
  3  2  1  0
  3  4  2  0
  3  5  2  0
  3  6  1  0
  6  7  1  0
  7  8  1  0
  8  9  1  0
  9 10  1  0
 10 11  1  0
 11 12  2  0
 12 13  1  0
 13 14  2  0
 14 15  1  0
 15 16  1  0
 11 17  1  0
 15 17  2  0
  9 18  1  0
 18 19  1  6
 19 20  1  0
 20 21  1  0
 20 22  2  0
  6 23  1  0
 18 23  1  0
M  END
