STU-CHA-6cae54d3-1-vinylsulfonamide
     RDKit          3D

 29 31  0  0  0  0  0  0  0  0999 V2000
    8.0070   -3.4340   19.6580 C   0  0  0  0  0  0  0  0  0  0  0  0
    6.8610   -2.7800   18.9560 C   0  0  0  0  0  0  0  0  0  0  0  0
    5.6690   -3.4550   20.0050 S   0  0  0  0  0  0  0  0  0  0  0  0
    4.4260   -2.9450   19.6620 O   0  0  0  0  0  0  0  0  0  0  0  0
    5.7620   -4.8750   19.9960 O   0  0  0  0  0  0  0  0  0  0  0  0
    6.3070   -2.7710   21.4140 N   0  0  0  0  0  0  0  0  0  0  0  0
    5.9790   -3.3320   22.7210 C   0  0  0  0  0  0  0  0  0  0  0  0
    7.3420   -3.4980   23.3720 C   0  0  0  0  0  0  0  0  0  0  0  0
    7.9900   -2.1650   23.3460 N   0  0  0  0  0  0  0  0  0  0  0  0
    9.0880   -2.0410   24.3100 C   0  0  0  0  0  0  0  0  0  0  0  0
   10.1440   -0.9920   23.8980 C   0  0  0  0  0  0  0  0  0  0  0  0
   11.0400   -1.7880   23.0070 C   0  0  0  0  0  0  0  0  0  0  0  0
   12.2100   -0.9780   22.4580 C   0  0  0  0  0  0  0  0  0  0  0  0
   13.2780   -1.7740   21.4170 Cl  0  0  0  0  0  0  0  0  0  0  0  0
   12.3480    0.4930   22.8680 C   0  0  0  0  0  0  0  0  0  0  0  0
   11.3310    1.1260   23.7750 C   0  0  0  0  0  0  0  0  0  0  0  0
   10.2620    0.3510   24.2480 C   0  0  0  0  0  0  0  0  0  0  0  0
    9.2970    0.9030   25.0580 C   0  0  0  0  0  0  0  0  0  0  0  0
    8.2120    1.1880   25.3140 N   0  0  0  0  0  0  0  0  0  0  0  0
    7.4180    1.7820   24.2380 C   0  0  0  0  0  0  0  0  0  0  0  0
    7.8710    2.6940   23.5500 O   0  0  0  0  0  0  0  0  0  0  0  0
    6.1700    1.2790   24.0370 N   0  0  0  0  0  0  0  0  0  0  0  0
    5.3640    1.1550   25.1270 C   0  0  0  0  0  0  0  0  0  0  0  0
    4.1960    0.4280   24.8370 C   0  0  0  0  0  0  0  0  0  0  0  0
    3.4980    1.0410   23.7510 O   0  0  0  0  0  0  0  0  0  0  0  0
    4.3040    1.1220   22.5750 C   0  0  0  0  0  0  0  0  0  0  0  0
    5.4950    1.8390   22.8500 C   0  0  0  0  0  0  0  0  0  0  0  0
    8.2910   -1.8470   22.0490 C   0  0  0  0  0  0  0  0  0  0  0  0
    7.1360   -1.5460   21.3150 C   0  0  0  0  0  0  0  0  0  0  0  0
  1  2  1  0
  3  2  1  0
  3  4  2  0
  3  5  2  0
  3  6  1  0
  6  7  1  0
  7  8  1  0
  8  9  1  0
  9 10  1  0
 10 11  1  0
 11 12  2  0
 12 13  1  0
 13 14  1  0
 13 15  2  0
 15 16  1  0
 11 17  1  0
 16 17  2  0
 17 18  1  0
 18 19  1  0
 19 20  1  0
 20 21  2  0
 20 22  1  0
 22 23  1  0
 23 24  1  0
 24 25  1  0
 25 26  1  0
 22 27  1  0
 26 27  1  0
  9 28  1  0
  6 29  1  0
 28 29  1  0
M  END
