STU-CHA-0f79177c-1-acrylamide
     RDKit          3D

 25 27  0  0  0  0  0  0  0  0999 V2000
    7.9950   -3.3980   19.7090 C   0  0  0  0  0  0  0  0  0  0  0  0
    6.9050   -2.6650   19.0030 C   0  0  0  0  0  0  0  0  0  0  0  0
    5.8750   -2.9960   19.9900 C   0  0  0  0  0  0  0  0  0  0  0  0
    5.0540   -3.8890   19.7580 O   0  0  0  0  0  0  0  0  0  0  0  0
    6.0340   -2.2570   21.1520 N   0  0  0  0  0  0  0  0  0  0  0  0
    5.9870   -3.0280   22.4130 C   0  0  0  0  0  0  0  0  0  0  0  0
    7.3490   -3.2580   23.0760 C   0  0  0  0  0  0  0  0  0  0  0  0
    8.1050   -2.0000   23.2140 N   0  0  0  0  0  0  0  0  0  0  0  0
    9.3320   -2.1140   24.0300 C   0  0  0  0  0  0  0  0  0  0  0  0
   10.3580   -1.2130   23.7420 C   0  0  0  0  0  0  0  0  0  0  0  0
   11.7020   -1.8160   23.1250 C   0  0  0  0  0  0  0  0  0  0  0  0
   12.7300   -0.9040   22.8440 C   0  0  0  0  0  0  0  0  0  0  0  0
   12.5640    0.5860   23.1160 C   0  0  0  0  0  0  0  0  0  0  0  0
   11.2130    1.0610   23.7160 C   0  0  0  0  0  0  0  0  0  0  0  0
   10.8100    2.4260   24.0590 N   0  0  0  0  0  0  0  0  0  0  0  0
    9.4610    2.2230   24.5760 C   0  0  0  0  0  0  0  0  0  0  0  0
    8.6340    3.2230   25.0580 C   0  0  0  0  0  0  0  0  0  0  0  0
    7.6440    4.2190   23.9560 S   0  0  0  0  0  0  0  0  0  0  0  0
    6.7670    5.2090   24.9940 N   0  0  0  0  0  0  0  0  0  0  0  0
    8.5230    5.1250   23.2540 O   0  0  0  0  0  0  0  0  0  0  0  0
    6.7130    3.3520   23.2780 O   0  0  0  0  0  0  0  0  0  0  0  0
    9.1730    1.0810   24.5340 N   0  0  0  0  0  0  0  0  0  0  0  0
   10.2180    0.1670   23.9890 C   0  0  0  0  0  0  0  0  0  0  0  0
    8.3130   -1.4340   21.8700 C   0  0  0  0  0  0  0  0  0  0  0  0
    6.9720   -1.1170   21.1930 C   0  0  0  0  0  0  0  0  0  0  0  0
  1  2  1  0
  2  3  1  0
  3  4  2  0
  3  5  1  0
  5  6  1  0
  6  7  1  0
  7  8  1  0
  8  9  1  0
  9 10  1  0
 10 11  2  0
 11 12  1  0
 12 13  2  0
 13 14  1  0
 14 15  1  0
 15 16  2  0
 16 17  1  0
 17 18  1  0
 18 19  1  0
 18 20  2  0
 18 21  2  0
 16 22  1  0
 10 23  1  0
 14 23  2  0
 22 23  1  0
  8 24  1  0
  5 25  1  0
 24 25  1  0
M  END
