STU-CHA-6cae54d3-1-acrylamide
     RDKit          3D

 28 30  0  0  0  0  0  0  0  0999 V2000
    8.0830   -3.4100   19.7420 C   0  0  0  0  0  0  0  0  0  0  0  0
    6.9430   -2.7070   19.0840 C   0  0  0  0  0  0  0  0  0  0  0  0
    5.9240   -3.1230   20.0530 C   0  0  0  0  0  0  0  0  0  0  0  0
    5.0730   -3.9670   19.7610 O   0  0  0  0  0  0  0  0  0  0  0  0
    6.1010   -2.5420   21.2820 N   0  0  0  0  0  0  0  0  0  0  0  0
    6.8730   -1.2750   21.3450 C   0  0  0  0  0  0  0  0  0  0  0  0
    8.2560   -1.6500   21.9150 C   0  0  0  0  0  0  0  0  0  0  0  0
    7.9420   -2.2180   23.2650 N   0  0  0  0  0  0  0  0  0  0  0  0
    8.9920   -2.1220   24.2910 C   0  0  0  0  0  0  0  0  0  0  0  0
   10.1010   -1.1510   23.9150 C   0  0  0  0  0  0  0  0  0  0  0  0
   10.9970   -1.8410   22.9180 C   0  0  0  0  0  0  0  0  0  0  0  0
   12.2010   -1.1310   22.3720 C   0  0  0  0  0  0  0  0  0  0  0  0
   13.2110   -1.9000   21.2520 Cl  0  0  0  0  0  0  0  0  0  0  0  0
   12.3850    0.2750   22.9140 C   0  0  0  0  0  0  0  0  0  0  0  0
   11.4780    0.8390   23.8470 C   0  0  0  0  0  0  0  0  0  0  0  0
   10.3510    0.1460   24.3460 C   0  0  0  0  0  0  0  0  0  0  0  0
    9.5180    0.7760   25.2570 C   0  0  0  0  0  0  0  0  0  0  0  0
    8.1590    0.5350   24.8420 N   0  0  0  0  0  0  0  0  0  0  0  0
    7.4260    1.5210   24.0300 C   0  0  0  0  0  0  0  0  0  0  0  0
    7.9550    2.5420   23.6030 O   0  0  0  0  0  0  0  0  0  0  0  0
    6.1260    1.2230   23.7830 N   0  0  0  0  0  0  0  0  0  0  0  0
    5.4230    1.0980   24.9780 C   0  0  0  0  0  0  0  0  0  0  0  0
    4.1880    0.4640   24.7820 C   0  0  0  0  0  0  0  0  0  0  0  0
    3.4560    1.0380   23.7030 O   0  0  0  0  0  0  0  0  0  0  0  0
    4.1990    1.0590   22.4770 C   0  0  0  0  0  0  0  0  0  0  0  0
    5.3720    1.7940   22.6550 C   0  0  0  0  0  0  0  0  0  0  0  0
    7.3310   -3.4390   23.1550 C   0  0  0  0  0  0  0  0  0  0  0  0
    6.0650   -3.3080   22.5480 C   0  0  0  0  0  0  0  0  0  0  0  0
  1  2  1  0
  2  3  1  0
  3  4  2  0
  3  5  1  0
  5  6  1  0
  6  7  1  0
  7  8  1  0
  8  9  1  0
  9 10  1  0
 10 11  2  0
 11 12  1  0
 12 13  1  0
 12 14  2  0
 14 15  1  0
 10 16  1  0
 15 16  2  0
 16 17  1  0
 17 18  1  0
 18 19  1  0
 19 20  2  0
 19 21  1  0
 21 22  1  0
 22 23  1  0
 23 24  1  0
 24 25  1  0
 21 26  1  0
 25 26  1  0
  8 27  1  0
  5 28  1  0
 27 28  1  0
M  END
