STU-CHA-bc0a9883-1-chloroacetamide
     RDKit          3D

 26 28  0  0  0  0  0  0  0  0999 V2000
    7.1190   -2.9750   18.7570 C   0  0  0  0  0  0  0  0  0  0  0  0
    6.1640   -3.2660   19.8750 C   0  0  0  0  0  0  0  0  0  0  0  0
    5.3160   -4.1540   19.7270 O   0  0  0  0  0  0  0  0  0  0  0  0
    6.2790   -2.5630   21.0630 N   0  0  0  0  0  0  0  0  0  0  0  0
    6.0310   -3.1950   22.3570 C   0  0  0  0  0  0  0  0  0  0  0  0
    7.3210   -3.3650   23.1600 C   0  0  0  0  0  0  0  0  0  0  0  0
    8.1470   -2.1360   23.1430 N   0  0  0  0  0  0  0  0  0  0  0  0
    9.1940   -2.1740   24.1650 C   0  0  0  0  0  0  0  0  0  0  0  0
   10.3540   -1.2710   23.7840 C   0  0  0  0  0  0  0  0  0  0  0  0
   11.5130   -1.7890   23.2230 C   0  0  0  0  0  0  0  0  0  0  0  0
   12.6490   -0.7710   22.8460 C   0  0  0  0  0  0  0  0  0  0  0  0
   13.7540   -1.2340   22.2960 F   0  0  0  0  0  0  0  0  0  0  0  0
   12.4660    0.5760   23.0870 C   0  0  0  0  0  0  0  0  0  0  0  0
   11.1520    1.0100   23.7000 C   0  0  0  0  0  0  0  0  0  0  0  0
   10.8300    2.5640   23.9980 C   0  0  0  0  0  0  0  0  0  0  0  0
   10.0100    3.7550   24.4650 C   0  0  0  0  0  0  0  0  0  0  0  0
   10.3300    5.0800   24.2230 C   0  0  0  0  0  0  0  0  0  0  0  0
   11.3720    5.7390   24.8130 N   0  0  0  0  0  0  0  0  0  0  0  0
   11.0850    6.0990   26.1110 C   0  0  0  0  0  0  0  0  0  0  0  0
   11.9040    7.1020   26.5720 C   0  0  0  0  0  0  0  0  0  0  0  0
   10.0980    5.5510   26.8950 O   0  0  0  0  0  0  0  0  0  0  0  0
    9.5260    2.2370   24.5260 C   0  0  0  0  0  0  0  0  0  0  0  0
    9.2140    0.9230   24.5240 N   0  0  0  0  0  0  0  0  0  0  0  0
   10.2120    0.0980   24.0020 C   0  0  0  0  0  0  0  0  0  0  0  0
    8.3580   -1.7370   21.7480 C   0  0  0  0  0  0  0  0  0  0  0  0
    7.1430   -1.3720   21.1450 C   0  0  0  0  0  0  0  0  0  0  0  0
  1  2  1  0
  2  3  2  0
  2  4  1  0
  4  5  1  0
  5  6  1  0
  6  7  1  0
  7  8  1  0
  8  9  1  0
  9 10  2  0
 10 11  1  0
 11 12  1  0
 11 13  2  0
 13 14  1  0
 14 15  1  0
 15 16  1  0
 16 17  1  0
 17 18  1  0
 18 19  1  0
 19 20  1  0
 19 21  2  0
 15 22  2  0
 22 23  1  0
  9 24  1  0
 14 24  2  0
 23 24  1  0
  7 25  1  0
  4 26  1  0
 25 26  1  0
M  END
