STU-CHA-83dacf15-2-vinylsulfonamide
     RDKit          3D

 26 28  0  0  0  0  0  0  0  0999 V2000
    6.4500   -3.8930   19.7580 C   0  0  0  0  0  0  0  0  0  0  0  0
    6.8580   -3.0700   20.9610 C   0  0  0  0  0  0  0  0  0  0  0  0
    5.8340   -3.4460   22.3580 S   0  0  0  0  0  0  0  0  0  0  0  0
    4.4520   -3.2450   22.0210 O   0  0  0  0  0  0  0  0  0  0  0  0
    6.2370   -4.7450   22.8650 O   0  0  0  0  0  0  0  0  0  0  0  0
    6.3010   -2.3030   23.4860 N   0  0  0  0  0  0  0  0  0  0  0  0
    6.8150   -1.0450   22.9800 C   0  0  0  0  0  0  0  0  0  0  0  0
    8.3380   -0.9070   23.2160 C   0  0  0  0  0  0  0  0  0  0  0  0
    9.0310   -2.2530   23.1230 C   0  0  0  0  0  0  0  0  0  0  0  0
   10.4160   -2.3600   23.3890 C   0  0  0  0  0  0  0  0  0  0  0  0
   11.1900   -1.2850   23.6700 N   0  0  0  0  0  0  0  0  0  0  0  0
   12.2590   -1.1090   22.6830 C   0  0  0  0  0  0  0  0  0  0  0  0
   13.0920   -0.0660   23.0630 C   0  0  0  0  0  0  0  0  0  0  0  0
   12.4490    1.1650   23.1730 C   0  0  0  0  0  0  0  0  0  0  0  0
   13.0100    2.3960   22.8360 C   0  0  0  0  0  0  0  0  0  0  0  0
   12.3020    3.5900   22.9700 C   0  0  0  0  0  0  0  0  0  0  0  0
   11.0090    3.5200   23.4640 C   0  0  0  0  0  0  0  0  0  0  0  0
   10.1440    5.0780   23.6300 S   0  0  0  0  0  0  0  0  0  0  0  0
   11.3030    6.1710   23.0850 N   0  0  0  0  0  0  0  0  0  0  0  0
    9.0300    5.0970   22.7200 O   0  0  0  0  0  0  0  0  0  0  0  0
    9.9180    5.4420   25.0060 O   0  0  0  0  0  0  0  0  0  0  0  0
   10.4750    2.2840   23.7960 C   0  0  0  0  0  0  0  0  0  0  0  0
   11.1640    1.0960   23.6620 C   0  0  0  0  0  0  0  0  0  0  0  0
   10.5400   -0.0880   24.0170 C   0  0  0  0  0  0  0  0  0  0  0  0
    8.3360   -3.2900   23.7390 C   0  0  0  0  0  0  0  0  0  0  0  0
    7.2110   -2.8780   24.4380 C   0  0  0  0  0  0  0  0  0  0  0  0
  1  2  1  0
  3  2  1  0
  3  4  2  0
  3  5  2  0
  3  6  1  0
  6  7  1  0
  7  8  1  0
  8  9  1  0
  9 10  1  0
 10 11  1  0
 11 12  1  0
 12 13  1  0
 13 14  1  0
 14 15  2  0
 15 16  1  0
 16 17  2  0
 17 18  1  0
 18 19  1  0
 18 20  2  0
 18 21  2  0
 17 22  1  0
 14 23  1  0
 22 23  2  0
 11 24  1  0
 23 24  1  0
  9 25  1  0
  6 26  1  0
 25 26  1  0
M  END
