STU-CHA-0f79177c-1-nitrile
     RDKit          3D

 23 25  0  0  0  0  0  0  0  0999 V2000
    6.8670   -3.4350   19.6570 C   0  0  0  0  0  0  0  0  0  0  0  0
    6.3510   -3.0240   18.5670 N   0  0  0  0  0  0  0  0  0  0  0  0
    6.7550   -2.6990   20.8230 N   0  0  0  0  0  0  0  0  0  0  0  0
    6.2010   -3.2330   22.0980 C   0  0  0  0  0  0  0  0  0  0  0  0
    7.3670   -3.3940   23.1270 C   0  0  0  0  0  0  0  0  0  0  0  0
    8.2220   -2.1920   23.1520 N   0  0  0  0  0  0  0  0  0  0  0  0
    9.3730   -2.2550   24.0490 C   0  0  0  0  0  0  0  0  0  0  0  0
   10.5070   -1.2930   23.7410 C   0  0  0  0  0  0  0  0  0  0  0  0
   11.8190   -1.7930   23.2260 C   0  0  0  0  0  0  0  0  0  0  0  0
   12.8660   -0.9830   22.9340 C   0  0  0  0  0  0  0  0  0  0  0  0
   12.6980    0.5640   23.1430 C   0  0  0  0  0  0  0  0  0  0  0  0
   11.5290    1.1920   23.6160 C   0  0  0  0  0  0  0  0  0  0  0  0
   10.9970    2.2270   23.9010 N   0  0  0  0  0  0  0  0  0  0  0  0
    9.7530    2.2210   24.3370 C   0  0  0  0  0  0  0  0  0  0  0  0
    8.7460    3.3630   24.7970 C   0  0  0  0  0  0  0  0  0  0  0  0
    8.0320    4.3750   23.5210 S   0  0  0  0  0  0  0  0  0  0  0  0
    9.3480    5.2880   22.9720 N   0  0  0  0  0  0  0  0  0  0  0  0
    7.6690    3.5560   22.3890 O   0  0  0  0  0  0  0  0  0  0  0  0
    7.0780    5.2980   24.0980 O   0  0  0  0  0  0  0  0  0  0  0  0
    9.3600    0.8830   24.3550 N   0  0  0  0  0  0  0  0  0  0  0  0
   10.4640    0.2030   23.8990 C   0  0  0  0  0  0  0  0  0  0  0  0
    8.5570   -1.7890   21.7700 C   0  0  0  0  0  0  0  0  0  0  0  0
    7.4110   -1.5730   20.9610 C   0  0  0  0  0  0  0  0  0  0  0  0
  1  2  2  3
  1  3  1  0
  3  4  1  0
  4  5  1  0
  5  6  1  0
  6  7  1  0
  7  8  1  0
  8  9  2  0
  9 10  1  0
 10 11  2  0
 11 12  1  0
 12 13  1  0
 13 14  2  0
 14 15  1  0
 15 16  1  0
 16 17  1  0
 16 18  2  0
 16 19  2  0
 14 20  1  0
  8 21  1  0
 12 21  2  0
 20 21  1  0
  6 22  1  0
  3 23  1  0
 22 23  1  0
M  END
