STU-CHA-545e7bd3-2-nitrile
     RDKit          3D

 23 25  0  0  0  0  0  0  0  0999 V2000
    6.7670   -3.2830   19.5280 C   0  0  0  0  0  0  0  0  0  0  0  0
    5.9690   -3.0490   18.5720 N   0  0  0  0  0  0  0  0  0  0  0  0
    6.6500   -2.6820   20.7720 N   0  0  0  0  0  0  0  0  0  0  0  0
    7.2740   -1.3610   20.9880 C   0  0  0  0  0  0  0  0  0  0  0  0
    8.4660   -1.5170   21.9830 C   0  0  0  0  0  0  0  0  0  0  0  0
    8.1080   -2.1930   23.2600 N   0  0  0  0  0  0  0  0  0  0  0  0
    9.3320   -2.3770   24.0690 C   0  0  2  0  0  0  0  0  0  0  0  0
   10.3540   -1.2620   23.9250 C   0  0  0  0  0  0  0  0  0  0  0  0
   11.7650   -1.7040   23.5270 C   0  0  0  0  0  0  0  0  0  0  0  0
   12.7350   -0.7680   23.3310 N   0  0  0  0  0  0  0  0  0  0  0  0
   12.4360    0.5650   23.2730 C   0  0  0  0  0  0  0  0  0  0  0  0
   13.2940    1.5130   22.8160 O   0  0  0  0  0  0  0  0  0  0  0  0
   11.0230    1.0140   23.7550 C   0  0  0  0  0  0  0  0  0  0  0  0
   10.8720    2.3680   23.8000 C   0  0  0  0  0  0  0  0  0  0  0  0
   10.0360    0.0810   24.0830 C   0  0  0  0  0  0  0  0  0  0  0  0
    9.9190   -3.6850   23.5510 C   0  0  0  0  0  0  0  0  0  0  0  0
    9.1710   -4.4750   24.5840 C   0  0  1  0  0  0  0  0  0  0  0  0
    9.3980   -4.7350   25.9250 C   0  0  0  0  0  0  0  0  0  0  0  0
    9.2460   -4.9930   27.0410 N   0  0  0  0  0  0  0  0  0  0  0  0
   10.8340   -4.6750   25.8070 O   0  0  0  0  0  0  0  0  0  0  0  0
    9.1170   -3.2050   25.4100 C   0  0  0  0  0  0  0  0  0  0  0  0
    7.3430   -3.4490   23.0290 C   0  0  0  0  0  0  0  0  0  0  0  0
    6.2110   -3.3500   22.0030 C   0  0  0  0  0  0  0  0  0  0  0  0
  1  2  2  3
  1  3  1  0
  3  4  1  0
  4  5  1  0
  5  6  1  0
  6  7  1  0
  7  8  1  1
  8  9  2  0
  9 10  1  0
 10 11  1  0
 11 12  2  0
 11 13  1  0
 13 14  1  0
  8 15  1  0
 13 15  2  0
  7 16  1  0
 16 17  1  0
 17 18  1  1
 18 19  1  0
 18 20  2  0
  7 21  1  0
 17 21  1  0
  6 22  1  0
  3 23  1  0
 22 23  1  0
M  END
