STU-CHA-464c0256-1-nitrile
     RDKit          3D

 22 23  0  0  0  0  0  0  0  0999 V2000
    6.8620   -3.3730   19.6130 C   0  0  0  0  0  0  0  0  0  0  0  0
    5.9920   -3.1450   18.7070 N   0  0  0  0  0  0  0  0  0  0  0  0
    6.8470   -2.7330   20.8230 N   0  0  0  0  0  0  0  0  0  0  0  0
    7.1670   -1.4370   20.9410 C   0  0  0  0  0  0  0  0  0  0  0  0
    8.0400   -1.0410   22.1310 C   0  0  0  0  0  0  0  0  0  0  0  0
    7.7270   -1.6520   23.3270 N   0  0  0  0  0  0  0  0  0  0  0  0
    8.6990   -1.5310   24.4220 C   0  0  0  0  0  0  0  0  0  0  0  0
    9.8470   -0.5940   24.1240 C   0  0  0  0  0  0  0  0  0  0  0  0
    9.7470    0.7890   24.1340 C   0  0  0  0  0  0  0  0  0  0  0  0
   10.8080    1.6380   23.8560 C   0  0  0  0  0  0  0  0  0  0  0  0
   12.0200    1.0380   23.5510 C   0  0  0  0  0  0  0  0  0  0  0  0
   12.1770   -0.3050   23.5280 N   0  0  0  0  0  0  0  0  0  0  0  0
   11.0940   -1.0750   23.8190 C   0  0  0  0  0  0  0  0  0  0  0  0
   11.2780   -2.4340   23.8170 N   0  0  0  0  0  0  0  0  0  0  0  0
   12.6020   -2.6520   24.3250 C   0  0  0  0  0  0  0  0  0  0  0  0
   13.5120   -2.4560   23.2920 C   0  0  0  0  0  0  0  0  0  0  0  0
   12.8370   -2.3110   21.7230 S   0  0  0  0  0  0  0  0  0  0  0  0
   13.4100   -3.6110   20.8560 N   0  0  0  0  0  0  0  0  0  0  0  0
   11.4060   -2.4270   21.7310 O   0  0  0  0  0  0  0  0  0  0  0  0
   13.5020   -1.1800   21.1240 O   0  0  0  0  0  0  0  0  0  0  0  0
    7.2780   -2.9820   23.1140 C   0  0  0  0  0  0  0  0  0  0  0  0
    6.4100   -3.2890   22.0500 C   0  0  0  0  0  0  0  0  0  0  0  0
  1  2  2  3
  1  3  1  0
  3  4  1  0
  4  5  1  0
  5  6  1  0
  6  7  1  0
  7  8  1  0
  8  9  2  0
  9 10  1  0
 10 11  2  0
 11 12  1  0
  8 13  1  0
 12 13  2  0
 13 14  1  0
 14 15  1  0
 15 16  1  0
 16 17  1  0
 17 18  1  0
 17 19  2  0
 17 20  2  0
  6 21  1  0
  3 22  1  0
 21 22  1  0
M  END
