STU-CHA-6d5cfe2b-1-vinylsulfonamide
     RDKit          3D

 30 32  0  0  0  0  0  0  0  0999 V2000
    7.2800   -2.8570   18.3990 C   0  0  0  0  0  0  0  0  0  0  0  0
    6.3030   -2.3490   19.4560 C   0  0  0  0  0  0  0  0  0  0  0  0
    5.7430   -3.5480   20.6270 S   0  0  0  0  0  0  0  0  0  0  0  0
    4.6850   -2.9990   21.4090 O   0  0  0  0  0  0  0  0  0  0  0  0
    5.5840   -4.8520   20.0110 O   0  0  0  0  0  0  0  0  0  0  0  0
    7.0070   -3.4400   21.7040 N   0  0  0  0  0  0  0  0  0  0  0  0
    7.5640   -2.0890   21.6490 C   0  0  0  0  0  0  0  0  0  0  0  0
    8.6430   -2.0390   22.4430 C   0  0  0  0  0  0  0  0  0  0  0  0
    8.2520   -2.3050   23.8200 N   0  0  0  0  0  0  0  0  0  0  0  0
    9.3670   -2.0460   24.6620 C   0  0  0  0  0  0  0  0  0  0  0  0
   10.2980   -1.2400   24.0690 C   0  0  0  0  0  0  0  0  0  0  0  0
   11.2350   -1.9070   23.0880 C   0  0  0  0  0  0  0  0  0  0  0  0
   12.2900   -1.1120   22.3910 C   0  0  0  0  0  0  0  0  0  0  0  0
   13.2840   -1.8730   21.2950 Cl  0  0  0  0  0  0  0  0  0  0  0  0
   12.3570    0.3390   22.7440 C   0  0  0  0  0  0  0  0  0  0  0  0
   11.3950    0.9580   23.7210 C   0  0  0  0  0  0  0  0  0  0  0  0
   10.3920    0.1660   24.3500 C   0  0  0  0  0  0  0  0  0  0  0  0
    9.5260    0.7910   25.2240 C   0  0  0  0  0  0  0  0  0  0  0  0
    8.1410    0.7140   24.7540 N   0  0  0  0  0  0  0  0  0  0  0  0
    7.5240    2.0660   23.9800 S   0  0  0  0  0  0  0  0  0  0  0  0
    7.6630    3.2040   24.8510 O   0  0  0  0  0  0  0  0  0  0  0  0
    8.0730    2.0540   22.6390 O   0  0  0  0  0  0  0  0  0  0  0  0
    5.9100    1.6250   23.9080 N   0  0  0  0  0  0  0  0  0  0  0  0
    5.1290    2.2130   22.8300 C   0  0  0  0  0  0  0  0  0  0  0  0
    3.9990    1.4230   22.6150 C   0  0  0  0  0  0  0  0  0  0  0  0
    3.1690    1.2350   23.6950 O   0  0  0  0  0  0  0  0  0  0  0  0
    3.8530    0.8770   24.9080 C   0  0  0  0  0  0  0  0  0  0  0  0
    5.2070    1.5550   25.0880 C   0  0  0  0  0  0  0  0  0  0  0  0
    7.6930   -3.6510   23.9930 C   0  0  0  0  0  0  0  0  0  0  0  0
    6.7000   -3.9420   23.0480 C   0  0  0  0  0  0  0  0  0  0  0  0
  1  2  1  0
  3  2  1  0
  3  4  2  0
  3  5  2  0
  3  6  1  0
  6  7  1  0
  7  8  1  0
  8  9  1  0
  9 10  1  0
 10 11  1  0
 11 12  2  0
 12 13  1  0
 13 14  1  0
 13 15  2  0
 15 16  1  0
 11 17  1  0
 16 17  2  0
 17 18  1  0
 18 19  1  0
 20 19  1  0
 20 21  2  0
 20 22  2  0
 20 23  1  0
 23 24  1  0
 24 25  1  0
 25 26  1  0
 26 27  1  0
 23 28  1  0
 27 28  1  0
  9 29  1  0
  6 30  1  0
 29 30  1  0
M  END
