STU-CHA-128b80be-2-nitrile
     RDKit          3D

 27 29  0  0  0  0  0  0  0  0999 V2000
    6.5160   -3.9660   20.0260 C   0  0  0  0  0  0  0  0  0  0  0  0
    5.6820   -4.9490   20.0080 N   0  0  0  0  0  0  0  0  0  0  0  0
    6.4410   -3.0200   21.0220 N   0  0  0  0  0  0  0  0  0  0  0  0
    6.1310   -3.5310   22.3690 C   0  0  0  0  0  0  0  0  0  0  0  0
    7.2890   -3.5460   23.1440 C   0  0  0  0  0  0  0  0  0  0  0  0
    7.9570   -2.2350   23.2140 N   0  0  0  0  0  0  0  0  0  0  0  0
    9.0090   -2.1500   24.1960 C   0  0  0  0  0  0  0  0  0  0  0  0
   10.0680   -1.3410   23.8190 C   0  0  0  0  0  0  0  0  0  0  0  0
   10.9580   -1.9310   22.9030 C   0  0  0  0  0  0  0  0  0  0  0  0
   12.1890   -1.2070   22.3680 C   0  0  0  0  0  0  0  0  0  0  0  0
   13.2030   -1.9870   21.2580 Cl  0  0  0  0  0  0  0  0  0  0  0  0
   12.4350    0.1960   22.8670 C   0  0  0  0  0  0  0  0  0  0  0  0
   11.4650    0.7720   23.8250 C   0  0  0  0  0  0  0  0  0  0  0  0
   10.2560    0.0000   24.3140 C   0  0  0  0  0  0  0  0  0  0  0  0
    9.4010    0.6580   25.2210 C   0  0  0  0  0  0  0  0  0  0  0  0
    8.0010    0.7180   24.7700 N   0  0  0  0  0  0  0  0  0  0  0  0
    7.4120    2.0840   23.9970 S   0  0  0  0  0  0  0  0  0  0  0  0
    7.6420    3.2360   24.8420 O   0  0  0  0  0  0  0  0  0  0  0  0
    7.9470    2.0450   22.6520 O   0  0  0  0  0  0  0  0  0  0  0  0
    5.7730    1.7360   23.9220 N   0  0  0  0  0  0  0  0  0  0  0  0
    5.0130    2.2700   22.9100 C   0  0  0  0  0  0  0  0  0  0  0  0
    3.9800    1.4050   22.5920 C   0  0  0  0  0  0  0  0  0  0  0  0
    3.1670    1.1690   23.7610 O   0  0  0  0  0  0  0  0  0  0  0  0
    3.9920    0.6650   24.8240 C   0  0  0  0  0  0  0  0  0  0  0  0
    5.0730    1.5370   25.0970 C   0  0  0  0  0  0  0  0  0  0  0  0
    8.3110   -1.7700   21.9820 C   0  0  0  0  0  0  0  0  0  0  0  0
    7.1100   -1.7120   21.0040 C   0  0  0  0  0  0  0  0  0  0  0  0
  1  2  2  3
  1  3  1  0
  3  4  1  0
  4  5  1  0
  5  6  1  0
  6  7  1  0
  7  8  1  0
  8  9  2  0
  9 10  1  0
 10 11  1  0
 10 12  2  0
 12 13  1  0
  8 14  1  0
 13 14  2  0
 14 15  1  0
 15 16  1  0
 17 16  1  0
 17 18  2  0
 17 19  2  0
 17 20  1  0
 20 21  1  0
 21 22  1  0
 22 23  1  0
 23 24  1  0
 20 25  1  0
 24 25  1  0
  6 26  1  0
  3 27  1  0
 26 27  1  0
M  END
