SUG-SAT-424020ef-1
     RDKit          3D

 11 11  0  0  0  0  0  0  0  0999 V2000
    0.7290    2.0110   20.8370 C   0  0  0  0  0  0  0  0  0  0  0  0
    1.8440    2.1440   19.9550 C   0  0  0  0  0  0  0  0  0  0  0  0
    3.0460    3.0370   20.3180 C   0  0  0  0  0  0  0  0  0  0  0  0
    2.7620    4.2260   20.9200 N   0  0  0  0  0  0  0  0  0  0  0  0
    4.3050    2.7780   20.1150 N   0  0  0  0  0  0  0  0  0  0  0  0
    4.8600    1.6270   19.5180 C   0  0  0  0  0  0  0  0  0  0  0  0
    5.1300    0.3170   20.2950 C   0  0  0  0  0  0  0  0  0  0  0  0
    5.6790   -0.7970   19.7820 N   0  0  0  0  0  0  0  0  0  0  0  0
    5.9930   -0.6740   18.4850 C   0  0  0  0  0  0  0  0  0  0  0  0
    5.8210    0.3980   17.6780 N   0  0  0  0  0  0  0  0  0  0  0  0
    5.2550    1.5140   18.2020 C   0  0  0  0  0  0  0  0  0  0  0  0
  1  2  1  0
  2  3  1  0
  3  4  1  0
  3  5  2  3
  5  6  1  0
  6  7  2  0
  7  8  1  0
  8  9  2  0
  9 10  1  0
  6 11  1  0
 10 11  2  0
M  END
