SUN-WAB-e274cdaf-1
     RDKit          3D

 32 35  0  0  0  0  0  0  0  0999 V2000
    8.4640    1.8780   21.3960 C   0  0  0  0  0  0  0  0  0  0  0  0
    8.2750    0.5600   22.0570 C   0  0  1  0  0  0  0  0  0  0  0  0
    8.0600   -0.5610   21.2220 C   0  0  0  0  0  0  0  0  0  0  0  0
    7.2870   -0.2700   20.1220 C   0  0  0  0  0  0  0  0  0  0  0  0
    7.4570   -0.6650   18.8130 C   0  0  0  0  0  0  0  0  0  0  0  0
    6.4980   -0.1270   18.0350 N   0  0  0  0  0  0  0  0  0  0  0  0
    5.6740    0.6100   18.8200 C   0  0  0  0  0  0  0  0  0  0  0  0
    4.5660    1.3480   18.5440 C   0  0  0  0  0  0  0  0  0  0  0  0
    3.8760    2.0110   19.5250 C   0  0  0  0  0  0  0  0  0  0  0  0
    4.2780    1.9670   20.8490 C   0  0  0  0  0  0  0  0  0  0  0  0
    5.4240    1.2220   21.1570 C   0  0  0  0  0  0  0  0  0  0  0  0
    6.1220    0.5430   20.1390 C   0  0  0  0  0  0  0  0  0  0  0  0
    9.3910    0.4180   23.0940 C   0  0  0  0  0  0  0  0  0  0  0  0
    9.3480   -0.4260   23.9540 O   0  0  0  0  0  0  0  0  0  0  0  0
   10.4170    1.3540   23.0410 N   0  0  0  0  0  0  0  0  0  0  0  0
   11.7680    0.9230   23.3420 C   0  0  0  0  0  0  0  0  0  0  0  0
   11.7400   -0.2590   24.0490 C   0  0  2  0  0  0  0  0  0  0  0  0
   12.9160   -0.7630   24.5720 C   0  0  0  0  0  0  0  0  0  0  0  0
   11.1990   -1.3080   23.0990 C   0  0  1  0  0  0  0  0  0  0  0  0
   12.3240   -2.2780   23.0310 C   0  0  0  0  0  0  0  0  0  0  0  0
   12.0990   -3.1340   21.8650 C   0  0  0  0  0  0  0  0  0  0  0  0
   10.7110   -3.2050   21.3750 C   0  0  0  0  0  0  0  0  0  0  0  0
   10.5750   -4.1200   20.1920 C   0  0  0  0  0  0  0  0  0  0  0  0
   11.6230   -4.7810   19.6850 C   0  0  0  0  0  0  0  0  0  0  0  0
   12.8710   -4.6350   20.2290 C   0  0  0  0  0  0  0  0  0  0  0  0
   13.0800   -3.8230   21.2820 C   0  0  0  0  0  0  0  0  0  0  0  0
    9.7530   -1.7260   23.4460 C   0  0  0  0  0  0  0  0  0  0  0  0
    8.8740   -2.3450   22.5390 C   0  0  0  0  0  0  0  0  0  0  0  0
    7.5670   -2.6800   22.9110 C   0  0  0  0  0  0  0  0  0  0  0  0
    7.1040   -2.4100   24.1850 C   0  0  0  0  0  0  0  0  0  0  0  0
    7.9430   -1.8040   25.1000 C   0  0  0  0  0  0  0  0  0  0  0  0
    9.2560   -1.4660   24.7430 C   0  0  0  0  0  0  0  0  0  0  0  0
  2  1  1  6
  2  3  1  0
  3  4  1  0
  4  5  2  0
  5  6  1  0
  6  7  1  0
  7  8  1  0
  8  9  2  0
  9 10  1  0
 10 11  2  0
  4 12  1  0
  7 12  2  0
 11 12  1  0
  2 13  1  0
 13 14  2  0
 13 15  1  0
 15 16  1  0
 16 17  1  0
 17 18  1  6
 17 19  1  0
 19 20  1  1
 20 21  1  0
 21 22  2  0
 22 23  1  0
 23 24  2  0
 24 25  1  0
 21 26  1  0
 25 26  2  0
 19 27  1  0
 27 28  2  0
 28 29  1  0
 29 30  2  0
 30 31  1  0
 27 32  1  0
 31 32  2  0
M  END
