TAM-UNI-d1c3dd9f-18-nitrile
     RDKit          3D

 21 22  0  0  0  0  0  0  0  0999 V2000
    6.6660   -3.7210   19.8080 C   0  0  0  0  0  0  0  0  0  0  0  0
    5.4910   -3.5540   19.3350 N   0  0  0  0  0  0  0  0  0  0  0  0
    7.3670   -2.7090   20.4470 N   0  0  0  0  0  0  0  0  0  0  0  0
    8.5640   -2.8900   21.2700 C   0  0  0  0  0  0  0  0  0  0  0  0
    8.9540   -1.6030   21.9770 C   0  0  0  0  0  0  0  0  0  0  0  0
    7.7920   -0.8690   22.5260 N   0  0  0  0  0  0  0  0  0  0  0  0
    7.0320   -1.6670   23.5450 C   0  0  0  0  0  0  0  0  0  0  0  0
    7.8180   -2.8200   24.1690 C   0  0  0  0  0  0  0  0  0  0  0  0
    9.1540   -2.5390   24.8860 C   0  0  0  0  0  0  0  0  0  0  0  0
    9.7920   -3.7650   25.4490 C   0  0  0  0  0  0  0  0  0  0  0  0
   10.8330   -4.3490   26.1490 C   0  0  0  0  0  0  0  0  0  0  0  0
   10.1550   -4.9960   27.2840 N   0  0  0  0  0  0  0  0  0  0  0  0
    9.2310   -5.1160   25.3360 C   0  0  0  0  0  0  0  0  0  0  0  0
    8.0310   -5.2270   24.6660 C   0  0  0  0  0  0  0  0  0  0  0  0
    7.3180   -4.1620   24.0980 C   0  0  0  0  0  0  0  0  0  0  0  0
    6.1280   -4.4700   23.4860 N   0  0  0  0  0  0  0  0  0  0  0  0
    4.8520   -3.9380   23.9140 C   0  0  0  0  0  0  0  0  0  0  0  0
    4.2790   -3.1850   22.9130 C   0  0  0  0  0  0  0  0  0  0  0  0
    4.2950   -4.0950   24.9910 O   0  0  0  0  0  0  0  0  0  0  0  0
    6.9210   -0.5070   21.4720 C   0  0  0  0  0  0  0  0  0  0  0  0
    7.0010   -1.3140   20.1550 C   0  0  0  0  0  0  0  0  0  0  0  0
  1  2  2  3
  1  3  1  0
  3  4  1  0
  4  5  1  0
  5  6  1  0
  6  7  1  0
  7  8  1  0
  8  9  2  0
  9 10  1  0
 10 11  1  0
 11 12  3  0
 10 13  2  0
 13 14  1  0
  8 15  1  0
 14 15  2  0
 15 16  1  0
 16 17  1  0
 17 18  1  0
 17 19  2  0
  6 20  1  0
  3 21  1  0
 20 21  1  0
M  END
