TAM-UNI-d1c3dd9f-9-nitrile
     RDKit          3D

 23 25  0  0  0  0  0  0  0  0999 V2000
    7.2330   -3.4950   19.9150 C   0  0  0  0  0  0  0  0  0  0  0  0
    5.9950   -3.7430   19.5540 N   0  0  0  0  0  0  0  0  0  0  0  0
    7.6430   -2.5040   20.8240 N   0  0  0  0  0  0  0  0  0  0  0  0
    8.8620   -2.6080   21.6880 C   0  0  0  0  0  0  0  0  0  0  0  0
    9.2730   -1.2660   22.2860 C   0  0  0  0  0  0  0  0  0  0  0  0
    8.2140   -0.6980   22.8910 N   0  0  0  0  0  0  0  0  0  0  0  0
    7.6660   -1.2530   24.0680 C   0  0  0  0  0  0  0  0  0  0  0  0
    8.3070   -2.3630   24.6290 C   0  0  0  0  0  0  0  0  0  0  0  0
    9.6810   -2.3540   24.9500 C   0  0  0  0  0  0  0  0  0  0  0  0
   10.3770   -3.4220   25.5110 C   0  0  0  0  0  0  0  0  0  0  0  0
    9.6740   -4.7370   25.8370 C   0  0  0  0  0  0  0  0  0  0  0  0
    8.1710   -4.7930   25.5030 C   0  0  0  0  0  0  0  0  0  0  0  0
    7.5240   -3.5370   24.8790 C   0  0  0  0  0  0  0  0  0  0  0  0
    6.1420   -3.7250   24.6170 N   0  0  0  0  0  0  0  0  0  0  0  0
    5.5630   -4.1520   25.7820 C   0  0  0  0  0  0  0  0  0  0  0  0
    4.6750   -5.3590   25.6730 C   0  0  0  0  0  0  0  0  0  0  0  0
    4.7860   -5.6680   24.1960 C   0  0  0  0  0  0  0  0  0  0  0  0
    5.8190   -4.6810   23.5680 C   0  0  1  0  0  0  0  0  0  0  0  0
    5.2780   -4.0960   22.4090 C   0  0  0  0  0  0  0  0  0  0  0  0
    4.3550   -3.6400   23.3460 N   0  0  0  0  0  0  0  0  0  0  0  0
    4.5590   -3.4680   21.6380 O   0  0  0  0  0  0  0  0  0  0  0  0
    7.2260   -0.3730   21.9250 C   0  0  0  0  0  0  0  0  0  0  0  0
    7.0680   -1.2650   20.8620 C   0  0  0  0  0  0  0  0  0  0  0  0
  1  2  2  3
  1  3  1  0
  3  4  1  0
  4  5  1  0
  5  6  1  0
  6  7  1  0
  7  8  1  0
  8  9  2  0
  9 10  1  0
 10 11  2  0
 11 12  1  0
  8 13  1  0
 12 13  2  0
 13 14  1  0
 14 15  1  0
 15 16  1  0
 16 17  1  0
 14 18  1  0
 17 18  1  0
 18 19  1  6
 19 20  1  0
 19 21  2  0
  6 22  1  0
  3 23  1  0
 22 23  1  0
M  END
