TAM-UNI-d1c3dd9f-8-chloroacetamide
     RDKit          3D

 27 30  0  0  0  0  0  0  0  0999 V2000
    7.3260   -3.0350   18.8660 C   0  0  0  0  0  0  0  0  0  0  0  0
    6.4600   -3.4740   20.0160 C   0  0  0  0  0  0  0  0  0  0  0  0
    5.5310   -4.2720   19.8570 O   0  0  0  0  0  0  0  0  0  0  0  0
    6.7880   -2.9340   21.2700 N   0  0  0  0  0  0  0  0  0  0  0  0
    6.3030   -3.4400   22.5550 C   0  0  0  0  0  0  0  0  0  0  0  0
    7.2430   -3.8640   23.4910 C   0  0  0  0  0  0  0  0  0  0  0  0
    6.8670   -4.6540   24.5920 C   0  0  0  0  0  0  0  0  0  0  0  0
    7.8310   -5.0910   25.5340 C   0  0  0  0  0  0  0  0  0  0  0  0
    9.1740   -4.7490   25.3940 C   0  0  0  0  0  0  0  0  0  0  0  0
    9.6720   -3.8950   24.2410 C   0  0  0  0  0  0  0  0  0  0  0  0
    8.5670   -3.4710   23.2790 C   0  0  0  0  0  0  0  0  0  0  0  0
    9.0000   -2.6220   22.0980 C   0  0  2  0  0  0  0  0  0  0  0  0
    9.9880   -1.5300   22.4450 C   0  0  0  0  0  0  0  0  0  0  0  0
   11.4560   -1.7260   22.1120 C   0  0  0  0  0  0  0  0  0  0  0  0
   12.4330   -0.6210   22.4040 C   0  0  0  0  0  0  0  0  0  0  0  0
   11.7820    0.6120   23.0170 C   0  0  0  0  0  0  0  0  0  0  0  0
   10.4310    0.6840   23.3060 C   0  0  0  0  0  0  0  0  0  0  0  0
    9.5610   -0.3590   23.0290 C   0  0  0  0  0  0  0  0  0  0  0  0
    9.8720    1.9470   23.9320 C   0  0  0  0  0  0  0  0  0  0  0  0
   10.7700    3.0890   23.8790 N   0  0  0  0  0  0  0  0  0  0  0  0
   10.0880    4.6200   24.0760 S   0  0  0  0  0  0  0  0  0  0  0  0
    8.8700    4.6810   22.7740 C   0  0  0  0  0  0  0  0  0  0  0  0
   11.1310    5.5770   23.7710 O   0  0  0  0  0  0  0  0  0  0  0  0
    9.3960    4.6310   25.3470 O   0  0  0  0  0  0  0  0  0  0  0  0
   11.8460    2.9500   23.0310 C   0  0  0  0  0  0  0  0  0  0  0  0
   12.5630    1.7830   23.3240 C   0  0  0  0  0  0  0  0  0  0  0  0
    7.9010   -1.9960   21.4340 C   0  0  0  0  0  0  0  0  0  0  0  0
  1  2  1  0
  2  3  2  0
  2  4  1  0
  4  5  1  0
  5  6  1  0
  6  7  1  0
  7  8  2  0
  8  9  1  0
  9 10  2  0
  6 11  2  0
 10 11  1  0
 11 12  1  0
 12 13  1  1
 13 14  2  0
 14 15  1  0
 15 16  2  0
 16 17  1  0
 13 18  1  0
 17 18  2  0
 17 19  1  0
 19 20  1  0
 20 21  1  0
 21 22  1  0
 21 23  2  0
 21 24  2  0
 20 25  1  0
 16 26  1  0
 25 26  1  0
  4 27  1  0
 12 27  1  0
M  END
