TAM-UNI-d1c3dd9f-10-acrylamide
     RDKit          3D

 27 29  0  0  0  0  0  0  0  0999 V2000
    7.2980   -3.0050   18.5430 C   0  0  0  0  0  0  0  0  0  0  0  0
    6.5220   -2.0260   19.3810 C   0  0  0  0  0  0  0  0  0  0  0  0
    6.0820   -2.6600   20.6570 C   0  0  0  0  0  0  0  0  0  0  0  0
    5.1290   -3.4380   20.7450 O   0  0  0  0  0  0  0  0  0  0  0  0
    6.8430   -2.3460   21.7320 N   0  0  0  0  0  0  0  0  0  0  0  0
    6.4340   -2.8210   22.9100 C   0  0  0  0  0  0  0  0  0  0  0  0
    7.3310   -3.4050   23.7510 C   0  0  0  0  0  0  0  0  0  0  0  0
    6.8930   -4.2040   24.8140 C   0  0  0  0  0  0  0  0  0  0  0  0
    7.7280   -4.8360   25.7140 C   0  0  0  0  0  0  0  0  0  0  0  0
    9.2240   -4.6850   25.6030 C   0  0  0  0  0  0  0  0  0  0  0  0
    9.7290   -3.7990   24.4420 C   0  0  0  0  0  0  0  0  0  0  0  0
    8.7050   -3.1700   23.5020 C   0  0  0  0  0  0  0  0  0  0  0  0
    9.2100   -2.3200   22.3010 C   0  0  2  0  0  0  0  0  0  0  0  0
   10.1760   -1.1940   22.6980 C   0  0  0  0  0  0  0  0  0  0  0  0
    9.5330    0.0140   23.3350 C   0  0  0  0  0  0  0  0  0  0  0  0
   10.4170    1.1690   23.7050 C   0  0  0  0  0  0  0  0  0  0  0  0
    9.5990    2.5770   24.3890 S   0  0  0  0  0  0  0  0  0  0  0  0
    8.9260    2.1570   25.5960 O   0  0  0  0  0  0  0  0  0  0  0  0
   10.4770    3.7180   24.2930 O   0  0  0  0  0  0  0  0  0  0  0  0
    8.3830    2.7910   23.2470 N   0  0  0  0  0  0  0  0  0  0  0  0
    8.7230    2.7030   21.8360 C   0  0  0  0  0  0  0  0  0  0  0  0
   11.9100    1.1220   23.4760 C   0  0  0  0  0  0  0  0  0  0  0  0
   12.4820    0.0010   22.8970 C   0  0  0  0  0  0  0  0  0  0  0  0
   11.7300   -1.1060   22.5040 C   0  0  0  0  0  0  0  0  0  0  0  0
   12.4650   -2.1120   21.9140 C   0  0  0  0  0  0  0  0  0  0  0  0
   13.1120   -2.8930   21.3900 N   0  0  0  0  0  0  0  0  0  0  0  0
    8.1560   -1.6850   21.6200 C   0  0  0  0  0  0  0  0  0  0  0  0
  1  2  1  0
  2  3  1  0
  3  4  2  0
  3  5  1  0
  5  6  1  0
  6  7  1  0
  7  8  1  0
  8  9  2  0
  9 10  1  0
 10 11  2  0
  7 12  2  0
 11 12  1  0
 12 13  1  0
 13 14  1  1
 14 15  2  0
 15 16  1  0
 16 17  1  0
 17 18  2  0
 17 19  2  0
 17 20  1  0
 20 21  1  0
 16 22  2  0
 22 23  1  0
 14 24  1  0
 23 24  2  0
 24 25  1  0
 25 26  3  0
  5 27  1  0
 13 27  1  0
M  END
