TAM-UNI-c140e31a-19
     RDKit          3D

 19 21  0  0  0  0  0  0  0  0999 V2000
    9.0150    1.3240   21.2910 O   0  0  0  0  0  0  0  0  0  0  0  0
    8.6670    0.1870   21.6700 C   0  0  0  0  0  0  0  0  0  0  0  0
    8.8750   -0.4290   22.9930 N   0  0  0  0  0  0  0  0  0  0  0  0
   10.0380   -1.2370   23.1760 C   0  0  0  0  0  0  0  0  0  0  0  0
   11.4940   -1.7850   23.3480 C   0  0  0  0  0  0  0  0  0  0  0  0
   12.8180   -0.9990   23.3460 C   0  0  0  0  0  0  0  0  0  0  0  0
   12.7470    0.4770   23.1520 C   0  0  0  0  0  0  0  0  0  0  0  0
   11.4180    0.9690   23.0010 N   0  0  0  0  0  0  0  0  0  0  0  0
   10.3220    0.1430   23.0280 C   0  0  0  0  0  0  0  0  0  0  0  0
    7.9740   -0.7050   20.8820 N   0  0  0  0  0  0  0  0  0  0  0  0
    7.1010   -0.2340   19.9780 C   0  0  0  0  0  0  0  0  0  0  0  0
    7.3460   -0.5690   18.5870 C   0  0  0  0  0  0  0  0  0  0  0  0
    6.3140    0.0700   17.8590 N   0  0  0  0  0  0  0  0  0  0  0  0
    5.4530    0.7650   18.7740 C   0  0  0  0  0  0  0  0  0  0  0  0
    4.3920    1.4650   18.4330 N   0  0  0  0  0  0  0  0  0  0  0  0
    3.6960    2.0480   19.4960 C   0  0  0  0  0  0  0  0  0  0  0  0
    4.1350    1.8950   20.9470 C   0  0  0  0  0  0  0  0  0  0  0  0
    5.3710    1.0770   21.2070 C   0  0  0  0  0  0  0  0  0  0  0  0
    5.9700    0.5470   20.0760 C   0  0  0  0  0  0  0  0  0  0  0  0
  1  2  2  0
  2  3  1  0
  3  4  1  0
  4  5  2  0
  5  6  1  0
  6  7  2  0
  7  8  1  0
  4  9  1  0
  8  9  2  0
  2 10  1  0
 10 11  1  0
 11 12  2  0
 12 13  1  0
 13 14  1  0
 14 15  1  0
 15 16  2  0
 16 17  1  0
 17 18  2  0
 11 19  1  0
 14 19  2  0
 18 19  1  0
M  END
