TAM-UNI-d1c3dd9f-16-vinylsulfonamide
     RDKit          3D

 24 25  0  0  0  0  0  0  0  0999 V2000
    7.9310   -3.2220   19.1360 C   0  0  0  0  0  0  0  0  0  0  0  0
    6.8410   -2.3350   18.5820 C   0  0  0  0  0  0  0  0  0  0  0  0
    5.5400   -2.2560   19.7480 S   0  0  0  0  0  0  0  0  0  0  0  0
    4.8920   -3.5540   19.6960 O   0  0  0  0  0  0  0  0  0  0  0  0
    4.8240   -1.0210   19.5140 O   0  0  0  0  0  0  0  0  0  0  0  0
    6.4290   -2.0560   21.1820 N   0  0  0  0  0  0  0  0  0  0  0  0
    6.1480   -2.9250   22.3250 C   0  0  0  0  0  0  0  0  0  0  0  0
    7.3720   -3.4250   23.1120 C   0  0  0  0  0  0  0  0  0  0  0  0
    8.3480   -2.4620   23.2100 N   0  0  0  0  0  0  0  0  0  0  0  0
    9.1650   -2.1950   24.3150 C   0  0  0  0  0  0  0  0  0  0  0  0
   10.2480   -1.1860   23.9800 C   0  0  0  0  0  0  0  0  0  0  0  0
   10.1200    0.3110   24.2010 C   0  0  0  0  0  0  0  0  0  0  0  0
   11.0780    1.2840   23.8810 C   0  0  0  0  0  0  0  0  0  0  0  0
   10.8490    2.6380   24.1100 C   0  0  0  0  0  0  0  0  0  0  0  0
    9.4120    2.9950   24.1020 N   0  0  0  0  0  0  0  0  0  0  0  0
   12.2540    0.8520   23.3180 C   0  0  0  0  0  0  0  0  0  0  0  0
   12.4770   -0.4780   23.0760 C   0  0  0  0  0  0  0  0  0  0  0  0
   13.6290   -0.8680   22.4990 N   0  0  0  0  0  0  0  0  0  0  0  0
   13.5060   -1.3260   21.2250 C   0  0  0  0  0  0  0  0  0  0  0  0
   12.5590   -2.3040   21.1830 C   0  0  0  0  0  0  0  0  0  0  0  0
   14.1770   -0.8920   20.0480 O   0  0  0  0  0  0  0  0  0  0  0  0
   11.5540   -1.4450   23.3810 C   0  0  0  0  0  0  0  0  0  0  0  0
    8.8010   -1.9010   21.9340 C   0  0  0  0  0  0  0  0  0  0  0  0
    7.6420   -1.2390   21.1870 C   0  0  0  0  0  0  0  0  0  0  0  0
  1  2  1  0
  3  2  1  0
  3  4  2  0
  3  5  2  0
  3  6  1  0
  6  7  1  0
  7  8  1  0
  8  9  1  0
  9 10  1  0
 10 11  1  0
 11 12  2  0
 12 13  1  0
 13 14  1  0
 14 15  3  0
 13 16  2  0
 16 17  1  0
 17 18  1  0
 18 19  1  0
 19 20  1  0
 19 21  2  0
 11 22  1  0
 17 22  2  0
  9 23  1  0
  6 24  1  0
 23 24  1  0
M  END
