TAM-UNI-c140e31a-15
     RDKit          3D

 23 24  0  0  0  0  0  0  0  0999 V2000
    8.8560    6.6680   22.4790 C   0  0  0  0  0  0  0  0  0  0  0  0
   10.1310    6.3120   23.3090 C   0  0  0  0  0  0  0  0  0  0  0  0
   10.1670    6.5560   24.5130 O   0  0  0  0  0  0  0  0  0  0  0  0
   11.1610    5.7410   22.7010 N   0  0  0  0  0  0  0  0  0  0  0  0
   12.1130    4.9960   23.5220 C   0  0  0  0  0  0  0  0  0  0  0  0
   12.5940    3.7140   22.8450 C   0  0  0  0  0  0  0  0  0  0  0  0
   11.6700    2.5040   23.0970 C   0  0  0  0  0  0  0  0  0  0  0  0
   10.2400    2.6760   23.5930 C   0  0  0  0  0  0  0  0  0  0  0  0
    9.6290    1.4620   23.6770 N   0  0  0  0  0  0  0  0  0  0  0  0
   10.5730    0.4680   23.2640 C   0  0  0  0  0  0  0  0  0  0  0  0
   10.3440   -1.0270   23.1560 C   0  0  0  0  0  0  0  0  0  0  0  0
    8.9310   -1.4660   23.4890 C   0  0  0  0  0  0  0  0  0  0  0  0
    9.1460   -2.8670   24.1020 C   0  0  0  0  0  0  0  0  0  0  0  0
    8.0360   -3.5260   24.6920 N   0  0  0  0  0  0  0  0  0  0  0  0
    8.3380   -4.5580   26.0260 S   0  0  0  0  0  0  0  0  0  0  0  0
    6.6920   -5.0870   26.4330 C   0  0  0  0  0  0  0  0  0  0  0  0
    9.0840   -5.7070   25.5810 O   0  0  0  0  0  0  0  0  0  0  0  0
    8.7920   -3.7720   27.1270 O   0  0  0  0  0  0  0  0  0  0  0  0
   11.4000   -1.8360   22.7490 C   0  0  0  0  0  0  0  0  0  0  0  0
   12.6550   -1.2890   22.4370 C   0  0  0  0  0  0  0  0  0  0  0  0
   13.5310   -2.2210   22.0610 F   0  0  0  0  0  0  0  0  0  0  0  0
   13.0340    0.1870   22.4850 C   0  0  0  0  0  0  0  0  0  0  0  0
   11.9350    1.1170   22.9060 C   0  0  0  0  0  0  0  0  0  0  0  0
  1  2  1  0
  2  3  2  0
  2  4  1  0
  4  5  1  0
  5  6  1  0
  6  7  1  0
  7  8  2  0
  8  9  1  0
  9 10  1  0
 10 11  1  0
 11 12  1  0
 12 13  1  0
 13 14  1  0
 15 14  1  0
 15 16  1  0
 15 17  2  0
 15 18  2  0
 11 19  2  0
 19 20  1  0
 20 21  1  0
 20 22  2  0
  7 23  1  0
 10 23  2  0
 22 23  1  0
M  END
