TAM-UNI-d1c3dd9f-2-acrylamide
     RDKit          3D

 25 27  0  0  0  0  0  0  0  0999 V2000
    7.2270   -2.8930   18.7990 C   0  0  0  0  0  0  0  0  0  0  0  0
    6.4490   -2.1120   19.8390 C   0  0  0  0  0  0  0  0  0  0  0  0
    5.3510   -3.0340   20.2950 C   0  0  0  0  0  0  0  0  0  0  0  0
    4.7940   -3.7360   19.4470 O   0  0  0  0  0  0  0  0  0  0  0  0
    5.0320   -3.1260   21.6530 N   0  0  0  0  0  0  0  0  0  0  0  0
    5.2190   -4.3220   22.2670 C   0  0  0  0  0  0  0  0  0  0  0  0
    6.2330   -4.4350   23.2030 C   0  0  0  0  0  0  0  0  0  0  0  0
    7.0810   -3.3610   23.5040 N   0  0  0  0  0  0  0  0  0  0  0  0
    8.5570   -3.5230   23.3440 C   0  0  0  0  0  0  0  0  0  0  0  0
    9.3210   -2.4580   23.8580 C   0  0  0  0  0  0  0  0  0  0  0  0
   10.7350   -1.9840   23.6230 N   0  0  0  0  0  0  0  0  0  0  0  0
   11.0960   -0.8000   24.4020 N   0  0  0  0  0  0  0  0  0  0  0  0
   12.4330   -0.1400   24.3450 C   0  0  0  0  0  0  0  0  0  0  0  0
   10.0310   -0.4150   25.1710 C   0  0  0  0  0  0  0  0  0  0  0  0
    9.1930   -1.4910   24.6810 C   0  0  0  0  0  0  0  0  0  0  0  0
   10.4560   -1.5740   24.0610 N   0  0  0  0  0  0  0  0  0  0  0  0
   11.4680   -2.4390   24.4600 C   0  0  0  0  0  0  0  0  0  0  0  0
   12.6340   -2.2850   23.4660 C   0  0  0  0  0  0  0  0  0  0  0  0
   12.0500   -1.5010   22.3040 C   0  0  0  0  0  0  0  0  0  0  0  0
   10.5410   -1.3620   22.6240 C   0  0  2  0  0  0  0  0  0  0  0  0
    9.9730   -0.1940   22.1250 C   0  0  0  0  0  0  0  0  0  0  0  0
    8.9680   -0.3720   21.2270 N   0  0  0  0  0  0  0  0  0  0  0  0
   10.3730    0.9110   22.4930 O   0  0  0  0  0  0  0  0  0  0  0  0
    6.6280   -2.1120   23.0990 C   0  0  0  0  0  0  0  0  0  0  0  0
    5.3420   -2.0120   22.5480 C   0  0  0  0  0  0  0  0  0  0  0  0
  1  2  1  0
  2  3  1  0
  3  4  2  0
  3  5  1  0
  5  6  1  0
  6  7  1  0
  7  8  1  0
  8  9  1  0
  9 10  1  0
 10 11  2  0
 11 12  1  0
 12 13  1  0
 12 14  1  0
 10 15  1  0
 14 15  2  0
 15 16  1  0
 16 17  1  0
 17 18  1  0
 18 19  1  0
 16 20  1  0
 19 20  1  0
 20 21  1  1
 21 22  1  0
 21 23  2  0
  8 24  1  0
  5 25  1  0
 24 25  1  0
M  END
