TAM-UNI-d1c3dd9f-17-nitrile
     RDKit          3D

 21 22  0  0  0  0  0  0  0  0999 V2000
    7.2720   -3.2570   19.5610 C   0  0  0  0  0  0  0  0  0  0  0  0
    6.2350   -3.2130   18.8080 N   0  0  0  0  0  0  0  0  0  0  0  0
    7.3650   -2.5440   20.7340 N   0  0  0  0  0  0  0  0  0  0  0  0
    7.8900   -1.2050   20.7630 C   0  0  0  0  0  0  0  0  0  0  0  0
    9.0230   -1.1410   21.7770 C   0  0  0  0  0  0  0  0  0  0  0  0
    8.7250   -1.9330   23.0000 N   0  0  0  0  0  0  0  0  0  0  0  0
    9.4390   -3.2560   23.0850 C   0  0  0  0  0  0  0  0  0  0  0  0
    9.0480   -3.9750   24.3640 C   0  0  0  0  0  0  0  0  0  0  0  0
    9.8020   -3.6680   25.6720 C   0  0  0  0  0  0  0  0  0  0  0  0
    9.2810   -4.4300   26.8400 C   0  0  0  0  0  0  0  0  0  0  0  0
    9.3320   -4.7390   28.1890 C   0  0  0  0  0  0  0  0  0  0  0  0
    7.9350   -4.7430   28.6480 N   0  0  0  0  0  0  0  0  0  0  0  0
    8.1690   -5.3740   26.7750 C   0  0  0  0  0  0  0  0  0  0  0  0
    7.5930   -5.5500   25.5450 C   0  0  0  0  0  0  0  0  0  0  0  0
    7.9790   -4.9190   24.3570 C   0  0  0  0  0  0  0  0  0  0  0  0
    7.2550   -5.2820   23.2200 C   0  0  0  0  0  0  0  0  0  0  0  0
    7.8080   -5.4720   22.1500 O   0  0  0  0  0  0  0  0  0  0  0  0
    5.9080   -5.4540   23.3970 N   0  0  0  0  0  0  0  0  0  0  0  0
    5.3010   -6.4970   22.6230 C   0  0  0  0  0  0  0  0  0  0  0  0
    7.3250   -2.1620   23.1130 C   0  0  0  0  0  0  0  0  0  0  0  0
    6.6180   -2.8910   21.9410 C   0  0  0  0  0  0  0  0  0  0  0  0
  1  2  2  3
  1  3  1  0
  3  4  1  0
  4  5  1  0
  5  6  1  0
  6  7  1  0
  7  8  1  0
  8  9  2  0
  9 10  1  0
 10 11  1  0
 11 12  3  0
 10 13  2  0
 13 14  1  0
  8 15  1  0
 14 15  2  0
 15 16  1  0
 16 17  2  0
 16 18  1  0
 18 19  1  0
  6 20  1  0
  3 21  1  0
 20 21  1  0
M  END
