TAM-UNI-d1c3dd9f-4-vinylsulfonamide
     RDKit          3D

 29 30  0  0  0  0  0  0  0  0999 V2000
    6.5140   -3.9020   19.9450 C   0  0  0  0  0  0  0  0  0  0  0  0
    6.7940   -3.2200   21.2850 C   0  0  0  0  0  0  0  0  0  0  0  0
    5.3340   -2.4230   21.8810 S   0  0  0  0  0  0  0  0  0  0  0  0
    4.4150   -3.4920   22.2210 O   0  0  0  0  0  0  0  0  0  0  0  0
    4.9860   -1.3890   20.9230 O   0  0  0  0  0  0  0  0  0  0  0  0
    5.7710   -1.6650   23.3520 N   0  0  0  0  0  0  0  0  0  0  0  0
    4.9180   -1.9520   24.5030 C   0  0  0  0  0  0  0  0  0  0  0  0
    5.1700   -1.3500   25.7230 C   0  0  0  0  0  0  0  0  0  0  0  0
    6.4560   -0.6290   25.6770 N   0  0  0  0  0  0  0  0  0  0  0  0
    7.7140   -1.1800   26.0410 C   0  0  0  0  0  0  0  0  0  0  0  0
    7.6290   -2.4210   26.7220 C   0  0  0  0  0  0  0  0  0  0  0  0
    7.6390   -3.7210   27.1290 C   0  0  0  0  0  0  0  0  0  0  0  0
    8.0540   -4.0700   25.9540 C   0  0  0  0  0  0  0  0  0  0  0  0
    8.0320   -5.5690   26.4150 C   0  0  0  0  0  0  0  0  0  0  0  0
    7.6470   -5.1710   27.5020 O   0  0  0  0  0  0  0  0  0  0  0  0
    8.4580   -5.6480   25.1170 N   0  0  0  0  0  0  0  0  0  0  0  0
    9.6750   -4.8930   24.8670 C   0  0  0  0  0  0  0  0  0  0  0  0
    7.5690   -5.4830   24.0860 C   0  0  0  0  0  0  0  0  0  0  0  0
    7.7520   -2.5940   26.4690 C   0  0  0  0  0  0  0  0  0  0  0  0
    7.9950   -1.5290   25.4680 C   0  0  0  0  0  0  0  0  0  0  0  0
    8.1960   -2.8250   25.2080 C   0  0  0  0  0  0  0  0  0  0  0  0
    8.6040   -2.4690   23.9110 C   0  0  0  0  0  0  0  0  0  0  0  0
    9.5730   -1.4900   23.7930 N   0  0  0  0  0  0  0  0  0  0  0  0
   10.2980   -1.4510   22.2840 S   0  0  0  0  0  0  0  0  0  0  0  0
    9.1880   -2.5650   21.4670 C   0  0  0  0  0  0  0  0  0  0  0  0
   10.0680   -0.1090   21.7910 O   0  0  0  0  0  0  0  0  0  0  0  0
   11.6240   -2.0250   22.3610 O   0  0  0  0  0  0  0  0  0  0  0  0
    6.5080    0.2450   24.6030 C   0  0  0  0  0  0  0  0  0  0  0  0
    6.3150   -0.3010   23.3220 C   0  0  0  0  0  0  0  0  0  0  0  0
  1  2  1  0
  3  2  1  0
  3  4  2  0
  3  5  2  0
  3  6  1  0
  6  7  1  0
  7  8  1  0
  8  9  1  0
  9 10  1  0
 10 11  1  0
 11 12  2  0
 12 13  1  0
 13 14  1  0
 14 15  2  0
 14 16  1  0
 16 17  1  0
 16 18  1  0
 13 19  2  0
 19 20  1  0
 11 21  1  0
 20 21  2  0
 21 22  1  0
 22 23  1  0
 24 23  1  0
 24 25  1  0
 24 26  2  0
 24 27  2  0
  9 28  1  0
  6 29  1  0
 28 29  1  0
M  END
