TAM-UNI-c140e31a-12
     RDKit          3D

 24 26  0  0  0  0  0  0  0  0999 V2000
   15.2590   -4.2540   19.3670 N   0  0  0  0  0  0  0  0  0  0  0  0
   13.8930   -4.7330   20.2150 S   0  0  0  0  0  0  0  0  0  0  0  0
   14.3340   -6.0030   20.7260 O   0  0  0  0  0  0  0  0  0  0  0  0
   12.8090   -4.6730   19.2820 O   0  0  0  0  0  0  0  0  0  0  0  0
   13.2430   -3.5020   21.3770 C   0  0  0  0  0  0  0  0  0  0  0  0
   12.0290   -2.8810   20.7510 C   0  0  0  0  0  0  0  0  0  0  0  0
   11.1740   -1.8160   21.4260 C   0  0  0  0  0  0  0  0  0  0  0  0
   11.5420   -1.3690   22.7590 C   0  0  0  0  0  0  0  0  0  0  0  0
   12.7390   -2.0290   23.3510 C   0  0  0  0  0  0  0  0  0  0  0  0
   13.5760   -3.0750   22.6440 C   0  0  0  0  0  0  0  0  0  0  0  0
   13.1460   -1.7010   24.6730 C   0  0  0  0  0  0  0  0  0  0  0  0
   12.5780   -0.4150   25.1190 C   0  0  0  0  0  0  0  0  0  0  0  0
   11.0970   -0.5500   24.7530 C   0  0  0  0  0  0  0  0  0  0  0  0
   10.7680   -0.3690   23.4480 N   0  0  0  0  0  0  0  0  0  0  0  0
    9.3160   -0.4030   23.2000 C   0  0  0  0  0  0  0  0  0  0  0  0
    8.7930    0.2650   21.9040 C   0  0  0  0  0  0  0  0  0  0  0  0
    9.3710    1.4370   21.4840 O   0  0  0  0  0  0  0  0  0  0  0  0
    7.7190   -0.3300   21.2150 N   0  0  0  0  0  0  0  0  0  0  0  0
    6.8670    0.1810   20.2300 C   0  0  0  0  0  0  0  0  0  0  0  0
    5.7620    1.0500   20.4820 C   0  0  0  0  0  0  0  0  0  0  0  0
    4.8910    1.5680   19.3790 C   0  0  0  0  0  0  0  0  0  0  0  0
    5.5430    0.9300   18.2440 C   0  0  0  0  0  0  0  0  0  0  0  0
    6.3390    0.2710   17.8120 N   0  0  0  0  0  0  0  0  0  0  0  0
    7.0850   -0.1640   18.8680 C   0  0  0  0  0  0  0  0  0  0  0  0
  2  1  1  0
  2  3  2  0
  2  4  2  0
  2  5  1  0
  5  6  2  0
  6  7  1  0
  7  8  2  0
  8  9  1  0
  5 10  1  0
  9 10  2  0
  9 11  1  0
 11 12  1  0
 12 13  1  0
  8 14  1  0
 13 14  1  0
 14 15  1  0
 15 16  1  0
 16 17  2  0
 16 18  1  0
 18 19  1  0
 19 20  2  0
 20 21  1  0
 21 22  2  0
 22 23  1  0
 19 24  1  0
 23 24  2  0
M  END
