TAM-UNI-d1c3dd9f-5-acrylamide
     RDKit          3D

 25 27  0  0  0  0  0  0  0  0999 V2000
    7.3960   -2.9520   18.4690 C   0  0  0  0  0  0  0  0  0  0  0  0
    6.6580   -1.8910   19.2320 C   0  0  0  0  0  0  0  0  0  0  0  0
    5.9850   -2.4920   20.4370 C   0  0  0  0  0  0  0  0  0  0  0  0
    5.0060   -3.2610   20.3440 O   0  0  0  0  0  0  0  0  0  0  0  0
    6.5680   -2.1380   21.6420 N   0  0  0  0  0  0  0  0  0  0  0  0
    6.5970   -3.0840   22.6300 C   0  0  0  0  0  0  0  0  0  0  0  0
    7.7770   -3.2890   23.3520 C   0  0  0  0  0  0  0  0  0  0  0  0
    8.7880   -2.3400   23.2930 N   0  0  0  0  0  0  0  0  0  0  0  0
   10.1500   -2.5180   23.8670 C   0  0  0  0  0  0  0  0  0  0  0  0
   10.8490   -1.3590   23.5940 C   0  0  0  0  0  0  0  0  0  0  0  0
   12.2230   -1.4000   22.9040 C   0  0  0  0  0  0  0  0  0  0  0  0
   12.9210   -0.0760   22.5700 C   0  0  0  0  0  0  0  0  0  0  0  0
   12.2450    1.2400   22.9140 C   0  0  0  0  0  0  0  0  0  0  0  0
   10.9100    1.2140   23.6330 C   0  0  0  0  0  0  0  0  0  0  0  0
   10.2520   -0.1380   23.9490 C   0  0  0  0  0  0  0  0  0  0  0  0
   10.1690    2.5430   24.0490 C   0  0  0  0  0  0  0  0  0  0  0  0
   10.9360    3.6850   23.9410 N   0  0  0  0  0  0  0  0  0  0  0  0
   10.3330    5.1610   24.5270 S   0  0  0  0  0  0  0  0  0  0  0  0
   11.7500    5.9400   25.1030 C   0  0  0  0  0  0  0  0  0  0  0  0
    9.5320    4.8220   25.6800 O   0  0  0  0  0  0  0  0  0  0  0  0
    9.7950    5.9250   23.4210 O   0  0  0  0  0  0  0  0  0  0  0  0
   11.7150    3.6970   22.7680 C   0  0  0  0  0  0  0  0  0  0  0  0
   12.5920    2.6120   22.6870 C   0  0  0  0  0  0  0  0  0  0  0  0
    8.8480   -1.7890   22.0340 C   0  0  0  0  0  0  0  0  0  0  0  0
    7.6560   -1.1590   21.7010 C   0  0  0  0  0  0  0  0  0  0  0  0
  1  2  1  0
  2  3  1  0
  3  4  2  0
  3  5  1  0
  5  6  1  0
  6  7  1  0
  7  8  1  0
  8  9  1  0
  9 10  1  0
 10 11  2  0
 11 12  1  0
 12 13  2  0
 13 14  1  0
 10 15  1  0
 14 15  2  0
 14 16  1  0
 16 17  1  0
 17 18  1  0
 18 19  1  0
 18 20  2  0
 18 21  2  0
 17 22  1  0
 13 23  1  0
 22 23  1  0
  8 24  1  0
  5 25  1  0
 24 25  1  0
M  END
