TAM-UNI-d1c3dd9f-7-chloroacetamide
     RDKit          3D

 29 32  0  0  0  0  0  0  0  0999 V2000
    7.6680   -2.9400   18.7780 C   0  0  0  0  0  0  0  0  0  0  0  0
    6.7870   -3.1010   19.9440 C   0  0  0  0  0  0  0  0  0  0  0  0
    5.7600   -3.8330   19.7720 O   0  0  0  0  0  0  0  0  0  0  0  0
    7.2110   -2.4590   21.1930 N   0  0  0  0  0  0  0  0  0  0  0  0
    7.3830   -3.2890   22.3690 C   0  0  0  0  0  0  0  0  0  0  0  0
    8.6270   -3.3880   22.9520 C   0  0  0  0  0  0  0  0  0  0  0  0
    8.9260   -4.5050   23.7260 C   0  0  0  0  0  0  0  0  0  0  0  0
   10.1830   -4.6210   24.3280 C   0  0  0  0  0  0  0  0  0  0  0  0
   11.1660   -3.6170   24.1750 C   0  0  0  0  0  0  0  0  0  0  0  0
   10.9440   -2.3910   23.3630 C   0  0  0  0  0  0  0  0  0  0  0  0
    9.5680   -2.3560   22.7460 C   0  0  0  0  0  0  0  0  0  0  0  0
    9.3810   -1.1270   21.9110 C   0  0  2  0  0  0  0  0  0  0  0  0
   10.1350    0.2330   22.3980 C   0  0  0  0  0  0  0  0  0  0  0  0
    9.3890    1.4450   22.9470 C   0  0  0  0  0  0  0  0  0  0  0  0
   10.1410    2.7400   23.3250 C   0  0  0  0  0  0  0  0  0  0  0  0
   11.6820    2.7960   23.1120 C   0  0  0  0  0  0  0  0  0  0  0  0
   12.3460    1.6630   22.6070 C   0  0  0  0  0  0  0  0  0  0  0  0
   13.7930    1.6300   22.3260 C   0  0  0  0  0  0  0  0  0  0  0  0
   14.7920    2.8020   21.8510 N   0  0  0  0  0  0  0  0  0  0  0  0
   15.4310    4.0330   22.4460 C   0  0  0  0  0  0  0  0  0  0  0  0
   14.6680    4.9480   22.7260 O   0  0  0  0  0  0  0  0  0  0  0  0
   16.9430    4.2240   22.7330 N   0  0  0  0  0  0  0  0  0  0  0  0
   17.9820    4.7240   21.9990 C   0  0  0  0  0  0  0  0  0  0  0  0
   18.7900    5.5990   22.7190 C   0  0  0  0  0  0  0  0  0  0  0  0
   19.7110    4.7920   23.4310 O   0  0  0  0  0  0  0  0  0  0  0  0
   18.9920    3.9430   24.3270 C   0  0  0  0  0  0  0  0  0  0  0  0
   17.6190    3.7030   24.0050 C   0  0  0  0  0  0  0  0  0  0  0  0
   11.6030    0.3890   22.2890 C   0  0  0  0  0  0  0  0  0  0  0  0
    7.8470   -1.0740   21.4300 C   0  0  0  0  0  0  0  0  0  0  0  0
  1  2  1  0
  2  3  2  0
  2  4  1  0
  4  5  1  0
  5  6  1  0
  6  7  1  0
  7  8  2  0
  8  9  1  0
  9 10  2  0
  6 11  2  0
 10 11  1  0
 11 12  1  0
 12 13  1  1
 13 14  2  0
 14 15  1  0
 15 16  2  0
 16 17  1  0
 17 18  1  0
 18 19  1  0
 19 20  1  0
 20 21  2  0
 20 22  1  0
 22 23  1  0
 23 24  1  0
 24 25  1  0
 25 26  1  0
 22 27  1  0
 26 27  1  0
 13 28  1  0
 17 28  2  0
  4 29  1  0
 12 29  1  0
M  END
