TAM-UNI-d1c3dd9f-6-nitrile
     RDKit          3D

 24 26  0  0  0  0  0  0  0  0999 V2000
    6.8410   -3.3850   19.8580 C   0  0  0  0  0  0  0  0  0  0  0  0
    5.6860   -3.7480   19.4370 N   0  0  0  0  0  0  0  0  0  0  0  0
    6.9990   -2.6580   21.0300 N   0  0  0  0  0  0  0  0  0  0  0  0
    6.6880   -3.2120   22.3530 C   0  0  0  0  0  0  0  0  0  0  0  0
    7.9790   -3.4270   23.1600 C   0  0  0  0  0  0  0  0  0  0  0  0
    8.7480   -2.3020   23.2150 N   0  0  0  0  0  0  0  0  0  0  0  0
    9.9310   -2.2630   23.9770 C   0  0  0  0  0  0  0  0  0  0  0  0
   10.7700   -1.2200   23.6620 C   0  0  0  0  0  0  0  0  0  0  0  0
   12.0350   -1.4280   23.1010 C   0  0  0  0  0  0  0  0  0  0  0  0
   12.8570   -0.3710   22.7610 C   0  0  0  0  0  0  0  0  0  0  0  0
   12.3630    1.0510   23.0010 C   0  0  0  0  0  0  0  0  0  0  0  0
   13.2510    2.2510   22.6020 C   0  0  0  0  0  0  0  0  0  0  0  0
   12.7370    3.6610   22.8320 C   0  0  0  0  0  0  0  0  0  0  0  0
   11.3640    3.8910   23.4610 C   0  0  0  0  0  0  0  0  0  0  0  0
   10.8460    5.5100   23.6860 S   0  0  0  0  0  0  0  0  0  0  0  0
   11.7350    6.4070   22.9800 O   0  0  0  0  0  0  0  0  0  0  0  0
   10.5110    5.6960   25.0820 O   0  0  0  0  0  0  0  0  0  0  0  0
    9.3920    5.4760   22.8580 N   0  0  0  0  0  0  0  0  0  0  0  0
    8.4040    4.5780   23.3110 C   0  0  0  0  0  0  0  0  0  0  0  0
   10.5140    2.6190   23.8550 C   0  0  0  0  0  0  0  0  0  0  0  0
   11.1090    1.2280   23.5720 C   0  0  0  0  0  0  0  0  0  0  0  0
   10.3330    0.1070   23.9000 C   0  0  0  0  0  0  0  0  0  0  0  0
    8.9470   -1.6650   21.9570 C   0  0  0  0  0  0  0  0  0  0  0  0
    7.8490   -1.6000   21.1280 C   0  0  0  0  0  0  0  0  0  0  0  0
  1  2  2  3
  1  3  1  0
  3  4  1  0
  4  5  1  0
  5  6  1  0
  6  7  1  0
  7  8  1  0
  8  9  2  0
  9 10  1  0
 10 11  2  0
 11 12  1  0
 12 13  2  0
 13 14  1  0
 14 15  1  0
 15 16  2  0
 15 17  2  0
 15 18  1  0
 18 19  1  0
 14 20  2  0
 11 21  1  0
 20 21  1  0
  8 22  1  0
 21 22  2  0
  6 23  1  0
  3 24  1  0
 23 24  1  0
M  END
