TAM-UNI-d1c3dd9f-4-acrylamide
     RDKit          3D

 28 29  0  0  0  0  0  0  0  0999 V2000
    7.8690   -3.1850   19.1100 C   0  0  0  0  0  0  0  0  0  0  0  0
    6.6280   -2.3710   18.9430 C   0  0  0  0  0  0  0  0  0  0  0  0
    5.9710   -2.5340   20.2660 C   0  0  0  0  0  0  0  0  0  0  0  0
    4.9480   -3.1800   20.3730 O   0  0  0  0  0  0  0  0  0  0  0  0
    6.6070   -1.9890   21.3660 N   0  0  0  0  0  0  0  0  0  0  0  0
    6.4100   -2.6450   22.5510 C   0  0  0  0  0  0  0  0  0  0  0  0
    7.4620   -2.8240   23.4370 C   0  0  0  0  0  0  0  0  0  0  0  0
    8.5770   -2.0200   23.3150 N   0  0  0  0  0  0  0  0  0  0  0  0
    9.6110   -1.8630   24.3840 C   0  0  0  0  0  0  0  0  0  0  0  0
   10.5380   -0.8520   24.1190 C   0  0  0  0  0  0  0  0  0  0  0  0
   10.0770    0.6000   24.0060 C   0  0  0  0  0  0  0  0  0  0  0  0
   11.1370    1.6640   23.6970 C   0  0  0  0  0  0  0  0  0  0  0  0
   10.6680    3.1170   23.6120 C   0  0  0  0  0  0  0  0  0  0  0  0
    9.4840    3.2550   23.8940 O   0  0  0  0  0  0  0  0  0  0  0  0
   11.5510    4.1110   23.2610 N   0  0  0  0  0  0  0  0  0  0  0  0
   12.4090    3.6830   22.2950 C   0  0  0  0  0  0  0  0  0  0  0  0
   11.0820    5.3700   23.0960 C   0  0  0  0  0  0  0  0  0  0  0  0
   12.4360    1.2740   23.5200 C   0  0  0  0  0  0  0  0  0  0  0  0
   12.8380   -0.1780   23.6600 C   0  0  0  0  0  0  0  0  0  0  0  0
   11.9060   -1.1650   23.9600 C   0  0  0  0  0  0  0  0  0  0  0  0
   12.4020   -2.4340   24.0950 C   0  0  0  0  0  0  0  0  0  0  0  0
   13.2590   -2.8140   23.0770 N   0  0  0  0  0  0  0  0  0  0  0  0
   12.8420   -2.2540   21.5770 S   0  0  0  0  0  0  0  0  0  0  0  0
   13.4370   -3.5650   20.5740 C   0  0  0  0  0  0  0  0  0  0  0  0
   11.4060   -2.2620   21.5330 O   0  0  0  0  0  0  0  0  0  0  0  0
   13.6170   -1.0790   21.3010 O   0  0  0  0  0  0  0  0  0  0  0  0
    8.9110   -1.5610   21.9610 C   0  0  0  0  0  0  0  0  0  0  0  0
    7.7760   -1.0800   21.2850 C   0  0  0  0  0  0  0  0  0  0  0  0
  1  2  1  0
  2  3  1  0
  3  4  2  0
  3  5  1  0
  5  6  1  0
  6  7  1  0
  7  8  1  0
  8  9  1  0
  9 10  1  0
 10 11  2  0
 11 12  1  0
 12 13  1  0
 13 14  2  0
 13 15  1  0
 15 16  1  0
 15 17  1  0
 12 18  2  0
 18 19  1  0
 10 20  1  0
 19 20  2  0
 20 21  1  0
 21 22  1  0
 23 22  1  0
 23 24  1  0
 23 25  2  0
 23 26  2  0
  8 27  1  0
  5 28  1  0
 27 28  1  0
M  END
