TAM-UNI-d1c3dd9f-2-chloroacetamide
     RDKit          3D

 24 26  0  0  0  0  0  0  0  0999 V2000
    6.5300   -3.4850   19.5690 C   0  0  0  0  0  0  0  0  0  0  0  0
    5.7790   -4.4990   20.4160 C   0  0  0  0  0  0  0  0  0  0  0  0
    5.4590   -5.5930   20.0050 O   0  0  0  0  0  0  0  0  0  0  0  0
    5.4460   -4.1670   21.7190 N   0  0  0  0  0  0  0  0  0  0  0  0
    5.1570   -2.8050   22.1640 C   0  0  0  0  0  0  0  0  0  0  0  0
    5.9520   -2.2390   23.1390 C   0  0  0  0  0  0  0  0  0  0  0  0
    7.1950   -3.0170   23.2490 N   0  0  0  0  0  0  0  0  0  0  0  0
    8.2930   -2.5990   23.9860 C   0  0  0  0  0  0  0  0  0  0  0  0
    9.4550   -2.1280   23.3460 C   0  0  0  0  0  0  0  0  0  0  0  0
   10.2530   -1.0770   23.6700 N   0  0  0  0  0  0  0  0  0  0  0  0
   11.3120   -1.0660   22.6920 N   0  0  0  0  0  0  0  0  0  0  0  0
   12.4370   -0.0470   22.7020 C   0  0  0  0  0  0  0  0  0  0  0  0
   11.4140   -2.0780   21.5630 C   0  0  0  0  0  0  0  0  0  0  0  0
   10.1710   -2.4700   22.3230 C   0  0  0  0  0  0  0  0  0  0  0  0
   10.6840   -1.3620   22.9370 N   0  0  0  0  0  0  0  0  0  0  0  0
   11.5680   -1.6400   24.1250 C   0  0  0  0  0  0  0  0  0  0  0  0
   11.4780   -0.3630   24.9540 C   0  0  0  0  0  0  0  0  0  0  0  0
   10.6300    0.6390   24.1630 C   0  0  0  0  0  0  0  0  0  0  0  0
    9.7950   -0.1950   23.1750 C   0  0  1  0  0  0  0  0  0  0  0  0
    9.1980    0.6280   21.9850 C   0  0  0  0  0  0  0  0  0  0  0  0
    8.2430    0.0080   21.2250 N   0  0  0  0  0  0  0  0  0  0  0  0
    9.5400    1.7920   21.7450 O   0  0  0  0  0  0  0  0  0  0  0  0
    6.9070   -4.4150   23.5600 C   0  0  0  0  0  0  0  0  0  0  0  0
    5.9420   -5.0510   22.7770 C   0  0  0  0  0  0  0  0  0  0  0  0
  1  2  1  0
  2  3  2  0
  2  4  1  0
  4  5  1  0
  5  6  1  0
  6  7  1  0
  7  8  1  0
  8  9  1  0
  9 10  2  0
 10 11  1  0
 11 12  1  0
 11 13  1  0
  9 14  1  0
 13 14  2  0
 14 15  1  0
 15 16  1  0
 16 17  1  0
 17 18  1  0
 15 19  1  0
 18 19  1  0
 19 20  1  6
 20 21  1  0
 20 22  2  0
  7 23  1  0
  4 24  1  0
 23 24  1  0
M  END
