TAM-UNI-c140e31a-3
     RDKit          3D

 27 29  0  0  0  0  0  0  0  0999 V2000
   14.8660   -5.3710   20.6300 C   0  0  0  0  0  0  0  0  0  0  0  0
   14.0050   -4.0280   20.6280 C   0  0  0  0  0  0  0  0  0  0  0  0
   14.4520   -3.2780   19.9180 O   0  0  0  0  0  0  0  0  0  0  0  0
   12.9530   -3.5480   21.3220 N   0  0  0  0  0  0  0  0  0  0  0  0
   13.0560   -2.6980   22.5360 C   0  0  0  0  0  0  0  0  0  0  0  0
   13.1630   -1.1970   22.2450 C   0  0  0  0  0  0  0  0  0  0  0  0
   11.9890   -0.3710   22.7890 C   0  0  0  0  0  0  0  0  0  0  0  0
   10.7230   -0.9330   23.2250 C   0  0  0  0  0  0  0  0  0  0  0  0
    9.9560    0.0830   23.6250 N   0  0  0  0  0  0  0  0  0  0  0  0
   10.4970    1.4620   23.5520 C   0  0  0  0  0  0  0  0  0  0  0  0
    9.1690    1.6280   24.0760 C   0  0  0  0  0  0  0  0  0  0  0  0
    9.2320    0.1830   23.8950 N   0  0  0  0  0  0  0  0  0  0  0  0
    7.9640   -0.0640   23.2130 C   0  0  0  0  0  0  0  0  0  0  0  0
    8.0190    0.2800   21.7230 C   0  0  0  0  0  0  0  0  0  0  0  0
    8.5940    1.4820   21.3350 O   0  0  0  0  0  0  0  0  0  0  0  0
    7.4900   -0.6000   20.8590 N   0  0  0  0  0  0  0  0  0  0  0  0
    6.5290   -0.1110   20.0750 C   0  0  0  0  0  0  0  0  0  0  0  0
    5.1290    0.2770   20.6320 C   0  0  0  0  0  0  0  0  0  0  0  0
    4.2030    0.7820   19.7440 C   0  0  0  0  0  0  0  0  0  0  0  0
    4.8520    0.8110   18.4390 C   0  0  0  0  0  0  0  0  0  0  0  0
    5.9310    0.5590   17.7560 N   0  0  0  0  0  0  0  0  0  0  0  0
    6.7860    0.0670   18.6900 C   0  0  0  0  0  0  0  0  0  0  0  0
    9.7850    2.9050   23.9720 C   0  0  0  0  0  0  0  0  0  0  0  0
   11.2480    3.2020   23.4430 C   0  0  0  0  0  0  0  0  0  0  0  0
   11.4690    4.5490   23.4950 F   0  0  0  0  0  0  0  0  0  0  0  0
   12.4630    2.3110   22.8910 C   0  0  0  0  0  0  0  0  0  0  0  0
   11.7250    1.0370   23.0390 C   0  0  0  0  0  0  0  0  0  0  0  0
  1  2  1  0
  2  3  2  0
  2  4  1  0
  4  5  1  0
  5  6  1  0
  6  7  1  0
  7  8  2  0
  8  9  1  0
  9 10  1  0
 10 11  1  0
 11 12  1  0
 12 13  1  0
 13 14  1  0
 14 15  2  0
 14 16  1  0
 16 17  1  0
 17 18  2  0
 18 19  1  0
 19 20  2  0
 20 21  1  0
 17 22  1  0
 21 22  2  0
 11 23  2  0
 23 24  1  0
 24 25  1  0
 24 26  2  0
  7 27  1  0
 10 27  2  0
 26 27  1  0
M  END
