TAM-UNI-d1c3dd9f-17-acrylamide
     RDKit          3D

 23 24  0  0  0  0  0  0  0  0999 V2000
    8.0740   -3.4330   19.8770 C   0  0  0  0  0  0  0  0  0  0  0  0
    7.0460   -2.6440   19.1110 C   0  0  0  0  0  0  0  0  0  0  0  0
    5.9070   -2.7120   20.0600 C   0  0  0  0  0  0  0  0  0  0  0  0
    4.9290   -3.4330   19.8530 O   0  0  0  0  0  0  0  0  0  0  0  0
    6.0870   -1.9450   21.2030 N   0  0  0  0  0  0  0  0  0  0  0  0
    6.9740   -0.7930   21.0660 C   0  0  0  0  0  0  0  0  0  0  0  0
    8.3410   -1.0720   21.6560 C   0  0  0  0  0  0  0  0  0  0  0  0
    8.3010   -1.6010   23.0290 N   0  0  0  0  0  0  0  0  0  0  0  0
    9.7070   -1.9080   23.3670 C   0  0  0  0  0  0  0  0  0  0  0  0
   10.5680   -0.6720   23.3580 C   0  0  0  0  0  0  0  0  0  0  0  0
   10.2660    0.5640   23.8960 C   0  0  0  0  0  0  0  0  0  0  0  0
   11.1490    1.6310   23.8000 C   0  0  0  0  0  0  0  0  0  0  0  0
   10.8220    2.8770   24.2980 C   0  0  0  0  0  0  0  0  0  0  0  0
    9.6380    3.5760   23.9790 N   0  0  0  0  0  0  0  0  0  0  0  0
   12.4800    1.4030   23.1270 C   0  0  0  0  0  0  0  0  0  0  0  0
   12.7850    0.1610   22.5880 C   0  0  0  0  0  0  0  0  0  0  0  0
   11.8710   -0.8550   22.6660 C   0  0  0  0  0  0  0  0  0  0  0  0
   11.9090   -2.2740   22.1040 C   0  0  0  0  0  0  0  0  0  0  0  0
   10.6940   -2.6350   21.6430 O   0  0  0  0  0  0  0  0  0  0  0  0
   13.0650   -2.9860   22.0140 N   0  0  0  0  0  0  0  0  0  0  0  0
   13.3140   -3.6650   20.7660 C   0  0  0  0  0  0  0  0  0  0  0  0
    7.3770   -2.7430   23.1900 C   0  0  0  0  0  0  0  0  0  0  0  0
    6.1920   -2.5990   22.4490 C   0  0  0  0  0  0  0  0  0  0  0  0
  1  2  1  0
  2  3  1  0
  3  4  2  0
  3  5  1  0
  5  6  1  0
  6  7  1  0
  7  8  1  0
  8  9  1  0
  9 10  1  0
 10 11  2  0
 11 12  1  0
 12 13  1  0
 13 14  3  0
 12 15  2  0
 15 16  1  0
 10 17  1  0
 16 17  2  0
 17 18  1  0
 18 19  2  0
 18 20  1  0
 20 21  1  0
  8 22  1  0
  5 23  1  0
 22 23  1  0
M  END
