TAM-UNI-d1c3dd9f-9-chloroacetamide
     RDKit          3D

 24 26  0  0  0  0  0  0  0  0999 V2000
    7.1950   -2.9480   18.6950 C   0  0  0  0  0  0  0  0  0  0  0  0
    6.2870   -3.2730   19.8350 C   0  0  0  0  0  0  0  0  0  0  0  0
    5.3720   -4.0950   19.7360 O   0  0  0  0  0  0  0  0  0  0  0  0
    6.5520   -2.6000   21.0330 N   0  0  0  0  0  0  0  0  0  0  0  0
    7.4550   -1.4530   21.0840 C   0  0  0  0  0  0  0  0  0  0  0  0
    8.7080   -1.6670   21.6120 C   0  0  0  0  0  0  0  0  0  0  0  0
    8.5500   -2.3790   22.8810 N   0  0  0  0  0  0  0  0  0  0  0  0
    9.5920   -2.4670   23.7920 C   0  0  0  0  0  0  0  0  0  0  0  0
   10.5430   -1.4560   23.6290 C   0  0  0  0  0  0  0  0  0  0  0  0
   11.7720   -1.6810   22.9770 C   0  0  0  0  0  0  0  0  0  0  0  0
   12.8670   -0.6390   22.7420 C   0  0  0  0  0  0  0  0  0  0  0  0
   12.6020    0.7730   23.2580 C   0  0  0  0  0  0  0  0  0  0  0  0
   11.2670    0.9700   23.9520 C   0  0  0  0  0  0  0  0  0  0  0  0
   10.2140   -0.1600   24.1460 C   0  0  0  0  0  0  0  0  0  0  0  0
    9.0210    0.0940   24.7830 N   0  0  0  0  0  0  0  0  0  0  0  0
    7.8710   -0.3460   24.2120 C   0  0  0  0  0  0  0  0  0  0  0  0
    6.8240    0.6910   24.5030 C   0  0  0  0  0  0  0  0  0  0  0  0
    7.5630    1.7470   25.2860 C   0  0  0  0  0  0  0  0  0  0  0  0
    8.8180    1.2190   25.6770 C   0  0  1  0  0  0  0  0  0  0  0  0
    8.8350    0.7930   27.0140 C   0  0  0  0  0  0  0  0  0  0  0  0
    8.0030    1.4090   27.9720 N   0  0  0  0  0  0  0  0  0  0  0  0
    9.5760   -0.1070   27.3730 O   0  0  0  0  0  0  0  0  0  0  0  0
    7.8890   -3.5730   22.6950 C   0  0  0  0  0  0  0  0  0  0  0  0
    6.5600   -3.3780   22.2750 C   0  0  0  0  0  0  0  0  0  0  0  0
  1  2  1  0
  2  3  2  0
  2  4  1  0
  4  5  1  0
  5  6  1  0
  6  7  1  0
  7  8  1  0
  8  9  1  0
  9 10  2  0
 10 11  1  0
 11 12  2  0
 12 13  1  0
  9 14  1  0
 13 14  2  0
 14 15  1  0
 15 16  1  0
 16 17  1  0
 17 18  1  0
 15 19  1  0
 18 19  1  0
 19 20  1  1
 20 21  1  0
 20 22  2  0
  7 23  1  0
  4 24  1  0
 23 24  1  0
M  END
