TAM-UNI-d1c3dd9f-18-chloroacetamide
     RDKit          3D

 22 23  0  0  0  0  0  0  0  0999 V2000
    7.3970   -2.9810   18.7970 C   0  0  0  0  0  0  0  0  0  0  0  0
    6.3750   -3.1560   19.8850 C   0  0  0  0  0  0  0  0  0  0  0  0
    5.4600   -3.9890   19.7050 O   0  0  0  0  0  0  0  0  0  0  0  0
    6.5250   -2.3870   21.0460 N   0  0  0  0  0  0  0  0  0  0  0  0
    6.2800   -2.8670   22.3930 C   0  0  0  0  0  0  0  0  0  0  0  0
    7.5520   -3.1540   23.2210 C   0  0  0  0  0  0  0  0  0  0  0  0
    8.5650   -2.2030   23.0810 N   0  0  0  0  0  0  0  0  0  0  0  0
    9.6100   -1.9930   24.0330 C   0  0  0  0  0  0  0  0  0  0  0  0
   10.6440   -0.8970   23.7290 C   0  0  0  0  0  0  0  0  0  0  0  0
   10.2460    0.4920   24.0930 C   0  0  0  0  0  0  0  0  0  0  0  0
   11.0960    1.5710   23.8530 C   0  0  0  0  0  0  0  0  0  0  0  0
   10.7210    2.8720   24.1730 C   0  0  0  0  0  0  0  0  0  0  0  0
    9.2550    3.0780   24.0910 N   0  0  0  0  0  0  0  0  0  0  0  0
   12.3380    1.3040   23.2740 C   0  0  0  0  0  0  0  0  0  0  0  0
   12.7490    0.0320   22.9260 C   0  0  0  0  0  0  0  0  0  0  0  0
   11.9070   -1.0670   23.1440 C   0  0  0  0  0  0  0  0  0  0  0  0
   12.4540   -2.2370   22.7240 N   0  0  0  0  0  0  0  0  0  0  0  0
   13.1560   -2.1820   21.5110 C   0  0  0  0  0  0  0  0  0  0  0  0
   13.3960   -3.4580   20.7230 C   0  0  0  0  0  0  0  0  0  0  0  0
   13.7100   -1.0200   20.9570 O   0  0  0  0  0  0  0  0  0  0  0  0
    8.8100   -1.6840   21.7190 C   0  0  0  0  0  0  0  0  0  0  0  0
    7.5010   -1.2960   21.0010 C   0  0  0  0  0  0  0  0  0  0  0  0
  1  2  1  0
  2  3  2  0
  2  4  1  0
  4  5  1  0
  5  6  1  0
  6  7  1  0
  7  8  1  0
  8  9  1  0
  9 10  2  0
 10 11  1  0
 11 12  1  0
 12 13  3  0
 11 14  2  0
 14 15  1  0
  9 16  1  0
 15 16  2  0
 16 17  1  0
 17 18  1  0
 18 19  1  0
 18 20  2  0
  7 21  1  0
  4 22  1  0
 21 22  1  0
M  END
