TAM-UNI-d1c3dd9f-11-acrylamide
     RDKit          3D

 31 34  0  0  0  0  0  0  0  0999 V2000
    7.3780   -3.0780   18.5700 C   0  0  0  0  0  0  0  0  0  0  0  0
    6.8800   -2.0480   19.5220 C   0  0  0  0  0  0  0  0  0  0  0  0
    6.0540   -2.7220   20.5860 C   0  0  0  0  0  0  0  0  0  0  0  0
    5.0060   -3.2910   20.3050 O   0  0  0  0  0  0  0  0  0  0  0  0
    6.6420   -2.6320   21.8040 N   0  0  0  0  0  0  0  0  0  0  0  0
    6.1490   -3.1860   23.0170 C   0  0  0  0  0  0  0  0  0  0  0  0
    7.0440   -3.8350   23.8720 C   0  0  0  0  0  0  0  0  0  0  0  0
    6.7990   -4.9800   24.6240 C   0  0  0  0  0  0  0  0  0  0  0  0
    7.8080   -5.5270   25.4450 C   0  0  0  0  0  0  0  0  0  0  0  0
    9.1960   -4.9790   25.5760 C   0  0  0  0  0  0  0  0  0  0  0  0
    9.4670   -3.7520   24.7780 C   0  0  0  0  0  0  0  0  0  0  0  0
    8.3890   -3.2060   23.9670 C   0  0  0  0  0  0  0  0  0  0  0  0
    8.5050   -1.9640   23.1770 C   0  0  1  0  0  0  0  0  0  0  0  0
    9.3930   -0.9540   23.1780 C   0  0  0  0  0  0  0  0  0  0  0  0
    9.0500    0.3730   23.5280 C   0  0  0  0  0  0  0  0  0  0  0  0
    9.9710    1.4990   23.5230 C   0  0  0  0  0  0  0  0  0  0  0  0
   11.3240    1.0580   23.1030 C   0  0  0  0  0  0  0  0  0  0  0  0
   12.5220    1.8250   22.9280 C   0  0  0  0  0  0  0  0  0  0  0  0
   12.4230    3.3310   23.1520 C   0  0  0  0  0  0  0  0  0  0  0  0
   11.9510    4.2160   22.0390 C   0  0  0  0  0  0  0  0  0  0  0  0
   12.8360    5.4240   21.8560 C   0  0  0  0  0  0  0  0  0  0  0  0
   12.2680    6.6250   22.4470 N   0  0  0  0  0  0  0  0  0  0  0  0
   11.1170    6.6260   23.3530 C   0  0  0  0  0  0  0  0  0  0  0  0
    9.8700    7.3150   22.7610 C   0  0  0  0  0  0  0  0  0  0  0  0
   11.1090    6.1380   24.4780 O   0  0  0  0  0  0  0  0  0  0  0  0
   13.4810    0.8990   22.5730 C   0  0  0  0  0  0  0  0  0  0  0  0
   12.8850   -0.3350   22.4750 N   0  0  0  0  0  0  0  0  0  0  0  0
   13.4290   -1.6020   22.0860 C   0  0  0  0  0  0  0  0  0  0  0  0
   11.6040   -0.2550   22.7920 C   0  0  0  0  0  0  0  0  0  0  0  0
   10.6870   -1.2710   22.8100 C   0  0  0  0  0  0  0  0  0  0  0  0
    8.0520   -2.2140   21.7740 C   0  0  0  0  0  0  0  0  0  0  0  0
  1  2  1  0
  2  3  1  0
  3  4  2  0
  3  5  1  0
  5  6  1  0
  6  7  1  0
  7  8  1  0
  8  9  2  0
  9 10  1  0
 10 11  2  0
  7 12  2  0
 11 12  1  0
 12 13  1  0
 13 14  1  6
 14 15  2  0
 15 16  1  0
 16 17  2  0
 17 18  1  0
 18 19  1  0
 19 20  1  0
 20 21  1  0
 21 22  1  0
 22 23  1  0
 23 24  1  0
 23 25  2  0
 18 26  2  0
 26 27  1  0
 27 28  1  0
 17 29  1  0
 27 29  1  0
 14 30  1  0
 29 30  2  0
  5 31  1  0
 13 31  1  0
M  END
