TAM-UNI-d1c3dd9f-3-chloroacetamide
     RDKit          3D

 27 30  0  0  0  0  0  0  0  0999 V2000
    7.3990   -3.0570   18.8730 C   0  0  0  0  0  0  0  0  0  0  0  0
    6.4980   -3.4680   20.0010 C   0  0  0  0  0  0  0  0  0  0  0  0
    5.5380   -4.2310   19.8380 O   0  0  0  0  0  0  0  0  0  0  0  0
    6.8490   -2.9410   21.2480 N   0  0  0  0  0  0  0  0  0  0  0  0
    6.2670   -3.3750   22.5380 C   0  0  0  0  0  0  0  0  0  0  0  0
    7.1470   -3.8640   23.4960 C   0  0  0  0  0  0  0  0  0  0  0  0
    6.8930   -4.9720   24.3170 C   0  0  0  0  0  0  0  0  0  0  0  0
    7.8650   -5.3990   25.2550 C   0  0  0  0  0  0  0  0  0  0  0  0
    9.0820   -4.7510   25.3750 C   0  0  0  0  0  0  0  0  0  0  0  0
    9.4140   -3.5490   24.5220 C   0  0  0  0  0  0  0  0  0  0  0  0
    8.3210   -3.1570   23.5750 C   0  0  0  0  0  0  0  0  0  0  0  0
    8.4920   -1.9550   22.6930 C   0  0  1  0  0  0  0  0  0  0  0  0
    9.7900   -1.1600   22.7720 C   0  0  0  0  0  0  0  0  0  0  0  0
   11.1980   -1.7220   22.5840 C   0  0  0  0  0  0  0  0  0  0  0  0
   12.3840   -0.7720   22.6440 C   0  0  0  0  0  0  0  0  0  0  0  0
   11.9880    0.6880   22.8810 C   0  0  0  0  0  0  0  0  0  0  0  0
   12.9690    1.6280   22.9030 C   0  0  0  0  0  0  0  0  0  0  0  0
   12.6510    2.9710   23.0880 C   0  0  0  0  0  0  0  0  0  0  0  0
   11.3450    3.3820   23.2800 C   0  0  0  0  0  0  0  0  0  0  0  0
   10.9930    5.0500   23.5320 S   0  0  0  0  0  0  0  0  0  0  0  0
    9.4640    5.2040   22.8510 N   0  0  0  0  0  0  0  0  0  0  0  0
   11.8800    5.8460   22.7100 O   0  0  0  0  0  0  0  0  0  0  0  0
   10.8570    5.2770   24.9550 O   0  0  0  0  0  0  0  0  0  0  0  0
   10.3250    2.4400   23.2700 C   0  0  0  0  0  0  0  0  0  0  0  0
   10.6620    1.0950   23.0580 C   0  0  0  0  0  0  0  0  0  0  0  0
    9.6210    0.1950   23.0100 C   0  0  0  0  0  0  0  0  0  0  0  0
    8.1540   -2.2450   21.3710 C   0  0  0  0  0  0  0  0  0  0  0  0
  1  2  1  0
  2  3  2  0
  2  4  1  0
  4  5  1  0
  5  6  1  0
  6  7  1  0
  7  8  2  0
  8  9  1  0
  9 10  2  0
  6 11  2  0
 10 11  1  0
 11 12  1  0
 12 13  1  6
 13 14  2  0
 14 15  1  0
 15 16  2  0
 16 17  1  0
 17 18  2  0
 18 19  1  0
 19 20  1  0
 20 21  1  0
 20 22  2  0
 20 23  2  0
 19 24  2  0
 16 25  1  0
 24 25  1  0
 13 26  1  0
 25 26  2  0
  4 27  1  0
 12 27  1  0
M  END
