TAM-UNI-d1c3dd9f-1-nitrile
     RDKit          3D

 27 29  0  0  0  0  0  0  0  0999 V2000
    7.1250   -3.6730   20.0620 C   0  0  0  0  0  0  0  0  0  0  0  0
    5.9460   -4.1440   19.7760 N   0  0  0  0  0  0  0  0  0  0  0  0
    7.4750   -2.9360   21.1980 N   0  0  0  0  0  0  0  0  0  0  0  0
    7.9730   -3.5620   22.4300 C   0  0  0  0  0  0  0  0  0  0  0  0
    9.3390   -2.9670   22.7740 C   0  0  0  0  0  0  0  0  0  0  0  0
    9.2010   -1.6570   23.0280 N   0  0  0  0  0  0  0  0  0  0  0  0
    8.3270   -1.2160   24.0280 C   0  0  0  0  0  0  0  0  0  0  0  0
    7.8610   -2.2030   24.8780 C   0  0  0  0  0  0  0  0  0  0  0  0
    8.7720   -3.0290   25.5400 C   0  0  0  0  0  0  0  0  0  0  0  0
    8.4460   -4.0540   26.4150 C   0  0  0  0  0  0  0  0  0  0  0  0
    9.4570   -4.9570   27.1370 C   0  0  0  0  0  0  0  0  0  0  0  0
    8.9210   -5.5510   28.2310 N   0  0  0  0  0  0  0  0  0  0  0  0
    6.9410   -4.3330   26.7010 C   0  0  0  0  0  0  0  0  0  0  0  0
    5.9030   -3.4510   25.9980 C   0  0  0  0  0  0  0  0  0  0  0  0
    6.4620   -2.3570   25.0480 C   0  0  0  0  0  0  0  0  0  0  0  0
    5.4130   -1.4710   24.3310 C   0  0  0  0  0  0  0  0  0  0  0  0
    5.6710   -1.2710   22.9850 N   0  0  0  0  0  0  0  0  0  0  0  0
    5.0400   -1.8470   21.8490 C   0  0  0  0  0  0  0  0  0  0  0  0
    4.5850   -3.0170   21.8660 O   0  0  0  0  0  0  0  0  0  0  0  0
    4.9810   -0.9840   20.7400 N   0  0  0  0  0  0  0  0  0  0  0  0
    4.7470    0.4490   20.9580 C   0  0  0  0  0  0  0  0  0  0  0  0
    5.8230    1.1560   20.4120 C   0  0  0  0  0  0  0  0  0  0  0  0
    5.8880    1.0880   19.1830 O   0  0  0  0  0  0  0  0  0  0  0  0
    5.2400   -0.0830   18.6370 C   0  0  0  0  0  0  0  0  0  0  0  0
    5.4420   -1.2550   19.3740 C   0  0  0  0  0  0  0  0  0  0  0  0
    8.9740   -1.0190   21.8340 C   0  0  0  0  0  0  0  0  0  0  0  0
    7.9280   -1.6260   21.1140 C   0  0  0  0  0  0  0  0  0  0  0  0
  1  2  2  3
  1  3  1  0
  3  4  1  0
  4  5  1  0
  5  6  1  0
  6  7  1  0
  7  8  1  0
  8  9  2  0
  9 10  1  0
 10 11  1  0
 11 12  3  0
 10 13  2  0
 13 14  1  0
  8 15  1  0
 14 15  2  0
 15 16  1  0
 16 17  1  0
 17 18  1  0
 18 19  2  0
 18 20  1  0
 20 21  1  0
 21 22  1  0
 22 23  1  0
 23 24  1  0
 20 25  1  0
 24 25  1  0
  6 26  1  0
  3 27  1  0
 26 27  1  0
M  END
