TAM-UNI-d1c3dd9f-7-nitrile
     RDKit          3D

 28 31  0  0  0  0  0  0  0  0999 V2000
    6.9990   -3.6120   19.8470 C   0  0  0  0  0  0  0  0  0  0  0  0
    5.9120   -3.3640   19.2080 N   0  0  0  0  0  0  0  0  0  0  0  0
    7.2850   -3.0770   21.0930 N   0  0  0  0  0  0  0  0  0  0  0  0
    6.4860   -3.3980   22.3290 C   0  0  0  0  0  0  0  0  0  0  0  0
    7.4120   -3.9280   23.4200 C   0  0  0  0  0  0  0  0  0  0  0  0
    7.2860   -5.0220   24.2610 C   0  0  0  0  0  0  0  0  0  0  0  0
    8.2270   -5.4170   25.2250 C   0  0  0  0  0  0  0  0  0  0  0  0
    9.4130   -4.6930   25.3930 C   0  0  0  0  0  0  0  0  0  0  0  0
    9.6440   -3.5700   24.6160 C   0  0  0  0  0  0  0  0  0  0  0  0
    8.6400   -3.1070   23.5730 C   0  0  0  0  0  0  0  0  0  0  0  0
    8.7880   -1.8880   22.6960 C   0  0  1  0  0  0  0  0  0  0  0  0
   10.0180   -1.0540   22.8690 C   0  0  0  0  0  0  0  0  0  0  0  0
   11.4310   -1.4880   22.4190 C   0  0  0  0  0  0  0  0  0  0  0  0
   12.5280   -0.4520   22.6930 C   0  0  0  0  0  0  0  0  0  0  0  0
   12.2170    0.8900   23.3530 C   0  0  0  0  0  0  0  0  0  0  0  0
   10.7460    1.1200   23.7210 C   0  0  0  0  0  0  0  0  0  0  0  0
   10.3720    2.3000   24.3210 C   0  0  0  0  0  0  0  0  0  0  0  0
    9.6500    3.1810   23.6260 N   0  0  0  0  0  0  0  0  0  0  0  0
    9.7530    4.5380   23.9550 C   0  0  0  0  0  0  0  0  0  0  0  0
    9.0750    5.0600   24.8520 O   0  0  0  0  0  0  0  0  0  0  0  0
   10.7480    5.1980   23.2120 N   0  0  0  0  0  0  0  0  0  0  0  0
   11.9950    4.6340   22.9380 C   0  0  0  0  0  0  0  0  0  0  0  0
   12.6530    5.3390   21.9430 C   0  0  0  0  0  0  0  0  0  0  0  0
   12.9150    6.4750   22.3180 O   0  0  0  0  0  0  0  0  0  0  0  0
   12.1190    6.8790   23.4410 C   0  0  0  0  0  0  0  0  0  0  0  0
   10.7850    6.5500   23.2670 C   0  0  0  0  0  0  0  0  0  0  0  0
    9.7320    0.1750   23.4790 C   0  0  0  0  0  0  0  0  0  0  0  0
    8.5300   -2.2650   21.2680 C   0  0  0  0  0  0  0  0  0  0  0  0
  1  2  2  3
  1  3  1  0
  3  4  1  0
  4  5  1  0
  5  6  1  0
  6  7  2  0
  7  8  1  0
  8  9  2  0
  5 10  2  0
  9 10  1  0
 10 11  1  0
 11 12  1  6
 12 13  2  0
 13 14  1  0
 14 15  2  0
 15 16  1  0
 16 17  1  0
 17 18  1  0
 18 19  1  0
 19 20  2  0
 19 21  1  0
 21 22  1  0
 22 23  1  0
 23 24  1  0
 24 25  1  0
 21 26  1  0
 25 26  1  0
 12 27  1  0
 16 27  2  0
  3 28  1  0
 11 28  1  0
M  END
