TAM-UNI-c140e31a-10
     RDKit          3D

 23 24  0  0  0  0  0  0  0  0999 V2000
   12.0750   -2.9210   24.7580 C   0  0  0  0  0  0  0  0  0  0  0  0
   13.1540   -2.1680   23.6180 S   0  0  0  0  0  0  0  0  0  0  0  0
   14.1800   -3.1150   23.3640 O   0  0  0  0  0  0  0  0  0  0  0  0
   13.4190   -0.8590   24.1430 O   0  0  0  0  0  0  0  0  0  0  0  0
   12.1780   -1.9740   22.2810 N   0  0  0  0  0  0  0  0  0  0  0  0
   10.7530   -2.0640   22.4300 C   0  0  0  0  0  0  0  0  0  0  0  0
   10.1560   -1.2540   23.5790 C   0  0  2  0  0  0  0  0  0  0  0  0
    8.6770   -0.9260   23.3960 C   0  0  0  0  0  0  0  0  0  0  0  0
    8.3830   -0.1690   22.0910 C   0  0  0  0  0  0  0  0  0  0  0  0
    9.0820    0.7030   21.5650 O   0  0  0  0  0  0  0  0  0  0  0  0
    7.0910   -0.5830   21.5000 N   0  0  0  0  0  0  0  0  0  0  0  0
    6.5820   -0.0110   20.3420 C   0  0  0  0  0  0  0  0  0  0  0  0
    5.3920    0.8610   20.6200 C   0  0  0  0  0  0  0  0  0  0  0  0
    4.7730    1.5230   19.4060 C   0  0  0  0  0  0  0  0  0  0  0  0
    5.3490    1.2900   18.0250 C   0  0  0  0  0  0  0  0  0  0  0  0
    6.5190    0.4210   17.8450 N   0  0  0  0  0  0  0  0  0  0  0  0
    7.0400   -0.1710   19.0640 C   0  0  0  0  0  0  0  0  0  0  0  0
   10.8380    0.0300   23.5200 C   0  0  0  0  0  0  0  0  0  0  0  0
   10.7140    1.4430   23.7330 C   0  0  0  0  0  0  0  0  0  0  0  0
   11.6540    2.4730   23.5010 C   0  0  0  0  0  0  0  0  0  0  0  0
   13.1130    2.0470   22.9240 C   0  0  0  0  0  0  0  0  0  0  0  0
   13.2340    0.4930   22.7390 C   0  0  0  0  0  0  0  0  0  0  0  0
   11.9620    0.5980   23.1990 C   0  0  0  0  0  0  0  0  0  0  0  0
  1  2  1  0
  2  3  2  0
  2  4  2  0
  2  5  1  0
  5  6  1  0
  7  6  1  6
  7  8  1  0
  8  9  1  0
  9 10  2  0
  9 11  1  0
 11 12  1  0
 12 13  2  0
 13 14  1  0
 14 15  2  0
 15 16  1  0
 12 17  1  0
 16 17  2  0
  7 18  1  0
 18 19  2  0
 19 20  1  0
 20 21  2  0
 21 22  1  0
 18 23  1  0
 22 23  2  0
M  END
