TAM-UNI-d1c3dd9f-3-vinylsulfonamide
     RDKit          3D

 29 32  0  0  0  0  0  0  0  0999 V2000
    7.4110   -3.2850   18.8300 C   0  0  0  0  0  0  0  0  0  0  0  0
    7.4360   -2.4360   20.0390 C   0  0  0  0  0  0  0  0  0  0  0  0
    6.3240   -3.1800   21.1860 S   0  0  0  0  0  0  0  0  0  0  0  0
    5.0470   -3.3030   20.5130 O   0  0  0  0  0  0  0  0  0  0  0  0
    6.8790   -4.3010   21.9380 O   0  0  0  0  0  0  0  0  0  0  0  0
    6.3640   -1.9960   22.3230 N   0  0  0  0  0  0  0  0  0  0  0  0
    6.1540   -2.6220   23.6070 C   0  0  0  0  0  0  0  0  0  0  0  0
    7.1770   -3.3550   24.1810 C   0  0  0  0  0  0  0  0  0  0  0  0
    6.9470   -4.3180   25.1630 C   0  0  0  0  0  0  0  0  0  0  0  0
    7.9740   -5.0600   25.7540 C   0  0  0  0  0  0  0  0  0  0  0  0
    9.3000   -4.8880   25.4030 C   0  0  0  0  0  0  0  0  0  0  0  0
    9.6680   -3.8550   24.3350 C   0  0  0  0  0  0  0  0  0  0  0  0
    8.4800   -3.0920   23.7350 C   0  0  0  0  0  0  0  0  0  0  0  0
    8.7720   -2.0680   22.6480 C   0  0  2  0  0  0  0  0  0  0  0  0
    9.9860   -1.1510   22.7560 C   0  0  0  0  0  0  0  0  0  0  0  0
   11.4190   -1.6670   22.5570 C   0  0  0  0  0  0  0  0  0  0  0  0
   12.4890   -0.5830   22.6370 C   0  0  0  0  0  0  0  0  0  0  0  0
   12.0020    0.8400   22.8870 C   0  0  0  0  0  0  0  0  0  0  0  0
   12.9250    1.8410   22.9130 C   0  0  0  0  0  0  0  0  0  0  0  0
   12.5510    3.1700   23.1140 C   0  0  0  0  0  0  0  0  0  0  0  0
   11.2230    3.4990   23.3210 C   0  0  0  0  0  0  0  0  0  0  0  0
   10.7650    5.1840   23.6080 S   0  0  0  0  0  0  0  0  0  0  0  0
    9.2860    5.2950   22.8170 N   0  0  0  0  0  0  0  0  0  0  0  0
   10.5110    5.3580   25.0220 O   0  0  0  0  0  0  0  0  0  0  0  0
   11.6540    6.0580   22.8720 O   0  0  0  0  0  0  0  0  0  0  0  0
   10.2770    2.4850   23.3000 C   0  0  0  0  0  0  0  0  0  0  0  0
   10.6660    1.1580   23.0720 C   0  0  0  0  0  0  0  0  0  0  0  0
    9.7040    0.1880   23.0130 C   0  0  0  0  0  0  0  0  0  0  0  0
    7.6390   -1.2710   22.2570 C   0  0  0  0  0  0  0  0  0  0  0  0
  1  2  1  0
  3  2  1  0
  3  4  2  0
  3  5  2  0
  3  6  1  0
  6  7  1  0
  7  8  1  0
  8  9  1  0
  9 10  2  0
 10 11  1  0
 11 12  2  0
  8 13  2  0
 12 13  1  0
 13 14  1  0
 14 15  1  1
 15 16  2  0
 16 17  1  0
 17 18  2  0
 18 19  1  0
 19 20  2  0
 20 21  1  0
 21 22  1  0
 22 23  1  0
 22 24  2  0
 22 25  2  0
 21 26  2  0
 18 27  1  0
 26 27  1  0
 15 28  1  0
 27 28  2  0
  6 29  1  0
 14 29  1  0
M  END
