TAM-UNI-d1c3dd9f-18-acrylamide
     RDKit          3D

 23 24  0  0  0  0  0  0  0  0999 V2000
    7.9690   -3.4210   19.8030 C   0  0  0  0  0  0  0  0  0  0  0  0
    6.9510   -2.5950   19.0890 C   0  0  0  0  0  0  0  0  0  0  0  0
    5.8920   -2.6500   20.1120 C   0  0  0  0  0  0  0  0  0  0  0  0
    4.8620   -3.2760   19.9150 O   0  0  0  0  0  0  0  0  0  0  0  0
    6.2180   -1.9990   21.3000 N   0  0  0  0  0  0  0  0  0  0  0  0
    7.1850   -0.9070   21.1860 C   0  0  0  0  0  0  0  0  0  0  0  0
    8.5340   -1.2780   21.7780 C   0  0  0  0  0  0  0  0  0  0  0  0
    8.4470   -1.8470   23.1330 N   0  0  0  0  0  0  0  0  0  0  0  0
    9.8460   -2.1100   23.5710 C   0  0  0  0  0  0  0  0  0  0  0  0
   10.6450   -0.8310   23.5510 C   0  0  0  0  0  0  0  0  0  0  0  0
   10.2430    0.4370   23.9380 C   0  0  0  0  0  0  0  0  0  0  0  0
   11.0870    1.5350   23.8310 C   0  0  0  0  0  0  0  0  0  0  0  0
   10.7070    2.8190   24.1880 C   0  0  0  0  0  0  0  0  0  0  0  0
    9.3970    3.3240   24.0490 N   0  0  0  0  0  0  0  0  0  0  0  0
   12.4590    1.2740   23.2920 C   0  0  0  0  0  0  0  0  0  0  0  0
   12.8390   -0.0050   22.9210 C   0  0  0  0  0  0  0  0  0  0  0  0
   11.9990   -1.1110   23.0120 C   0  0  0  0  0  0  0  0  0  0  0  0
   12.4150   -2.3130   22.6210 N   0  0  0  0  0  0  0  0  0  0  0  0
   13.1240   -2.1780   21.4790 C   0  0  0  0  0  0  0  0  0  0  0  0
   13.3430   -3.4570   20.7000 C   0  0  0  0  0  0  0  0  0  0  0  0
   13.6740   -1.0490   20.9950 O   0  0  0  0  0  0  0  0  0  0  0  0
    7.5320   -3.0000   23.1880 C   0  0  0  0  0  0  0  0  0  0  0  0
    6.3320   -2.7570   22.4880 C   0  0  0  0  0  0  0  0  0  0  0  0
  1  2  1  0
  2  3  1  0
  3  4  2  0
  3  5  1  0
  5  6  1  0
  6  7  1  0
  7  8  1  0
  8  9  1  0
  9 10  1  0
 10 11  2  0
 11 12  1  0
 12 13  1  0
 13 14  3  0
 12 15  2  0
 15 16  1  0
 10 17  1  0
 16 17  2  0
 17 18  1  0
 18 19  1  0
 19 20  1  0
 19 21  2  0
  8 22  1  0
  5 23  1  0
 22 23  1  0
M  END
