TAM-UNI-c140e31a-13
     RDKit          3D

 24 26  0  0  0  0  0  0  0  0999 V2000
   15.2920   -2.6930   25.7510 N   0  0  0  0  0  0  0  0  0  0  0  0
   13.7300   -2.9760   25.7090 S   0  0  0  0  0  0  0  0  0  0  0  0
   13.8400   -1.8930   26.5240 O   0  0  0  0  0  0  0  0  0  0  0  0
   13.6240   -4.3470   26.0570 O   0  0  0  0  0  0  0  0  0  0  0  0
   12.5630   -2.2070   24.6510 C   0  0  0  0  0  0  0  0  0  0  0  0
   12.7380   -0.6960   24.7190 C   0  0  0  0  0  0  0  0  0  0  0  0
   11.8880    0.2480   23.9680 C   0  0  0  0  0  0  0  0  0  0  0  0
   10.8110   -0.3880   23.1380 C   0  0  0  0  0  0  0  0  0  0  0  0
   10.6610   -1.8960   23.0950 C   0  0  0  0  0  0  0  0  0  0  0  0
   11.5990   -2.7860   23.8970 C   0  0  0  0  0  0  0  0  0  0  0  0
    9.5760   -2.5330   22.2840 C   0  0  0  0  0  0  0  0  0  0  0  0
    8.4250   -1.5830   21.9900 C   0  0  0  0  0  0  0  0  0  0  0  0
    8.6330   -0.3720   22.6580 N   0  0  0  0  0  0  0  0  0  0  0  0
    7.7010    0.5710   23.1290 C   0  0  0  0  0  0  0  0  0  0  0  0
    7.1660    1.2650   21.9190 C   0  0  0  0  0  0  0  0  0  0  0  0
    8.2390    2.0380   21.3120 O   0  0  0  0  0  0  0  0  0  0  0  0
    5.8510    1.0870   21.5250 N   0  0  0  0  0  0  0  0  0  0  0  0
    5.5830    1.2670   20.1840 C   0  0  0  0  0  0  0  0  0  0  0  0
    4.5220    2.3100   19.8080 C   0  0  0  0  0  0  0  0  0  0  0  0
    4.3040    2.4590   18.4840 C   0  0  0  0  0  0  0  0  0  0  0  0
    5.1870    1.5310   17.7870 C   0  0  0  0  0  0  0  0  0  0  0  0
    5.9820    0.7270   17.7940 N   0  0  0  0  0  0  0  0  0  0  0  0
    6.2280    0.5550   19.1210 C   0  0  0  0  0  0  0  0  0  0  0  0
    9.8280    0.3220   22.3500 C   0  0  0  0  0  0  0  0  0  0  0  0
  2  1  1  0
  2  3  2  0
  2  4  2  0
  2  5  1  0
  5  6  2  0
  6  7  1  0
  7  8  2  0
  8  9  1  0
  5 10  1  0
  9 10  2  0
  9 11  1  0
 11 12  1  0
 12 13  1  0
 13 14  1  0
 14 15  1  0
 15 16  2  0
 15 17  1  0
 17 18  1  0
 18 19  2  0
 19 20  1  0
 20 21  2  0
 21 22  1  0
 18 23  1  0
 22 23  2  0
  8 24  1  0
 13 24  1  0
M  END
