TAM-UNI-d1c3dd9f-8-vinylsulfonamide
     RDKit          3D

 29 32  0  0  0  0  0  0  0  0999 V2000
    6.4070   -3.5930   19.3630 C   0  0  0  0  0  0  0  0  0  0  0  0
    6.5860   -2.5080   20.4140 C   0  0  0  0  0  0  0  0  0  0  0  0
    5.9600   -2.9830   22.0040 S   0  0  0  0  0  0  0  0  0  0  0  0
    4.9660   -4.0380   21.8620 O   0  0  0  0  0  0  0  0  0  0  0  0
    5.6340   -1.7780   22.7450 O   0  0  0  0  0  0  0  0  0  0  0  0
    7.3950   -3.6080   22.6410 N   0  0  0  0  0  0  0  0  0  0  0  0
    7.3800   -4.1720   23.9870 C   0  0  0  0  0  0  0  0  0  0  0  0
    8.5370   -4.2700   24.7240 C   0  0  0  0  0  0  0  0  0  0  0  0
    8.6330   -5.0550   25.8750 C   0  0  0  0  0  0  0  0  0  0  0  0
    9.8150   -5.1510   26.6150 C   0  0  0  0  0  0  0  0  0  0  0  0
   10.9680   -4.4650   26.2550 C   0  0  0  0  0  0  0  0  0  0  0  0
   10.9790   -3.5840   25.0240 C   0  0  0  0  0  0  0  0  0  0  0  0
    9.6470   -3.5470   24.2720 C   0  0  0  0  0  0  0  0  0  0  0  0
    9.6560   -2.7000   23.0220 C   0  0  2  0  0  0  0  0  0  0  0  0
   10.0250   -1.2290   23.0910 C   0  0  0  0  0  0  0  0  0  0  0  0
    8.9160   -0.2710   23.5210 C   0  0  0  0  0  0  0  0  0  0  0  0
    9.3130    1.2000   23.5170 C   0  0  0  0  0  0  0  0  0  0  0  0
   10.7390    1.5540   23.0970 C   0  0  0  0  0  0  0  0  0  0  0  0
   11.6490    0.5500   22.7520 C   0  0  0  0  0  0  0  0  0  0  0  0
   11.2950   -0.7960   22.7490 C   0  0  0  0  0  0  0  0  0  0  0  0
   13.0590    0.9450   22.3570 C   0  0  0  0  0  0  0  0  0  0  0  0
   13.1320    2.3460   21.9820 N   0  0  0  0  0  0  0  0  0  0  0  0
   14.7460    2.9170   21.8220 S   0  0  0  0  0  0  0  0  0  0  0  0
   15.5430    3.3880   20.2300 C   0  0  0  0  0  0  0  0  0  0  0  0
   14.8110    4.1580   22.5670 O   0  0  0  0  0  0  0  0  0  0  0  0
   15.0880    1.6110   22.2210 O   0  0  0  0  0  0  0  0  0  0  0  0
   12.5420    2.9750   23.0150 C   0  0  0  0  0  0  0  0  0  0  0  0
   11.1640    2.9880   23.0440 C   0  0  0  0  0  0  0  0  0  0  0  0
    8.5720   -2.8720   22.1390 C   0  0  0  0  0  0  0  0  0  0  0  0
  1  2  1  0
  3  2  1  0
  3  4  2  0
  3  5  2  0
  3  6  1  0
  6  7  1  0
  7  8  1  0
  8  9  1  0
  9 10  2  0
 10 11  1  0
 11 12  2  0
  8 13  2  0
 12 13  1  0
 13 14  1  0
 14 15  1  1
 15 16  2  0
 16 17  1  0
 17 18  2  0
 18 19  1  0
 15 20  1  0
 19 20  2  0
 19 21  1  0
 21 22  1  0
 22 23  1  0
 23 24  1  0
 23 25  2  0
 23 26  2  0
 22 27  1  0
 18 28  1  0
 27 28  1  0
  6 29  1  0
 14 29  1  0
M  END
