TAM-UNI-c140e31a-1
     RDKit          3D

 25 27  0  0  0  0  0  0  0  0999 V2000
    9.0940    5.3800   22.7910 N   0  0  0  0  0  0  0  0  0  0  0  0
   10.4710    5.3570   23.7850 S   0  0  0  0  0  0  0  0  0  0  0  0
   11.4250    6.3000   23.2420 O   0  0  0  0  0  0  0  0  0  0  0  0
    9.9510    5.5160   25.1240 O   0  0  0  0  0  0  0  0  0  0  0  0
   11.0690    3.6800   23.5590 C   0  0  0  0  0  0  0  0  0  0  0  0
   12.4700    3.6220   22.9550 C   0  0  0  0  0  0  0  0  0  0  0  0
   13.1260    2.2930   22.7240 C   0  0  0  0  0  0  0  0  0  0  0  0
   12.4370    0.9660   23.0630 C   0  0  0  0  0  0  0  0  0  0  0  0
   11.0190    1.0880   23.6630 C   0  0  0  0  0  0  0  0  0  0  0  0
   10.3960    2.5020   23.8840 C   0  0  0  0  0  0  0  0  0  0  0  0
   10.1370   -0.0590   24.0770 C   0  0  0  0  0  0  0  0  0  0  0  0
    9.8350   -0.9410   23.0740 N   0  0  0  0  0  0  0  0  0  0  0  0
    8.5940   -1.5570   22.7050 C   0  0  0  0  0  0  0  0  0  0  0  0
    8.0130   -0.6160   21.6620 C   0  0  0  0  0  0  0  0  0  0  0  0
    8.7790    0.5720   21.4090 O   0  0  0  0  0  0  0  0  0  0  0  0
    6.7490   -1.1560   21.1450 N   0  0  0  0  0  0  0  0  0  0  0  0
    6.2990   -0.3110   20.0370 C   0  0  0  0  0  0  0  0  0  0  0  0
    5.0720    0.5410   20.3180 C   0  0  0  0  0  0  0  0  0  0  0  0
    4.5400    1.4410   19.2100 C   0  0  0  0  0  0  0  0  0  0  0  0
    5.1700    1.4840   17.9550 C   0  0  0  0  0  0  0  0  0  0  0  0
    6.3260    0.6250   17.8220 N   0  0  0  0  0  0  0  0  0  0  0  0
    6.8500   -0.2070   18.7840 C   0  0  0  0  0  0  0  0  0  0  0  0
   11.0000   -1.1390   22.3000 C   0  0  0  0  0  0  0  0  0  0  0  0
   12.2680   -1.5190   23.0000 C   0  0  0  0  0  0  0  0  0  0  0  0
   13.0860   -0.2700   22.8360 C   0  0  0  0  0  0  0  0  0  0  0  0
  2  1  1  0
  2  3  2  0
  2  4  2  0
  2  5  1  0
  5  6  2  0
  6  7  1  0
  7  8  2  0
  8  9  1  0
  5 10  1  0
  9 10  2  0
  9 11  1  0
 11 12  1  0
 12 13  1  0
 13 14  1  0
 14 15  2  0
 14 16  1  0
 16 17  1  0
 17 18  2  0
 18 19  1  0
 19 20  2  0
 20 21  1  0
 17 22  1  0
 21 22  2  0
 12 23  1  0
 23 24  1  0
  8 25  1  0
 24 25  1  0
M  END
