TAM-UNI-d1c3dd9f-11-chloroacetamide
     RDKit          3D

 30 33  0  0  0  0  0  0  0  0999 V2000
    6.6930   -3.3540   19.3500 C   0  0  0  0  0  0  0  0  0  0  0  0
    5.8240   -4.1500   20.3040 C   0  0  0  0  0  0  0  0  0  0  0  0
    5.4540   -5.2720   20.0180 O   0  0  0  0  0  0  0  0  0  0  0  0
    5.5000   -3.5010   21.4640 N   0  0  0  0  0  0  0  0  0  0  0  0
    4.9710   -4.0900   22.6540 C   0  0  0  0  0  0  0  0  0  0  0  0
    5.8780   -4.2110   23.6980 C   0  0  0  0  0  0  0  0  0  0  0  0
    5.9740   -5.2820   24.5990 C   0  0  0  0  0  0  0  0  0  0  0  0
    6.9270   -5.3190   25.6300 C   0  0  0  0  0  0  0  0  0  0  0  0
    7.8530   -4.3070   25.8450 C   0  0  0  0  0  0  0  0  0  0  0  0
    7.9000   -3.0850   24.9820 C   0  0  0  0  0  0  0  0  0  0  0  0
    6.8600   -3.0640   23.8760 C   0  0  0  0  0  0  0  0  0  0  0  0
    6.7570   -1.9090   22.9220 C   0  0  1  0  0  0  0  0  0  0  0  0
    8.1290   -1.2760   22.7820 C   0  0  0  0  0  0  0  0  0  0  0  0
    8.3990    0.0290   23.1830 C   0  0  0  0  0  0  0  0  0  0  0  0
    9.6430    0.6260   23.1040 C   0  0  0  0  0  0  0  0  0  0  0  0
   10.7070   -0.2250   22.5650 C   0  0  0  0  0  0  0  0  0  0  0  0
   12.0900    0.2490   22.4490 C   0  0  0  0  0  0  0  0  0  0  0  0
   12.4190    1.5520   22.8630 C   0  0  0  0  0  0  0  0  0  0  0  0
   11.7710    1.3670   24.1350 C   0  0  0  0  0  0  0  0  0  0  0  0
   11.0420    0.0740   24.3640 C   0  0  0  0  0  0  0  0  0  0  0  0
   11.8930   -0.8400   25.1100 N   0  0  0  0  0  0  0  0  0  0  0  0
   12.8010   -1.6800   24.4860 C   0  0  0  0  0  0  0  0  0  0  0  0
   13.2800   -2.8610   25.3340 C   0  0  0  0  0  0  0  0  0  0  0  0
   13.2310   -1.5320   23.3600 O   0  0  0  0  0  0  0  0  0  0  0  0
   12.8150   -0.7610   21.9320 C   0  0  0  0  0  0  0  0  0  0  0  0
   11.9590   -1.7960   21.7050 N   0  0  0  0  0  0  0  0  0  0  0  0
   12.5390   -2.9360   21.1220 C   0  0  0  0  0  0  0  0  0  0  0  0
   10.5530   -1.4860   22.1370 C   0  0  0  0  0  0  0  0  0  0  0  0
    9.2370   -2.0600   22.2260 C   0  0  0  0  0  0  0  0  0  0  0  0
    6.0310   -2.1520   21.5960 C   0  0  0  0  0  0  0  0  0  0  0  0
  1  2  1  0
  2  3  2  0
  2  4  1  0
  4  5  1  0
  5  6  1  0
  6  7  1  0
  7  8  2  0
  8  9  1  0
  9 10  2  0
  6 11  2  0
 10 11  1  0
 11 12  1  0
 12 13  1  6
 13 14  2  0
 14 15  1  0
 15 16  2  0
 16 17  1  0
 17 18  1  0
 18 19  1  0
 19 20  1  0
 20 21  1  0
 21 22  1  0
 22 23  1  0
 22 24  2  0
 17 25  2  0
 25 26  1  0
 26 27  1  0
 16 28  1  0
 26 28  1  0
 13 29  1  0
 28 29  2  0
  4 30  1  0
 12 30  1  0
M  END
