TAM-UNI-c140e31a-7
     RDKit          3D

 24 26  0  0  0  0  0  0  0  0999 V2000
   11.5110    6.3560   23.4550 N   0  0  0  0  0  0  0  0  0  0  0  0
   10.2640    5.2750   23.8850 S   0  0  0  0  0  0  0  0  0  0  0  0
    9.1850    5.4700   22.9490 O   0  0  0  0  0  0  0  0  0  0  0  0
   10.0200    5.5020   25.2970 O   0  0  0  0  0  0  0  0  0  0  0  0
   11.0070    3.6710   23.5670 C   0  0  0  0  0  0  0  0  0  0  0  0
   12.4300    3.6610   22.9440 C   0  0  0  0  0  0  0  0  0  0  0  0
   13.1060    2.3390   22.6300 C   0  0  0  0  0  0  0  0  0  0  0  0
   12.3680    1.0210   22.9230 C   0  0  0  0  0  0  0  0  0  0  0  0
   10.9960    1.1270   23.5340 C   0  0  0  0  0  0  0  0  0  0  0  0
   10.3570    2.4850   23.8420 C   0  0  0  0  0  0  0  0  0  0  0  0
   10.2060   -0.0910   23.8340 C   0  0  0  0  0  0  0  0  0  0  0  0
   10.2810   -0.9810   22.7900 N   0  0  0  0  0  0  0  0  0  0  0  0
    9.1810   -1.6440   22.1340 C   0  0  0  0  0  0  0  0  0  0  0  0
    8.3490   -0.5280   21.5150 C   0  0  0  0  0  0  0  0  0  0  0  0
    9.0190    0.7270   21.3570 O   0  0  0  0  0  0  0  0  0  0  0  0
    6.9850   -0.9950   21.2120 N   0  0  0  0  0  0  0  0  0  0  0  0
    6.4710   -0.2190   20.0710 C   0  0  0  0  0  0  0  0  0  0  0  0
    5.2350    0.6190   20.3520 C   0  0  0  0  0  0  0  0  0  0  0  0
    4.6410    1.4430   19.2160 C   0  0  0  0  0  0  0  0  0  0  0  0
    5.2200    1.4330   17.9380 C   0  0  0  0  0  0  0  0  0  0  0  0
    6.3880    0.5950   17.8070 N   0  0  0  0  0  0  0  0  0  0  0  0
    6.9680   -0.1720   18.7920 C   0  0  0  0  0  0  0  0  0  0  0  0
   11.6490   -1.2590   22.3310 C   0  0  0  0  0  0  0  0  0  0  0  0
   12.8650   -0.3660   22.6420 C   0  0  0  0  0  0  0  0  0  0  0  0
  2  1  1  0
  2  3  2  0
  2  4  2  0
  2  5  1  0
  5  6  2  0
  6  7  1  0
  7  8  2  0
  8  9  1  0
  5 10  1  0
  9 10  2  0
  9 11  1  0
 11 12  1  0
 12 13  1  0
 13 14  1  0
 14 15  2  0
 14 16  1  0
 16 17  1  0
 17 18  2  0
 18 19  1  0
 19 20  2  0
 20 21  1  0
 17 22  1  0
 21 22  2  0
 12 23  1  0
  8 24  1  0
 23 24  1  0
M  END
