TAM-UNI-d1c3dd9f-5-vinylsulfonamide
     RDKit          3D

 26 28  0  0  0  0  0  0  0  0999 V2000
    7.8910   -3.5290   19.7130 C   0  0  0  0  0  0  0  0  0  0  0  0
    7.0050   -2.5930   18.9800 C   0  0  0  0  0  0  0  0  0  0  0  0
    5.6510   -2.6100   20.0450 S   0  0  0  0  0  0  0  0  0  0  0  0
    5.2570   -3.9930   20.2610 O   0  0  0  0  0  0  0  0  0  0  0  0
    4.7420   -1.6510   19.5400 O   0  0  0  0  0  0  0  0  0  0  0  0
    6.3770   -2.0170   21.4630 N   0  0  0  0  0  0  0  0  0  0  0  0
    7.5140   -1.1280   21.2780 C   0  0  0  0  0  0  0  0  0  0  0  0
    8.7330   -1.4750   21.7970 C   0  0  0  0  0  0  0  0  0  0  0  0
    8.5600   -2.0950   23.1170 N   0  0  0  0  0  0  0  0  0  0  0  0
    9.6360   -2.1940   23.9760 C   0  0  0  0  0  0  0  0  0  0  0  0
   10.6000   -1.2630   23.6250 C   0  0  0  0  0  0  0  0  0  0  0  0
   11.8750   -1.5280   23.1020 C   0  0  0  0  0  0  0  0  0  0  0  0
   12.8880   -0.4380   22.7010 C   0  0  0  0  0  0  0  0  0  0  0  0
   12.4520    1.0350   22.8880 C   0  0  0  0  0  0  0  0  0  0  0  0
   11.1060    1.2610   23.4460 C   0  0  0  0  0  0  0  0  0  0  0  0
   10.2090    0.0760   23.8070 C   0  0  0  0  0  0  0  0  0  0  0  0
   10.5720    2.7250   23.6710 C   0  0  0  0  0  0  0  0  0  0  0  0
   11.1070    3.7570   22.8630 N   0  0  0  0  0  0  0  0  0  0  0  0
   10.8780    5.3760   23.3220 S   0  0  0  0  0  0  0  0  0  0  0  0
    9.1060    5.5820   23.2820 C   0  0  0  0  0  0  0  0  0  0  0  0
   11.2940    5.5430   24.6920 O   0  0  0  0  0  0  0  0  0  0  0  0
   11.4310    6.2070   22.2790 O   0  0  0  0  0  0  0  0  0  0  0  0
   12.3310    3.4650   22.1890 C   0  0  0  0  0  0  0  0  0  0  0  0
   12.9620    2.3310   22.6880 C   0  0  0  0  0  0  0  0  0  0  0  0
    7.8170   -3.2380   22.9600 C   0  0  0  0  0  0  0  0  0  0  0  0
    6.4940   -2.9790   22.5740 C   0  0  0  0  0  0  0  0  0  0  0  0
  1  2  1  0
  3  2  1  0
  3  4  2  0
  3  5  2  0
  3  6  1  0
  6  7  1  0
  7  8  1  0
  8  9  1  0
  9 10  1  0
 10 11  1  0
 11 12  2  0
 12 13  1  0
 13 14  2  0
 14 15  1  0
 11 16  1  0
 15 16  2  0
 15 17  1  0
 17 18  1  0
 18 19  1  0
 19 20  1  0
 19 21  2  0
 19 22  2  0
 18 23  1  0
 14 24  1  0
 23 24  1  0
  9 25  1  0
  6 26  1  0
 25 26  1  0
M  END
