THO-SYG-98fc3427-11-acrylamide
     RDKit          3D

 27 29  0  0  0  0  0  0  0  0999 V2000
    7.9720   -3.5660   19.7010 C   0  0  0  0  0  0  0  0  0  0  0  0
    7.3330   -2.8130   20.8550 C   0  0  0  0  0  0  0  0  0  0  0  0
    6.0840   -3.4990   21.2970 C   0  0  0  0  0  0  0  0  0  0  0  0
    5.1380   -3.4970   20.5470 O   0  0  0  0  0  0  0  0  0  0  0  0
    6.1820   -4.0800   22.5330 N   0  0  0  0  0  0  0  0  0  0  0  0
    7.3500   -3.9960   23.3250 C   0  0  0  0  0  0  0  0  0  0  0  0
    7.9270   -2.6230   23.7400 C   0  0  0  0  0  0  0  0  0  0  0  0
    9.2040   -2.5520   24.6560 C   0  0  0  0  0  0  0  0  0  0  0  0
    9.7720   -3.9080   25.0720 C   0  0  0  0  0  0  0  0  0  0  0  0
   10.9290   -4.0080   25.9410 C   0  0  0  0  0  0  0  0  0  0  0  0
   10.6180   -4.8700   27.0300 O   0  0  0  0  0  0  0  0  0  0  0  0
    9.0490   -4.8270   24.5400 C   0  0  0  0  0  0  0  0  0  0  0  0
    8.6500   -3.4760   24.2300 C   0  0  0  0  0  0  0  0  0  0  0  0
    9.3730   -2.5530   23.1560 C   0  0  0  0  0  0  0  0  0  0  0  0
   10.6280   -1.8740   23.2770 C   0  0  0  0  0  0  0  0  0  0  0  0
   11.1260   -1.0230   24.3050 C   0  0  0  0  0  0  0  0  0  0  0  0
   12.4180   -0.5330   24.0350 C   0  0  0  0  0  0  0  0  0  0  0  0
   13.0210   -1.1010   22.5500 S   0  0  0  0  0  0  0  0  0  0  0  0
   11.5850   -1.9770   22.2740 C   0  0  0  0  0  0  0  0  0  0  0  0
    7.9810   -5.1120   23.7620 C   0  0  0  0  0  0  0  0  0  0  0  0
    5.2950   -5.0440   23.2090 C   0  0  1  0  0  0  0  0  0  0  0  0
    4.2030   -4.4280   24.0060 C   0  0  0  0  0  0  0  0  0  0  0  0
    3.2530   -5.2920   24.3620 C   0  0  0  0  0  0  0  0  0  0  0  0
    3.5660   -6.8840   23.7300 S   0  0  0  0  0  0  0  0  0  0  0  0
    2.3940   -7.2580   22.9730 O   0  0  0  0  0  0  0  0  0  0  0  0
    4.1220   -7.7580   24.7490 O   0  0  0  0  0  0  0  0  0  0  0  0
    4.8910   -6.3780   22.6200 C   0  0  0  0  0  0  0  0  0  0  0  0
  1  2  1  0
  2  3  1  0
  3  4  2  0
  3  5  1  0
  5  6  1  0
  6  7  2  0
  7  8  1  0
  8  9  2  0
  9 10  1  0
 10 11  1  0
  9 12  1  0
 12 13  1  0
 13 14  1  0
 14 15  1  0
 15 16  1  0
 16 17  2  0
 17 18  1  0
 15 19  2  0
 18 19  1  0
  6 20  1  0
 12 20  2  0
 21  5  1  6
 21 22  1  0
 22 23  2  0
 24 23  1  0
 24 25  2  0
 24 26  2  0
 21 27  1  0
 24 27  1  0
M  END
