THO-SYG-98fc3427-8-chloroacetamide
     RDKit          3D

 24 26  0  0  0  0  0  0  0  0999 V2000
    7.8390   -3.9150   20.6650 C   0  0  0  0  0  0  0  0  0  0  0  0
    6.3400   -4.3330   20.8370 C   0  0  0  0  0  0  0  0  0  0  0  0
    5.5460   -4.6530   19.9510 O   0  0  0  0  0  0  0  0  0  0  0  0
    5.9570   -4.2740   22.1820 N   0  0  0  0  0  0  0  0  0  0  0  0
    7.0510   -4.2490   23.0530 C   0  0  0  0  0  0  0  0  0  0  0  0
    7.5760   -5.6470   23.2140 C   0  0  0  0  0  0  0  0  0  0  0  0
    8.7000   -5.7860   24.1390 C   0  0  0  0  0  0  0  0  0  0  0  0
    9.1710   -4.5530   24.7980 C   0  0  0  0  0  0  0  0  0  0  0  0
   10.2480   -5.1180   25.6560 C   0  0  0  0  0  0  0  0  0  0  0  0
    8.6310   -3.2400   24.5750 C   0  0  0  0  0  0  0  0  0  0  0  0
    9.0450   -1.8940   25.1860 C   0  0  0  0  0  0  0  0  0  0  0  0
    8.6910   -1.5530   26.4980 C   0  0  0  0  0  0  0  0  0  0  0  0
    9.0970   -0.2400   27.1160 C   0  0  0  0  0  0  0  0  0  0  0  0
    8.6430   -0.1350   28.4060 C   0  0  0  0  0  0  0  0  0  0  0  0
    7.7630   -1.5180   28.9010 S   0  0  0  0  0  0  0  0  0  0  0  0
    7.9640   -2.3080   27.3950 C   0  0  0  0  0  0  0  0  0  0  0  0
    7.5610   -3.1370   23.6840 C   0  0  0  0  0  0  0  0  0  0  0  0
    5.2980   -5.3150   23.0060 C   0  0  1  0  0  0  0  0  0  0  0  0
    4.7670   -4.6130   24.2320 C   0  0  0  0  0  0  0  0  0  0  0  0
    3.8320   -5.3350   24.8620 C   0  0  0  0  0  0  0  0  0  0  0  0
    3.5170   -6.8380   24.0700 S   0  0  0  0  0  0  0  0  0  0  0  0
    4.3620   -7.8690   24.6180 O   0  0  0  0  0  0  0  0  0  0  0  0
    2.0910   -7.0090   23.9030 O   0  0  0  0  0  0  0  0  0  0  0  0
    4.1440   -6.1420   22.5530 C   0  0  0  0  0  0  0  0  0  0  0  0
  1  2  1  0
  2  3  2  0
  2  4  1  0
  4  5  1  0
  5  6  2  0
  6  7  1  0
  7  8  2  0
  8  9  1  0
  8 10  1  0
 10 11  1  0
 11 12  1  0
 12 13  1  0
 13 14  2  0
 14 15  1  0
 12 16  2  0
 15 16  1  0
  5 17  1  0
 10 17  2  0
 18  4  1  6
 18 19  1  0
 19 20  2  0
 21 20  1  0
 21 22  2  0
 21 23  2  0
 18 24  1  0
 21 24  1  0
M  END
