THO-SYG-98fc3427-9-chloroacetamide
     RDKit          3D

 25 27  0  0  0  0  0  0  0  0999 V2000
    7.9780   -3.7550   20.5230 C   0  0  0  0  0  0  0  0  0  0  0  0
    6.5310   -4.2340   20.7920 C   0  0  0  0  0  0  0  0  0  0  0  0
    5.6670   -4.4900   19.9300 O   0  0  0  0  0  0  0  0  0  0  0  0
    6.2810   -4.3510   22.1600 N   0  0  0  0  0  0  0  0  0  0  0  0
    7.4060   -4.2380   23.0720 C   0  0  0  0  0  0  0  0  0  0  0  0
    7.8030   -2.8360   23.6320 C   0  0  0  0  0  0  0  0  0  0  0  0
    9.0350   -2.7040   24.6180 C   0  0  0  0  0  0  0  0  0  0  0  0
    9.7500   -4.0040   24.9480 C   0  0  0  0  0  0  0  0  0  0  0  0
   10.9080   -4.0040   25.8740 C   0  0  0  0  0  0  0  0  0  0  0  0
    9.1550   -4.9770   24.3070 C   0  0  0  0  0  0  0  0  0  0  0  0
    8.5470   -3.5470   24.0700 C   0  0  0  0  0  0  0  0  0  0  0  0
    9.1700   -2.4220   23.3340 C   0  0  0  0  0  0  0  0  0  0  0  0
   10.6330   -1.8720   23.2450 C   0  0  0  0  0  0  0  0  0  0  0  0
   11.1870   -1.0560   24.2180 C   0  0  0  0  0  0  0  0  0  0  0  0
   12.4990   -0.6380   23.9680 C   0  0  0  0  0  0  0  0  0  0  0  0
   13.0480   -1.2820   22.4860 S   0  0  0  0  0  0  0  0  0  0  0  0
   11.5470   -2.0790   22.2270 C   0  0  0  0  0  0  0  0  0  0  0  0
    8.1440   -5.3240   23.4550 C   0  0  0  0  0  0  0  0  0  0  0  0
    5.0350   -4.8830   22.7150 C   0  0  2  0  0  0  0  0  0  0  0  0
    4.8640   -4.4040   23.9650 C   0  0  0  0  0  0  0  0  0  0  0  0
    4.1420   -5.3750   24.8420 C   0  0  0  0  0  0  0  0  0  0  0  0
    3.7820   -6.8110   23.9780 S   0  0  0  0  0  0  0  0  0  0  0  0
    4.2080   -7.9350   24.7750 O   0  0  0  0  0  0  0  0  0  0  0  0
    2.4660   -6.7390   23.3730 O   0  0  0  0  0  0  0  0  0  0  0  0
    5.0490   -6.4210   22.7730 C   0  0  0  0  0  0  0  0  0  0  0  0
  1  2  1  0
  2  3  2  0
  2  4  1  0
  4  5  1  0
  5  6  2  0
  6  7  1  0
  7  8  2  0
  8  9  1  0
  8 10  1  0
 10 11  1  0
 11 12  1  0
 12 13  1  0
 13 14  1  0
 14 15  2  0
 15 16  1  0
 13 17  2  0
 16 17  1  0
  5 18  1  0
 10 18  2  0
 19  4  1  1
 19 20  1  0
 20 21  2  0
 22 21  1  0
 22 23  2  0
 22 24  2  0
 19 25  1  0
 22 25  1  0
M  END
