THO-SYG-98fc3427-10-chloroacetamide
     RDKit          3D

 25 27  0  0  0  0  0  0  0  0999 V2000
    8.0070   -4.3030   20.6860 C   0  0  0  0  0  0  0  0  0  0  0  0
    6.4810   -4.3480   20.9270 C   0  0  0  0  0  0  0  0  0  0  0  0
    5.6380   -4.5980   20.0120 O   0  0  0  0  0  0  0  0  0  0  0  0
    6.1800   -4.0690   22.2760 N   0  0  0  0  0  0  0  0  0  0  0  0
    7.3970   -3.8030   23.0150 C   0  0  0  0  0  0  0  0  0  0  0  0
    8.1830   -2.5210   22.8440 C   0  0  0  0  0  0  0  0  0  0  0  0
    9.4620   -2.4030   23.6780 C   0  0  0  0  0  0  0  0  0  0  0  0
    9.7990   -3.5770   24.5830 C   0  0  0  0  0  0  0  0  0  0  0  0
   11.0770   -3.3870   25.3500 C   0  0  0  0  0  0  0  0  0  0  0  0
   11.4250   -4.5310   26.1080 O   0  0  0  0  0  0  0  0  0  0  0  0
    8.9760   -4.6790   24.6470 C   0  0  0  0  0  0  0  0  0  0  0  0
    9.0940   -5.9100   25.4420 C   0  0  0  0  0  0  0  0  0  0  0  0
    8.2170   -6.6750   24.7290 C   0  0  0  0  0  0  0  0  0  0  0  0
    6.7350   -6.6320   24.9850 C   0  0  0  0  0  0  0  0  0  0  0  0
    6.0920   -7.4650   24.1160 C   0  0  0  0  0  0  0  0  0  0  0  0
    7.1520   -8.2440   23.0540 S   0  0  0  0  0  0  0  0  0  0  0  0
    8.5320   -7.5080   23.7150 C   0  0  0  0  0  0  0  0  0  0  0  0
    7.8270   -4.7660   23.8780 C   0  0  0  0  0  0  0  0  0  0  0  0
    5.5030   -5.0520   23.1520 C   0  0  1  0  0  0  0  0  0  0  0  0
    4.5520   -4.3490   24.0900 C   0  0  0  0  0  0  0  0  0  0  0  0
    3.5170   -5.1140   24.4480 C   0  0  0  0  0  0  0  0  0  0  0  0
    3.5090   -6.6840   23.7270 S   0  0  0  0  0  0  0  0  0  0  0  0
    4.0580   -7.6710   24.6610 O   0  0  0  0  0  0  0  0  0  0  0  0
    2.2290   -6.8950   23.0910 O   0  0  0  0  0  0  0  0  0  0  0  0
    4.7400   -6.1800   22.5040 C   0  0  0  0  0  0  0  0  0  0  0  0
  1  2  1  0
  2  3  2  0
  2  4  1  0
  4  5  1  0
  5  6  2  0
  6  7  1  0
  7  8  2  0
  8  9  1  0
  9 10  1  0
  8 11  1  0
 11 12  1  0
 12 13  1  0
 13 14  1  0
 14 15  2  0
 15 16  1  0
 13 17  2  0
 16 17  1  0
  5 18  1  0
 11 18  2  0
 19  4  1  6
 19 20  1  0
 20 21  2  0
 22 21  1  0
 22 23  2  0
 22 24  2  0
 19 25  1  0
 22 25  1  0
M  END
