THO-SYG-98fc3427-7-chloroacetamide
     RDKit          3D

 31 33  0  0  0  0  0  0  0  0999 V2000
    7.0010   -3.4400   19.8670 C   0  0  0  0  0  0  0  0  0  0  0  0
    6.1360   -4.4660   20.6410 C   0  0  0  0  0  0  0  0  0  0  0  0
    5.3940   -5.1970   20.0090 O   0  0  0  0  0  0  0  0  0  0  0  0
    6.1100   -4.5660   22.0360 N   0  0  0  0  0  0  0  0  0  0  0  0
    7.2490   -4.5170   22.8830 C   0  0  0  0  0  0  0  0  0  0  0  0
    7.8900   -5.8110   23.3670 C   0  0  0  0  0  0  0  0  0  0  0  0
    9.1040   -5.6460   24.2670 C   0  0  0  0  0  0  0  0  0  0  0  0
    9.5000   -4.2110   24.5410 C   0  0  0  0  0  0  0  0  0  0  0  0
   10.7150   -4.0180   25.3940 C   0  0  0  0  0  0  0  0  0  0  0  0
   11.8140   -3.5780   24.6200 O   0  0  0  0  0  0  0  0  0  0  0  0
    8.7970   -3.1320   24.0400 C   0  0  0  0  0  0  0  0  0  0  0  0
    9.1290   -1.7110   24.3230 C   0  0  0  0  0  0  0  0  0  0  0  0
   10.2940   -1.1380   23.9130 C   0  0  0  0  0  0  0  0  0  0  0  0
   11.1430   -1.7330   22.8280 C   0  0  0  0  0  0  0  0  0  0  0  0
   12.2680   -1.0040   22.5520 C   0  0  0  0  0  0  0  0  0  0  0  0
   13.1120   -1.4340   21.5730 C   0  0  0  0  0  0  0  0  0  0  0  0
   13.7430   -1.7560   20.7010 N   0  0  0  0  0  0  0  0  0  0  0  0
   12.5600    0.1640   23.2350 C   0  0  0  0  0  0  0  0  0  0  0  0
   11.7850    0.6820   24.2080 N   0  0  0  0  0  0  0  0  0  0  0  0
   10.6660    0.0190   24.5290 C   0  0  0  0  0  0  0  0  0  0  0  0
    9.8680    0.5670   25.5400 N   0  0  0  0  0  0  0  0  0  0  0  0
    8.5910   -0.1200   25.7720 C   0  0  0  0  0  0  0  0  0  0  0  0
    8.0260    0.2350   26.9230 C   0  0  0  0  0  0  0  0  0  0  0  0
    7.7120   -3.2930   23.2340 C   0  0  0  0  0  0  0  0  0  0  0  0
    4.8940   -4.9620   22.7450 C   0  0  2  0  0  0  0  0  0  0  0  0
    4.8960   -4.4880   24.0050 C   0  0  0  0  0  0  0  0  0  0  0  0
    4.2120   -5.4350   24.9430 C   0  0  0  0  0  0  0  0  0  0  0  0
    3.6810   -6.8340   24.1040 S   0  0  0  0  0  0  0  0  0  0  0  0
    4.1280   -7.9940   24.8290 O   0  0  0  0  0  0  0  0  0  0  0  0
    2.3210   -6.6850   23.6210 O   0  0  0  0  0  0  0  0  0  0  0  0
    4.8410   -6.4870   22.7950 C   0  0  0  0  0  0  0  0  0  0  0  0
  1  2  1  0
  2  3  2  0
  2  4  1  0
  4  5  1  0
  5  6  2  0
  6  7  1  0
  7  8  2  0
  8  9  1  0
  9 10  1  0
  8 11  1  0
 11 12  1  0
 12 13  1  0
 13 14  2  0
 14 15  1  0
 15 16  1  0
 16 17  3  0
 15 18  2  0
 18 19  1  0
 13 20  1  0
 19 20  2  0
 20 21  1  0
 21 22  1  0
 22 23  1  0
  5 24  1  0
 11 24  2  0
 25  4  1  1
 25 26  1  0
 26 27  2  0
 28 27  1  0
 28 29  2  0
 28 30  2  0
 25 31  1  0
 28 31  1  0
M  END
