THO-SYG-98fc3427-4-acrylamide
     RDKit          3D

 31 33  0  0  0  0  0  0  0  0999 V2000
    7.3310   -3.4000   19.5080 C   0  0  0  0  0  0  0  0  0  0  0  0
    7.2250   -2.7340   20.8590 C   0  0  0  0  0  0  0  0  0  0  0  0
    5.8810   -3.1090   21.4160 C   0  0  0  0  0  0  0  0  0  0  0  0
    4.9620   -3.1650   20.6320 O   0  0  0  0  0  0  0  0  0  0  0  0
    5.7730   -3.3540   22.7790 N   0  0  0  0  0  0  0  0  0  0  0  0
    7.0110   -3.4480   23.4790 C   0  0  0  0  0  0  0  0  0  0  0  0
    7.9880   -2.2520   23.8440 C   0  0  0  0  0  0  0  0  0  0  0  0
    9.3270   -2.5950   24.6790 C   0  0  0  0  0  0  0  0  0  0  0  0
    9.4970   -4.0350   25.0310 C   0  0  0  0  0  0  0  0  0  0  0  0
   10.0260   -5.2240   25.5570 C   0  0  0  0  0  0  0  0  0  0  0  0
    8.5140   -4.7990   24.5690 C   0  0  0  0  0  0  0  0  0  0  0  0
    8.3080   -3.3810   24.2270 C   0  0  0  0  0  0  0  0  0  0  0  0
    9.3650   -2.3710   23.9210 C   0  0  0  0  0  0  0  0  0  0  0  0
   10.3120   -2.6530   22.9100 C   0  0  0  0  0  0  0  0  0  0  0  0
   11.3400   -1.7670   22.5320 C   0  0  0  0  0  0  0  0  0  0  0  0
   12.3390   -2.1380   21.4250 C   0  0  0  0  0  0  0  0  0  0  0  0
   13.5180   -1.2870   21.4410 N   0  0  0  0  0  0  0  0  0  0  0  0
   11.4710   -0.5380   23.1570 C   0  0  0  0  0  0  0  0  0  0  0  0
   10.6510   -0.1340   24.1230 N   0  0  0  0  0  0  0  0  0  0  0  0
    9.5400   -1.0460   24.5560 C   0  0  0  0  0  0  0  0  0  0  0  0
    8.7720   -0.4910   25.5370 N   0  0  0  0  0  0  0  0  0  0  0  0
    8.4960   -1.0040   26.8710 C   0  0  0  0  0  0  0  0  0  0  0  0
    9.0330   -0.1870   27.8440 C   0  0  0  0  0  0  0  0  0  0  0  0
    7.3930   -4.8320   23.9120 C   0  0  0  0  0  0  0  0  0  0  0  0
    4.9320   -4.4480   23.3460 C   0  0  1  0  0  0  0  0  0  0  0  0
    3.6170   -4.0710   23.9130 C   0  0  0  0  0  0  0  0  0  0  0  0
    2.7260   -5.2490   24.0570 C   0  0  0  0  0  0  0  0  0  0  0  0
    3.4530   -6.7040   23.4750 S   0  0  0  0  0  0  0  0  0  0  0  0
    3.9850   -7.5280   24.5540 O   0  0  0  0  0  0  0  0  0  0  0  0
    2.5160   -7.2440   22.5260 O   0  0  0  0  0  0  0  0  0  0  0  0
    4.7940   -5.8150   22.6210 C   0  0  0  0  0  0  0  0  0  0  0  0
  1  2  1  0
  2  3  1  0
  3  4  2  0
  3  5  1  0
  5  6  1  0
  6  7  2  0
  7  8  1  0
  8  9  2  0
  9 10  1  0
  9 11  1  0
 11 12  1  0
 12 13  1  0
 13 14  2  0
 14 15  1  0
 15 16  1  0
 16 17  3  0
 15 18  2  0
 18 19  1  0
 13 20  1  0
 19 20  2  0
 20 21  1  0
 21 22  1  0
 22 23  1  0
  6 24  1  0
 11 24  2  0
 25  5  1  6
 25 26  1  0
 26 27  2  0
 28 27  1  0
 28 29  2  0
 28 30  2  0
 25 31  1  0
 28 31  1  0
M  END
