THO-SYG-98fc3427-9-vinylsulfonamide
     RDKit          3D

 27 29  0  0  0  0  0  0  0  0999 V2000
    8.2700   -3.9220   20.1390 C   0  0  0  0  0  0  0  0  0  0  0  0
    7.0580   -3.1160   19.8320 C   0  0  0  0  0  0  0  0  0  0  0  0
    5.7690   -3.9930   20.5890 S   0  0  0  0  0  0  0  0  0  0  0  0
    4.8550   -3.0330   21.0270 O   0  0  0  0  0  0  0  0  0  0  0  0
    5.3080   -4.9760   19.6720 O   0  0  0  0  0  0  0  0  0  0  0  0
    6.1950   -4.7820   21.9890 N   0  0  0  0  0  0  0  0  0  0  0  0
    7.3130   -4.5310   22.8810 C   0  0  0  0  0  0  0  0  0  0  0  0
    8.0680   -5.7490   23.3800 C   0  0  0  0  0  0  0  0  0  0  0  0
    9.2100   -5.5510   24.3420 C   0  0  0  0  0  0  0  0  0  0  0  0
    9.4980   -4.1080   24.7250 C   0  0  0  0  0  0  0  0  0  0  0  0
   10.6440   -3.9770   25.7110 C   0  0  0  0  0  0  0  0  0  0  0  0
    8.7380   -3.0260   24.1930 C   0  0  0  0  0  0  0  0  0  0  0  0
    8.9490   -1.5430   24.5280 C   0  0  0  0  0  0  0  0  0  0  0  0
   10.2090   -1.0780   24.8610 C   0  0  0  0  0  0  0  0  0  0  0  0
   11.3140   -0.9610   23.8520 C   0  0  0  0  0  0  0  0  0  0  0  0
   12.2150    0.0380   23.9760 C   0  0  0  0  0  0  0  0  0  0  0  0
   13.2070    0.0660   23.0200 C   0  0  0  0  0  0  0  0  0  0  0  0
   12.9910   -1.2330   21.9370 S   0  0  0  0  0  0  0  0  0  0  0  0
   11.5810   -1.7330   22.7740 C   0  0  0  0  0  0  0  0  0  0  0  0
    7.6770   -3.2560   23.2930 C   0  0  0  0  0  0  0  0  0  0  0  0
    4.9900   -5.0870   22.7520 C   0  0  2  0  0  0  0  0  0  0  0  0
    4.9490   -4.5570   23.9850 C   0  0  0  0  0  0  0  0  0  0  0  0
    4.2170   -5.4010   24.9890 C   0  0  0  0  0  0  0  0  0  0  0  0
    3.6700   -6.8320   24.2010 S   0  0  0  0  0  0  0  0  0  0  0  0
    2.3000   -6.7000   23.7570 O   0  0  0  0  0  0  0  0  0  0  0  0
    4.1340   -7.9830   24.9290 O   0  0  0  0  0  0  0  0  0  0  0  0
    4.7540   -6.5720   22.8260 C   0  0  0  0  0  0  0  0  0  0  0  0
  1  2  1  0
  2  3  1  0
  3  4  2  0
  3  5  2  0
  3  6  1  0
  6  7  1  0
  7  8  2  0
  8  9  1  0
  9 10  2  0
 10 11  1  0
 10 12  1  0
 12 13  1  0
 13 14  1  0
 14 15  1  0
 15 16  1  0
 16 17  2  0
 17 18  1  0
 15 19  2  0
 18 19  1  0
  7 20  1  0
 12 20  2  0
 21  6  1  1
 21 22  1  0
 22 23  2  0
 24 23  1  0
 24 25  2  0
 24 26  2  0
 21 27  1  0
 24 27  1  0
M  END
