THO-SYG-98fc3427-7-nitrile
     RDKit          3D

 30 32  0  0  0  0  0  0  0  0999 V2000
    6.3630   -4.3350   20.3090 C   0  0  0  0  0  0  0  0  0  0  0  0
    5.3420   -3.9630   19.6990 N   0  0  0  0  0  0  0  0  0  0  0  0
    6.2590   -4.6290   21.6910 N   0  0  0  0  0  0  0  0  0  0  0  0
    7.2590   -4.5500   22.7090 C   0  0  0  0  0  0  0  0  0  0  0  0
    7.0290   -5.4920   23.8600 C   0  0  0  0  0  0  0  0  0  0  0  0
    8.0150   -5.4730   24.9950 C   0  0  0  0  0  0  0  0  0  0  0  0
    9.1530   -4.5140   24.8530 C   0  0  0  0  0  0  0  0  0  0  0  0
   10.0020   -4.6710   26.0860 C   0  0  0  0  0  0  0  0  0  0  0  0
    9.4970   -3.8530   27.1260 O   0  0  0  0  0  0  0  0  0  0  0  0
    9.2670   -3.6840   23.6940 C   0  0  0  0  0  0  0  0  0  0  0  0
   10.2820   -2.6980   23.2570 C   0  0  0  0  0  0  0  0  0  0  0  0
   10.3550   -1.3950   23.9640 C   0  0  0  0  0  0  0  0  0  0  0  0
   11.3620   -1.5910   22.9900 C   0  0  0  0  0  0  0  0  0  0  0  0
   12.4620   -0.7070   22.5860 C   0  0  0  0  0  0  0  0  0  0  0  0
   13.2150   -1.2450   21.6090 C   0  0  0  0  0  0  0  0  0  0  0  0
   13.7540   -1.6780   20.7150 N   0  0  0  0  0  0  0  0  0  0  0  0
   12.6010    0.4620   23.1650 C   0  0  0  0  0  0  0  0  0  0  0  0
   11.7180    0.7630   24.0810 N   0  0  0  0  0  0  0  0  0  0  0  0
   10.7160   -0.0980   24.4230 C   0  0  0  0  0  0  0  0  0  0  0  0
    9.8660    0.3620   25.4240 N   0  0  0  0  0  0  0  0  0  0  0  0
    8.7040   -0.3930   25.8770 C   0  0  0  0  0  0  0  0  0  0  0  0
    8.5310   -0.2140   27.3630 C   0  0  0  0  0  0  0  0  0  0  0  0
    8.3310   -3.7240   22.6960 C   0  0  0  0  0  0  0  0  0  0  0  0
    5.0490   -5.0000   22.4570 C   0  0  2  0  0  0  0  0  0  0  0  0
    4.9230   -4.4520   23.6910 C   0  0  0  0  0  0  0  0  0  0  0  0
    4.2890   -5.2120   24.6200 C   0  0  0  0  0  0  0  0  0  0  0  0
    3.8150   -6.7330   23.9380 S   0  0  0  0  0  0  0  0  0  0  0  0
    2.4530   -6.6380   23.4510 O   0  0  0  0  0  0  0  0  0  0  0  0
    4.2590   -7.8340   24.7660 O   0  0  0  0  0  0  0  0  0  0  0  0
    4.9310   -6.5040   22.5740 C   0  0  0  0  0  0  0  0  0  0  0  0
  1  2  2  3
  1  3  1  0
  3  4  1  0
  4  5  2  0
  5  6  1  0
  6  7  2  0
  7  8  1  0
  8  9  1  0
  7 10  1  0
 10 11  1  0
 11 12  1  0
 12 13  2  0
 13 14  1  0
 14 15  1  0
 15 16  3  0
 14 17  2  0
 17 18  1  0
 12 19  1  0
 18 19  2  0
 19 20  1  0
 20 21  1  0
 21 22  1  0
  4 23  1  0
 10 23  2  0
 24  3  1  1
 24 25  1  0
 25 26  2  0
 27 26  1  0
 27 28  2  0
 27 29  2  0
 24 30  1  0
 27 30  1  0
M  END
