TOB-UNK-c2aba166-1-acrylamide
     RDKit          3D

 13 13  0  0  0  0  0  0  0  0999 V2000
    7.4600   -2.9900   18.3910 C   0  0  0  0  0  0  0  0  0  0  0  0
    6.6420   -1.9590   19.1080 C   0  0  0  0  0  0  0  0  0  0  0  0
    5.9870   -2.4920   20.3450 C   0  0  0  0  0  0  0  0  0  0  0  0
    5.0220   -3.2970   20.3100 O   0  0  0  0  0  0  0  0  0  0  0  0
    6.5740   -2.0400   21.4950 N   0  0  0  0  0  0  0  0  0  0  0  0
    7.5430   -0.9210   21.4780 C   0  0  0  0  0  0  0  0  0  0  0  0
    8.8990   -1.5800   21.7590 C   0  0  0  0  0  0  0  0  0  0  0  0
    8.7930   -2.0310   23.1830 N   0  0  0  0  0  0  0  0  0  0  0  0
   10.0880   -2.2680   23.8530 C   0  0  0  0  0  0  0  0  0  0  0  0
   11.2440   -1.8550   22.9600 C   0  0  0  0  0  0  0  0  0  0  0  0
   11.5240   -0.4220   23.4790 C   0  0  0  0  0  0  0  0  0  0  0  0
    7.8390   -3.1430   23.3530 C   0  0  0  0  0  0  0  0  0  0  0  0
    6.5060   -2.9000   22.6810 C   0  0  0  0  0  0  0  0  0  0  0  0
  1  2  1  0
  2  3  1  0
  3  4  2  0
  3  5  1  0
  5  6  1  0
  6  7  1  0
  7  8  1  0
  8  9  1  0
  9 10  1  0
 10 11  3  0
  8 12  1  0
  5 13  1  0
 12 13  1  0
M  END
