TOB-UNK-c2aba166-1-chloroacetamide
     RDKit          3D

 12 12  0  0  0  0  0  0  0  0999 V2000
    7.3820   -2.9470   18.6970 C   0  0  0  0  0  0  0  0  0  0  0  0
    6.4730   -3.1890   19.8530 C   0  0  0  0  0  0  0  0  0  0  0  0
    5.5140   -3.9780   19.7110 O   0  0  0  0  0  0  0  0  0  0  0  0
    6.7790   -2.5240   21.0300 N   0  0  0  0  0  0  0  0  0  0  0  0
    7.5690   -1.2740   21.0290 C   0  0  0  0  0  0  0  0  0  0  0  0
    8.9150   -1.6900   21.6280 C   0  0  0  0  0  0  0  0  0  0  0  0
    8.6480   -1.9980   23.0500 N   0  0  0  0  0  0  0  0  0  0  0  0
    9.8730   -2.3590   23.8150 C   0  0  0  0  0  0  0  0  0  0  0  0
   11.0970   -1.9100   22.9680 C   0  0  0  0  0  0  0  0  0  0  0  0
   11.4070   -0.6990   23.8290 C   0  0  0  0  0  0  0  0  0  0  0  0
    7.7350   -3.1300   23.2710 C   0  0  0  0  0  0  0  0  0  0  0  0
    6.4860   -3.0530   22.3720 C   0  0  0  0  0  0  0  0  0  0  0  0
  1  2  1  0
  2  3  2  0
  2  4  1  0
  4  5  1  0
  5  6  1  0
  6  7  1  0
  7  8  1  0
  8  9  1  0
  9 10  3  0
  7 11  1  0
  4 12  1  0
 11 12  1  0
M  END
