TOB-UNK-c2aba166-3-acrylamide
     RDKit          3D

 13 13  0  0  0  0  0  0  0  0999 V2000
    7.8650   -3.2130   19.0060 C   0  0  0  0  0  0  0  0  0  0  0  0
    6.6300   -2.3730   18.9110 C   0  0  0  0  0  0  0  0  0  0  0  0
    5.9780   -2.5330   20.2370 C   0  0  0  0  0  0  0  0  0  0  0  0
    4.9460   -3.1810   20.3440 O   0  0  0  0  0  0  0  0  0  0  0  0
    6.6190   -1.9960   21.3220 N   0  0  0  0  0  0  0  0  0  0  0  0
    7.6630   -0.9610   21.2210 C   0  0  0  0  0  0  0  0  0  0  0  0
    8.9610   -1.6860   21.5980 C   0  0  0  0  0  0  0  0  0  0  0  0
    8.8550   -2.0590   23.0470 N   0  0  0  0  0  0  0  0  0  0  0  0
   10.1600   -2.5330   23.5560 C   0  0  0  0  0  0  0  0  0  0  0  0
   10.8410   -1.4350   24.3620 C   0  0  0  0  0  0  0  0  0  0  0  0
   11.8840   -0.8750   23.3560 C   0  0  0  0  0  0  0  0  0  0  0  0
    7.8020   -3.0730   23.2560 C   0  0  0  0  0  0  0  0  0  0  0  0
    6.4860   -2.7240   22.5950 C   0  0  0  0  0  0  0  0  0  0  0  0
  1  2  1  0
  2  3  1  0
  3  4  2  0
  3  5  1  0
  5  6  1  0
  6  7  1  0
  7  8  1  0
  8  9  1  0
  9 10  1  0
 10 11  3  0
  8 12  1  0
  5 13  1  0
 12 13  1  0
M  END
