TOB-UNK-c2aba166-3-chloroacetamide
     RDKit          3D

 12 12  0  0  0  0  0  0  0  0999 V2000
    7.3820   -2.9770   18.7410 C   0  0  0  0  0  0  0  0  0  0  0  0
    6.4470   -3.1810   19.8840 C   0  0  0  0  0  0  0  0  0  0  0  0
    5.4890   -3.9670   19.7150 O   0  0  0  0  0  0  0  0  0  0  0  0
    6.7320   -2.5060   21.0630 N   0  0  0  0  0  0  0  0  0  0  0  0
    7.4690   -1.2290   21.0790 C   0  0  0  0  0  0  0  0  0  0  0  0
    8.8620   -1.6310   21.5720 C   0  0  0  0  0  0  0  0  0  0  0  0
    8.7350   -2.0240   22.9940 N   0  0  0  0  0  0  0  0  0  0  0  0
   10.0400   -2.5370   23.4880 C   0  0  0  0  0  0  0  0  0  0  0  0
   10.6940   -1.4260   24.3500 C   0  0  0  0  0  0  0  0  0  0  0  0
   11.7430   -0.9940   23.3310 C   0  0  0  0  0  0  0  0  0  0  0  0
    7.8170   -3.1500   23.2430 C   0  0  0  0  0  0  0  0  0  0  0  0
    6.5310   -3.0900   22.3970 C   0  0  0  0  0  0  0  0  0  0  0  0
  1  2  1  0
  2  3  2  0
  2  4  1  0
  4  5  1  0
  5  6  1  0
  6  7  1  0
  7  8  1  0
  8  9  1  0
  9 10  3  0
  7 11  1  0
  4 12  1  0
 11 12  1  0
M  END
