TOB-UNK-c2aba166-3-nitrile
     RDKit          3D

 11 11  0  0  0  0  0  0  0  0999 V2000
    7.1750   -3.8700   20.2200 C   0  0  0  0  0  0  0  0  0  0  0  0
    6.0070   -4.2780   19.8420 N   0  0  0  0  0  0  0  0  0  0  0  0
    7.4010   -3.2710   21.4580 N   0  0  0  0  0  0  0  0  0  0  0  0
    8.4050   -2.2270   21.6740 C   0  0  0  0  0  0  0  0  0  0  0  0
    7.9200   -1.0810   21.0530 C   0  0  0  0  0  0  0  0  0  0  0  0
    6.4520   -0.9670   21.1380 N   0  0  0  0  0  0  0  0  0  0  0  0
    5.7760   -1.2250   19.8510 C   0  0  0  0  0  0  0  0  0  0  0  0
    6.2650   -0.4350   18.8030 C   0  0  0  0  0  0  0  0  0  0  0  0
    5.4500    0.6790   18.3060 C   0  0  0  0  0  0  0  0  0  0  0  0
    5.8670   -1.7630   22.2630 C   0  0  0  0  0  0  0  0  0  0  0  0
    6.3150   -3.0870   22.2900 C   0  0  0  0  0  0  0  0  0  0  0  0
  1  2  2  3
  1  3  1  0
  3  4  1  0
  4  5  1  0
  5  6  1  0
  6  7  1  0
  7  8  1  0
  8  9  3  0
  6 10  1  0
  3 11  1  0
 10 11  1  0
M  END
