TOB-UNK-c2aba166-5-chloroacetamide
     RDKit          3D

 24 27  0  0  0  0  0  0  0  0999 V2000
    7.2190   -3.0490   18.9680 C   0  0  0  0  0  0  0  0  0  0  0  0
    6.2230   -3.5260   19.9910 C   0  0  0  0  0  0  0  0  0  0  0  0
    5.2440   -4.2040   19.7270 O   0  0  0  0  0  0  0  0  0  0  0  0
    6.4480   -3.2140   21.3120 N   0  0  0  0  0  0  0  0  0  0  0  0
    6.1760   -1.8840   21.8880 C   0  0  0  0  0  0  0  0  0  0  0  0
    6.8030   -1.7150   23.1090 C   0  0  0  0  0  0  0  0  0  0  0  0
    6.4900   -2.8110   24.0660 N   0  0  0  0  0  0  0  0  0  0  0  0
    6.8010   -2.5200   25.4660 C   0  0  0  0  0  0  0  0  0  0  0  0
    7.6840   -1.4740   25.5210 C   0  0  0  0  0  0  0  0  0  0  0  0
    8.7370   -1.3680   24.5400 C   0  0  0  0  0  0  0  0  0  0  0  0
    9.4190   -0.3200   24.7790 N   0  0  0  0  0  0  0  0  0  0  0  0
   10.4700    0.0920   24.0840 C   0  0  0  0  0  0  0  0  0  0  0  0
   11.1710    1.4180   24.0380 C   0  0  0  0  0  0  0  0  0  0  0  0
   12.3880    1.6630   23.1800 C   0  0  0  0  0  0  0  0  0  0  0  0
   12.7490    0.5160   22.4570 C   0  0  0  0  0  0  0  0  0  0  0  0
   13.7940    0.2650   21.5420 N   0  0  0  0  0  0  0  0  0  0  0  0
   13.6170   -1.1810   21.1070 C   0  0  0  0  0  0  0  0  0  0  0  0
   12.4880   -1.7190   21.7760 N   0  0  0  0  0  0  0  0  0  0  0  0
   11.9810   -0.7600   22.5530 C   0  0  0  0  0  0  0  0  0  0  0  0
   10.9490   -0.8870   23.3110 C   0  0  0  0  0  0  0  0  0  0  0  0
    8.9480    0.3420   25.8620 N   0  0  0  0  0  0  0  0  0  0  0  0
    7.8730   -0.3550   26.3390 N   0  0  0  0  0  0  0  0  0  0  0  0
    7.0060   -4.0090   23.6350 C   0  0  0  0  0  0  0  0  0  0  0  0
    6.5150   -4.3610   22.2390 C   0  0  0  0  0  0  0  0  0  0  0  0
  1  2  1  0
  2  3  2  0
  2  4  1  0
  4  5  1  0
  5  6  1  0
  6  7  1  0
  7  8  1  0
  8  9  1  0
  9 10  2  0
 10 11  1  0
 11 12  1  0
 12 13  2  0
 13 14  1  0
 14 15  2  0
 15 16  1  0
 16 17  2  0
 17 18  1  0
 15 19  1  0
 18 19  1  0
 12 20  1  0
 19 20  2  0
 11 21  1  0
  9 22  1  0
 21 22  2  0
  7 23  1  0
  4 24  1  0
 23 24  1  0
M  END
