TOB-UNK-c2aba166-6-acrylamide
     RDKit          3D

 12 12  0  0  0  0  0  0  0  0999 V2000
    7.5030   -2.9540   18.3140 C   0  0  0  0  0  0  0  0  0  0  0  0
    6.5880   -1.9560   18.9850 C   0  0  0  0  0  0  0  0  0  0  0  0
    5.9600   -2.4790   20.2420 C   0  0  0  0  0  0  0  0  0  0  0  0
    5.0130   -3.3050   20.2480 O   0  0  0  0  0  0  0  0  0  0  0  0
    6.5570   -1.9890   21.3600 N   0  0  0  0  0  0  0  0  0  0  0  0
    7.7950   -1.1980   21.2180 C   0  0  0  0  0  0  0  0  0  0  0  0
    8.3440   -1.0890   22.6340 C   0  0  0  0  0  0  0  0  0  0  0  0
    8.9560   -2.4920   22.7880 C   0  0  0  0  0  0  0  0  0  0  0  0
    7.6890   -3.1360   23.3320 C   0  0  1  0  0  0  0  0  0  0  0  0
    7.6620   -2.4820   24.7380 C   0  0  0  0  0  0  0  0  0  0  0  0
    6.4230   -1.6490   25.0880 C   0  0  0  0  0  0  0  0  0  0  0  0
    6.4010   -2.8160   22.5550 C   0  0  0  0  0  0  0  0  0  0  0  0
  1  2  1  0
  2  3  1  0
  3  4  2  0
  3  5  1  0
  5  6  1  0
  6  7  1  0
  7  8  1  0
  8  9  1  0
  9 10  1  1
 10 11  3  0
  5 12  1  0
  9 12  1  0
M  END
