TOB-UNK-c2aba166-5-vinylsulfonamide
     RDKit          3D

 26 29  0  0  0  0  0  0  0  0999 V2000
    7.4030   -2.8840   18.5370 C   0  0  0  0  0  0  0  0  0  0  0  0
    6.5830   -2.3390   19.6980 C   0  0  0  0  0  0  0  0  0  0  0  0
    5.9100   -3.5670   20.7870 S   0  0  0  0  0  0  0  0  0  0  0  0
    4.7350   -3.0620   21.4390 O   0  0  0  0  0  0  0  0  0  0  0  0
    5.7740   -4.8440   20.1080 O   0  0  0  0  0  0  0  0  0  0  0  0
    7.1340   -3.5100   21.9580 N   0  0  0  0  0  0  0  0  0  0  0  0
    7.5560   -2.1720   22.3680 C   0  0  0  0  0  0  0  0  0  0  0  0
    8.8520   -2.2040   22.8340 C   0  0  0  0  0  0  0  0  0  0  0  0
    9.0310   -3.0050   24.0570 N   0  0  0  0  0  0  0  0  0  0  0  0
   10.4160   -3.4450   24.1770 C   0  0  0  0  0  0  0  0  0  0  0  0
   11.3700   -2.4510   24.0300 C   0  0  0  0  0  0  0  0  0  0  0  0
   11.8950   -2.0300   22.7260 C   0  0  0  0  0  0  0  0  0  0  0  0
   12.7670   -1.0700   22.8480 N   0  0  0  0  0  0  0  0  0  0  0  0
   13.4800   -0.3390   21.8840 C   0  0  0  0  0  0  0  0  0  0  0  0
   13.8500   -0.9800   20.5430 C   0  0  0  0  0  0  0  0  0  0  0  0
   14.6160   -0.2030   19.3860 C   0  0  0  0  0  0  0  0  0  0  0  0
   14.9450    1.1670   19.6400 C   0  0  0  0  0  0  0  0  0  0  0  0
   15.6130    2.2180   18.8410 N   0  0  0  0  0  0  0  0  0  0  0  0
   15.5850    3.3890   19.7790 C   0  0  0  0  0  0  0  0  0  0  0  0
   14.9450    3.0160   21.0250 N   0  0  0  0  0  0  0  0  0  0  0  0
   14.5420    1.7230   21.0140 C   0  0  0  0  0  0  0  0  0  0  0  0
   13.8800    0.9940   22.0130 C   0  0  0  0  0  0  0  0  0  0  0  0
   12.9020   -0.7970   24.1860 N   0  0  0  0  0  0  0  0  0  0  0  0
   12.0700   -1.6180   24.9070 N   0  0  0  0  0  0  0  0  0  0  0  0
    8.1550   -4.0890   24.1630 C   0  0  0  0  0  0  0  0  0  0  0  0
    7.3700   -4.5710   22.9310 C   0  0  0  0  0  0  0  0  0  0  0  0
  1  2  1  0
  3  2  1  0
  3  4  2  0
  3  5  2  0
  3  6  1  0
  6  7  1  0
  7  8  1  0
  8  9  1  0
  9 10  1  0
 10 11  1  0
 11 12  2  0
 12 13  1  0
 13 14  1  0
 14 15  2  0
 15 16  1  0
 16 17  2  0
 17 18  1  0
 18 19  2  0
 19 20  1  0
 17 21  1  0
 20 21  1  0
 14 22  1  0
 21 22  2  0
 13 23  1  0
 11 24  1  0
 23 24  2  0
  9 25  1  0
  6 26  1  0
 25 26  1  0
M  END
