TOB-UNK-c2aba166-1-chloroacetamide
     RDKit          3D

 12 12  0  0  0  0  0  0  0  0999 V2000
    7.3470   -2.9500   18.7040 C   0  0  0  0  0  0  0  0  0  0  0  0
    6.4190   -3.2110   19.8370 C   0  0  0  0  0  0  0  0  0  0  0  0
    5.4810   -4.0170   19.7340 O   0  0  0  0  0  0  0  0  0  0  0  0
    6.7000   -2.4910   21.0380 N   0  0  0  0  0  0  0  0  0  0  0  0
    7.7030   -1.4200   20.9840 C   0  0  0  0  0  0  0  0  0  0  0  0
    8.8650   -1.7450   21.7120 C   0  0  0  0  0  0  0  0  0  0  0  0
    8.6010   -2.0480   23.0090 N   0  0  0  0  0  0  0  0  0  0  0  0
    9.8260   -2.3460   23.8060 C   0  0  0  0  0  0  0  0  0  0  0  0
   11.0780   -1.7900   23.2780 C   0  0  0  0  0  0  0  0  0  0  0  0
   11.4380   -0.3780   23.4970 C   0  0  0  0  0  0  0  0  0  0  0  0
    7.7190   -3.1130   23.0370 C   0  0  0  0  0  0  0  0  0  0  0  0
    6.5200   -3.0140   22.3040 C   0  0  0  0  0  0  0  0  0  0  0  0
  1  2  1  0
  2  3  2  0
  2  4  1  0
  4  5  1  0
  5  6  1  0
  6  7  1  0
  7  8  1  0
  8  9  1  0
  9 10  3  0
  7 11  1  0
  4 12  1  0
 11 12  1  0
M  END
