TOB-UNK-c2aba166-3-acrylamide
     RDKit          3D

 13 13  0  0  0  0  0  0  0  0999 V2000
    7.8700   -3.2070   19.0180 C   0  0  0  0  0  0  0  0  0  0  0  0
    6.6620   -2.3450   18.9400 C   0  0  0  0  0  0  0  0  0  0  0  0
    5.9570   -2.5210   20.2350 C   0  0  0  0  0  0  0  0  0  0  0  0
    4.9410   -3.1930   20.2880 O   0  0  0  0  0  0  0  0  0  0  0  0
    6.5540   -1.9710   21.3700 N   0  0  0  0  0  0  0  0  0  0  0  0
    7.7090   -1.0740   21.2160 C   0  0  0  0  0  0  0  0  0  0  0  0
    8.9040   -1.7230   21.5770 C   0  0  0  0  0  0  0  0  0  0  0  0
    8.8440   -2.0720   22.9150 N   0  0  0  0  0  0  0  0  0  0  0  0
    9.9770   -2.4250   23.6820 C   0  0  0  0  0  0  0  0  0  0  0  0
   10.8780   -1.3630   24.1650 C   0  0  0  0  0  0  0  0  0  0  0  0
   11.8840   -0.8050   23.3900 C   0  0  0  0  0  0  0  0  0  0  0  0
    7.8530   -2.9630   23.1250 C   0  0  0  0  0  0  0  0  0  0  0  0
    6.4890   -2.6790   22.5440 C   0  0  0  0  0  0  0  0  0  0  0  0
  1  2  1  0
  2  3  1  0
  3  4  2  0
  3  5  1  0
  5  6  1  0
  6  7  1  0
  7  8  1  0
  8  9  1  0
  9 10  1  0
 10 11  3  0
  8 12  1  0
  5 13  1  0
 12 13  1  0
M  END
