TOB-UNK-c2aba166-3-vinylsulfonamide
     RDKit          3D

 14 14  0  0  0  0  0  0  0  0999 V2000
    8.8010   -5.0080   21.0940 C   0  0  0  0  0  0  0  0  0  0  0  0
    7.4050   -5.4040   21.5870 C   0  0  0  0  0  0  0  0  0  0  0  0
    6.2050   -4.1300   21.3780 S   0  0  0  0  0  0  0  0  0  0  0  0
    4.9410   -4.6090   21.9110 O   0  0  0  0  0  0  0  0  0  0  0  0
    6.2350   -3.6560   20.0160 O   0  0  0  0  0  0  0  0  0  0  0  0
    6.7710   -2.9170   22.4360 N   0  0  0  0  0  0  0  0  0  0  0  0
    5.8460   -1.8070   22.5910 C   0  0  0  0  0  0  0  0  0  0  0  0
    5.6850   -1.1590   21.3690 C   0  0  0  0  0  0  0  0  0  0  0  0
    6.9430   -0.8540   20.6410 N   0  0  0  0  0  0  0  0  0  0  0  0
    6.9930   -1.4870   19.3240 C   0  0  0  0  0  0  0  0  0  0  0  0
    5.9250   -1.1130   18.5220 C   0  0  0  0  0  0  0  0  0  0  0  0
    5.6110    0.3810   18.3430 C   0  0  0  0  0  0  0  0  0  0  0  0
    8.0760   -1.1780   21.4290 C   0  0  0  0  0  0  0  0  0  0  0  0
    8.1010   -2.4580   22.2270 C   0  0  0  0  0  0  0  0  0  0  0  0
  1  2  1  0
  3  2  1  0
  3  4  2  0
  3  5  2  0
  3  6  1  0
  6  7  1  0
  7  8  1  0
  8  9  1  0
  9 10  1  0
 10 11  1  0
 11 12  3  0
  9 13  1  0
  6 14  1  0
 13 14  1  0
M  END
