TOB-UNK-c2aba166-1-vinylsulfonamide
     RDKit          3D

 14 14  0  0  0  0  0  0  0  0999 V2000
    7.2470   -3.4000   19.5410 C   0  0  0  0  0  0  0  0  0  0  0  0
    6.5870   -4.2040   20.6640 C   0  0  0  0  0  0  0  0  0  0  0  0
    5.5810   -3.1190   21.6200 S   0  0  0  0  0  0  0  0  0  0  0  0
    4.5800   -3.9330   22.2730 O   0  0  0  0  0  0  0  0  0  0  0  0
    5.1630   -2.0550   20.7530 O   0  0  0  0  0  0  0  0  0  0  0  0
    6.6830   -2.5100   22.7530 N   0  0  0  0  0  0  0  0  0  0  0  0
    6.2360   -1.3980   23.5740 C   0  0  0  0  0  0  0  0  0  0  0  0
    5.8700   -0.3380   22.5340 C   0  0  0  0  0  0  0  0  0  0  0  0
    6.9620   -0.1700   21.5150 N   0  0  0  0  0  0  0  0  0  0  0  0
    6.4650   -0.3460   20.1240 C   0  0  0  0  0  0  0  0  0  0  0  0
    6.9350    0.8310   19.2370 C   0  0  0  0  0  0  0  0  0  0  0  0
    5.6210    0.8670   18.4600 C   0  0  0  0  0  0  0  0  0  0  0  0
    8.2080   -0.9740   21.5650 C   0  0  0  0  0  0  0  0  0  0  0  0
    8.0580   -2.3100   22.3050 C   0  0  0  0  0  0  0  0  0  0  0  0
  1  2  1  0
  3  2  1  0
  3  4  2  0
  3  5  2  0
  3  6  1  0
  6  7  1  0
  7  8  1  0
  8  9  1  0
  9 10  1  0
 10 11  1  0
 11 12  3  0
  9 13  1  0
  6 14  1  0
 13 14  1  0
M  END
