TOB-UNK-c2aba166-6-nitrile
     RDKit          3D

 10 10  0  0  0  0  0  0  0  0999 V2000
    6.8460   -3.3890   19.8540 C   0  0  0  0  0  0  0  0  0  0  0  0
    5.7760   -4.0840   19.7190 N   0  0  0  0  0  0  0  0  0  0  0  0
    7.0160   -2.5700   20.9660 N   0  0  0  0  0  0  0  0  0  0  0  0
    7.7680   -1.3020   20.9500 C   0  0  0  0  0  0  0  0  0  0  0  0
    8.7530   -1.3210   21.9480 C   0  0  0  0  0  0  0  0  0  0  0  0
    8.8770   -2.4720   22.7270 C   0  0  0  0  0  0  0  0  0  0  0  0
    7.7170   -3.0700   23.2390 C   0  0  2  0  0  0  0  0  0  0  0  0
    7.8140   -4.4210   23.5620 C   0  0  0  0  0  0  0  0  0  0  0  0
    6.9160   -5.4640   22.8940 C   0  0  0  0  0  0  0  0  0  0  0  0
    6.5400   -2.8740   22.2590 C   0  0  0  0  0  0  0  0  0  0  0  0
  1  2  2  3
  1  3  1  0
  3  4  1  0
  4  5  1  0
  5  6  1  0
  6  7  1  0
  7  8  1  6
  8  9  3  0
  3 10  1  0
  7 10  1  0
M  END
