TOB-UNK-c2aba166-5-acrylamide
     RDKit          3D

 25 28  0  0  0  0  0  0  0  0999 V2000
    7.1340   -3.2480   19.4290 C   0  0  0  0  0  0  0  0  0  0  0  0
    5.8110   -2.7240   19.9650 C   0  0  0  0  0  0  0  0  0  0  0  0
    5.6780   -2.9750   21.4560 C   0  0  0  0  0  0  0  0  0  0  0  0
    4.8150   -3.7010   21.9280 O   0  0  0  0  0  0  0  0  0  0  0  0
    6.5660   -2.3660   22.3120 N   0  0  0  0  0  0  0  0  0  0  0  0
    6.7540   -2.8960   23.6530 C   0  0  0  0  0  0  0  0  0  0  0  0
    7.8230   -3.7560   23.5390 C   0  0  0  0  0  0  0  0  0  0  0  0
    9.0510   -3.2080   23.2980 N   0  0  0  0  0  0  0  0  0  0  0  0
    9.9340   -3.2210   24.4490 C   0  0  0  0  0  0  0  0  0  0  0  0
   11.2690   -2.5630   24.2040 C   0  0  0  0  0  0  0  0  0  0  0  0
   11.5850   -1.8860   22.9510 C   0  0  0  0  0  0  0  0  0  0  0  0
   12.8180   -1.3950   23.1010 N   0  0  0  0  0  0  0  0  0  0  0  0
   13.4340   -0.6320   22.0560 C   0  0  0  0  0  0  0  0  0  0  0  0
   13.7120   -1.2150   20.7010 C   0  0  0  0  0  0  0  0  0  0  0  0
   14.2830   -0.3810   19.6870 C   0  0  0  0  0  0  0  0  0  0  0  0
   14.6440    0.9340   19.8020 C   0  0  0  0  0  0  0  0  0  0  0  0
   15.2210    1.8100   18.8160 N   0  0  0  0  0  0  0  0  0  0  0  0
   15.2680    3.0250   19.5970 C   0  0  0  0  0  0  0  0  0  0  0  0
   14.7630    2.7890   20.8920 N   0  0  0  0  0  0  0  0  0  0  0  0
   14.3640    1.5370   21.1280 C   0  0  0  0  0  0  0  0  0  0  0  0
   13.7950    0.7370   22.1640 C   0  0  0  0  0  0  0  0  0  0  0  0
   13.3000   -1.7380   24.3380 N   0  0  0  0  0  0  0  0  0  0  0  0
   12.3660   -2.4470   25.0110 N   0  0  0  0  0  0  0  0  0  0  0  0
    8.9810   -1.8580   22.7010 C   0  0  0  0  0  0  0  0  0  0  0  0
    7.7600   -1.7150   21.7540 C   0  0  0  0  0  0  0  0  0  0  0  0
  1  2  1  0
  2  3  1  0
  3  4  2  0
  3  5  1  0
  5  6  1  0
  6  7  1  0
  7  8  1  0
  8  9  1  0
  9 10  1  0
 10 11  2  0
 11 12  1  0
 12 13  1  0
 13 14  2  0
 14 15  1  0
 15 16  2  0
 16 17  1  0
 17 18  2  0
 18 19  1  0
 16 20  1  0
 19 20  1  0
 13 21  1  0
 20 21  2  0
 12 22  1  0
 10 23  1  0
 22 23  2  0
  8 24  1  0
  5 25  1  0
 24 25  1  0
M  END
