TOB-UNK-c2aba166-7-nitrile
     RDKit          3D

 22 25  0  0  0  0  0  0  0  0999 V2000
    6.7220   -2.9000   19.8190 C   0  0  0  0  0  0  0  0  0  0  0  0
    5.8070   -2.7960   18.9050 N   0  0  0  0  0  0  0  0  0  0  0  0
    6.3470   -2.9440   21.1770 N   0  0  0  0  0  0  0  0  0  0  0  0
    7.2720   -3.0830   22.3470 C   0  0  0  0  0  0  0  0  0  0  0  0
    6.6180   -3.6950   23.4480 C   0  0  0  0  0  0  0  0  0  0  0  0
    5.6860   -4.7270   23.2190 C   0  0  0  0  0  0  0  0  0  0  0  0
    5.2550   -4.8520   21.9050 C   0  0  2  0  0  0  0  0  0  0  0  0
    6.2100   -5.3750   21.0820 C   0  0  0  0  0  0  0  0  0  0  0  0
    6.2030   -5.9410   19.6470 C   0  0  0  0  0  0  0  0  0  0  0  0
    7.4790   -6.2920   19.3160 N   0  0  0  0  0  0  0  0  0  0  0  0
    8.5020   -6.8430   18.3660 C   0  0  0  0  0  0  0  0  0  0  0  0
    9.5330   -5.9090   18.0530 C   0  0  0  0  0  0  0  0  0  0  0  0
   10.6020   -6.0430   17.2000 C   0  0  0  0  0  0  0  0  0  0  0  0
   11.1340   -7.0890   16.3100 C   0  0  0  0  0  0  0  0  0  0  0  0
   12.2590   -7.3370   15.2660 N   0  0  0  0  0  0  0  0  0  0  0  0
   12.1760   -8.8100   15.0580 C   0  0  0  0  0  0  0  0  0  0  0  0
   11.0030   -9.3590   15.9140 N   0  0  0  0  0  0  0  0  0  0  0  0
   10.3910   -8.2260   16.6160 C   0  0  0  0  0  0  0  0  0  0  0  0
    9.0520   -8.1510   17.5300 C   0  0  0  0  0  0  0  0  0  0  0  0
    8.1560   -5.9570   20.4450 N   0  0  0  0  0  0  0  0  0  0  0  0
    7.4830   -5.4580   21.4720 N   0  0  0  0  0  0  0  0  0  0  0  0
    5.1030   -3.4040   21.4440 C   0  0  0  0  0  0  0  0  0  0  0  0
  1  2  2  3
  1  3  1  0
  3  4  1  0
  4  5  1  0
  5  6  1  0
  6  7  1  0
  7  8  1  6
  8  9  2  0
  9 10  1  0
 10 11  1  0
 11 12  2  0
 12 13  1  0
 13 14  2  0
 14 15  1  0
 15 16  2  0
 16 17  1  0
 14 18  1  0
 17 18  1  0
 11 19  1  0
 18 19  2  0
 10 20  1  0
  8 21  1  0
 20 21  2  0
  3 22  1  0
  7 22  1  0
M  END
