TOB-UNK-c2aba166-4
     RDKit          3D

 20 21  0  0  0  0  0  0  0  0999 V2000
    7.5080   -2.1900   17.7520 C   0  0  0  0  0  0  0  0  0  0  0  0
    6.6620   -1.5070   18.7330 C   0  0  0  0  0  0  0  0  0  0  0  0
    6.0400   -2.3310   19.6780 C   0  0  0  0  0  0  0  0  0  0  0  0
    6.5690   -2.1550   21.0370 N   0  0  0  0  0  0  0  0  0  0  0  0
    6.2930   -3.2700   21.9640 C   0  0  0  0  0  0  0  0  0  0  0  0
    7.4040   -3.5560   22.7420 C   0  0  0  0  0  0  0  0  0  0  0  0
    8.1350   -2.5220   23.2280 N   0  0  0  0  0  0  0  0  0  0  0  0
    9.1570   -2.8470   24.5660 S   0  0  0  0  0  0  0  0  0  0  0  0
    8.3510   -2.6510   25.7470 O   0  0  0  0  0  0  0  0  0  0  0  0
    9.8630   -4.0850   24.3440 O   0  0  0  0  0  0  0  0  0  0  0  0
   10.2230   -1.5440   24.3540 C   0  0  0  0  0  0  0  0  0  0  0  0
   11.1370   -1.5690   23.1720 C   0  0  0  0  0  0  0  0  0  0  0  0
   11.8980   -0.3310   23.0380 C   0  0  0  0  0  0  0  0  0  0  0  0
   13.2720   -0.1400   22.6480 C   0  0  0  0  0  0  0  0  0  0  0  0
   13.8100    1.2220   22.5700 C   0  0  0  0  0  0  0  0  0  0  0  0
   12.9310    2.2880   22.8880 C   0  0  0  0  0  0  0  0  0  0  0  0
   11.6540    2.0290   23.2450 C   0  0  0  0  0  0  0  0  0  0  0  0
   11.1270    0.7820   23.3320 C   0  0  0  0  0  0  0  0  0  0  0  0
    8.7230   -1.8330   22.1660 C   0  0  0  0  0  0  0  0  0  0  0  0
    7.8140   -1.3720   21.1800 C   0  0  0  0  0  0  0  0  0  0  0  0
  1  2  3  0
  2  3  1  0
  3  4  1  0
  4  5  1  0
  5  6  1  0
  6  7  1  0
  7  8  1  0
  8  9  2  0
  8 10  2  0
  8 11  1  0
 11 12  2  3
 12 13  1  0
 13 14  2  0
 14 15  1  0
 15 16  2  0
 16 17  1  0
 13 18  1  0
 17 18  2  0
  7 19  1  0
  4 20  1  0
 19 20  1  0
M  END
