TOB-UNK-c2aba166-7-acrylamide
     RDKit          3D

 24 27  0  0  0  0  0  0  0  0999 V2000
    8.2770   -3.3920   19.5950 C   0  0  0  0  0  0  0  0  0  0  0  0
    6.8240   -3.7380   19.6630 C   0  0  0  0  0  0  0  0  0  0  0  0
    6.1110   -2.8750   20.6230 C   0  0  0  0  0  0  0  0  0  0  0  0
    4.9660   -3.1760   20.9470 O   0  0  0  0  0  0  0  0  0  0  0  0
    6.7450   -1.7570   21.1480 N   0  0  0  0  0  0  0  0  0  0  0  0
    7.9840   -1.1410   20.7350 C   0  0  0  0  0  0  0  0  0  0  0  0
    8.8880   -1.3110   21.7890 C   0  0  0  0  0  0  0  0  0  0  0  0
    8.4420   -1.0610   23.0990 C   0  0  0  0  0  0  0  0  0  0  0  0
    6.9520   -0.6750   23.3760 C   0  0  2  0  0  0  0  0  0  0  0  0
    6.2480   -1.5440   24.3610 C   0  0  0  0  0  0  0  0  0  0  0  0
    6.4150   -2.8780   24.1150 C   0  0  0  0  0  0  0  0  0  0  0  0
    5.8520   -3.6190   24.8920 N   0  0  0  0  0  0  0  0  0  0  0  0
    6.1140   -4.8940   24.5510 C   0  0  0  0  0  0  0  0  0  0  0  0
    5.5340   -6.1860   24.6180 C   0  0  0  0  0  0  0  0  0  0  0  0
    6.1530   -7.3360   24.0950 C   0  0  0  0  0  0  0  0  0  0  0  0
    7.3920   -7.3070   23.4770 C   0  0  0  0  0  0  0  0  0  0  0  0
    8.2510   -8.2940   22.8710 N   0  0  0  0  0  0  0  0  0  0  0  0
    9.3710   -7.5110   22.4570 C   0  0  0  0  0  0  0  0  0  0  0  0
    9.2120   -6.1370   22.7720 N   0  0  0  0  0  0  0  0  0  0  0  0
    8.0370   -5.9950   23.3830 C   0  0  0  0  0  0  0  0  0  0  0  0
    7.4710   -4.7820   23.8780 C   0  0  0  0  0  0  0  0  0  0  0  0
    5.1890   -2.8310   25.8180 N   0  0  0  0  0  0  0  0  0  0  0  0
    5.4390   -1.4930   25.4820 N   0  0  0  0  0  0  0  0  0  0  0  0
    6.0720   -0.9380   22.1340 C   0  0  0  0  0  0  0  0  0  0  0  0
  1  2  1  0
  2  3  1  0
  3  4  2  0
  3  5  1  0
  5  6  1  0
  6  7  1  0
  7  8  1  0
  8  9  1  0
  9 10  1  1
 10 11  2  0
 11 12  1  0
 12 13  1  0
 13 14  2  0
 14 15  1  0
 15 16  2  0
 16 17  1  0
 17 18  2  0
 18 19  1  0
 16 20  1  0
 19 20  1  0
 13 21  1  0
 20 21  2  0
 12 22  1  0
 10 23  1  0
 22 23  2  0
  5 24  1  0
  9 24  1  0
M  END
