TOB-UNK-c2aba166-1-vinylsulfonamide
     RDKit          3D

 14 14  0  0  0  0  0  0  0  0999 V2000
    6.6040   -4.4190   20.2330 C   0  0  0  0  0  0  0  0  0  0  0  0
    5.9000   -4.7760   21.5200 C   0  0  0  0  0  0  0  0  0  0  0  0
    5.0980   -3.3270   22.0790 S   0  0  0  0  0  0  0  0  0  0  0  0
    3.8350   -3.7620   22.6450 O   0  0  0  0  0  0  0  0  0  0  0  0
    5.1320   -2.3640   21.0000 O   0  0  0  0  0  0  0  0  0  0  0  0
    6.1380   -2.7520   23.2900 N   0  0  0  0  0  0  0  0  0  0  0  0
    7.4070   -3.4460   23.4190 C   0  0  0  0  0  0  0  0  0  0  0  0
    8.4060   -2.5750   23.8330 C   0  0  0  0  0  0  0  0  0  0  0  0
    8.6460   -1.5410   22.9890 N   0  0  0  0  0  0  0  0  0  0  0  0
    9.5810   -1.9490   21.9280 C   0  0  0  0  0  0  0  0  0  0  0  0
   10.8850   -2.3440   22.4600 C   0  0  0  0  0  0  0  0  0  0  0  0
   12.1290   -1.8150   21.8880 C   0  0  0  0  0  0  0  0  0  0  0  0
    7.4550   -1.0630   22.4720 C   0  0  0  0  0  0  0  0  0  0  0  0
    6.3090   -1.3830   23.2120 C   0  0  0  0  0  0  0  0  0  0  0  0
  1  2  1  0
  3  2  1  0
  3  4  2  0
  3  5  2  0
  3  6  1  0
  6  7  1  0
  7  8  1  0
  8  9  1  0
  9 10  1  0
 10 11  1  0
 11 12  3  0
  9 13  1  0
  6 14  1  0
 13 14  1  0
M  END
