TOM-OIS-cbf37265-1
     RDKit          3D

 27 30  0  0  0  0  0  0  0  0999 V2000
    8.8840    4.3740   22.7910 C   0  0  0  0  0  0  0  0  0  0  0  0
    9.7760    4.9270   23.8100 N   0  0  0  0  0  0  0  0  0  0  0  0
    9.6220    6.4010   23.8760 C   0  0  0  0  0  0  0  0  0  0  0  0
   10.6940    6.8370   23.1610 C   0  0  0  0  0  0  0  0  0  0  0  0
   11.5350    5.8030   22.8940 C   0  0  0  0  0  0  0  0  0  0  0  0
   11.1100    4.6720   23.5670 C   0  0  2  0  0  0  0  0  0  0  0  0
   11.4500    3.4170   23.0520 C   0  0  0  0  0  0  0  0  0  0  0  0
   10.7900    2.2460   23.4870 C   0  0  0  0  0  0  0  0  0  0  0  0
    9.5130    2.2030   24.3030 C   0  0  0  0  0  0  0  0  0  0  0  0
    9.1360    0.8160   24.5430 N   0  0  0  0  0  0  0  0  0  0  0  0
   10.1840    0.0480   23.8710 C   0  0  0  0  0  0  0  0  0  0  0  0
   10.1710   -1.4680   23.8650 C   0  0  0  0  0  0  0  0  0  0  0  0
   11.3260   -2.1010   23.1150 C   0  0  0  0  0  0  0  0  0  0  0  0
   12.3310   -1.1430   22.4840 C   0  0  0  0  0  0  0  0  0  0  0  0
   13.4910   -1.7980   21.7330 C   0  0  0  0  0  0  0  0  0  0  0  0
   13.8530   -0.9940   20.4230 C   0  0  0  0  0  0  0  0  0  0  0  0
   15.1900   -0.8990   19.0880 S   0  0  0  0  0  0  0  0  0  0  0  0
   15.9280    0.2930   19.3820 O   0  0  0  0  0  0  0  0  0  0  0  0
   15.6440   -2.1190   18.4960 O   0  0  0  0  0  0  0  0  0  0  0  0
   15.8090   -0.1540   17.7950 C   0  0  0  0  0  0  0  0  0  0  0  0
   15.3150    0.3340   16.5770 C   0  0  0  0  0  0  0  0  0  0  0  0
   16.2740    0.8200   15.7940 C   0  0  0  0  0  0  0  0  0  0  0  0
   17.4700    0.8600   16.1480 C   0  0  0  0  0  0  0  0  0  0  0  0
   17.9150    0.4150   17.3290 C   0  0  0  0  0  0  0  0  0  0  0  0
   17.0900   -0.1000   18.1390 C   0  0  0  0  0  0  0  0  0  0  0  0
   12.2130    0.2600   22.5850 C   0  0  0  0  0  0  0  0  0  0  0  0
   11.1530    0.8730   23.2600 C   0  0  0  0  0  0  0  0  0  0  0  0
  1  2  1  0
  2  3  1  0
  3  4  1  0
  4  5  1  0
  2  6  1  0
  5  6  1  0
  6  7  1  6
  7  8  1  0
  8  9  2  0
  9 10  1  0
 10 11  1  0
 11 12  1  0
 12 13  2  0
 13 14  1  0
 14 15  1  0
 15 16  1  0
 17 16  1  0
 17 18  2  0
 17 19  2  0
 17 20  1  0
 20 21  2  0
 21 22  1  0
 22 23  2  0
 23 24  1  0
 20 25  1  0
 24 25  2  0
 14 26  2  0
  8 27  1  0
 11 27  2  0
 26 27  1  0
M  END
