TOM-OIS-cbf37265-3
     RDKit          3D

 23 25  0  0  0  0  0  0  0  0999 V2000
   17.5250    0.4570   17.3050 C   0  0  0  0  0  0  0  0  0  0  0  0
   17.0170    0.0990   18.6030 N   0  0  0  0  0  0  0  0  0  0  0  0
   15.6530   -0.7450   18.3790 S   0  0  0  0  0  0  0  0  0  0  0  0
   15.1430    0.0790   17.3030 O   0  0  0  0  0  0  0  0  0  0  0  0
   16.1240   -2.0560   18.0180 O   0  0  0  0  0  0  0  0  0  0  0  0
   14.3700   -0.6380   19.7230 C   0  0  0  0  0  0  0  0  0  0  0  0
   13.7530   -1.5180   20.8510 C   0  0  0  0  0  0  0  0  0  0  0  0
   12.4960   -1.3020   21.5180 C   0  0  0  0  0  0  0  0  0  0  0  0
   11.5820   -2.3090   21.5350 C   0  0  0  0  0  0  0  0  0  0  0  0
   10.3220   -2.1300   22.1090 C   0  0  0  0  0  0  0  0  0  0  0  0
    9.9580   -0.9030   22.6610 C   0  0  0  0  0  0  0  0  0  0  0  0
    8.7420   -0.5360   23.2410 N   0  0  0  0  0  0  0  0  0  0  0  0
    8.8150    0.7620   23.6170 C   0  0  0  0  0  0  0  0  0  0  0  0
   10.1900    1.2850   23.2600 C   0  0  0  0  0  0  0  0  0  0  0  0
   10.6130    2.7600   23.5380 C   0  0  0  0  0  0  0  0  0  0  0  0
    9.6540    3.4660   24.5140 C   0  0  0  0  0  0  0  0  0  0  0  0
    8.9220    4.6590   23.8880 C   0  0  0  0  0  0  0  0  0  0  0  0
    9.8410    5.7160   23.4580 N   0  0  0  0  0  0  0  0  0  0  0  0
    9.1900    6.7080   22.5790 C   0  0  0  0  0  0  0  0  0  0  0  0
   10.9930    5.0940   22.7790 C   0  0  0  0  0  0  0  0  0  0  0  0
   10.7010    3.6570   22.3270 C   0  0  0  0  0  0  0  0  0  0  0  0
   10.8720    0.1820   22.6770 C   0  0  0  0  0  0  0  0  0  0  0  0
   12.1540   -0.0410   22.1370 C   0  0  0  0  0  0  0  0  0  0  0  0
  1  2  1  0
  3  2  1  0
  3  4  2  0
  3  5  2  0
  3  6  1  0
  6  7  1  0
  7  8  1  0
  8  9  2  0
  9 10  1  0
 10 11  2  0
 11 12  1  0
 12 13  1  0
 13 14  2  0
 14 15  1  0
 15 16  1  0
 16 17  1  0
 17 18  1  0
 18 19  1  0
 18 20  1  0
 15 21  1  0
 20 21  1  0
 11 22  1  0
 14 22  1  0
  8 23  1  0
 22 23  2  0
M  END
