TRY-UNI-1fd04853-2-nitrile
     RDKit          3D

 22 23  0  0  0  0  0  0  0  0999 V2000
    8.0030   -3.3590   19.6440 C   0  0  0  0  0  0  0  0  0  0  0  0
    7.7270   -2.9140   18.3940 N   0  0  0  0  0  0  0  0  0  0  0  0
    8.5750   -2.3920   20.7720 C   0  0  0  0  0  0  0  0  0  0  0  0
    9.8530   -2.4890   21.4090 C   0  0  0  0  0  0  0  0  0  0  0  0
   10.3960   -1.7080   22.3740 N   0  0  0  0  0  0  0  0  0  0  0  0
    9.6940   -0.6850   22.7940 C   0  0  0  0  0  0  0  0  0  0  0  0
   10.2070    0.1640   23.7900 N   0  0  0  0  0  0  0  0  0  0  0  0
   10.3280   -0.5070   25.0730 C   0  0  0  0  0  0  0  0  0  0  0  0
    9.2830   -0.0220   25.8640 C   0  0  0  0  0  0  0  0  0  0  0  0
    8.4470   -0.4480   22.2390 C   0  0  0  0  0  0  0  0  0  0  0  0
    7.8370    0.6880   22.7180 N   0  0  0  0  0  0  0  0  0  0  0  0
    7.9110    1.7690   21.9110 C   0  0  0  0  0  0  0  0  0  0  0  0
    8.9480    2.3200   21.5350 O   0  0  0  0  0  0  0  0  0  0  0  0
    6.7390    2.2270   21.4430 N   0  0  0  0  0  0  0  0  0  0  0  0
    5.9800    1.7210   20.3970 C   0  0  0  0  0  0  0  0  0  0  0  0
    6.7350    0.9800   19.2930 C   0  0  0  0  0  0  0  0  0  0  0  0
    6.2520    0.4020   18.1740 N   0  0  0  0  0  0  0  0  0  0  0  0
    4.9300    0.5140   18.0630 C   0  0  0  0  0  0  0  0  0  0  0  0
    3.9960    1.2060   19.0460 C   0  0  0  0  0  0  0  0  0  0  0  0
    4.6080    1.8230   20.2590 C   0  0  0  0  0  0  0  0  0  0  0  0
    3.6320    2.4930   21.1970 C   0  0  0  0  0  0  0  0  0  0  0  0
    7.8730   -1.2850   21.2500 C   0  0  0  0  0  0  0  0  0  0  0  0
  1  2  2  3
  1  3  1  0
  3  4  2  0
  4  5  1  0
  5  6  2  0
  6  7  1  0
  7  8  1  0
  8  9  1  0
  6 10  1  0
 10 11  1  0
 11 12  1  0
 12 13  2  0
 12 14  1  0
 14 15  1  0
 15 16  2  0
 16 17  1  0
 17 18  2  0
 18 19  1  0
 15 20  1  0
 19 20  2  0
 20 21  1  0
  3 22  1  0
 10 22  2  0
M  END
