TRY-UNI-1fd04853-6-acrylamide
     RDKit          3D

 24 26  0  0  0  0  0  0  0  0999 V2000
    6.8510   -3.0460   18.9080 C   0  0  0  0  0  0  0  0  0  0  0  0
    5.6380   -3.5100   19.6920 C   0  0  0  0  0  0  0  0  0  0  0  0
    5.5720   -3.0110   21.1130 C   0  0  0  0  0  0  0  0  0  0  0  0
    4.7990   -3.5720   21.8830 O   0  0  0  0  0  0  0  0  0  0  0  0
    6.3600   -1.8560   21.6290 C   0  0  0  0  0  0  0  0  0  0  0  0
    7.3980   -1.1100   21.0340 C   0  0  0  0  0  0  0  0  0  0  0  0
    8.0010   -0.0190   21.7770 C   0  0  0  0  0  0  0  0  0  0  0  0
    7.6050    0.3690   23.1130 C   0  0  0  0  0  0  0  0  0  0  0  0
    6.4980   -0.4190   23.7470 C   0  0  0  0  0  0  0  0  0  0  0  0
    5.9680   -0.1290   25.1500 C   0  0  0  0  0  0  0  0  0  0  0  0
    6.7820   -0.8110   26.1220 N   0  0  0  0  0  0  0  0  0  0  0  0
    6.7940   -2.1900   26.2760 C   0  0  0  0  0  0  0  0  0  0  0  0
    6.2620   -2.7480   27.2370 O   0  0  0  0  0  0  0  0  0  0  0  0
    7.5140   -2.9870   25.1580 C   0  0  0  0  0  0  0  0  0  0  0  0
    9.0160   -3.3580   25.4050 C   0  0  0  0  0  0  0  0  0  0  0  0
   10.1280   -2.5310   24.6780 C   0  0  0  0  0  0  0  0  0  0  0  0
   11.3090   -3.0870   25.0820 N   0  0  0  0  0  0  0  0  0  0  0  0
   10.8200   -4.0250   25.8750 C   0  0  0  0  0  0  0  0  0  0  0  0
    9.5350   -3.3590   25.3720 N   0  0  0  0  0  0  0  0  0  0  0  0
    8.2290   -3.8550   25.8310 C   0  0  0  0  0  0  0  0  0  0  0  0
    7.9610   -4.9480   26.7450 C   0  0  0  0  0  0  0  0  0  0  0  0
    9.2550   -5.3890   27.0590 C   0  0  0  0  0  0  0  0  0  0  0  0
    9.6860   -4.4090   26.2380 C   0  0  0  0  0  0  0  0  0  0  0  0
    6.1240   -1.3560   22.8600 C   0  0  0  0  0  0  0  0  0  0  0  0
  1  2  1  0
  2  3  1  0
  3  4  2  0
  3  5  1  0
  5  6  2  0
  6  7  1  0
  7  8  2  0
  8  9  1  0
  9 10  1  0
 10 11  1  0
 11 12  1  0
 12 13  2  0
 12 14  1  0
 14 15  1  0
 15 16  2  0
 16 17  1  0
 17 18  1  0
 18 19  1  0
 19 20  2  0
 20 21  1  0
 21 22  2  0
 15 23  1  0
 18 23  2  0
 22 23  1  0
  5 24  1  0
  9 24  2  0
M  END
