TRY-UNI-1fd04853-2-chloroacetamide
     RDKit          3D

 23 24  0  0  0  0  0  0  0  0999 V2000
    9.1680   -3.7200   20.0850 C   0  0  0  0  0  0  0  0  0  0  0  0
    8.5150   -2.4420   20.1540 C   0  0  0  0  0  0  0  0  0  0  0  0
    7.6760   -3.0610   19.2110 O   0  0  0  0  0  0  0  0  0  0  0  0
    9.7830   -2.4120   21.2690 C   0  0  0  0  0  0  0  0  0  0  0  0
   10.7270   -2.1580   22.3890 C   0  0  0  0  0  0  0  0  0  0  0  0
   10.8190   -1.3300   23.5220 N   0  0  0  0  0  0  0  0  0  0  0  0
    9.9800   -0.3630   23.9630 C   0  0  0  0  0  0  0  0  0  0  0  0
   10.7850   -0.1890   25.0540 N   0  0  0  0  0  0  0  0  0  0  0  0
    9.7140    0.1240   26.0660 C   0  0  0  0  0  0  0  0  0  0  0  0
    9.2230   -0.9950   26.7320 C   0  0  0  0  0  0  0  0  0  0  0  0
    9.2040   -0.5530   22.8850 C   0  0  0  0  0  0  0  0  0  0  0  0
    8.2690    0.4000   22.9740 N   0  0  0  0  0  0  0  0  0  0  0  0
    8.0120    0.9480   21.7970 C   0  0  0  0  0  0  0  0  0  0  0  0
    8.6840    1.8460   21.2530 O   0  0  0  0  0  0  0  0  0  0  0  0
    6.9290    0.3020   21.3230 N   0  0  0  0  0  0  0  0  0  0  0  0
    6.3400    0.6450   20.1480 C   0  0  0  0  0  0  0  0  0  0  0  0
    6.9410    0.3380   18.7950 C   0  0  0  0  0  0  0  0  0  0  0  0
    6.4430    0.6600   17.5990 N   0  0  0  0  0  0  0  0  0  0  0  0
    5.2730    1.3270   17.6030 C   0  0  0  0  0  0  0  0  0  0  0  0
    4.5400    1.6900   18.8650 C   0  0  0  0  0  0  0  0  0  0  0  0
    5.1360    1.3140   20.1720 C   0  0  0  0  0  0  0  0  0  0  0  0
    4.3220    1.7250   21.3990 C   0  0  0  0  0  0  0  0  0  0  0  0
    9.0700   -1.3750   21.7660 C   0  0  0  0  0  0  0  0  0  0  0  0
  1  2  1  0
  2  3  2  0
  2  4  1  0
  4  5  2  0
  5  6  1  0
  6  7  2  0
  7  8  1  0
  8  9  1  0
  9 10  1  0
  7 11  1  0
 11 12  1  0
 12 13  1  0
 13 14  2  0
 13 15  1  0
 15 16  1  0
 16 17  2  0
 17 18  1  0
 18 19  2  0
 19 20  1  0
 16 21  1  0
 20 21  2  0
 21 22  1  0
  4 23  1  0
 11 23  2  0
M  END
