TRY-UNI-9f475305-9-acrylamide
     RDKit          3D

 29 31  0  0  0  0  0  0  0  0999 V2000
    7.6850   -4.7720   21.1680 C   0  0  0  0  0  0  0  0  0  0  0  0
    6.3740   -4.4590   21.8640 C   0  0  0  0  0  0  0  0  0  0  0  0
    5.9210   -3.0280   21.7160 C   0  0  0  0  0  0  0  0  0  0  0  0
    4.7920   -2.9630   21.1410 O   0  0  0  0  0  0  0  0  0  0  0  0
    6.7070   -1.9130   22.3040 N   0  0  0  0  0  0  0  0  0  0  0  0
    6.4840   -1.5250   23.7030 C   0  0  0  0  0  0  0  0  0  0  0  0
    7.7800   -1.1580   24.4400 C   0  0  0  0  0  0  0  0  0  0  0  0
    8.8490   -1.5330   23.9430 O   0  0  0  0  0  0  0  0  0  0  0  0
    9.2020   -0.8840   22.6940 C   0  0  2  0  0  0  0  0  0  0  0  0
   10.0830    0.4930   22.8790 C   0  0  0  0  0  0  0  0  0  0  0  0
    9.4110    1.7010   23.2160 C   0  0  0  0  0  0  0  0  0  0  0  0
   10.1340    2.9030   23.4200 C   0  0  0  0  0  0  0  0  0  0  0  0
    9.5000    4.1020   23.7670 C   0  0  0  0  0  0  0  0  0  0  0  0
    9.0210    5.1050   24.1130 N   0  0  0  0  0  0  0  0  0  0  0  0
   11.4890    2.9550   23.2990 C   0  0  0  0  0  0  0  0  0  0  0  0
   12.1860    1.8290   22.9760 C   0  0  0  0  0  0  0  0  0  0  0  0
   11.5630    0.6200   22.7630 C   0  0  0  0  0  0  0  0  0  0  0  0
   12.6400   -0.4290   22.4310 C   0  0  0  0  0  0  0  0  0  0  0  0
   12.1760   -1.7080   21.7940 C   0  0  0  0  0  0  0  0  0  0  0  0
   12.5620   -2.1700   20.7480 O   0  0  0  0  0  0  0  0  0  0  0  0
   11.3490   -2.2140   22.6860 N   0  0  0  0  0  0  0  0  0  0  0  0
   12.1580   -2.1160   23.7540 C   0  0  0  0  0  0  0  0  0  0  0  0
   13.1530   -2.9920   23.8600 C   0  0  0  0  0  0  0  0  0  0  0  0
   14.0630   -3.0940   24.8100 N   0  0  0  0  0  0  0  0  0  0  0  0
   13.9510   -2.1670   25.6940 C   0  0  0  0  0  0  0  0  0  0  0  0
   12.9900   -1.1840   25.6440 C   0  0  0  0  0  0  0  0  0  0  0  0
   12.0400   -1.1500   24.6850 C   0  0  0  0  0  0  0  0  0  0  0  0
   10.9910   -0.0910   24.7140 C   0  0  0  0  0  0  0  0  0  0  0  0
    7.9040   -1.1020   21.7200 C   0  0  0  0  0  0  0  0  0  0  0  0
  1  2  1  0
  2  3  1  0
  3  4  2  0
  3  5  1  0
  5  6  1  0
  6  7  1  0
  7  8  1  0
  8  9  1  0
  9 10  1  1
 10 11  2  0
 11 12  1  0
 12 13  1  0
 13 14  3  0
 12 15  2  0
 15 16  1  0
 10 17  1  0
 16 17  2  0
 17 18  1  0
 18 19  1  0
 19 20  2  0
 19 21  1  0
 21 22  1  0
 22 23  2  0
 23 24  1  0
 24 25  2  0
 25 26  1  0
 22 27  1  0
 26 27  2  0
 27 28  1  0
  5 29  1  0
  9 29  1  0
M  END
