TRY-UNI-1fd04853-3-nitrile
     RDKit          3D

 26 27  0  0  0  0  0  0  0  0999 V2000
    8.4100   -3.4110   19.8450 C   0  0  0  0  0  0  0  0  0  0  0  0
    7.0700   -3.4230   19.6230 N   0  0  0  0  0  0  0  0  0  0  0  0
    9.2070   -2.5110   21.1040 C   0  0  0  0  0  0  0  0  0  0  0  0
   10.5830   -2.5770   21.6860 C   0  0  0  0  0  0  0  0  0  0  0  0
   11.1500   -1.8610   22.7270 N   0  0  0  0  0  0  0  0  0  0  0  0
   10.3320   -0.9920   23.2340 C   0  0  0  0  0  0  0  0  0  0  0  0
   10.6530   -0.1630   24.3500 C   0  0  0  0  0  0  0  0  0  0  0  0
    9.9300   -0.5230   25.5470 C   0  0  0  0  0  0  0  0  0  0  0  0
    8.7180    0.3000   25.8160 N   0  0  0  0  0  0  0  0  0  0  0  0
    7.6070   -0.2350   26.9580 S   0  0  0  0  0  0  0  0  0  0  0  0
    8.6830   -0.7720   28.2600 C   0  0  0  0  0  0  0  0  0  0  0  0
    6.8490    0.9040   27.4600 O   0  0  0  0  0  0  0  0  0  0  0  0
    6.9630   -1.4010   26.3930 O   0  0  0  0  0  0  0  0  0  0  0  0
    9.1140   -0.8820   22.6650 C   0  0  0  0  0  0  0  0  0  0  0  0
    8.3460    0.0990   23.1270 N   0  0  0  0  0  0  0  0  0  0  0  0
    7.9410    0.8290   22.0750 C   0  0  0  0  0  0  0  0  0  0  0  0
    8.7960    1.8570   21.5130 O   0  0  0  0  0  0  0  0  0  0  0  0
    6.7550    0.4110   21.6230 N   0  0  0  0  0  0  0  0  0  0  0  0
    6.2770    0.6990   20.3740 C   0  0  0  0  0  0  0  0  0  0  0  0
    6.8870    0.2320   19.0580 C   0  0  0  0  0  0  0  0  0  0  0  0
    6.4400    0.5260   17.8180 N   0  0  0  0  0  0  0  0  0  0  0  0
    5.3490    1.3020   17.7550 C   0  0  0  0  0  0  0  0  0  0  0  0
    4.6330    1.8230   18.9590 C   0  0  0  0  0  0  0  0  0  0  0  0
    5.1450    1.4890   20.3020 C   0  0  0  0  0  0  0  0  0  0  0  0
    4.3550    2.0670   21.4730 C   0  0  0  0  0  0  0  0  0  0  0  0
    8.3410   -1.5310   21.6170 C   0  0  0  0  0  0  0  0  0  0  0  0
  1  2  2  3
  1  3  1  0
  3  4  2  0
  4  5  1  0
  5  6  2  0
  6  7  1  0
  7  8  1  0
  8  9  1  0
 10  9  1  0
 10 11  1  0
 10 12  2  0
 10 13  2  0
  6 14  1  0
 14 15  1  0
 15 16  1  0
 16 17  2  0
 16 18  1  0
 18 19  1  0
 19 20  2  0
 20 21  1  0
 21 22  2  0
 22 23  1  0
 19 24  1  0
 23 24  2  0
 24 25  1  0
  3 26  1  0
 14 26  2  0
M  END
