TRY-UNI-1fd04853-6-nitrile
     RDKit          3D

 22 24  0  0  0  0  0  0  0  0999 V2000
    6.8800   -3.6940   20.0760 C   0  0  0  0  0  0  0  0  0  0  0  0
    5.6940   -3.9750   19.6660 N   0  0  0  0  0  0  0  0  0  0  0  0
    7.0120   -2.7140   21.1700 C   0  0  0  0  0  0  0  0  0  0  0  0
    8.0200   -1.7110   21.0230 C   0  0  0  0  0  0  0  0  0  0  0  0
    7.8330   -0.9880   22.2480 C   0  0  0  0  0  0  0  0  0  0  0  0
    6.9480   -1.1600   23.3100 C   0  0  0  0  0  0  0  0  0  0  0  0
    6.0390   -2.1650   23.3100 C   0  0  0  0  0  0  0  0  0  0  0  0
    5.1230   -2.3950   24.3470 C   0  0  0  0  0  0  0  0  0  0  0  0
    5.4260   -3.6110   24.9570 N   0  0  0  0  0  0  0  0  0  0  0  0
    6.7760   -4.2060   25.0570 C   0  0  0  0  0  0  0  0  0  0  0  0
    7.1360   -5.2050   24.4310 O   0  0  0  0  0  0  0  0  0  0  0  0
    7.6870   -3.4350   26.0520 C   0  0  0  0  0  0  0  0  0  0  0  0
    9.2140   -3.5980   25.7360 C   0  0  0  0  0  0  0  0  0  0  0  0
    9.9310   -2.3150   24.9070 C   0  0  0  0  0  0  0  0  0  0  0  0
   11.0930   -2.9040   24.8890 N   0  0  0  0  0  0  0  0  0  0  0  0
   10.2890   -3.7050   25.5080 C   0  0  0  0  0  0  0  0  0  0  0  0
    9.0260   -3.1870   25.6030 N   0  0  0  0  0  0  0  0  0  0  0  0
    7.9900   -3.8600   26.2350 C   0  0  0  0  0  0  0  0  0  0  0  0
    8.0810   -5.2260   26.8890 C   0  0  0  0  0  0  0  0  0  0  0  0
    9.4740   -5.7130   26.7340 C   0  0  0  0  0  0  0  0  0  0  0  0
   10.2400   -4.7870   26.0620 C   0  0  0  0  0  0  0  0  0  0  0  0
    6.0900   -2.9480   22.2010 C   0  0  0  0  0  0  0  0  0  0  0  0
  1  2  2  3
  1  3  1  0
  3  4  2  0
  4  5  1  0
  5  6  2  0
  6  7  1  0
  7  8  1  0
  8  9  1  0
  9 10  1  0
 10 11  2  0
 10 12  1  0
 12 13  1  0
 13 14  2  0
 14 15  1  0
 15 16  1  0
 16 17  1  0
 17 18  2  0
 18 19  1  0
 19 20  2  0
 13 21  1  0
 16 21  2  0
 20 21  1  0
  3 22  1  0
  7 22  2  0
M  END
