TRY-UNI-1fd04853-1-chloroacetamide
     RDKit          3D

 23 24  0  0  0  0  0  0  0  0999 V2000
    9.0540   -4.0840   18.7330 C   0  0  0  0  0  0  0  0  0  0  0  0
    8.1730   -3.5530   19.8750 C   0  0  0  0  0  0  0  0  0  0  0  0
    6.8690   -3.5670   19.5210 O   0  0  0  0  0  0  0  0  0  0  0  0
    8.9660   -3.2140   21.2840 C   0  0  0  0  0  0  0  0  0  0  0  0
    9.5500   -2.7310   22.4520 C   0  0  0  0  0  0  0  0  0  0  0  0
   10.2420   -2.5980   23.5880 N   0  0  0  0  0  0  0  0  0  0  0  0
    9.8730   -1.3900   23.7630 C   0  0  0  0  0  0  0  0  0  0  0  0
   10.1960   -0.5480   24.8600 N   0  0  0  0  0  0  0  0  0  0  0  0
    8.9970   -0.0160   25.5400 C   0  0  0  0  0  0  0  0  0  0  0  0
    9.1480    0.1040   26.9280 C   0  0  0  0  0  0  0  0  0  0  0  0
    9.0490   -0.9640   22.6970 C   0  0  0  0  0  0  0  0  0  0  0  0
    8.6370    0.4720   22.8940 C   0  0  0  0  0  0  0  0  0  0  0  0
    8.2520    1.0340   21.5900 C   0  0  0  0  0  0  0  0  0  0  0  0
    8.8960    1.9370   21.0650 O   0  0  0  0  0  0  0  0  0  0  0  0
    7.1410    0.3900   21.1550 N   0  0  0  0  0  0  0  0  0  0  0  0
    6.4540    0.7750   20.0450 C   0  0  0  0  0  0  0  0  0  0  0  0
    6.8700    0.3420   18.6680 C   0  0  0  0  0  0  0  0  0  0  0  0
    6.2450    0.7150   17.5540 N   0  0  0  0  0  0  0  0  0  0  0  0
    5.1940    1.5150   17.7040 C   0  0  0  0  0  0  0  0  0  0  0  0
    4.6010    2.0500   18.9720 C   0  0  0  0  0  0  0  0  0  0  0  0
    5.3420    1.6030   20.2110 C   0  0  0  0  0  0  0  0  0  0  0  0
    4.8980    2.0350   21.4660 C   0  0  0  0  0  0  0  0  0  0  0  0
    8.6020   -1.8070   21.4960 C   0  0  0  0  0  0  0  0  0  0  0  0
  1  2  1  0
  2  3  2  0
  2  4  1  0
  4  5  2  0
  5  6  1  0
  6  7  2  0
  7  8  1  0
  8  9  1  0
  9 10  1  0
  7 11  1  0
 11 12  1  0
 12 13  1  0
 13 14  2  0
 13 15  1  0
 15 16  1  0
 16 17  2  0
 17 18  1  0
 18 19  2  0
 19 20  1  0
 16 21  1  0
 20 21  2  0
 21 22  1  0
  4 23  1  0
 11 23  2  0
M  END
