TRY-UNI-1fd04853-3-vinylsulfonamide
     RDKit          3D

 29 30  0  0  0  0  0  0  0  0999 V2000
    6.7900   -5.7300   20.9260 C   0  0  0  0  0  0  0  0  0  0  0  0
    6.8500   -5.0810   22.3020 C   0  0  0  0  0  0  0  0  0  0  0  0
    6.1850   -3.4600   22.4520 S   0  0  0  0  0  0  0  0  0  0  0  0
    4.9840   -3.4360   21.5140 O   0  0  0  0  0  0  0  0  0  0  0  0
    5.9340   -3.3020   23.8710 O   0  0  0  0  0  0  0  0  0  0  0  0
    7.6820   -2.4230   22.0940 C   0  0  0  0  0  0  0  0  0  0  0  0
    8.9530   -2.4850   22.8870 C   0  0  0  0  0  0  0  0  0  0  0  0
    8.8830   -2.8360   24.0320 N   0  0  0  0  0  0  0  0  0  0  0  0
    8.4450   -1.5590   23.7890 C   0  0  0  0  0  0  0  0  0  0  0  0
    8.3260   -0.7370   24.9290 C   0  0  0  0  0  0  0  0  0  0  0  0
    7.0550   -0.6860   25.5410 C   0  0  0  0  0  0  0  0  0  0  0  0
    7.1580   -0.7920   26.9270 N   0  0  0  0  0  0  0  0  0  0  0  0
    7.4560    0.5340   27.9080 S   0  0  0  0  0  0  0  0  0  0  0  0
    9.0610    0.1710   28.5850 C   0  0  0  0  0  0  0  0  0  0  0  0
    7.5450    1.7120   27.0780 O   0  0  0  0  0  0  0  0  0  0  0  0
    6.4950    0.4440   28.9840 O   0  0  0  0  0  0  0  0  0  0  0  0
    8.3390   -0.9670   22.3810 C   0  0  0  0  0  0  0  0  0  0  0  0
    8.4420    0.4240   22.2960 N   0  0  0  0  0  0  0  0  0  0  0  0
    8.0120    1.2370   21.2770 C   0  0  0  0  0  0  0  0  0  0  0  0
    8.6370    2.2220   20.9460 O   0  0  0  0  0  0  0  0  0  0  0  0
    6.7890    0.7830   20.7210 N   0  0  0  0  0  0  0  0  0  0  0  0
    6.2860    0.9580   19.3730 C   0  0  0  0  0  0  0  0  0  0  0  0
    7.1660   -0.4260   19.0720 C   0  0  0  0  0  0  0  0  0  0  0  0
    6.5580    0.1010   18.1560 N   0  0  0  0  0  0  0  0  0  0  0  0
    6.5610    0.5710   19.4210 C   0  0  0  0  0  0  0  0  0  0  0  0
    6.3580    1.3400   20.6880 C   0  0  0  0  0  0  0  0  0  0  0  0
    5.6000    2.1850   19.9890 C   0  0  0  0  0  0  0  0  0  0  0  0
    5.3390    2.9940   21.1060 C   0  0  0  0  0  0  0  0  0  0  0  0
    8.0010   -1.6900   21.1740 C   0  0  0  0  0  0  0  0  0  0  0  0
  1  2  1  0
  3  2  1  0
  3  4  2  0
  3  5  2  0
  3  6  1  0
  6  7  2  0
  7  8  1  0
  8  9  2  0
  9 10  1  0
 10 11  1  0
 11 12  1  0
 13 12  1  0
 13 14  1  0
 13 15  2  0
 13 16  2  0
  9 17  1  0
 17 18  1  0
 18 19  1  0
 19 20  2  0
 19 21  1  0
 21 22  1  0
 22 23  2  0
 23 24  1  0
 24 25  2  0
 25 26  1  0
 22 27  1  0
 26 27  2  0
 27 28  1  0
  6 29  1  0
 17 29  2  0
M  END
