TRY-UNI-1fd04853-3-acrylamide
     RDKit          3D

 28 29  0  0  0  0  0  0  0  0999 V2000
    6.8170   -4.0460   20.2800 C   0  0  0  0  0  0  0  0  0  0  0  0
    6.7310   -3.9820   21.8080 C   0  0  0  0  0  0  0  0  0  0  0  0
    5.7410   -2.9160   22.2280 C   0  0  0  0  0  0  0  0  0  0  0  0
    4.9930   -3.7390   21.6950 O   0  0  0  0  0  0  0  0  0  0  0  0
    7.0100   -2.2930   22.7330 C   0  0  0  0  0  0  0  0  0  0  0  0
    7.3300   -1.9880   24.1870 C   0  0  0  0  0  0  0  0  0  0  0  0
    8.0570   -0.7650   24.3470 N   0  0  0  0  0  0  0  0  0  0  0  0
    7.3410   -0.7300   23.3930 C   0  0  0  0  0  0  0  0  0  0  0  0
    7.0120    0.3510   24.2420 C   0  0  0  0  0  0  0  0  0  0  0  0
    6.4510    1.5280   23.4730 C   0  0  0  0  0  0  0  0  0  0  0  0
    7.3240    2.6160   23.4650 N   0  0  0  0  0  0  0  0  0  0  0  0
    6.6970    4.1700   23.3410 S   0  0  0  0  0  0  0  0  0  0  0  0
    7.6930    4.8220   22.0170 C   0  0  0  0  0  0  0  0  0  0  0  0
    5.3420    4.0190   22.8610 O   0  0  0  0  0  0  0  0  0  0  0  0
    6.9980    4.8880   24.5590 O   0  0  0  0  0  0  0  0  0  0  0  0
    8.4190   -1.6710   23.0350 C   0  0  0  0  0  0  0  0  0  0  0  0
    9.6340   -1.5500   23.6990 N   0  0  0  0  0  0  0  0  0  0  0  0
   10.1070   -2.4230   24.7210 C   0  0  0  0  0  0  0  0  0  0  0  0
    9.4470   -2.6550   25.7180 O   0  0  0  0  0  0  0  0  0  0  0  0
   11.3890   -2.9810   24.4370 N   0  0  0  0  0  0  0  0  0  0  0  0
   12.3790   -3.2350   25.4250 C   0  0  0  0  0  0  0  0  0  0  0  0
   13.1140   -2.2600   24.5990 C   0  0  0  0  0  0  0  0  0  0  0  0
   12.5280   -1.8110   23.5240 N   0  0  0  0  0  0  0  0  0  0  0  0
   11.3350   -2.4530   23.5090 C   0  0  0  0  0  0  0  0  0  0  0  0
   10.7280   -3.5040   24.5480 C   0  0  0  0  0  0  0  0  0  0  0  0
   11.3080   -4.0450   25.7750 C   0  0  0  0  0  0  0  0  0  0  0  0
    9.9860   -4.7720   25.8250 C   0  0  0  0  0  0  0  0  0  0  0  0
    8.1090   -2.2590   21.9240 C   0  0  0  0  0  0  0  0  0  0  0  0
  1  2  1  0
  2  3  1  0
  3  4  2  0
  3  5  1  0
  5  6  2  0
  6  7  1  0
  7  8  2  0
  8  9  1  0
  9 10  1  0
 10 11  1  0
 12 11  1  0
 12 13  1  0
 12 14  2  0
 12 15  2  0
  8 16  1  0
 16 17  1  0
 17 18  1  0
 18 19  2  0
 18 20  1  0
 20 21  1  0
 21 22  2  0
 22 23  1  0
 23 24  2  0
 24 25  1  0
 21 26  1  0
 25 26  2  0
 26 27  1  0
  5 28  1  0
 16 28  2  0
M  END
