VID-DNY-1d288c6c-1
     RDKit          3D

 29 32  0  0  0  0  0  0  0  0999 V2000
    7.9650    2.6540   20.5270 O   0  0  0  0  0  0  0  0  0  0  0  0
    7.5750    1.6300   19.9600 N   0  0  0  0  0  0  0  0  0  0  0  0
    6.5690    1.5730   19.2440 O   0  0  0  0  0  0  0  0  0  0  0  0
    7.7480    0.5950   20.7550 C   0  0  0  0  0  0  0  0  0  0  0  0
    8.6610    0.8080   21.8990 C   0  0  0  0  0  0  0  0  0  0  0  0
    8.9380   -0.2410   22.9270 C   0  0  0  0  0  0  0  0  0  0  0  0
    8.1620   -1.5280   22.6590 C   0  0  0  0  0  0  0  0  0  0  0  0
    8.3810   -2.4800   23.7380 N   0  0  0  0  0  0  0  0  0  0  0  0
    8.2210   -1.0720   24.0340 N   0  0  0  0  0  0  0  0  0  0  0  0
    8.2610   -0.5840   25.3940 C   0  0  0  0  0  0  0  0  0  0  0  0
    8.1120    0.7020   25.8620 C   0  0  0  0  0  0  0  0  0  0  0  0
    7.9070    0.8950   27.2320 C   0  0  0  0  0  0  0  0  0  0  0  0
    7.7340    2.1800   27.7700 C   0  0  0  0  0  0  0  0  0  0  0  0
    7.7550    3.4250   26.9340 C   0  0  0  0  0  0  0  0  0  0  0  0
    7.9820    3.2220   25.4380 C   0  0  0  0  0  0  0  0  0  0  0  0
    8.1600    1.7790   24.9530 C   0  0  0  0  0  0  0  0  0  0  0  0
    8.4580   -1.6820   26.0710 C   0  0  0  0  0  0  0  0  0  0  0  0
    8.5260   -2.7380   25.2120 C   0  0  0  0  0  0  0  0  0  0  0  0
    8.6890   -3.9460   25.8140 C   0  0  0  0  0  0  0  0  0  0  0  0
    7.9400   -3.8680   27.0370 C   0  0  0  0  0  0  0  0  0  0  0  0
    7.9320   -4.9410   27.8760 C   0  0  0  0  0  0  0  0  0  0  0  0
    8.6500   -5.9380   27.4140 C   0  0  0  0  0  0  0  0  0  0  0  0
    9.4900   -6.3090   26.2570 C   0  0  0  0  0  0  0  0  0  0  0  0
    9.4510   -5.0740   25.3670 C   0  0  0  0  0  0  0  0  0  0  0  0
    7.3220   -1.6960   21.5400 C   0  0  0  0  0  0  0  0  0  0  0  0
    6.5770   -2.9070   21.2750 N   0  0  0  0  0  0  0  0  0  0  0  0
    6.7090   -3.8450   22.0670 O   0  0  0  0  0  0  0  0  0  0  0  0
    5.7780   -2.8630   20.3250 O   0  0  0  0  0  0  0  0  0  0  0  0
    7.1060   -0.6020   20.5370 C   0  0  0  0  0  0  0  0  0  0  0  0
  1  2  2  0
  2  3  1  0
  2  4  1  0
  4  5  2  0
  5  6  1  0
  6  7  2  0
  7  8  1  0
  8  9  1  0
  9 10  2  0
 10 11  1  0
 11 12  2  0
 12 13  1  0
 13 14  2  0
 14 15  1  0
 11 16  1  0
 15 16  2  0
 10 17  1  0
  8 18  1  0
 17 18  2  0
 18 19  1  0
 19 20  2  0
 20 21  1  0
 21 22  2  0
 22 23  1  0
 19 24  1  0
 23 24  2  0
  7 25  1  0
 25 26  1  0
 26 27  2  0
 26 28  1  0
  4 29  1  0
 25 29  2  0
M  CHG  4   2   1   3  -1  26   1  28  -1
M  END
