VID-DNY-1d288c6c-3
     RDKit          3D

 31 34  0  0  0  0  0  0  0  0999 V2000
    3.0020   -5.7730   22.7050 O   0  0  0  0  0  0  0  0  0  0  0  0
    4.0850   -6.2130   23.1000 N   0  0  0  0  0  0  0  0  0  0  0  0
    4.1670   -7.1210   23.9370 O   0  0  0  0  0  0  0  0  0  0  0  0
    5.1110   -5.3210   23.1300 C   0  0  0  0  0  0  0  0  0  0  0  0
    6.0390   -5.4070   24.2730 C   0  0  0  0  0  0  0  0  0  0  0  0
    7.2190   -4.4890   24.4560 C   0  0  0  0  0  0  0  0  0  0  0  0
    7.3790   -3.4380   23.3590 C   0  0  0  0  0  0  0  0  0  0  0  0
    8.5200   -2.5260   23.5660 N   0  0  0  0  0  0  0  0  0  0  0  0
    8.8550   -1.4090   22.8150 N   0  0  0  0  0  0  0  0  0  0  0  0
   10.0420   -0.8720   23.5240 C   0  0  0  0  0  0  0  0  0  0  0  0
   10.7110    0.2770   23.1820 C   0  0  0  0  0  0  0  0  0  0  0  0
   12.0950    0.3900   23.2440 C   0  0  0  0  0  0  0  0  0  0  0  0
   12.7200    1.6020   22.9040 C   0  0  0  0  0  0  0  0  0  0  0  0
   11.9900    2.8470   22.4620 C   0  0  0  0  0  0  0  0  0  0  0  0
   12.7790    4.3250   22.0560 Cl  0  0  0  0  0  0  0  0  0  0  0  0
   10.4770    2.7260   22.3850 C   0  0  0  0  0  0  0  0  0  0  0  0
    9.9100    1.3620   22.7720 C   0  0  0  0  0  0  0  0  0  0  0  0
   10.3240   -1.7290   24.6130 C   0  0  0  0  0  0  0  0  0  0  0  0
    9.4170   -2.7510   24.6850 C   0  0  0  0  0  0  0  0  0  0  0  0
    9.2370   -3.8200   25.5860 C   0  0  0  0  0  0  0  0  0  0  0  0
    9.8240   -5.1210   25.3970 C   0  0  0  0  0  0  0  0  0  0  0  0
    9.5820   -6.1290   26.3460 C   0  0  0  0  0  0  0  0  0  0  0  0
    8.7950   -5.7420   27.3720 C   0  0  0  0  0  0  0  0  0  0  0  0
    9.0480   -4.4600   26.2910 Cl  0  0  0  0  0  0  0  0  0  0  0  0
    8.0760   -4.5280   27.8230 C   0  0  0  0  0  0  0  0  0  0  0  0
    8.4040   -3.5290   26.7270 C   0  0  0  0  0  0  0  0  0  0  0  0
    6.4820   -3.3770   22.2850 C   0  0  0  0  0  0  0  0  0  0  0  0
    6.5800   -2.3890   21.2170 N   0  0  0  0  0  0  0  0  0  0  0  0
    7.5490   -1.6240   21.2370 O   0  0  0  0  0  0  0  0  0  0  0  0
    5.8370   -2.5880   20.2430 O   0  0  0  0  0  0  0  0  0  0  0  0
    5.3280   -4.3350   22.1550 C   0  0  0  0  0  0  0  0  0  0  0  0
  1  2  2  0
  2  3  1  0
  2  4  1  0
  4  5  2  0
  5  6  1  0
  6  7  2  0
  7  8  1  0
  8  9  1  0
  9 10  2  0
 10 11  1  0
 11 12  2  0
 12 13  1  0
 13 14  2  0
 14 15  1  0
 14 16  1  0
 11 17  1  0
 16 17  2  0
 10 18  1  0
  8 19  1  0
 18 19  2  0
 19 20  1  0
 20 21  2  0
 21 22  1  0
 22 23  2  0
 23 24  1  0
 23 25  1  0
 20 26  1  0
 25 26  2  0
  7 27  1  0
 27 28  1  0
 28 29  2  0
 28 30  1  0
  4 31  1  0
 27 31  2  0
M  CHG  4   2   1   3  -1  28   1  30  -1
M  END
