VID-DNY-1d288c6c-8
     RDKit          3D

 31 34  0  0  0  0  0  0  0  0999 V2000
    3.1440   -5.6270   22.6300 O   0  0  0  0  0  0  0  0  0  0  0  0
    4.2400   -6.1060   22.9350 N   0  0  0  0  0  0  0  0  0  0  0  0
    4.3480   -7.0440   23.7380 O   0  0  0  0  0  0  0  0  0  0  0  0
    5.2750   -5.2260   22.9470 C   0  0  0  0  0  0  0  0  0  0  0  0
    6.2980   -5.3980   23.9990 C   0  0  0  0  0  0  0  0  0  0  0  0
    7.4980   -4.5040   24.1610 C   0  0  0  0  0  0  0  0  0  0  0  0
    7.5660   -3.3750   23.1390 C   0  0  0  0  0  0  0  0  0  0  0  0
    8.7140   -2.4640   23.3290 N   0  0  0  0  0  0  0  0  0  0  0  0
    9.1350   -1.4060   22.5440 N   0  0  0  0  0  0  0  0  0  0  0  0
   10.2650   -0.8600   23.3410 C   0  0  0  0  0  0  0  0  0  0  0  0
   10.9750    0.2650   23.0400 C   0  0  0  0  0  0  0  0  0  0  0  0
   10.1960    1.3870   22.7360 C   0  0  0  0  0  0  0  0  0  0  0  0
   10.7610    2.6350   22.4390 C   0  0  0  0  0  0  0  0  0  0  0  0
   12.2350    2.8600   22.4150 C   0  0  0  0  0  0  0  0  0  0  0  0
   12.9170    4.3970   22.0420 Cl  0  0  0  0  0  0  0  0  0  0  0  0
   13.0870    1.6300   22.7360 C   0  0  0  0  0  0  0  0  0  0  0  0
   12.3640    0.3280   23.0510 C   0  0  0  0  0  0  0  0  0  0  0  0
   10.4480   -1.6620   24.4870 C   0  0  0  0  0  0  0  0  0  0  0  0
    9.5070   -2.6420   24.5150 C   0  0  0  0  0  0  0  0  0  0  0  0
    9.1540   -3.6320   25.3910 C   0  0  0  0  0  0  0  0  0  0  0  0
    9.6550   -4.9330   25.5960 C   0  0  0  0  0  0  0  0  0  0  0  0
    9.0560   -5.7450   26.5880 C   0  0  0  0  0  0  0  0  0  0  0  0
    7.9640   -5.3000   27.3920 C   0  0  0  0  0  0  0  0  0  0  0  0
    7.0310   -6.2130   28.7310 Br  0  0  0  0  0  0  0  0  0  0  0  0
    7.4290   -3.9080   27.1840 C   0  0  0  0  0  0  0  0  0  0  0  0
    8.1090   -3.1550   26.1380 C   0  0  0  0  0  0  0  0  0  0  0  0
    6.5870   -3.2370   22.1470 C   0  0  0  0  0  0  0  0  0  0  0  0
    6.6370   -2.1650   21.1670 N   0  0  0  0  0  0  0  0  0  0  0  0
    7.7520   -1.6840   20.9590 O   0  0  0  0  0  0  0  0  0  0  0  0
    5.6800   -2.1010   20.3870 O   0  0  0  0  0  0  0  0  0  0  0  0
    5.4180   -4.1770   22.0330 C   0  0  0  0  0  0  0  0  0  0  0  0
  1  2  2  0
  2  3  1  0
  2  4  1  0
  4  5  2  0
  5  6  1  0
  6  7  2  0
  7  8  1  0
  8  9  1  0
  9 10  2  0
 10 11  1  0
 11 12  2  0
 12 13  1  0
 13 14  2  0
 14 15  1  0
 14 16  1  0
 11 17  1  0
 16 17  2  0
 10 18  1  0
  8 19  1  0
 18 19  2  0
 19 20  1  0
 20 21  2  0
 21 22  1  0
 22 23  2  0
 23 24  1  0
 23 25  1  0
 20 26  1  0
 25 26  2  0
  7 27  1  0
 27 28  1  0
 28 29  2  0
 28 30  1  0
  4 31  1  0
 27 31  2  0
M  CHG  4   2   1   3  -1  28   1  30  -1
M  END
