VIJ-CYC-1a381570-10-vinylsulfonamide
     RDKit          3D

 23 23  0  0  0  0  0  0  0  0999 V2000
    8.0100   -3.6540   19.6990 C   0  0  0  0  0  0  0  0  0  0  0  0
    7.8680   -3.9500   21.1430 C   0  0  0  0  0  0  0  0  0  0  0  0
    6.7700   -2.7180   21.6650 S   0  0  0  0  0  0  0  0  0  0  0  0
    5.0910   -3.4310   21.5170 O   0  0  0  0  0  0  0  0  0  0  0  0
    6.9410   -1.6880   20.6640 O   0  0  0  0  0  0  0  0  0  0  0  0
    7.9540   -1.8500   22.9220 N   0  0  0  0  0  0  0  0  0  0  0  0
    9.4740   -1.2990   22.9690 C   0  0  0  0  0  0  0  0  0  0  0  0
    9.9170    0.2820   23.1940 C   0  0  0  0  0  0  0  0  0  0  0  0
    8.7620    1.0960   23.8840 C   0  0  0  0  0  0  0  0  0  0  0  0
    9.9570    1.9070   23.5600 C   0  0  0  0  0  0  0  0  0  0  0  0
   10.8470    3.1200   23.4510 C   0  0  0  0  0  0  0  0  0  0  0  0
   10.6090    4.6050   23.8530 C   0  0  1  0  0  0  0  0  0  0  0  0
   11.7970    5.4150   23.9820 C   0  0  0  0  0  0  0  0  0  0  0  0
    9.8590    5.4070   23.1550 N   0  0  0  0  0  0  0  0  0  0  0  0
    9.5280    6.6460   23.6560 C   0  0  0  0  0  0  0  0  0  0  0  0
    9.1630    7.6120   22.6630 O   0  0  0  0  0  0  0  0  0  0  0  0
    9.5920    6.7220   24.8930 O   0  0  0  0  0  0  0  0  0  0  0  0
   10.6200    7.4130   25.4770 C   0  0  0  0  0  0  0  0  0  0  0  0
   11.8170    7.9990   24.8950 C   0  0  0  0  0  0  0  0  0  0  0  0
   10.7830    8.9060   25.4880 C   0  0  0  0  0  0  0  0  0  0  0  0
   11.0230    6.8220   26.8290 C   0  0  0  0  0  0  0  0  0  0  0  0
   11.8190    2.3590   22.9030 C   0  0  0  0  0  0  0  0  0  0  0  0
   11.1740    1.0700   22.8670 C   0  0  0  0  0  0  0  0  0  0  0  0
  1  2  1  0
  2  3  1  0
  3  4  2  0
  3  5  2  0
  3  6  1  0
  6  7  1  0
  7  8  1  0
  8  9  2  0
  9 10  1  0
 10 11  2  0
 11 12  1  0
 12 13  1  6
 12 14  1  0
 14 15  1  0
 15 16  2  0
 15 17  1  0
 18 17  1  0
 18 19  1  0
 18 20  1  0
 18 21  1  0
 11 22  1  0
  8 23  1  0
 22 23  2  0
M  END
