VIJ-CYC-1a381570-9-nitrile
     RDKit          3D

 27 29  0  0  0  0  0  0  0  0999 V2000
    6.7830   -4.1650   20.1830 C   0  0  0  0  0  0  0  0  0  0  0  0
    5.9000   -3.5720   19.4670 N   0  0  0  0  0  0  0  0  0  0  0  0
    6.9850   -3.7390   21.6310 C   0  0  0  0  0  0  0  0  0  0  0  0
    7.4530   -2.3100   21.8800 C   0  0  0  0  0  0  0  0  0  0  0  0
    9.0250   -2.2920   21.6570 C   0  0  0  0  0  0  0  0  0  0  0  0
    9.2690   -0.7570   21.9600 C   0  0  0  0  0  0  0  0  0  0  0  0
    8.2060    0.2700   22.3390 C   0  0  0  0  0  0  0  0  0  0  0  0
    8.6340    1.9060   22.6460 S   0  0  0  0  0  0  0  0  0  0  0  0
    9.1490    2.5080   21.4410 O   0  0  0  0  0  0  0  0  0  0  0  0
    9.3240    1.9050   23.8950 O   0  0  0  0  0  0  0  0  0  0  0  0
    7.1520    2.5790   22.9700 N   0  0  0  0  0  0  0  0  0  0  0  0
    6.7550    3.8150   22.2650 C   0  0  0  0  0  0  0  0  0  0  0  0
    5.4170    3.6050   21.5560 C   0  0  0  0  0  0  0  0  0  0  0  0
    5.0580    2.4830   21.2090 O   0  0  0  0  0  0  0  0  0  0  0  0
    5.8260    1.8350   20.3010 C   0  0  0  0  0  0  0  0  0  0  0  0
    6.3750    1.1710   19.1630 C   0  0  0  0  0  0  0  0  0  0  0  0
    5.8560    0.8640   17.9690 N   0  0  0  0  0  0  0  0  0  0  0  0
    4.6770    1.3050   18.0260 N   0  0  0  0  0  0  0  0  0  0  0  0
    4.6170    1.8250   19.2350 C   0  0  0  0  0  0  0  0  0  0  0  0
    3.3210    2.4350   19.6130 C   0  0  0  0  0  0  0  0  0  0  0  0
    2.3140    1.6830   20.0820 F   0  0  0  0  0  0  0  0  0  0  0  0
    3.4470    3.3970   20.5660 F   0  0  0  0  0  0  0  0  0  0  0  0
    2.7710    3.1140   18.5770 F   0  0  0  0  0  0  0  0  0  0  0  0
    6.8000   -0.1070   22.4590 C   0  0  0  0  0  0  0  0  0  0  0  0
    6.4900   -1.3570   22.2290 C   0  0  0  0  0  0  0  0  0  0  0  0
    7.3610   -4.7680   22.7080 C   0  0  0  0  0  0  0  0  0  0  0  0
    6.0380   -4.3280   22.6720 C   0  0  0  0  0  0  0  0  0  0  0  0
  1  2  2  3
  3  1  1  0
  3  4  1  0
  4  5  2  0
  5  6  1  0
  6  7  2  0
  7  8  1  0
  8  9  2  0
  8 10  2  0
  8 11  1  0
 11 12  1  0
 12 13  1  0
 13 14  1  0
 14 15  1  0
 15 16  2  0
 16 17  1  0
 17 18  1  0
 15 19  1  0
 18 19  2  0
 19 20  1  0
 20 21  1  0
 20 22  1  0
 20 23  1  0
  7 24  1  0
  4 25  1  0
 24 25  2  0
  3 26  1  0
  3 27  1  0
 26 27  1  0
M  END
