VIJ-CYC-1a381570-11
     RDKit          3D

 21 21  0  0  0  0  0  0  0  0999 V2000
    7.9610    4.1230   22.8370 C   0  0  0  0  0  0  0  0  0  0  0  0
    8.8760    5.2320   22.6660 N   0  0  0  0  0  0  0  0  0  0  0  0
   10.1660    5.4040   23.6940 S   0  0  0  0  0  0  0  0  0  0  0  0
    9.6510    5.5680   25.0280 O   0  0  0  0  0  0  0  0  0  0  0  0
   11.0720    6.3470   23.1030 O   0  0  0  0  0  0  0  0  0  0  0  0
   10.9150    3.8000   23.5850 C   0  0  0  0  0  0  0  0  0  0  0  0
   10.1410    2.5930   24.1450 C   0  0  0  0  0  0  0  0  0  0  0  0
   10.8160    1.2230   24.0580 C   0  0  0  0  0  0  0  0  0  0  0  0
   12.1710    1.2230   23.4340 C   0  0  0  0  0  0  0  0  0  0  0  0
   12.8360   -0.1320   23.3870 C   0  0  2  0  0  0  0  0  0  0  0  0
   12.1840   -0.9650   22.2880 C   0  0  0  0  0  0  0  0  0  0  0  0
   12.5350   -0.7630   24.5780 N   0  0  0  0  0  0  0  0  0  0  0  0
   11.5290   -1.6850   24.5600 C   0  0  0  0  0  0  0  0  0  0  0  0
   10.3610   -1.4360   24.3050 O   0  0  0  0  0  0  0  0  0  0  0  0
   11.9830   -2.9070   24.8380 N   0  0  0  0  0  0  0  0  0  0  0  0
   13.3540   -3.0220   24.7980 C   0  0  0  0  0  0  0  0  0  0  0  0
   14.2070   -3.7100   25.6060 C   0  0  0  0  0  0  0  0  0  0  0  0
   14.1790   -2.5710   25.9140 C   0  0  0  0  0  0  0  0  0  0  0  0
   13.8250   -2.8400   23.5320 C   0  0  0  0  0  0  0  0  0  0  0  0
   12.8310    2.4980   22.9050 C   0  0  0  0  0  0  0  0  0  0  0  0
   12.1870    3.7080   22.9970 C   0  0  0  0  0  0  0  0  0  0  0  0
  1  2  1  0
  3  2  1  0
  3  4  2  0
  3  5  2  0
  3  6  1  0
  6  7  2  0
  7  8  1  0
  8  9  2  0
  9 10  1  0
 10 11  1  6
 10 12  1  0
 12 13  1  0
 13 14  2  0
 13 15  1  0
 16 15  1  0
 16 17  1  0
 16 18  1  0
 16 19  1  0
  9 20  1  0
  6 21  1  0
 20 21  2  0
M  END
