VIJ-CYC-1a381570-4
     RDKit          3D

 32 35  0  0  0  0  0  0  0  0999 V2000
    4.2120   -3.0270   29.8130 C   0  0  0  0  0  0  0  0  0  0  0  0
    3.4740   -4.2500   29.7760 O   0  0  0  0  0  0  0  0  0  0  0  0
    4.1280   -5.2800   30.3710 C   0  0  0  0  0  0  0  0  0  0  0  0
    3.8610   -5.6740   31.8090 C   0  0  0  0  0  0  0  0  0  0  0  0
    4.6270   -6.8350   32.4440 C   0  0  0  0  0  0  0  0  0  0  0  0
    5.6480   -7.5700   31.5910 C   0  0  0  0  0  0  0  0  0  0  0  0
    5.8780   -7.1390   30.1430 C   0  0  0  0  0  0  0  0  0  0  0  0
    5.0750   -5.9600   29.5650 C   0  0  0  0  0  0  0  0  0  0  0  0
    5.3890   -5.6170   28.1040 C   0  0  0  0  0  0  0  0  0  0  0  0
    6.7660   -5.4740   27.6620 C   0  0  0  0  0  0  0  0  0  0  0  0
    6.8090   -4.8790   26.3290 N   0  0  0  0  0  0  0  0  0  0  0  0
    7.6590   -3.8720   25.9250 C   0  0  0  0  0  0  0  0  0  0  0  0
    8.1360   -2.9680   26.8200 O   0  0  0  0  0  0  0  0  0  0  0  0
    8.0270   -3.7740   24.5270 C   0  0  0  0  0  0  0  0  0  0  0  0
    7.7220   -4.6610   23.7460 O   0  0  0  0  0  0  0  0  0  0  0  0
    8.6790   -2.7100   24.1790 N   0  0  0  0  0  0  0  0  0  0  0  0
    9.6910   -2.7580   23.1530 C   0  0  0  0  0  0  0  0  0  0  0  0
   10.3320   -1.4680   23.0190 C   0  0  0  0  0  0  0  0  0  0  0  0
   11.6770   -1.5150   22.6460 C   0  0  0  0  0  0  0  0  0  0  0  0
   12.3510   -0.2970   22.5250 C   0  0  0  0  0  0  0  0  0  0  0  0
   11.6290    0.8680   22.7740 C   0  0  0  0  0  0  0  0  0  0  0  0
   12.1810    2.1250   22.6670 C   0  0  0  0  0  0  0  0  0  0  0  0
   11.4950    3.2590   22.9220 N   0  0  0  0  0  0  0  0  0  0  0  0
   12.4070    4.2720   22.6670 O   0  0  0  0  0  0  0  0  0  0  0  0
   13.5450    3.6430   22.2850 C   0  0  0  0  0  0  0  0  0  0  0  0
   14.6150    4.4340   21.9740 C   0  0  0  0  0  0  0  0  0  0  0  0
   13.4420    2.3120   22.2760 N   0  0  0  0  0  0  0  0  0  0  0  0
   10.3040    0.8650   23.1290 C   0  0  0  0  0  0  0  0  0  0  0  0
    9.6440   -0.3050   23.2570 C   0  0  0  0  0  0  0  0  0  0  0  0
    4.4820   -4.5050   27.4320 C   0  0  0  0  0  0  0  0  0  0  0  0
    4.2430   -5.4350   26.2340 C   0  0  0  0  0  0  0  0  0  0  0  0
    4.6070   -6.6080   27.1520 C   0  0  0  0  0  0  0  0  0  0  0  0
  1  2  1  0
  2  3  1  0
  3  4  2  0
  4  5  1  0
  5  6  2  0
  6  7  1  0
  3  8  1  0
  7  8  2  0
  8  9  1  0
  9 10  1  0
 10 11  1  0
 11 12  1  0
 12 13  2  0
 12 14  1  0
 14 15  2  0
 14 16  1  0
 16 17  1  0
 17 18  1  0
 18 19  2  0
 19 20  1  0
 20 21  2  0
 21 22  1  0
 22 23  2  0
 23 24  1  0
 24 25  1  0
 25 26  1  0
 22 27  1  0
 25 27  2  0
 21 28  1  0
 18 29  1  0
 28 29  2  0
  9 30  1  0
 30 31  1  0
  9 32  1  0
 31 32  1  0
M  END
