VIJ-CYC-1a381570-2-nitrile
     RDKit          3D

 25 27  0  0  0  0  0  0  0  0999 V2000
    6.7060   -4.7080   20.3960 C   0  0  0  0  0  0  0  0  0  0  0  0
    5.6520   -4.2010   19.8710 N   0  0  0  0  0  0  0  0  0  0  0  0
    6.8860   -4.5820   21.9240 C   0  0  0  0  0  0  0  0  0  0  0  0
    7.6810   -3.3900   22.6180 C   0  0  0  0  0  0  0  0  0  0  0  0
    9.0320   -2.7990   21.7990 C   0  0  0  0  0  0  0  0  0  0  0  0
    9.8960   -1.5960   22.4320 C   0  0  0  0  0  0  0  0  0  0  0  0
    8.7720   -2.1360   23.0340 C   0  0  0  0  0  0  0  0  0  0  0  0
    8.1520   -3.3620   22.0300 S   0  0  0  0  0  0  0  0  0  0  0  0
    8.8220   -3.2430   20.7650 O   0  0  0  0  0  0  0  0  0  0  0  0
    8.1980   -4.5790   22.8110 O   0  0  0  0  0  0  0  0  0  0  0  0
    6.5610   -2.8570   21.7930 N   0  0  0  0  0  0  0  0  0  0  0  0
    6.2030   -1.6810   20.9510 C   0  0  0  0  0  0  0  0  0  0  0  0
    6.5210   -1.8940   19.4700 C   0  0  0  0  0  0  0  0  0  0  0  0
    6.2350   -0.9210   18.5910 N   0  0  0  0  0  0  0  0  0  0  0  0
    5.6440    0.2350   19.0920 C   0  0  0  0  0  0  0  0  0  0  0  0
    5.2850    1.2630   18.2940 C   0  0  0  0  0  0  0  0  0  0  0  0
    5.0580    2.4240   19.0950 O   0  0  0  0  0  0  0  0  0  0  0  0
    3.7250    2.9050   18.9670 C   0  0  0  0  0  0  0  0  0  0  0  0
    5.4140    0.3220   20.4550 N   0  0  0  0  0  0  0  0  0  0  0  0
    5.6280   -0.5520   21.6140 C   0  0  0  0  0  0  0  0  0  0  0  0
    5.0340    0.6930   22.0830 C   0  0  0  0  0  0  0  0  0  0  0  0
    8.1130   -1.9040   24.1680 C   0  0  0  0  0  0  0  0  0  0  0  0
    7.2520   -2.8450   23.9020 C   0  0  0  0  0  0  0  0  0  0  0  0
    5.6860   -5.0730   22.7110 C   0  0  0  0  0  0  0  0  0  0  0  0
    6.8830   -5.7790   22.7010 C   0  0  0  0  0  0  0  0  0  0  0  0
  1  2  2  3
  3  1  1  0
  3  4  1  0
  4  5  2  0
  5  6  1  0
  6  7  2  0
  7  8  1  0
  8  9  2  0
  8 10  2  0
  8 11  1  0
 11 12  1  0
 12 13  2  0
 13 14  1  0
 14 15  2  0
 15 16  1  0
 16 17  1  0
 17 18  1  0
 15 19  1  0
 12 20  1  0
 19 20  2  0
 20 21  1  0
  7 22  1  0
  4 23  1  0
 22 23  2  0
  3 24  1  0
  3 25  1  0
 24 25  1  0
M  END
