VIJ-CYC-1a381570-8
     RDKit          3D

 30 31  0  0  0  0  0  0  0  0999 V2000
    8.5120    6.8530   22.3190 C   0  0  0  0  0  0  0  0  0  0  0  0
    9.1260    5.5630   22.6000 N   0  0  0  0  0  0  0  0  0  0  0  0
   10.4020    5.5070   23.6650 S   0  0  0  0  0  0  0  0  0  0  0  0
   11.4170    6.3900   23.1690 O   0  0  0  0  0  0  0  0  0  0  0  0
    9.8270    5.6660   24.9780 O   0  0  0  0  0  0  0  0  0  0  0  0
   11.0210    3.8410   23.5700 C   0  0  0  0  0  0  0  0  0  0  0  0
   12.4060    3.5610   22.9560 C   0  0  0  0  0  0  0  0  0  0  0  0
   12.8430    2.0870   22.9590 C   0  0  0  0  0  0  0  0  0  0  0  0
   11.8700    1.1250   23.5440 C   0  0  0  0  0  0  0  0  0  0  0  0
   12.2940   -0.3200   23.5630 C   0  0  2  0  0  0  0  0  0  0  0  0
   13.0660   -0.7130   22.3130 C   0  0  0  0  0  0  0  0  0  0  0  0
   11.0400   -0.9780   23.5690 N   0  0  0  0  0  0  0  0  0  0  0  0
   10.1590   -1.0220   22.4260 C   0  0  0  0  0  0  0  0  0  0  0  0
   10.4150   -1.8180   21.5570 O   0  0  0  0  0  0  0  0  0  0  0  0
    8.8870   -0.1580   22.1630 C   0  0  0  0  0  0  0  0  0  0  0  0
    8.5540    0.6050   23.0610 O   0  0  0  0  0  0  0  0  0  0  0  0
    8.1050   -0.2510   20.9030 N   0  0  0  0  0  0  0  0  0  0  0  0
    6.9770    0.5770   20.3640 C   0  0  2  0  0  0  0  0  0  0  0  0
    5.6270    0.4040   20.7830 C   0  0  0  0  0  0  0  0  0  0  0  0
    5.5780   -0.9180   21.3500 C   0  0  0  0  0  0  0  0  0  0  0  0
    5.7260   -1.8150   20.1970 C   0  0  2  0  0  0  0  0  0  0  0  0
    6.5500   -2.7990   20.5680 N   0  0  0  0  0  0  0  0  0  0  0  0
    6.2150   -3.9670   21.7440 S   0  0  0  0  0  0  0  0  0  0  0  0
    6.7140   -3.1110   23.2210 C   0  0  0  0  0  0  0  0  0  0  0  0
    4.7790   -4.1570   21.7940 O   0  0  0  0  0  0  0  0  0  0  0  0
    7.1250   -5.0970   21.5940 O   0  0  0  0  0  0  0  0  0  0  0  0
    6.3080   -1.1200   18.9140 C   0  0  0  0  0  0  0  0  0  0  0  0
    6.7680    0.1780   18.9120 C   0  0  0  0  0  0  0  0  0  0  0  0
   10.6330    1.4930   24.0620 C   0  0  0  0  0  0  0  0  0  0  0  0
   10.2170    2.8130   24.0770 C   0  0  0  0  0  0  0  0  0  0  0  0
  1  2  1  0
  3  2  1  0
  3  4  2  0
  3  5  2  0
  3  6  1  0
  6  7  2  0
  7  8  1  0
  8  9  2  0
  9 10  1  0
 10 11  1  6
 10 12  1  0
 12 13  1  0
 13 14  2  0
 13 15  1  0
 15 16  2  0
 15 17  1  0
 18 17  1  1
 18 19  1  0
 19 20  1  0
 20 21  1  0
 21 22  1  1
 23 22  1  0
 23 24  1  0
 23 25  2  0
 23 26  2  0
 21 27  1  0
 18 28  1  0
 27 28  1  0
  9 29  1  0
  6 30  1  0
 29 30  2  0
M  END
