VIJ-CYC-1a381570-2-chloroacetamide
     RDKit          3D

 26 28  0  0  0  0  0  0  0  0999 V2000
    7.6180   -4.7800   20.7970 C   0  0  0  0  0  0  0  0  0  0  0  0
    6.2930   -4.0740   20.8520 C   0  0  0  0  0  0  0  0  0  0  0  0
    5.4550   -4.2600   19.9220 O   0  0  0  0  0  0  0  0  0  0  0  0
    6.1010   -3.1750   22.0770 C   0  0  0  0  0  0  0  0  0  0  0  0
    7.1620   -2.0420   22.4960 C   0  0  0  0  0  0  0  0  0  0  0  0
    6.5160   -1.3750   23.8630 C   0  0  0  0  0  0  0  0  0  0  0  0
    7.7640   -0.5320   23.8200 C   0  0  0  0  0  0  0  0  0  0  0  0
    8.3260   -1.0750   22.6410 C   0  0  0  0  0  0  0  0  0  0  0  0
    7.3960   -2.2500   21.8660 S   0  0  0  0  0  0  0  0  0  0  0  0
    7.1050   -3.2580   22.8680 O   0  0  0  0  0  0  0  0  0  0  0  0
    8.0210   -2.5670   20.6030 O   0  0  0  0  0  0  0  0  0  0  0  0
    6.0360   -1.2530   21.4790 N   0  0  0  0  0  0  0  0  0  0  0  0
    5.9030   -0.4340   20.2720 C   0  0  0  0  0  0  0  0  0  0  0  0
    4.9850    0.2830   21.0370 C   0  0  0  0  0  0  0  0  0  0  0  0
    5.3920    0.4610   19.8000 N   0  0  0  0  0  0  0  0  0  0  0  0
    6.3650   -0.6120   19.6110 C   0  0  0  0  0  0  0  0  0  0  0  0
    7.3090   -1.3620   18.8560 C   0  0  0  0  0  0  0  0  0  0  0  0
    6.7210   -2.1930   18.2130 O   0  0  0  0  0  0  0  0  0  0  0  0
    5.4850   -2.4050   18.8660 C   0  0  0  0  0  0  0  0  0  0  0  0
    6.2760    0.0590   18.5240 N   0  0  0  0  0  0  0  0  0  0  0  0
    5.4220    0.6740   19.2970 C   0  0  0  0  0  0  0  0  0  0  0  0
    5.2640    1.4660   18.1720 C   0  0  0  0  0  0  0  0  0  0  0  0
    9.4070   -0.8570   21.9920 C   0  0  0  0  0  0  0  0  0  0  0  0
    8.4410   -1.7980   21.6760 C   0  0  0  0  0  0  0  0  0  0  0  0
    5.6040   -3.9810   23.2890 C   0  0  0  0  0  0  0  0  0  0  0  0
    4.7090   -3.0830   22.7070 C   0  0  0  0  0  0  0  0  0  0  0  0
  1  2  1  0
  2  3  2  0
  4  2  1  0
  4  5  1  0
  5  6  2  0
  6  7  1  0
  7  8  2  0
  8  9  1  0
  9 10  2  0
  9 11  2  0
  9 12  1  0
 12 13  1  0
 13 14  2  0
 14 15  1  0
 15 16  2  0
 16 17  1  0
 17 18  1  0
 18 19  1  0
 16 20  1  0
 13 21  1  0
 20 21  2  0
 21 22  1  0
  8 23  1  0
  5 24  1  0
 23 24  2  0
  4 25  1  0
  4 26  1  0
 25 26  1  0
M  END
