VIJ-CYC-1a381570-12-chloroacetamide
     RDKit          3D

 19 19  0  0  0  0  0  0  0  0999 V2000
    7.9980   -3.3290   20.2670 C   0  0  0  0  0  0  0  0  0  0  0  0
    7.1860   -2.0490   19.9670 C   0  0  0  0  0  0  0  0  0  0  0  0
    6.3380   -2.4420   18.9250 O   0  0  0  0  0  0  0  0  0  0  0  0
    7.5430   -0.6740   21.0180 C   0  0  1  0  0  0  0  0  0  0  0  0
    7.6160    0.9160   20.9970 N   0  0  0  0  0  0  0  0  0  0  0  0
    8.2870    2.2630   22.1320 S   0  0  0  0  0  0  0  0  0  0  0  0
    8.7580    3.3510   21.3390 O   0  0  0  0  0  0  0  0  0  0  0  0
    7.5690    2.5740   23.3640 O   0  0  0  0  0  0  0  0  0  0  0  0
    9.8210    1.7060   22.6530 C   0  0  0  0  0  0  0  0  0  0  0  0
    9.7270    0.3170   23.1320 C   0  0  0  0  0  0  0  0  0  0  0  0
   10.9590   -0.3670   23.5280 C   0  0  0  0  0  0  0  0  0  0  0  0
   12.1180    0.5650   23.3430 C   0  0  0  0  0  0  0  0  0  0  0  0
   13.3250   -0.1420   23.6410 C   0  0  0  0  0  0  0  0  0  0  0  0
   13.4770   -1.2750   22.9200 F   0  0  0  0  0  0  0  0  0  0  0  0
   12.1540    1.8950   22.9330 C   0  0  0  0  0  0  0  0  0  0  0  0
   10.9990    2.4750   22.5900 C   0  0  0  0  0  0  0  0  0  0  0  0
    6.6790   -0.8720   22.0960 C   0  0  0  0  0  0  0  0  0  0  0  0
    5.4050   -0.1680   22.1710 C   0  0  0  0  0  0  0  0  0  0  0  0
    5.4660   -1.7080   21.7770 C   0  0  0  0  0  0  0  0  0  0  0  0
  1  2  1  0
  2  3  2  0
  2  4  1  0
  4  5  1  6
  6  5  1  0
  6  7  2  0
  6  8  2  0
  6  9  1  0
  9 10  2  0
 10 11  1  0
 11 12  2  0
 12 13  1  0
 13 14  1  0
 12 15  1  0
  9 16  1  0
 15 16  2  0
  4 17  1  0
 17 18  1  0
 17 19  1  0
M  END
