VIJ-CYC-1a381570-10-acrylamide
     RDKit          3D

 22 22  0  0  0  0  0  0  0  0999 V2000
    6.7470   -5.1620   21.3340 C   0  0  0  0  0  0  0  0  0  0  0  0
    6.9230   -4.0110   22.3550 C   0  0  0  0  0  0  0  0  0  0  0  0
    6.5100   -2.6570   21.8150 C   0  0  0  0  0  0  0  0  0  0  0  0
    5.1360   -3.4130   21.3760 O   0  0  0  0  0  0  0  0  0  0  0  0
    8.0360   -2.1660   22.3980 N   0  0  0  0  0  0  0  0  0  0  0  0
    9.0390   -0.8850   22.4720 C   0  0  0  0  0  0  0  0  0  0  0  0
   10.3990   -0.7370   23.3410 C   0  0  0  0  0  0  0  0  0  0  0  0
   10.9110    0.8190   23.6300 C   0  0  0  0  0  0  0  0  0  0  0  0
   11.0190    2.4100   23.6740 C   0  0  0  0  0  0  0  0  0  0  0  0
    9.9030    2.5220   23.0280 C   0  0  0  0  0  0  0  0  0  0  0  0
    9.7690    3.9990   22.9260 C   0  0  2  0  0  0  0  0  0  0  0  0
   10.9680    4.4410   22.4700 C   0  0  0  0  0  0  0  0  0  0  0  0
    9.7370    4.6110   24.1500 N   0  0  0  0  0  0  0  0  0  0  0  0
   10.4190    5.7740   24.2390 C   0  0  0  0  0  0  0  0  0  0  0  0
   10.5430    6.4620   25.2410 O   0  0  0  0  0  0  0  0  0  0  0  0
   10.8950    6.0180   23.1200 O   0  0  0  0  0  0  0  0  0  0  0  0
   12.0490    5.2760   22.5700 C   0  0  0  0  0  0  0  0  0  0  0  0
   13.1510    6.1900   22.3200 C   0  0  0  0  0  0  0  0  0  0  0  0
   13.2270    5.1750   23.4290 C   0  0  0  0  0  0  0  0  0  0  0  0
   11.9880    4.1050   21.5800 C   0  0  0  0  0  0  0  0  0  0  0  0
   10.9180    1.5130   23.6420 C   0  0  0  0  0  0  0  0  0  0  0  0
   11.2620    0.0860   23.8670 C   0  0  0  0  0  0  0  0  0  0  0  0
  1  2  1  0
  2  3  1  0
  3  4  2  0
  3  5  1  0
  5  6  1  0
  6  7  1  0
  7  8  2  0
  8  9  1  0
  9 10  2  0
 10 11  1  0
 11 12  1  6
 11 13  1  0
 13 14  1  0
 14 15  2  0
 14 16  1  0
 17 16  1  0
 17 18  1  0
 17 19  1  0
 17 20  1  0
 10 21  1  0
  7 22  1  0
 21 22  2  0
M  END
