VIJ-CYC-1a381570-10-chloroacetamide
     RDKit          3D

 21 21  0  0  0  0  0  0  0  0999 V2000
    8.7420   -3.9340   20.6050 C   0  0  0  0  0  0  0  0  0  0  0  0
    8.1780   -2.4860   20.4430 C   0  0  0  0  0  0  0  0  0  0  0  0
    7.2860   -2.9780   19.3430 O   0  0  0  0  0  0  0  0  0  0  0  0
    9.2470   -2.2290   21.6630 N   0  0  0  0  0  0  0  0  0  0  0  0
   10.5420   -1.4340   22.0990 C   0  0  0  0  0  0  0  0  0  0  0  0
   10.6740    0.1370   22.5640 C   0  0  0  0  0  0  0  0  0  0  0  0
    9.3460    0.7500   22.9250 C   0  0  0  0  0  0  0  0  0  0  0  0
    9.3100    2.2310   23.3330 C   0  0  0  0  0  0  0  0  0  0  0  0
   10.6210    3.0110   23.3520 C   0  0  0  0  0  0  0  0  0  0  0  0
   10.4470    4.5100   23.7400 C   0  0  2  0  0  0  0  0  0  0  0  0
    9.2870    4.9660   24.4520 C   0  0  0  0  0  0  0  0  0  0  0  0
   10.7020    5.4790   22.8900 N   0  0  0  0  0  0  0  0  0  0  0  0
   11.3270    6.6110   23.3070 C   0  0  0  0  0  0  0  0  0  0  0  0
   10.7750    7.5510   24.1250 O   0  0  0  0  0  0  0  0  0  0  0  0
   12.6480    6.6280   22.7530 O   0  0  0  0  0  0  0  0  0  0  0  0
   12.9970    5.3800   22.1500 C   0  0  0  0  0  0  0  0  0  0  0  0
   14.2450    4.9620   22.7590 C   0  0  0  0  0  0  0  0  0  0  0  0
   13.1630    4.1780   22.9810 C   0  0  0  0  0  0  0  0  0  0  0  0
   13.3290    5.3780   20.7010 C   0  0  0  0  0  0  0  0  0  0  0  0
   11.8210    2.3420   23.0270 C   0  0  0  0  0  0  0  0  0  0  0  0
   11.8490    0.9830   22.6590 C   0  0  0  0  0  0  0  0  0  0  0  0
  1  2  1  0
  2  3  2  0
  2  4  1  0
  4  5  1  0
  5  6  1  0
  6  7  2  0
  7  8  1  0
  8  9  2  0
  9 10  1  0
 10 11  1  6
 10 12  1  0
 12 13  1  0
 13 14  2  0
 13 15  1  0
 16 15  1  0
 16 17  1  0
 16 18  1  0
 16 19  1  0
  9 20  1  0
  6 21  1  0
 20 21  2  0
M  END
