VIK-SYN-9a3d118a-7-acrylamide
     RDKit          3D

 16 15  0  0  0  0  0  0  0  0999 V2000
    7.4980   -3.0900   19.0640 C   0  0  0  0  0  0  0  0  0  0  0  0
    7.1210   -3.1570   20.5310 C   0  0  0  0  0  0  0  0  0  0  0  0
    6.1660   -4.3030   20.7360 C   0  0  0  0  0  0  0  0  0  0  0  0
    5.2060   -4.4470   19.9680 O   0  0  0  0  0  0  0  0  0  0  0  0
    6.3960   -5.1970   21.7740 N   0  0  0  0  0  0  0  0  0  0  0  0
    5.6250   -6.3980   21.9410 C   0  0  0  0  0  0  0  0  0  0  0  0
    7.1160   -4.7630   22.9850 C   0  0  0  0  0  0  0  0  0  0  0  0
    6.1870   -4.2760   24.1160 C   0  0  0  0  0  0  0  0  0  0  0  0
    5.3870   -5.3420   24.7440 N   0  0  0  0  0  0  0  0  0  0  0  0
    4.9170   -6.4560   23.9420 C   0  0  0  0  0  0  0  0  0  0  0  0
    4.5820   -5.0480   25.7950 C   0  0  0  0  0  0  0  0  0  0  0  0
    4.0520   -6.1560   26.4000 O   0  0  0  0  0  0  0  0  0  0  0  0
    4.2530   -3.8520   26.2560 N   0  0  0  0  0  0  0  0  0  0  0  0
    2.9510   -3.5940   25.8610 C   0  0  0  0  0  0  0  0  0  0  0  0
    2.6010   -2.1590   25.6580 C   0  0  0  0  0  0  0  0  0  0  0  0
    2.6260   -4.3670   24.5770 C   0  0  0  0  0  0  0  0  0  0  0  0
  1  2  1  0
  2  3  1  0
  3  4  2  0
  3  5  1  0
  5  6  1  0
  5  7  1  0
  7  8  1  0
  8  9  1  0
  9 10  1  0
  9 11  1  0
 11 12  2  0
 11 13  1  0
 13 14  1  0
 14 15  1  0
 14 16  1  0
M  END
