VIK-SYN-9a3d118a-8-nitrile
     RDKit          3D

 18 19  0  0  0  0  0  0  0  0999 V2000
    6.4330   -4.5680   20.3670 C   0  0  0  0  0  0  0  0  0  0  0  0
    5.2930   -4.3760   19.8700 N   0  0  0  0  0  0  0  0  0  0  0  0
    6.6180   -5.0700   21.6460 N   0  0  0  0  0  0  0  0  0  0  0  0
    5.8340   -6.2130   22.1160 C   0  0  0  0  0  0  0  0  0  0  0  0
    4.7230   -5.8450   23.1060 C   0  0  0  0  0  0  0  0  0  0  0  0
    5.0940   -4.6620   24.0200 C   0  0  0  0  0  0  0  0  0  0  0  0
    4.4600   -4.6680   25.3570 N   0  0  0  0  0  0  0  0  0  0  0  0
    5.0030   -5.5700   26.3820 C   0  0  0  0  0  0  0  0  0  0  0  0
    3.4390   -3.7380   25.5190 C   0  0  0  0  0  0  0  0  0  0  0  0
    3.7180   -2.3620   25.8990 C   0  0  0  0  0  0  0  0  0  0  0  0
    2.6010   -1.2790   26.0820 C   0  0  0  0  0  0  0  0  0  0  0  0
    1.2260   -1.7460   25.8420 C   0  0  0  0  0  0  0  0  0  0  0  0
   -0.0420   -0.9590   25.9340 C   0  0  0  0  0  0  0  0  0  0  0  0
   -1.0210   -0.3380   26.0040 N   0  0  0  0  0  0  0  0  0  0  0  0
    1.3550   -3.1690   25.4850 C   0  0  0  0  0  0  0  0  0  0  0  0
    2.1660   -4.1870   25.2930 N   0  0  0  0  0  0  0  0  0  0  0  0
    6.6160   -4.5990   24.0840 C   0  0  0  0  0  0  0  0  0  0  0  0
    7.2000   -4.2460   22.7200 C   0  0  0  0  0  0  0  0  0  0  0  0
  1  2  2  3
  1  3  1  0
  3  4  1  0
  4  5  1  0
  5  6  1  0
  6  7  1  0
  7  8  1  0
  7  9  1  0
  9 10  2  0
 10 11  1  0
 11 12  2  0
 12 13  1  0
 13 14  3  0
 12 15  1  0
  9 16  1  0
 15 16  2  0
  6 17  1  0
  3 18  1  0
 17 18  1  0
M  END
