VIK-SYN-9a3d118a-6-acrylamide
     RDKit          3D

 18 18  0  0  0  0  0  0  0  0999 V2000
    6.6110   -4.3160   20.4950 C   0  0  0  0  0  0  0  0  0  0  0  0
    6.9440   -3.7370   21.8880 C   0  0  0  0  0  0  0  0  0  0  0  0
    5.7160   -3.1720   22.5860 C   0  0  0  0  0  0  0  0  0  0  0  0
    4.5590   -3.5260   22.1470 O   0  0  0  0  0  0  0  0  0  0  0  0
    5.9190   -2.2410   23.6930 N   0  0  0  0  0  0  0  0  0  0  0  0
    4.8910   -1.3110   24.1320 C   0  0  0  0  0  0  0  0  0  0  0  0
    7.2070   -2.1550   24.5190 C   0  0  0  0  0  0  0  0  0  0  0  0
    7.4810   -0.8150   25.2760 C   0  0  0  0  0  0  0  0  0  0  0  0
    8.8760   -0.6450   25.7050 N   0  0  0  0  0  0  0  0  0  0  0  0
    9.1390   -0.1430   27.0460 C   0  0  0  0  0  0  0  0  0  0  0  0
    9.8430   -0.5230   24.7880 C   0  0  0  0  0  0  0  0  0  0  0  0
   10.8310    0.2600   24.7670 N   0  0  0  0  0  0  0  0  0  0  0  0
   11.6750    0.1570   23.6800 C   0  0  0  0  0  0  0  0  0  0  0  0
   12.2870   -0.2210   22.4690 C   0  0  0  0  0  0  0  0  0  0  0  0
   13.6570   -0.4990   22.7360 C   0  0  0  0  0  0  0  0  0  0  0  0
   11.6640   -1.4630   21.7910 C   0  0  0  0  0  0  0  0  0  0  0  0
   10.9210   -0.8650   23.0990 C   0  0  0  0  0  0  0  0  0  0  0  0
    9.8310   -1.2900   23.7360 O   0  0  0  0  0  0  0  0  0  0  0  0
  1  2  1  0
  2  3  1  0
  3  4  2  0
  3  5  1  0
  5  6  1  0
  5  7  1  0
  7  8  1  0
  8  9  1  0
  9 10  1  0
  9 11  1  0
 11 12  2  0
 12 13  1  0
 13 14  1  0
 14 15  1  0
 14 16  1  0
 13 17  2  0
 11 18  1  0
 17 18  1  0
M  END
