VIK-SYN-9a3d118a-7-vinylsulfonamide
     RDKit          3D

 17 16  0  0  0  0  0  0  0  0999 V2000
    5.1690   -3.8280   21.5790 C   0  0  0  0  0  0  0  0  0  0  0  0
    5.2580   -3.2650   22.9790 C   0  0  0  0  0  0  0  0  0  0  0  0
    4.0660   -4.2530   23.8070 S   0  0  0  0  0  0  0  0  0  0  0  0
    3.1260   -4.6690   22.7880 O   0  0  0  0  0  0  0  0  0  0  0  0
    3.6560   -3.5730   25.0150 O   0  0  0  0  0  0  0  0  0  0  0  0
    4.9590   -5.6290   24.2260 N   0  0  0  0  0  0  0  0  0  0  0  0
    4.2300   -6.7270   24.8500 C   0  0  0  0  0  0  0  0  0  0  0  0
    6.3230   -5.4050   24.6880 C   0  0  0  0  0  0  0  0  0  0  0  0
    7.4880   -5.8320   23.7290 C   0  0  0  0  0  0  0  0  0  0  0  0
    7.1080   -6.6750   22.5570 N   0  0  0  0  0  0  0  0  0  0  0  0
    5.7040   -6.8990   22.4590 C   0  0  0  0  0  0  0  0  0  0  0  0
    8.0810   -6.7670   21.3830 C   0  0  0  0  0  0  0  0  0  0  0  0
    8.9530   -7.4830   22.1900 O   0  0  0  0  0  0  0  0  0  0  0  0
    8.5340   -6.0500   19.8800 N   0  0  0  0  0  0  0  0  0  0  0  0
    8.9690   -4.2960   19.4790 C   0  0  0  0  0  0  0  0  0  0  0  0
    9.2230   -3.1260   20.6590 C   0  0  0  0  0  0  0  0  0  0  0  0
    8.1040   -3.1860   18.6410 C   0  0  0  0  0  0  0  0  0  0  0  0
  1  2  1  0
  2  3  1  0
  3  4  2  0
  3  5  2  0
  3  6  1  0
  6  7  1  0
  6  8  1  0
  8  9  1  0
  9 10  1  0
 10 11  1  0
 10 12  1  0
 12 13  2  0
 12 14  1  0
 14 15  1  0
 15 16  1  0
 15 17  1  0
M  END
