VIR-GIT-7b3d3065-3-chloroacetamide
     RDKit          3D

 16 16  0  0  0  0  0  0  0  0999 V2000
    7.0020   -3.3080   19.4380 C   0  0  0  0  0  0  0  0  0  0  0  0
    6.2520   -4.1580   20.4110 C   0  0  0  0  0  0  0  0  0  0  0  0
    5.3300   -4.8480   19.9870 O   0  0  0  0  0  0  0  0  0  0  0  0
    6.6490   -4.1960   21.7510 N   0  0  0  0  0  0  0  0  0  0  0  0
    7.5360   -3.1630   22.3280 C   0  0  0  0  0  0  0  0  0  0  0  0
    7.4660   -3.0930   23.7260 C   0  0  0  0  0  0  0  0  0  0  0  0
    6.2490   -3.5300   24.2480 C   0  0  0  0  0  0  0  0  0  0  0  0
    5.8260   -3.2520   25.6260 C   0  0  0  0  0  0  0  0  0  0  0  0
    4.7450   -2.7040   25.8200 O   0  0  0  0  0  0  0  0  0  0  0  0
    6.5760   -3.5730   26.7690 N   0  0  0  0  0  0  0  0  0  0  0  0
    6.1090   -3.1960   28.1130 C   0  0  0  0  0  0  0  0  0  0  0  0
    7.2040   -4.8930   26.8680 C   0  0  0  0  0  0  0  0  0  0  0  0
    6.1180   -5.8890   26.9480 C   0  0  0  0  0  0  0  0  0  0  0  0
    8.0300   -5.0730   28.1460 C   0  0  0  0  0  0  0  0  0  0  0  0
    6.1070   -5.0340   23.9580 C   0  0  0  0  0  0  0  0  0  0  0  0
    6.4270   -5.3700   22.6010 C   0  0  0  0  0  0  0  0  0  0  0  0
  1  2  1  0
  2  3  2  0
  2  4  1  0
  4  5  1  0
  5  6  1  0
  6  7  1  0
  7  8  1  0
  8  9  2  0
  8 10  1  0
 10 11  1  0
 10 12  1  0
 12 13  1  0
 12 14  1  0
  7 15  1  0
  4 16  1  0
 15 16  1  0
M  END
