VIR-GIT-7b3d3065-2-acrylamide
     RDKit          3D

 18 19  0  0  0  0  0  0  0  0999 V2000
    7.3200   -2.8990   18.5320 C   0  0  0  0  0  0  0  0  0  0  0  0
    6.4740   -2.6090   19.7350 C   0  0  0  0  0  0  0  0  0  0  0  0
    5.9970   -3.8650   20.4130 C   0  0  0  0  0  0  0  0  0  0  0  0
    5.1670   -4.6250   19.9050 O   0  0  0  0  0  0  0  0  0  0  0  0
    6.5800   -4.0920   21.6330 N   0  0  0  0  0  0  0  0  0  0  0  0
    7.4620   -3.1210   22.2830 C   0  0  0  0  0  0  0  0  0  0  0  0
    7.3680   -3.2070   23.6650 C   0  0  0  0  0  0  0  0  0  0  0  0
    6.5350   -4.1760   24.3580 C   0  0  0  0  0  0  0  0  0  0  0  0
    5.8340   -3.6170   25.4260 C   0  0  0  0  0  0  0  0  0  0  0  0
    4.7010   -3.1420   25.3640 O   0  0  0  0  0  0  0  0  0  0  0  0
    6.6970   -3.6920   26.6480 N   0  0  0  0  0  0  0  0  0  0  0  0
    5.9760   -3.1310   27.8830 C   0  0  0  0  0  0  0  0  0  0  0  0
    5.6520   -4.1150   29.0010 C   0  0  0  0  0  0  0  0  0  0  0  0
    6.7000   -5.0360   28.7480 C   0  0  0  0  0  0  0  0  0  0  0  0
    7.4660   -5.2620   27.9570 C   0  0  0  0  0  0  0  0  0  0  0  0
    7.7290   -4.8150   26.7120 C   0  0  0  0  0  0  0  0  0  0  0  0
    5.7150   -5.0040   23.5620 C   0  0  0  0  0  0  0  0  0  0  0  0
    6.3250   -5.3340   22.3600 C   0  0  0  0  0  0  0  0  0  0  0  0
  1  2  1  0
  2  3  1  0
  3  4  2  0
  3  5  1  0
  5  6  1  0
  6  7  1  0
  7  8  1  0
  8  9  1  0
  9 10  2  0
  9 11  1  0
 11 12  1  0
 12 13  1  0
 13 14  1  0
 14 15  1  0
 11 16  1  0
 15 16  1  0
  8 17  1  0
  5 18  1  0
 17 18  1  0
M  END
