VIT-UNK-2a0afa28-4
     RDKit          3D

 26 28  0  0  0  0  0  0  0  0999 V2000
    1.7470    2.1480   20.3200 O   0  0  0  0  0  0  0  0  0  0  0  0
    2.9520    2.1050   20.0770 C   0  0  0  0  0  0  0  0  0  0  0  0
    4.0320    2.5050   20.9780 N   0  0  0  0  0  0  0  0  0  0  0  0
    5.2780    2.0680   20.3350 C   0  0  0  0  0  0  0  0  0  0  0  0
    6.5650    2.2710   20.8040 O   0  0  0  0  0  0  0  0  0  0  0  0
    4.8950    1.3390   19.0250 C   0  0  1  0  0  0  0  0  0  0  0  0
    5.1740   -0.0060   19.3350 C   0  0  0  0  0  0  0  0  0  0  0  0
    6.0990   -0.6200   18.4730 C   0  0  0  0  0  0  0  0  0  0  0  0
    6.5400   -1.9790   18.7850 C   0  0  0  0  0  0  0  0  0  0  0  0
    5.9380   -2.5870   19.8930 C   0  0  1  0  0  0  0  0  0  0  0  0
    5.4420   -3.8460   19.6890 O   0  0  0  0  0  0  0  0  0  0  0  0
    6.8270   -2.6010   20.9680 C   0  0  2  0  0  0  0  0  0  0  0  0
    6.1580   -2.7700   22.2770 C   0  0  0  0  0  0  0  0  0  0  0  0
    7.2610   -3.0380   23.2230 C   0  0  0  0  0  0  0  0  0  0  0  0
    8.1700   -1.8660   23.2690 N   0  0  0  0  0  0  0  0  0  0  0  0
    9.3380   -2.0550   24.1430 C   0  0  0  0  0  0  0  0  0  0  0  0
   10.4000   -1.1330   23.8550 C   0  0  0  0  0  0  0  0  0  0  0  0
   11.6790   -1.4390   23.3420 C   0  0  0  0  0  0  0  0  0  0  0  0
   12.6760   -0.5140   23.0720 C   0  0  0  0  0  0  0  0  0  0  0  0
   12.5460    0.8380   23.2740 C   0  0  0  0  0  0  0  0  0  0  0  0
   11.2120    1.2910   23.8310 C   0  0  0  0  0  0  0  0  0  0  0  0
   11.0490    2.6230   24.0430 F   0  0  0  0  0  0  0  0  0  0  0  0
   10.2020    0.3940   24.1100 C   0  0  0  0  0  0  0  0  0  0  0  0
    8.5360   -1.2890   21.9520 C   0  0  0  0  0  0  0  0  0  0  0  0
    7.4060   -1.3490   21.0510 N   0  0  0  0  0  0  0  0  0  0  0  0
    3.5290    1.6650   18.9030 N   0  0  0  0  0  0  0  0  0  0  0  0
  1  2  2  0
  2  3  1  0
  3  4  1  0
  4  5  2  0
  4  6  1  0
  6  7  1  1
  7  8  1  0
  8  9  1  0
  9 10  1  0
 10 11  1  6
 10 12  1  0
 12 13  1  1
 13 14  1  0
 14 15  1  0
 15 16  1  0
 16 17  1  0
 17 18  2  0
 18 19  1  0
 19 20  2  0
 20 21  1  0
 21 22  1  0
 17 23  1  0
 21 23  2  0
 15 24  1  0
 12 25  1  0
 24 25  1  0
  2 26  1  0
  6 26  1  0
M  END
