VIT-UNK-525497ca-8
     RDKit          3D

 33 36  0  0  0  0  0  0  0  0999 V2000
    1.2820   -6.7470   22.7220 O   0  0  0  0  0  0  0  0  0  0  0  0
    2.6150   -6.5540   23.1960 C   0  0  0  0  0  0  0  0  0  0  0  0
    3.4260   -7.4620   23.7490 N   0  0  0  0  0  0  0  0  0  0  0  0
    4.2940   -6.7290   24.4810 C   0  0  0  0  0  0  0  0  0  0  0  0
    4.6370   -6.9710   25.6250 O   0  0  0  0  0  0  0  0  0  0  0  0
    4.6930   -5.6400   23.6770 C   0  0  1  0  0  0  0  0  0  0  0  0
    5.5110   -6.0010   22.6020 C   0  0  0  0  0  0  0  0  0  0  0  0
    6.2840   -5.1360   21.8360 C   0  0  0  0  0  0  0  0  0  0  0  0
    5.6760   -4.1820   21.0170 C   0  0  0  0  0  0  0  0  0  0  0  0
    6.3320   -2.9260   20.7210 C   0  0  2  0  0  0  0  0  0  0  0  0
    7.7350   -3.1420   20.8140 O   0  0  0  0  0  0  0  0  0  0  0  0
    5.9960   -1.7970   21.4720 C   0  0  1  0  0  0  0  0  0  0  0  0
    5.6700   -1.9870   22.8170 C   0  0  0  0  0  0  0  0  0  0  0  0
    6.7820   -1.7130   23.7240 N   0  0  0  0  0  0  0  0  0  0  0  0
    8.1000   -1.9260   23.1160 C   0  0  2  0  0  0  0  0  0  0  0  0
    9.2260   -1.7850   24.1540 C   0  0  0  0  0  0  0  0  0  0  0  0
   10.3670   -0.8550   23.7630 C   0  0  0  0  0  0  0  0  0  0  0  0
   11.5010   -1.4150   23.2060 C   0  0  0  0  0  0  0  0  0  0  0  0
   12.5850   -0.6480   22.8210 C   0  0  0  0  0  0  0  0  0  0  0  0
   13.6410   -1.3030   22.2780 O   0  0  0  0  0  0  0  0  0  0  0  0
   12.5750    0.7290   22.9860 C   0  0  0  0  0  0  0  0  0  0  0  0
   11.4740    1.3540   23.5350 C   0  0  0  0  0  0  0  0  0  0  0  0
   11.4890    2.7090   23.6790 O   0  0  0  0  0  0  0  0  0  0  0  0
   10.2990    0.5260   23.9530 C   0  0  0  0  0  0  0  0  0  0  0  0
    8.2510   -1.0300   21.8710 C   0  0  0  0  0  0  0  0  0  0  0  0
    6.9740   -0.5840   21.3470 C   0  0  1  0  0  0  0  0  0  0  0  0
    6.8220    0.0370   20.1260 C   0  0  0  0  0  0  0  0  0  0  0  0
    5.4810    0.7650   19.9440 C   0  0  1  0  0  0  0  0  0  0  0  0
    5.3790    2.0820   20.7070 C   0  0  0  0  0  0  0  0  0  0  0  0
    4.3480    2.7780   20.0780 C   0  0  0  0  0  0  0  0  0  0  0  0
    4.3420    2.3610   18.6740 N   0  0  0  0  0  0  0  0  0  0  0  0
    5.2240    1.2030   18.5070 C   0  0  0  0  0  0  0  0  0  0  0  0
    3.3410   -5.3880   23.1850 N   0  0  0  0  0  0  0  0  0  0  0  0
  1  2  2  0
  2  3  1  0
  3  4  1  0
  4  5  2  0
  4  6  1  0
  6  7  1  6
  7  8  1  0
  8  9  1  0
  9 10  1  0
 10 11  1  1
 10 12  1  0
 12 13  1  1
 13 14  1  0
 14 15  1  0
 15 16  1  1
 16 17  1  0
 17 18  2  0
 18 19  1  0
 19 20  1  0
 19 21  2  0
 21 22  1  0
 22 23  1  0
 17 24  1  0
 22 24  2  0
 15 25  1  0
 12 26  1  0
 25 26  1  0
 26 27  1  6
 28 27  1  6
 28 29  1  0
 29 30  1  0
 30 31  1  0
 28 32  1  0
 31 32  1  0
  2 33  1  0
  6 33  1  0
M  END
