VIT-UNK-026187e6-5
     RDKit          3D

 21 22  0  0  0  0  0  0  0  0999 V2000
    8.6700    6.3530   29.1680 C   0  0  0  0  0  0  0  0  0  0  0  0
    8.8190    4.8470   28.9560 C   0  0  0  0  0  0  0  0  0  0  0  0
    9.9740    4.3920   29.5910 C   0  0  0  0  0  0  0  0  0  0  0  0
    7.9370    4.0990   29.3820 O   0  0  0  0  0  0  0  0  0  0  0  0
    8.9590    4.5740   27.4640 C   0  0  2  0  0  0  0  0  0  0  0  0
    9.7990    5.3630   26.6950 C   0  0  0  0  0  0  0  0  0  0  0  0
   10.1200    4.7310   25.4550 O   0  0  0  0  0  0  0  0  0  0  0  0
    8.9970    4.1940   24.7390 C   0  0  1  0  0  0  0  0  0  0  0  0
    9.2980    2.7040   24.4940 C   0  0  0  0  0  0  0  0  0  0  0  0
   10.5600    2.3590   23.9520 C   0  0  0  0  0  0  0  0  0  0  0  0
   10.9100    1.0250   23.6770 C   0  0  0  0  0  0  0  0  0  0  0  0
   12.1730    0.7380   23.1480 C   0  0  0  0  0  0  0  0  0  0  0  0
   12.5470   -0.5790   22.8540 C   0  0  0  0  0  0  0  0  0  0  0  0
   13.7530   -0.8430   22.3380 O   0  0  0  0  0  0  0  0  0  0  0  0
   11.6980   -1.6500   23.0780 C   0  0  0  0  0  0  0  0  0  0  0  0
   10.3330   -1.3260   23.6540 C   0  0  0  0  0  0  0  0  0  0  0  0
    9.4570   -2.4420   23.8830 O   0  0  0  0  0  0  0  0  0  0  0  0
    9.9940   -0.0060   23.9250 C   0  0  0  0  0  0  0  0  0  0  0  0
    7.7660    4.6660   25.2330 C   0  0  1  0  0  0  0  0  0  0  0  0
    6.7530    3.9920   24.6130 F   0  0  0  0  0  0  0  0  0  0  0  0
    7.6120    4.4690   26.7250 C   0  0  0  0  0  0  0  0  0  0  0  0
  1  2  1  0
  2  3  1  0
  2  4  1  0
  5  2  1  1
  5  6  1  0
  6  7  1  0
  7  8  1  0
  8  9  1  1
  9 10  2  3
 10 11  1  0
 11 12  2  0
 12 13  1  0
 13 14  1  0
 13 15  2  0
 15 16  1  0
 16 17  1  0
 11 18  1  0
 16 18  2  0
  8 19  1  0
 19 20  1  6
  5 21  1  0
 19 21  1  0
M  END
