VIT-UNK-525497ca-6
     RDKit          3D

 25 26  0  0  0  0  0  0  0  0999 V2000
    7.7080   -6.3320   24.2780 N   0  0  0  0  0  0  0  0  0  0  0  0
    7.1590   -7.1720   23.2440 C   0  0  0  0  0  0  0  0  0  0  0  0
    7.3350   -8.3670   23.0800 O   0  0  0  0  0  0  0  0  0  0  0  0
    6.2560   -6.4920   22.2560 C   0  0  0  0  0  0  0  0  0  0  0  0
    6.6250   -5.3350   21.5320 C   0  0  0  0  0  0  0  0  0  0  0  0
    5.6520   -4.8870   20.6650 C   0  0  0  0  0  0  0  0  0  0  0  0
    5.4640   -3.6300   20.0720 C   0  0  0  0  0  0  0  0  0  0  0  0
    6.2480   -2.5130   20.0700 C   0  0  2  0  0  0  0  0  0  0  0  0
    6.9930   -2.3520   18.8600 O   0  0  0  0  0  0  0  0  0  0  0  0
    7.0140   -2.3080   21.2320 C   0  0  1  0  0  0  0  0  0  0  0  0
    7.7730   -1.1500   21.2600 C   0  0  0  0  0  0  0  0  0  0  0  0
    8.6590   -1.1950   22.3550 O   0  0  0  0  0  0  0  0  0  0  0  0
    8.6780   -2.4720   22.9940 C   0  0  1  0  0  0  0  0  0  0  0  0
    9.6500   -2.4220   24.0650 N   0  0  0  0  0  0  0  0  0  0  0  0
   10.5790   -1.3460   23.7810 C   0  0  0  0  0  0  0  0  0  0  0  0
   10.2270    0.0590   24.2250 C   0  0  0  0  0  0  0  0  0  0  0  0
   11.2010    1.1670   23.8940 C   0  0  0  0  0  0  0  0  0  0  0  0
   10.9810    2.4660   24.2330 O   0  0  0  0  0  0  0  0  0  0  0  0
   12.3580    0.8210   23.2080 C   0  0  0  0  0  0  0  0  0  0  0  0
   12.6270   -0.4930   22.8270 C   0  0  0  0  0  0  0  0  0  0  0  0
   13.7690   -0.7060   22.1590 O   0  0  0  0  0  0  0  0  0  0  0  0
   11.7760   -1.5410   23.1020 C   0  0  0  0  0  0  0  0  0  0  0  0
    7.2990   -2.9020   23.5160 C   0  0  1  0  0  0  0  0  0  0  0  0
    6.9780   -2.1520   24.6120 F   0  0  0  0  0  0  0  0  0  0  0  0
    6.3150   -2.5820   22.4260 C   0  0  0  0  0  0  0  0  0  0  0  0
  1  2  1  0
  2  3  2  0
  2  4  1  0
  4  5  2  3
  5  6  1  0
  6  7  1  0
  7  8  1  0
  8  9  1  6
  8 10  1  0
 10 11  1  1
 11 12  1  0
 12 13  1  0
 13 14  1  1
 14 15  1  0
 15 16  2  0
 16 17  1  0
 17 18  1  0
 17 19  2  0
 19 20  1  0
 20 21  1  0
 15 22  1  0
 20 22  2  0
 13 23  1  0
 23 24  1  1
 10 25  1  0
 23 25  1  0
M  END
