VIT-UNK-6e6e7b8a-3
     RDKit          3D

 26 29  0  0  0  0  0  0  0  0999 V2000
   13.3800   -2.5730   21.9090 O   0  0  0  0  0  0  0  0  0  0  0  0
   12.5250   -1.6000   22.3000 C   0  0  0  0  0  0  0  0  0  0  0  0
   12.9790   -0.3160   22.5250 C   0  0  0  0  0  0  0  0  0  0  0  0
   12.1030    0.6780   22.9170 C   0  0  0  0  0  0  0  0  0  0  0  0
   10.7540    0.3940   23.0930 C   0  0  0  0  0  0  0  0  0  0  0  0
   10.2680   -0.9060   22.8780 C   0  0  0  0  0  0  0  0  0  0  0  0
    8.8050   -1.1590   23.0980 C   0  0  0  0  0  0  0  0  0  0  0  0
    8.1080   -1.8720   22.1130 C   0  0  2  0  0  0  0  0  0  0  0  0
    7.8080   -0.8910   21.0490 N   0  0  0  0  0  0  0  0  0  0  0  0
    6.6650   -0.0380   21.3540 C   0  0  0  0  0  0  0  0  0  0  0  0
    5.4910   -0.7860   21.1570 C   0  0  1  0  0  0  0  0  0  0  0  0
    5.6000   -1.2780   19.6630 C   0  0  1  0  0  0  0  0  0  0  0  0
    4.7670   -2.1270   19.2870 O   0  0  0  0  0  0  0  0  0  0  0  0
    5.2510   -0.0940   18.6880 C   0  0  0  0  0  0  0  0  0  0  0  0
    4.6830    0.8700   19.4790 F   0  0  0  0  0  0  0  0  0  0  0  0
    5.5640   -1.8700   22.2800 C   0  0  0  0  0  0  0  0  0  0  0  0
    4.3310   -2.4140   22.9710 C   0  0  0  0  0  0  0  0  0  0  0  0
    4.3870   -3.3650   23.9770 C   0  0  0  0  0  0  0  0  0  0  0  0
    5.6280   -3.7630   24.2690 C   0  0  0  0  0  0  0  0  0  0  0  0
    6.8340   -3.4630   23.8150 C   0  0  0  0  0  0  0  0  0  0  0  0
    6.8220   -2.4270   22.7550 C   0  0  0  0  0  0  0  0  0  0  0  0
    8.0660   -4.0450   24.2320 C   0  0  0  0  0  0  0  0  0  0  0  0
    8.0590   -4.4080   22.7990 C   0  0  0  0  0  0  0  0  0  0  0  0
    6.8000   -3.7590   22.2120 N   0  0  0  0  0  0  0  0  0  0  0  0
    5.9360   -2.8690   23.1440 C   0  0  0  0  0  0  0  0  0  0  0  0
   11.1760   -1.9060   22.4730 C   0  0  0  0  0  0  0  0  0  0  0  0
  1  2  1  0
  2  3  2  0
  3  4  1  0
  4  5  2  0
  5  6  1  0
  6  7  1  0
  8  7  1  1
  8  9  1  0
  9 10  1  0
 11 10  1  1
 11 12  1  0
 12 13  1  1
 12 14  1  0
 14 15  1  0
 11 16  1  0
 16 17  2  0
 17 18  1  0
 18 19  2  0
 19 20  1  0
  8 21  1  0
 16 21  1  0
 20 21  2  0
 20 22  1  0
 22 23  1  0
 23 24  1  0
 19 25  1  0
 24 25  1  0
  2 26  1  0
  6 26  2  0
M  END
