VIT-UNK-2a0afa28-1
     RDKit          3D

 26 28  0  0  0  0  0  0  0  0999 V2000
    1.9240    2.1340   20.3660 O   0  0  0  0  0  0  0  0  0  0  0  0
    3.1050    2.0800   20.0250 C   0  0  0  0  0  0  0  0  0  0  0  0
    4.2740    2.2790   20.8770 N   0  0  0  0  0  0  0  0  0  0  0  0
    5.4280    1.8690   20.0670 C   0  0  0  0  0  0  0  0  0  0  0  0
    6.7650    1.9450   20.4240 O   0  0  0  0  0  0  0  0  0  0  0  0
    4.8820    1.3380   18.7200 C   0  0  1  0  0  0  0  0  0  0  0  0
    5.0100   -0.0540   18.8430 C   0  0  0  0  0  0  0  0  0  0  0  0
    6.3210   -0.5110   18.9760 C   0  0  0  0  0  0  0  0  0  0  0  0
    6.5620   -1.9430   18.7990 C   0  0  0  0  0  0  0  0  0  0  0  0
    6.1400   -2.7910   19.8390 C   0  0  0  0  0  0  0  0  0  0  0  0
    5.4610   -3.9760   19.7040 O   0  0  0  0  0  0  0  0  0  0  0  0
    6.5920   -2.1740   21.1310 N   0  0  0  0  0  0  0  0  0  0  0  0
    6.2950   -2.9390   22.3510 C   0  0  0  0  0  0  0  0  0  0  0  0
    7.5580   -3.3000   23.0490 C   0  0  0  0  0  0  0  0  0  0  0  0
    8.3770   -2.1030   23.2080 N   0  0  0  0  0  0  0  0  0  0  0  0
    9.5240   -2.1210   24.1360 C   0  0  0  0  0  0  0  0  0  0  0  0
   10.5860   -1.6900   23.7460 C   0  0  0  0  0  0  0  0  0  0  0  0
   11.9220   -1.6380   23.1870 C   0  0  0  0  0  0  0  0  0  0  0  0
   12.7370   -0.5420   22.9930 C   0  0  0  0  0  0  0  0  0  0  0  0
   12.3970    0.7290   23.3150 C   0  0  0  0  0  0  0  0  0  0  0  0
   11.1870    1.0170   23.8720 C   0  0  0  0  0  0  0  0  0  0  0  0
   10.8420    2.2700   24.1930 F   0  0  0  0  0  0  0  0  0  0  0  0
   10.2440   -0.1760   24.1070 C   0  0  0  0  0  0  0  0  0  0  0  0
    8.7630   -1.6450   21.8770 C   0  0  0  0  0  0  0  0  0  0  0  0
    7.6830   -1.1710   21.1350 C   0  0  0  0  0  0  0  0  0  0  0  0
    3.5670    1.8190   18.7550 N   0  0  0  0  0  0  0  0  0  0  0  0
  1  2  2  0
  2  3  1  0
  3  4  1  0
  4  5  2  0
  4  6  1  0
  6  7  1  1
  7  8  1  0
  8  9  1  0
  9 10  1  0
 10 11  2  0
 10 12  1  0
 12 13  1  0
 13 14  1  0
 14 15  1  0
 15 16  1  0
 16 17  1  0
 17 18  2  0
 18 19  1  0
 19 20  2  0
 20 21  1  0
 21 22  1  0
 17 23  1  0
 21 23  2  0
 15 24  1  0
 12 25  1  0
 24 25  1  0
  2 26  1  0
  6 26  1  0
M  END
