VIT-UNK-026187e6-6
     RDKit          3D

 19 20  0  0  0  0  0  0  0  0999 V2000
    7.0700    0.2020   18.7530 C   0  0  0  0  0  0  0  0  0  0  0  0
    7.1890    0.6320   20.2200 C   0  0  0  0  0  0  0  0  0  0  0  0
    6.0520    1.3710   20.5530 C   0  0  0  0  0  0  0  0  0  0  0  0
    8.1270    1.3560   20.6210 O   0  0  0  0  0  0  0  0  0  0  0  0
    7.2030   -0.6280   21.0810 C   0  0  0  0  0  0  0  0  0  0  0  0
    8.2400   -0.9560   21.9470 C   0  0  0  0  0  0  0  0  0  0  0  0
    8.2210   -2.0630   22.7270 N   0  0  0  0  0  0  0  0  0  0  0  0
    7.1170   -2.8430   22.6100 C   0  0  0  0  0  0  0  0  0  0  0  0
    6.9260   -3.9710   23.3200 N   0  0  0  0  0  0  0  0  0  0  0  0
    7.8380   -4.5800   24.1490 C   0  0  0  0  0  0  0  0  0  0  0  0
    8.0450   -5.9190   23.9080 C   0  0  0  0  0  0  0  0  0  0  0  0
    8.9200   -6.6230   24.6800 C   0  0  0  0  0  0  0  0  0  0  0  0
    9.0620   -7.7750   24.4340 O   0  0  0  0  0  0  0  0  0  0  0  0
    9.6150   -6.0110   25.7140 C   0  0  0  0  0  0  0  0  0  0  0  0
    9.4200   -4.6660   25.9570 C   0  0  0  0  0  0  0  0  0  0  0  0
   10.0780   -4.0320   26.9480 O   0  0  0  0  0  0  0  0  0  0  0  0
    8.5350   -3.9450   25.1790 C   0  0  0  0  0  0  0  0  0  0  0  0
    6.1000   -2.5150   21.7380 C   0  0  0  0  0  0  0  0  0  0  0  0
    6.1160   -1.4310   20.9690 N   0  0  0  0  0  0  0  0  0  0  0  0
  1  2  1  0
  2  3  1  0
  2  4  1  0
  2  5  1  0
  5  6  2  0
  6  7  1  0
  7  8  2  0
  8  9  1  0
  9 10  1  0
 10 11  2  0
 11 12  1  0
 12 13  1  0
 12 14  2  0
 14 15  1  0
 15 16  1  0
 10 17  1  0
 15 17  2  0
  8 18  1  0
  5 19  1  0
 18 19  2  0
M  END
