VIT-UNK-6e6e7b8a-1
     RDKit          3D

 25 27  0  0  0  0  0  0  0  0999 V2000
   11.6750    2.2200   23.5480 O   0  0  0  0  0  0  0  0  0  0  0  0
   11.6700    1.0040   23.4570 C   0  0  0  0  0  0  0  0  0  0  0  0
   12.8610    0.3460   22.8100 C   0  0  0  0  0  0  0  0  0  0  0  0
   12.8160   -1.0400   22.7080 C   0  0  0  0  0  0  0  0  0  0  0  0
   13.7340   -1.6220   22.1880 O   0  0  0  0  0  0  0  0  0  0  0  0
   11.7390   -1.7610   23.1900 C   0  0  0  0  0  0  0  0  0  0  0  0
   10.6530   -1.1560   23.7890 C   0  0  0  0  0  0  0  0  0  0  0  0
    9.6390   -1.9660   24.2370 C   0  0  0  0  0  0  0  0  0  0  0  0
    8.5380   -2.0700   23.4170 C   0  0  1  0  0  0  0  0  0  0  0  0
    8.7470   -2.0390   22.0390 C   0  0  0  0  0  0  0  0  0  0  0  0
    7.6520   -2.1750   21.2040 C   0  0  2  0  0  0  0  0  0  0  0  0
    6.9180   -0.9960   21.0090 C   0  0  0  0  0  0  0  0  0  0  0  0
    7.3520    0.1290   21.7120 C   0  0  2  0  0  0  0  0  0  0  0  0
    6.6150    0.3420   22.9880 C   0  0  0  0  0  0  0  0  0  0  0  0
    5.4640    1.2180   22.7300 C   0  0  0  0  0  0  0  0  0  0  0  0
    5.5380    1.7620   21.4650 N   0  0  0  0  0  0  0  0  0  0  0  0
    6.8970    1.3820   20.9030 C   0  0  0  0  0  0  0  0  0  0  0  0
    6.8630   -3.3380   21.4420 C   0  0  2  0  0  0  0  0  0  0  0  0
    5.7410   -3.4830   20.6580 C   0  0  1  0  0  0  0  0  0  0  0  0
    4.7920   -3.6120   21.4340 O   0  0  0  0  0  0  0  0  0  0  0  0
    5.3550   -2.5960   19.6640 C   0  0  0  0  0  0  0  0  0  0  0  0
    6.4270   -2.3240   18.8630 F   0  0  0  0  0  0  0  0  0  0  0  0
    6.5540   -3.4680   22.9400 C   0  0  0  0  0  0  0  0  0  0  0  0
    7.7250   -3.2420   23.7730 N   0  0  0  0  0  0  0  0  0  0  0  0
   10.6130    0.2350   23.9250 C   0  0  0  0  0  0  0  0  0  0  0  0
  1  2  1  0
  2  3  2  0
  3  4  1  0
  4  5  1  0
  4  6  2  0
  6  7  1  0
  7  8  1  0
  9  8  1  1
  9 10  1  0
 10 11  1  0
 11 12  1  1
 13 12  1  6
 13 14  1  0
 14 15  1  0
 15 16  1  0
 13 17  1  0
 16 17  1  0
 11 18  1  0
 18 19  1  0
 19 20  1  1
 19 21  1  0
 21 22  1  0
 18 23  1  1
  9 24  1  0
 23 24  1  0
  2 25  1  0
  7 25  2  0
M  END
