VIT-UNK-b055a17e-1
     RDKit          3D

 19 20  0  0  0  0  0  0  0  0999 V2000
    1.5110   -2.3360   28.1430 C   0  0  0  0  0  0  0  0  0  0  0  0
    2.9350   -2.2200   28.2180 O   0  0  0  0  0  0  0  0  0  0  0  0
    3.6130   -2.8760   27.2300 C   0  0  1  0  0  0  0  0  0  0  0  0
    2.7630   -3.4760   26.0900 C   0  0  0  0  0  0  0  0  0  0  0  0
    3.6780   -4.0620   24.9920 C   0  0  0  0  0  0  0  0  0  0  0  0
    4.5590   -2.9180   24.5670 C   0  0  2  0  0  0  0  0  0  0  0  0
    5.3320   -3.4320   23.3460 C   0  0  1  0  0  0  0  0  0  0  0  0
    6.6560   -2.6670   23.3350 C   0  0  0  0  0  0  0  0  0  0  0  0
    7.5410   -3.1330   22.1900 C   0  0  0  0  0  0  0  0  0  0  0  0
    6.8300   -4.1760   21.4290 N   0  0  0  0  0  0  0  0  0  0  0  0
    5.9970   -3.7170   20.3530 C   0  0  0  0  0  0  0  0  0  0  0  0
    5.4700   -2.4730   20.1530 C   0  0  0  0  0  0  0  0  0  0  0  0
    6.6810   -2.7640   19.3890 C   0  0  0  0  0  0  0  0  0  0  0  0
    5.3180   -4.6680   19.6850 O   0  0  0  0  0  0  0  0  0  0  0  0
    6.3840   -5.2560   22.2130 C   0  0  0  0  0  0  0  0  0  0  0  0
    5.5570   -4.8170   23.3410 N   0  0  0  0  0  0  0  0  0  0  0  0
    5.4210   -2.3920   25.7310 C   0  0  0  0  0  0  0  0  0  0  0  0
    4.7310   -2.0880   26.8900 C   0  0  2  0  0  0  0  0  0  0  0  0
    5.6900   -2.1600   27.9530 O   0  0  0  0  0  0  0  0  0  0  0  0
  1  2  1  0
  3  2  1  6
  3  4  1  0
  4  5  1  0
  6  5  1  1
  6  7  1  0
  7  8  1  1
  8  9  1  0
  9 10  1  0
 10 11  1  0
 11 12  1  0
 11 13  1  0
 11 14  1  0
 10 15  1  0
  7 16  1  0
 15 16  1  0
  6 17  1  0
  3 18  1  0
 17 18  1  0
 18 19  1  1
M  END
