VIT-UNK-cff011c0-1
     RDKit          3D

 27 29  0  0  0  0  0  0  0  0999 V2000
    4.1640    3.0620   23.3630 O   0  0  0  0  0  0  0  0  0  0  0  0
    4.2150    2.6720   22.2000 C   0  0  0  0  0  0  0  0  0  0  0  0
    3.5030    3.2350   21.0590 N   0  0  0  0  0  0  0  0  0  0  0  0
    4.1660    2.6740   19.8750 C   0  0  0  0  0  0  0  0  0  0  0  0
    3.8660    2.9190   18.5590 O   0  0  0  0  0  0  0  0  0  0  0  0
    5.2860    1.7310   20.3650 C   0  0  2  0  0  0  0  0  0  0  0  0
    5.0560    0.5950   19.5710 C   0  0  0  0  0  0  0  0  0  0  0  0
    6.0620   -0.3770   19.6320 C   0  0  0  0  0  0  0  0  0  0  0  0
    5.7120   -1.7140   19.1730 C   0  0  1  0  0  0  0  0  0  0  0  0
    6.2800   -1.9800   17.5260 Cl  0  0  0  0  0  0  0  0  0  0  0  0
    5.9420   -2.8650   19.9310 C   0  0  0  0  0  0  0  0  0  0  0  0
    5.4540   -4.1100   19.6440 O   0  0  0  0  0  0  0  0  0  0  0  0
    6.8370   -2.5380   21.0900 N   0  0  0  0  0  0  0  0  0  0  0  0
    6.3720   -2.9840   22.3960 C   0  0  0  0  0  0  0  0  0  0  0  0
    7.5860   -3.3010   23.1800 C   0  0  0  0  0  0  0  0  0  0  0  0
    8.4150   -2.0920   23.2530 N   0  0  0  0  0  0  0  0  0  0  0  0
    9.5520   -2.0810   24.1850 C   0  0  0  0  0  0  0  0  0  0  0  0
   10.6110   -1.6640   23.7760 C   0  0  0  0  0  0  0  0  0  0  0  0
   11.9400   -1.6280   23.2020 C   0  0  0  0  0  0  0  0  0  0  0  0
   12.7550   -0.5300   22.9820 C   0  0  0  0  0  0  0  0  0  0  0  0
   12.4160    0.7490   23.2880 C   0  0  0  0  0  0  0  0  0  0  0  0
   11.2160    1.0560   23.8500 C   0  0  0  0  0  0  0  0  0  0  0  0
   10.8660    2.3100   24.1560 F   0  0  0  0  0  0  0  0  0  0  0  0
   10.2940   -0.1450   24.1040 C   0  0  0  0  0  0  0  0  0  0  0  0
    8.8180   -1.6380   21.9100 C   0  0  0  0  0  0  0  0  0  0  0  0
    7.7360   -1.3750   21.0630 C   0  0  0  0  0  0  0  0  0  0  0  0
    4.9660    1.6110   21.7330 N   0  0  0  0  0  0  0  0  0  0  0  0
  1  2  2  0
  2  3  1  0
  3  4  1  0
  4  5  2  0
  4  6  1  0
  6  7  1  6
  7  8  1  0
  9  8  1  1
  9 10  1  0
  9 11  1  0
 11 12  2  0
 11 13  1  0
 13 14  1  0
 14 15  1  0
 15 16  1  0
 16 17  1  0
 17 18  1  0
 18 19  2  0
 19 20  1  0
 20 21  2  0
 21 22  1  0
 22 23  1  0
 18 24  1  0
 22 24  2  0
 16 25  1  0
 13 26  1  0
 25 26  1  0
  2 27  1  0
  6 27  1  0
M  END
