WAR-XCH-e55cba98-7-vinylsulfonamide
     RDKit          3D

 26 28  0  0  0  0  0  0  0  0999 V2000
    6.2390   -5.3960   20.3230 C   0  0  0  0  0  0  0  0  0  0  0  0
    6.4910   -5.4450   21.8230 C   0  0  0  0  0  0  0  0  0  0  0  0
    5.6770   -4.0500   22.5470 S   0  0  0  0  0  0  0  0  0  0  0  0
    4.9460   -3.4030   21.4820 O   0  0  0  0  0  0  0  0  0  0  0  0
    5.0150   -4.5080   23.7540 O   0  0  0  0  0  0  0  0  0  0  0  0
    6.8760   -2.9530   23.0330 N   0  0  0  0  0  0  0  0  0  0  0  0
    7.5730   -2.1420   22.0190 C   0  0  0  0  0  0  0  0  0  0  0  0
    8.9530   -2.2420   21.8390 C   0  0  0  0  0  0  0  0  0  0  0  0
    9.6220   -2.7140   22.9470 C   0  0  0  0  0  0  0  0  0  0  0  0
   10.0570   -1.7780   23.8440 N   0  0  0  0  0  0  0  0  0  0  0  0
   10.6590   -0.5770   23.2850 C   0  0  0  0  0  0  0  0  0  0  0  0
    9.6030    0.2900   22.9260 C   0  0  0  0  0  0  0  0  0  0  0  0
    8.1190   -0.0410   23.2680 C   0  0  0  0  0  0  0  0  0  0  0  0
    7.0950    0.5920   22.2630 C   0  0  0  0  0  0  0  0  0  0  0  0
    5.9590   -0.0620   21.4790 C   0  0  0  0  0  0  0  0  0  0  0  0
    5.3890    0.9330   20.7580 N   0  0  0  0  0  0  0  0  0  0  0  0
    4.3220    0.7170   19.9170 C   0  0  0  0  0  0  0  0  0  0  0  0
    6.0590    2.0850   21.0380 C   0  0  0  0  0  0  0  0  0  0  0  0
    7.1150    1.9690   21.9480 N   0  0  0  0  0  0  0  0  0  0  0  0
   11.6140   -0.8020   22.2910 C   0  0  0  0  0  0  0  0  0  0  0  0
   12.8360   -1.6310   22.6390 C   0  0  0  0  0  0  0  0  0  0  0  0
   12.8820   -1.6940   24.0110 C   0  0  0  0  0  0  0  0  0  0  0  0
   12.6790   -0.4350   24.5430 C   0  0  0  0  0  0  0  0  0  0  0  0
   11.3570   -0.0030   24.5170 C   0  0  0  0  0  0  0  0  0  0  0  0
    8.9250   -3.7640   23.5100 C   0  0  0  0  0  0  0  0  0  0  0  0
    7.7060   -3.4930   24.0850 C   0  0  0  0  0  0  0  0  0  0  0  0
  1  2  1  0
  3  2  1  0
  3  4  2  0
  3  5  2  0
  3  6  1  0
  6  7  1  0
  7  8  1  0
  8  9  1  0
  9 10  1  0
 10 11  1  0
 11 12  1  0
 12 13  3  0
 13 14  1  0
 14 15  2  0
 15 16  1  0
 16 17  1  0
 16 18  1  0
 14 19  1  0
 18 19  2  0
 11 20  1  0
 20 21  1  0
 21 22  1  0
 22 23  1  0
 11 24  1  0
 23 24  1  0
  9 25  1  0
  6 26  1  0
 25 26  1  0
M  END
