WAR-XCH-79d12f6e-12
     RDKit          3D

 23 26  0  0  0  0  0  0  0  0999 V2000
    4.4950    2.8840   19.0230 C   0  0  0  0  0  0  0  0  0  0  0  0
    5.0550    1.5940   19.4780 C   0  0  0  0  0  0  0  0  0  0  0  0
    4.7160    0.3310   18.6370 C   0  0  0  0  0  0  0  0  0  0  0  0
    5.3100   -0.9720   19.2020 C   0  0  0  0  0  0  0  0  0  0  0  0
    5.2600   -2.2660   18.8270 N   0  0  0  0  0  0  0  0  0  0  0  0
    5.9580   -2.8660   19.7800 C   0  0  0  0  0  0  0  0  0  0  0  0
    6.5240   -1.9710   20.8040 N   0  0  0  0  0  0  0  0  0  0  0  0
    7.2480   -2.5650   21.8130 C   0  0  0  0  0  0  0  0  0  0  0  0
    6.2220   -3.1290   22.7780 C   0  0  0  0  0  0  0  0  0  0  0  0
    5.6490   -2.0140   23.5730 C   0  0  0  0  0  0  0  0  0  0  0  0
    4.6130   -2.4700   24.5310 C   0  0  0  0  0  0  0  0  0  0  0  0
    4.2000   -3.8010   24.6900 C   0  0  0  0  0  0  0  0  0  0  0  0
    4.7550   -4.8460   23.9300 N   0  0  0  0  0  0  0  0  0  0  0  0
    5.7970   -4.4340   22.9560 C   0  0  0  0  0  0  0  0  0  0  0  0
    7.9700   -3.6030   21.2340 C   0  0  0  0  0  0  0  0  0  0  0  0
    8.8050   -4.2600   22.1640 C   0  0  0  0  0  0  0  0  0  0  0  0
    9.5200   -3.4200   23.0030 C   0  0  0  0  0  0  0  0  0  0  0  0
    9.5680   -2.1310   22.4880 C   0  0  0  0  0  0  0  0  0  0  0  0
    8.2820   -1.5780   22.4400 C   0  0  0  0  0  0  0  0  0  0  0  0
    6.1220   -0.7380   20.4690 C   0  0  0  0  0  0  0  0  0  0  0  0
    6.3860    0.4420   21.1430 C   0  0  0  0  0  0  0  0  0  0  0  0
    5.8470    1.6260   20.6460 C   0  0  0  0  0  0  0  0  0  0  0  0
    6.1320    2.9330   21.3990 C   0  0  0  0  0  0  0  0  0  0  0  0
  1  2  1  0
  2  3  2  0
  3  4  1  0
  4  5  1  0
  5  6  2  0
  6  7  1  0
  7  8  1  0
  8  9  1  0
  9 10  2  0
 10 11  1  0
 11 12  2  0
 12 13  1  0
  9 14  1  0
 13 14  2  0
  8 15  1  0
 15 16  1  0
 16 17  1  0
 17 18  1  0
  8 19  1  0
 18 19  1  0
  4 20  2  0
  7 20  1  0
 20 21  1  0
  2 22  1  0
 21 22  2  0
 22 23  1  0
M  END
