WAR-XCH-b0339bbe-10
     RDKit          3D

 24 26  0  0  0  0  0  0  0  0999 V2000
   10.1810   -1.2660   23.1590 O   0  0  0  0  0  0  0  0  0  0  0  0
    9.7470   -1.5300   24.2760 C   0  0  0  0  0  0  0  0  0  0  0  0
   10.4790   -2.2910   25.1220 O   0  0  0  0  0  0  0  0  0  0  0  0
    8.4270   -1.0280   24.8020 C   0  0  0  0  0  0  0  0  0  0  0  0
    8.1270    0.2600   24.5960 N   0  0  0  0  0  0  0  0  0  0  0  0
    6.8260    0.5660   25.1850 C   0  0  0  0  0  0  0  0  0  0  0  0
    5.9450    2.0110   25.2460 Cl  0  0  0  0  0  0  0  0  0  0  0  0
    6.3750   -0.5880   25.7330 N   0  0  0  0  0  0  0  0  0  0  0  0
    7.3400   -1.6130   25.5200 C   0  0  0  0  0  0  0  0  0  0  0  0
    7.0510   -3.0090   26.0630 C   0  0  0  0  0  0  0  0  0  0  0  0
    5.7590   -3.1920   25.2410 C   0  0  0  0  0  0  0  0  0  0  0  0
    6.2890   -4.1310   24.1190 C   0  0  0  0  0  0  0  0  0  0  0  0
    6.8590   -5.2980   24.8870 C   0  0  0  0  0  0  0  0  0  0  0  0
    6.4040   -5.6120   26.2880 C   0  0  0  0  0  0  0  0  0  0  0  0
    7.3840   -5.7710   27.2620 C   0  0  0  0  0  0  0  0  0  0  0  0
    7.4590   -4.7590   28.1960 C   0  0  0  0  0  0  0  0  0  0  0  0
    8.6970   -4.2200   28.0540 C   0  0  0  0  0  0  0  0  0  0  0  0
    9.5050   -5.1320   27.4460 C   0  0  0  0  0  0  0  0  0  0  0  0
    8.7060   -6.0370   26.7430 C   0  0  0  0  0  0  0  0  0  0  0  0
    5.0000   -4.3420   23.2630 C   0  0  0  0  0  0  0  0  0  0  0  0
    5.6380   -5.3790   22.5900 C   0  0  0  0  0  0  0  0  0  0  0  0
    6.7010   -4.9050   21.6150 C   0  0  0  0  0  0  0  0  0  0  0  0
    7.5220   -3.8520   22.0450 C   0  0  0  0  0  0  0  0  0  0  0  0
    7.4220   -3.3980   23.3560 C   0  0  0  0  0  0  0  0  0  0  0  0
  1  2  2  0
  2  3  1  0
  2  4  1  0
  4  5  1  0
  5  6  2  0
  6  7  1  0
  6  8  1  0
  4  9  2  0
  8  9  1  0
  9 10  1  0
 10 11  1  0
 11 12  1  0
 12 13  1  0
 13 14  3  0
 14 15  1  0
 15 16  1  0
 16 17  1  0
 17 18  1  0
 15 19  1  0
 18 19  1  0
 12 20  1  0
 20 21  1  0
 21 22  1  0
 22 23  1  0
 12 24  1  0
 23 24  1  0
M  END
