WAR-XCH-b6889685-58
     RDKit          3D

 25 27  0  0  0  0  0  0  0  0999 V2000
    4.5490    1.8780   20.1090 C   0  0  0  0  0  0  0  0  0  0  0  0
    5.6640    0.8690   19.9850 C   0  0  0  0  0  0  0  0  0  0  0  0
    5.7700    0.1740   18.8110 C   0  0  0  0  0  0  0  0  0  0  0  0
    6.7530   -0.7670   18.6460 C   0  0  0  0  0  0  0  0  0  0  0  0
    7.6600   -0.9960   19.7120 C   0  0  0  0  0  0  0  0  0  0  0  0
    7.6680   -0.3330   20.9490 C   0  0  0  0  0  0  0  0  0  0  0  0
    8.6150   -0.4740   22.1360 N   0  0  0  0  0  0  0  0  0  0  0  0
    8.9660    0.8990   22.3310 C   0  0  0  0  0  0  0  0  0  0  0  0
   10.0460   -1.0520   22.5340 C   0  0  0  0  0  0  0  0  0  0  0  0
   11.0560   -1.5650   21.5760 C   0  0  0  0  0  0  0  0  0  0  0  0
   12.4520   -1.2870   22.1990 C   0  0  0  0  0  0  0  0  0  0  0  0
   12.4240   -0.5080   23.3660 N   0  0  0  0  0  0  0  0  0  0  0  0
   12.0480    0.9390   23.3910 C   0  0  0  0  0  0  0  0  0  0  0  0
   12.8120    1.9390   22.7780 C   0  0  0  0  0  0  0  0  0  0  0  0
   12.3430    3.4110   22.8410 C   0  0  0  0  0  0  0  0  0  0  0  0
   11.0900    3.7930   23.5440 C   0  0  0  0  0  0  0  0  0  0  0  0
   10.4460    5.4440   23.6880 S   0  0  0  0  0  0  0  0  0  0  0  0
    9.0600    5.3660   22.7440 N   0  0  0  0  0  0  0  0  0  0  0  0
    9.9740    5.6740   25.0400 O   0  0  0  0  0  0  0  0  0  0  0  0
   11.3490    6.3700   23.0490 O   0  0  0  0  0  0  0  0  0  0  0  0
   10.3490    2.6020   24.1730 C   0  0  0  0  0  0  0  0  0  0  0  0
   10.8780    1.1980   24.0650 C   0  0  0  0  0  0  0  0  0  0  0  0
   11.6610   -1.3080   24.3700 C   0  0  0  0  0  0  0  0  0  0  0  0
   10.3340   -1.6730   23.9650 C   0  0  0  0  0  0  0  0  0  0  0  0
    6.5900    0.6270   21.0420 C   0  0  0  0  0  0  0  0  0  0  0  0
  1  2  1  0
  2  3  2  0
  3  4  1  0
  4  5  2  0
  5  6  1  0
  6  7  1  0
  7  8  1  0
  7  9  1  0
  9 10  1  0
 10 11  1  0
 11 12  1  0
 12 13  1  0
 13 14  2  0
 14 15  1  0
 15 16  2  0
 16 17  1  0
 17 18  1  0
 17 19  2  0
 17 20  2  0
 16 21  1  0
 13 22  1  0
 21 22  2  0
 12 23  1  0
  9 24  1  0
 23 24  1  0
  2 25  1  0
  6 25  2  0
M  END
