WAR-XCH-bdd24732-22-nitrile
     RDKit          3D

 26 29  0  0  0  0  0  0  0  0999 V2000
    6.2810   -4.6540   20.2880 C   0  0  0  0  0  0  0  0  0  0  0  0
    5.7020   -5.7350   19.9760 N   0  0  0  0  0  0  0  0  0  0  0  0
    6.1170   -4.1530   21.5460 N   0  0  0  0  0  0  0  0  0  0  0  0
    5.9790   -5.0400   22.6920 C   0  0  0  0  0  0  0  0  0  0  0  0
    7.2260   -4.9670   23.5380 C   0  0  0  0  0  0  0  0  0  0  0  0
    7.9560   -3.6430   23.4330 C   0  0  0  0  0  0  0  0  0  0  0  0
    8.7710   -3.2970   24.5220 C   0  0  0  0  0  0  0  0  0  0  0  0
    8.1300   -3.5710   25.7270 C   0  0  0  0  0  0  0  0  0  0  0  0
    8.4920   -4.8050   26.2670 C   0  0  0  0  0  0  0  0  0  0  0  0
    7.3950   -4.3850   27.2590 C   0  0  0  0  0  0  0  0  0  0  0  0
    6.7010   -4.9440   28.5300 C   0  0  0  0  0  0  0  0  0  0  0  0
    7.0830   -6.2240   29.0580 N   0  0  0  0  0  0  0  0  0  0  0  0
    7.6130   -5.7480   28.0620 C   0  0  0  0  0  0  0  0  0  0  0  0
    6.9170   -4.3920   27.8730 C   0  0  0  0  0  0  0  0  0  0  0  0
    7.6010   -3.1850   28.2720 C   0  0  0  0  0  0  0  0  0  0  0  0
    7.0030   -1.9370   28.1330 C   0  0  0  0  0  0  0  0  0  0  0  0
    5.7340   -1.8320   27.6040 C   0  0  0  0  0  0  0  0  0  0  0  0
    4.9840   -2.9400   27.1880 C   0  0  0  0  0  0  0  0  0  0  0  0
    3.7360   -3.1530   26.6430 C   0  0  0  0  0  0  0  0  0  0  0  0
    3.4070   -4.4740   26.3900 C   0  0  0  0  0  0  0  0  0  0  0  0
    4.6200   -5.1510   26.8420 N   0  0  0  0  0  0  0  0  0  0  0  0
    4.8090   -6.5050   26.8030 C   0  0  0  0  0  0  0  0  0  0  0  0
    5.5860   -4.2350   27.3270 C   0  0  0  0  0  0  0  0  0  0  0  0
    8.5780   -5.9210   27.0430 C   0  0  0  0  0  0  0  0  0  0  0  0
    6.9390   -2.5050   23.1880 C   0  0  0  0  0  0  0  0  0  0  0  0
    6.1440   -2.7240   21.9180 C   0  0  0  0  0  0  0  0  0  0  0  0
  1  2  2  3
  1  3  1  0
  3  4  1  0
  4  5  1  0
  5  6  1  0
  6  7  1  0
  7  8  1  0
  8  9  1  0
  9 10  2  0
 10 11  1  0
 11 12  2  0
 12 13  1  0
 13 14  1  0
 14 15  2  0
 15 16  1  0
 16 17  2  0
 17 18  1  0
 18 19  1  0
 19 20  2  0
 20 21  1  0
 21 22  1  0
 14 23  1  0
 18 23  2  0
 21 23  1  0
  9 24  1  0
 13 24  2  0
  6 25  1  0
  3 26  1  0
 25 26  1  0
M  END
