WAR-XCH-bdd24732-9-acrylamide
     RDKit          3D

 32 35  0  0  0  0  0  0  0  0999 V2000
    6.5970   -5.0810   20.3130 C   0  0  0  0  0  0  0  0  0  0  0  0
    6.0900   -5.8270   21.5200 C   0  0  0  0  0  0  0  0  0  0  0  0
    5.2330   -4.9670   22.3830 C   0  0  0  0  0  0  0  0  0  0  0  0
    4.0310   -5.1910   22.4690 O   0  0  0  0  0  0  0  0  0  0  0  0
    5.8700   -3.8410   23.1290 C   0  0  0  0  0  0  0  0  0  0  0  0
    6.9300   -3.5890   24.1130 C   0  0  0  0  0  0  0  0  0  0  0  0
    7.4670   -5.1470   24.3500 C   0  0  0  0  0  0  0  0  0  0  0  0
    8.4840   -4.7090   25.3210 C   0  0  0  0  0  0  0  0  0  0  0  0
    7.6640   -3.7020   24.7310 C   0  0  0  0  0  0  0  0  0  0  0  0
    7.7010   -2.3000   24.9550 N   0  0  0  0  0  0  0  0  0  0  0  0
    7.7660   -1.5460   23.6640 C   0  0  1  0  0  0  0  0  0  0  0  0
    7.3460   -0.2270   23.7910 C   0  0  0  0  0  0  0  0  0  0  0  0
    7.3880    0.4980   22.6090 C   0  0  0  0  0  0  0  0  0  0  0  0
    8.1020   -0.0650   21.5350 C   0  0  2  0  0  0  0  0  0  0  0  0
    7.1500   -0.4540   20.5440 O   0  0  0  0  0  0  0  0  0  0  0  0
    8.9760   -1.1660   21.7200 C   0  0  0  0  0  0  0  0  0  0  0  0
    8.9870   -1.7030   23.0100 C   0  0  0  0  0  0  0  0  0  0  0  0
    7.1740   -1.8270   26.1360 C   0  0  0  0  0  0  0  0  0  0  0  0
    6.0160   -1.0670   26.2950 C   0  0  0  0  0  0  0  0  0  0  0  0
    4.6390   -1.7360   26.3400 C   0  0  0  0  0  0  0  0  0  0  0  0
    3.4620   -1.1130   25.8880 C   0  0  0  0  0  0  0  0  0  0  0  0
    2.2100   -1.6450   26.2320 C   0  0  0  0  0  0  0  0  0  0  0  0
    0.9630   -0.9450   25.7200 C   0  0  0  0  0  0  0  0  0  0  0  0
    1.1870    0.2870   24.8710 C   0  0  0  0  0  0  0  0  0  0  0  0
    2.4300    0.7390   24.5850 N   0  0  0  0  0  0  0  0  0  0  0  0
    3.5080    0.0450   25.0870 C   0  0  0  0  0  0  0  0  0  0  0  0
    8.2860   -0.9060   26.7230 C   0  0  0  0  0  0  0  0  0  0  0  0
    8.0240   -0.4210   28.1470 C   0  0  0  0  0  0  0  0  0  0  0  0
    7.0530   -1.3140   28.9270 C   0  0  0  0  0  0  0  0  0  0  0  0
    7.2300   -2.7740   28.5530 C   0  0  0  0  0  0  0  0  0  0  0  0
    6.9460   -3.0400   27.0780 C   0  0  0  0  0  0  0  0  0  0  0  0
    6.7720   -4.5510   23.8240 C   0  0  0  0  0  0  0  0  0  0  0  0
  1  2  1  0
  2  3  1  0
  3  4  2  0
  3  5  1  0
  5  6  2  0
  6  7  1  0
  7  8  2  0
  8  9  1  0
  9 10  1  0
 11 10  1  1
 11 12  1  0
 12 13  1  0
 13 14  1  0
 14 15  1  6
 14 16  1  0
 11 17  1  0
 16 17  1  0
 10 18  1  0
 18 19  1  0
 19 20  3  0
 20 21  1  0
 21 22  2  0
 22 23  1  0
 23 24  2  0
 24 25  1  0
 21 26  1  0
 25 26  2  0
 18 27  1  0
 27 28  1  0
 28 29  1  0
 29 30  1  0
 18 31  1  0
 30 31  1  0
  5 32  1  0
  9 32  2  0
M  END
