WAR-XCH-72a8c209-11-nitrile
     RDKit          3D

 28 30  0  0  0  0  0  0  0  0999 V2000
    6.9250   -4.8040   20.4950 C   0  0  0  0  0  0  0  0  0  0  0  0
    5.8930   -4.2380   19.9360 N   0  0  0  0  0  0  0  0  0  0  0  0
    7.1630   -4.9520   22.0360 C   0  0  0  0  0  0  0  0  0  0  0  0
    8.2550   -5.7420   22.5150 C   0  0  0  0  0  0  0  0  0  0  0  0
    8.3670   -5.8020   23.8500 C   0  0  0  0  0  0  0  0  0  0  0  0
    7.8460   -5.4040   25.0000 C   0  0  0  0  0  0  0  0  0  0  0  0
    6.7240   -4.5860   24.6580 C   0  0  0  0  0  0  0  0  0  0  0  0
    6.3400   -4.3210   23.2200 C   0  0  0  0  0  0  0  0  0  0  0  0
    5.2520   -3.5070   23.0380 C   0  0  0  0  0  0  0  0  0  0  0  0
    5.3070   -2.3000   23.6610 N   0  0  0  0  0  0  0  0  0  0  0  0
    5.0140   -2.1960   24.9880 C   0  0  1  0  0  0  0  0  0  0  0  0
    6.2280   -2.1380   25.8960 C   0  0  0  0  0  0  0  0  0  0  0  0
    6.6000   -0.6660   26.1430 C   0  0  0  0  0  0  0  0  0  0  0  0
    5.4690    0.0160   26.9160 C   0  0  2  0  0  0  0  0  0  0  0  0
    5.5390   -0.2100   28.1240 O   0  0  0  0  0  0  0  0  0  0  0  0
    4.1150   -0.4280   26.3650 C   0  0  0  0  0  0  0  0  0  0  0  0
    4.1650   -1.1220   25.1550 C   0  0  0  0  0  0  0  0  0  0  0  0
    6.2150   -1.4100   23.2070 C   0  0  0  0  0  0  0  0  0  0  0  0
    7.3900   -1.9350   22.6160 C   0  0  0  0  0  0  0  0  0  0  0  0
    7.5900   -1.4610   21.3050 C   0  0  0  0  0  0  0  0  0  0  0  0
    6.6000   -1.6270   20.4830 N   0  0  0  0  0  0  0  0  0  0  0  0
    6.8560   -1.3020   19.1980 C   0  0  0  0  0  0  0  0  0  0  0  0
    7.4230   -2.0140   18.3920 O   0  0  0  0  0  0  0  0  0  0  0  0
    6.4760   -0.0660   18.6760 C   0  0  0  0  0  0  0  0  0  0  0  0
    5.5130    0.0300   17.7420 N   0  0  0  0  0  0  0  0  0  0  0  0
    7.0060    0.9540   19.0860 O   0  0  0  0  0  0  0  0  0  0  0  0
    5.3690   -1.3980   20.9740 C   0  0  0  0  0  0  0  0  0  0  0  0
    5.5610   -0.4930   22.1820 C   0  0  0  0  0  0  0  0  0  0  0  0
  1  2  2  3
  1  3  1  0
  3  4  2  0
  4  5  1  0
  5  6  2  0
  6  7  1  0
  3  8  1  0
  7  8  2  0
  8  9  1  0
  9 10  1  0
 11 10  1  6
 11 12  1  0
 12 13  1  0
 13 14  1  0
 14 15  1  1
 14 16  1  0
 11 17  1  0
 16 17  1  0
 10 18  1  0
 18 19  1  0
 19 20  1  0
 20 21  1  0
 21 22  1  0
 22 23  2  0
 22 24  1  0
 24 25  1  0
 24 26  2  0
 21 27  1  0
 18 28  1  0
 27 28  1  0
M  END
