WAR-XCH-79d12f6e-5-chloroacetamide
     RDKit          3D

 22 24  0  0  0  0  0  0  0  0999 V2000
    7.3170   -5.0180   20.6860 C   0  0  0  0  0  0  0  0  0  0  0  0
    5.8580   -4.9300   20.9420 C   0  0  0  0  0  0  0  0  0  0  0  0
    5.1370   -4.6960   19.9640 O   0  0  0  0  0  0  0  0  0  0  0  0
    5.4080   -5.1610   22.2140 N   0  0  0  0  0  0  0  0  0  0  0  0
    4.6810   -4.2070   23.0370 C   0  0  0  0  0  0  0  0  0  0  0  0
    5.6850   -3.8520   24.1920 C   0  0  0  0  0  0  0  0  0  0  0  0
    7.0500   -4.0110   23.4790 C   0  0  0  0  0  0  0  0  0  0  0  0
    6.9330   -3.3110   22.1350 N   0  0  0  0  0  0  0  0  0  0  0  0
    6.4390   -1.8940   21.9720 C   0  0  0  0  0  0  0  0  0  0  0  0
    5.8180   -1.2530   23.2250 C   0  0  0  0  0  0  0  0  0  0  0  0
    4.4340   -1.8450   23.5310 C   0  0  0  0  0  0  0  0  0  0  0  0
    3.7490   -1.2820   24.7380 C   0  0  0  0  0  0  0  0  0  0  0  0
    4.4970   -0.2100   25.4810 C   0  0  0  0  0  0  0  0  0  0  0  0
    5.7310    0.2950   25.1700 N   0  0  0  0  0  0  0  0  0  0  0  0
    6.3470   -0.2370   24.0660 C   0  0  0  0  0  0  0  0  0  0  0  0
    5.5960   -1.8300   20.8340 C   0  0  0  0  0  0  0  0  0  0  0  0
    6.2050   -1.5030   19.5690 C   0  0  0  0  0  0  0  0  0  0  0  0
    6.6710   -0.1770   19.5460 C   0  0  0  0  0  0  0  0  0  0  0  0
    7.2890    0.0930   20.7680 C   0  0  0  0  0  0  0  0  0  0  0  0
    7.6690   -1.0230   21.5290 C   0  0  0  0  0  0  0  0  0  0  0  0
    7.4030   -5.3640   23.2990 C   0  0  0  0  0  0  0  0  0  0  0  0
    6.2230   -6.0280   23.0410 C   0  0  0  0  0  0  0  0  0  0  0  0
  1  2  1  0
  2  3  2  0
  2  4  1  0
  4  5  1  0
  5  6  1  0
  6  7  1  0
  7  8  1  0
  9  8  1  0
  9 10  1  0
 10 11  2  0
 11 12  1  0
 12 13  2  0
 13 14  1  0
 10 15  1  0
 14 15  2  0
  9 16  1  0
 16 17  1  0
 17 18  1  0
 18 19  1  0
  9 20  1  0
 19 20  1  0
  7 21  1  0
  4 22  1  0
 21 22  1  0
M  END
