WAR-XCH-79d12f6e-15
     RDKit          3D

 28 31  0  0  0  0  0  0  0  0999 V2000
    5.6160    0.0880   25.1940 O   0  0  0  0  0  0  0  0  0  0  0  0
    5.5930   -0.5780   24.1620 C   0  0  0  0  0  0  0  0  0  0  0  0
    5.6100   -2.0810   24.2290 C   0  0  0  0  0  0  0  0  0  0  0  0
    4.8430   -2.8160   25.3380 C   0  0  0  0  0  0  0  0  0  0  0  0
    5.0190   -4.3580   25.1810 C   0  0  0  0  0  0  0  0  0  0  0  0
    5.7030   -5.0980   24.2720 N   0  0  0  0  0  0  0  0  0  0  0  0
    6.3300   -4.3600   23.3460 C   0  0  0  0  0  0  0  0  0  0  0  0
    6.2980   -2.8490   23.3040 C   0  0  0  0  0  0  0  0  0  0  0  0
    7.0520   -2.2550   22.1580 C   0  0  0  0  0  0  0  0  0  0  0  0
    6.3150   -2.3510   20.9130 C   0  0  0  0  0  0  0  0  0  0  0  0
    6.7840   -1.7840   19.6970 C   0  0  0  0  0  0  0  0  0  0  0  0
    6.0070   -1.9180   18.6400 C   0  0  0  0  0  0  0  0  0  0  0  0
    5.2830   -3.0470   19.0450 C   0  0  0  0  0  0  0  0  0  0  0  0
    5.8450   -3.5630   20.2630 C   0  0  0  0  0  0  0  0  0  0  0  0
    5.4100   -4.5210   21.2230 C   0  0  0  0  0  0  0  0  0  0  0  0
    6.1630   -5.6990   21.3850 C   0  0  0  0  0  0  0  0  0  0  0  0
    5.7990   -6.6790   22.3100 C   0  0  0  0  0  0  0  0  0  0  0  0
    4.6680   -6.4890   23.0820 C   0  0  0  0  0  0  0  0  0  0  0  0
    3.8840   -5.2110   22.8890 C   0  0  0  0  0  0  0  0  0  0  0  0
    4.2480   -4.2620   21.9970 N   0  0  0  0  0  0  0  0  0  0  0  0
    7.0220   -2.1060   17.4530 C   0  0  0  0  0  0  0  0  0  0  0  0
    7.2970   -0.9750   16.6600 C   0  0  0  0  0  0  0  0  0  0  0  0
    6.9590    0.4550   17.1050 C   0  0  0  0  0  0  0  0  0  0  0  0
    6.0080    0.5770   18.2800 C   0  0  0  0  0  0  0  0  0  0  0  0
    5.1230   -0.6340   18.4740 C   0  0  0  0  0  0  0  0  0  0  0  0
    7.9290   -1.1810   19.7550 C   0  0  0  0  0  0  0  0  0  0  0  0
    8.7540   -1.0820   21.0750 C   0  0  0  0  0  0  0  0  0  0  0  0
    8.3720   -1.5860   22.2670 N   0  0  0  0  0  0  0  0  0  0  0  0
  1  2  1  0
  2  3  1  0
  3  4  2  0
  4  5  1  0
  5  6  2  0
  6  7  1  0
  3  8  1  0
  7  8  2  0
  8  9  1  0
  9 10  2  0
 10 11  1  0
 11 12  1  0
 12 13  1  0
 13 14  3  0
 14 15  1  0
 15 16  2  0
 16 17  1  0
 17 18  2  0
 18 19  1  0
 15 20  1  0
 19 20  2  0
 12 21  1  0
 21 22  1  0
 22 23  1  0
 23 24  1  0
 12 25  1  0
 24 25  1  0
 11 26  2  0
 26 27  1  0
  9 28  1  0
 27 28  2  0
M  END
