WAR-XCH-e55cba98-6-vinylsulfonamide
     RDKit          3D

 26 28  0  0  0  0  0  0  0  0999 V2000
    7.7680   -2.8050   18.0350 C   0  0  0  0  0  0  0  0  0  0  0  0
    6.3630   -2.6020   18.4920 C   0  0  0  0  0  0  0  0  0  0  0  0
    5.8390   -3.0350   20.0990 S   0  0  0  0  0  0  0  0  0  0  0  0
    4.4960   -2.9960   19.7190 O   0  0  0  0  0  0  0  0  0  0  0  0
    6.3340   -4.2670   20.6880 O   0  0  0  0  0  0  0  0  0  0  0  0
    6.1670   -1.7110   21.1050 N   0  0  0  0  0  0  0  0  0  0  0  0
    7.1270   -1.9950   22.1430 C   0  0  0  0  0  0  0  0  0  0  0  0
    7.6500   -0.9350   22.8340 C   0  0  0  0  0  0  0  0  0  0  0  0
    8.2390    0.0360   22.0530 C   0  0  0  0  0  0  0  0  0  0  0  0
    9.6180    0.2290   22.2130 N   0  0  0  0  0  0  0  0  0  0  0  0
   10.4100   -0.7020   23.0640 C   0  0  0  0  0  0  0  0  0  0  0  0
    9.6090   -1.1380   24.1390 C   0  0  0  0  0  0  0  0  0  0  0  0
    9.1900   -0.1960   25.3090 C   0  0  0  0  0  0  0  0  0  0  0  0
    7.6460   -0.1770   25.5600 C   0  0  1  0  0  0  0  0  0  0  0  0
    7.0360   -1.5700   25.3160 C   0  0  0  0  0  0  0  0  0  0  0  0
    6.1520   -2.1770   26.4260 C   0  0  0  0  0  0  0  0  0  0  0  0
    6.4380   -1.6810   27.8550 C   0  0  0  0  0  0  0  0  0  0  0  0
    7.3370   -0.4390   27.8910 C   0  0  0  0  0  0  0  0  0  0  0  0
    7.3030    0.3670   26.7770 N   0  0  0  0  0  0  0  0  0  0  0  0
   11.0460   -1.7030   22.2800 C   0  0  0  0  0  0  0  0  0  0  0  0
   12.3860   -1.9680   22.6050 C   0  0  0  0  0  0  0  0  0  0  0  0
   12.7760   -1.8110   23.9270 C   0  0  0  0  0  0  0  0  0  0  0  0
   12.3490   -0.6390   24.5060 C   0  0  0  0  0  0  0  0  0  0  0  0
   11.5270    0.1490   23.7210 C   0  0  0  0  0  0  0  0  0  0  0  0
    7.7540   -0.0340   20.7320 C   0  0  0  0  0  0  0  0  0  0  0  0
    6.4400   -0.4200   20.4760 C   0  0  0  0  0  0  0  0  0  0  0  0
  1  2  1  0
  3  2  1  0
  3  4  2  0
  3  5  2  0
  3  6  1  0
  6  7  1  0
  7  8  1  0
  8  9  1  0
  9 10  1  0
 10 11  1  0
 11 12  1  0
 12 13  3  0
 14 13  1  1
 14 15  1  0
 15 16  1  0
 16 17  1  0
 17 18  1  0
 14 19  1  0
 18 19  1  0
 11 20  1  0
 20 21  1  0
 21 22  1  0
 22 23  1  0
 11 24  1  0
 23 24  1  0
  9 25  1  0
  6 26  1  0
 25 26  1  0
M  END
