WAR-XCH-72a8c209-14-vinylsulfonamide
     RDKit          3D

 32 34  0  0  0  0  0  0  0  0999 V2000
    7.8990   -4.3160   20.9350 C   0  0  0  0  0  0  0  0  0  0  0  0
    6.7540   -5.3490   21.1280 C   0  0  0  0  0  0  0  0  0  0  0  0
    5.8410   -5.1750   22.6720 S   0  0  0  0  0  0  0  0  0  0  0  0
    4.6080   -4.4620   22.3010 O   0  0  0  0  0  0  0  0  0  0  0  0
    5.7850   -6.4790   23.3290 O   0  0  0  0  0  0  0  0  0  0  0  0
    6.7060   -4.1020   23.8040 C   0  0  0  0  0  0  0  0  0  0  0  0
    7.6040   -5.0720   23.1640 C   0  0  0  0  0  0  0  0  0  0  0  0
    6.7960   -5.9260   22.3220 C   0  0  0  0  0  0  0  0  0  0  0  0
    5.3640   -5.7470   22.2180 C   0  0  0  0  0  0  0  0  0  0  0  0
    4.6360   -4.6700   22.9720 C   0  0  0  0  0  0  0  0  0  0  0  0
    5.3720   -3.8140   23.8060 C   0  0  0  0  0  0  0  0  0  0  0  0
    4.6190   -2.8260   24.5050 C   0  0  0  0  0  0  0  0  0  0  0  0
    5.6310   -2.0440   25.2560 N   0  0  0  0  0  0  0  0  0  0  0  0
    5.2100   -1.5350   26.5770 C   0  0  1  0  0  0  0  0  0  0  0  0
    4.7680   -2.5440   27.5710 C   0  0  0  0  0  0  0  0  0  0  0  0
    5.9100   -2.8320   28.5730 C   0  0  0  0  0  0  0  0  0  0  0  0
    6.1000   -1.6590   29.4520 C   0  0  2  0  0  0  0  0  0  0  0  0
    5.0580   -1.6550   30.4480 O   0  0  0  0  0  0  0  0  0  0  0  0
    6.1260   -0.4190   28.6850 C   0  0  0  0  0  0  0  0  0  0  0  0
    6.2550   -0.5520   27.1660 C   0  0  0  0  0  0  0  0  0  0  0  0
    6.4560   -1.2130   24.3500 C   0  0  0  0  0  0  0  0  0  0  0  0
    7.8140   -1.4460   24.5190 C   0  0  0  0  0  0  0  0  0  0  0  0
    8.4990   -1.1370   23.3440 C   0  0  0  0  0  0  0  0  0  0  0  0
    7.7620   -0.1100   22.5660 N   0  0  0  0  0  0  0  0  0  0  0  0
    8.5680    0.3450   21.4360 C   0  0  0  0  0  0  0  0  0  0  0  0
    8.0470    1.5190   20.8000 O   0  0  0  0  0  0  0  0  0  0  0  0
    6.8370    1.3070   20.2210 C   0  0  0  0  0  0  0  0  0  0  0  0
    5.9010    2.0870   20.3060 O   0  0  0  0  0  0  0  0  0  0  0  0
    6.6480    0.1370   19.4830 C   0  0  0  0  0  0  0  0  0  0  0  0
    6.4390   -1.0690   18.7260 C   0  0  0  0  0  0  0  0  0  0  0  0
    7.1840    0.9560   23.3860 C   0  0  0  0  0  0  0  0  0  0  0  0
    6.2980    0.3110   24.4520 C   0  0  0  0  0  0  0  0  0  0  0  0
  1  2  1  0
  3  2  1  0
  3  4  2  0
  3  5  2  0
  3  6  1  0
  6  7  2  0
  7  8  1  0
  8  9  2  0
  9 10  1  0
  6 11  1  0
 10 11  2  0
 11 12  1  0
 12 13  1  0
 14 13  1  6
 14 15  1  0
 15 16  1  0
 16 17  1  0
 17 18  1  1
 17 19  1  0
 14 20  1  0
 19 20  1  0
 13 21  1  0
 21 22  1  0
 22 23  1  0
 23 24  1  0
 24 25  1  0
 25 26  1  0
 26 27  1  0
 27 28  2  0
 27 29  1  0
 29 30  3  0
 24 31  1  0
 21 32  1  0
 31 32  1  0
M  END
