WAR-XCH-bdd24732-20-vinylsulfonamide
     RDKit          3D

 29 32  0  0  0  0  0  0  0  0999 V2000
    7.6120   -5.3480   21.2590 C   0  0  0  0  0  0  0  0  0  0  0  0
    6.3200   -5.3150   21.9850 C   0  0  0  0  0  0  0  0  0  0  0  0
    5.9570   -3.6660   22.5330 S   0  0  0  0  0  0  0  0  0  0  0  0
    4.8190   -3.3080   21.6530 O   0  0  0  0  0  0  0  0  0  0  0  0
    5.7160   -3.7590   23.9560 O   0  0  0  0  0  0  0  0  0  0  0  0
    7.3670   -2.5980   22.3850 N   0  0  0  0  0  0  0  0  0  0  0  0
    7.2120   -1.4560   23.3150 C   0  0  0  0  0  0  0  0  0  0  0  0
    8.2530   -1.5540   24.4130 C   0  0  0  0  0  0  0  0  0  0  0  0
    9.6130   -1.4220   24.0390 C   0  0  0  0  0  0  0  0  0  0  0  0
    9.8650   -1.8080   22.7300 C   0  0  1  0  0  0  0  0  0  0  0  0
   11.2330   -2.0520   22.3080 C   0  0  0  0  0  0  0  0  0  0  0  0
   11.7310   -1.3740   21.2130 C   0  0  0  0  0  0  0  0  0  0  0  0
   13.0730   -1.2180   20.2730 C   0  0  0  0  0  0  0  0  0  0  0  0
   13.8710   -0.1360   18.6410 C   0  0  0  0  0  0  0  0  0  0  0  0
   13.0160    0.6700   16.9660 C   0  0  0  0  0  0  0  0  0  0  0  0
   10.4650    0.2150   15.4190 C   0  0  0  0  0  0  0  0  0  0  0  0
   10.1940    0.5740   14.1990 C   0  0  0  0  0  0  0  0  0  0  0  0
    9.1210    0.3470   13.6210 C   0  0  0  0  0  0  0  0  0  0  0  0
    8.1530   -0.2170   14.1250 C   0  0  0  0  0  0  0  0  0  0  0  0
    7.9740   -0.6560   15.2210 C   0  0  0  0  0  0  0  0  0  0  0  0
    6.9140   -1.3330   15.6520 C   0  0  0  0  0  0  0  0  0  0  0  0
    6.9950   -1.5430   16.8370 C   0  0  0  0  0  0  0  0  0  0  0  0
    8.1200   -1.0670   17.1290 N   0  0  0  0  0  0  0  0  0  0  0  0
    7.8740   -1.4390   18.4400 C   0  0  0  0  0  0  0  0  0  0  0  0
    8.9670   -0.4760   16.0050 C   0  0  0  0  0  0  0  0  0  0  0  0
   13.7290   -2.1780   20.8940 C   0  0  0  0  0  0  0  0  0  0  0  0
   13.2680   -2.9080   22.1370 C   0  0  0  0  0  0  0  0  0  0  0  0
   12.1150   -2.8630   22.8560 N   0  0  0  0  0  0  0  0  0  0  0  0
    8.8440   -2.9680   22.3760 C   0  0  0  0  0  0  0  0  0  0  0  0
  1  2  1  0
  3  2  1  0
  3  4  2  0
  3  5  2  0
  3  6  1  0
  6  7  1  0
  7  8  1  0
  8  9  1  0
  9 10  1  0
 10 11  1  1
 11 12  2  0
 12 13  1  0
 13 14  1  0
 14 15  1  0
 15 16  1  0
 16 17  2  0
 17 18  1  0
 18 19  2  0
 19 20  1  0
 20 21  1  0
 21 22  2  0
 22 23  1  0
 23 24  1  0
 16 25  1  0
 20 25  2  0
 23 25  1  0
 13 26  2  0
 26 27  1  0
 11 28  1  0
 27 28  2  0
  6 29  1  0
 10 29  1  0
M  END
