WAR-XCH-b6889685-64
     RDKit          3D

 25 27  0  0  0  0  0  0  0  0999 V2000
   22.4310  -23.4580   23.0990 C   0  0  0  0  0  0  0  0  0  0  0  0
   22.5780  -22.2880   22.1940 C   0  0  1  0  0  0  0  0  0  0  0  0
   23.1330  -21.0770   22.7590 C   0  0  0  0  0  0  0  0  0  0  0  0
   22.4420  -20.1610   23.6090 C   0  0  0  0  0  0  0  0  0  0  0  0
   23.1960  -19.0610   23.9710 C   0  0  0  0  0  0  0  0  0  0  0  0
   24.4690  -19.0760   23.4480 C   0  0  0  0  0  0  0  0  0  0  0  0
   24.7300  -20.4750   22.4960 S   0  0  0  0  0  0  0  0  0  0  0  0
   23.1130  -22.6010   20.9010 N   0  0  0  0  0  0  0  0  0  0  0  0
   24.0260  -21.5840   20.3880 C   0  0  0  0  0  0  0  0  0  0  0  0
   22.2390  -23.2780   19.9080 C   0  0  0  0  0  0  0  0  0  0  0  0
   22.2690  -22.5530   18.5670 C   0  0  0  0  0  0  0  0  0  0  0  0
   21.6100  -23.4440   17.5080 C   0  0  0  0  0  0  0  0  0  0  0  0
   21.7710  -24.8490   17.5590 N   0  0  0  0  0  0  0  0  0  0  0  0
   21.5460  -25.7980   16.4350 C   0  0  0  0  0  0  0  0  0  0  0  0
   20.2380  -26.0200   16.0140 C   0  0  0  0  0  0  0  0  0  0  0  0
   19.9060  -26.9830   14.8680 C   0  0  0  0  0  0  0  0  0  0  0  0
   21.0030  -27.6990   14.1850 C   0  0  0  0  0  0  0  0  0  0  0  0
   20.7300  -28.8030   12.8930 S   0  0  0  0  0  0  0  0  0  0  0  0
   19.1070  -28.5430   12.5490 N   0  0  0  0  0  0  0  0  0  0  0  0
   20.8490  -30.1470   13.4050 O   0  0  0  0  0  0  0  0  0  0  0  0
   21.4630  -28.3590   11.7280 O   0  0  0  0  0  0  0  0  0  0  0  0
   22.4150  -27.3760   14.7280 C   0  0  0  0  0  0  0  0  0  0  0  0
   22.6590  -26.4090   15.8740 C   0  0  0  0  0  0  0  0  0  0  0  0
   21.8960  -25.4330   18.9270 C   0  0  0  0  0  0  0  0  0  0  0  0
   22.7390  -24.7350   19.7840 C   0  0  0  0  0  0  0  0  0  0  0  0
  2  1  1  1
  2  3  1  0
  3  4  2  0
  4  5  1  0
  5  6  2  0
  3  7  1  0
  6  7  1  0
  2  8  1  0
  8  9  1  0
  8 10  1  0
 10 11  1  0
 11 12  1  0
 12 13  1  0
 13 14  1  0
 14 15  2  0
 15 16  1  0
 16 17  2  0
 17 18  1  0
 18 19  1  0
 18 20  2  0
 18 21  2  0
 17 22  1  0
 14 23  1  0
 22 23  2  0
 13 24  1  0
 10 25  1  0
 24 25  1  0
M  END
