WAR-XCH-b0339bbe-18-nitrile
     RDKit          3D

 18 19  0  0  0  0  0  0  0  0999 V2000
    6.5630   -4.6920   20.3670 C   0  0  0  0  0  0  0  0  0  0  0  0
    5.9170   -3.8390   19.6610 N   0  0  0  0  0  0  0  0  0  0  0  0
    6.4500   -4.8380   21.7280 N   0  0  0  0  0  0  0  0  0  0  0  0
    5.2410   -5.2630   22.4480 C   0  0  0  0  0  0  0  0  0  0  0  0
    4.7320   -3.8780   22.9560 C   0  0  0  0  0  0  0  0  0  0  0  0
    5.9000   -3.3690   23.8810 C   0  0  0  0  0  0  0  0  0  0  0  0
    6.2440   -1.9240   23.6490 N   0  0  0  0  0  0  0  0  0  0  0  0
    5.1000   -1.0930   23.1850 C   0  0  0  0  0  0  0  0  0  0  0  0
    5.5210   -0.1480   22.0600 C   0  0  0  0  0  0  0  0  0  0  0  0
    6.1180   -1.0770   21.0380 N   0  0  0  0  0  0  0  0  0  0  0  0
    5.9810   -0.9120   19.6620 C   0  0  0  0  0  0  0  0  0  0  0  0
    5.4980   -1.7900   18.9420 O   0  0  0  0  0  0  0  0  0  0  0  0
    6.4580    0.3840   19.0380 C   0  0  0  0  0  0  0  0  0  0  0  0
    5.0720    1.2370   18.3380 Cl  0  0  0  0  0  0  0  0  0  0  0  0
    7.2890   -1.8100   21.5170 C   0  0  0  0  0  0  0  0  0  0  0  0
    7.4830   -1.6550   22.8970 C   0  0  0  0  0  0  0  0  0  0  0  0
    7.1280   -4.3220   23.8820 C   0  0  0  0  0  0  0  0  0  0  0  0
    7.5920   -4.6730   22.6110 C   0  0  0  0  0  0  0  0  0  0  0  0
  1  2  2  3
  1  3  1  0
  3  4  1  0
  4  5  1  0
  5  6  1  0
  6  7  1  0
  7  8  1  0
  8  9  1  0
  9 10  1  0
 10 11  1  0
 11 12  2  0
 11 13  1  0
 13 14  1  0
 10 15  1  0
  7 16  1  0
 15 16  1  0
  6 17  1  0
  3 18  1  0
 17 18  1  0
M  END
