WAR-XCH-72a8c209-9-nitrile
     RDKit          3D

 23 25  0  0  0  0  0  0  0  0999 V2000
    6.7560   -3.6570   19.8790 C   0  0  0  0  0  0  0  0  0  0  0  0
    5.8890   -4.5970   19.9290 N   0  0  0  0  0  0  0  0  0  0  0  0
    6.6210   -2.6200   20.7790 N   0  0  0  0  0  0  0  0  0  0  0  0
    5.5880   -2.9210   21.7790 C   0  0  0  0  0  0  0  0  0  0  0  0
    6.1970   -3.8780   22.7830 C   0  0  0  0  0  0  0  0  0  0  0  0
    7.6950   -3.8780   22.7350 C   0  0  0  0  0  0  0  0  0  0  0  0
    8.3110   -2.5650   22.7500 C   0  0  2  0  0  0  0  0  0  0  0  0
    8.7070   -1.6380   23.2570 N   0  0  0  0  0  0  0  0  0  0  0  0
    9.9720   -1.9780   23.8670 C   0  0  0  0  0  0  0  0  0  0  0  0
   10.9280   -1.0860   23.4330 C   0  0  0  0  0  0  0  0  0  0  0  0
   12.0090   -1.8280   23.0790 C   0  0  0  0  0  0  0  0  0  0  0  0
   13.1480   -1.1060   23.4830 C   0  0  0  0  0  0  0  0  0  0  0  0
   13.0270    0.3030   22.8780 C   0  0  0  0  0  0  0  0  0  0  0  0
   11.9400    1.0610   23.5020 C   0  0  0  0  0  0  0  0  0  0  0  0
   11.1290    0.0100   24.2330 C   0  0  0  0  0  0  0  0  0  0  0  0
    7.8240   -0.7850   24.1120 C   0  0  2  0  0  0  0  0  0  0  0  0
    7.6890   -1.1200   25.5350 C   0  0  0  0  0  0  0  0  0  0  0  0
    6.5460   -0.4980   26.3450 C   0  0  0  0  0  0  0  0  0  0  0  0
    5.3800    0.0930   25.5670 C   0  0  1  0  0  0  0  0  0  0  0  0
    5.0430    1.3500   26.1400 O   0  0  0  0  0  0  0  0  0  0  0  0
    5.5640    0.2460   24.1910 C   0  0  0  0  0  0  0  0  0  0  0  0
    6.3840   -0.6730   23.5290 C   0  0  0  0  0  0  0  0  0  0  0  0
    7.7590   -1.9190   21.4150 C   0  0  0  0  0  0  0  0  0  0  0  0
  1  2  2  3
  1  3  1  0
  3  4  1  0
  4  5  1  0
  5  6  1  0
  6  7  1  0
  7  8  1  1
  8  9  1  0
  9 10  1  0
 10 11  1  0
 11 12  1  0
 12 13  1  0
 13 14  1  0
 10 15  1  0
 14 15  1  0
 16  8  1  6
 16 17  1  0
 17 18  1  0
 18 19  1  0
 19 20  1  1
 19 21  1  0
 16 22  1  0
 21 22  1  0
  3 23  1  0
  7 23  1  0
M  END
