WAR-XCH-bdd24732-18-vinylsulfonamide
     RDKit          3D

 27 30  0  0  0  0  0  0  0  0999 V2000
    6.4630   -4.1720   20.2450 C   0  0  0  0  0  0  0  0  0  0  0  0
    6.3060   -2.8850   21.0360 C   0  0  0  0  0  0  0  0  0  0  0  0
    5.5310   -3.1890   22.6090 S   0  0  0  0  0  0  0  0  0  0  0  0
    4.4840   -4.1640   22.3900 O   0  0  0  0  0  0  0  0  0  0  0  0
    5.1830   -1.9080   23.1760 O   0  0  0  0  0  0  0  0  0  0  0  0
    6.7720   -3.9150   23.6590 C   0  0  0  0  0  0  0  0  0  0  0  0
    7.0400   -3.4810   25.1440 C   0  0  0  0  0  0  0  0  0  0  0  0
    8.0540   -4.0740   26.0210 C   0  0  0  0  0  0  0  0  0  0  0  0
    8.8350   -5.1060   25.5000 C   0  0  0  0  0  0  0  0  0  0  0  0
    8.4280   -5.3120   24.2360 C   0  0  0  0  0  0  0  0  0  0  0  0
    7.7530   -4.1940   24.7750 C   0  0  0  0  0  0  0  0  0  0  0  0
    9.1360   -3.9020   24.2100 N   0  0  0  0  0  0  0  0  0  0  0  0
    9.9170   -2.6840   24.1070 C   0  0  0  0  0  0  0  0  0  0  0  0
   11.3620   -2.6360   23.4830 C   0  0  0  0  0  0  0  0  0  0  0  0
   11.2010   -3.0140   24.8620 C   0  0  0  0  0  0  0  0  0  0  0  0
    9.8460   -2.9090   25.1290 C   0  0  0  0  0  0  0  0  0  0  0  0
    8.9420   -2.4780   24.0490 C   0  0  0  0  0  0  0  0  0  0  0  0
    9.3100   -2.1240   22.6350 N   0  0  0  0  0  0  0  0  0  0  0  0
   10.6620   -2.2330   22.3890 C   0  0  0  0  0  0  0  0  0  0  0  0
    9.3980   -1.4500   24.5980 N   0  0  0  0  0  0  0  0  0  0  0  0
    8.1580   -1.6180   25.1230 C   0  0  0  0  0  0  0  0  0  0  0  0
    7.6940   -0.3790   25.5860 C   0  0  0  0  0  0  0  0  0  0  0  0
    6.4850   -0.0550   26.2030 C   0  0  0  0  0  0  0  0  0  0  0  0
    5.6990   -1.1560   26.3390 C   0  0  0  0  0  0  0  0  0  0  0  0
    6.0040   -2.5690   25.9110 C   0  0  0  0  0  0  0  0  0  0  0  0
    7.3710   -2.8210   25.2340 C   0  0  0  0  0  0  0  0  0  0  0  0
    7.5930   -4.9510   23.2200 C   0  0  0  0  0  0  0  0  0  0  0  0
  1  2  1  0
  3  2  1  0
  3  4  2  0
  3  5  2  0
  3  6  1  0
  6  7  2  0
  7  8  1  0
  8  9  2  0
  9 10  1  0
 10 11  1  0
 11 12  2  0
 12 13  1  0
 13 14  1  0
 14 15  2  0
 15 16  1  0
 16 17  2  0
 17 18  1  0
 14 19  1  0
 18 19  2  0
 13 20  2  0
 20 21  1  0
 21 22  1  0
 22 23  2  0
 23 24  1  0
 24 25  2  0
 11 26  1  0
 21 26  2  0
 25 26  1  0
  6 27  1  0
 10 27  2  0
M  END
