WAR-XCH-72a8c209-11-vinylsulfonamide
     RDKit          3D

 31 33  0  0  0  0  0  0  0  0999 V2000
    6.6380   -5.3290   20.3030 C   0  0  0  0  0  0  0  0  0  0  0  0
    6.6120   -5.8620   21.7790 C   0  0  0  0  0  0  0  0  0  0  0  0
    5.2130   -5.2100   22.6810 S   0  0  0  0  0  0  0  0  0  0  0  0
    4.0090   -5.7160   22.1050 O   0  0  0  0  0  0  0  0  0  0  0  0
    5.3700   -3.7890   22.7930 O   0  0  0  0  0  0  0  0  0  0  0  0
    5.0790   -5.8470   24.3560 C   0  0  0  0  0  0  0  0  0  0  0  0
    5.1030   -6.0690   25.8540 C   0  0  0  0  0  0  0  0  0  0  0  0
    5.0300   -6.5050   27.2420 C   0  0  0  0  0  0  0  0  0  0  0  0
    5.3990   -5.4890   26.5200 C   0  0  0  0  0  0  0  0  0  0  0  0
    5.8260   -4.3710   25.9840 C   0  0  0  0  0  0  0  0  0  0  0  0
    5.6910   -4.4420   24.5660 C   0  0  0  0  0  0  0  0  0  0  0  0
    6.2420   -3.2480   25.1020 C   0  0  0  0  0  0  0  0  0  0  0  0
    5.6610   -2.1420   24.3170 N   0  0  0  0  0  0  0  0  0  0  0  0
    4.5710   -1.4420   25.0320 C   0  0  2  0  0  0  0  0  0  0  0  0
    4.9590   -0.5540   26.1640 C   0  0  0  0  0  0  0  0  0  0  0  0
    4.5840   -1.1970   27.5220 C   0  0  0  0  0  0  0  0  0  0  0  0
    3.1120   -1.2640   27.6610 C   0  0  1  0  0  0  0  0  0  0  0  0
    2.6160    0.0470   27.9860 O   0  0  0  0  0  0  0  0  0  0  0  0
    2.4830   -1.7940   26.4510 C   0  0  0  0  0  0  0  0  0  0  0  0
    3.4140   -2.4040   25.4010 C   0  0  0  0  0  0  0  0  0  0  0  0
    6.7210   -1.2690   23.7420 C   0  0  0  0  0  0  0  0  0  0  0  0
    7.6750   -1.9070   22.9300 C   0  0  0  0  0  0  0  0  0  0  0  0
    7.1570   -2.6190   21.8320 C   0  0  0  0  0  0  0  0  0  0  0  0
    5.9620   -1.9750   21.2400 N   0  0  0  0  0  0  0  0  0  0  0  0
    5.9170   -2.3190   19.8050 C   0  0  0  0  0  0  0  0  0  0  0  0
    5.3210   -3.5760   19.4430 O   0  0  0  0  0  0  0  0  0  0  0  0
    6.4390   -1.4360   18.8670 C   0  0  0  0  0  0  0  0  0  0  0  0
    7.6090   -0.8930   19.2940 N   0  0  0  0  0  0  0  0  0  0  0  0
    5.9370   -1.1280   17.8000 O   0  0  0  0  0  0  0  0  0  0  0  0
    5.7320   -0.5680   21.5800 C   0  0  0  0  0  0  0  0  0  0  0  0
    6.0870   -0.1420   22.9150 C   0  0  0  0  0  0  0  0  0  0  0  0
  1  2  1  0
  3  2  1  0
  3  4  2  0
  3  5  2  0
  3  6  1  0
  6  7  2  0
  7  8  1  0
  8  9  2  0
  9 10  1  0
  6 11  1  0
 10 11  2  0
 11 12  1  0
 12 13  1  0
 14 13  1  1
 14 15  1  0
 15 16  1  0
 16 17  1  0
 17 18  1  6
 17 19  1  0
 14 20  1  0
 19 20  1  0
 13 21  1  0
 21 22  1  0
 22 23  1  0
 23 24  1  0
 24 25  1  0
 25 26  2  0
 25 27  1  0
 27 28  1  0
 27 29  2  0
 24 30  1  0
 21 31  1  0
 30 31  1  0
M  END
