WAR-XCH-72a8c209-11-chloroacetamide
     RDKit          3D

 29 31  0  0  0  0  0  0  0  0999 V2000
    7.5440   -3.3780   19.6120 C   0  0  0  0  0  0  0  0  0  0  0  0
    6.7760   -4.2760   20.5330 C   0  0  0  0  0  0  0  0  0  0  0  0
    5.7580   -4.8830   20.1160 O   0  0  0  0  0  0  0  0  0  0  0  0
    7.4170   -4.5090   21.8800 C   0  0  0  0  0  0  0  0  0  0  0  0
    7.7550   -5.9370   22.1440 C   0  0  0  0  0  0  0  0  0  0  0  0
    8.4190   -6.5220   23.3110 C   0  0  0  0  0  0  0  0  0  0  0  0
    8.6630   -5.4210   24.1600 C   0  0  0  0  0  0  0  0  0  0  0  0
    8.3740   -4.0500   24.0170 C   0  0  0  0  0  0  0  0  0  0  0  0
    7.7650   -3.6230   22.9010 C   0  0  0  0  0  0  0  0  0  0  0  0
    7.6100   -2.2260   23.0420 C   0  0  0  0  0  0  0  0  0  0  0  0
    6.7910   -1.8650   24.2400 N   0  0  0  0  0  0  0  0  0  0  0  0
    7.3470   -2.2140   25.5710 C   0  0  2  0  0  0  0  0  0  0  0  0
    6.4330   -2.9820   26.4580 C   0  0  0  0  0  0  0  0  0  0  0  0
    7.1710   -3.2390   27.7940 C   0  0  0  0  0  0  0  0  0  0  0  0
    7.2360   -1.9810   28.5680 C   0  0  2  0  0  0  0  0  0  0  0  0
    6.1320   -1.9110   29.4800 O   0  0  0  0  0  0  0  0  0  0  0  0
    7.2570   -0.7940   27.7020 C   0  0  0  0  0  0  0  0  0  0  0  0
    7.8400   -0.9340   26.2870 C   0  0  0  0  0  0  0  0  0  0  0  0
    5.3250   -2.0300   24.0750 C   0  0  0  0  0  0  0  0  0  0  0  0
    4.8990   -3.1980   23.4350 C   0  0  0  0  0  0  0  0  0  0  0  0
    5.2820   -3.3910   22.1220 C   0  0  0  0  0  0  0  0  0  0  0  0
    5.1460   -2.1370   21.3750 N   0  0  0  0  0  0  0  0  0  0  0  0
    5.3830   -2.2550   19.9170 C   0  0  0  0  0  0  0  0  0  0  0  0
    5.0880   -3.3640   19.4540 O   0  0  0  0  0  0  0  0  0  0  0  0
    5.8850   -1.1690   19.1870 C   0  0  0  0  0  0  0  0  0  0  0  0
    5.0520   -0.7240   18.1960 N   0  0  0  0  0  0  0  0  0  0  0  0
    6.9660   -0.6430   19.4040 O   0  0  0  0  0  0  0  0  0  0  0  0
    5.3570   -0.8910   22.1230 C   0  0  0  0  0  0  0  0  0  0  0  0
    4.6670   -0.8130   23.3970 C   0  0  0  0  0  0  0  0  0  0  0  0
  1  2  1  0
  2  3  2  0
  2  4  1  0
  4  5  2  0
  5  6  1  0
  6  7  2  0
  7  8  1  0
  4  9  1  0
  8  9  2  0
  9 10  1  0
 10 11  1  0
 12 11  1  6
 12 13  1  0
 13 14  1  0
 14 15  1  0
 15 16  1  1
 15 17  1  0
 12 18  1  0
 17 18  1  0
 11 19  1  0
 19 20  1  0
 20 21  1  0
 21 22  1  0
 22 23  1  0
 23 24  2  0
 23 25  1  0
 25 26  1  0
 25 27  2  0
 22 28  1  0
 19 29  1  0
 28 29  1  0
M  END
