WAR-XCH-bdd24732-24-chloroacetamide
     RDKit          3D

 19 21  0  0  0  0  0  0  0  0999 V2000
    7.4630   -4.1180   21.1660 C   0  0  0  0  0  0  0  0  0  0  0  0
    6.0270   -3.9620   21.3520 C   0  0  0  0  0  0  0  0  0  0  0  0
    5.3050   -4.3260   20.1950 O   0  0  0  0  0  0  0  0  0  0  0  0
    5.6860   -3.4140   22.7760 N   0  0  0  0  0  0  0  0  0  0  0  0
    6.3530   -3.8610   24.1440 C   0  0  0  0  0  0  0  0  0  0  0  0
    5.6030   -4.4220   25.4010 C   0  0  0  0  0  0  0  0  0  0  0  0
    6.3110   -4.7810   26.6190 C   0  0  0  0  0  0  0  0  0  0  0  0
    7.6850   -4.6250   26.6870 C   0  0  0  0  0  0  0  0  0  0  0  0
    8.3250   -4.1170   25.5650 C   0  0  0  0  0  0  0  0  0  0  0  0
    9.5670   -3.8300   25.3400 C   0  0  0  0  0  0  0  0  0  0  0  0
    9.9880   -2.9840   24.3200 C   0  0  0  0  0  0  0  0  0  0  0  0
   11.4400   -2.8150   24.3210 C   0  0  0  0  0  0  0  0  0  0  0  0
   12.0040   -3.5890   25.4490 C   0  0  0  0  0  0  0  0  0  0  0  0
   10.8130   -4.5100   26.3350 S   0  0  0  0  0  0  0  0  0  0  0  0
   13.3640   -3.5730   25.7600 C   0  0  0  0  0  0  0  0  0  0  0  0
   14.1150   -2.8600   24.8970 C   0  0  0  0  0  0  0  0  0  0  0  0
   13.4730   -1.9060   24.0770 C   0  0  0  0  0  0  0  0  0  0  0  0
   12.2360   -2.0940   23.4900 C   0  0  0  0  0  0  0  0  0  0  0  0
    7.6680   -3.7450   24.3090 C   0  0  0  0  0  0  0  0  0  0  0  0
  1  2  1  0
  2  3  2  0
  2  4  1  0
  4  5  1  0
  5  6  2  0
  6  7  1  0
  7  8  2  0
  8  9  1  0
  9 10  1  0
 10 11  2  0
 11 12  1  0
 12 13  2  0
 10 14  1  0
 13 14  1  0
 13 15  1  0
 15 16  1  0
 16 17  1  0
 12 18  1  0
 17 18  1  0
  5 19  1  0
  9 19  2  0
M  END
