WAR-XCH-b6889685-45
     RDKit          3D

 24 26  0  0  0  0  0  0  0  0999 V2000
   20.8900  -29.4070   13.1460 N   0  0  0  0  0  0  0  0  0  0  0  0
   19.6800  -29.3040   14.3190 S   0  0  0  0  0  0  0  0  0  0  0  0
   18.4640  -28.9710   13.6060 O   0  0  0  0  0  0  0  0  0  0  0  0
   19.7790  -30.5070   15.1140 O   0  0  0  0  0  0  0  0  0  0  0  0
   20.2060  -27.9210   15.2850 C   0  0  0  0  0  0  0  0  0  0  0  0
   20.2050  -27.9700   16.7860 C   0  0  0  0  0  0  0  0  0  0  0  0
   20.6050  -26.9130   17.5830 C   0  0  0  0  0  0  0  0  0  0  0  0
   21.0460  -25.7280   17.0170 C   0  0  0  0  0  0  0  0  0  0  0  0
   21.4190  -24.7800   17.9030 N   0  0  0  0  0  0  0  0  0  0  0  0
   21.6880  -23.4020   17.3640 C   0  0  0  0  0  0  0  0  0  0  0  0
   22.7280  -22.8450   18.1360 C   0  0  0  0  0  0  0  0  0  0  0  0
   22.4850  -22.9680   19.6400 C   0  0  0  0  0  0  0  0  0  0  0  0
   23.3470  -22.3720   20.5190 N   0  0  0  0  0  0  0  0  0  0  0  0
   23.0060  -22.4060   21.8490 C   0  0  0  0  0  0  0  0  0  0  0  0
   23.0940  -21.1160   22.6990 C   0  0  0  0  0  0  0  0  0  0  0  0
   22.2850  -21.0530   23.9630 C   0  0  0  0  0  0  0  0  0  0  0  0
   22.4200  -19.7330   24.6600 C   0  0  0  0  0  0  0  0  0  0  0  0
   23.2770  -18.8840   23.9620 C   0  0  0  0  0  0  0  0  0  0  0  0
   23.6080  -17.2940   24.5270 Cl  0  0  0  0  0  0  0  0  0  0  0  0
   23.9380  -19.5920   22.5120 S   0  0  0  0  0  0  0  0  0  0  0  0
   22.3390  -24.3030   20.0500 C   0  0  0  0  0  0  0  0  0  0  0  0
   22.2690  -25.2610   18.9660 C   0  0  0  0  0  0  0  0  0  0  0  0
   21.0860  -25.5850   15.6060 C   0  0  0  0  0  0  0  0  0  0  0  0
   20.6410  -26.7400   14.7000 C   0  0  0  0  0  0  0  0  0  0  0  0
  2  1  1  0
  2  3  2  0
  2  4  2  0
  2  5  1  0
  5  6  2  0
  6  7  1  0
  7  8  2  0
  8  9  1  0
  9 10  1  0
 10 11  1  0
 11 12  1  0
 12 13  1  0
 13 14  1  0
 14 15  1  0
 15 16  2  0
 16 17  1  0
 17 18  2  0
 18 19  1  0
 15 20  1  0
 18 20  1  0
 12 21  1  0
  9 22  1  0
 21 22  1  0
  8 23  1  0
  5 24  1  0
 23 24  2  0
M  END
