WAR-XCH-bdd24732-12-nitrile
     RDKit          3D

 26 29  0  0  0  0  0  0  0  0999 V2000
    6.3240   -5.2100   21.6960 C   0  0  0  0  0  0  0  0  0  0  0  0
    5.6320   -6.0100   20.6500 N   0  0  0  0  0  0  0  0  0  0  0  0
    7.0470   -5.9800   23.3730 C   0  0  0  0  0  0  0  0  0  0  0  0
    7.2520   -5.1530   24.7400 C   0  0  0  0  0  0  0  0  0  0  0  0
    6.7100   -3.7930   24.2610 C   0  0  0  0  0  0  0  0  0  0  0  0
    6.1080   -3.7720   22.8680 C   0  0  0  0  0  0  0  0  0  0  0  0
    6.6130   -5.1680   23.1120 C   0  0  0  0  0  0  0  0  0  0  0  0
    7.0100   -4.6130   24.6390 C   0  0  0  0  0  0  0  0  0  0  0  0
    8.4740   -4.4970   24.9870 C   0  0  0  0  0  0  0  0  0  0  0  0
    8.3880   -5.4700   23.8340 C   0  0  0  0  0  0  0  0  0  0  0  0
    9.7360   -5.2830   24.0160 C   0  0  0  0  0  0  0  0  0  0  0  0
    9.9780   -4.1050   23.5900 C   0  0  0  0  0  0  0  0  0  0  0  0
    9.1670   -3.3080   24.2680 C   0  0  0  0  0  0  0  0  0  0  0  0
    8.8250   -1.8910   24.1680 N   0  0  0  0  0  0  0  0  0  0  0  0
    8.0620   -1.7340   25.2030 C   0  0  0  0  0  0  0  0  0  0  0  0
    7.6140   -0.5660   25.5490 C   0  0  0  0  0  0  0  0  0  0  0  0
    7.5410    0.7020   25.4900 C   0  0  0  0  0  0  0  0  0  0  0  0
    8.3830   -0.4330   24.3800 C   0  0  0  0  0  0  0  0  0  0  0  0
    8.0320   -1.5810   25.1880 C   0  0  0  0  0  0  0  0  0  0  0  0
    7.7280   -2.5520   25.8840 N   0  0  0  0  0  0  0  0  0  0  0  0
    8.5560   -2.8450   24.7840 C   0  0  0  0  0  0  0  0  0  0  0  0
    8.5500   -3.9380   25.2260 N   0  0  0  0  0  0  0  0  0  0  0  0
    7.1130   -5.2370   24.0420 C   0  0  0  0  0  0  0  0  0  0  0  0
    5.5210   -5.0900   24.1720 C   0  0  0  0  0  0  0  0  0  0  0  0
    5.8380   -4.2070   25.2360 N   0  0  0  0  0  0  0  0  0  0  0  0
    6.8580   -6.4340   22.4130 C   0  0  0  0  0  0  0  0  0  0  0  0
  1  2  2  3
  1  3  1  0
  3  4  2  0
  4  5  1  0
  5  6  2  0
  6  7  1  0
  7  8  1  0
  8  9  2  0
  9 10  1  0
 10 11  1  0
 11 12  1  0
 12 13  1  0
 13 14  2  0
 14 15  1  0
 15 16  2  0
 16 17  1  0
 16 18  1  0
 18 19  2  0
 19 20  1  0
 15 21  1  0
 20 21  2  0
 13 22  1  0
 21 22  1  0
 10 23  2  0
 23 24  1  0
  8 25  1  0
 24 25  2  0
  3 26  1  0
  7 26  2  0
M  END
