WAR-XCH-72a8c209-10-chloroacetamide
     RDKit          3D

 26 28  0  0  0  0  0  0  0  0999 V2000
    7.1060   -3.2640   19.3150 C   0  0  0  0  0  0  0  0  0  0  0  0
    6.2910   -4.1290   20.2550 C   0  0  0  0  0  0  0  0  0  0  0  0
    5.2560   -4.6750   19.9160 O   0  0  0  0  0  0  0  0  0  0  0  0
    6.7800   -4.3540   21.5360 N   0  0  0  0  0  0  0  0  0  0  0  0
    6.6230   -5.5840   22.3140 C   0  0  0  0  0  0  0  0  0  0  0  0
    6.1400   -5.1680   23.7020 C   0  0  0  0  0  0  0  0  0  0  0  0
    6.1020   -3.7330   23.9400 C   0  0  0  0  0  0  0  0  0  0  0  0
    5.8340   -3.3490   25.3290 N   0  0  0  0  0  0  0  0  0  0  0  0
    6.8510   -2.8280   26.1230 C   0  0  0  0  0  0  0  0  0  0  0  0
    7.7300   -3.7390   26.6790 C   0  0  0  0  0  0  0  0  0  0  0  0
    7.0400   -4.6280   27.4900 C   0  0  0  0  0  0  0  0  0  0  0  0
    7.8420   -5.6190   28.1340 C   0  0  0  0  0  0  0  0  0  0  0  0
    9.3600   -5.5600   27.8330 C   0  0  0  0  0  0  0  0  0  0  0  0
    9.9950   -4.6090   26.9670 C   0  0  0  0  0  0  0  0  0  0  0  0
    9.0620   -3.6490   26.3760 C   0  0  0  0  0  0  0  0  0  0  0  0
    9.7230   -2.6560   25.4930 C   0  0  0  0  0  0  0  0  0  0  0  0
   10.2650   -1.8670   24.8360 N   0  0  0  0  0  0  0  0  0  0  0  0
    4.4780   -2.8680   25.6160 C   0  0  1  0  0  0  0  0  0  0  0  0
    3.4500   -3.4260   24.6320 C   0  0  0  0  0  0  0  0  0  0  0  0
    2.1140   -3.8230   25.2490 C   0  0  0  0  0  0  0  0  0  0  0  0
    2.1200   -4.2940   26.5620 C   0  0  2  0  0  0  0  0  0  0  0  0
    0.9950   -3.7210   27.2300 O   0  0  0  0  0  0  0  0  0  0  0  0
    3.2560   -4.0520   27.3420 C   0  0  0  0  0  0  0  0  0  0  0  0
    4.1430   -3.0340   26.9720 C   0  0  0  0  0  0  0  0  0  0  0  0
    7.3810   -3.0450   23.4350 C   0  0  0  0  0  0  0  0  0  0  0  0
    7.6740   -3.3380   22.1020 C   0  0  0  0  0  0  0  0  0  0  0  0
  1  2  1  0
  2  3  2  0
  2  4  1  0
  4  5  1  0
  5  6  1  0
  6  7  1  0
  7  8  1  0
  8  9  1  0
  9 10  1  0
 10 11  2  0
 11 12  1  0
 12 13  2  0
 13 14  1  0
 10 15  1  0
 14 15  2  0
 15 16  1  0
 16 17  3  0
 18  8  1  1
 18 19  1  0
 19 20  1  0
 20 21  1  0
 21 22  1  1
 21 23  1  0
 18 24  1  0
 23 24  1  0
  7 25  1  0
  4 26  1  0
 25 26  1  0
M  END
