WAR-XCH-bdd24732-38-nitrile
     RDKit          3D

 26 28  0  0  0  0  0  0  0  0999 V2000
    7.1240   -3.2390   19.2690 C   0  0  0  0  0  0  0  0  0  0  0  0
    6.2580   -3.0690   18.3440 N   0  0  0  0  0  0  0  0  0  0  0  0
    6.7610   -2.9970   20.6560 C   0  0  0  0  0  0  0  0  0  0  0  0
    5.3840   -3.1940   20.9890 C   0  0  0  0  0  0  0  0  0  0  0  0
    4.7810   -2.9980   22.3390 C   0  0  0  0  0  0  0  0  0  0  0  0
    5.9550   -2.5950   23.0440 C   0  0  0  0  0  0  0  0  0  0  0  0
    7.3600   -2.3420   22.9490 C   0  0  0  0  0  0  0  0  0  0  0  0
    6.8340   -2.1610   24.1670 N   0  0  0  0  0  0  0  0  0  0  0  0
    5.8160   -3.1240   24.6420 C   0  0  0  0  0  0  0  0  0  0  0  0
    5.8730   -4.3570   23.9750 C   0  0  0  0  0  0  0  0  0  0  0  0
    4.7920   -5.2110   24.1970 C   0  0  0  0  0  0  0  0  0  0  0  0
    4.8330   -6.5850   23.5520 C   0  0  0  0  0  0  0  0  0  0  0  0
    6.0400   -6.7510   22.6260 C   0  0  0  0  0  0  0  0  0  0  0  0
    7.1720   -5.9930   22.9920 C   0  0  0  0  0  0  0  0  0  0  0  0
    7.0720   -5.0580   24.0160 C   0  0  0  0  0  0  0  0  0  0  0  0
    7.8850   -1.7060   25.3910 S   0  0  0  0  0  0  0  0  0  0  0  0
    7.1580   -0.7420   26.1800 O   0  0  0  0  0  0  0  0  0  0  0  0
    9.1710   -1.4730   24.7690 O   0  0  0  0  0  0  0  0  0  0  0  0
    8.0040   -3.2130   26.3050 C   0  0  0  0  0  0  0  0  0  0  0  0
    9.0320   -4.1410   26.1050 C   0  0  0  0  0  0  0  0  0  0  0  0
    9.1540   -5.3310   26.8180 C   0  0  0  0  0  0  0  0  0  0  0  0
    8.2630   -5.7580   27.8360 C   0  0  0  0  0  0  0  0  0  0  0  0
    7.2490   -4.8410   28.0330 C   0  0  0  0  0  0  0  0  0  0  0  0
    7.0420   -3.5400   27.3100 C   0  0  0  0  0  0  0  0  0  0  0  0
    6.0000   -2.7550   27.6250 F   0  0  0  0  0  0  0  0  0  0  0  0
    7.6390   -2.6030   21.6030 C   0  0  0  0  0  0  0  0  0  0  0  0
  1  2  2  3
  1  3  1  0
  3  4  2  0
  4  5  1  0
  5  6  2  0
  6  7  1  0
  7  8  1  0
  8  9  1  0
  9 10  1  0
 10 11  1  0
 11 12  1  0
 12 13  1  0
 13 14  1  0
 10 15  1  0
 14 15  1  0
 16  8  1  0
 16 17  2  0
 16 18  2  0
 16 19  1  0
 19 20  2  0
 20 21  1  0
 21 22  2  0
 22 23  1  0
 19 24  1  0
 23 24  2  0
 24 25  1  0
  3 26  1  0
  7 26  2  0
M  END
