WAR-XCH-79d12f6e-1
     RDKit          3D

 21 22  0  0  0  0  0  0  0  0999 V2000
    6.6650   -2.0290   17.5010 C   0  0  0  0  0  0  0  0  0  0  0  0
    6.5070   -1.6530   18.9070 C   0  0  0  0  0  0  0  0  0  0  0  0
    7.2430   -0.4560   19.3420 C   0  0  0  0  0  0  0  0  0  0  0  0
    7.1990   -0.1080   20.6600 C   0  0  0  0  0  0  0  0  0  0  0  0
    6.4300   -0.9300   21.4720 C   0  0  0  0  0  0  0  0  0  0  0  0
    6.8500   -0.1010   22.9380 S   0  0  0  0  0  0  0  0  0  0  0  0
    7.1830    1.2730   22.6060 O   0  0  0  0  0  0  0  0  0  0  0  0
    6.0450   -0.4980   24.0630 O   0  0  0  0  0  0  0  0  0  0  0  0
    8.1360   -0.9990   22.7590 N   0  0  0  0  0  0  0  0  0  0  0  0
    8.0810   -2.1990   21.9810 C   0  0  0  0  0  0  0  0  0  0  0  0
    8.0740   -2.2390   20.7590 O   0  0  0  0  0  0  0  0  0  0  0  0
    8.0070   -3.2770   22.7720 N   0  0  0  0  0  0  0  0  0  0  0  0
    6.7750   -3.7430   23.2330 C   0  0  0  0  0  0  0  0  0  0  0  0
    6.2140   -2.9190   24.2160 C   0  0  0  0  0  0  0  0  0  0  0  0
    4.8580   -3.2370   24.8390 C   0  0  0  0  0  0  0  0  0  0  0  0
    4.1460   -4.4980   24.3450 C   0  0  0  0  0  0  0  0  0  0  0  0
    4.8160   -5.3590   23.2760 C   0  0  0  0  0  0  0  0  0  0  0  0
    6.1590   -4.9060   22.7580 C   0  0  0  0  0  0  0  0  0  0  0  0
    5.6370   -2.0590   21.1930 C   0  0  0  0  0  0  0  0  0  0  0  0
    4.8430   -2.8190   22.2310 C   0  0  0  0  0  0  0  0  0  0  0  0
    5.6520   -2.4740   19.8660 C   0  0  0  0  0  0  0  0  0  0  0  0
  1  2  1  0
  2  3  2  0
  3  4  1  0
  4  5  2  0
  5  6  1  0
  6  7  2  0
  6  8  2  0
  6  9  1  0
  9 10  1  0
 10 11  2  0
 10 12  1  0
 12 13  1  0
 13 14  2  0
 14 15  1  0
 15 16  2  0
 16 17  1  0
 13 18  1  0
 17 18  2  0
  5 19  1  0
 19 20  1  0
  2 21  1  0
 19 21  2  0
M  END
