WAR-XCH-72a8c209-2
     RDKit          3D

 25 27  0  0  0  0  0  0  0  0999 V2000
    6.9810   -1.0970   23.3500 C   0  0  0  0  0  0  0  0  0  0  0  0
    6.2970   -2.3490   23.4990 C   0  0  0  0  0  0  0  0  0  0  0  0
    5.4860   -2.6220   24.7660 C   0  0  0  0  0  0  0  0  0  0  0  0
    5.3170   -1.7510   25.8580 N   0  0  0  0  0  0  0  0  0  0  0  0
    4.7710   -3.9490   24.9160 C   0  0  0  0  0  0  0  0  0  0  0  0
    4.8960   -4.9190   23.8390 N   0  0  0  0  0  0  0  0  0  0  0  0
    5.6560   -4.6080   22.6950 C   0  0  0  0  0  0  0  0  0  0  0  0
    6.3120   -3.3890   22.5320 C   0  0  0  0  0  0  0  0  0  0  0  0
    7.0170   -3.1430   21.3480 N   0  0  0  0  0  0  0  0  0  0  0  0
    6.2350   -2.4820   20.3200 C   0  0  0  0  0  0  0  0  0  0  0  0
    6.1320   -2.8030   19.1520 O   0  0  0  0  0  0  0  0  0  0  0  0
    5.5470   -1.4450   20.9490 C   0  0  0  0  0  0  0  0  0  0  0  0
    5.5380   -0.3290   20.0650 C   0  0  0  0  0  0  0  0  0  0  0  0
    4.6330    0.7720   20.6480 C   0  0  0  0  0  0  0  0  0  0  0  0
    4.9710    1.2310   22.0240 C   0  0  0  0  0  0  0  0  0  0  0  0
    4.1000    2.3270   22.6700 C   0  0  0  0  0  0  0  0  0  0  0  0
    2.9580    2.9090   21.9450 C   0  0  0  0  0  0  0  0  0  0  0  0
    2.6100    2.4770   20.5970 C   0  0  0  0  0  0  0  0  0  0  0  0
    1.2610    3.1940   19.8010 Cl  0  0  0  0  0  0  0  0  0  0  0  0
    3.4290    1.3980   19.8890 C   0  0  0  0  0  0  0  0  0  0  0  0
    7.0080    0.0960   20.1460 C   0  0  0  0  0  0  0  0  0  0  0  0
    7.6290   -0.9940   19.6370 C   0  0  0  0  0  0  0  0  0  0  0  0
    7.4960   -1.0990   18.2560 C   0  0  0  0  0  0  0  0  0  0  0  0
    6.3340   -0.5540   17.7670 C   0  0  0  0  0  0  0  0  0  0  0  0
    5.2270   -0.6900   18.5830 C   0  0  0  0  0  0  0  0  0  0  0  0
  1  2  1  0
  2  3  2  0
  3  4  1  0
  3  5  1  0
  5  6  2  0
  6  7  1  0
  2  8  1  0
  7  8  2  0
  8  9  1  0
  9 10  1  0
 10 11  2  0
 10 12  1  0
 13 12  1  0
 13 14  1  0
 14 15  2  0
 15 16  1  0
 16 17  2  0
 17 18  1  0
 18 19  1  0
 14 20  1  0
 18 20  2  0
 13 21  1  0
 21 22  1  0
 22 23  1  0
 23 24  1  0
 13 25  1  0
 24 25  1  0
M  END
