WAR-XCH-e55cba98-6-acrylamide
     RDKit          3D

 25 27  0  0  0  0  0  0  0  0999 V2000
    7.2830   -3.1070   18.9380 C   0  0  0  0  0  0  0  0  0  0  0  0
    5.8350   -2.6790   18.9530 C   0  0  0  0  0  0  0  0  0  0  0  0
    5.5150   -2.2830   20.3470 C   0  0  0  0  0  0  0  0  0  0  0  0
    4.8220   -3.0100   21.1070 O   0  0  0  0  0  0  0  0  0  0  0  0
    6.0800   -1.0610   20.6720 N   0  0  0  0  0  0  0  0  0  0  0  0
    5.8410   -0.5290   21.8900 C   0  0  0  0  0  0  0  0  0  0  0  0
    6.8660    0.2370   22.4240 C   0  0  0  0  0  0  0  0  0  0  0  0
    8.1230   -0.3680   22.4640 C   0  0  0  0  0  0  0  0  0  0  0  0
    9.3330    0.2430   22.8460 N   0  0  0  0  0  0  0  0  0  0  0  0
   10.3180   -0.7780   23.2770 C   0  0  0  0  0  0  0  0  0  0  0  0
    9.3880   -1.9130   23.7360 C   0  0  0  0  0  0  0  0  0  0  0  0
    8.3140   -1.3690   24.7360 C   0  0  0  0  0  0  0  0  0  0  0  0
    7.0220   -2.2060   24.8520 C   0  0  2  0  0  0  0  0  0  0  0  0
    6.3150   -2.0620   26.2230 C   0  0  0  0  0  0  0  0  0  0  0  0
    5.7800   -3.3620   26.8560 C   0  0  0  0  0  0  0  0  0  0  0  0
    5.4500   -4.4870   25.8660 C   0  0  0  0  0  0  0  0  0  0  0  0
    6.0660   -4.2430   24.4850 C   0  0  0  0  0  0  0  0  0  0  0  0
    7.2170   -3.5140   24.5020 N   0  0  0  0  0  0  0  0  0  0  0  0
   11.2780   -1.0510   22.2810 C   0  0  0  0  0  0  0  0  0  0  0  0
   12.3480   -1.8150   22.7400 C   0  0  0  0  0  0  0  0  0  0  0  0
   13.1370   -1.0690   23.5810 C   0  0  0  0  0  0  0  0  0  0  0  0
   12.4640   -0.2600   24.4670 C   0  0  0  0  0  0  0  0  0  0  0  0
   11.0840   -0.4300   24.5980 C   0  0  0  0  0  0  0  0  0  0  0  0
    8.4140   -0.9660   21.0870 C   0  0  0  0  0  0  0  0  0  0  0  0
    7.4030   -0.6500   20.1580 C   0  0  0  0  0  0  0  0  0  0  0  0
  1  2  1  0
  2  3  1  0
  3  4  2  0
  3  5  1  0
  5  6  1  0
  6  7  1  0
  7  8  1  0
  8  9  1  0
  9 10  1  0
 10 11  1  0
 11 12  3  0
 13 12  1  1
 13 14  1  0
 14 15  1  0
 15 16  1  0
 16 17  1  0
 13 18  1  0
 17 18  1  0
 10 19  1  0
 19 20  1  0
 20 21  1  0
 21 22  1  0
 10 23  1  0
 22 23  1  0
  8 24  1  0
  5 25  1  0
 24 25  1  0
M  END
