WAR-XCH-72a8c209-14-acrylamide
     RDKit          3D

 31 33  0  0  0  0  0  0  0  0999 V2000
    7.6730   -5.1500   21.1780 C   0  0  0  0  0  0  0  0  0  0  0  0
    6.2790   -5.7230   21.4470 C   0  0  0  0  0  0  0  0  0  0  0  0
    5.5100   -5.0080   22.5470 C   0  0  0  0  0  0  0  0  0  0  0  0
    4.6430   -4.1720   22.2620 O   0  0  0  0  0  0  0  0  0  0  0  0
    5.7230   -5.3320   24.0080 C   0  0  0  0  0  0  0  0  0  0  0  0
    6.6730   -5.2500   25.1400 C   0  0  0  0  0  0  0  0  0  0  0  0
    8.1440   -4.5780   24.8400 C   0  0  0  0  0  0  0  0  0  0  0  0
    8.4380   -4.0660   23.3920 C   0  0  0  0  0  0  0  0  0  0  0  0
    7.3080   -4.4440   23.1570 C   0  0  0  0  0  0  0  0  0  0  0  0
    6.8840   -4.8990   24.2690 C   0  0  0  0  0  0  0  0  0  0  0  0
    8.2990   -4.3260   24.4270 C   0  0  0  0  0  0  0  0  0  0  0  0
    8.2420   -2.8180   24.7680 N   0  0  0  0  0  0  0  0  0  0  0  0
    7.6710   -2.4220   26.0210 C   0  0  1  0  0  0  0  0  0  0  0  0
    7.5830   -3.5560   27.0500 C   0  0  0  0  0  0  0  0  0  0  0  0
    7.3740   -2.8140   28.3640 C   0  0  0  0  0  0  0  0  0  0  0  0
    6.7700   -1.5550   28.3270 C   0  0  1  0  0  0  0  0  0  0  0  0
    6.8260   -1.0610   29.4530 O   0  0  0  0  0  0  0  0  0  0  0  0
    7.3930   -0.5660   27.3570 C   0  0  0  0  0  0  0  0  0  0  0  0
    8.2400   -1.2100   26.4420 C   0  0  0  0  0  0  0  0  0  0  0  0
    8.1120   -1.9720   23.6160 C   0  0  0  0  0  0  0  0  0  0  0  0
    9.3140   -1.7540   22.9450 C   0  0  0  0  0  0  0  0  0  0  0  0
    9.0840   -1.4210   21.6190 C   0  0  0  0  0  0  0  0  0  0  0  0
    7.7070   -0.9620   21.4780 N   0  0  0  0  0  0  0  0  0  0  0  0
    7.0920   -0.8400   20.1430 C   0  0  0  0  0  0  0  0  0  0  0  0
    6.4040    0.1180   19.7950 O   0  0  0  0  0  0  0  0  0  0  0  0
    5.5860   -0.2170   18.7630 C   0  0  0  0  0  0  0  0  0  0  0  0
    5.1920   -1.3440   18.4870 O   0  0  0  0  0  0  0  0  0  0  0  0
    5.1810    0.9960   17.9340 C   0  0  0  0  0  0  0  0  0  0  0  0
    4.6070    2.0700   18.5920 C   0  0  0  0  0  0  0  0  0  0  0  0
    7.3370    0.0690   22.4710 C   0  0  0  0  0  0  0  0  0  0  0  0
    7.5940   -0.5360   23.8490 C   0  0  0  0  0  0  0  0  0  0  0  0
  1  2  1  0
  2  3  1  0
  3  4  2  0
  3  5  1  0
  5  6  2  0
  6  7  1  0
  7  8  2  0
  8  9  1  0
  5 10  1  0
  9 10  2  0
 10 11  1  0
 11 12  1  0
 13 12  1  6
 13 14  1  0
 14 15  1  0
 15 16  1  0
 16 17  1  1
 16 18  1  0
 13 19  1  0
 18 19  1  0
 12 20  1  0
 20 21  1  0
 21 22  1  0
 22 23  1  0
 23 24  1  0
 24 25  1  0
 25 26  1  0
 26 27  2  0
 26 28  1  0
 28 29  3  0
 23 30  1  0
 20 31  1  0
 30 31  1  0
M  END
