WAR-XCH-72a8c209-1-chloroacetamide
     RDKit          3D

 26 28  0  0  0  0  0  0  0  0999 V2000
    7.9810   -5.1420   20.3410 C   0  0  0  0  0  0  0  0  0  0  0  0
    6.5010   -5.0760   20.8280 C   0  0  0  0  0  0  0  0  0  0  0  0
    5.6050   -4.5580   20.0790 O   0  0  0  0  0  0  0  0  0  0  0  0
    6.3150   -5.9490   22.0810 C   0  0  0  0  0  0  0  0  0  0  0  0
    7.3480   -5.0200   22.7130 C   0  0  0  0  0  0  0  0  0  0  0  0
    7.4290   -4.0130   21.7460 C   0  0  0  0  0  0  0  0  0  0  0  0
    6.6040   -4.2010   20.6700 C   0  0  0  0  0  0  0  0  0  0  0  0
    6.8130   -3.0960   19.8520 N   0  0  0  0  0  0  0  0  0  0  0  0
    5.9420   -2.4240   19.0850 C   0  0  0  0  0  0  0  0  0  0  0  0
    4.7410   -2.9310   18.7700 O   0  0  0  0  0  0  0  0  0  0  0  0
    6.4490   -1.2130   18.6610 C   0  0  0  0  0  0  0  0  0  0  0  0
    6.1120   -0.1570   19.5570 C   0  0  0  0  0  0  0  0  0  0  0  0
    7.2990    0.1450   20.5140 C   0  0  0  0  0  0  0  0  0  0  0  0
    8.1740   -0.9920   20.8840 C   0  0  0  0  0  0  0  0  0  0  0  0
    9.3900   -0.8480   21.8280 C   0  0  0  0  0  0  0  0  0  0  0  0
    9.6880    0.4950   22.3860 C   0  0  0  0  0  0  0  0  0  0  0  0
    8.8330    1.6310   22.0320 C   0  0  0  0  0  0  0  0  0  0  0  0
    9.2180    3.1680   22.7070 Cl  0  0  0  0  0  0  0  0  0  0  0  0
    7.6200    1.5360   21.1010 C   0  0  0  0  0  0  0  0  0  0  0  0
    5.8490    1.0340   18.5570 C   0  0  0  0  0  0  0  0  0  0  0  0
    5.1090    2.0670   19.1330 C   0  0  0  0  0  0  0  0  0  0  0  0
    4.0120    1.7690   19.9180 C   0  0  0  0  0  0  0  0  0  0  0  0
    4.1350    0.6910   20.7720 C   0  0  0  0  0  0  0  0  0  0  0  0
    4.7800   -0.4490   20.3020 C   0  0  0  0  0  0  0  0  0  0  0  0
    5.7690   -4.9090   20.1030 N   0  0  0  0  0  0  0  0  0  0  0  0
    5.5680   -6.1150   21.0100 C   0  0  0  0  0  0  0  0  0  0  0  0
  1  2  1  0
  2  3  2  0
  2  4  1  0
  4  5  2  0
  5  6  1  0
  6  7  2  0
  7  8  1  0
  8  9  1  0
  9 10  2  0
  9 11  1  0
 12 11  1  0
 12 13  1  0
 13 14  2  0
 14 15  1  0
 15 16  2  0
 16 17  1  0
 17 18  1  0
 13 19  1  0
 17 19  2  0
 12 20  1  0
 20 21  1  0
 21 22  1  0
 22 23  1  0
 12 24  1  0
 23 24  1  0
  7 25  1  0
  4 26  1  0
 25 26  2  0
M  END
