WAR-XCH-b6889685-44
     RDKit          3D

 24 26  0  0  0  0  0  0  0  0999 V2000
   20.6910  -29.0920   12.8640 N   0  0  0  0  0  0  0  0  0  0  0  0
   19.5780  -29.2600   14.1250 S   0  0  0  0  0  0  0  0  0  0  0  0
   19.8130  -30.5740   14.6920 O   0  0  0  0  0  0  0  0  0  0  0  0
   18.2920  -28.9010   13.5740 O   0  0  0  0  0  0  0  0  0  0  0  0
   20.1070  -28.0190   15.2630 C   0  0  0  0  0  0  0  0  0  0  0  0
   20.4020  -26.6040   14.8360 C   0  0  0  0  0  0  0  0  0  0  0  0
   20.8230  -25.6140   15.7170 C   0  0  0  0  0  0  0  0  0  0  0  0
   20.9900  -25.8900   17.0720 C   0  0  0  0  0  0  0  0  0  0  0  0
   21.4020  -24.9090   17.9140 N   0  0  0  0  0  0  0  0  0  0  0  0
   22.2640  -23.8300   17.3240 C   0  0  0  0  0  0  0  0  0  0  0  0
   22.1820  -22.7230   18.2020 C   0  0  0  0  0  0  0  0  0  0  0  0
   22.3760  -23.1090   19.6730 C   0  0  0  0  0  0  0  0  0  0  0  0
   23.1930  -22.3580   20.4720 N   0  0  0  0  0  0  0  0  0  0  0  0
   22.9740  -22.4360   21.8220 C   0  0  0  0  0  0  0  0  0  0  0  0
   23.0750  -21.1620   22.6890 C   0  0  0  0  0  0  0  0  0  0  0  0
   22.2770  -21.1100   23.9500 C   0  0  0  0  0  0  0  0  0  0  0  0
   22.4240  -19.8050   24.6670 C   0  0  0  0  0  0  0  0  0  0  0  0
   23.2870  -18.9340   23.9940 C   0  0  0  0  0  0  0  0  0  0  0  0
   23.6980  -17.1830   24.6180 Br  0  0  0  0  0  0  0  0  0  0  0  0
   23.9300  -19.6410   22.5300 S   0  0  0  0  0  0  0  0  0  0  0  0
   22.7390  -24.4560   19.8410 C   0  0  0  0  0  0  0  0  0  0  0  0
   21.8890  -25.4270   19.1740 C   0  0  0  0  0  0  0  0  0  0  0  0
   20.7280  -27.1950   17.5590 C   0  0  0  0  0  0  0  0  0  0  0  0
   20.2720  -28.3020   16.6120 C   0  0  0  0  0  0  0  0  0  0  0  0
  2  1  1  0
  2  3  2  0
  2  4  2  0
  2  5  1  0
  5  6  2  0
  6  7  1  0
  7  8  2  0
  8  9  1  0
  9 10  1  0
 10 11  1  0
 11 12  1  0
 12 13  1  0
 13 14  1  0
 14 15  1  0
 15 16  2  0
 16 17  1  0
 17 18  2  0
 18 19  1  0
 15 20  1  0
 18 20  1  0
 12 21  1  0
  9 22  1  0
 21 22  1  0
  8 23  1  0
  5 24  1  0
 23 24  2  0
M  END
