WAR-XCH-b6889685-60
     RDKit          3D

 30 33  0  0  0  0  0  0  0  0999 V2000
   23.4150  -16.4960   16.1350 C   0  0  0  0  0  0  0  0  0  0  0  0
   22.7510  -16.0910   14.8640 C   0  0  0  0  0  0  0  0  0  0  0  0
   21.8910  -15.4490   14.1160 C   0  0  0  0  0  0  0  0  0  0  0  0
   21.1440  -14.9250   13.1720 C   0  0  0  0  0  0  0  0  0  0  0  0
   20.3870  -14.1720   13.9890 C   0  0  0  0  0  0  0  0  0  0  0  0
   20.7600  -14.3500   15.3930 C   0  0  0  0  0  0  0  0  0  0  0  0
   19.8140  -13.3600   16.2470 C   0  0  1  0  0  0  0  0  0  0  0  0
   19.4110  -13.8130   14.9320 C   0  0  0  0  0  0  0  0  0  0  0  0
   20.7970  -14.5360   14.9950 C   0  0  0  0  0  0  0  0  0  0  0  0
   21.1810  -14.6110   16.6560 C   0  0  0  0  0  0  0  0  0  0  0  0
   20.2010  -13.6460   17.5600 C   0  0  1  0  0  0  0  0  0  0  0  0
   20.3560  -11.7530   19.5990 N   0  0  0  0  0  0  0  0  0  0  0  0
   19.3360  -11.7320   20.5480 C   0  0  0  0  0  0  0  0  0  0  0  0
   21.1580  -10.5800   19.8630 C   0  0  0  0  0  0  0  0  0  0  0  0
   21.4800   -9.9250   21.2880 C   0  0  0  0  0  0  0  0  0  0  0  0
   20.0720   -9.5540   20.9060 C   0  0  0  0  0  0  0  0  0  0  0  0
   19.2160   -8.3740   20.5470 N   0  0  0  0  0  0  0  0  0  0  0  0
   17.5310   -6.8190   20.7860 C   0  0  0  0  0  0  0  0  0  0  0  0
   16.1450   -6.2820   19.9680 C   0  0  0  0  0  0  0  0  0  0  0  0
   15.1180   -5.4620   20.0680 C   0  0  0  0  0  0  0  0  0  0  0  0
   14.8970   -4.7820   20.9850 C   0  0  0  0  0  0  0  0  0  0  0  0
   13.4770   -3.6520   20.9780 S   0  0  0  0  0  0  0  0  0  0  0  0
   12.5180   -4.3360   19.8260 N   0  0  0  0  0  0  0  0  0  0  0  0
   12.8810   -3.4300   22.2610 O   0  0  0  0  0  0  0  0  0  0  0  0
   13.7860   -2.3510   20.4880 O   0  0  0  0  0  0  0  0  0  0  0  0
   15.9030   -5.0510   21.8920 C   0  0  0  0  0  0  0  0  0  0  0  0
   17.0590   -5.9440   21.8230 C   0  0  0  0  0  0  0  0  0  0  0  0
   19.6780   -9.7080   19.9030 C   0  0  0  0  0  0  0  0  0  0  0  0
   20.2460  -10.1940   20.7300 C   0  0  0  0  0  0  0  0  0  0  0  0
   21.9030  -15.3160   15.7790 C   0  0  0  0  0  0  0  0  0  0  0  0
  1  2  1  0
  2  3  2  0
  3  4  1  0
  4  5  2  0
  5  6  1  0
  7  6  1  6
  7  8  1  0
  8  9  1  0
  9 10  1  0
  7 11  1  0
 10 11  1  0
 11 12  1  6
 12 13  1  0
 12 14  1  0
 14 15  1  0
 15 16  1  0
 16 17  1  0
 17 18  1  0
 18 19  2  0
 19 20  1  0
 20 21  2  0
 21 22  1  0
 22 23  1  0
 22 24  2  0
 22 25  2  0
 21 26  1  0
 18 27  1  0
 26 27  2  0
 17 28  1  0
 14 29  1  0
 28 29  1  0
  2 30  1  0
  6 30  2  0
M  END
