WAR-XCH-bdd24732-11
     RDKit          3D

 26 29  0  0  0  0  0  0  0  0999 V2000
    5.5580   -5.6120   28.7880 C   0  0  0  0  0  0  0  0  0  0  0  0
    6.6710   -4.8980   28.0700 C   0  0  0  0  0  0  0  0  0  0  0  0
    8.0290   -5.6620   27.8600 C   0  0  0  0  0  0  0  0  0  0  0  0
    9.2740   -4.9300   27.1120 C   0  0  0  0  0  0  0  0  0  0  0  0
   10.4700   -5.5310   26.9580 F   0  0  0  0  0  0  0  0  0  0  0  0
    9.0660   -3.4990   26.5950 C   0  0  0  0  0  0  0  0  0  0  0  0
    7.6520   -3.1710   27.0070 C   0  0  0  0  0  0  0  0  0  0  0  0
    8.2170   -4.6110   27.2550 C   0  0  0  0  0  0  0  0  0  0  0  0
    9.1510   -4.8720   26.1090 C   0  0  0  0  0  0  0  0  0  0  0  0
    9.9610   -6.1000   25.7630 C   0  0  0  0  0  0  0  0  0  0  0  0
   10.2320   -5.1070   24.8330 C   0  0  0  0  0  0  0  0  0  0  0  0
    9.3740   -4.0230   24.9410 C   0  0  0  0  0  0  0  0  0  0  0  0
    8.8520   -3.4360   23.8130 C   0  0  0  0  0  0  0  0  0  0  0  0
    9.3320   -2.3700   23.2410 N   0  0  0  0  0  0  0  0  0  0  0  0
    8.3320   -2.7840   22.6320 C   0  0  0  0  0  0  0  0  0  0  0  0
    8.8750   -1.6060   21.9720 C   0  0  0  0  0  0  0  0  0  0  0  0
    9.9920   -1.2280   22.7020 C   0  0  0  0  0  0  0  0  0  0  0  0
    8.6840   -0.6470   20.8140 C   0  0  0  0  0  0  0  0  0  0  0  0
    7.5070   -1.4040   20.3800 C   0  0  0  0  0  0  0  0  0  0  0  0
    6.8730   -2.4370   20.8060 N   0  0  0  0  0  0  0  0  0  0  0  0
    7.2530   -3.2310   21.9740 C   0  0  0  0  0  0  0  0  0  0  0  0
    7.6810   -3.9560   23.1220 N   0  0  0  0  0  0  0  0  0  0  0  0
    9.5250   -6.9070   26.8170 C   0  0  0  0  0  0  0  0  0  0  0  0
    8.5280   -6.6100   28.0180 C   0  0  0  0  0  0  0  0  0  0  0  0
    7.8960   -5.4330   28.2330 N   0  0  0  0  0  0  0  0  0  0  0  0
    6.5320   -3.6240   27.6270 C   0  0  0  0  0  0  0  0  0  0  0  0
  1  2  1  0
  2  3  2  0
  3  4  1  0
  4  5  1  0
  4  6  2  0
  6  7  1  0
  7  8  1  0
  8  9  2  0
  9 10  1  0
 10 11  1  0
 11 12  1  0
 12 13  1  0
 13 14  2  0
 14 15  1  0
 15 16  2  0
 16 17  1  0
 16 18  1  0
 18 19  2  0
 19 20  1  0
 15 21  1  0
 20 21  2  0
 13 22  1  0
 21 22  1  0
 10 23  2  0
 23 24  1  0
  8 25  1  0
 24 25  2  0
  2 26  1  0
  7 26  2  0
M  END
