WAR-XCH-b0339bbe-21
     RDKit          3D

 29 32  0  0  0  0  0  0  0  0999 V2000
    6.5870   -0.8260   21.0260 O   0  0  0  0  0  0  0  0  0  0  0  0
    7.3300   -1.7800   20.8470 C   0  0  0  0  0  0  0  0  0  0  0  0
    8.2290   -2.9440   21.1000 C   0  0  0  0  0  0  0  0  0  0  0  0
    7.4950   -4.2180   21.5820 C   0  0  0  0  0  0  0  0  0  0  0  0
    5.9850   -4.4650   21.2790 C   0  0  0  0  0  0  0  0  0  0  0  0
    5.4140   -5.8370   21.8600 C   0  0  0  0  0  0  0  0  0  0  0  0
    6.3910   -6.7920   22.6540 C   0  0  0  0  0  0  0  0  0  0  0  0
    7.7470   -6.5680   22.9230 N   0  0  0  0  0  0  0  0  0  0  0  0
    8.0390   -5.3500   22.3510 C   0  0  0  0  0  0  0  0  0  0  0  0
    7.3990   -1.8840   22.2350 N   0  0  0  0  0  0  0  0  0  0  0  0
    6.2360   -2.5180   22.8770 C   0  0  1  0  0  0  0  0  0  0  0  0
    6.4210   -3.8340   23.6200 C   0  0  0  0  0  0  0  0  0  0  0  0
    5.3730   -4.1580   24.4840 C   0  0  0  0  0  0  0  0  0  0  0  0
    4.1830   -3.5770   24.0560 C   0  0  2  0  0  0  0  0  0  0  0  0
    3.8760   -4.1640   22.7870 O   0  0  0  0  0  0  0  0  0  0  0  0
    4.2090   -2.1960   23.8310 C   0  0  0  0  0  0  0  0  0  0  0  0
    5.4390   -1.5970   23.5460 C   0  0  0  0  0  0  0  0  0  0  0  0
    8.6430   -1.7850   22.8480 C   0  0  0  0  0  0  0  0  0  0  0  0
    8.7200   -2.7650   23.8540 C   0  0  0  0  0  0  0  0  0  0  0  0
    9.5060   -3.8830   23.6120 C   0  0  0  0  0  0  0  0  0  0  0  0
    9.5920   -4.9770   24.6710 C   0  0  0  0  0  0  0  0  0  0  0  0
    8.9190   -4.9180   25.8790 C   0  0  0  0  0  0  0  0  0  0  0  0
    8.1260   -3.7860   26.1300 C   0  0  0  0  0  0  0  0  0  0  0  0
    8.0060   -2.6440   25.0880 C   0  0  0  0  0  0  0  0  0  0  0  0
    8.7760   -0.3380   23.4750 C   0  0  0  0  0  0  0  0  0  0  0  0
    9.9850    0.4060   22.8690 C   0  0  0  0  0  0  0  0  0  0  0  0
   11.2460   -0.2340   23.0060 C   0  0  0  0  0  0  0  0  0  0  0  0
   11.1960   -1.5330   22.2110 C   0  0  0  0  0  0  0  0  0  0  0  0
    9.7710   -1.8320   21.7590 C   0  0  0  0  0  0  0  0  0  0  0  0
  1  2  2  0
  2  3  1  0
  3  4  1  0
  4  5  2  0
  5  6  1  0
  6  7  2  0
  7  8  1  0
  4  9  1  0
  8  9  2  0
  2 10  1  0
 11 10  1  1
 11 12  1  0
 12 13  1  0
 13 14  1  0
 14 15  1  6
 14 16  1  0
 11 17  1  0
 16 17  1  0
 18 10  1  0
 18 19  1  0
 19 20  2  0
 20 21  1  0
 21 22  2  0
 22 23  1  0
 19 24  1  0
 23 24  2  0
 18 25  1  0
 25 26  1  0
 26 27  1  0
 27 28  1  0
 18 29  1  0
 28 29  1  0
M  END
