WAR-XCH-e55cba98-2
     RDKit          3D

 29 32  0  0  0  0  0  0  0  0999 V2000
    9.8640   -5.3590   26.1390 C   0  0  0  0  0  0  0  0  0  0  0  0
    8.7570   -4.5590   25.4770 C   0  0  0  0  0  0  0  0  0  0  0  0
    7.5770   -4.6610   25.8220 O   0  0  0  0  0  0  0  0  0  0  0  0
    9.2060   -3.6570   24.4020 N   0  0  0  0  0  0  0  0  0  0  0  0
    9.6430   -2.3310   24.8550 C   0  0  0  0  0  0  0  0  0  0  0  0
   10.3230   -1.4750   24.0020 C   0  0  0  0  0  0  0  0  0  0  0  0
   10.0170   -0.1140   24.0540 C   0  0  0  0  0  0  0  0  0  0  0  0
    8.8940    0.5860   24.4600 C   0  0  0  0  0  0  0  0  0  0  0  0
    8.9880    1.9610   24.3440 N   0  0  0  0  0  0  0  0  0  0  0  0
   10.3440    2.2450   23.7990 C   0  0  0  0  0  0  0  0  0  0  0  0
   10.9890    3.5990   23.4760 C   0  0  0  0  0  0  0  0  0  0  0  0
   10.2660    5.0070   23.6540 C   0  0  0  0  0  0  0  0  0  0  0  0
   10.1600    5.5170   25.0850 C   0  0  0  0  0  0  0  0  0  0  0  0
   10.5000    6.9620   25.4890 C   0  0  0  0  0  0  0  0  0  0  0  0
   10.8510    7.0900   26.9820 C   0  0  0  0  0  0  0  0  0  0  0  0
   12.1910    7.7190   27.3110 C   0  0  0  0  0  0  0  0  0  0  0  0
   12.5290    7.8180   28.7930 C   0  0  0  0  0  0  0  0  0  0  0  0
   11.5700    7.3220   29.6800 C   0  0  0  0  0  0  0  0  0  0  0  0
   10.3580    6.7670   29.2280 C   0  0  0  0  0  0  0  0  0  0  0  0
    9.9680    6.6370   27.9360 N   0  0  0  0  0  0  0  0  0  0  0  0
   11.0050    6.1440   22.9450 C   0  0  0  0  0  0  0  0  0  0  0  0
    9.9700    7.0540   22.8050 C   0  0  0  0  0  0  0  0  0  0  0  0
    8.7590    6.4000   22.7500 C   0  0  0  0  0  0  0  0  0  0  0  0
    9.0120    5.0550   22.9630 C   0  0  0  0  0  0  0  0  0  0  0  0
   12.2770    3.4740   22.9770 C   0  0  0  0  0  0  0  0  0  0  0  0
   12.8910    2.1860   22.7700 C   0  0  0  0  0  0  0  0  0  0  0  0
   14.1100    2.1120   22.2420 F   0  0  0  0  0  0  0  0  0  0  0  0
   12.2650    0.9640   23.0870 C   0  0  0  0  0  0  0  0  0  0  0  0
   10.9810    1.0120   23.6070 C   0  0  0  0  0  0  0  0  0  0  0  0
  1  2  1  0
  2  3  2  0
  2  4  1  0
  4  5  1  0
  5  6  1  0
  6  7  1  0
  7  8  2  0
  8  9  1  0
  9 10  1  0
 10 11  1  0
 11 12  1  0
 12 13  1  0
 13 14  3  0
 14 15  1  0
 15 16  2  0
 16 17  1  0
 17 18  2  0
 18 19  1  0
 15 20  1  0
 19 20  2  0
 12 21  1  0
 21 22  1  0
 22 23  1  0
 12 24  1  0
 23 24  1  0
 11 25  2  0
 25 26  1  0
 26 27  1  0
 26 28  2  0
  7 29  1  0
 10 29  2  0
 28 29  1  0
M  END
