WAR-XCH-72a8c209-11-acrylamide
     RDKit          3D

 30 32  0  0  0  0  0  0  0  0999 V2000
    6.0830   -5.5630   20.1450 C   0  0  0  0  0  0  0  0  0  0  0  0
    6.0350   -6.1710   21.5250 C   0  0  0  0  0  0  0  0  0  0  0  0
    5.5030   -5.2540   22.5740 C   0  0  0  0  0  0  0  0  0  0  0  0
    4.3590   -4.7530   22.4500 O   0  0  0  0  0  0  0  0  0  0  0  0
    6.4450   -4.9870   23.7230 C   0  0  0  0  0  0  0  0  0  0  0  0
    7.7080   -5.3580   24.0930 C   0  0  0  0  0  0  0  0  0  0  0  0
    8.1720   -6.2020   23.0970 C   0  0  0  0  0  0  0  0  0  0  0  0
    8.8480   -5.7460   24.3480 C   0  0  0  0  0  0  0  0  0  0  0  0
    7.9160   -4.8650   25.0450 C   0  0  0  0  0  0  0  0  0  0  0  0
    6.5890   -4.3190   24.8940 C   0  0  0  0  0  0  0  0  0  0  0  0
    5.7510   -3.3840   25.7370 C   0  0  0  0  0  0  0  0  0  0  0  0
    5.8810   -1.9590   25.3010 N   0  0  0  0  0  0  0  0  0  0  0  0
    5.0840   -1.0980   26.1090 C   0  0  2  0  0  0  0  0  0  0  0  0
    3.8130   -1.8250   26.5800 C   0  0  0  0  0  0  0  0  0  0  0  0
    2.7030   -0.7690   26.5660 C   0  0  0  0  0  0  0  0  0  0  0  0
    3.0020    0.5650   26.8740 C   0  0  1  0  0  0  0  0  0  0  0  0
    2.9130    0.7140   28.0930 O   0  0  0  0  0  0  0  0  0  0  0  0
    4.3730    1.0480   26.4490 C   0  0  0  0  0  0  0  0  0  0  0  0
    4.9410    0.1630   25.5180 C   0  0  0  0  0  0  0  0  0  0  0  0
    5.8820   -1.8140   23.8820 C   0  0  0  0  0  0  0  0  0  0  0  0
    7.1450   -1.9370   23.2670 C   0  0  0  0  0  0  0  0  0  0  0  0
    7.1410   -1.5180   21.9180 C   0  0  0  0  0  0  0  0  0  0  0  0
    6.0050   -2.1540   21.2770 N   0  0  0  0  0  0  0  0  0  0  0  0
    5.7980   -2.0550   19.8200 C   0  0  0  0  0  0  0  0  0  0  0  0
    5.2380   -2.8930   19.1110 O   0  0  0  0  0  0  0  0  0  0  0  0
    6.3440   -0.7850   19.1780 C   0  0  0  0  0  0  0  0  0  0  0  0
    7.5050   -0.8060   18.5040 N   0  0  0  0  0  0  0  0  0  0  0  0
    5.7270    0.2620   19.2820 O   0  0  0  0  0  0  0  0  0  0  0  0
    5.4510   -3.2420   22.0490 C   0  0  0  0  0  0  0  0  0  0  0  0
    4.9220   -2.8120   23.2360 C   0  0  0  0  0  0  0  0  0  0  0  0
  1  2  1  0
  2  3  1  0
  3  4  2  0
  3  5  1  0
  5  6  2  0
  6  7  1  0
  7  8  2  0
  8  9  1  0
  5 10  1  0
  9 10  2  0
 10 11  1  0
 11 12  1  0
 13 12  1  6
 13 14  1  0
 14 15  1  0
 15 16  1  0
 16 17  1  1
 16 18  1  0
 13 19  1  0
 18 19  1  0
 12 20  1  0
 20 21  1  0
 21 22  1  0
 22 23  1  0
 23 24  1  0
 24 25  2  0
 24 26  1  0
 26 27  1  0
 26 28  2  0
 23 29  1  0
 20 30  1  0
 29 30  1  0
M  END
