WAR-XCH-b0339bbe-19-chloroacetamide
     RDKit          3D

 25 28  0  0  0  0  0  0  0  0999 V2000
    7.2960   -3.4770   19.6360 C   0  0  0  0  0  0  0  0  0  0  0  0
    6.5290   -4.4530   20.4890 C   0  0  0  0  0  0  0  0  0  0  0  0
    5.5390   -5.0390   20.0350 O   0  0  0  0  0  0  0  0  0  0  0  0
    6.9860   -4.7130   21.7630 N   0  0  0  0  0  0  0  0  0  0  0  0
    6.8810   -5.9900   22.5460 C   0  0  0  0  0  0  0  0  0  0  0  0
    6.1240   -5.4640   23.7970 C   0  0  0  0  0  0  0  0  0  0  0  0
    7.2870   -4.9940   24.6890 C   0  0  0  0  0  0  0  0  0  0  0  0
    6.5020   -3.8740   25.3290 C   0  0  0  0  0  0  0  0  0  0  0  0
    5.9520   -3.0530   24.3580 N   0  0  0  0  0  0  0  0  0  0  0  0
    5.1960   -1.9590   24.9270 C   0  0  0  0  0  0  0  0  0  0  0  0
    5.2680   -2.1080   23.4860 C   0  0  0  0  0  0  0  0  0  0  0  0
    5.9820   -1.3120   22.4820 C   0  0  0  0  0  0  0  0  0  0  0  0
    5.9370   -1.7320   21.1810 C   0  0  0  0  0  0  0  0  0  0  0  0
    5.2400   -2.8680   20.7770 C   0  0  0  0  0  0  0  0  0  0  0  0
    4.5250   -3.6860   21.6520 N   0  0  0  0  0  0  0  0  0  0  0  0
    4.5870   -3.2250   23.0300 C   0  0  0  0  0  0  0  0  0  0  0  0
    5.6590   -2.6520   25.9270 N   0  0  0  0  0  0  0  0  0  0  0  0
    5.5670   -2.5710   27.1390 C   0  0  0  0  0  0  0  0  0  0  0  0
    5.6300   -2.7250   28.4510 C   0  0  0  0  0  0  0  0  0  0  0  0
    6.2490   -3.7030   29.0980 C   0  0  0  0  0  0  0  0  0  0  0  0
    7.0040   -4.8160   28.8430 C   0  0  0  0  0  0  0  0  0  0  0  0
    7.1070   -4.8350   27.3210 C   0  0  0  0  0  0  0  0  0  0  0  0
    6.3820   -3.7450   26.7530 C   0  0  0  0  0  0  0  0  0  0  0  0
    8.4180   -4.5050   23.7350 C   0  0  0  0  0  0  0  0  0  0  0  0
    7.7600   -3.7590   22.5580 C   0  0  0  0  0  0  0  0  0  0  0  0
  1  2  1  0
  2  3  2  0
  2  4  1  0
  4  5  1  0
  5  6  1  0
  6  7  1  0
  7  8  1  0
  8  9  2  0
  9 10  1  0
 10 11  1  0
 11 12  2  0
 12 13  1  0
 13 14  2  0
 14 15  1  0
 11 16  1  0
 15 16  2  0
 10 17  2  0
 17 18  1  0
 18 19  1  0
 19 20  2  0
 20 21  1  0
 21 22  2  0
  8 23  1  0
 18 23  2  0
 22 23  1  0
  7 24  1  0
  4 25  1  0
 24 25  1  0
M  END
