WAR-XCH-b0339bbe-18-acrylamide
     RDKit          3D

 20 21  0  0  0  0  0  0  0  0999 V2000
    7.3240   -3.0840   19.1640 C   0  0  0  0  0  0  0  0  0  0  0  0
    6.8340   -2.9750   20.6010 C   0  0  0  0  0  0  0  0  0  0  0  0
    5.6050   -3.8350   20.8740 C   0  0  0  0  0  0  0  0  0  0  0  0
    5.1950   -4.6100   19.9980 O   0  0  0  0  0  0  0  0  0  0  0  0
    4.9650   -3.7310   22.1390 N   0  0  0  0  0  0  0  0  0  0  0  0
    4.0060   -4.7130   22.7740 C   0  0  0  0  0  0  0  0  0  0  0  0
    4.3450   -4.8410   24.2570 C   0  0  0  0  0  0  0  0  0  0  0  0
    5.7770   -4.6810   23.8990 C   0  0  0  0  0  0  0  0  0  0  0  0
    6.6660   -5.6680   24.2930 N   0  0  0  0  0  0  0  0  0  0  0  0
    7.0320   -6.3520   23.0050 C   0  0  0  0  0  0  0  0  0  0  0  0
    7.6300   -5.3190   22.1220 C   0  0  0  0  0  0  0  0  0  0  0  0
    8.7680   -4.6710   22.7660 N   0  0  0  0  0  0  0  0  0  0  0  0
    8.8780   -3.2000   22.5660 C   0  0  0  0  0  0  0  0  0  0  0  0
    7.9470   -2.4130   22.6800 O   0  0  0  0  0  0  0  0  0  0  0  0
   10.1550   -2.7140   22.2380 C   0  0  0  0  0  0  0  0  0  0  0  0
   10.4280   -1.0170   22.4290 Cl  0  0  0  0  0  0  0  0  0  0  0  0
    8.9840   -5.3040   24.0780 C   0  0  0  0  0  0  0  0  0  0  0  0
    7.8810   -5.1430   24.9330 C   0  0  0  0  0  0  0  0  0  0  0  0
    6.0920   -3.2130   24.0780 C   0  0  0  0  0  0  0  0  0  0  0  0
    5.4080   -2.6800   22.9870 C   0  0  0  0  0  0  0  0  0  0  0  0
  1  2  1  0
  2  3  1  0
  3  4  2  0
  3  5  1  0
  5  6  1  0
  6  7  1  0
  7  8  1  0
  8  9  1  0
  9 10  1  0
 10 11  1  0
 11 12  1  0
 12 13  1  0
 13 14  2  0
 13 15  1  0
 15 16  1  0
 12 17  1  0
  9 18  1  0
 17 18  1  0
  8 19  1  0
  5 20  1  0
 19 20  1  0
M  END
