WAR-XCH-b6889685-48
     RDKit          3D

 26 28  0  0  0  0  0  0  0  0999 V2000
   21.6090  -23.0880   22.3410 C   0  0  0  0  0  0  0  0  0  0  0  0
   22.9430  -22.5140   21.9360 C   0  0  1  0  0  0  0  0  0  0  0  0
   23.1020  -22.2780   20.5550 N   0  0  0  0  0  0  0  0  0  0  0  0
   22.9340  -23.2690   19.4720 C   0  0  0  0  0  0  0  0  0  0  0  0
   22.2500  -22.7530   18.3730 C   0  0  0  0  0  0  0  0  0  0  0  0
   21.5900  -23.6220   17.4950 C   0  0  0  0  0  0  0  0  0  0  0  0
   21.3840  -24.9740   17.7970 N   0  0  0  0  0  0  0  0  0  0  0  0
   20.8680  -25.9250   16.7970 C   0  0  0  0  0  0  0  0  0  0  0  0
   21.0030  -25.6800   15.3030 C   0  0  0  0  0  0  0  0  0  0  0  0
   20.4410  -26.7460   14.3520 C   0  0  0  0  0  0  0  0  0  0  0  0
   19.7670  -28.0280   14.8560 C   0  0  0  0  0  0  0  0  0  0  0  0
   19.1450  -29.2390   13.7840 S   0  0  0  0  0  0  0  0  0  0  0  0
   19.7850  -30.6440   14.4440 N   0  0  0  0  0  0  0  0  0  0  0  0
   19.7620  -29.0860   12.4810 O   0  0  0  0  0  0  0  0  0  0  0  0
   17.7140  -29.3240   13.9470 O   0  0  0  0  0  0  0  0  0  0  0  0
   19.6950  -28.1470   16.3850 C   0  0  0  0  0  0  0  0  0  0  0  0
   20.2610  -27.0620   17.2910 C   0  0  0  0  0  0  0  0  0  0  0  0
   22.0460  -25.4940   18.8810 C   0  0  0  0  0  0  0  0  0  0  0  0
   22.2410  -24.5200   20.0220 C   0  0  0  0  0  0  0  0  0  0  0  0
   23.0870  -21.1890   22.6850 C   0  0  0  0  0  0  0  0  0  0  0  0
   24.0830  -20.1520   22.2110 C   0  0  0  0  0  0  0  0  0  0  0  0
   24.1400  -18.8440   22.9690 C   0  0  0  0  0  0  0  0  0  0  0  0
   23.2430  -18.6900   24.0890 C   0  0  0  0  0  0  0  0  0  0  0  0
   23.2820  -17.5300   24.7640 F   0  0  0  0  0  0  0  0  0  0  0  0
   22.3470  -19.6850   24.4940 C   0  0  0  0  0  0  0  0  0  0  0  0
   22.2930  -20.8950   23.7920 C   0  0  0  0  0  0  0  0  0  0  0  0
  2  1  1  6
  2  3  1  0
  3  4  1  0
  4  5  1  0
  5  6  1  0
  6  7  1  0
  7  8  1  0
  8  9  2  0
  9 10  1  0
 10 11  2  0
 11 12  1  0
 12 13  1  0
 12 14  2  0
 12 15  2  0
 11 16  1  0
  8 17  1  0
 16 17  2  0
  7 18  1  0
  4 19  1  0
 18 19  1  0
  2 20  1  0
 20 21  2  0
 21 22  1  0
 22 23  2  0
 23 24  1  0
 23 25  1  0
 20 26  1  0
 25 26  2  0
M  END
