WAR-XCH-bdd24732-25-chloroacetamide
     RDKit          3D

 27 30  0  0  0  0  0  0  0  0999 V2000
    7.0950   -3.0530   18.8990 C   0  0  0  0  0  0  0  0  0  0  0  0
    6.1450   -3.5060   19.9660 C   0  0  0  0  0  0  0  0  0  0  0  0
    5.3040   -4.3790   19.8040 O   0  0  0  0  0  0  0  0  0  0  0  0
    6.2450   -2.8960   21.2010 N   0  0  0  0  0  0  0  0  0  0  0  0
    6.9920   -1.6220   21.2250 C   0  0  0  0  0  0  0  0  0  0  0  0
    8.3550   -1.8470   21.8090 C   0  0  0  0  0  0  0  0  0  0  0  0
    8.4180   -1.6130   23.1820 C   0  0  0  0  0  0  0  0  0  0  0  0
    7.6120   -2.3390   24.0740 N   0  0  0  0  0  0  0  0  0  0  0  0
    7.5200   -2.0460   25.4170 C   0  0  0  0  0  0  0  0  0  0  0  0
    7.7200   -3.1840   26.2190 C   0  0  0  0  0  0  0  0  0  0  0  0
    8.8250   -4.0160   26.0120 C   0  0  0  0  0  0  0  0  0  0  0  0
    9.0740   -5.1560   26.7830 C   0  0  0  0  0  0  0  0  0  0  0  0
    8.2210   -5.5850   27.8640 N   0  0  0  0  0  0  0  0  0  0  0  0
    7.1410   -4.7990   28.0950 C   0  0  0  0  0  0  0  0  0  0  0  0
    6.8360   -3.5410   27.2710 C   0  0  0  0  0  0  0  0  0  0  0  0
    5.7330   -2.8090   27.5790 N   0  0  0  0  0  0  0  0  0  0  0  0
    5.0600   -2.7710   28.7550 C   0  0  0  0  0  0  0  0  0  0  0  0
    4.7210   -1.7250   29.6340 C   0  0  0  0  0  0  0  0  0  0  0  0
    4.0240   -2.1280   30.7350 C   0  0  0  0  0  0  0  0  0  0  0  0
    3.7340   -3.4360   30.8730 C   0  0  0  0  0  0  0  0  0  0  0  0
    4.3950   -4.3150   29.4840 S   0  0  0  0  0  0  0  0  0  0  0  0
    3.0350   -4.0330   31.9210 C   0  0  0  0  0  0  0  0  0  0  0  0
    2.3690   -3.2210   32.8900 C   0  0  0  0  0  0  0  0  0  0  0  0
    3.1640   -2.0790   33.0110 C   0  0  0  0  0  0  0  0  0  0  0  0
    3.5610   -1.2960   31.7750 C   0  0  0  0  0  0  0  0  0  0  0  0
    6.4600   -2.9410   23.5890 C   0  0  0  0  0  0  0  0  0  0  0  0
    6.6280   -3.7340   22.3250 C   0  0  0  0  0  0  0  0  0  0  0  0
  1  2  1  0
  2  3  2  0
  2  4  1  0
  4  5  1  0
  5  6  1  0
  6  7  1  0
  7  8  1  0
  8  9  1  0
  9 10  1  0
 10 11  2  0
 11 12  1  0
 12 13  2  0
 13 14  1  0
 10 15  1  0
 14 15  2  0
 15 16  1  0
 16 17  1  0
 17 18  2  0
 18 19  1  0
 19 20  2  0
 17 21  1  0
 20 21  1  0
 20 22  1  0
 22 23  1  0
 23 24  1  0
 19 25  1  0
 24 25  1  0
  8 26  1  0
  4 27  1  0
 26 27  1  0
M  END
