WAR-XCH-b6889685-39
     RDKit          3D

 28 31  0  0  0  0  0  0  0  0999 V2000
   25.4890  -13.1120   23.9170 N   0  0  0  0  0  0  0  0  0  0  0  0
   24.1610  -13.4390   24.9060 S   0  0  0  0  0  0  0  0  0  0  0  0
   23.0450  -12.6510   24.4250 O   0  0  0  0  0  0  0  0  0  0  0  0
   24.6690  -13.3770   26.2510 O   0  0  0  0  0  0  0  0  0  0  0  0
   23.9310  -15.1240   24.5890 C   0  0  0  0  0  0  0  0  0  0  0  0
   23.6240  -16.0700   25.7080 C   0  0  0  0  0  0  0  0  0  0  0  0
   23.4630  -17.4190   25.4970 C   0  0  0  0  0  0  0  0  0  0  0  0
   23.5850  -17.9260   24.2270 C   0  0  0  0  0  0  0  0  0  0  0  0
   23.4550  -19.2440   24.0700 N   0  0  0  0  0  0  0  0  0  0  0  0
   22.0880  -19.8090   24.1720 C   0  0  0  0  0  0  0  0  0  0  0  0
   22.2620  -21.2120   24.0580 C   0  0  0  0  0  0  0  0  0  0  0  0
   23.1720  -21.6770   22.9090 C   0  0  0  0  0  0  0  0  0  0  0  0
   22.5960  -22.0440   21.7180 N   0  0  0  0  0  0  0  0  0  0  0  0
   23.3350  -22.5130   20.6630 C   0  0  0  0  0  0  0  0  0  0  0  0
   22.6760  -23.2670   19.5100 C   0  0  0  0  0  0  0  0  0  0  0  0
   22.1250  -24.6390   19.8380 C   0  0  0  0  0  0  0  0  0  0  0  0
   21.4800  -25.4290   18.7190 C   0  0  0  0  0  0  0  0  0  0  0  0
   21.4080  -24.8850   17.4320 C   0  0  0  0  0  0  0  0  0  0  0  0
   21.9690  -23.4950   17.0990 C   0  0  0  0  0  0  0  0  0  0  0  0
   22.5790  -22.7670   18.2080 C   0  0  0  0  0  0  0  0  0  0  0  0
   24.1200  -21.3350   20.0970 C   0  0  0  0  0  0  0  0  0  0  0  0
   25.5540  -21.6900   19.7960 C   0  0  0  0  0  0  0  0  0  0  0  0
   25.6360  -23.0410   20.2760 C   0  0  0  0  0  0  0  0  0  0  0  0
   24.6030  -23.2820   21.1940 C   0  0  0  0  0  0  0  0  0  0  0  0
   24.3020  -20.8780   22.6710 C   0  0  0  0  0  0  0  0  0  0  0  0
   24.0510  -19.5360   22.7500 C   0  0  0  0  0  0  0  0  0  0  0  0
   23.8580  -17.1060   23.1190 C   0  0  0  0  0  0  0  0  0  0  0  0
   24.0430  -15.6010   23.3000 C   0  0  0  0  0  0  0  0  0  0  0  0
  2  1  1  0
  2  3  2  0
  2  4  2  0
  2  5  1  0
  5  6  2  0
  6  7  1  0
  7  8  2  0
  8  9  1  0
  9 10  1  0
 10 11  1  0
 11 12  1  0
 12 13  1  0
 14 13  1  0
 14 15  1  0
 15 16  2  0
 16 17  1  0
 17 18  2  0
 18 19  1  0
 15 20  1  0
 19 20  2  0
 14 21  1  0
 21 22  1  0
 22 23  1  0
 14 24  1  0
 23 24  1  0
 12 25  1  0
  9 26  1  0
 25 26  1  0
  8 27  1  0
  5 28  1  0
 27 28  2  0
M  END
