WAR-XCH-e55cba98-5
     RDKit          3D

 30 33  0  0  0  0  0  0  0  0999 V2000
    8.4060   -2.2870   21.2170 C   0  0  0  0  0  0  0  0  0  0  0  0
    7.8130   -2.7240   22.5410 C   0  0  0  0  0  0  0  0  0  0  0  0
    6.9240   -3.5790   22.6220 O   0  0  0  0  0  0  0  0  0  0  0  0
    8.3950   -2.0380   23.7000 N   0  0  0  0  0  0  0  0  0  0  0  0
    9.8550   -2.0380   23.6520 C   0  0  0  0  0  0  0  0  0  0  0  0
   10.6180   -1.1500   24.3870 C   0  0  0  0  0  0  0  0  0  0  0  0
   10.2700    0.1890   24.3860 C   0  0  0  0  0  0  0  0  0  0  0  0
    9.2040    0.9050   24.8800 C   0  0  0  0  0  0  0  0  0  0  0  0
    9.2900    2.2630   24.6460 N   0  0  0  0  0  0  0  0  0  0  0  0
   10.5670    2.5000   23.9040 C   0  0  0  0  0  0  0  0  0  0  0  0
   11.1220    3.8450   23.4150 C   0  0  0  0  0  0  0  0  0  0  0  0
   10.3470    5.2010   23.6590 C   0  0  0  0  0  0  0  0  0  0  0  0
    8.8530    4.9030   23.4450 C   0  0  0  0  0  0  0  0  0  0  0  0
    8.1750    4.5830   22.1060 C   0  0  0  0  0  0  0  0  0  0  0  0
    7.0160    5.5220   21.7130 C   0  0  2  0  0  0  0  0  0  0  0  0
    7.4270    6.9820   21.5310 C   0  0  0  0  0  0  0  0  0  0  0  0
    6.3040    7.6690   20.7610 C   0  0  0  0  0  0  0  0  0  0  0  0
    5.2210    7.7920   21.6310 C   0  0  0  0  0  0  0  0  0  0  0  0
    4.9600    6.6410   22.3180 N   0  0  0  0  0  0  0  0  0  0  0  0
    5.9110    5.6780   22.7240 C   0  0  0  0  0  0  0  0  0  0  0  0
   10.1720    5.7080   25.1020 C   0  0  0  0  0  0  0  0  0  0  0  0
   11.4220    6.1010   25.5570 C   0  0  0  0  0  0  0  0  0  0  0  0
   11.7880    7.2340   24.8720 C   0  0  0  0  0  0  0  0  0  0  0  0
   12.0050    6.8170   23.5900 C   0  0  0  0  0  0  0  0  0  0  0  0
   10.9020    6.2820   22.9150 C   0  0  0  0  0  0  0  0  0  0  0  0
   12.3550    3.7120   22.7370 C   0  0  0  0  0  0  0  0  0  0  0  0
   12.9690    2.4380   22.5590 C   0  0  0  0  0  0  0  0  0  0  0  0
   14.1220    2.3700   21.9130 F   0  0  0  0  0  0  0  0  0  0  0  0
   12.4100    1.2420   23.0360 C   0  0  0  0  0  0  0  0  0  0  0  0
   11.2080    1.2500   23.7120 C   0  0  0  0  0  0  0  0  0  0  0  0
  1  2  1  0
  2  3  2  0
  2  4  1  0
  4  5  1  0
  5  6  1  0
  6  7  1  0
  7  8  2  0
  8  9  1  0
  9 10  1  0
 10 11  1  0
 11 12  1  0
 12 13  1  0
 13 14  3  0
 15 14  1  1
 15 16  1  0
 16 17  1  0
 17 18  1  0
 18 19  1  0
 15 20  1  0
 19 20  1  0
 12 21  1  0
 21 22  1  0
 22 23  1  0
 23 24  1  0
 12 25  1  0
 24 25  1  0
 11 26  2  0
 26 27  1  0
 27 28  1  0
 27 29  2  0
  7 30  1  0
 10 30  2  0
 29 30  1  0
M  END
