WAR-XCH-b0339bbe-9
     RDKit          3D

 29 32  0  0  0  0  0  0  0  0999 V2000
    7.1190   -2.7510   20.2680 O   0  0  0  0  0  0  0  0  0  0  0  0
    7.9510   -2.5730   21.1550 C   0  0  0  0  0  0  0  0  0  0  0  0
    9.1300   -1.8720   21.0600 N   0  0  0  0  0  0  0  0  0  0  0  0
   10.3220   -1.9050   21.9660 C   0  0  0  0  0  0  0  0  0  0  0  0
    9.9310   -1.7280   23.4390 C   0  0  0  0  0  0  0  0  0  0  0  0
   11.1420   -1.7540   24.4470 C   0  0  0  0  0  0  0  0  0  0  0  0
   12.6070   -1.9440   23.9970 C   0  0  0  0  0  0  0  0  0  0  0  0
   12.8370   -2.1050   22.4990 C   0  0  0  0  0  0  0  0  0  0  0  0
   11.6280   -2.0730   21.5700 C   0  0  0  0  0  0  0  0  0  0  0  0
    7.8170   -3.0710   22.4240 N   0  0  0  0  0  0  0  0  0  0  0  0
    6.4660   -3.1770   22.9310 C   0  0  0  0  0  0  0  0  0  0  0  0
    5.7530   -4.5080   22.8010 C   0  0  0  0  0  0  0  0  0  0  0  0
    4.3900   -4.6980   23.2960 N   0  0  0  0  0  0  0  0  0  0  0  0
    3.7770   -3.5240   23.9190 C   0  0  0  0  0  0  0  0  0  0  0  0
    4.5090   -2.3380   23.9920 C   0  0  0  0  0  0  0  0  0  0  0  0
    5.8160   -2.0890   23.5340 C   0  0  0  0  0  0  0  0  0  0  0  0
    6.4260   -0.8120   23.6820 C   0  0  0  0  0  0  0  0  0  0  0  0
    6.8950   -0.1900   22.5130 C   0  0  0  0  0  0  0  0  0  0  0  0
    6.0890   -0.2080   21.3640 C   0  0  0  0  0  0  0  0  0  0  0  0
    6.1620    0.8260   20.4240 C   0  0  0  0  0  0  0  0  0  0  0  0
    6.2200    0.3780   18.9660 C   0  0  0  0  0  0  0  0  0  0  0  0
    5.1910    0.9560   18.2690 C   0  0  0  0  0  0  0  0  0  0  0  0
    4.5350    1.8350   19.1340 C   0  0  0  0  0  0  0  0  0  0  0  0
    5.1880    1.8410   20.5550 C   0  0  0  0  0  0  0  0  0  0  0  0
    7.6010   -0.8360   24.7280 C   0  0  0  0  0  0  0  0  0  0  0  0
    7.2130   -0.6140   26.1970 C   0  0  0  0  0  0  0  0  0  0  0  0
    6.3290    0.4480   26.4610 C   0  0  0  0  0  0  0  0  0  0  0  0
    5.0630    0.2830   25.6430 C   0  0  0  0  0  0  0  0  0  0  0  0
    5.3370    0.2170   24.1380 C   0  0  0  0  0  0  0  0  0  0  0  0
  1  2  2  0
  2  3  1  0
  3  4  1  0
  4  5  2  0
  5  6  1  0
  6  7  2  0
  7  8  1  0
  4  9  1  0
  8  9  2  0
  2 10  1  0
 10 11  1  0
 11 12  2  0
 12 13  1  0
 13 14  2  0
 14 15  1  0
 11 16  1  0
 15 16  2  0
 16 17  1  0
 17 18  1  0
 18 19  3  0
 19 20  1  0
 20 21  1  0
 21 22  1  0
 22 23  1  0
 20 24  1  0
 23 24  1  0
 17 25  1  0
 25 26  1  0
 26 27  1  0
 27 28  1  0
 17 29  1  0
 28 29  1  0
M  END
