WAR-XCH-bdd24732-38-vinylsulfonamide
     RDKit          3D

 29 31  0  0  0  0  0  0  0  0999 V2000
    8.6230   -3.8810   20.1600 C   0  0  0  0  0  0  0  0  0  0  0  0
    7.5820   -3.1030   19.3370 C   0  0  0  0  0  0  0  0  0  0  0  0
    5.9270   -3.0400   20.0460 S   0  0  0  0  0  0  0  0  0  0  0  0
    5.3430   -4.2980   20.5510 O   0  0  0  0  0  0  0  0  0  0  0  0
    5.1150   -2.2500   19.1450 O   0  0  0  0  0  0  0  0  0  0  0  0
    6.4580   -1.9830   21.3690 C   0  0  0  0  0  0  0  0  0  0  0  0
    6.0570   -1.2370   20.1850 C   0  0  0  0  0  0  0  0  0  0  0  0
    6.2040   -2.4710   20.7580 C   0  0  0  0  0  0  0  0  0  0  0  0
    6.7660   -2.1210   22.1430 C   0  0  0  0  0  0  0  0  0  0  0  0
    7.0810   -3.0940   23.1060 C   0  0  0  0  0  0  0  0  0  0  0  0
    7.5210   -2.1180   23.9980 N   0  0  0  0  0  0  0  0  0  0  0  0
    8.7080   -1.4410   23.9300 C   0  0  0  0  0  0  0  0  0  0  0  0
    9.7620   -2.2030   23.3880 C   0  0  0  0  0  0  0  0  0  0  0  0
   10.8040   -2.5510   24.4630 C   0  0  0  0  0  0  0  0  0  0  0  0
   12.2580   -2.1450   24.2040 C   0  0  0  0  0  0  0  0  0  0  0  0
   12.5970   -1.9260   22.8520 C   0  0  0  0  0  0  0  0  0  0  0  0
   11.5790   -2.1250   21.9210 C   0  0  0  0  0  0  0  0  0  0  0  0
   10.3500   -1.6010   22.2730 C   0  0  0  0  0  0  0  0  0  0  0  0
    6.6940   -1.9550   25.4950 S   0  0  0  0  0  0  0  0  0  0  0  0
    7.1260   -0.7200   26.0990 O   0  0  0  0  0  0  0  0  0  0  0  0
    5.3040   -2.2490   25.2480 O   0  0  0  0  0  0  0  0  0  0  0  0
    7.3190   -3.3030   26.4560 C   0  0  0  0  0  0  0  0  0  0  0  0
    8.5140   -3.9800   26.1290 C   0  0  0  0  0  0  0  0  0  0  0  0
    9.1480   -5.0630   26.7820 C   0  0  0  0  0  0  0  0  0  0  0  0
    8.4400   -5.4530   27.8790 C   0  0  0  0  0  0  0  0  0  0  0  0
    7.1660   -4.8460   28.3600 C   0  0  0  0  0  0  0  0  0  0  0  0
    6.5900   -3.6910   27.5710 C   0  0  0  0  0  0  0  0  0  0  0  0
    5.4500   -3.1050   27.9530 F   0  0  0  0  0  0  0  0  0  0  0  0
    6.6000   -3.3090   21.9460 C   0  0  0  0  0  0  0  0  0  0  0  0
  1  2  1  0
  3  2  1  0
  3  4  2  0
  3  5  2  0
  3  6  1  0
  6  7  2  0
  7  8  1  0
  8  9  2  0
  9 10  1  0
 10 11  1  0
 11 12  1  0
 12 13  1  0
 13 14  1  0
 14 15  1  0
 15 16  1  0
 16 17  1  0
 13 18  1  0
 17 18  1  0
 19 11  1  0
 19 20  2  0
 19 21  2  0
 19 22  1  0
 22 23  2  0
 23 24  1  0
 24 25  2  0
 25 26  1  0
 22 27  1  0
 26 27  2  0
 27 28  1  0
  6 29  1  0
 10 29  2  0
M  END
