WAR-XCH-b0339bbe-6
     RDKit          3D

 31 34  0  0  0  0  0  0  0  0999 V2000
    6.6830   -2.2020   20.0100 O   0  0  0  0  0  0  0  0  0  0  0  0
    7.4030   -2.4320   20.9860 C   0  0  0  0  0  0  0  0  0  0  0  0
    8.6020   -3.2790   20.9670 C   0  0  0  0  0  0  0  0  0  0  0  0
    8.6590   -4.3840   22.0740 C   0  0  0  0  0  0  0  0  0  0  0  0
    6.9780   -4.5510   21.5460 C   0  0  0  0  0  0  0  0  0  0  0  0
    5.5170   -5.5450   21.8990 C   0  0  0  0  0  0  0  0  0  0  0  0
    6.1650   -6.4370   22.9850 C   0  0  0  0  0  0  0  0  0  0  0  0
    6.7230   -5.6000   22.4250 N   0  0  0  0  0  0  0  0  0  0  0  0
    7.8850   -5.2650   22.5960 C   0  0  0  0  0  0  0  0  0  0  0  0
    7.2260   -1.9500   22.2540 N   0  0  0  0  0  0  0  0  0  0  0  0
    6.0180   -2.4690   22.9200 C   0  0  1  0  0  0  0  0  0  0  0  0
    6.1040   -3.7090   23.7720 C   0  0  0  0  0  0  0  0  0  0  0  0
    4.8420   -4.1790   24.1060 C   0  0  0  0  0  0  0  0  0  0  0  0
    4.2000   -3.2130   24.8720 C   0  0  2  0  0  0  0  0  0  0  0  0
    2.8000   -3.4020   24.7100 O   0  0  0  0  0  0  0  0  0  0  0  0
    4.4510   -1.8470   24.5870 C   0  0  0  0  0  0  0  0  0  0  0  0
    5.2700   -1.4390   23.4940 C   0  0  0  0  0  0  0  0  0  0  0  0
    8.3510   -1.4050   22.9140 C   0  0  0  0  0  0  0  0  0  0  0  0
    8.0620   -0.0770   23.2600 C   0  0  0  0  0  0  0  0  0  0  0  0
    7.8780    0.8380   22.2130 C   0  0  0  0  0  0  0  0  0  0  0  0
    8.2260    2.3330   22.3100 C   0  0  0  0  0  0  0  0  0  0  0  0
    7.1350    3.0970   22.7520 C   0  0  0  0  0  0  0  0  0  0  0  0
    7.3770    4.4730   22.6250 C   0  0  0  0  0  0  0  0  0  0  0  0
    8.5190    4.9200   23.5420 C   0  0  0  0  0  0  0  0  0  0  0  0
    9.3310    3.7390   24.0680 C   0  0  0  0  0  0  0  0  0  0  0  0
    9.4040    2.5630   23.0810 C   0  0  0  0  0  0  0  0  0  0  0  0
    8.7800   -2.3200   23.9380 C   0  0  0  0  0  0  0  0  0  0  0  0
   10.1590   -2.9510   23.7160 C   0  0  0  0  0  0  0  0  0  0  0  0
   11.2920   -1.9300   23.7610 C   0  0  0  0  0  0  0  0  0  0  0  0
   10.9270   -0.8050   22.8120 C   0  0  0  0  0  0  0  0  0  0  0  0
    9.6430   -1.1540   22.0330 C   0  0  0  0  0  0  0  0  0  0  0  0
  1  2  2  0
  2  3  1  0
  3  4  1  0
  4  5  2  0
  5  6  1  0
  6  7  2  0
  7  8  1  0
  4  9  1  0
  8  9  2  0
  2 10  1  0
 11 10  1  1
 11 12  1  0
 12 13  1  0
 13 14  1  0
 14 15  1  6
 14 16  1  0
 11 17  1  0
 16 17  1  0
 10 18  1  0
 18 19  1  0
 19 20  3  0
 20 21  1  0
 21 22  1  0
 22 23  1  0
 23 24  1  0
 24 25  1  0
 21 26  1  0
 25 26  1  0
 18 27  1  0
 27 28  1  0
 28 29  1  0
 29 30  1  0
 18 31  1  0
 30 31  1  0
M  END
