WAR-XCH-79d12f6e-4-nitrile
     RDKit          3D

 19 20  0  0  0  0  0  0  0  0999 V2000
    6.4760   -4.7350   20.3970 C   0  0  0  0  0  0  0  0  0  0  0  0
    5.3000   -4.5070   19.9540 N   0  0  0  0  0  0  0  0  0  0  0  0
    6.7060   -4.5420   21.7410 N   0  0  0  0  0  0  0  0  0  0  0  0
    5.5840   -4.2210   22.6250 C   0  0  0  0  0  0  0  0  0  0  0  0
    5.1890   -2.8170   22.0530 C   0  0  0  0  0  0  0  0  0  0  0  0
    6.5610   -2.0850   21.9590 C   0  0  0  0  0  0  0  0  0  0  0  0
    7.0470   -2.2650   20.6840 N   0  0  0  0  0  0  0  0  0  0  0  0
    6.3220   -1.8340   19.1920 S   0  0  0  0  0  0  0  0  0  0  0  0
    5.4030   -2.8680   18.7660 O   0  0  0  0  0  0  0  0  0  0  0  0
    7.4040   -1.4010   18.3590 O   0  0  0  0  0  0  0  0  0  0  0  0
    5.3730   -0.4050   19.4300 C   0  0  0  0  0  0  0  0  0  0  0  0
    4.5990   -0.1790   20.7470 C   0  0  0  0  0  0  0  0  0  0  0  0
    3.7900    1.1290   20.7900 C   0  0  0  0  0  0  0  0  0  0  0  0
    3.8580    2.0290   19.5440 C   0  0  0  0  0  0  0  0  0  0  0  0
    3.0590    3.3130   19.5770 C   0  0  0  0  0  0  0  0  0  0  0  0
    4.6040    1.7030   18.4290 C   0  0  0  0  0  0  0  0  0  0  0  0
    5.3350    0.5260   18.3740 C   0  0  0  0  0  0  0  0  0  0  0  0
    7.6170   -2.6990   22.8790 C   0  0  0  0  0  0  0  0  0  0  0  0
    7.9520   -3.9510   22.2660 C   0  0  0  0  0  0  0  0  0  0  0  0
  1  2  2  3
  1  3  1  0
  3  4  1  0
  4  5  1  0
  5  6  1  0
  6  7  1  0
  8  7  1  0
  8  9  2  0
  8 10  2  0
  8 11  1  0
 11 12  2  0
 12 13  1  0
 13 14  2  0
 14 15  1  0
 14 16  1  0
 11 17  1  0
 16 17  2  0
  6 18  1  0
  3 19  1  0
 18 19  1  0
M  END
