WAR-XCH-bdd24732-29
     RDKit          3D

 26 29  0  0  0  0  0  0  0  0999 V2000
    7.6980   -1.4240   25.4510 O   0  0  0  0  0  0  0  0  0  0  0  0
    8.3670   -2.0930   24.6700 C   0  0  0  0  0  0  0  0  0  0  0  0
    9.4040   -1.5700   23.9110 N   0  0  0  0  0  0  0  0  0  0  0  0
   10.5610   -2.4020   23.4930 C   0  0  0  0  0  0  0  0  0  0  0  0
   11.2000   -1.7880   22.2630 C   0  0  0  0  0  0  0  0  0  0  0  0
   12.3350   -0.8380   22.5710 C   0  0  0  0  0  0  0  0  0  0  0  0
   12.7160   -0.8080   23.9210 C   0  0  0  0  0  0  0  0  0  0  0  0
   12.6910   -2.0770   24.4980 C   0  0  0  0  0  0  0  0  0  0  0  0
   11.4110   -2.6130   24.5940 C   0  0  0  0  0  0  0  0  0  0  0  0
    8.1620   -3.4430   24.4400 N   0  0  0  0  0  0  0  0  0  0  0  0
    8.1300   -4.2690   25.6140 C   0  0  0  0  0  0  0  0  0  0  0  0
    9.1380   -4.9910   26.3020 C   0  0  0  0  0  0  0  0  0  0  0  0
    8.5410   -5.6780   27.4530 C   0  0  0  0  0  0  0  0  0  0  0  0
    7.1940   -5.6520   27.8460 C   0  0  0  0  0  0  0  0  0  0  0  0
    6.5160   -4.5770   26.5520 S   0  0  0  0  0  0  0  0  0  0  0  0
    6.4080   -6.1660   28.8330 C   0  0  0  0  0  0  0  0  0  0  0  0
    5.7590   -4.9950   28.8900 C   0  0  0  0  0  0  0  0  0  0  0  0
    6.5570   -4.2900   27.9190 C   0  0  0  0  0  0  0  0  0  0  0  0
    7.4470   -4.9470   26.8910 C   0  0  0  0  0  0  0  0  0  0  0  0
    7.6070   -3.8350   23.2230 C   0  0  1  0  0  0  0  0  0  0  0  0
    7.2290   -5.2340   23.3140 C   0  0  0  0  0  0  0  0  0  0  0  0
    5.9900   -5.4060   22.7410 C   0  0  0  0  0  0  0  0  0  0  0  0
    4.8620   -4.4690   22.9570 C   0  0  2  0  0  0  0  0  0  0  0  0
    3.8270   -4.8040   22.4020 O   0  0  0  0  0  0  0  0  0  0  0  0
    5.3270   -3.1340   22.5150 C   0  0  0  0  0  0  0  0  0  0  0  0
    6.7830   -2.8190   22.7200 C   0  0  0  0  0  0  0  0  0  0  0  0
  1  2  2  0
  2  3  1  0
  3  4  1  0
  4  5  1  0
  5  6  1  0
  6  7  1  0
  7  8  1  0
  4  9  1  0
  8  9  1  0
  2 10  1  0
 10 11  1  0
 11 12  2  0
 12 13  1  0
 13 14  2  0
 11 15  1  0
 14 15  1  0
 14 16  1  0
 16 17  1  0
 17 18  1  0
 13 19  1  0
 18 19  1  0
 20 10  1  1
 20 21  1  0
 21 22  1  0
 22 23  1  0
 23 24  1  6
 23 25  1  0
 20 26  1  0
 25 26  1  0
M  END
