WAR-XCH-79d12f6e-4-chloroacetamide
     RDKit          3D

 20 21  0  0  0  0  0  0  0  0999 V2000
    7.3170   -5.4630   20.9590 C   0  0  0  0  0  0  0  0  0  0  0  0
    5.9620   -5.3160   21.3300 C   0  0  0  0  0  0  0  0  0  0  0  0
    5.2510   -5.1740   20.2630 O   0  0  0  0  0  0  0  0  0  0  0  0
    5.6670   -5.3660   22.6770 N   0  0  0  0  0  0  0  0  0  0  0  0
    4.7040   -4.5170   23.2360 C   0  0  0  0  0  0  0  0  0  0  0  0
    5.0230   -3.4000   22.2190 C   0  0  0  0  0  0  0  0  0  0  0  0
    6.5740   -3.1050   22.2910 C   0  0  0  0  0  0  0  0  0  0  0  0
    7.0590   -2.9820   20.8500 N   0  0  0  0  0  0  0  0  0  0  0  0
    5.9500   -2.6320   19.5790 S   0  0  0  0  0  0  0  0  0  0  0  0
    4.7430   -3.3840   19.7470 O   0  0  0  0  0  0  0  0  0  0  0  0
    6.6650   -2.6350   18.3340 O   0  0  0  0  0  0  0  0  0  0  0  0
    5.4330   -0.9830   19.6360 C   0  0  0  0  0  0  0  0  0  0  0  0
    5.3300   -0.2200   18.3090 C   0  0  0  0  0  0  0  0  0  0  0  0
    4.8630    1.2360   18.4430 C   0  0  0  0  0  0  0  0  0  0  0  0
    4.5570    1.7710   19.8180 C   0  0  0  0  0  0  0  0  0  0  0  0
    4.0970    3.2120   19.9110 C   0  0  0  0  0  0  0  0  0  0  0  0
    4.6950    0.9640   20.9500 C   0  0  0  0  0  0  0  0  0  0  0  0
    5.1170   -0.3640   20.8670 C   0  0  0  0  0  0  0  0  0  0  0  0
    7.5220   -4.0490   23.0820 C   0  0  0  0  0  0  0  0  0  0  0  0
    6.8610   -5.2100   23.4920 C   0  0  0  0  0  0  0  0  0  0  0  0
  1  2  1  0
  2  3  2  0
  2  4  1  0
  4  5  1  0
  5  6  1  0
  6  7  1  0
  7  8  1  0
  9  8  1  0
  9 10  2  0
  9 11  2  0
  9 12  1  0
 12 13  2  0
 13 14  1  0
 14 15  2  0
 15 16  1  0
 15 17  1  0
 12 18  1  0
 17 18  2  0
  7 19  1  0
  4 20  1  0
 19 20  1  0
M  END
