WAR-XCH-6eb0722e-1-chloroacetamide
     RDKit          3D

 26 27  0  0  0  0  0  0  0  0999 V2000
    8.2970   -3.7530   20.3090 C   0  0  0  0  0  0  0  0  0  0  0  0
    7.7310   -2.4550   20.2940 C   0  0  0  0  0  0  0  0  0  0  0  0
    6.7530   -3.1730   19.4990 O   0  0  0  0  0  0  0  0  0  0  0  0
    9.2430   -2.3860   21.1270 C   0  0  0  0  0  0  0  0  0  0  0  0
   10.6240   -2.1710   22.0370 C   0  0  0  0  0  0  0  0  0  0  0  0
   10.8550   -1.1330   23.1960 C   0  0  0  0  0  0  0  0  0  0  0  0
    9.9260   -0.2280   23.6240 C   0  0  0  0  0  0  0  0  0  0  0  0
   10.0460    0.6810   24.6430 C   0  0  0  0  0  0  0  0  0  0  0  0
    9.4600    0.0970   25.8000 C   0  0  0  0  0  0  0  0  0  0  0  0
    8.3740    0.8710   26.4100 N   0  0  0  0  0  0  0  0  0  0  0  0
    8.0590    0.6430   28.0360 S   0  0  0  0  0  0  0  0  0  0  0  0
    7.4980    2.2600   28.5410 C   0  0  0  0  0  0  0  0  0  0  0  0
    6.9480   -0.2730   28.1350 O   0  0  0  0  0  0  0  0  0  0  0  0
    9.3190    0.3970   28.6980 O   0  0  0  0  0  0  0  0  0  0  0  0
    8.8560   -0.4040   22.8570 C   0  0  0  0  0  0  0  0  0  0  0  0
    7.7580    0.2710   22.9010 N   0  0  0  0  0  0  0  0  0  0  0  0
    7.8050    0.6680   21.6070 C   0  0  0  0  0  0  0  0  0  0  0  0
    8.5840    1.5130   21.1390 O   0  0  0  0  0  0  0  0  0  0  0  0
    6.8640   -0.0550   20.9440 N   0  0  0  0  0  0  0  0  0  0  0  0
    6.2160    0.4880   19.8870 C   0  0  0  0  0  0  0  0  0  0  0  0
    5.0340    1.1770   19.9990 C   0  0  0  0  0  0  0  0  0  0  0  0
    4.4680    1.7240   18.8750 C   0  0  0  0  0  0  0  0  0  0  0  0
    5.1420    1.5410   17.6650 C   0  0  0  0  0  0  0  0  0  0  0  0
    6.2880    0.8560   17.5420 N   0  0  0  0  0  0  0  0  0  0  0  0
    6.7960    0.3460   18.6550 C   0  0  0  0  0  0  0  0  0  0  0  0
    9.1100   -1.4050   22.0140 C   0  0  0  0  0  0  0  0  0  0  0  0
  1  2  1  0
  2  3  2  0
  2  4  1  0
  4  5  2  0
  5  6  1  0
  6  7  2  0
  7  8  1  0
  8  9  1  0
  9 10  1  0
 11 10  1  0
 11 12  1  0
 11 13  2  0
 11 14  2  0
  7 15  1  0
 15 16  1  0
 16 17  1  0
 17 18  2  0
 17 19  1  0
 19 20  1  0
 20 21  2  0
 21 22  1  0
 22 23  2  0
 23 24  1  0
 20 25  1  0
 24 25  2  0
  4 26  1  0
 15 26  2  0
M  END
