WAR-XCH-bdd24732-9-chloroacetamide
     RDKit          3D

 31 34  0  0  0  0  0  0  0  0999 V2000
    7.8270   -4.9120   20.5710 C   0  0  0  0  0  0  0  0  0  0  0  0
    6.4730   -4.6670   20.9820 C   0  0  0  0  0  0  0  0  0  0  0  0
    5.5240   -4.9780   20.1690 O   0  0  0  0  0  0  0  0  0  0  0  0
    6.5590   -3.9500   22.3030 C   0  0  0  0  0  0  0  0  0  0  0  0
    7.1720   -4.1410   23.5400 C   0  0  0  0  0  0  0  0  0  0  0  0
    7.9290   -5.2280   23.9140 C   0  0  0  0  0  0  0  0  0  0  0  0
    7.7680   -4.0960   24.8770 C   0  0  0  0  0  0  0  0  0  0  0  0
    6.7890   -2.9270   24.0670 C   0  0  0  0  0  0  0  0  0  0  0  0
    6.5480   -1.7300   24.8100 N   0  0  0  0  0  0  0  0  0  0  0  0
    6.4370   -0.6910   23.6850 C   0  0  2  0  0  0  0  0  0  0  0  0
    5.1480   -0.8590   22.8850 C   0  0  0  0  0  0  0  0  0  0  0  0
    5.1890   -0.9070   21.4780 C   0  0  0  0  0  0  0  0  0  0  0  0
    6.4100   -0.6270   20.8870 C   0  0  2  0  0  0  0  0  0  0  0  0
    6.4350   -1.2410   19.6050 O   0  0  0  0  0  0  0  0  0  0  0  0
    7.5570   -1.0270   21.5690 C   0  0  0  0  0  0  0  0  0  0  0  0
    7.6550   -0.7900   22.9560 C   0  0  0  0  0  0  0  0  0  0  0  0
    7.3960   -1.3190   25.8570 C   0  0  0  0  0  0  0  0  0  0  0  0
    8.7310   -0.9040   25.7050 C   0  0  0  0  0  0  0  0  0  0  0  0
    9.0320    0.0500   24.7210 C   0  0  0  0  0  0  0  0  0  0  0  0
   10.3450    0.0120   23.9140 C   0  0  0  0  0  0  0  0  0  0  0  0
   11.2480    1.0830   23.9790 C   0  0  0  0  0  0  0  0  0  0  0  0
   12.4420    1.0220   23.2610 C   0  0  0  0  0  0  0  0  0  0  0  0
   12.7030   -0.2150   22.4360 C   0  0  0  0  0  0  0  0  0  0  0  0
   11.8190   -1.2220   22.3720 N   0  0  0  0  0  0  0  0  0  0  0  0
   10.6730   -1.0840   23.1020 C   0  0  0  0  0  0  0  0  0  0  0  0
    6.6980   -0.0800   26.5280 C   0  0  0  0  0  0  0  0  0  0  0  0
    7.3020    0.3400   27.7230 C   0  0  0  0  0  0  0  0  0  0  0  0
    7.1240   -0.6980   28.8170 C   0  0  0  0  0  0  0  0  0  0  0  0
    7.6130   -2.0830   28.3910 C   0  0  0  0  0  0  0  0  0  0  0  0
    7.3120   -2.4560   26.9360 C   0  0  0  0  0  0  0  0  0  0  0  0
    6.0730   -2.7760   22.6700 C   0  0  0  0  0  0  0  0  0  0  0  0
  1  2  1  0
  2  3  2  0
  2  4  1  0
  4  5  2  0
  5  6  1  0
  6  7  2  0
  7  8  1  0
  8  9  1  0
 10  9  1  1
 10 11  1  0
 11 12  1  0
 12 13  1  0
 13 14  1  6
 13 15  1  0
 10 16  1  0
 15 16  1  0
  9 17  1  0
 17 18  1  0
 18 19  3  0
 19 20  1  0
 20 21  2  0
 21 22  1  0
 22 23  2  0
 23 24  1  0
 20 25  1  0
 24 25  2  0
 17 26  1  0
 26 27  1  0
 27 28  1  0
 28 29  1  0
 17 30  1  0
 29 30  1  0
  4 31  1  0
  8 31  2  0
M  END
