WAR-XCH-72a8c209-14-nitrile
     RDKit          3D

 29 31  0  0  0  0  0  0  0  0999 V2000
    6.6700   -4.6320   20.4040 C   0  0  0  0  0  0  0  0  0  0  0  0
    5.7110   -4.0380   19.7820 N   0  0  0  0  0  0  0  0  0  0  0  0
    6.7180   -4.8170   21.8920 C   0  0  0  0  0  0  0  0  0  0  0  0
    5.6390   -4.8500   23.1060 C   0  0  0  0  0  0  0  0  0  0  0  0
    6.1250   -5.1150   24.7420 C   0  0  0  0  0  0  0  0  0  0  0  0
    7.6050   -5.3300   25.1160 C   0  0  0  0  0  0  0  0  0  0  0  0
    7.2440   -5.1390   23.9570 C   0  0  0  0  0  0  0  0  0  0  0  0
    7.6350   -5.0300   22.7440 C   0  0  0  0  0  0  0  0  0  0  0  0
    6.3370   -4.9380   23.2840 C   0  0  0  0  0  0  0  0  0  0  0  0
    5.4240   -4.6040   24.0060 N   0  0  0  0  0  0  0  0  0  0  0  0
    4.0940   -5.2800   23.8620 C   0  0  2  0  0  0  0  0  0  0  0  0
    3.0520   -4.6710   24.8290 C   0  0  0  0  0  0  0  0  0  0  0  0
    2.1880   -5.7500   25.3690 C   0  0  0  0  0  0  0  0  0  0  0  0
    1.6960   -6.6030   24.1790 C   0  0  2  0  0  0  0  0  0  0  0  0
    0.6920   -7.5120   24.6290 O   0  0  0  0  0  0  0  0  0  0  0  0
    2.8300   -7.3660   23.6140 C   0  0  0  0  0  0  0  0  0  0  0  0
    4.1220   -6.6860   23.7890 C   0  0  0  0  0  0  0  0  0  0  0  0
    5.2710   -3.1750   24.4050 C   0  0  0  0  0  0  0  0  0  0  0  0
    4.6480   -2.2420   23.3790 C   0  0  0  0  0  0  0  0  0  0  0  0
    5.3640   -1.9290   22.2190 C   0  0  0  0  0  0  0  0  0  0  0  0
    6.7810   -1.7690   22.5530 N   0  0  0  0  0  0  0  0  0  0  0  0
    7.4740   -0.8490   21.6560 C   0  0  0  0  0  0  0  0  0  0  0  0
    6.7440    0.3630   21.4670 O   0  0  0  0  0  0  0  0  0  0  0  0
    7.3460    1.1460   20.5540 C   0  0  0  0  0  0  0  0  0  0  0  0
    8.2180    1.9800   20.7850 O   0  0  0  0  0  0  0  0  0  0  0  0
    6.8750    0.8980   19.2610 C   0  0  0  0  0  0  0  0  0  0  0  0
    5.6150    1.3420   18.8460 C   0  0  0  0  0  0  0  0  0  0  0  0
    7.0240   -1.4370   23.9610 C   0  0  0  0  0  0  0  0  0  0  0  0
    6.5580   -2.5250   24.9300 C   0  0  0  0  0  0  0  0  0  0  0  0
  1  2  2  3
  1  3  1  0
  3  4  2  0
  4  5  1  0
  5  6  2  0
  6  7  1  0
  3  8  1  0
  7  8  2  0
  8  9  1  0
  9 10  1  0
 11 10  1  1
 11 12  1  0
 12 13  1  0
 13 14  1  0
 14 15  1  1
 14 16  1  0
 11 17  1  0
 16 17  1  0
 10 18  1  0
 18 19  1  0
 19 20  1  0
 20 21  1  0
 21 22  1  0
 22 23  1  0
 23 24  1  0
 24 25  2  0
 24 26  1  0
 26 27  3  0
 21 28  1  0
 18 29  1  0
 28 29  1  0
M  END
