WAR-XCH-79d12f6e-3
     RDKit          3D

 21 22  0  0  0  0  0  0  0  0999 V2000
    7.5040   -3.2450   20.3060 O   0  0  0  0  0  0  0  0  0  0  0  0
    7.6150   -2.1940   20.8980 C   0  0  0  0  0  0  0  0  0  0  0  0
    6.4140   -1.7150   21.5400 N   0  0  0  0  0  0  0  0  0  0  0  0
    5.7790   -2.6890   22.4560 C   0  0  0  0  0  0  0  0  0  0  0  0
    5.1040   -1.9210   23.6200 C   0  0  0  0  0  0  0  0  0  0  0  0
    4.3770   -2.8010   24.6800 C   0  0  0  0  0  0  0  0  0  0  0  0
    4.4060   -4.3530   24.4630 C   0  0  0  0  0  0  0  0  0  0  0  0
    5.1060   -5.0260   23.2740 C   0  0  0  0  0  0  0  0  0  0  0  0
    5.7760   -4.0770   22.3100 C   0  0  0  0  0  0  0  0  0  0  0  0
    8.7740   -1.4670   20.9610 N   0  0  0  0  0  0  0  0  0  0  0  0
    9.7120   -1.2020   22.3870 S   0  0  0  0  0  0  0  0  0  0  0  0
    8.8560   -1.4310   23.5270 O   0  0  0  0  0  0  0  0  0  0  0  0
   10.9260   -1.9610   22.2010 O   0  0  0  0  0  0  0  0  0  0  0  0
   10.2070    0.4320   22.4890 C   0  0  0  0  0  0  0  0  0  0  0  0
   11.6800    0.7180   22.7740 C   0  0  0  0  0  0  0  0  0  0  0  0
   12.5590   -0.2780   22.9450 F   0  0  0  0  0  0  0  0  0  0  0  0
   12.1300    2.1710   22.8570 C   0  0  0  0  0  0  0  0  0  0  0  0
   11.1630    3.1780   22.6710 C   0  0  0  0  0  0  0  0  0  0  0  0
    9.8310    2.8580   22.4170 C   0  0  0  0  0  0  0  0  0  0  0  0
    9.3320    1.5160   22.3210 C   0  0  0  0  0  0  0  0  0  0  0  0
    8.0280    1.3510   22.0660 F   0  0  0  0  0  0  0  0  0  0  0  0
  1  2  2  0
  2  3  1  0
  3  4  1  0
  4  5  2  0
  5  6  1  0
  6  7  2  0
  7  8  1  0
  4  9  1  0
  8  9  2  0
  2 10  1  0
 11 10  1  0
 11 12  2  0
 11 13  2  0
 11 14  1  0
 14 15  2  0
 15 16  1  0
 15 17  1  0
 17 18  2  0
 18 19  1  0
 14 20  1  0
 19 20  2  0
 20 21  1  0
M  END
