WAR-XCH-b6889685-53
     RDKit          3D

 21 22  0  0  0  0  0  0  0  0999 V2000
   14.8630   -5.0430   20.6660 C   0  0  0  0  0  0  0  0  0  0  0  0
   13.7450   -3.9790   20.6100 C   0  0  0  0  0  0  0  0  0  0  0  0
   12.6910   -4.4640   19.8700 C   0  0  0  0  0  0  0  0  0  0  0  0
   12.9560   -3.5220   21.6730 N   0  0  0  0  0  0  0  0  0  0  0  0
   11.9740   -3.1430   20.8240 C   0  0  0  0  0  0  0  0  0  0  0  0
   13.0030   -2.3970   22.3740 C   0  0  0  0  0  0  0  0  0  0  0  0
   13.2630   -1.2920   21.7170 C   0  0  0  0  0  0  0  0  0  0  0  0
   13.1300   -0.0970   22.5760 C   0  0  0  0  0  0  0  0  0  0  0  0
   12.0970   -0.1460   23.4790 N   0  0  0  0  0  0  0  0  0  0  0  0
   11.4110    1.0670   23.5990 C   0  0  0  0  0  0  0  0  0  0  0  0
   10.0010    1.1510   24.1270 C   0  0  0  0  0  0  0  0  0  0  0  0
    9.4340    2.5770   24.1490 C   0  0  0  0  0  0  0  0  0  0  0  0
   10.2610    3.7940   23.6720 C   0  0  0  0  0  0  0  0  0  0  0  0
    9.5120    5.3220   23.7620 S   0  0  0  0  0  0  0  0  0  0  0  0
    8.3700    5.2190   22.5330 N   0  0  0  0  0  0  0  0  0  0  0  0
    8.7870    5.4280   25.0200 O   0  0  0  0  0  0  0  0  0  0  0  0
   10.4470    6.3570   23.3590 O   0  0  0  0  0  0  0  0  0  0  0  0
   11.5630    3.6250   23.1970 C   0  0  0  0  0  0  0  0  0  0  0  0
   12.1000    2.2180   23.1810 C   0  0  0  0  0  0  0  0  0  0  0  0
   12.3260   -1.1490   24.5100 C   0  0  0  0  0  0  0  0  0  0  0  0
   13.1970   -2.3260   23.9220 C   0  0  0  0  0  0  0  0  0  0  0  0
  1  2  1  0
  2  3  1  0
  2  4  1  0
  4  5  1  0
  4  6  1  0
  6  7  1  0
  7  8  1  0
  8  9  1  0
  9 10  1  0
 10 11  2  0
 11 12  1  0
 12 13  2  0
 13 14  1  0
 14 15  1  0
 14 16  2  0
 14 17  2  0
 13 18  1  0
 10 19  1  0
 18 19  2  0
  9 20  1  0
  6 21  1  0
 20 21  1  0
M  END
