WAR-XCH-bdd24732-12-acrylamide
     RDKit          3D

 28 31  0  0  0  0  0  0  0  0999 V2000
    6.3950   -4.1380   19.9670 C   0  0  0  0  0  0  0  0  0  0  0  0
    6.7450   -3.4290   21.2650 C   0  0  0  0  0  0  0  0  0  0  0  0
    5.8240   -3.8150   22.4230 C   0  0  0  0  0  0  0  0  0  0  0  0
    4.6020   -3.9420   22.2600 O   0  0  0  0  0  0  0  0  0  0  0  0
    6.3980   -4.0680   23.8090 C   0  0  0  0  0  0  0  0  0  0  0  0
    6.1160   -2.8080   24.2110 C   0  0  0  0  0  0  0  0  0  0  0  0
    6.7800   -3.5920   25.3640 C   0  0  0  0  0  0  0  0  0  0  0  0
    7.1960   -5.2250   24.9690 C   0  0  0  0  0  0  0  0  0  0  0  0
    7.3370   -4.5170   26.1140 C   0  0  0  0  0  0  0  0  0  0  0  0
    7.8530   -4.6870   27.5800 C   0  0  0  0  0  0  0  0  0  0  0  0
    9.2570   -4.8380   27.2750 C   0  0  0  0  0  0  0  0  0  0  0  0
    8.2110   -4.6610   26.6910 C   0  0  0  0  0  0  0  0  0  0  0  0
    9.0490   -4.6670   25.5480 C   0  0  0  0  0  0  0  0  0  0  0  0
    9.9720   -3.6210   25.2740 C   0  0  0  0  0  0  0  0  0  0  0  0
    9.9130   -3.1070   23.9740 C   0  0  0  0  0  0  0  0  0  0  0  0
   10.2280   -2.3070   23.1020 N   0  0  0  0  0  0  0  0  0  0  0  0
    9.2910   -2.9900   21.9850 C   0  0  0  0  0  0  0  0  0  0  0  0
    8.8430   -3.9870   22.8760 C   0  0  0  0  0  0  0  0  0  0  0  0
    7.9310   -5.2320   22.9920 C   0  0  0  0  0  0  0  0  0  0  0  0
    9.7700   -3.2570   23.8770 C   0  0  0  0  0  0  0  0  0  0  0  0
   10.6680   -2.2020   24.1000 C   0  0  0  0  0  0  0  0  0  0  0  0
   10.8770   -1.4300   23.0090 N   0  0  0  0  0  0  0  0  0  0  0  0
   10.0290   -2.0880   22.0860 C   0  0  0  0  0  0  0  0  0  0  0  0
    9.4220   -3.2390   22.8870 N   0  0  0  0  0  0  0  0  0  0  0  0
    8.2440   -4.8020   28.2720 C   0  0  0  0  0  0  0  0  0  0  0  0
    6.7420   -4.6330   28.5370 C   0  0  0  0  0  0  0  0  0  0  0  0
    6.4380   -4.5040   27.4520 N   0  0  0  0  0  0  0  0  0  0  0  0
    6.7400   -3.5950   25.2500 C   0  0  0  0  0  0  0  0  0  0  0  0
  1  2  1  0
  2  3  1  0
  3  4  2  0
  3  5  1  0
  5  6  2  0
  6  7  1  0
  7  8  2  0
  8  9  1  0
  9 10  1  0
 10 11  2  0
 11 12  1  0
 12 13  1  0
 13 14  1  0
 14 15  1  0
 15 16  2  0
 16 17  1  0
 17 18  2  0
 18 19  1  0
 18 20  1  0
 20 21  2  0
 21 22  1  0
 17 23  1  0
 22 23  2  0
 15 24  1  0
 23 24  1  0
 12 25  2  0
 25 26  1  0
 10 27  1  0
 26 27  2  0
  5 28  1  0
  9 28  2  0
M  END
