WAR-XCH-e55cba98-6-nitrile
     RDKit          3D

 23 25  0  0  0  0  0  0  0  0999 V2000
    6.6300   -4.3880   20.2940 C   0  0  0  0  0  0  0  0  0  0  0  0
    5.5480   -3.9900   19.7150 N   0  0  0  0  0  0  0  0  0  0  0  0
    7.2660   -3.7130   21.2920 N   0  0  0  0  0  0  0  0  0  0  0  0
    7.2750   -4.1270   22.7010 C   0  0  0  0  0  0  0  0  0  0  0  0
    7.8890   -3.0080   23.5250 C   0  0  0  0  0  0  0  0  0  0  0  0
    9.1970   -2.7160   23.1840 C   0  0  0  0  0  0  0  0  0  0  0  0
    9.8680   -1.8940   23.9970 N   0  0  0  0  0  0  0  0  0  0  0  0
   10.4660   -0.7340   23.2900 C   0  0  0  0  0  0  0  0  0  0  0  0
    9.3960    0.1260   22.9700 C   0  0  0  0  0  0  0  0  0  0  0  0
    8.1950    0.1170   23.7080 C   0  0  0  0  0  0  0  0  0  0  0  0
    6.7770    0.1860   23.0730 C   0  0  1  0  0  0  0  0  0  0  0  0
    5.7020   -0.1540   24.1410 C   0  0  0  0  0  0  0  0  0  0  0  0
    5.4450    1.0120   25.0930 C   0  0  0  0  0  0  0  0  0  0  0  0
    6.1160    2.3610   24.7490 C   0  0  0  0  0  0  0  0  0  0  0  0
    6.7570    2.4550   23.3480 C   0  0  0  0  0  0  0  0  0  0  0  0
    6.4590    1.4000   22.5170 N   0  0  0  0  0  0  0  0  0  0  0  0
   11.4390   -0.9170   22.2950 C   0  0  0  0  0  0  0  0  0  0  0  0
   12.6010   -1.8200   22.6780 C   0  0  0  0  0  0  0  0  0  0  0  0
   13.2420   -1.1900   23.7250 C   0  0  0  0  0  0  0  0  0  0  0  0
   12.3900   -0.8760   24.7740 C   0  0  0  0  0  0  0  0  0  0  0  0
   11.2620   -0.1210   24.4710 C   0  0  0  0  0  0  0  0  0  0  0  0
    9.2910   -2.3210   21.7180 C   0  0  0  0  0  0  0  0  0  0  0  0
    8.2290   -2.8090   20.9760 C   0  0  0  0  0  0  0  0  0  0  0  0
  1  2  2  3
  1  3  1  0
  3  4  1  0
  4  5  1  0
  5  6  1  0
  6  7  1  0
  7  8  1  0
  8  9  1  0
  9 10  3  0
 11 10  1  1
 11 12  1  0
 12 13  1  0
 13 14  1  0
 14 15  1  0
 11 16  1  0
 15 16  1  0
  8 17  1  0
 17 18  1  0
 18 19  1  0
 19 20  1  0
  8 21  1  0
 20 21  1  0
  6 22  1  0
  3 23  1  0
 22 23  1  0
M  END
