WAR-XCH-bdd24732-3
     RDKit          3D

 24 26  0  0  0  0  0  0  0  0999 V2000
   12.8960   -2.1580   22.8840 C   0  0  0  0  0  0  0  0  0  0  0  0
   12.0390   -1.3540   23.6880 O   0  0  0  0  0  0  0  0  0  0  0  0
   11.0120   -1.9440   24.3840 C   0  0  0  0  0  0  0  0  0  0  0  0
    9.5180   -1.4260   24.3170 C   0  0  0  0  0  0  0  0  0  0  0  0
    8.4560   -2.1750   25.1950 C   0  0  0  0  0  0  0  0  0  0  0  0
    9.0150   -3.3260   26.0090 C   0  0  0  0  0  0  0  0  0  0  0  0
    7.9510   -4.0060   26.8810 C   0  0  0  0  0  0  0  0  0  0  0  0
    7.9900   -5.4650   26.3390 C   0  0  0  0  0  0  0  0  0  0  0  0
    9.0970   -6.0320   27.1560 C   0  0  0  0  0  0  0  0  0  0  0  0
    7.8270   -6.0390   27.8880 C   0  0  0  0  0  0  0  0  0  0  0  0
    6.8080   -5.4940   27.0700 C   0  0  0  0  0  0  0  0  0  0  0  0
    7.0290   -5.0240   25.7570 N   0  0  0  0  0  0  0  0  0  0  0  0
    8.2950   -5.0430   25.1070 C   0  0  0  0  0  0  0  0  0  0  0  0
    8.3640   -4.5260   23.8000 C   0  0  0  0  0  0  0  0  0  0  0  0
    9.4820   -3.6570   23.6690 O   0  0  0  0  0  0  0  0  0  0  0  0
    7.5480   -4.7590   22.8050 N   0  0  0  0  0  0  0  0  0  0  0  0
    6.9490   -3.5390   22.5590 C   0  0  0  0  0  0  0  0  0  0  0  0
    5.9220   -3.3460   21.6550 C   0  0  0  0  0  0  0  0  0  0  0  0
    5.5290   -4.8640   20.8590 S   0  0  0  0  0  0  0  0  0  0  0  0
    5.4820   -5.8750   22.3060 C   0  0  0  0  0  0  0  0  0  0  0  0
    6.7040   -5.9520   22.9500 C   0  0  0  0  0  0  0  0  0  0  0  0
    9.5420   -5.5930   25.7870 C   0  0  0  0  0  0  0  0  0  0  0  0
   10.4860   -3.7060   25.9430 C   0  0  0  0  0  0  0  0  0  0  0  0
   11.4110   -3.0300   25.1600 C   0  0  0  0  0  0  0  0  0  0  0  0
  1  2  1  0
  2  3  1  0
  3  4  2  0
  4  5  1  0
  5  6  2  0
  6  7  1  0
  7  8  1  0
  8  9  1  0
  9 10  2  0
 10 11  1  0
 11 12  2  0
 12 13  1  0
 13 14  1  0
 14 15  2  0
 14 16  1  0
 16 17  1  0
 17 18  1  0
 18 19  1  0
 19 20  1  0
 16 21  1  0
 20 21  1  0
  9 22  1  0
 13 22  2  0
  6 23  1  0
  3 24  1  0
 23 24  2  0
M  END
