WAR-XCH-bdd24732-26-vinylsulfonamide
     RDKit          3D

 28 31  0  0  0  0  0  0  0  0999 V2000
    7.1130   -4.9840   21.1450 C   0  0  0  0  0  0  0  0  0  0  0  0
    7.3590   -3.8640   22.1780 C   0  0  0  0  0  0  0  0  0  0  0  0
    5.8440   -3.1180   22.7990 S   0  0  0  0  0  0  0  0  0  0  0  0
    4.7530   -3.6920   22.0170 O   0  0  0  0  0  0  0  0  0  0  0  0
    5.8390   -3.2530   24.2400 O   0  0  0  0  0  0  0  0  0  0  0  0
    5.9120   -1.4170   22.4470 N   0  0  0  0  0  0  0  0  0  0  0  0
    6.4020   -0.4750   23.5170 C   0  0  0  0  0  0  0  0  0  0  0  0
    6.3000    1.0210   23.1250 C   0  0  0  0  0  0  0  0  0  0  0  0
    5.3510    1.3730   22.1550 N   0  0  0  0  0  0  0  0  0  0  0  0
    5.5680    1.4280   20.6710 C   0  0  0  0  0  0  0  0  0  0  0  0
    6.4750    0.4440   20.4420 C   0  0  0  0  0  0  0  0  0  0  0  0
    7.3580    0.3680   21.5060 C   0  0  0  0  0  0  0  0  0  0  0  0
    8.3780   -0.5100   21.6420 C   0  0  0  0  0  0  0  0  0  0  0  0
    8.6290   -1.4030   20.7240 N   0  0  0  0  0  0  0  0  0  0  0  0
    7.7950   -1.3540   19.6370 C   0  0  0  0  0  0  0  0  0  0  0  0
    6.6420   -0.4700   19.3520 C   0  0  0  0  0  0  0  0  0  0  0  0
    5.9690   -0.6290   18.2110 N   0  0  0  0  0  0  0  0  0  0  0  0
    4.8900   -1.4550   17.9040 C   0  0  0  0  0  0  0  0  0  0  0  0
    3.7830   -1.2790   16.8000 C   0  0  0  0  0  0  0  0  0  0  0  0
    1.4940   -2.6560   16.0820 C   0  0  0  0  0  0  0  0  0  0  0  0
    1.4750   -3.6480   17.0790 C   0  0  0  0  0  0  0  0  0  0  0  0
    4.3960   -2.9740   18.7880 S   0  0  0  0  0  0  0  0  0  0  0  0
    0.2870   -4.4680   16.7720 C   0  0  0  0  0  0  0  0  0  0  0  0
   -0.3350   -4.2670   15.5260 C   0  0  0  0  0  0  0  0  0  0  0  0
   -0.7340   -3.1450   14.9280 C   0  0  0  0  0  0  0  0  0  0  0  0
    0.4330   -2.5280   14.9130 C   0  0  0  0  0  0  0  0  0  0  0  0
    4.2950    0.5620   22.3580 C   0  0  0  0  0  0  0  0  0  0  0  0
    4.5970   -0.8830   22.0090 C   0  0  0  0  0  0  0  0  0  0  0  0
  1  2  1  0
  3  2  1  0
  3  4  2  0
  3  5  2  0
  3  6  1  0
  6  7  1  0
  7  8  1  0
  8  9  1  0
  9 10  1  0
 10 11  1  0
 11 12  2  0
 12 13  1  0
 13 14  2  0
 14 15  1  0
 11 16  1  0
 15 16  2  0
 16 17  1  0
 17 18  1  0
 18 19  2  0
 19 20  1  0
 20 21  2  0
 18 22  1  0
 21 22  1  0
 21 23  1  0
 23 24  1  0
 24 25  1  0
 20 26  1  0
 25 26  1  0
  9 27  1  0
  6 28  1  0
 27 28  1  0
M  END
