WAR-XCH-b0339bbe-19-vinylsulfonamide
     RDKit          3D

 27 30  0  0  0  0  0  0  0  0999 V2000
    6.3780   -5.2700   20.5850 C   0  0  0  0  0  0  0  0  0  0  0  0
    5.9180   -6.2420   21.7550 C   0  0  0  0  0  0  0  0  0  0  0  0
    4.8680   -5.7420   23.1280 S   0  0  0  0  0  0  0  0  0  0  0  0
    3.7450   -4.9730   22.6470 O   0  0  0  0  0  0  0  0  0  0  0  0
    4.6830   -6.8980   23.9820 O   0  0  0  0  0  0  0  0  0  0  0  0
    5.7500   -4.7860   24.1210 N   0  0  0  0  0  0  0  0  0  0  0  0
    5.5450   -3.3390   23.9620 C   0  0  0  0  0  0  0  0  0  0  0  0
    6.9100   -3.0430   23.3690 C   0  0  0  0  0  0  0  0  0  0  0  0
    6.9390   -3.8490   22.0890 C   0  0  0  0  0  0  0  0  0  0  0  0
    7.4240   -2.4780   21.6950 C   0  0  0  0  0  0  0  0  0  0  0  0
    6.4580   -1.6500   21.0900 N   0  0  0  0  0  0  0  0  0  0  0  0
    7.0020   -0.2730   20.8440 C   0  0  0  0  0  0  0  0  0  0  0  0
    6.0190    0.6570   20.1870 C   0  0  0  0  0  0  0  0  0  0  0  0
    5.6880    2.0170   20.7230 C   0  0  0  0  0  0  0  0  0  0  0  0
    4.7680    2.8120   20.0360 C   0  0  0  0  0  0  0  0  0  0  0  0
    4.1510    2.3630   18.8560 C   0  0  0  0  0  0  0  0  0  0  0  0
    4.4120    1.1120   18.3020 N   0  0  0  0  0  0  0  0  0  0  0  0
    5.3700    0.2940   19.0320 C   0  0  0  0  0  0  0  0  0  0  0  0
    8.2390    0.1490   21.1620 N   0  0  0  0  0  0  0  0  0  0  0  0
    9.0940   -0.6890   21.6990 C   0  0  0  0  0  0  0  0  0  0  0  0
   10.3850   -0.2140   22.0150 C   0  0  0  0  0  0  0  0  0  0  0  0
   11.4110   -0.9860   22.5590 C   0  0  0  0  0  0  0  0  0  0  0  0
   11.1570   -2.2950   22.8220 C   0  0  0  0  0  0  0  0  0  0  0  0
    9.7650   -2.7970   22.5200 C   0  0  0  0  0  0  0  0  0  0  0  0
    8.7410   -2.0420   21.9730 C   0  0  0  0  0  0  0  0  0  0  0  0
    7.7940   -4.9550   22.7790 C   0  0  0  0  0  0  0  0  0  0  0  0
    7.1720   -5.0690   24.1790 C   0  0  0  0  0  0  0  0  0  0  0  0
  1  2  1  0
  3  2  1  0
  3  4  2  0
  3  5  2  0
  3  6  1  0
  6  7  1  0
  7  8  1  0
  8  9  1  0
  9 10  1  0
 10 11  2  0
 11 12  1  0
 12 13  1  0
 13 14  2  0
 14 15  1  0
 15 16  2  0
 16 17  1  0
 13 18  1  0
 17 18  2  0
 12 19  2  0
 19 20  1  0
 20 21  1  0
 21 22  2  0
 22 23  1  0
 23 24  2  0
 10 25  1  0
 20 25  2  0
 24 25  1  0
  9 26  1  0
  6 27  1  0
 26 27  1  0
M  END
