WAR-XCH-b0339bbe-18-chloroacetamide
     RDKit          3D

 19 20  0  0  0  0  0  0  0  0999 V2000
    7.5680   -2.9040   18.3440 C   0  0  0  0  0  0  0  0  0  0  0  0
    6.4650   -2.7540   19.3110 C   0  0  0  0  0  0  0  0  0  0  0  0
    5.5350   -3.5850   19.3410 O   0  0  0  0  0  0  0  0  0  0  0  0
    6.5100   -1.6430   20.1290 N   0  0  0  0  0  0  0  0  0  0  0  0
    5.3540   -1.2770   20.9730 C   0  0  0  0  0  0  0  0  0  0  0  0
    5.1960   -2.6460   21.6980 C   0  0  0  0  0  0  0  0  0  0  0  0
    6.6000   -3.2190   21.6140 C   0  0  0  0  0  0  0  0  0  0  0  0
    6.5960   -4.1530   22.7270 N   0  0  0  0  0  0  0  0  0  0  0  0
    5.8440   -5.2400   22.3730 C   0  0  0  0  0  0  0  0  0  0  0  0
    5.5510   -6.2050   23.5150 C   0  0  0  0  0  0  0  0  0  0  0  0
    6.4200   -5.5770   24.5910 N   0  0  0  0  0  0  0  0  0  0  0  0
    5.9630   -5.6210   25.9650 C   0  0  0  0  0  0  0  0  0  0  0  0
    6.6930   -5.2460   26.8850 O   0  0  0  0  0  0  0  0  0  0  0  0
    4.5810   -6.1500   26.2650 C   0  0  0  0  0  0  0  0  0  0  0  0
    4.3970   -6.2890   28.0240 Cl  0  0  0  0  0  0  0  0  0  0  0  0
    7.8350   -5.4250   24.2010 C   0  0  0  0  0  0  0  0  0  0  0  0
    7.9140   -4.5880   23.1100 C   0  0  0  0  0  0  0  0  0  0  0  0
    7.7060   -2.3680   21.7380 C   0  0  0  0  0  0  0  0  0  0  0  0
    7.6460   -1.3390   20.8170 C   0  0  0  0  0  0  0  0  0  0  0  0
  1  2  1  0
  2  3  2  0
  2  4  1  0
  4  5  1  0
  5  6  1  0
  6  7  1  0
  7  8  1  0
  8  9  1  0
  9 10  1  0
 10 11  1  0
 11 12  1  0
 12 13  2  0
 12 14  1  0
 14 15  1  0
 11 16  1  0
  8 17  1  0
 16 17  1  0
  7 18  1  0
  4 19  1  0
 18 19  1  0
M  END
