WAR-XCH-79d12f6e-13
     RDKit          3D

 26 29  0  0  0  0  0  0  0  0999 V2000
    5.1180   -0.2000   23.6210 O   0  0  0  0  0  0  0  0  0  0  0  0
    4.9120   -1.1590   24.3590 C   0  0  0  0  0  0  0  0  0  0  0  0
    4.7970   -2.5500   23.7940 C   0  0  0  0  0  0  0  0  0  0  0  0
    3.4650   -3.3060   23.8610 C   0  0  0  0  0  0  0  0  0  0  0  0
    3.5930   -4.7190   23.2150 C   0  0  0  0  0  0  0  0  0  0  0  0
    4.6420   -5.3530   22.6320 N   0  0  0  0  0  0  0  0  0  0  0  0
    5.7560   -4.6140   22.6360 C   0  0  0  0  0  0  0  0  0  0  0  0
    5.8660   -3.2140   23.2090 C   0  0  0  0  0  0  0  0  0  0  0  0
    7.2630   -2.6640   23.1040 C   0  0  0  0  0  0  0  0  0  0  0  0
    8.1070   -2.6800   21.8840 C   0  0  0  0  0  0  0  0  0  0  0  0
    9.5590   -2.1380   21.8110 C   0  0  0  0  0  0  0  0  0  0  0  0
   10.7810   -1.5610   22.1930 C   0  0  0  0  0  0  0  0  0  0  0  0
   10.8040   -0.1600   22.3960 C   0  0  0  0  0  0  0  0  0  0  0  0
   11.9960    0.5260   22.7610 C   0  0  0  0  0  0  0  0  0  0  0  0
   12.0130    1.9240   22.9490 C   0  0  0  0  0  0  0  0  0  0  0  0
   10.8430    2.6740   22.7880 C   0  0  0  0  0  0  0  0  0  0  0  0
    9.6840    1.9870   22.4360 C   0  0  0  0  0  0  0  0  0  0  0  0
    9.6410    0.6190   22.2400 C   0  0  0  0  0  0  0  0  0  0  0  0
   11.9630   -2.0260   21.6580 C   0  0  0  0  0  0  0  0  0  0  0  0
   13.0990   -1.4880   22.1890 C   0  0  0  0  0  0  0  0  0  0  0  0
   13.3840   -1.9630   23.4720 C   0  0  0  0  0  0  0  0  0  0  0  0
   12.1520   -2.2620   24.3270 C   0  0  0  0  0  0  0  0  0  0  0  0
   10.8150   -2.3220   23.5840 C   0  0  0  0  0  0  0  0  0  0  0  0
    9.6470   -1.6920   23.1850 C   0  0  0  0  0  0  0  0  0  0  0  0
    8.7740   -1.7040   24.2930 C   0  0  0  0  0  0  0  0  0  0  0  0
    7.5740   -2.1590   24.3870 N   0  0  0  0  0  0  0  0  0  0  0  0
  1  2  1  0
  2  3  1  0
  3  4  2  0
  4  5  1  0
  5  6  2  0
  6  7  1  0
  3  8  1  0
  7  8  2  0
  8  9  1  0
  9 10  2  0
 10 11  1  0
 12 11  1  0
 12 13  1  0
 13 14  2  0
 14 15  1  0
 15 16  2  0
 16 17  1  0
 13 18  1  0
 17 18  2  0
 12 19  1  0
 19 20  1  0
 20 21  1  0
 21 22  1  0
 12 23  1  0
 22 23  1  0
 11 24  2  0
 24 25  1  0
  9 26  1  0
 25 26  2  0
M  END
