WAR-XCH-bdd24732-7
     RDKit          3D

 26 29  0  0  0  0  0  0  0  0999 V2000
    6.2790   -6.7750   29.1750 C   0  0  0  0  0  0  0  0  0  0  0  0
    7.5750   -6.1980   29.0560 O   0  0  0  0  0  0  0  0  0  0  0  0
    7.7760   -5.3500   28.0190 C   0  0  0  0  0  0  0  0  0  0  0  0
    9.0000   -5.2090   27.0270 C   0  0  0  0  0  0  0  0  0  0  0  0
    8.9600   -4.1120   25.8880 C   0  0  0  0  0  0  0  0  0  0  0  0
    7.7220   -3.2190   25.7870 C   0  0  0  0  0  0  0  0  0  0  0  0
    7.5690   -2.1850   24.8020 N   0  0  0  0  0  0  0  0  0  0  0  0
    7.0650   -2.5760   23.4160 C   0  0  0  0  0  0  0  0  0  0  0  0
    7.6420   -1.9540   22.0750 C   0  0  0  0  0  0  0  0  0  0  0  0
    6.9820   -2.4500   20.6710 C   0  0  0  0  0  0  0  0  0  0  0  0
    5.8280   -3.4580   20.1380 C   0  0  0  0  0  0  0  0  0  0  0  0
    5.6530   -3.7260   21.4530 C   0  0  0  0  0  0  0  0  0  0  0  0
    6.7660   -2.6840   21.1040 C   0  0  0  0  0  0  0  0  0  0  0  0
    7.0020   -2.5650   22.2450 C   0  0  0  0  0  0  0  0  0  0  0  0
    6.0820   -3.3700   21.9030 N   0  0  0  0  0  0  0  0  0  0  0  0
    5.0860   -4.3050   22.1370 C   0  0  0  0  0  0  0  0  0  0  0  0
    6.0000   -3.5290   22.9720 C   0  0  0  0  0  0  0  0  0  0  0  0
    6.8410   -1.1060   25.2710 C   0  0  2  0  0  0  0  0  0  0  0  0
    5.5190   -0.8270   24.9570 C   0  0  0  0  0  0  0  0  0  0  0  0
    4.9580    0.4220   25.6350 C   0  0  0  0  0  0  0  0  0  0  0  0
    5.8180    1.5330   25.6780 C   0  0  1  0  0  0  0  0  0  0  0  0
    5.5200    2.4540   26.4360 O   0  0  0  0  0  0  0  0  0  0  0  0
    7.1270    1.1830   26.0610 C   0  0  0  0  0  0  0  0  0  0  0  0
    7.6850    0.0220   25.2210 C   0  0  0  0  0  0  0  0  0  0  0  0
    6.6510   -3.3420   26.6530 C   0  0  0  0  0  0  0  0  0  0  0  0
    6.6360   -4.3660   27.7550 C   0  0  0  0  0  0  0  0  0  0  0  0
  1  2  1  0
  2  3  1  0
  3  4  2  0
  4  5  1  0
  5  6  2  0
  6  7  1  0
  7  8  1  0
  8  9  2  0
  9 10  1  0
 10 11  2  0
 11 12  1  0
 12 13  1  0
 13 14  2  0
 14 15  1  0
 15 16  1  0
  8 17  1  0
 12 17  2  0
 15 17  1  0
 18  7  1  6
 18 19  1  0
 19 20  1  0
 20 21  1  0
 21 22  1  1
 21 23  1  0
 18 24  1  0
 23 24  1  0
  6 25  1  0
  3 26  1  0
 25 26  2  0
M  END
