WAR-XCH-b6889685-46
     RDKit          3D

 23 25  0  0  0  0  0  0  0  0999 V2000
   20.7170  -28.9370   12.7730 N   0  0  0  0  0  0  0  0  0  0  0  0
   19.5490  -28.9000   13.9930 S   0  0  0  0  0  0  0  0  0  0  0  0
   19.5660  -30.2150   14.6020 O   0  0  0  0  0  0  0  0  0  0  0  0
   18.3510  -28.3710   13.3950 O   0  0  0  0  0  0  0  0  0  0  0  0
   20.2220  -27.7200   15.1240 C   0  0  0  0  0  0  0  0  0  0  0  0
   20.7990  -26.4070   14.6600 C   0  0  0  0  0  0  0  0  0  0  0  0
   21.3420  -25.4650   15.5270 C   0  0  0  0  0  0  0  0  0  0  0  0
   21.3650  -25.7130   16.8890 C   0  0  0  0  0  0  0  0  0  0  0  0
   21.9070  -24.7820   17.7040 N   0  0  0  0  0  0  0  0  0  0  0  0
   22.0380  -25.3120   19.1010 C   0  0  0  0  0  0  0  0  0  0  0  0
   22.8800  -24.4400   19.8080 C   0  0  0  0  0  0  0  0  0  0  0  0
   22.4480  -22.9860   19.7080 C   0  0  0  0  0  0  0  0  0  0  0  0
   23.0790  -22.0330   20.4660 N   0  0  0  0  0  0  0  0  0  0  0  0
   23.1080  -22.2780   21.8140 C   0  0  0  0  0  0  0  0  0  0  0  0
   23.0240  -21.1160   22.8520 C   0  0  0  0  0  0  0  0  0  0  0  0
   23.5900  -19.6800   22.6570 C   0  0  0  0  0  0  0  0  0  0  0  0
   23.2930  -18.7940   23.8460 C   0  0  0  0  0  0  0  0  0  0  0  0
   22.5990  -19.5400   24.7850 C   0  0  0  0  0  0  0  0  0  0  0  0
   22.2630  -21.1900   24.4090 S   0  0  0  0  0  0  0  0  0  0  0  0
   22.4070  -22.5360   18.3700 C   0  0  0  0  0  0  0  0  0  0  0  0
   21.5720  -23.3800   17.5210 C   0  0  0  0  0  0  0  0  0  0  0  0
   20.8360  -26.9200   17.4040 C   0  0  0  0  0  0  0  0  0  0  0  0
   20.2340  -27.9880   16.4890 C   0  0  0  0  0  0  0  0  0  0  0  0
  2  1  1  0
  2  3  2  0
  2  4  2  0
  2  5  1  0
  5  6  2  0
  6  7  1  0
  7  8  2  0
  8  9  1  0
  9 10  1  0
 10 11  1  0
 11 12  1  0
 12 13  1  0
 13 14  1  0
 14 15  1  0
 15 16  2  0
 16 17  1  0
 17 18  2  0
 15 19  1  0
 18 19  1  0
 12 20  1  0
  9 21  1  0
 20 21  1  0
  8 22  1  0
  5 23  1  0
 22 23  2  0
M  END
