WAR-XCH-bdd24732-12-vinylsulfonamide
     RDKit          3D

 29 32  0  0  0  0  0  0  0  0999 V2000
    7.3940   -4.0260   21.0140 C   0  0  0  0  0  0  0  0  0  0  0  0
    7.2550   -2.6470   21.6890 C   0  0  0  0  0  0  0  0  0  0  0  0
    5.6630   -2.4030   22.4350 S   0  0  0  0  0  0  0  0  0  0  0  0
    4.7030   -3.3430   21.8590 O   0  0  0  0  0  0  0  0  0  0  0  0
    5.4250   -0.9850   22.5730 O   0  0  0  0  0  0  0  0  0  0  0  0
    5.9610   -2.8820   24.0720 C   0  0  0  0  0  0  0  0  0  0  0  0
    4.8100   -2.7620   25.1570 C   0  0  0  0  0  0  0  0  0  0  0  0
    5.0940   -3.2090   26.6070 C   0  0  0  0  0  0  0  0  0  0  0  0
    6.4820   -3.7080   26.7510 C   0  0  0  0  0  0  0  0  0  0  0  0
    7.4000   -3.7200   25.5330 C   0  0  0  0  0  0  0  0  0  0  0  0
    8.3760   -4.2620   26.2580 C   0  0  0  0  0  0  0  0  0  0  0  0
    7.5400   -5.0450   27.1210 C   0  0  0  0  0  0  0  0  0  0  0  0
    7.9290   -5.7700   28.0610 C   0  0  0  0  0  0  0  0  0  0  0  0
    6.9040   -6.4490   28.7540 C   0  0  0  0  0  0  0  0  0  0  0  0
    5.9670   -5.7940   29.5660 C   0  0  0  0  0  0  0  0  0  0  0  0
    5.3320   -6.5270   30.5950 C   0  0  0  0  0  0  0  0  0  0  0  0
    5.8980   -6.9570   31.7230 N   0  0  0  0  0  0  0  0  0  0  0  0
    4.8860   -7.6320   32.4160 C   0  0  0  0  0  0  0  0  0  0  0  0
    4.8630   -8.2940   33.6370 C   0  0  0  0  0  0  0  0  0  0  0  0
    6.0290   -8.3480   34.3870 C   0  0  0  0  0  0  0  0  0  0  0  0
    3.6560   -8.8800   34.0510 C   0  0  0  0  0  0  0  0  0  0  0  0
    2.5050   -8.7910   33.2400 C   0  0  0  0  0  0  0  0  0  0  0  0
    2.4160   -8.1710   32.0350 N   0  0  0  0  0  0  0  0  0  0  0  0
    3.7060   -7.5850   31.6650 C   0  0  0  0  0  0  0  0  0  0  0  0
    4.0200   -6.8870   30.5340 N   0  0  0  0  0  0  0  0  0  0  0  0
    9.3090   -5.6870   28.1380 C   0  0  0  0  0  0  0  0  0  0  0  0
   10.1570   -4.8430   27.1680 C   0  0  0  0  0  0  0  0  0  0  0  0
    9.6670   -4.1110   26.1990 N   0  0  0  0  0  0  0  0  0  0  0  0
    7.2130   -3.3550   24.3170 C   0  0  0  0  0  0  0  0  0  0  0  0
  1  2  1  0
  3  2  1  0
  3  4  2  0
  3  5  2  0
  3  6  1  0
  6  7  2  0
  7  8  1  0
  8  9  2  0
  9 10  1  0
 10 11  1  0
 11 12  2  0
 12 13  1  0
 13 14  1  0
 14 15  1  0
 15 16  1  0
 16 17  2  0
 17 18  1  0
 18 19  2  0
 19 20  1  0
 19 21  1  0
 21 22  2  0
 22 23  1  0
 18 24  1  0
 23 24  2  0
 16 25  1  0
 24 25  1  0
 13 26  2  0
 26 27  1  0
 11 28  1  0
 27 28  2  0
  6 29  1  0
 10 29  2  0
M  END
