WAR-XCH-6eb0722e-1-acrylamide
     RDKit          3D

 27 28  0  0  0  0  0  0  0  0999 V2000
    6.6110   -3.1900   19.7470 C   0  0  0  0  0  0  0  0  0  0  0  0
    4.8120   -3.5550   19.7440 C   0  0  0  0  0  0  0  0  0  0  0  0
    5.5570   -4.4510   20.1980 C   0  0  0  0  0  0  0  0  0  0  0  0
    4.0220   -5.6390   19.3350 O   0  0  0  0  0  0  0  0  0  0  0  0
    7.3350   -3.6780   20.9860 C   0  0  0  0  0  0  0  0  0  0  0  0
    8.0610   -2.7820   21.7720 C   0  0  0  0  0  0  0  0  0  0  0  0
    9.7910   -2.5440   22.3490 C   0  0  0  0  0  0  0  0  0  0  0  0
    9.0450   -2.8150   21.6030 C   0  0  0  0  0  0  0  0  0  0  0  0
   10.5470   -3.2020   21.0120 C   0  0  0  0  0  0  0  0  0  0  0  0
   11.7660   -2.3530   20.6530 C   0  0  0  0  0  0  0  0  0  0  0  0
   12.2240   -3.6140   21.0350 N   0  0  0  0  0  0  0  0  0  0  0  0
   12.2370   -4.8640   19.9070 S   0  0  0  0  0  0  0  0  0  0  0  0
   11.7170   -6.2230   20.4590 C   0  0  0  0  0  0  0  0  0  0  0  0
   13.6050   -5.2040   20.4220 O   0  0  0  0  0  0  0  0  0  0  0  0
   10.9080   -5.3440   20.0980 O   0  0  0  0  0  0  0  0  0  0  0  0
    7.7370   -2.4770   22.1190 C   0  0  0  0  0  0  0  0  0  0  0  0
    6.1560   -2.2760   22.5300 N   0  0  0  0  0  0  0  0  0  0  0  0
    6.3680   -1.1210   21.5060 C   0  0  0  0  0  0  0  0  0  0  0  0
    6.3120    0.1240   21.8820 O   0  0  0  0  0  0  0  0  0  0  0  0
    6.4850   -1.6760   20.6640 N   0  0  0  0  0  0  0  0  0  0  0  0
    6.3580   -0.3680   19.5390 C   0  0  0  0  0  0  0  0  0  0  0  0
    5.4960    0.6350   20.0480 C   0  0  0  0  0  0  0  0  0  0  0  0
    5.1940    1.6860   19.2940 C   0  0  0  0  0  0  0  0  0  0  0  0
    5.7610    1.6730   18.0320 C   0  0  0  0  0  0  0  0  0  0  0  0
    6.7620    0.6990   17.4100 N   0  0  0  0  0  0  0  0  0  0  0  0
    6.9500   -0.6030   18.3370 C   0  0  0  0  0  0  0  0  0  0  0  0
    8.2170   -2.5790   21.9500 C   0  0  0  0  0  0  0  0  0  0  0  0
  1  2  1  0
  2  3  1  0
  3  4  2  0
  3  5  1  0
  5  6  2  0
  6  7  1  0
  7  8  2  0
  8  9  1  0
  9 10  1  0
 10 11  1  0
 12 11  1  0
 12 13  1  0
 12 14  2  0
 12 15  2  0
  8 16  1  0
 16 17  1  0
 17 18  1  0
 18 19  2  0
 18 20  1  0
 20 21  1  0
 21 22  2  0
 22 23  1  0
 23 24  2  0
 24 25  1  0
 21 26  1  0
 25 26  2  0
  5 27  1  0
 16 27  2  0
M  END
