WAR-XCH-72a8c209-12
     RDKit          3D

 26 28  0  0  0  0  0  0  0  0999 V2000
    7.7580   -2.1530   18.3760 N   0  0  0  0  0  0  0  0  0  0  0  0
    6.4370   -2.1500   18.7130 C   0  0  0  0  0  0  0  0  0  0  0  0
    5.3920   -1.4970   18.0140 O   0  0  0  0  0  0  0  0  0  0  0  0
    6.0010   -2.8740   19.9760 C   0  0  0  0  0  0  0  0  0  0  0  0
    5.5300   -4.0240   19.8460 O   0  0  0  0  0  0  0  0  0  0  0  0
    6.1530   -2.1620   21.1520 N   0  0  0  0  0  0  0  0  0  0  0  0
    6.8650   -0.9550   21.2570 C   0  0  0  0  0  0  0  0  0  0  0  0
    8.2020   -1.0880   20.9350 C   0  0  0  0  0  0  0  0  0  0  0  0
    8.6650   -2.3670   21.1950 C   0  0  0  0  0  0  0  0  0  0  0  0
    8.0710   -2.9770   22.3510 C   0  0  1  0  0  0  0  0  0  0  0  0
    8.1790   -2.1760   23.4660 N   0  0  0  0  0  0  0  0  0  0  0  0
    9.6020   -2.1440   23.9460 C   0  0  0  0  0  0  0  0  0  0  0  0
   10.4140   -1.1490   23.3950 C   0  0  0  0  0  0  0  0  0  0  0  0
   10.6720   -0.1520   24.3410 C   0  0  0  0  0  0  0  0  0  0  0  0
   11.9360    0.6420   24.2390 C   0  0  0  0  0  0  0  0  0  0  0  0
   12.6260    0.5070   22.9190 C   0  0  0  0  0  0  0  0  0  0  0  0
   12.8450   -0.9660   22.6690 C   0  0  0  0  0  0  0  0  0  0  0  0
   11.5580   -1.7630   22.9010 C   0  0  0  0  0  0  0  0  0  0  0  0
    7.2190   -2.0530   24.4690 C   0  0  2  0  0  0  0  0  0  0  0  0
    5.7390   -1.9550   24.0980 C   0  0  0  0  0  0  0  0  0  0  0  0
    4.8770   -1.0270   24.7230 C   0  0  0  0  0  0  0  0  0  0  0  0
    5.4070   -0.2570   25.7580 C   0  0  2  0  0  0  0  0  0  0  0  0
    4.7560    0.7900   25.8030 O   0  0  0  0  0  0  0  0  0  0  0  0
    6.7730   -0.0360   25.7030 C   0  0  0  0  0  0  0  0  0  0  0  0
    7.5790   -1.1430   25.4880 C   0  0  0  0  0  0  0  0  0  0  0  0
    6.7420   -3.2560   21.9690 C   0  0  0  0  0  0  0  0  0  0  0  0
  1  2  1  0
  2  3  2  0
  2  4  1  0
  4  5  2  0
  4  6  1  0
  6  7  1  0
  7  8  1  0
  8  9  1  0
  9 10  1  0
 10 11  1  1
 11 12  1  0
 12 13  1  0
 13 14  1  0
 14 15  1  0
 15 16  1  0
 16 17  1  0
 13 18  1  0
 17 18  1  0
 19 11  1  6
 19 20  1  0
 20 21  1  0
 21 22  1  0
 22 23  1  6
 22 24  1  0
 19 25  1  0
 24 25  1  0
  6 26  1  0
 10 26  1  0
M  END
