WAR-XCH-bdd24732-2
     RDKit          3D

 26 28  0  0  0  0  0  0  0  0999 V2000
   10.8790   -6.8850   21.6310 C   0  0  0  0  0  0  0  0  0  0  0  0
   10.0040   -6.9180   22.7260 O   0  0  0  0  0  0  0  0  0  0  0  0
    9.3740   -5.7510   22.8320 C   0  0  0  0  0  0  0  0  0  0  0  0
    9.9810   -4.3540   22.4960 C   0  0  0  0  0  0  0  0  0  0  0  0
    9.1230   -3.0910   22.6940 C   0  0  0  0  0  0  0  0  0  0  0  0
    7.7120   -3.2740   23.2110 C   0  0  0  0  0  0  0  0  0  0  0  0
    6.9680   -2.1230   23.4500 N   0  0  0  0  0  0  0  0  0  0  0  0
    7.7810   -1.5900   24.5890 C   0  0  0  0  0  0  0  0  0  0  0  0
    7.7030   -0.4850   25.1460 O   0  0  0  0  0  0  0  0  0  0  0  0
    8.7880   -2.7410   24.9520 C   0  0  1  0  0  0  0  0  0  0  0  0
   10.0750   -1.9960   25.1010 C   0  0  0  0  0  0  0  0  0  0  0  0
    8.3530   -3.5610   26.1530 C   0  0  0  0  0  0  0  0  0  0  0  0
    9.1010   -4.6040   26.7450 C   0  0  0  0  0  0  0  0  0  0  0  0
    8.5720   -5.2720   27.8390 C   0  0  0  0  0  0  0  0  0  0  0  0
    7.3280   -4.9250   28.3480 C   0  0  0  0  0  0  0  0  0  0  0  0
    6.5690   -3.9020   27.7870 C   0  0  0  0  0  0  0  0  0  0  0  0
    7.0950   -3.2260   26.6860 C   0  0  0  0  0  0  0  0  0  0  0  0
    6.7240   -1.2630   22.4040 C   0  0  1  0  0  0  0  0  0  0  0  0
    6.7510    0.1140   22.4750 C   0  0  0  0  0  0  0  0  0  0  0  0
    6.0780    0.7110   21.2370 C   0  0  0  0  0  0  0  0  0  0  0  0
    5.9420   -0.1540   20.1260 C   0  0  2  0  0  0  0  0  0  0  0  0
    4.7350   -0.9130   20.3110 O   0  0  0  0  0  0  0  0  0  0  0  0
    6.9410   -1.1440   19.9740 C   0  0  0  0  0  0  0  0  0  0  0  0
    7.4310   -1.7690   21.2880 C   0  0  0  0  0  0  0  0  0  0  0  0
    7.1320   -4.4850   23.4950 C   0  0  0  0  0  0  0  0  0  0  0  0
    7.9170   -5.7450   23.3210 C   0  0  0  0  0  0  0  0  0  0  0  0
  1  2  1  0
  2  3  1  0
  3  4  2  0
  4  5  1  0
  5  6  2  0
  6  7  1  0
  7  8  1  0
  8  9  2  0
  8 10  1  0
 10 11  1  1
 10 12  1  0
 12 13  2  0
 13 14  1  0
 14 15  2  0
 15 16  1  0
 12 17  1  0
 16 17  2  0
 18  7  1  1
 18 19  1  0
 19 20  1  0
 20 21  1  0
 21 22  1  1
 21 23  1  0
 18 24  1  0
 23 24  1  0
  6 25  1  0
  3 26  1  0
 25 26  2  0
M  END
