WAR-XCH-b0339bbe-2
     RDKit          3D

 23 26  0  0  0  0  0  0  0  0999 V2000
    4.9260    1.0830   17.8540 C   0  0  0  0  0  0  0  0  0  0  0  0
    5.7830    0.7330   19.0080 C   0  0  0  0  0  0  0  0  0  0  0  0
    5.9190    1.6220   20.0270 N   0  0  0  0  0  0  0  0  0  0  0  0
    6.7870    1.1510   21.1250 C   0  0  0  0  0  0  0  0  0  0  0  0
    7.2540   -0.2660   20.7000 C   0  0  0  0  0  0  0  0  0  0  0  0
    8.1610   -0.9190   21.7390 C   0  0  0  0  0  0  0  0  0  0  0  0
    8.2970   -2.2430   20.9290 C   0  0  0  0  0  0  0  0  0  0  0  0
    7.1100   -2.9270   21.6030 C   0  0  0  0  0  0  0  0  0  0  0  0
    6.5380   -2.0180   22.5320 N   0  0  0  0  0  0  0  0  0  0  0  0
    5.4940   -2.8360   23.0340 C   0  0  0  0  0  0  0  0  0  0  0  0
    4.5070   -2.4470   24.0700 C   0  0  0  0  0  0  0  0  0  0  0  0
    4.4940   -1.1910   24.6860 C   0  0  0  0  0  0  0  0  0  0  0  0
    3.5950   -3.4450   24.3740 C   0  0  0  0  0  0  0  0  0  0  0  0
    3.6180   -4.7150   23.7420 C   0  0  0  0  0  0  0  0  0  0  0  0
    4.4910   -5.1370   22.7870 N   0  0  0  0  0  0  0  0  0  0  0  0
    5.4560   -4.1100   22.4500 C   0  0  0  0  0  0  0  0  0  0  0  0
    6.5330   -4.1500   21.5010 N   0  0  0  0  0  0  0  0  0  0  0  0
    7.5720   -1.0210   23.1770 C   0  0  0  0  0  0  0  0  0  0  0  0
    7.2690    0.2460   23.6850 C   0  0  0  0  0  0  0  0  0  0  0  0
    8.3490    1.0860   23.4490 C   0  0  0  0  0  0  0  0  0  0  0  0
    9.5300    0.2290   23.0120 C   0  0  0  0  0  0  0  0  0  0  0  0
    9.4900   -0.1520   21.6750 C   0  0  0  0  0  0  0  0  0  0  0  0
    6.6280   -0.7600   19.1580 S   0  0  0  0  0  0  0  0  0  0  0  0
  1  2  1  0
  2  3  2  0
  3  4  1  0
  4  5  2  0
  5  6  1  0
  6  7  1  0
  7  8  1  0
  8  9  2  0
  9 10  1  0
 10 11  2  0
 11 12  1  0
 11 13  1  0
 13 14  2  0
 14 15  1  0
 10 16  1  0
 15 16  2  0
  8 17  1  0
 16 17  1  0
  6 18  1  0
 18 19  1  0
 19 20  1  0
 20 21  1  0
  6 22  1  0
 21 22  1  0
  2 23  1  0
  5 23  1  0
M  END
