WAR-XCH-79d12f6e-6-acrylamide
     RDKit          3D

 21 22  0  0  0  0  0  0  0  0999 V2000
    7.5040   -3.0340   18.8190 C   0  0  0  0  0  0  0  0  0  0  0  0
    7.0870   -2.9170   20.2620 C   0  0  0  0  0  0  0  0  0  0  0  0
    6.1970   -4.0820   20.6150 C   0  0  0  0  0  0  0  0  0  0  0  0
    5.2000   -4.3760   19.9390 O   0  0  0  0  0  0  0  0  0  0  0  0
    6.5750   -4.7780   21.7320 N   0  0  0  0  0  0  0  0  0  0  0  0
    5.9890   -6.0630   22.1140 C   0  0  0  0  0  0  0  0  0  0  0  0
    5.0780   -5.6860   23.3290 C   0  0  0  0  0  0  0  0  0  0  0  0
    5.8400   -4.8180   24.2960 N   0  0  0  0  0  0  0  0  0  0  0  0
    6.0660   -5.3330   25.8980 S   0  0  0  0  0  0  0  0  0  0  0  0
    7.3320   -5.9920   25.9740 O   0  0  0  0  0  0  0  0  0  0  0  0
    4.8290   -5.9080   26.3790 O   0  0  0  0  0  0  0  0  0  0  0  0
    6.4060   -3.9260   26.8360 C   0  0  0  0  0  0  0  0  0  0  0  0
    5.4740   -2.7060   26.7680 C   0  0  0  0  0  0  0  0  0  0  0  0
    5.9460   -1.5330   27.6620 C   0  0  0  0  0  0  0  0  0  0  0  0
    5.1030   -0.2680   27.6730 C   0  0  0  0  0  0  0  0  0  0  0  0
    7.1070   -1.6330   28.4240 C   0  0  0  0  0  0  0  0  0  0  0  0
    7.8870   -2.7950   28.4180 C   0  0  0  0  0  0  0  0  0  0  0  0
    7.5590   -3.9110   27.6610 C   0  0  0  0  0  0  0  0  0  0  0  0
    8.4130   -5.0730   27.7160 C   0  0  0  0  0  0  0  0  0  0  0  0
    6.6760   -3.7270   23.7690 C   0  0  0  0  0  0  0  0  0  0  0  0
    7.4610   -4.2130   22.7370 C   0  0  0  0  0  0  0  0  0  0  0  0
  1  2  1  0
  2  3  1  0
  3  4  2  0
  3  5  1  0
  5  6  1  0
  6  7  1  0
  7  8  1  0
  8  9  1  0
  9 10  2  0
  9 11  2  0
  9 12  1  0
 12 13  2  0
 13 14  1  0
 14 15  1  0
 14 16  2  0
 16 17  1  0
 12 18  1  0
 17 18  2  0
 18 19  1  0
  8 20  1  0
  5 21  1  0
 20 21  1  0
M  END
