WAR-XCH-bdd24732-42
     RDKit          3D

 31 34  0  0  0  0  0  0  0  0999 V2000
    5.8250   -3.0140   29.4910 O   0  0  0  0  0  0  0  0  0  0  0  0
    5.0210   -3.4960   28.6990 C   0  0  0  0  0  0  0  0  0  0  0  0
    3.7540   -2.9580   28.4710 N   0  0  0  0  0  0  0  0  0  0  0  0
    3.1270   -2.8690   27.1150 C   0  0  0  0  0  0  0  0  0  0  0  0
    1.6880   -2.4070   27.2550 C   0  0  0  0  0  0  0  0  0  0  0  0
    1.2810   -1.2030   26.4210 C   0  0  0  0  0  0  0  0  0  0  0  0
    2.3330   -0.4890   25.8130 C   0  0  0  0  0  0  0  0  0  0  0  0
    3.2930   -1.3470   25.2830 C   0  0  0  0  0  0  0  0  0  0  0  0
    3.9390   -2.1320   26.2330 C   0  0  0  0  0  0  0  0  0  0  0  0
    5.2990   -4.6280   27.9420 N   0  0  0  0  0  0  0  0  0  0  0  0
    4.7790   -5.8840   28.4000 C   0  0  2  0  0  0  0  0  0  0  0  0
    4.4420   -6.9290   27.5100 C   0  0  0  0  0  0  0  0  0  0  0  0
    2.9930   -7.3860   27.4300 C   0  0  0  0  0  0  0  0  0  0  0  0
    2.3780   -7.5200   28.8040 C   0  0  2  0  0  0  0  0  0  0  0  0
    1.0020   -7.1580   28.7540 O   0  0  0  0  0  0  0  0  0  0  0  0
    2.9970   -6.7520   29.8100 C   0  0  0  0  0  0  0  0  0  0  0  0
    3.8440   -5.6930   29.4440 C   0  0  0  0  0  0  0  0  0  0  0  0
    6.3450   -4.5850   27.0140 C   0  0  0  0  0  0  0  0  0  0  0  0
    6.1260   -4.8250   25.6250 C   0  0  0  0  0  0  0  0  0  0  0  0
    6.4120   -4.0990   24.3620 C   0  0  0  0  0  0  0  0  0  0  0  0
    7.6320   -3.4400   23.8840 C   0  0  0  0  0  0  0  0  0  0  0  0
    6.4610   -3.1620   22.9880 C   0  0  0  0  0  0  0  0  0  0  0  0
    6.2560   -2.3430   21.7000 C   0  0  0  0  0  0  0  0  0  0  0  0
    7.5340   -1.8300   21.4790 C   0  0  0  0  0  0  0  0  0  0  0  0
    8.7950   -1.8890   22.0770 C   0  0  0  0  0  0  0  0  0  0  0  0
    8.7850   -2.6640   23.2090 N   0  0  0  0  0  0  0  0  0  0  0  0
    7.5470   -5.4860   27.5360 C   0  0  0  0  0  0  0  0  0  0  0  0
    8.8160   -5.2040   26.9940 C   0  0  0  0  0  0  0  0  0  0  0  0
    9.0120   -4.0820   26.1520 C   0  0  0  0  0  0  0  0  0  0  0  0
    7.9870   -3.1350   26.0100 C   0  0  0  0  0  0  0  0  0  0  0  0
    6.8900   -3.1650   26.8900 C   0  0  0  0  0  0  0  0  0  0  0  0
  1  2  2  0
  2  3  1  0
  3  4  1  0
  4  5  1  0
  5  6  1  0
  6  7  1  0
  7  8  1  0
  4  9  1  0
  8  9  1  0
  2 10  1  0
 11 10  1  6
 11 12  1  0
 12 13  1  0
 13 14  1  0
 14 15  1  6
 14 16  1  0
 11 17  1  0
 16 17  1  0
 10 18  1  0
 18 19  1  0
 19 20  3  0
 20 21  1  0
 21 22  2  0
 22 23  1  0
 23 24  2  0
 24 25  1  0
 21 26  1  0
 25 26  2  0
 18 27  1  0
 27 28  1  0
 28 29  1  0
 29 30  1  0
 18 31  1  0
 30 31  1  0
M  END
