WAR-XCH-6eb0722e-4
     RDKit          3D

 24 25  0  0  0  0  0  0  0  0999 V2000
    4.3550    2.3630   23.8610 C   0  0  0  0  0  0  0  0  0  0  0  0
    5.8480    2.9360   24.6550 S   0  0  0  0  0  0  0  0  0  0  0  0
    5.9230    2.3490   25.9740 O   0  0  0  0  0  0  0  0  0  0  0  0
    5.9870    4.3620   24.4740 O   0  0  0  0  0  0  0  0  0  0  0  0
    7.0110    2.1720   23.7320 N   0  0  0  0  0  0  0  0  0  0  0  0
    8.4640    2.2910   23.9830 C   0  0  0  0  0  0  0  0  0  0  0  0
    9.0700    1.0040   24.5850 C   0  0  0  0  0  0  0  0  0  0  0  0
   10.1640    0.3260   23.7580 C   0  0  0  0  0  0  0  0  0  0  0  0
   11.6080    0.6770   23.9940 C   0  0  0  0  0  0  0  0  0  0  0  0
   12.6540    0.0960   23.2930 C   0  0  0  0  0  0  0  0  0  0  0  0
   12.3430   -0.8620   22.3250 C   0  0  0  0  0  0  0  0  0  0  0  0
   13.4130   -1.7030   21.3490 Cl  0  0  0  0  0  0  0  0  0  0  0  0
   11.0460   -1.1810   22.1000 C   0  0  0  0  0  0  0  0  0  0  0  0
    9.8980   -0.6200   22.7800 C   0  0  0  0  0  0  0  0  0  0  0  0
    8.6230   -1.0050   22.4440 N   0  0  0  0  0  0  0  0  0  0  0  0
    8.0640   -0.2390   21.4660 C   0  0  0  0  0  0  0  0  0  0  0  0
    8.5330    0.8370   21.1230 O   0  0  0  0  0  0  0  0  0  0  0  0
    6.8620   -0.8150   20.8830 N   0  0  0  0  0  0  0  0  0  0  0  0
    6.2110   -0.0760   19.9350 C   0  0  0  0  0  0  0  0  0  0  0  0
    5.0080    0.5990   20.1150 C   0  0  0  0  0  0  0  0  0  0  0  0
    4.4850    1.3280   19.0590 C   0  0  0  0  0  0  0  0  0  0  0  0
    5.1700    1.3640   17.8570 C   0  0  0  0  0  0  0  0  0  0  0  0
    6.3250    0.7110   17.6620 N   0  0  0  0  0  0  0  0  0  0  0  0
    6.8150    0.0100   18.6990 C   0  0  0  0  0  0  0  0  0  0  0  0
  1  2  1  0
  2  3  2  0
  2  4  2  0
  2  5  1  0
  5  6  1  0
  6  7  1  0
  7  8  1  0
  8  9  2  0
  9 10  1  0
 10 11  2  0
 11 12  1  0
 11 13  1  0
  8 14  1  0
 13 14  2  0
 14 15  1  0
 15 16  1  0
 16 17  2  0
 16 18  1  0
 18 19  1  0
 19 20  2  0
 20 21  1  0
 21 22  2  0
 22 23  1  0
 19 24  1  0
 23 24  2  0
M  END
