WAR-XCH-b0339bbe-3-vinylsulfonamide
     RDKit          3D

 22 24  0  0  0  0  0  0  0  0999 V2000
    6.1270   -4.4950   20.0270 C   0  0  0  0  0  0  0  0  0  0  0  0
    6.5810   -3.1420   19.5510 C   0  0  0  0  0  0  0  0  0  0  0  0
    5.5780   -2.0990   20.5490 S   0  0  0  0  0  0  0  0  0  0  0  0
    4.7420   -3.0070   21.3330 O   0  0  0  0  0  0  0  0  0  0  0  0
    4.9980   -1.0790   19.7080 O   0  0  0  0  0  0  0  0  0  0  0  0
    6.7280   -1.3300   21.5090 N   0  0  0  0  0  0  0  0  0  0  0  0
    6.5950   -1.4580   23.0110 C   0  0  0  0  0  0  0  0  0  0  0  0
    7.9800   -0.9810   23.5820 C   0  0  0  0  0  0  0  0  0  0  0  0
    8.9590   -2.0230   23.0310 C   0  0  0  0  0  0  0  0  0  0  0  0
    8.7130   -3.0700   24.1210 C   0  0  0  0  0  0  0  0  0  0  0  0
    7.9670   -4.2510   23.4460 C   0  0  0  0  0  0  0  0  0  0  0  0
    7.3850   -3.6990   24.7050 N   0  0  0  0  0  0  0  0  0  0  0  0
    6.5980   -4.6650   24.3510 C   0  0  0  0  0  0  0  0  0  0  0  0
    5.6170   -4.5550   25.4900 C   0  0  0  0  0  0  0  0  0  0  0  0
    5.7700   -3.5820   26.4920 C   0  0  0  0  0  0  0  0  0  0  0  0
    4.4750   -5.4840   25.5540 C   0  0  0  0  0  0  0  0  0  0  0  0
    3.9980   -6.6140   24.6890 C   0  0  0  0  0  0  0  0  0  0  0  0
    4.9980   -6.4810   23.8120 N   0  0  0  0  0  0  0  0  0  0  0  0
    5.7600   -5.4430   24.2780 C   0  0  0  0  0  0  0  0  0  0  0  0
    6.8720   -5.3090   23.2880 N   0  0  0  0  0  0  0  0  0  0  0  0
    8.5870   -2.4990   21.6170 C   0  0  0  0  0  0  0  0  0  0  0  0
    7.9920   -1.4080   20.9930 C   0  0  0  0  0  0  0  0  0  0  0  0
  1  2  1  0
  3  2  1  0
  3  4  2  0
  3  5  2  0
  3  6  1  0
  6  7  1  0
  7  8  1  0
  8  9  1  0
  9 10  1  0
 10 11  1  0
 11 12  2  0
 12 13  1  0
 13 14  2  0
 14 15  1  0
 14 16  1  0
 16 17  2  0
 17 18  1  0
 13 19  1  0
 18 19  2  0
 11 20  1  0
 19 20  1  0
  9 21  1  0
  6 22  1  0
 21 22  1  0
M  END
