WAR-XCH-bdd24732-27-vinylsulfonamide
     RDKit          3D

 30 33  0  0  0  0  0  0  0  0999 V2000
    6.8960   -3.0890   19.0750 C   0  0  0  0  0  0  0  0  0  0  0  0
    5.7780   -3.7330   19.8690 C   0  0  0  0  0  0  0  0  0  0  0  0
    6.1290   -4.1020   21.5580 S   0  0  0  0  0  0  0  0  0  0  0  0
    4.8130   -4.3530   22.1020 O   0  0  0  0  0  0  0  0  0  0  0  0
    7.1880   -5.0940   21.6770 O   0  0  0  0  0  0  0  0  0  0  0  0
    6.6760   -2.6360   22.2060 N   0  0  0  0  0  0  0  0  0  0  0  0
    5.7630   -2.1760   23.2840 C   0  0  0  0  0  0  0  0  0  0  0  0
    6.4570   -2.1090   24.6350 C   0  0  0  0  0  0  0  0  0  0  0  0
    7.2540   -3.2100   25.0810 C   0  0  0  0  0  0  0  0  0  0  0  0
    6.5780   -4.4080   25.5200 C   0  0  0  0  0  0  0  0  0  0  0  0
    6.5140   -5.3540   24.7060 O   0  0  0  0  0  0  0  0  0  0  0  0
    6.0010   -4.5540   26.7970 N   0  0  0  0  0  0  0  0  0  0  0  0
    4.6740   -5.1540   26.6470 C   0  0  0  0  0  0  0  0  0  0  0  0
    5.2170   -6.0170   27.6330 C   0  0  0  0  0  0  0  0  0  0  0  0
    6.4030   -5.2730   27.4770 C   0  0  0  0  0  0  0  0  0  0  0  0
    6.4670   -4.1130   26.4830 C   0  0  0  0  0  0  0  0  0  0  0  0
    4.9740   -3.8500   25.6430 S   0  0  0  0  0  0  0  0  0  0  0  0
    7.8390   -3.4460   26.4380 C   0  0  0  0  0  0  0  0  0  0  0  0
    8.8610   -4.3840   26.7290 C   0  0  0  0  0  0  0  0  0  0  0  0
    8.7390   -4.8920   28.0170 C   0  0  0  0  0  0  0  0  0  0  0  0
    7.5510   -5.6160   28.2460 C   0  0  0  0  0  0  0  0  0  0  0  0
    5.7240   -3.4330   27.6560 C   0  0  1  0  0  0  0  0  0  0  0  0
    4.3980   -3.4120   28.1600 C   0  0  0  0  0  0  0  0  0  0  0  0
    3.8570   -2.3570   28.9660 C   0  0  0  0  0  0  0  0  0  0  0  0
    4.8680   -1.9700   29.8310 C   0  0  2  0  0  0  0  0  0  0  0  0
    4.5510   -0.6160   30.1420 O   0  0  0  0  0  0  0  0  0  0  0  0
    6.2880   -1.8750   29.3500 C   0  0  0  0  0  0  0  0  0  0  0  0
    6.6930   -3.0930   28.5650 C   0  0  0  0  0  0  0  0  0  0  0  0
    8.1600   -3.6230   23.8880 C   0  0  0  0  0  0  0  0  0  0  0  0
    8.0490   -2.7070   22.6950 C   0  0  0  0  0  0  0  0  0  0  0  0
  1  2  1  0
  3  2  1  0
  3  4  2  0
  3  5  2  0
  3  6  1  0
  6  7  1  0
  7  8  1  0
  8  9  1  0
  9 10  1  0
 10 11  2  0
 10 12  1  0
 12 13  1  0
 13 14  2  0
 14 15  1  0
 15 16  2  0
 13 17  1  0
 16 17  1  0
 16 18  1  0
 18 19  1  0
 19 20  1  0
 15 21  1  0
 20 21  1  0
 22 12  1  1
 22 23  1  0
 23 24  1  0
 24 25  1  0
 25 26  1  6
 25 27  1  0
 22 28  1  0
 27 28  1  0
  9 29  1  0
  6 30  1  0
 29 30  1  0
M  END
