WAR-XCH-bdd24732-19-chloroacetamide
     RDKit          3D

 25 27  0  0  0  0  0  0  0  0999 V2000
    7.1650   -3.1050   18.9270 C   0  0  0  0  0  0  0  0  0  0  0  0
    6.2520   -3.6140   20.0020 C   0  0  0  0  0  0  0  0  0  0  0  0
    5.3130   -4.3670   19.7970 O   0  0  0  0  0  0  0  0  0  0  0  0
    6.5300   -3.2070   21.2840 N   0  0  0  0  0  0  0  0  0  0  0  0
    6.3990   -4.1310   22.4360 C   0  0  0  0  0  0  0  0  0  0  0  0
    6.4390   -3.3510   23.7380 C   0  0  0  0  0  0  0  0  0  0  0  0
    7.3880   -2.2960   23.7970 C   0  0  0  0  0  0  0  0  0  0  0  0
    7.3050   -1.4370   22.6710 C   0  0  1  0  0  0  0  0  0  0  0  0
    8.0560   -0.2880   22.6210 C   0  0  0  0  0  0  0  0  0  0  0  0
    9.2350   -0.3680   23.3010 C   0  0  0  0  0  0  0  0  0  0  0  0
   10.1410    0.6550   23.3920 C   0  0  0  0  0  0  0  0  0  0  0  0
   11.3290    0.3000   24.2120 C   0  0  0  0  0  0  0  0  0  0  0  0
   10.8520   -0.5370   25.4140 C   0  0  0  0  0  0  0  0  0  0  0  0
    9.6000   -0.1510   26.0500 C   0  0  0  0  0  0  0  0  0  0  0  0
    9.5430    0.3010   27.3890 C   0  0  0  0  0  0  0  0  0  0  0  0
    8.3480    0.6470   27.9560 C   0  0  0  0  0  0  0  0  0  0  0  0
    7.2010    0.5550   27.2220 C   0  0  0  0  0  0  0  0  0  0  0  0
    7.0920    0.1340   25.9070 C   0  0  0  0  0  0  0  0  0  0  0  0
    5.9240    0.0200   25.1000 C   0  0  0  0  0  0  0  0  0  0  0  0
    4.7070    0.2290   25.8990 N   0  0  0  0  0  0  0  0  0  0  0  0
    8.3530   -0.2220   25.3350 C   0  0  0  0  0  0  0  0  0  0  0  0
    9.8910    1.8650   22.7650 C   0  0  0  0  0  0  0  0  0  0  0  0
    8.5910    1.9170   22.0220 C   0  0  0  0  0  0  0  0  0  0  0  0
    7.7110    0.8880   21.9530 N   0  0  0  0  0  0  0  0  0  0  0  0
    7.6410   -2.3230   21.4950 C   0  0  0  0  0  0  0  0  0  0  0  0
  1  2  1  0
  2  3  2  0
  2  4  1  0
  4  5  1  0
  5  6  1  0
  6  7  1  0
  7  8  1  0
  8  9  1  1
  9 10  2  0
 10 11  1  0
 11 12  1  0
 12 13  1  0
 13 14  1  0
 14 15  2  0
 15 16  1  0
 16 17  2  0
 17 18  1  0
 18 19  1  0
 19 20  3  0
 14 21  1  0
 18 21  2  0
 11 22  2  0
 22 23  1  0
  9 24  1  0
 23 24  2  0
  4 25  1  0
  8 25  1  0
M  END
