WAR-XCH-79d12f6e-6-vinylsulfonamide
     RDKit          3D

 22 23  0  0  0  0  0  0  0  0999 V2000
    7.5760   -3.0590   18.8530 C   0  0  0  0  0  0  0  0  0  0  0  0
    7.3760   -2.8160   20.3180 C   0  0  0  0  0  0  0  0  0  0  0  0
    5.9460   -3.6880   20.9080 S   0  0  0  0  0  0  0  0  0  0  0  0
    5.1670   -4.3290   19.8540 O   0  0  0  0  0  0  0  0  0  0  0  0
    5.2760   -2.7870   21.8200 O   0  0  0  0  0  0  0  0  0  0  0  0
    6.5970   -4.8940   21.8170 N   0  0  0  0  0  0  0  0  0  0  0  0
    5.8310   -6.0520   22.2310 C   0  0  0  0  0  0  0  0  0  0  0  0
    4.9430   -5.3790   23.3180 C   0  0  0  0  0  0  0  0  0  0  0  0
    5.7540   -4.6930   24.3780 N   0  0  0  0  0  0  0  0  0  0  0  0
    5.8060   -5.2240   25.9860 S   0  0  0  0  0  0  0  0  0  0  0  0
    5.4450   -4.0800   26.7920 O   0  0  0  0  0  0  0  0  0  0  0  0
    7.0580   -5.8960   26.2130 O   0  0  0  0  0  0  0  0  0  0  0  0
    4.5270   -6.3430   26.3820 C   0  0  0  0  0  0  0  0  0  0  0  0
    4.1680   -6.4250   27.8850 C   0  0  0  0  0  0  0  0  0  0  0  0
    3.0410   -7.4110   28.1250 C   0  0  0  0  0  0  0  0  0  0  0  0
    2.7590   -7.4290   29.6410 C   0  0  0  0  0  0  0  0  0  0  0  0
    2.3980   -8.1530   27.1530 C   0  0  0  0  0  0  0  0  0  0  0  0
    2.7950   -8.0330   25.7210 C   0  0  0  0  0  0  0  0  0  0  0  0
    3.8350   -7.1440   25.3920 C   0  0  0  0  0  0  0  0  0  0  0  0
    4.1740   -7.0650   24.0570 C   0  0  0  0  0  0  0  0  0  0  0  0
    6.7910   -3.7870   23.8860 C   0  0  0  0  0  0  0  0  0  0  0  0
    7.4900   -4.4110   22.8690 C   0  0  0  0  0  0  0  0  0  0  0  0
  1  2  1  0
  3  2  1  0
  3  4  2  0
  3  5  2  0
  3  6  1  0
  6  7  1  0
  7  8  1  0
  8  9  1  0
  9 10  1  0
 10 11  2  0
 10 12  2  0
 10 13  1  0
 13 14  2  0
 14 15  1  0
 15 16  1  0
 15 17  2  0
 17 18  1  0
 13 19  1  0
 18 19  2  0
 19 20  1  0
  9 21  1  0
  6 22  1  0
 21 22  1  0
M  END
