WAR-XCH-b6889685-43
     RDKit          3D

 24 26  0  0  0  0  0  0  0  0999 V2000
   19.0050  -28.3910   12.9390 N   0  0  0  0  0  0  0  0  0  0  0  0
   18.5050  -28.7630   14.5150 S   0  0  0  0  0  0  0  0  0  0  0  0
   18.9960  -30.1020   14.7830 O   0  0  0  0  0  0  0  0  0  0  0  0
   17.0950  -28.4600   14.5590 O   0  0  0  0  0  0  0  0  0  0  0  0
   19.4200  -27.6030   15.4870 C   0  0  0  0  0  0  0  0  0  0  0  0
   19.7180  -27.8320   16.9340 C   0  0  0  0  0  0  0  0  0  0  0  0
   20.4310  -26.9090   17.6720 C   0  0  0  0  0  0  0  0  0  0  0  0
   20.8920  -25.7390   17.0740 C   0  0  0  0  0  0  0  0  0  0  0  0
   21.5900  -24.8740   17.8620 N   0  0  0  0  0  0  0  0  0  0  0  0
   21.9810  -25.4830   19.1820 C   0  0  0  0  0  0  0  0  0  0  0  0
   22.1440  -24.4620   20.1620 C   0  0  0  0  0  0  0  0  0  0  0  0
   23.0230  -23.2790   19.7530 C   0  0  0  0  0  0  0  0  0  0  0  0
   23.4310  -22.4160   20.7350 N   0  0  0  0  0  0  0  0  0  0  0  0
   22.7240  -22.3380   21.9120 C   0  0  0  0  0  0  0  0  0  0  0  0
   23.0790  -21.1890   22.9190 C   0  0  0  0  0  0  0  0  0  0  0  0
   24.4610  -20.6450   22.8010 C   0  0  0  0  0  0  0  0  0  0  0  0
   24.3170  -19.1600   23.1760 C   0  0  0  0  0  0  0  0  0  0  0  0
   23.5610  -18.9500   24.3810 C   0  0  0  0  0  0  0  0  0  0  0  0
   22.2400  -19.7530   24.5130 C   0  0  0  0  0  0  0  0  0  0  0  0
   22.5890  -21.1360   24.1920 C   0  0  0  0  0  0  0  0  0  0  0  0
   22.4170  -22.7560   18.4640 C   0  0  0  0  0  0  0  0  0  0  0  0
   22.1040  -23.6940   17.3050 C   0  0  0  0  0  0  0  0  0  0  0  0
   20.6140  -25.5310   15.7170 C   0  0  0  0  0  0  0  0  0  0  0  0
   19.8980  -26.4250   14.9280 C   0  0  0  0  0  0  0  0  0  0  0  0
  2  1  1  0
  2  3  2  0
  2  4  2  0
  2  5  1  0
  5  6  2  0
  6  7  1  0
  7  8  2  0
  8  9  1  0
  9 10  1  0
 10 11  1  0
 11 12  1  0
 12 13  1  0
 13 14  1  0
 14 15  1  0
 15 16  1  0
 16 17  1  0
 17 18  1  0
 18 19  1  0
 15 20  1  0
 19 20  1  0
 12 21  1  0
  9 22  1  0
 21 22  1  0
  8 23  1  0
  5 24  1  0
 23 24  2  0
M  END
