WAR-XCH-72a8c209-14-vinylsulfonamide
     RDKit          3D

 32 34  0  0  0  0  0  0  0  0999 V2000
    6.9950   -3.3840   19.5780 C   0  0  0  0  0  0  0  0  0  0  0  0
    5.8710   -4.3170   20.0620 C   0  0  0  0  0  0  0  0  0  0  0  0
    5.4250   -4.0540   21.7410 S   0  0  0  0  0  0  0  0  0  0  0  0
    4.5310   -5.1220   22.1670 O   0  0  0  0  0  0  0  0  0  0  0  0
    4.9970   -2.6770   21.8700 O   0  0  0  0  0  0  0  0  0  0  0  0
    6.8780   -4.2920   22.7180 C   0  0  0  0  0  0  0  0  0  0  0  0
    7.5280   -3.4370   23.2600 C   0  0  0  0  0  0  0  0  0  0  0  0
    7.4790   -4.8900   23.0620 C   0  0  0  0  0  0  0  0  0  0  0  0
    6.3160   -5.6420   22.1590 C   0  0  0  0  0  0  0  0  0  0  0  0
    7.1910   -6.4730   22.6930 C   0  0  0  0  0  0  0  0  0  0  0  0
    7.7290   -5.4630   23.1970 C   0  0  0  0  0  0  0  0  0  0  0  0
    8.8740   -5.4350   24.0320 C   0  0  0  0  0  0  0  0  0  0  0  0
    8.5100   -4.5580   25.1110 N   0  0  0  0  0  0  0  0  0  0  0  0
    7.6930   -5.1400   26.0710 C   0  0  1  0  0  0  0  0  0  0  0  0
    7.8590   -4.4370   27.4080 C   0  0  0  0  0  0  0  0  0  0  0  0
    7.1130   -5.2670   28.4620 C   0  0  0  0  0  0  0  0  0  0  0  0
    5.6320   -5.3630   28.0800 C   0  0  1  0  0  0  0  0  0  0  0  0
    5.1310   -4.2990   28.4430 O   0  0  0  0  0  0  0  0  0  0  0  0
    5.3820   -5.7240   26.7570 C   0  0  0  0  0  0  0  0  0  0  0  0
    6.2070   -5.0550   25.6720 C   0  0  0  0  0  0  0  0  0  0  0  0
    9.0860   -3.2600   25.2230 C   0  0  0  0  0  0  0  0  0  0  0  0
    8.1290   -2.2320   25.1450 C   0  0  0  0  0  0  0  0  0  0  0  0
    8.7410   -0.9970   24.9760 C   0  0  0  0  0  0  0  0  0  0  0  0
    9.2870   -0.9330   23.6420 N   0  0  0  0  0  0  0  0  0  0  0  0
    8.5440   -0.6430   22.3950 C   0  0  0  0  0  0  0  0  0  0  0  0
    7.7470    0.3000   22.3270 O   0  0  0  0  0  0  0  0  0  0  0  0
    7.8430    0.9600   21.1510 C   0  0  0  0  0  0  0  0  0  0  0  0
    8.4870    1.9930   21.0160 O   0  0  0  0  0  0  0  0  0  0  0  0
    7.1120    0.3630   19.9340 C   0  0  0  0  0  0  0  0  0  0  0  0
    6.0640    1.1970   19.2010 C   0  0  0  0  0  0  0  0  0  0  0  0
   10.4480   -1.7960   23.4980 C   0  0  0  0  0  0  0  0  0  0  0  0
   10.0890   -3.1940   24.0260 C   0  0  0  0  0  0  0  0  0  0  0  0
  1  2  1  0
  3  2  1  0
  3  4  2  0
  3  5  2  0
  3  6  1  0
  6  7  2  0
  7  8  1  0
  8  9  2  0
  9 10  1  0
  6 11  1  0
 10 11  2  0
 11 12  1  0
 12 13  1  0
 14 13  1  6
 14 15  1  0
 15 16  1  0
 16 17  1  0
 17 18  1  6
 17 19  1  0
 14 20  1  0
 19 20  1  0
 13 21  1  0
 21 22  1  0
 22 23  1  0
 23 24  1  0
 24 25  1  0
 25 26  1  0
 26 27  1  0
 27 28  2  0
 27 29  1  0
 29 30  3  0
 24 31  1  0
 21 32  1  0
 31 32  1  0
M  END
