WAR-XCH-72a8c209-6-vinylsulfonamide
     RDKit          3D

 28 30  0  0  0  0  0  0  0  0999 V2000
    8.3750   -3.7860   20.0190 C   0  0  0  0  0  0  0  0  0  0  0  0
    7.2910   -2.9800   19.3110 C   0  0  0  0  0  0  0  0  0  0  0  0
    5.9250   -3.2770   20.3650 S   0  0  0  0  0  0  0  0  0  0  0  0
    4.6500   -3.1510   19.6910 O   0  0  0  0  0  0  0  0  0  0  0  0
    6.1600   -4.5190   21.0490 O   0  0  0  0  0  0  0  0  0  0  0  0
    6.1920   -1.9910   21.4500 N   0  0  0  0  0  0  0  0  0  0  0  0
    6.2620   -2.2460   22.8880 C   0  0  0  0  0  0  0  0  0  0  0  0
    7.5120   -2.6690   23.3590 C   0  0  0  0  0  0  0  0  0  0  0  0
    8.6210   -1.8980   23.0490 C   0  0  0  0  0  0  0  0  0  0  0  0
    9.7250   -2.6550   23.5160 N   0  0  0  0  0  0  0  0  0  0  0  0
    9.6570   -4.0090   23.9600 C   0  0  0  0  0  0  0  0  0  0  0  0
    8.3960   -4.7540   23.8280 C   0  0  0  0  0  0  0  0  0  0  0  0
    8.1470   -5.4480   22.6410 C   0  0  0  0  0  0  0  0  0  0  0  0
    6.9590   -6.1550   22.4430 C   0  0  0  0  0  0  0  0  0  0  0  0
    5.8620   -6.2450   23.4410 C   0  0  0  0  0  0  0  0  0  0  0  0
    6.0950   -5.5120   24.7510 C   0  0  0  0  0  0  0  0  0  0  0  0
    7.4280   -4.7570   24.8990 C   0  0  0  0  0  0  0  0  0  0  0  0
    7.5790   -4.0480   26.2510 C   0  0  0  0  0  0  0  0  0  0  0  0
    7.8800   -4.6560   27.4290 N   0  0  0  0  0  0  0  0  0  0  0  0
   10.8520   -1.9490   23.7900 C   0  0  2  0  0  0  0  0  0  0  0  0
   10.6660   -0.6600   24.5590 C   0  0  0  0  0  0  0  0  0  0  0  0
   11.1280    0.4050   23.7820 C   0  0  0  0  0  0  0  0  0  0  0  0
   12.4320    0.2230   23.3540 C   0  0  2  0  0  0  0  0  0  0  0  0
   12.6040    1.1640   22.5870 O   0  0  0  0  0  0  0  0  0  0  0  0
   12.7290   -0.9910   22.7310 C   0  0  0  0  0  0  0  0  0  0  0  0
   11.5880   -1.7900   22.5970 C   0  0  0  0  0  0  0  0  0  0  0  0
    8.6830   -1.4370   21.7290 C   0  0  0  0  0  0  0  0  0  0  0  0
    7.2740   -0.9210   21.3330 C   0  0  0  0  0  0  0  0  0  0  0  0
  1  2  1  0
  3  2  1  0
  3  4  2  0
  3  5  2  0
  3  6  1  0
  6  7  1  0
  7  8  1  0
  8  9  1  0
  9 10  1  0
 10 11  1  0
 11 12  1  0
 12 13  2  0
 13 14  1  0
 14 15  2  0
 15 16  1  0
 12 17  1  0
 16 17  2  0
 17 18  1  0
 18 19  3  0
 20 10  1  6
 20 21  1  0
 21 22  1  0
 22 23  1  0
 23 24  1  6
 23 25  1  0
 20 26  1  0
 25 26  1  0
  9 27  1  0
  6 28  1  0
 27 28  1  0
M  END
