WAR-XCH-bdd24732-35
     RDKit          3D

 27 30  0  0  0  0  0  0  0  0999 V2000
    5.2840   -5.8890   23.8770 C   0  0  0  0  0  0  0  0  0  0  0  0
    6.6770   -6.0430   23.7380 C   0  0  0  0  0  0  0  0  0  0  0  0
    7.6260   -4.8840   24.0350 C   0  0  0  0  0  0  0  0  0  0  0  0
    7.6770   -3.7810   23.0060 C   0  0  0  0  0  0  0  0  0  0  0  0
    6.7720   -3.7460   21.8940 C   0  0  0  0  0  0  0  0  0  0  0  0
    6.8640   -2.7120   20.9340 C   0  0  0  0  0  0  0  0  0  0  0  0
    6.0220   -2.6430   19.8470 C   0  0  0  0  0  0  0  0  0  0  0  0
    6.4800   -1.8820   18.7720 C   0  0  0  0  0  0  0  0  0  0  0  0
    6.1780   -0.5030   18.8090 C   0  0  0  0  0  0  0  0  0  0  0  0
    6.8920    0.5190   19.6550 C   0  0  0  0  0  0  0  0  0  0  0  0
    6.4360    1.7500   19.5260 N   0  0  0  0  0  0  0  0  0  0  0  0
    5.4120    1.5620   18.5960 N   0  0  0  0  0  0  0  0  0  0  0  0
    5.2390    0.2740   18.1640 C   0  0  0  0  0  0  0  0  0  0  0  0
    7.8600   -1.7710   21.1470 C   0  0  0  0  0  0  0  0  0  0  0  0
    8.5220   -2.0970   22.2820 C   0  0  0  0  0  0  0  0  0  0  0  0
    8.6610   -2.7830   23.1620 N   0  0  0  0  0  0  0  0  0  0  0  0
    8.9070   -5.4500   24.2110 C   0  0  0  0  0  0  0  0  0  0  0  0
    9.3640   -5.1820   25.4910 C   0  0  0  0  0  0  0  0  0  0  0  0
    8.4960   -5.4260   26.5380 C   0  0  0  0  0  0  0  0  0  0  0  0
    7.0990   -5.3000   26.3590 C   0  0  0  0  0  0  0  0  0  0  0  0
    7.1130   -4.2990   25.4070 C   0  0  0  0  0  0  0  0  0  0  0  0
    3.8640   -5.7140   23.9770 C   0  0  0  0  0  0  0  0  0  0  0  0
    2.8990   -6.4630   23.1210 C   0  0  0  0  0  0  0  0  0  0  0  0
    1.4610   -6.1910   23.3200 C   0  0  0  0  0  0  0  0  0  0  0  0
    1.0270   -5.2010   24.3460 C   0  0  0  0  0  0  0  0  0  0  0  0
    2.0660   -4.5810   25.0710 C   0  0  0  0  0  0  0  0  0  0  0  0
    3.4180   -4.7970   24.9250 N   0  0  0  0  0  0  0  0  0  0  0  0
  1  2  3  0
  3  2  1  0
  3  4  1  0
  4  5  2  0
  5  6  1  0
  6  7  1  0
  7  8  1  0
  8  9  1  0
  9 10  1  0
 10 11  2  0
 11 12  1  0
  9 13  2  0
 12 13  1  0
  6 14  2  0
 14 15  1  0
  4 16  1  0
 15 16  2  0
  3 17  1  0
 17 18  1  0
 18 19  1  0
 19 20  1  0
  3 21  1  0
 20 21  1  0
  1 22  1  0
 22 23  2  0
 23 24  1  0
 24 25  2  0
 25 26  1  0
 22 27  1  0
 26 27  2  0
M  END
