WAR-XCH-b0339bbe-14-chloroacetamide
     RDKit          3D

 25 27  0  0  0  0  0  0  0  0999 V2000
    7.5710   -3.0050   18.6200 C   0  0  0  0  0  0  0  0  0  0  0  0
    6.2670   -2.8320   19.3210 C   0  0  0  0  0  0  0  0  0  0  0  0
    5.4680   -3.7610   19.4990 O   0  0  0  0  0  0  0  0  0  0  0  0
    5.9730   -1.4370   19.7780 C   0  0  0  0  0  0  0  0  0  0  0  0
    5.1040   -0.4950   18.9000 C   0  0  0  0  0  0  0  0  0  0  0  0
    4.8370    0.9360   19.4100 C   0  0  0  0  0  0  0  0  0  0  0  0
    5.4680    1.3300   20.7700 C   0  0  0  0  0  0  0  0  0  0  0  0
    6.3290    0.3040   21.5670 C   0  0  0  0  0  0  0  0  0  0  0  0
    6.5300   -1.0650   20.9900 C   0  0  0  0  0  0  0  0  0  0  0  0
    7.3620   -2.0900   21.7260 C   0  0  0  0  0  0  0  0  0  0  0  0
    7.2990   -1.9980   23.1820 N   0  0  0  0  0  0  0  0  0  0  0  0
    6.4940   -3.0630   23.8150 C   0  0  0  0  0  0  0  0  0  0  0  0
    7.3200   -4.1950   24.0440 C   0  0  0  0  0  0  0  0  0  0  0  0
    7.0560   -5.5260   23.5850 C   0  0  0  0  0  0  0  0  0  0  0  0
    7.1640   -5.8580   22.2250 C   0  0  0  0  0  0  0  0  0  0  0  0
    8.3250   -5.3540   22.6230 C   0  0  0  0  0  0  0  0  0  0  0  0
    8.4670   -4.9830   23.9870 C   0  0  0  0  0  0  0  0  0  0  0  0
    7.0910   -5.3650   24.4120 C   0  0  0  0  0  0  0  0  0  0  0  0
    5.8970   -5.9090   23.8730 N   0  0  0  0  0  0  0  0  0  0  0  0
    5.9710   -6.1890   22.5930 C   0  0  0  0  0  0  0  0  0  0  0  0
    5.2500   -3.4110   22.9190 C   0  0  0  0  0  0  0  0  0  0  0  0
    4.1410   -3.9370   23.6030 C   0  0  0  0  0  0  0  0  0  0  0  0
    3.7020   -3.0740   24.7790 C   0  0  0  0  0  0  0  0  0  0  0  0
    4.8190   -2.9310   25.7960 C   0  0  0  0  0  0  0  0  0  0  0  0
    6.1250   -2.4080   25.1930 C   0  0  0  0  0  0  0  0  0  0  0  0
  1  2  1  0
  2  3  2  0
  2  4  1  0
  4  5  2  0
  5  6  1  0
  6  7  2  0
  7  8  1  0
  4  9  1  0
  8  9  2  0
  9 10  1  0
 10 11  1  0
 11 12  1  0
 12 13  1  0
 13 14  3  0
 14 15  1  0
 15 16  2  0
 16 17  1  0
 17 18  2  0
 18 19  1  0
 15 20  1  0
 19 20  2  0
 12 21  1  0
 21 22  1  0
 22 23  1  0
 23 24  1  0
 12 25  1  0
 24 25  1  0
M  END
