WAR-XCH-b0339bbe-11
     RDKit          3D

 25 28  0  0  0  0  0  0  0  0999 V2000
    5.2960   -3.2840   27.0990 C   0  0  0  0  0  0  0  0  0  0  0  0
    6.0470   -4.3440   27.8530 C   0  0  0  0  0  0  0  0  0  0  0  0
    7.2120   -5.5200   27.5160 C   0  0  0  0  0  0  0  0  0  0  0  0
    7.6670   -5.4940   25.8170 C   0  0  0  0  0  0  0  0  0  0  0  0
    6.6760   -4.4790   26.0740 N   0  0  0  0  0  0  0  0  0  0  0  0
    6.1910   -3.6450   25.1350 C   0  0  0  0  0  0  0  0  0  0  0  0
    6.7710   -3.9020   23.9130 N   0  0  0  0  0  0  0  0  0  0  0  0
    6.4620   -3.1910   22.7700 C   0  0  0  0  0  0  0  0  0  0  0  0
    5.3090   -2.1430   22.8160 C   0  0  0  0  0  0  0  0  0  0  0  0
    5.9090   -0.9230   22.1450 C   0  0  0  0  0  0  0  0  0  0  0  0
    5.0470    0.2820   21.8200 C   0  0  0  0  0  0  0  0  0  0  0  0
    5.6550    1.4740   22.2360 C   0  0  0  0  0  0  0  0  0  0  0  0
    5.0640    2.6350   21.7290 C   0  0  0  0  0  0  0  0  0  0  0  0
    3.9390    2.5140   20.8920 C   0  0  0  0  0  0  0  0  0  0  0  0
    3.7310    1.3110   20.1960 C   0  0  0  0  0  0  0  0  0  0  0  0
    4.7190    0.3610   20.4580 C   0  0  0  0  0  0  0  0  0  0  0  0
    6.0640   -4.2220   21.6740 C   0  0  0  0  0  0  0  0  0  0  0  0
    5.6480   -3.5030   20.5680 C   0  0  0  0  0  0  0  0  0  0  0  0
    6.5980   -2.4060   20.1010 C   0  0  0  0  0  0  0  0  0  0  0  0
    7.7680   -2.2410   20.8530 C   0  0  0  0  0  0  0  0  0  0  0  0
    7.7340   -2.4110   22.2550 C   0  0  0  0  0  0  0  0  0  0  0  0
    7.5470   -4.9140   24.3770 C   0  0  0  0  0  0  0  0  0  0  0  0
    7.3880   -5.1590   25.7360 C   0  0  0  0  0  0  0  0  0  0  0  0
    6.9090   -5.0290   27.0150 C   0  0  0  0  0  0  0  0  0  0  0  0
    7.5640   -5.9810   27.8550 C   0  0  0  0  0  0  0  0  0  0  0  0
  1  2  1  0
  2  3  2  0
  3  4  1  0
  4  5  1  0
  5  6  2  0
  6  7  1  0
  7  8  1  0
  8  9  1  0
  9 10  3  0
 10 11  1  0
 11 12  1  0
 12 13  1  0
 13 14  1  0
 14 15  1  0
 11 16  1  0
 15 16  1  0
  8 17  1  0
 17 18  1  0
 18 19  1  0
 19 20  1  0
  8 21  1  0
 20 21  1  0
  4 22  2  0
  7 22  1  0
 22 23  1  0
  2 24  1  0
 23 24  2  0
 24 25  1  0
M  END
