WAR-XCH-72a8c209-10-vinylsulfonamide
     RDKit          3D

 28 30  0  0  0  0  0  0  0  0999 V2000
    7.9870   -3.4770   19.5640 C   0  0  0  0  0  0  0  0  0  0  0  0
    6.8900   -2.7500   18.8390 C   0  0  0  0  0  0  0  0  0  0  0  0
    5.6760   -3.3460   19.9190 S   0  0  0  0  0  0  0  0  0  0  0  0
    4.3790   -2.9980   19.5440 O   0  0  0  0  0  0  0  0  0  0  0  0
    5.8700   -4.7490   20.0550 O   0  0  0  0  0  0  0  0  0  0  0  0
    6.2040   -2.4850   21.2830 N   0  0  0  0  0  0  0  0  0  0  0  0
    6.1100   -3.1570   22.5660 C   0  0  0  0  0  0  0  0  0  0  0  0
    7.2870   -2.7250   23.4210 C   0  0  0  0  0  0  0  0  0  0  0  0
    8.5240   -2.5060   22.7140 C   0  0  0  0  0  0  0  0  0  0  0  0
    9.6820   -2.4060   23.6180 N   0  0  0  0  0  0  0  0  0  0  0  0
    9.8830   -3.3190   24.6780 C   0  0  0  0  0  0  0  0  0  0  0  0
    8.8440   -4.2790   24.8890 C   0  0  0  0  0  0  0  0  0  0  0  0
    8.4240   -4.8030   23.6880 C   0  0  0  0  0  0  0  0  0  0  0  0
    7.3840   -5.7800   23.6070 C   0  0  0  0  0  0  0  0  0  0  0  0
    6.7030   -6.2540   24.9030 C   0  0  0  0  0  0  0  0  0  0  0  0
    7.1750   -5.6690   26.1640 C   0  0  0  0  0  0  0  0  0  0  0  0
    8.2980   -4.6520   26.1060 C   0  0  0  0  0  0  0  0  0  0  0  0
    8.6410   -4.1960   27.4520 C   0  0  0  0  0  0  0  0  0  0  0  0
    8.8790   -3.9100   28.5310 N   0  0  0  0  0  0  0  0  0  0  0  0
   10.6210   -1.2970   23.3420 C   0  0  1  0  0  0  0  0  0  0  0  0
   10.7660   -0.3260   24.4910 C   0  0  0  0  0  0  0  0  0  0  0  0
   11.8970    0.6200   24.2160 C   0  0  0  0  0  0  0  0  0  0  0  0
   12.4330    0.4910   22.9830 C   0  0  1  0  0  0  0  0  0  0  0  0
   13.5080    1.3970   22.8550 O   0  0  0  0  0  0  0  0  0  0  0  0
   12.8530   -0.7800   22.7070 C   0  0  0  0  0  0  0  0  0  0  0  0
   11.8400   -1.7340   22.7930 C   0  0  0  0  0  0  0  0  0  0  0  0
    8.3780   -1.3290   21.7420 C   0  0  0  0  0  0  0  0  0  0  0  0
    7.0890   -1.2900   21.1500 C   0  0  0  0  0  0  0  0  0  0  0  0
  1  2  1  0
  3  2  1  0
  3  4  2  0
  3  5  2  0
  3  6  1  0
  6  7  1  0
  7  8  1  0
  8  9  1  0
  9 10  1  0
 10 11  1  0
 11 12  1  0
 12 13  2  0
 13 14  1  0
 14 15  2  0
 15 16  1  0
 12 17  1  0
 16 17  2  0
 17 18  1  0
 18 19  3  0
 20 10  1  1
 20 21  1  0
 21 22  1  0
 22 23  1  0
 23 24  1  1
 23 25  1  0
 20 26  1  0
 25 26  1  0
  9 27  1  0
  6 28  1  0
 27 28  1  0
M  END
