WAR-XCH-6eb0722e-2
     RDKit          3D

 25 26  0  0  0  0  0  0  0  0999 V2000
    8.1120   -0.7270   30.1410 C   0  0  0  0  0  0  0  0  0  0  0  0
    8.7020    0.7600   29.3710 S   0  0  0  0  0  0  0  0  0  0  0  0
   10.1410    0.6860   29.3040 O   0  0  0  0  0  0  0  0  0  0  0  0
    8.0490    1.9150   29.9410 O   0  0  0  0  0  0  0  0  0  0  0  0
    8.1510    0.5720   27.8070 N   0  0  0  0  0  0  0  0  0  0  0  0
    8.8520   -0.3160   26.8610 C   0  0  0  0  0  0  0  0  0  0  0  0
    8.4250   -0.1130   25.3970 C   0  0  0  0  0  0  0  0  0  0  0  0
    9.2470    0.9600   24.6770 C   0  0  0  0  0  0  0  0  0  0  0  0
   10.3380    0.3580   23.8450 C   0  0  0  0  0  0  0  0  0  0  0  0
   11.7000    0.6830   23.9210 C   0  0  0  0  0  0  0  0  0  0  0  0
   12.6890    0.0770   23.1320 C   0  0  0  0  0  0  0  0  0  0  0  0
   12.3100   -0.9120   22.2170 C   0  0  0  0  0  0  0  0  0  0  0  0
   13.3850   -1.7350   21.2200 Cl  0  0  0  0  0  0  0  0  0  0  0  0
   10.9170   -1.3220   22.0400 C   0  0  0  0  0  0  0  0  0  0  0  0
    9.9500   -0.6160   22.9130 C   0  0  0  0  0  0  0  0  0  0  0  0
    8.6780   -1.0220   22.6890 N   0  0  0  0  0  0  0  0  0  0  0  0
    8.2310   -0.2330   21.6410 C   0  0  0  0  0  0  0  0  0  0  0  0
    8.7550    0.8180   21.2940 O   0  0  0  0  0  0  0  0  0  0  0  0
    7.1080   -0.7510   21.0230 N   0  0  0  0  0  0  0  0  0  0  0  0
    6.3940   -0.0420   20.0410 C   0  0  0  0  0  0  0  0  0  0  0  0
    5.2050    0.6520   20.2460 C   0  0  0  0  0  0  0  0  0  0  0  0
    4.5950    1.3310   19.1970 C   0  0  0  0  0  0  0  0  0  0  0  0
    5.2150    1.2930   17.9420 C   0  0  0  0  0  0  0  0  0  0  0  0
    6.3580    0.6270   17.7220 N   0  0  0  0  0  0  0  0  0  0  0  0
    6.9180   -0.0220   18.7590 C   0  0  0  0  0  0  0  0  0  0  0  0
  1  2  1  0
  2  3  2  0
  2  4  2  0
  2  5  1  0
  5  6  1  0
  6  7  1  0
  7  8  1  0
  8  9  1  0
  9 10  2  0
 10 11  1  0
 11 12  2  0
 12 13  1  0
 12 14  1  0
  9 15  1  0
 14 15  2  0
 15 16  1  0
 16 17  1  0
 17 18  2  0
 17 19  1  0
 19 20  1  0
 20 21  2  0
 21 22  1  0
 22 23  2  0
 23 24  1  0
 20 25  1  0
 24 25  2  0
M  END
