WAR-XCH-72a8c209-10-chloroacetamide
     RDKit          3D

 26 28  0  0  0  0  0  0  0  0999 V2000
    7.0740   -3.2890   19.3030 C   0  0  0  0  0  0  0  0  0  0  0  0
    6.2720   -4.1170   20.2800 C   0  0  0  0  0  0  0  0  0  0  0  0
    5.3620   -4.8650   19.9780 O   0  0  0  0  0  0  0  0  0  0  0  0
    6.6610   -4.0010   21.6170 N   0  0  0  0  0  0  0  0  0  0  0  0
    6.5810   -5.1480   22.5170 C   0  0  0  0  0  0  0  0  0  0  0  0
    6.1270   -4.7210   23.7810 C   0  0  0  0  0  0  0  0  0  0  0  0
    6.2400   -3.3210   23.9380 C   0  0  0  0  0  0  0  0  0  0  0  0
    5.9380   -3.0120   25.2680 N   0  0  0  0  0  0  0  0  0  0  0  0
    6.8590   -2.7400   26.2910 C   0  0  0  0  0  0  0  0  0  0  0  0
    7.2500   -3.9380   26.9650 C   0  0  0  0  0  0  0  0  0  0  0  0
    6.2470   -4.5760   27.6630 C   0  0  0  0  0  0  0  0  0  0  0  0
    6.3740   -5.7320   28.3620 C   0  0  0  0  0  0  0  0  0  0  0  0
    7.6940   -6.3760   28.3870 C   0  0  0  0  0  0  0  0  0  0  0  0
    8.8460   -5.7280   27.6450 C   0  0  0  0  0  0  0  0  0  0  0  0
    8.5720   -4.4470   26.9090 C   0  0  0  0  0  0  0  0  0  0  0  0
    9.7660   -3.8390   26.1670 C   0  0  0  0  0  0  0  0  0  0  0  0
   10.9970   -4.3940   26.0540 N   0  0  0  0  0  0  0  0  0  0  0  0
    4.6450   -3.0070   25.6240 C   0  0  2  0  0  0  0  0  0  0  0  0
    3.6970   -3.9420   24.9110 C   0  0  0  0  0  0  0  0  0  0  0  0
    2.4020   -3.8190   25.4520 C   0  0  0  0  0  0  0  0  0  0  0  0
    2.1220   -2.5710   26.0330 C   0  0  2  0  0  0  0  0  0  0  0  0
    0.9220   -2.3020   26.0220 O   0  0  0  0  0  0  0  0  0  0  0  0
    2.8400   -1.5470   25.4000 C   0  0  0  0  0  0  0  0  0  0  0  0
    4.2070   -1.6820   25.5960 C   0  0  0  0  0  0  0  0  0  0  0  0
    7.4130   -2.6860   23.5110 C   0  0  0  0  0  0  0  0  0  0  0  0
    7.8710   -3.3740   22.2380 C   0  0  0  0  0  0  0  0  0  0  0  0
  1  2  1  0
  2  3  2  0
  2  4  1  0
  4  5  1  0
  5  6  1  0
  6  7  1  0
  7  8  1  0
  8  9  1  0
  9 10  1  0
 10 11  2  0
 11 12  1  0
 12 13  2  0
 13 14  1  0
 10 15  1  0
 14 15  2  0
 15 16  1  0
 16 17  3  0
 18  8  1  6
 18 19  1  0
 19 20  1  0
 20 21  1  0
 21 22  1  6
 21 23  1  0
 18 24  1  0
 23 24  1  0
  7 25  1  0
  4 26  1  0
 25 26  1  0
M  END
