WAR-XCH-bdd24732-32-nitrile
     RDKit          3D

 25 28  0  0  0  0  0  0  0  0999 V2000
    6.4140   -4.3720   20.1360 C   0  0  0  0  0  0  0  0  0  0  0  0
    5.7140   -5.4340   20.0450 N   0  0  0  0  0  0  0  0  0  0  0  0
    6.2290   -3.6340   21.2790 N   0  0  0  0  0  0  0  0  0  0  0  0
    5.8140   -4.2860   22.5110 C   0  0  0  0  0  0  0  0  0  0  0  0
    6.9250   -4.1950   23.5240 C   0  0  0  0  0  0  0  0  0  0  0  0
    8.2310   -3.6450   22.9800 C   0  0  0  0  0  0  0  0  0  0  0  0
    9.2650   -3.6020   23.9360 N   0  0  0  0  0  0  0  0  0  0  0  0
    8.9020   -4.2410   25.2110 C   0  0  0  0  0  0  0  0  0  0  0  0
    9.7060   -5.2470   25.7350 C   0  0  0  0  0  0  0  0  0  0  0  0
    9.0850   -5.6220   26.8680 C   0  0  0  0  0  0  0  0  0  0  0  0
    8.0230   -5.2750   27.4810 C   0  0  0  0  0  0  0  0  0  0  0  0
    7.5140   -3.9540   26.2780 S   0  0  0  0  0  0  0  0  0  0  0  0
    7.3260   -5.5980   28.5720 C   0  0  0  0  0  0  0  0  0  0  0  0
    6.0640   -5.3760   27.8650 C   0  0  0  0  0  0  0  0  0  0  0  0
    6.6540   -4.9980   26.4610 C   0  0  0  0  0  0  0  0  0  0  0  0
    8.1330   -4.6370   26.4390 C   0  0  0  0  0  0  0  0  0  0  0  0
   10.2140   -2.4700   24.0180 C   0  0  2  0  0  0  0  0  0  0  0  0
   10.5140   -2.1360   22.6990 C   0  0  0  0  0  0  0  0  0  0  0  0
   11.8120   -1.7760   22.3900 C   0  0  0  0  0  0  0  0  0  0  0  0
   12.7710   -1.8660   23.3870 C   0  0  1  0  0  0  0  0  0  0  0  0
   13.1680   -0.7140   23.5510 O   0  0  0  0  0  0  0  0  0  0  0  0
   12.6000   -2.3980   24.6950 C   0  0  0  0  0  0  0  0  0  0  0  0
   11.3020   -2.9360   24.8180 C   0  0  0  0  0  0  0  0  0  0  0  0
    7.9120   -2.2680   22.3150 C   0  0  0  0  0  0  0  0  0  0  0  0
    6.6560   -2.3360   21.4760 C   0  0  0  0  0  0  0  0  0  0  0  0
  1  2  2  3
  1  3  1  0
  3  4  1  0
  4  5  1  0
  5  6  1  0
  6  7  1  0
  7  8  1  0
  8  9  2  0
  9 10  1  0
 10 11  2  0
  8 12  1  0
 11 12  1  0
 11 13  1  0
 13 14  1  0
 14 15  1  0
 10 16  1  0
 15 16  1  0
 17  7  1  6
 17 18  1  0
 18 19  1  0
 19 20  1  0
 20 21  1  1
 20 22  1  0
 17 23  1  0
 22 23  1  0
  6 24  1  0
  3 25  1  0
 24 25  1  0
M  END
