WAR-XCH-e55cba98-3
     RDKit          3D

 28 31  0  0  0  0  0  0  0  0999 V2000
    9.2550   -6.0670   23.1050 C   0  0  0  0  0  0  0  0  0  0  0  0
    9.0800   -4.6800   23.6510 C   0  0  0  0  0  0  0  0  0  0  0  0
    7.9930   -4.2890   24.0850 O   0  0  0  0  0  0  0  0  0  0  0  0
   10.2910   -3.8470   23.6290 N   0  0  0  0  0  0  0  0  0  0  0  0
    9.9460   -2.4440   23.7490 C   0  0  0  0  0  0  0  0  0  0  0  0
   10.8190   -1.5510   24.3210 C   0  0  0  0  0  0  0  0  0  0  0  0
   10.3680   -0.2510   24.3660 C   0  0  0  0  0  0  0  0  0  0  0  0
    9.1740    0.2020   24.8930 C   0  0  0  0  0  0  0  0  0  0  0  0
    9.0160    1.5600   24.7720 N   0  0  0  0  0  0  0  0  0  0  0  0
   10.2650    1.9970   24.0940 C   0  0  0  0  0  0  0  0  0  0  0  0
   10.7040    3.3780   23.6740 C   0  0  0  0  0  0  0  0  0  0  0  0
    9.8570    4.6840   23.8390 C   0  0  0  0  0  0  0  0  0  0  0  0
   10.8130    5.8230   23.7810 C   0  0  0  0  0  0  0  0  0  0  0  0
   11.0440    6.5500   25.1400 C   0  0  0  0  0  0  0  0  0  0  0  0
   11.9830    7.7320   25.1940 C   0  0  0  0  0  0  0  0  0  0  0  0
   12.5950    8.0480   23.8630 C   0  0  0  0  0  0  0  0  0  0  0  0
   12.3310    7.3370   22.7610 N   0  0  0  0  0  0  0  0  0  0  0  0
   11.4840    6.2700   22.6620 C   0  0  0  0  0  0  0  0  0  0  0  0
    8.8780    4.9860   22.8510 C   0  0  0  0  0  0  0  0  0  0  0  0
    7.5460    4.7830   23.2390 C   0  0  0  0  0  0  0  0  0  0  0  0
    7.1440    5.7370   24.1640 C   0  0  0  0  0  0  0  0  0  0  0  0
    8.2100    6.0920   24.9680 C   0  0  0  0  0  0  0  0  0  0  0  0
    9.0970    5.0260   25.1590 C   0  0  0  0  0  0  0  0  0  0  0  0
   12.0950    3.4180   23.0030 C   0  0  0  0  0  0  0  0  0  0  0  0
   12.8030    2.1860   22.8140 C   0  0  0  0  0  0  0  0  0  0  0  0
   13.9890    2.1650   22.2110 F   0  0  0  0  0  0  0  0  0  0  0  0
   12.2750    0.9670   23.2430 C   0  0  0  0  0  0  0  0  0  0  0  0
   11.0460    0.8540   23.8730 C   0  0  0  0  0  0  0  0  0  0  0  0
  1  2  1  0
  2  3  2  0
  2  4  1  0
  4  5  1  0
  5  6  1  0
  6  7  1  0
  7  8  2  0
  8  9  1  0
  9 10  1  0
 10 11  1  0
 12 11  1  0
 12 13  1  0
 13 14  2  0
 14 15  1  0
 15 16  2  0
 16 17  1  0
 13 18  1  0
 17 18  2  0
 12 19  1  0
 19 20  1  0
 20 21  1  0
 21 22  1  0
 12 23  1  0
 22 23  1  0
 11 24  2  0
 24 25  1  0
 25 26  1  0
 25 27  2  0
  7 28  1  0
 10 28  2  0
 27 28  1  0
M  END
