WAR-XCH-bdd24732-39
     RDKit          3D

 32 35  0  0  0  0  0  0  0  0999 V2000
    5.5560   -2.0070   25.2180 O   0  0  0  0  0  0  0  0  0  0  0  0
    6.9910   -2.0550   25.3570 S   0  0  0  0  0  0  0  0  0  0  0  0
    7.7810   -0.9610   25.8820 O   0  0  0  0  0  0  0  0  0  0  0  0
    7.4770   -3.4660   26.2830 C   0  0  0  0  0  0  0  0  0  0  0  0
    8.6030   -4.2210   25.9220 C   0  0  0  0  0  0  0  0  0  0  0  0
    9.0370   -5.4290   26.7000 C   0  0  0  0  0  0  0  0  0  0  0  0
    8.1740   -5.7610   27.8920 C   0  0  0  0  0  0  0  0  0  0  0  0
    7.0590   -4.9480   28.1850 C   0  0  0  0  0  0  0  0  0  0  0  0
    6.7260   -3.8380   27.4040 C   0  0  0  0  0  0  0  0  0  0  0  0
    5.6480   -3.1320   27.7690 F   0  0  0  0  0  0  0  0  0  0  0  0
    7.6480   -2.3530   23.8560 N   0  0  0  0  0  0  0  0  0  0  0  0
    7.0250   -2.8040   22.7330 C   0  0  2  0  0  0  0  0  0  0  0  0
    6.4370   -1.8860   21.8540 C   0  0  0  0  0  0  0  0  0  0  0  0
    6.4000   -2.3800   20.5460 C   0  0  0  0  0  0  0  0  0  0  0  0
    5.6760   -3.6850   20.5380 C   0  0  1  0  0  0  0  0  0  0  0  0
    5.2840   -3.9820   19.2070 O   0  0  0  0  0  0  0  0  0  0  0  0
    6.4810   -4.6280   21.4130 C   0  0  0  0  0  0  0  0  0  0  0  0
    6.5160   -4.0950   22.7240 C   0  0  0  0  0  0  0  0  0  0  0  0
    8.4470   -1.3500   23.5700 C   0  0  0  0  0  0  0  0  0  0  0  0
    9.5250   -1.2040   24.4200 C   0  0  0  0  0  0  0  0  0  0  0  0
   10.1710   -0.0540   24.8760 C   0  0  0  0  0  0  0  0  0  0  0  0
   10.9080    0.8840   24.1590 C   0  0  0  0  0  0  0  0  0  0  0  0
   12.1990    0.5570   23.7110 C   0  0  0  0  0  0  0  0  0  0  0  0
   12.5270    1.6010   22.8710 C   0  0  0  0  0  0  0  0  0  0  0  0
   11.7370    2.9030   22.8070 C   0  0  0  0  0  0  0  0  0  0  0  0
   10.2840    2.5790   22.7460 C   0  0  0  0  0  0  0  0  0  0  0  0
    9.9640    1.2330   23.2500 C   0  0  0  0  0  0  0  0  0  0  0  0
    7.5480   -0.0390   23.7120 C   0  0  0  0  0  0  0  0  0  0  0  0
    7.2900    0.7890   22.6190 C   0  0  0  0  0  0  0  0  0  0  0  0
    7.9110    0.5560   21.3850 C   0  0  0  0  0  0  0  0  0  0  0  0
    8.7820   -0.5190   21.2250 C   0  0  0  0  0  0  0  0  0  0  0  0
    8.9490   -1.5670   22.1280 C   0  0  0  0  0  0  0  0  0  0  0  0
  1  2  2  0
  2  3  2  0
  2  4  1  0
  4  5  2  0
  5  6  1  0
  6  7  2  0
  7  8  1  0
  4  9  1  0
  8  9  2  0
  9 10  1  0
  2 11  1  0
 12 11  1  1
 12 13  1  0
 13 14  1  0
 14 15  1  0
 15 16  1  6
 15 17  1  0
 12 18  1  0
 17 18  1  0
 11 19  1  0
 19 20  1  0
 20 21  3  0
 21 22  1  0
 22 23  1  0
 23 24  1  0
 24 25  1  0
 25 26  1  0
 22 27  1  0
 26 27  1  0
 19 28  1  0
 28 29  1  0
 29 30  1  0
 30 31  1  0
 19 32  1  0
 31 32  1  0
M  END
