WAR-XCH-b6889685-62
     RDKit          3D

 26 28  0  0  0  0  0  0  0  0999 V2000
   21.7450  -23.2160   22.2860 C   0  0  0  0  0  0  0  0  0  0  0  0
   23.0440  -22.5170   21.9760 C   0  0  2  0  0  0  0  0  0  0  0  0
   23.1650  -21.2630   22.6110 C   0  0  0  0  0  0  0  0  0  0  0  0
   22.3790  -20.9860   23.7470 C   0  0  0  0  0  0  0  0  0  0  0  0
   22.4280  -19.7350   24.4160 C   0  0  0  0  0  0  0  0  0  0  0  0
   23.2530  -18.6770   24.0150 C   0  0  0  0  0  0  0  0  0  0  0  0
   24.1200  -18.9200   22.8150 C   0  0  0  0  0  0  0  0  0  0  0  0
   24.0440  -20.2620   22.1280 C   0  0  0  0  0  0  0  0  0  0  0  0
   23.2870  -22.3940   20.5920 N   0  0  0  0  0  0  0  0  0  0  0  0
   24.7260  -22.1900   20.3370 C   0  0  0  0  0  0  0  0  0  0  0  0
   22.4360  -23.1110   19.6360 C   0  0  0  0  0  0  0  0  0  0  0  0
   22.5370  -22.5810   18.2090 C   0  0  0  0  0  0  0  0  0  0  0  0
   21.5690  -23.2210   17.4450 C   0  0  0  0  0  0  0  0  0  0  0  0
   21.6290  -24.5850   17.4720 N   0  0  0  0  0  0  0  0  0  0  0  0
   21.3720  -25.4060   16.2660 C   0  0  0  0  0  0  0  0  0  0  0  0
   22.4850  -25.4820   15.3470 C   0  0  0  0  0  0  0  0  0  0  0  0
   22.2080  -26.3220   14.1100 C   0  0  0  0  0  0  0  0  0  0  0  0
   20.8520  -26.9940   13.9210 C   0  0  0  0  0  0  0  0  0  0  0  0
   20.6600  -27.9080   12.4900 S   0  0  0  0  0  0  0  0  0  0  0  0
   18.9930  -28.1400   12.4140 N   0  0  0  0  0  0  0  0  0  0  0  0
   21.0390  -27.0910   11.3540 O   0  0  0  0  0  0  0  0  0  0  0  0
   21.2430  -29.2160   12.7000 O   0  0  0  0  0  0  0  0  0  0  0  0
   19.8390  -26.8200   14.9380 C   0  0  0  0  0  0  0  0  0  0  0  0
   20.1280  -26.0440   16.0630 C   0  0  0  0  0  0  0  0  0  0  0  0
   21.8960  -25.3480   18.6900 C   0  0  0  0  0  0  0  0  0  0  0  0
   22.7430  -24.6360   19.5300 C   0  0  0  0  0  0  0  0  0  0  0  0
  2  1  1  6
  2  3  1  0
  3  4  2  0
  4  5  1  0
  5  6  2  0
  6  7  1  0
  3  8  1  0
  7  8  2  0
  2  9  1  0
  9 10  1  0
  9 11  1  0
 11 12  1  0
 12 13  1  0
 13 14  1  0
 14 15  1  0
 15 16  2  0
 16 17  1  0
 17 18  2  0
 18 19  1  0
 19 20  1  0
 19 21  2  0
 19 22  2  0
 18 23  1  0
 15 24  1  0
 23 24  2  0
 14 25  1  0
 11 26  1  0
 25 26  1  0
M  END
