WAR-XCH-bdd24732-8
     RDKit          3D

 32 35  0  0  0  0  0  0  0  0999 V2000
    5.7920   -1.7490   25.2670 O   0  0  0  0  0  0  0  0  0  0  0  0
    7.2310   -1.8350   25.2930 S   0  0  0  0  0  0  0  0  0  0  0  0
    8.0070   -0.8020   25.9440 O   0  0  0  0  0  0  0  0  0  0  0  0
    7.6150   -3.3230   26.1710 C   0  0  0  0  0  0  0  0  0  0  0  0
    8.7380   -4.1720   25.7460 C   0  0  0  0  0  0  0  0  0  0  0  0
    9.1000   -5.4720   26.5120 C   0  0  0  0  0  0  0  0  0  0  0  0
    8.1800   -5.7930   27.7550 C   0  0  0  0  0  0  0  0  0  0  0  0
    7.0080   -4.8620   28.1550 C   0  0  0  0  0  0  0  0  0  0  0  0
    6.8410   -3.6400   27.2560 C   0  0  0  0  0  0  0  0  0  0  0  0
    5.8330   -2.8320   27.5990 F   0  0  0  0  0  0  0  0  0  0  0  0
    7.9440   -1.9320   23.6860 N   0  0  0  0  0  0  0  0  0  0  0  0
    7.3790   -2.7150   22.5710 C   0  0  2  0  0  0  0  0  0  0  0  0
    6.5890   -1.8440   21.6080 C   0  0  0  0  0  0  0  0  0  0  0  0
    6.2700   -2.5770   20.3330 C   0  0  0  0  0  0  0  0  0  0  0  0
    5.7140   -3.7910   20.7230 C   0  0  1  0  0  0  0  0  0  0  0  0
    5.3050   -4.5540   19.6110 O   0  0  0  0  0  0  0  0  0  0  0  0
    6.5070   -4.6050   21.5260 C   0  0  0  0  0  0  0  0  0  0  0  0
    6.7190   -4.0940   22.8170 C   0  0  0  0  0  0  0  0  0  0  0  0
    8.6600   -0.8170   23.3490 C   0  0  0  0  0  0  0  0  0  0  0  0
    9.9560   -0.5290   23.8030 C   0  0  0  0  0  0  0  0  0  0  0  0
   10.9320    0.0190   22.9760 C   0  0  0  0  0  0  0  0  0  0  0  0
   11.1510    1.3940   22.9570 C   0  0  0  0  0  0  0  0  0  0  0  0
   12.5490    1.9580   22.8760 C   0  0  0  0  0  0  0  0  0  0  0  0
   12.7120    3.3380   22.8410 C   0  0  0  0  0  0  0  0  0  0  0  0
   11.5770    4.1540   22.8900 C   0  0  0  0  0  0  0  0  0  0  0  0
   10.2890    3.7280   22.9720 N   0  0  0  0  0  0  0  0  0  0  0  0
   10.1180    2.3280   23.0000 C   0  0  0  0  0  0  0  0  0  0  0  0
    7.8190    0.4170   23.8090 C   0  0  0  0  0  0  0  0  0  0  0  0
    6.4980    0.5720   23.0650 C   0  0  0  0  0  0  0  0  0  0  0  0
    6.6120    0.8320   21.6860 C   0  0  0  0  0  0  0  0  0  0  0  0
    7.9680    0.4120   21.0980 C   0  0  0  0  0  0  0  0  0  0  0  0
    8.7570   -0.7500   21.7740 C   0  0  0  0  0  0  0  0  0  0  0  0
  1  2  2  0
  2  3  2  0
  2  4  1  0
  4  5  2  0
  5  6  1  0
  6  7  2  0
  7  8  1  0
  4  9  1  0
  8  9  2  0
  9 10  1  0
  2 11  1  0
 12 11  1  1
 12 13  1  0
 13 14  1  0
 14 15  1  0
 15 16  1  6
 15 17  1  0
 12 18  1  0
 17 18  1  0
 11 19  1  0
 19 20  1  0
 20 21  3  0
 21 22  1  0
 22 23  2  0
 23 24  1  0
 24 25  2  0
 25 26  1  0
 22 27  1  0
 26 27  2  0
 19 28  1  0
 28 29  1  0
 29 30  1  0
 30 31  1  0
 19 32  1  0
 31 32  1  0
M  END
