WAR-XCH-79d12f6e-9-nitrile
     RDKit          3D

 20 22  0  0  0  0  0  0  0  0999 V2000
    6.4180   -5.1460   20.5940 C   0  0  0  0  0  0  0  0  0  0  0  0
    5.5300   -4.4720   19.9960 N   0  0  0  0  0  0  0  0  0  0  0  0
    6.1660   -5.6380   21.8870 N   0  0  0  0  0  0  0  0  0  0  0  0
    7.2150   -5.8250   22.8900 C   0  0  0  0  0  0  0  0  0  0  0  0
    7.5910   -4.3410   23.1410 C   0  0  0  0  0  0  0  0  0  0  0  0
    6.6780   -3.5700   22.2470 N   0  0  0  0  0  0  0  0  0  0  0  0
    7.2510   -2.3290   21.7010 C   0  0  0  0  0  0  0  0  0  0  0  0
    6.4280   -1.5170   20.6470 C   0  0  0  0  0  0  0  0  0  0  0  0
    6.0790   -2.1860   19.3470 C   0  0  0  0  0  0  0  0  0  0  0  0
    5.4050   -1.4160   18.4880 N   0  0  0  0  0  0  0  0  0  0  0  0
    5.2310   -0.1910   19.0770 C   0  0  0  0  0  0  0  0  0  0  0  0
    4.5240    1.0010   18.4100 C   0  0  0  0  0  0  0  0  0  0  0  0
    5.8420    0.0890   20.6770 S   0  0  0  0  0  0  0  0  0  0  0  0
    8.5290   -2.6750   21.2850 C   0  0  0  0  0  0  0  0  0  0  0  0
    9.6400   -2.2490   22.2490 C   0  0  0  0  0  0  0  0  0  0  0  0
    9.6450   -0.8410   22.3440 C   0  0  0  0  0  0  0  0  0  0  0  0
    8.3950   -0.3830   22.7110 C   0  0  0  0  0  0  0  0  0  0  0  0
    7.4570   -1.4370   22.9560 C   0  0  0  0  0  0  0  0  0  0  0  0
    5.2520   -3.7540   22.5640 C   0  0  0  0  0  0  0  0  0  0  0  0
    4.9990   -5.1120   22.5670 C   0  0  0  0  0  0  0  0  0  0  0  0
  1  2  2  3
  1  3  1  0
  3  4  1  0
  4  5  1  0
  5  6  1  0
  6  7  1  0
  7  8  1  0
  8  9  2  0
  9 10  1  0
 10 11  2  0
 11 12  1  0
  8 13  1  0
 11 13  1  0
  7 14  1  0
 14 15  1  0
 15 16  1  0
 16 17  1  0
  7 18  1  0
 17 18  1  0
  6 19  1  0
  3 20  1  0
 19 20  1  0
M  END
