WAR-XCH-b6889685-56
     RDKit          3D

 25 27  0  0  0  0  0  0  0  0999 V2000
    4.9590    1.1020   17.8410 C   0  0  0  0  0  0  0  0  0  0  0  0
    5.9330    0.5470   18.8210 C   0  0  0  0  0  0  0  0  0  0  0  0
    6.0010    1.0500   20.0950 C   0  0  0  0  0  0  0  0  0  0  0  0
    6.8950    0.5850   21.0740 C   0  0  0  0  0  0  0  0  0  0  0  0
    7.8330   -0.4770   20.7950 C   0  0  0  0  0  0  0  0  0  0  0  0
    8.7030   -0.8410   21.9090 N   0  0  0  0  0  0  0  0  0  0  0  0
    8.5300    0.2260   22.6920 C   0  0  0  0  0  0  0  0  0  0  0  0
   10.2710   -0.9510   22.2880 C   0  0  0  0  0  0  0  0  0  0  0  0
   11.4130   -1.8450   21.7660 C   0  0  0  0  0  0  0  0  0  0  0  0
   12.7140   -1.1520   22.2360 C   0  0  0  0  0  0  0  0  0  0  0  0
   12.5400   -0.4570   23.4260 N   0  0  0  0  0  0  0  0  0  0  0  0
   11.9750    0.9110   23.5090 C   0  0  0  0  0  0  0  0  0  0  0  0
   10.6510    1.3250   24.1180 C   0  0  0  0  0  0  0  0  0  0  0  0
   10.2400    2.6590   24.1320 C   0  0  0  0  0  0  0  0  0  0  0  0
   11.0690    3.8020   23.5460 C   0  0  0  0  0  0  0  0  0  0  0  0
   10.4050    5.3770   23.6700 S   0  0  0  0  0  0  0  0  0  0  0  0
    9.0320    5.2570   22.7150 N   0  0  0  0  0  0  0  0  0  0  0  0
   11.2920    6.3210   23.0220 O   0  0  0  0  0  0  0  0  0  0  0  0
    9.9150    5.6370   25.0060 O   0  0  0  0  0  0  0  0  0  0  0  0
   12.3560    3.4190   22.9460 C   0  0  0  0  0  0  0  0  0  0  0  0
   12.7260    1.9230   22.9820 C   0  0  0  0  0  0  0  0  0  0  0  0
   11.8170   -1.2880   24.2740 C   0  0  0  0  0  0  0  0  0  0  0  0
   10.4480   -1.3790   23.6820 C   0  0  0  0  0  0  0  0  0  0  0  0
    7.6800   -0.9530   19.4620 C   0  0  0  0  0  0  0  0  0  0  0  0
    6.7950   -0.4820   18.5150 C   0  0  0  0  0  0  0  0  0  0  0  0
  1  2  1  0
  2  3  2  0
  3  4  1  0
  4  5  2  0
  5  6  1  0
  6  7  1  0
  6  8  1  0
  8  9  1  0
  9 10  1  0
 10 11  1  0
 11 12  1  0
 12 13  2  0
 13 14  1  0
 14 15  2  0
 15 16  1  0
 16 17  1  0
 16 18  2  0
 16 19  2  0
 15 20  1  0
 12 21  1  0
 20 21  2  0
 11 22  1  0
  8 23  1  0
 22 23  1  0
  5 24  1  0
  2 25  1  0
 24 25  2  0
M  END
