WES-WAB-adc860f2-1
     RDKit          3D

 21 23  0  0  0  0  0  0  0  0999 V2000
    8.2310    4.4120   22.4020 N   0  0  0  0  0  0  0  0  0  0  0  0
    8.0190    2.9910   22.2410 C   0  0  1  0  0  0  0  0  0  0  0  0
    9.0690    2.5640   21.3770 O   0  0  0  0  0  0  0  0  0  0  0  0
    8.0110    2.2600   23.6010 C   0  0  1  0  0  0  0  0  0  0  0  0
    6.6150    2.2840   24.2180 C   0  0  0  0  0  0  0  0  0  0  0  0
    6.4970    1.1310   25.1990 C   0  0  0  0  0  0  0  0  0  0  0  0
    7.8000    0.3590   25.1000 C   0  0  0  0  0  0  0  0  0  0  0  0
    8.5020    0.7600   23.7930 C   0  0  2  0  0  0  0  0  0  0  0  0
    9.9960    0.5580   23.8910 C   0  0  1  0  0  0  0  0  0  0  0  0
   10.6160   -0.3950   24.8750 C   0  0  0  0  0  0  0  0  0  0  0  0
   10.3780   -1.7860   24.7900 C   0  0  0  0  0  0  0  0  0  0  0  0
   11.5440   -2.5390   24.7830 C   0  0  0  0  0  0  0  0  0  0  0  0
   12.5990   -1.7010   24.8160 C   0  0  0  0  0  0  0  0  0  0  0  0
   12.1490   -0.4050   24.8540 C   0  0  0  0  0  0  0  0  0  0  0  0
   10.5540    0.0740   22.6120 N   0  0  0  0  0  0  0  0  0  0  0  0
    9.8350   -0.9250   21.8680 C   0  0  0  0  0  0  0  0  0  0  0  0
   10.6690   -2.1180   21.6420 C   0  0  0  0  0  0  0  0  0  0  0  0
   12.0810   -2.1670   22.1510 C   0  0  0  0  0  0  0  0  0  0  0  0
   12.7770   -2.9620   21.1900 O   0  0  0  0  0  0  0  0  0  0  0  0
   13.0350   -0.9960   22.3270 C   0  0  0  0  0  0  0  0  0  0  0  0
   11.9600    0.0770   22.5600 C   0  0  0  0  0  0  0  0  0  0  0  0
  2  1  1  1
  2  3  1  0
  2  4  1  0
  4  5  1  6
  5  6  1  0
  6  7  1  0
  4  8  1  0
  8  7  1  1
  8  9  1  0
  9 10  1  1
 10 11  1  0
 11 12  2  0
 12 13  1  0
 10 14  1  0
 13 14  2  0
  9 15  1  0
 15 16  1  0
 16 17  2  0
 17 18  1  0
 18 19  1  0
 18 20  1  0
 15 21  1  0
 20 21  2  0
M  END
