WIL-NOV-649f4ed0-2-nitrile
     RDKit          3D

 22 23  0  0  0  0  0  0  0  0999 V2000
    8.5520   -4.4440   15.6780 C   0  0  0  0  0  0  0  0  0  0  0  0
    7.6430   -4.5410   15.5070 N   0  0  0  0  0  0  0  0  0  0  0  0
    8.1050   -4.2380   12.3240 C   0  0  0  0  0  0  0  0  0  0  0  0
    8.1870   -3.6060    9.6720 N   0  0  0  0  0  0  0  0  0  0  0  0
    8.4320   -3.7340    7.3020 C   0  0  0  0  0  0  0  0  0  0  0  0
    9.4070   -3.3550    7.3450 O   0  0  0  0  0  0  0  0  0  0  0  0
    8.9320   -2.7620    5.0310 C   0  0  0  0  0  0  0  0  0  0  0  0
    9.8170   -3.1730    3.1160 C   0  0  0  0  0  0  0  0  0  0  0  0
    9.3070   -4.1140    2.5100 C   0  0  0  0  0  0  0  0  0  0  0  0
    8.5800   -5.4560    1.6460 N   0  0  0  0  0  0  0  0  0  0  0  0
    7.9340   -5.6530    0.0500 C   0  0  0  0  0  0  0  0  0  0  0  0
    8.6200   -6.1650   -0.9940 C   0  0  0  0  0  0  0  0  0  0  0  0
    8.7190   -5.5150   -1.5510 O   0  0  0  0  0  0  0  0  0  0  0  0
    8.8130   -4.2720   -0.9470 C   0  0  0  0  0  0  0  0  0  0  0  0
    8.4060   -5.5480   -0.2720 C   0  0  0  0  0  0  0  0  0  0  0  0
    9.1000   -3.4020    3.5710 C   0  0  0  0  0  0  0  0  0  0  0  0
    9.1540   -1.9110    3.7230 C   0  0  0  0  0  0  0  0  0  0  0  0
    8.9740   -0.8690    4.4110 C   0  0  0  0  0  0  0  0  0  0  0  0
    9.7300    0.5120    3.2580 S   0  0  0  0  0  0  0  0  0  0  0  0
    7.7000   -0.3430    3.3400 N   0  0  0  0  0  0  0  0  0  0  0  0
   10.5250    1.6390    3.8600 O   0  0  0  0  0  0  0  0  0  0  0  0
   10.2780    0.6040    2.3800 O   0  0  0  0  0  0  0  0  0  0  0  0
  1  2  2  3
  1  3  1  0
  3  4  1  0
  4  5  1  0
  5  6  2  0
  5  7  1  0
  7  8  2  0
  8  9  1  0
  9 10  1  0
 10 11  1  0
 11 12  1  0
 12 13  1  0
 13 14  1  0
 10 15  1  0
 14 15  1  0
  9 16  2  0
 16 17  1  0
  7 18  1  0
 17 18  2  0
 18 19  1  0
 19 20  1  0
 19 21  2  0
 19 22  2  0
M  END
