WIL-NOV-066c4001-1
     RDKit          3D

 19 20  0  0  0  0  0  0  0  0999 V2000
    5.5260    1.6140   -6.1320 N   0  0  0  0  0  0  0  0  0  0  0  0
    5.3580    1.1680   -7.7540 S   0  0  0  0  0  0  0  0  0  0  0  0
    4.1320    1.1410   -8.4930 O   0  0  0  0  0  0  0  0  0  0  0  0
    6.3160    2.0880   -8.1310 O   0  0  0  0  0  0  0  0  0  0  0  0
    6.0620   -0.4330   -7.8430 C   0  0  0  0  0  0  0  0  0  0  0  0
    7.3340   -0.4740   -7.0870 C   0  0  0  0  0  0  0  0  0  0  0  0
    8.0330   -1.7560   -7.1020 C   0  0  0  0  0  0  0  0  0  0  0  0
    7.5560   -2.8640   -7.8000 C   0  0  0  0  0  0  0  0  0  0  0  0
    6.3500   -2.7800   -8.4710 C   0  0  0  0  0  0  0  0  0  0  0  0
    5.5960   -1.6120   -8.5000 C   0  0  0  0  0  0  0  0  0  0  0  0
    4.3500   -1.8500   -9.2710 C   0  0  0  0  0  0  0  0  0  0  0  0
    3.3230   -2.0730   -8.6500 O   0  0  0  0  0  0  0  0  0  0  0  0
    4.4060   -1.8730  -10.6460 N   0  0  0  0  0  0  0  0  0  0  0  0
    3.2750   -1.9850  -11.3660 C   0  0  0  0  0  0  0  0  0  0  0  0
    2.8530   -3.4270  -11.6610 C   0  0  2  0  0  0  0  0  0  0  0  0
    2.0940   -4.1090  -10.5250 C   0  0  0  0  0  0  0  0  0  0  0  0
    2.5580   -5.5590  -10.4580 C   0  0  0  0  0  0  0  0  0  0  0  0
    3.5390   -5.6420  -11.6160 C   0  0  0  0  0  0  0  0  0  0  0  0
    3.9740   -4.3030  -11.9170 O   0  0  0  0  0  0  0  0  0  0  0  0
  2  1  1  0
  2  3  2  0
  2  4  2  0
  2  5  1  0
  5  6  2  0
  6  7  1  0
  7  8  2  0
  8  9  1  0
  5 10  1  0
  9 10  2  0
 10 11  1  0
 11 12  2  0
 11 13  1  0
 13 14  1  0
 15 14  1  1
 15 16  1  0
 16 17  1  0
 17 18  1  0
 15 19  1  0
 18 19  1  0
M  END
