WIL-NOV-649f4ed0-1-vinylsulfonamide
     RDKit          3D

 27 29  0  0  0  0  0  0  0  0999 V2000
    7.6080   -3.7380   19.9970 C   0  0  0  0  0  0  0  0  0  0  0  0
    6.8630   -2.5280   19.6240 C   0  0  0  0  0  0  0  0  0  0  0  0
    5.5130   -2.9190   18.5600 S   0  0  0  0  0  0  0  0  0  0  0  0
    4.7480   -4.0460   19.2260 O   0  0  0  0  0  0  0  0  0  0  0  0
    4.8750   -1.6600   18.8500 O   0  0  0  0  0  0  0  0  0  0  0  0
    6.0260   -2.4800   16.7600 C   0  0  0  0  0  0  0  0  0  0  0  0
    6.4630   -2.9760   14.9970 N   0  0  0  0  0  0  0  0  0  0  0  0
    5.7460   -3.4390   13.2650 C   0  0  0  0  0  0  0  0  0  0  0  0
    4.5610   -4.2600   13.0230 O   0  0  0  0  0  0  0  0  0  0  0  0
    5.8390   -2.9750   11.7310 C   0  0  0  0  0  0  0  0  0  0  0  0
    4.5510   -2.5580   11.6790 C   0  0  0  0  0  0  0  0  0  0  0  0
    3.6750   -1.8570   10.6940 C   0  0  0  0  0  0  0  0  0  0  0  0
    3.0860   -1.1360    9.4630 N   0  0  0  0  0  0  0  0  0  0  0  0
    1.5760   -0.9450    9.3670 C   0  0  0  0  0  0  0  0  0  0  0  0
    0.6990   -1.2360    8.3320 C   0  0  0  0  0  0  0  0  0  0  0  0
    1.1940   -1.8600    7.2340 O   0  0  0  0  0  0  0  0  0  0  0  0
    2.6300   -2.1210    7.1380 C   0  0  0  0  0  0  0  0  0  0  0  0
    3.5550   -1.7140    8.2230 C   0  0  0  0  0  0  0  0  0  0  0  0
    3.1110   -2.1390   11.6890 C   0  0  0  0  0  0  0  0  0  0  0  0
    4.2910   -2.7220   12.1560 C   0  0  0  0  0  0  0  0  0  0  0  0
    5.2290   -2.4510   10.8420 C   0  0  0  0  0  0  0  0  0  0  0  0
    3.9840   -1.7730   10.2410 S   0  0  0  0  0  0  0  0  0  0  0  0
    4.1780   -0.1640   10.1880 N   0  0  0  0  0  0  0  0  0  0  0  0
    2.9800   -2.0330   11.2390 O   0  0  0  0  0  0  0  0  0  0  0  0
    4.0200   -2.0830    8.8430 O   0  0  0  0  0  0  0  0  0  0  0  0
    6.9020   -1.4290   17.8070 C   0  0  0  0  0  0  0  0  0  0  0  0
    5.6340   -1.1830   17.1300 C   0  0  0  0  0  0  0  0  0  0  0  0
  1  2  1  0
  3  2  1  0
  3  4  2  0
  3  5  2  0
  3  6  1  0
  6  7  1  0
  7  8  1  0
  8  9  2  0
  8 10  1  0
 10 11  2  0
 11 12  1  0
 12 13  1  0
 13 14  1  0
 14 15  1  0
 15 16  1  0
 16 17  1  0
 13 18  1  0
 17 18  1  0
 12 19  2  0
 19 20  1  0
 10 21  1  0
 20 21  2  0
 21 22  1  0
 22 23  1  0
 22 24  2  0
 22 25  2  0
  6 26  1  0
  6 27  1  0
 26 27  1  0
M  END
