WIL-NOV-649f4ed0-2-acrylamide
     RDKit          3D

 24 25  0  0  0  0  0  0  0  0999 V2000
    7.8940   -3.1370   18.5930 C   0  0  0  0  0  0  0  0  0  0  0  0
    6.6490   -2.4450   18.0890 C   0  0  0  0  0  0  0  0  0  0  0  0
    5.6900   -3.2070   17.1510 C   0  0  0  0  0  0  0  0  0  0  0  0
    4.5410   -3.7640   18.8290 O   0  0  0  0  0  0  0  0  0  0  0  0
    5.7150   -3.2190   14.1350 C   0  0  0  0  0  0  0  0  0  0  0  0
    4.9500   -3.4370   11.6230 N   0  0  0  0  0  0  0  0  0  0  0  0
    4.0580   -2.7650    9.4630 C   0  0  0  0  0  0  0  0  0  0  0  0
    3.4600   -1.6400   10.0980 O   0  0  0  0  0  0  0  0  0  0  0  0
    3.7770   -2.2710    7.0970 C   0  0  0  0  0  0  0  0  0  0  0  0
    3.6770   -2.3080    5.1610 C   0  0  0  0  0  0  0  0  0  0  0  0
    3.8590   -3.6000    3.1640 C   0  0  0  0  0  0  0  0  0  0  0  0
    4.0480   -4.9220    2.4200 N   0  0  0  0  0  0  0  0  0  0  0  0
    3.7190   -5.1360    1.0190 C   0  0  0  0  0  0  0  0  0  0  0  0
    3.2910   -6.3970    0.9740 C   0  0  0  0  0  0  0  0  0  0  0  0
    2.9560   -6.6180    2.2530 O   0  0  0  0  0  0  0  0  0  0  0  0
    3.8570   -6.7810    3.0920 C   0  0  0  0  0  0  0  0  0  0  0  0
    4.7790   -5.9720    2.7770 C   0  0  0  0  0  0  0  0  0  0  0  0
    3.8630   -2.9230    2.6180 C   0  0  0  0  0  0  0  0  0  0  0  0
    3.6820   -1.7860    4.4950 C   0  0  0  0  0  0  0  0  0  0  0  0
    3.6730   -2.3090    5.0930 C   0  0  0  0  0  0  0  0  0  0  0  0
    3.8080   -3.4080    2.6730 S   0  0  0  0  0  0  0  0  0  0  0  0
    4.5400   -2.5120    1.5210 N   0  0  0  0  0  0  0  0  0  0  0  0
    4.3500   -4.7560    2.6820 O   0  0  0  0  0  0  0  0  0  0  0  0
    2.7680   -3.0480    1.7360 O   0  0  0  0  0  0  0  0  0  0  0  0
  1  2  1  0
  2  3  1  0
  3  4  2  0
  3  5  1  0
  5  6  1  0
  6  7  1  0
  7  8  2  0
  7  9  1  0
  9 10  2  0
 10 11  1  0
 11 12  1  0
 12 13  1  0
 13 14  1  0
 14 15  1  0
 15 16  1  0
 12 17  1  0
 16 17  1  0
 11 18  2  0
 18 19  1  0
  9 20  1  0
 19 20  2  0
 20 21  1  0
 21 22  1  0
 21 23  2  0
 21 24  2  0
M  END
