WIL-NOV-649f4ed0-6-vinylsulfonamide
     RDKit          3D

 21 21  0  0  0  0  0  0  0  0999 V2000
    7.9440   -3.0740   17.6860 C   0  0  0  0  0  0  0  0  0  0  0  0
    6.4090   -2.7480   17.0800 C   0  0  0  0  0  0  0  0  0  0  0  0
    5.3790   -3.0280   15.1070 S   0  0  0  0  0  0  0  0  0  0  0  0
    4.3000   -3.5610   18.3620 O   0  0  0  0  0  0  0  0  0  0  0  0
    6.4650   -3.6560   14.3160 O   0  0  0  0  0  0  0  0  0  0  0  0
    4.0100   -2.6680   11.8710 C   0  0  0  0  0  0  0  0  0  0  0  0
    2.6680   -2.4500   12.2260 C   0  0  0  0  0  0  0  0  0  0  0  0
    4.2740   -3.8860   11.7760 C   0  0  0  0  0  0  0  0  0  0  0  0
    3.8730   -2.1290    9.0600 N   0  0  0  0  0  0  0  0  0  0  0  0
    3.4070   -2.3990    6.5240 C   0  0  0  0  0  0  0  0  0  0  0  0
    2.1360   -3.0500    6.4740 O   0  0  0  0  0  0  0  0  0  0  0  0
    4.3410   -2.0720    4.4210 C   0  0  0  0  0  0  0  0  0  0  0  0
    4.0880   -2.9540    2.4230 C   0  0  0  0  0  0  0  0  0  0  0  0
    4.2830   -3.1270    0.8380 C   0  0  0  0  0  0  0  0  0  0  0  0
    5.0450   -1.9530    0.7270 C   0  0  0  0  0  0  0  0  0  0  0  0
    4.4110   -2.5960    1.6810 C   0  0  0  0  0  0  0  0  0  0  0  0
    5.0190   -1.8340    2.8930 C   0  0  0  0  0  0  0  0  0  0  0  0
    6.6840   -0.5710    3.1840 S   0  0  0  0  0  0  0  0  0  0  0  0
    6.7430   -0.3150    1.3870 N   0  0  0  0  0  0  0  0  0  0  0  0
    7.9770   -1.1700    3.4500 O   0  0  0  0  0  0  0  0  0  0  0  0
    6.0950    0.4210    4.0080 O   0  0  0  0  0  0  0  0  0  0  0  0
  1  2  1  0
  3  2  1  0
  3  4  2  0
  3  5  2  0
  3  6  1  0
  6  7  1  0
  6  8  1  0
  6  9  1  0
  9 10  1  0
 10 11  2  0
 10 12  1  0
 12 13  2  0
 13 14  1  0
 14 15  2  0
 15 16  1  0
 12 17  1  0
 16 17  2  0
 17 18  1  0
 18 19  1  0
 18 20  2  0
 18 21  2  0
M  END
