WIL-NOV-649f4ed0-6-chloroacetamide
     RDKit          3D

 19 19  0  0  0  0  0  0  0  0999 V2000
    7.7420   -3.0930   17.3340 C   0  0  0  0  0  0  0  0  0  0  0  0
    7.3610   -3.6960   15.5760 C   0  0  0  0  0  0  0  0  0  0  0  0
    7.8290   -4.6400   15.4230 O   0  0  0  0  0  0  0  0  0  0  0  0
    6.4390   -3.6470   13.6510 C   0  0  0  0  0  0  0  0  0  0  0  0
    5.2330   -3.2250   13.0140 C   0  0  0  0  0  0  0  0  0  0  0  0
    7.3990   -4.7050   13.6240 C   0  0  0  0  0  0  0  0  0  0  0  0
    6.6220   -2.6500   12.3070 N   0  0  0  0  0  0  0  0  0  0  0  0
    6.6880   -2.7900   10.8080 C   0  0  0  0  0  0  0  0  0  0  0  0
    5.4070   -3.2440   10.3480 O   0  0  0  0  0  0  0  0  0  0  0  0
    7.6680   -2.4250    9.7460 C   0  0  0  0  0  0  0  0  0  0  0  0
    7.4390   -1.2410    8.9350 C   0  0  0  0  0  0  0  0  0  0  0  0
    8.4340   -1.9580    8.7450 C   0  0  0  0  0  0  0  0  0  0  0  0
    8.6010   -3.1440    9.5860 C   0  0  0  0  0  0  0  0  0  0  0  0
    9.5190   -3.9900    9.5380 C   0  0  0  0  0  0  0  0  0  0  0  0
    8.9330   -2.8540    9.0860 C   0  0  0  0  0  0  0  0  0  0  0  0
    9.4300   -1.8010    7.8380 S   0  0  0  0  0  0  0  0  0  0  0  0
    8.2900   -0.5940    7.9160 N   0  0  0  0  0  0  0  0  0  0  0  0
   10.4780   -1.0090    8.2660 O   0  0  0  0  0  0  0  0  0  0  0  0
    9.2900   -2.3300    6.5170 O   0  0  0  0  0  0  0  0  0  0  0  0
  1  2  1  0
  2  3  2  0
  4  2  1  0
  4  5  1  0
  4  6  1  0
  4  7  1  0
  7  8  1  0
  8  9  2  0
  8 10  1  0
 10 11  2  0
 11 12  1  0
 12 13  2  0
 13 14  1  0
 10 15  1  0
 14 15  2  0
 15 16  1  0
 16 17  1  0
 16 18  2  0
 16 19  2  0
M  END
