WIL-NOV-649f4ed0-5-chloroacetamide
     RDKit          3D

 25 26  0  0  0  0  0  0  0  0999 V2000
    8.2430   -3.1150   17.3370 C   0  0  0  0  0  0  0  0  0  0  0  0
    6.8340   -3.1600   16.4690 C   0  0  0  0  0  0  0  0  0  0  0  0
    5.9390   -3.2270   17.3730 O   0  0  0  0  0  0  0  0  0  0  0  0
    6.3170   -3.2390   14.5140 C   0  0  0  0  0  0  0  0  0  0  0  0
    6.2850   -2.6520   13.2930 C   0  0  0  0  0  0  0  0  0  0  0  0
    5.4460   -2.8310   13.6060 C   0  0  0  0  0  0  0  0  0  0  0  0
    6.4800   -3.9130   13.5630 N   0  0  0  0  0  0  0  0  0  0  0  0
    6.2840   -2.9790   12.3130 C   0  0  0  0  0  0  0  0  0  0  0  0
    4.8720   -3.1490   11.9740 O   0  0  0  0  0  0  0  0  0  0  0  0
    7.1100   -2.7540   10.9860 C   0  0  0  0  0  0  0  0  0  0  0  0
    8.0910   -1.6500   10.3180 C   0  0  0  0  0  0  0  0  0  0  0  0
    8.4970   -1.7230    8.9680 C   0  0  0  0  0  0  0  0  0  0  0  0
    9.0570   -0.7400    8.1790 N   0  0  0  0  0  0  0  0  0  0  0  0
    8.5570   -0.2220    6.9810 C   0  0  0  0  0  0  0  0  0  0  0  0
    8.9260   -0.8920    5.7790 C   0  0  0  0  0  0  0  0  0  0  0  0
    9.1040   -2.0400    5.9740 O   0  0  0  0  0  0  0  0  0  0  0  0
    9.8800   -2.1240    7.0680 C   0  0  0  0  0  0  0  0  0  0  0  0
   10.1130   -0.9820    7.6110 C   0  0  0  0  0  0  0  0  0  0  0  0
    8.1670   -2.9150    8.6200 C   0  0  0  0  0  0  0  0  0  0  0  0
    7.9420   -2.2760    9.8500 C   0  0  0  0  0  0  0  0  0  0  0  0
    7.2690   -3.5190    9.9340 C   0  0  0  0  0  0  0  0  0  0  0  0
    8.1900   -3.2740    8.6240 S   0  0  0  0  0  0  0  0  0  0  0  0
    9.6310   -3.8920    9.2430 N   0  0  0  0  0  0  0  0  0  0  0  0
    8.3020   -1.8340    8.5600 O   0  0  0  0  0  0  0  0  0  0  0  0
    7.7990   -4.0150    7.5860 O   0  0  0  0  0  0  0  0  0  0  0  0
  1  2  1  0
  2  3  2  0
  4  2  1  0
  4  5  1  0
  4  6  1  0
  4  7  1  0
  7  8  1  0
  8  9  2  0
  8 10  1  0
 10 11  2  0
 11 12  1  0
 12 13  1  0
 13 14  1  0
 14 15  1  0
 15 16  1  0
 16 17  1  0
 13 18  1  0
 17 18  1  0
 12 19  2  0
 19 20  1  0
 10 21  1  0
 20 21  2  0
 21 22  1  0
 22 23  1  0
 22 24  2  0
 22 25  2  0
M  END
