YIA-UNI-71f25a82-2
     RDKit          3D

 35 37  0  0  0  0  0  0  0  0999 V2000
    5.9020    7.7190   23.0300 C   0  0  0  0  0  0  0  0  0  0  0  0
    6.4720    6.5280   22.3020 C   0  0  0  0  0  0  0  0  0  0  0  0
    7.5090    7.0450   21.2950 C   0  0  0  0  0  0  0  0  0  0  0  0
    7.0950    5.4690   23.2490 C   0  0  0  0  0  0  0  0  0  0  0  0
    8.4920    4.9000   22.9330 C   0  0  2  0  0  0  0  0  0  0  0  0
    8.5790    3.4200   22.9120 N   0  0  0  0  0  0  0  0  0  0  0  0
    8.0750    2.4100   21.9990 C   0  0  0  0  0  0  0  0  0  0  0  0
    7.0720    2.8390   21.0910 O   0  0  0  0  0  0  0  0  0  0  0  0
    8.5580    0.9380   22.0060 C   0  0  1  0  0  0  0  0  0  0  0  0
    9.0910    0.5790   23.2150 C   0  0  0  0  0  0  0  0  0  0  0  0
   10.2620   -0.1410   23.2900 C   0  0  0  0  0  0  0  0  0  0  0  0
   11.1010   -0.2740   24.3440 C   0  0  0  0  0  0  0  0  0  0  0  0
   12.0720   -1.0070   24.1030 N   0  0  0  0  0  0  0  0  0  0  0  0
   12.1980   -1.6470   22.6890 C   0  0  0  0  0  0  0  0  0  0  0  0
   13.3210   -2.1440   23.3150 C   0  0  0  0  0  0  0  0  0  0  0  0
   13.5220   -1.7890   24.5620 C   0  0  0  0  0  0  0  0  0  0  0  0
   12.4760   -0.8990   24.9950 C   0  0  0  0  0  0  0  0  0  0  0  0
   11.3760   -0.5810   23.9800 C   0  0  0  0  0  0  0  0  0  0  0  0
   11.0430   -0.9190   22.6050 C   0  0  0  0  0  0  0  0  0  0  0  0
    7.5150    0.2160   21.5430 N   0  0  0  0  0  0  0  0  0  0  0  0
    6.7780    0.5250   20.3540 C   0  0  0  0  0  0  0  0  0  0  0  0
    7.2610    1.2030   19.4560 O   0  0  0  0  0  0  0  0  0  0  0  0
    5.4880    0.0440   20.2250 C   0  0  0  0  0  0  0  0  0  0  0  0
    5.0450   -0.5030   19.0510 N   0  0  0  0  0  0  0  0  0  0  0  0
    4.7680    0.4440   18.1610 N   0  0  0  0  0  0  0  0  0  0  0  0
    6.0030   -1.3470   18.5700 C   0  0  0  0  0  0  0  0  0  0  0  0
    6.3550   -2.1940   19.6310 C   0  0  0  0  0  0  0  0  0  0  0  0
    5.5030   -3.3350   19.9630 C   0  0  0  0  0  0  0  0  0  0  0  0
    5.7800   -4.1960   20.9720 C   0  0  0  0  0  0  0  0  0  0  0  0
    6.9620   -3.9840   21.7580 C   0  0  0  0  0  0  0  0  0  0  0  0
    7.8170   -2.9080   21.4890 C   0  0  0  0  0  0  0  0  0  0  0  0
    7.4940   -2.0320   20.4210 C   0  0  0  0  0  0  0  0  0  0  0  0
    9.5370    5.6630   23.4970 C   0  0  0  0  0  0  0  0  0  0  0  0
    9.6120    6.0880   24.6390 O   0  0  0  0  0  0  0  0  0  0  0  0
   10.5450    5.9180   22.6200 O   0  0  0  0  0  0  0  0  0  0  0  0
  1  2  1  0
  2  3  1  0
  2  4  1  0
  5  4  1  1
  5  6  1  0
  6  7  1  0
  7  8  2  0
  7  9  1  0
  9 10  1  1
 10 11  1  0
 11 12  2  0
 12 13  1  0
 13 14  1  0
 14 15  1  0
 15 16  2  0
 16 17  1  0
 17 18  2  0
 11 19  1  0
 14 19  2  0
 18 19  1  0
  9 20  1  0
 20 21  1  0
 21 22  2  0
 21 23  1  0
 23 24  1  0
 24 25  1  0
 24 26  1  0
 26 27  1  0
 27 28  2  0
 28 29  1  0
 29 30  2  0
 30 31  1  0
 27 32  1  0
 31 32  2  0
  5 33  1  0
 33 34  2  0
 33 35  1  0
M  END
