YIA-UNI-71f25a82-1
     RDKit          3D

 40 44  0  0  0  0  0  0  0  0999 V2000
    2.0440    2.4770   20.6340 N   0  0  0  0  0  0  0  0  0  0  0  0
    2.3940    1.9740   21.9930 C   0  0  2  0  0  0  0  0  0  0  0  0
    2.9640    3.0290   22.9110 C   0  0  0  0  0  0  0  0  0  0  0  0
    1.8640    4.0020   23.3680 C   0  0  0  0  0  0  0  0  0  0  0  0
    1.5300    5.4060   22.8690 C   0  0  0  0  0  0  0  0  0  0  0  0
    0.4140    5.9500   23.5920 N   0  0  0  0  0  0  0  0  0  0  0  0
    0.0820    4.9540   24.4750 C   0  0  0  0  0  0  0  0  0  0  0  0
   -1.0520    5.0740   25.4580 C   0  0  0  0  0  0  0  0  0  0  0  0
   -1.2470    3.8550   26.3440 C   0  0  0  0  0  0  0  0  0  0  0  0
   -0.4560    2.7140   26.2680 C   0  0  0  0  0  0  0  0  0  0  0  0
    0.5830    2.7130   25.3040 C   0  0  0  0  0  0  0  0  0  0  0  0
    0.8710    3.7770   24.4210 C   0  0  0  0  0  0  0  0  0  0  0  0
    3.3740    0.7830   21.8780 C   0  0  0  0  0  0  0  0  0  0  0  0
    3.4150   -0.1250   22.7000 O   0  0  0  0  0  0  0  0  0  0  0  0
    4.1620    0.8570   20.7910 N   0  0  0  0  0  0  0  0  0  0  0  0
    5.2770    0.1560   21.0970 N   0  0  0  0  0  0  0  0  0  0  0  0
    5.3950   -0.9840   20.3750 C   0  0  0  0  0  0  0  0  0  0  0  0
    5.6510   -2.1320   21.1130 C   0  0  0  0  0  0  0  0  0  0  0  0
    6.7280   -3.0560   20.6540 C   0  0  0  0  0  0  0  0  0  0  0  0
    6.9740   -4.2970   21.4620 C   0  0  0  0  0  0  0  0  0  0  0  0
    6.2290   -4.5590   22.5940 C   0  0  0  0  0  0  0  0  0  0  0  0
    5.2350   -3.6590   22.9960 C   0  0  0  0  0  0  0  0  0  0  0  0
    4.9530   -2.4840   22.2820 C   0  0  0  0  0  0  0  0  0  0  0  0
    6.3580    0.8690   21.5150 C   0  0  0  0  0  0  0  0  0  0  0  0
    6.2910    1.7900   22.3270 O   0  0  0  0  0  0  0  0  0  0  0  0
    7.5370    0.4510   20.9290 N   0  0  0  0  0  0  0  0  0  0  0  0
    8.6270    0.5810   21.7340 C   0  0  2  0  0  0  0  0  0  0  0  0
    8.4630   -0.3500   22.8830 C   0  0  0  0  0  0  0  0  0  0  0  0
    9.7410   -0.5720   23.2780 C   0  0  0  0  0  0  0  0  0  0  0  0
   10.3370   -0.4410   24.3790 C   0  0  0  0  0  0  0  0  0  0  0  0
   10.2850   -0.1510   25.4820 N   0  0  0  0  0  0  0  0  0  0  0  0
   11.4590   -0.6280   24.6960 C   0  0  0  0  0  0  0  0  0  0  0  0
   12.7650   -0.7840   25.2650 C   0  0  0  0  0  0  0  0  0  0  0  0
   12.8360   -1.1360   24.0320 C   0  0  0  0  0  0  0  0  0  0  0  0
   13.2720   -1.5980   22.7290 C   0  0  0  0  0  0  0  0  0  0  0  0
   12.0090   -1.4750   22.0450 C   0  0  0  0  0  0  0  0  0  0  0  0
   11.0470   -0.9390   23.1410 C   0  0  0  0  0  0  0  0  0  0  0  0
    8.7070    2.0560   22.1720 C   0  0  0  0  0  0  0  0  0  0  0  0
    8.1460    2.5330   23.1560 O   0  0  0  0  0  0  0  0  0  0  0  0
    9.4850    2.7890   21.3430 O   0  0  0  0  0  0  0  0  0  0  0  0
  2  1  1  6
  2  3  1  0
  3  4  1  0
  4  5  2  0
  5  6  1  0
  6  7  1  0
  7  8  1  0
  8  9  2  0
  9 10  1  0
 10 11  2  0
  4 12  1  0
  7 12  2  0
 11 12  1  0
  2 13  1  0
 13 14  2  0
 13 15  1  0
 15 16  1  0
 16 17  1  0
 17 18  1  0
 18 19  2  0
 19 20  1  0
 20 21  2  0
 21 22  1  0
 18 23  1  0
 22 23  2  0
 16 24  1  0
 24 25  2  0
 24 26  1  0
 26 27  1  0
 27 28  1  1
 28 29  1  0
 29 30  2  0
 30 31  1  0
 31 32  1  0
 32 33  1  0
 33 34  2  0
 34 35  1  0
 35 36  2  0
 29 37  1  0
 32 37  2  0
 36 37  1  0
 27 38  1  0
 38 39  2  0
 38 40  1  0
M  END
