YOI-UNK-090ea88a-1-chloroacetamide
     RDKit          3D

 35 38  0  0  0  0  0  0  0  0999 V2000
    7.6750   -3.8180   19.7010 C   0  0  0  0  0  0  0  0  0  0  0  0
    6.4660   -3.3330   20.2690 C   0  0  0  0  0  0  0  0  0  0  0  0
    5.4620   -3.5330   19.5370 O   0  0  0  0  0  0  0  0  0  0  0  0
    6.5660   -2.8390   21.5540 N   0  0  0  0  0  0  0  0  0  0  0  0
    7.7490   -2.5940   22.0530 C   0  0  0  0  0  0  0  0  0  0  0  0
    7.6800   -1.8680   23.4170 C   0  0  0  0  0  0  0  0  0  0  0  0
    6.3550   -1.8120   24.0760 N   0  0  0  0  0  0  0  0  0  0  0  0
    6.4250   -1.7130   25.5490 C   0  0  0  0  0  0  0  0  0  0  0  0
    7.4530   -1.4350   26.1550 O   0  0  0  0  0  0  0  0  0  0  0  0
    5.0660   -1.9760   26.1860 C   0  0  0  0  0  0  0  0  0  0  0  0
    3.8700   -1.1610   25.6930 C   0  0  0  0  0  0  0  0  0  0  0  0
    2.6200   -1.4150   26.2870 C   0  0  0  0  0  0  0  0  0  0  0  0
    2.5300   -2.3920   27.2890 C   0  0  0  0  0  0  0  0  0  0  0  0
    1.2850   -2.6310   27.8700 C   0  0  0  0  0  0  0  0  0  0  0  0
    1.2670   -3.8390   28.6330 O   0  0  0  0  0  0  0  0  0  0  0  0
    1.8480   -3.8490   29.8700 C   0  0  0  0  0  0  0  0  0  0  0  0
    2.7160   -2.9240   30.4090 C   0  0  0  0  0  0  0  0  0  0  0  0
    3.2390   -3.0720   31.7110 C   0  0  0  0  0  0  0  0  0  0  0  0
    3.0310   -4.0960   32.6880 C   0  0  0  0  0  0  0  0  0  0  0  0
    3.1830   -4.6120   33.7210 N   0  0  0  0  0  0  0  0  0  0  0  0
    3.7820   -5.9670   33.7840 C   0  0  0  0  0  0  0  0  0  0  0  0
    4.1810   -6.3390   35.0710 C   0  0  0  0  0  0  0  0  0  0  0  0
    5.0740   -5.3430   35.6800 N   0  0  0  0  0  0  0  0  0  0  0  0
    6.0290   -5.8150   36.5780 C   0  0  0  0  0  0  0  0  0  0  0  0
    5.8640   -6.8740   37.1910 O   0  0  0  0  0  0  0  0  0  0  0  0
    7.1940   -5.0730   36.7930 C   0  0  0  0  0  0  0  0  0  0  0  0
    6.9130   -3.9950   38.1760 Cl  0  0  0  0  0  0  0  0  0  0  0  0
    4.5010   -3.9870   35.7400 C   0  0  0  0  0  0  0  0  0  0  0  0
    3.1710   -3.8300   34.9660 C   0  0  0  0  0  0  0  0  0  0  0  0
    2.1330   -5.0140   32.0810 C   0  0  0  0  0  0  0  0  0  0  0  0
    1.5320   -4.9090   30.6740 C   0  0  0  0  0  0  0  0  0  0  0  0
    3.6490   -3.1330   27.7240 C   0  0  0  0  0  0  0  0  0  0  0  0
    4.9150   -2.9310   27.1790 C   0  0  0  0  0  0  0  0  0  0  0  0
    5.2480   -2.6240   23.5670 C   0  0  0  0  0  0  0  0  0  0  0  0
    5.7110   -3.5570   22.4810 C   0  0  0  0  0  0  0  0  0  0  0  0
  1  2  1  0
  2  3  2  0
  2  4  1  0
  4  5  1  0
  5  6  1  0
  6  7  1  0
  7  8  1  0
  8  9  2  0
  8 10  1  0
 10 11  2  0
 11 12  1  0
 12 13  2  0
 13 14  1  0
 14 15  1  0
 15 16  1  0
 16 17  2  0
 17 18  1  0
 18 19  2  0
 19 20  1  0
 20 21  1  0
 21 22  1  0
 22 23  1  0
 23 24  1  0
 24 25  2  0
 24 26  1  0
 26 27  1  0
 23 28  1  0
 20 29  1  0
 28 29  1  0
 19 30  1  0
 16 31  1  0
 30 31  2  0
 13 32  1  0
 10 33  1  0
 32 33  2  0
  7 34  1  0
  4 35  1  0
 34 35  1  0
M  END
