YOI-UNK-090ea88a-1-nitrile
     RDKit          3D

 34 37  0  0  0  0  0  0  0  0999 V2000
    7.3330   -3.2710   19.5910 C   0  0  0  0  0  0  0  0  0  0  0  0
    6.1880   -3.4060   19.0400 N   0  0  0  0  0  0  0  0  0  0  0  0
    7.5620   -2.1920   20.4250 N   0  0  0  0  0  0  0  0  0  0  0  0
    6.3870   -1.3400   20.7000 C   0  0  0  0  0  0  0  0  0  0  0  0
    7.4000   -0.5330   20.1170 C   0  0  0  0  0  0  0  0  0  0  0  0
    8.2530    0.1070   21.1240 N   0  0  0  0  0  0  0  0  0  0  0  0
    7.8470    1.3290   21.6310 C   0  0  0  0  0  0  0  0  0  0  0  0
    8.2110    2.3690   21.1080 O   0  0  0  0  0  0  0  0  0  0  0  0
    6.9470    1.2550   22.8870 C   0  0  0  0  0  0  0  0  0  0  0  0
    7.6350    0.8160   24.1610 C   0  0  0  0  0  0  0  0  0  0  0  0
    6.8230    0.7190   25.4400 C   0  0  0  0  0  0  0  0  0  0  0  0
    5.4590    1.0400   25.3400 C   0  0  0  0  0  0  0  0  0  0  0  0
    4.6750    0.9530   26.4860 C   0  0  0  0  0  0  0  0  0  0  0  0
    5.3150   -0.0960   27.2220 O   0  0  0  0  0  0  0  0  0  0  0  0
    5.5880   -1.2690   26.5600 C   0  0  0  0  0  0  0  0  0  0  0  0
    4.5770   -2.2310   26.6290 C   0  0  0  0  0  0  0  0  0  0  0  0
    4.6890   -3.4940   26.0020 C   0  0  0  0  0  0  0  0  0  0  0  0
    5.8280   -3.8820   25.2580 C   0  0  0  0  0  0  0  0  0  0  0  0
    5.9290   -5.1260   24.6440 N   0  0  0  0  0  0  0  0  0  0  0  0
    4.7260   -5.9660   24.4630 C   0  0  0  0  0  0  0  0  0  0  0  0
    4.3840   -6.2000   23.1200 C   0  0  0  0  0  0  0  0  0  0  0  0
    5.4720   -5.9180   22.1620 N   0  0  0  0  0  0  0  0  0  0  0  0
    5.4470   -4.8810   21.2600 C   0  0  0  0  0  0  0  0  0  0  0  0
    5.4000   -5.0840   20.0420 O   0  0  0  0  0  0  0  0  0  0  0  0
    5.4780   -3.5830   21.7610 C   0  0  0  0  0  0  0  0  0  0  0  0
    4.3180   -3.4610   23.1030 Cl  0  0  0  0  0  0  0  0  0  0  0  0
    6.7950   -6.2780   22.6370 C   0  0  0  0  0  0  0  0  0  0  0  0
    7.1570   -5.4890   23.9000 C   0  0  0  0  0  0  0  0  0  0  0  0
    6.8420   -2.9340   25.1810 C   0  0  0  0  0  0  0  0  0  0  0  0
    6.7330   -1.5860   25.8490 C   0  0  0  0  0  0  0  0  0  0  0  0
    4.8660    1.4440   24.1110 C   0  0  0  0  0  0  0  0  0  0  0  0
    5.5860    1.5550   22.9060 C   0  0  0  0  0  0  0  0  0  0  0  0
    9.0650   -0.8510   21.8600 C   0  0  0  0  0  0  0  0  0  0  0  0
    8.5480   -2.2470   21.5370 C   0  0  0  0  0  0  0  0  0  0  0  0
  1  2  2  3
  1  3  1  0
  3  4  1  0
  4  5  1  0
  5  6  1  0
  6  7  1  0
  7  8  2  0
  7  9  1  0
  9 10  2  0
 10 11  1  0
 11 12  2  0
 12 13  1  0
 13 14  1  0
 14 15  1  0
 15 16  2  0
 16 17  1  0
 17 18  2  0
 18 19  1  0
 19 20  1  0
 20 21  1  0
 21 22  1  0
 22 23  1  0
 23 24  2  0
 23 25  1  0
 25 26  1  0
 22 27  1  0
 19 28  1  0
 27 28  1  0
 18 29  1  0
 15 30  1  0
 29 30  2  0
 12 31  1  0
  9 32  1  0
 31 32  2  0
  6 33  1  0
  3 34  1  0
 33 34  1  0
M  END
