YUN-WES-58b0dbae-10
     RDKit          3D

 42 44  0  0  0  0  0  0  0  0999 V2000
    3.7720   -0.3580   24.9740 C   0  0  0  0  0  0  0  0  0  0  0  0
    4.4790   -1.2040   24.4450 O   0  0  0  0  0  0  0  0  0  0  0  0
    4.7820   -1.0230   23.1230 C   0  0  0  0  0  0  0  0  0  0  0  0
    4.8980    0.2710   22.4040 C   0  0  0  0  0  0  0  0  0  0  0  0
    5.2360    0.2740   20.9180 C   0  0  0  0  0  0  0  0  0  0  0  0
    5.4880   -0.9440   20.0230 C   0  0  0  0  0  0  0  0  0  0  0  0
    5.3450   -2.1000   20.8530 C   0  0  0  0  0  0  0  0  0  0  0  0
    5.5020   -3.3690   20.3410 N   0  0  0  0  0  0  0  0  0  0  0  0
    5.4220   -4.6170   20.9610 C   0  0  0  0  0  0  0  0  0  0  0  0
    5.6390   -5.5990   20.2630 O   0  0  0  0  0  0  0  0  0  0  0  0
    5.0270   -4.8500   22.3100 C   0  0  0  0  0  0  0  0  0  0  0  0
    4.1760   -4.1170   22.8140 O   0  0  0  0  0  0  0  0  0  0  0  0
    5.5660   -5.9680   23.1840 C   0  0  2  0  0  0  0  0  0  0  0  0
    4.4890   -6.2290   24.2650 C   0  0  0  0  0  0  0  0  0  0  0  0
    3.3230   -6.5760   23.6870 C   0  0  2  0  0  0  0  0  0  0  0  0
    2.2940   -5.6290   23.6380 C   0  0  0  0  0  0  0  0  0  0  0  0
    1.1500   -6.0490   24.2590 C   0  0  0  0  0  0  0  0  0  0  0  0
    1.3570   -7.2240   24.8220 N   0  0  0  0  0  0  0  0  0  0  0  0
    2.6250   -7.6520   24.5430 C   0  0  0  0  0  0  0  0  0  0  0  0
    3.0820   -8.7100   24.9210 O   0  0  0  0  0  0  0  0  0  0  0  0
    6.7480   -5.4040   23.8960 N   0  0  0  0  0  0  0  0  0  0  0  0
    6.6220   -5.1820   25.2350 C   0  0  0  0  0  0  0  0  0  0  0  0
    5.8820   -5.8020   25.9990 O   0  0  0  0  0  0  0  0  0  0  0  0
    7.4610   -4.1470   25.6490 C   0  0  2  0  0  0  0  0  0  0  0  0
    8.1170   -4.4850   26.8220 C   0  0  0  0  0  0  0  0  0  0  0  0
    9.4720   -4.7890   26.6900 C   0  0  0  0  0  0  0  0  0  0  0  0
    9.7020   -5.9360   25.9680 C   0  0  0  0  0  0  0  0  0  0  0  0
   10.1030   -3.7110   25.7990 C   0  0  0  0  0  0  0  0  0  0  0  0
    6.8450   -3.0190   26.0570 N   0  0  0  0  0  0  0  0  0  0  0  0
    7.2860   -1.6520   25.7330 C   0  0  0  0  0  0  0  0  0  0  0  0
    6.7460   -0.6660   26.2330 O   0  0  0  0  0  0  0  0  0  0  0  0
    8.3180   -1.4560   24.8690 N   0  0  0  0  0  0  0  0  0  0  0  0
    8.0710   -0.6080   23.8480 C   0  0  0  0  0  0  0  0  0  0  0  0
    7.6750    0.7340   23.9800 C   0  0  0  0  0  0  0  0  0  0  0  0
    7.5110    1.2840   25.1970 F   0  0  0  0  0  0  0  0  0  0  0  0
    7.4550    1.4850   22.8370 C   0  0  0  0  0  0  0  0  0  0  0  0
    7.5980    0.9770   21.5600 C   0  0  0  0  0  0  0  0  0  0  0  0
    7.9820   -0.3440   21.3900 C   0  0  0  0  0  0  0  0  0  0  0  0
    8.0970   -0.8290   20.1190 O   0  0  0  0  0  0  0  0  0  0  0  0
    8.2240   -1.1290   22.5340 C   0  0  0  0  0  0  0  0  0  0  0  0
    8.6030   -2.4040   22.3610 F   0  0  0  0  0  0  0  0  0  0  0  0
    5.0060   -2.1170   22.3460 C   0  0  0  0  0  0  0  0  0  0  0  0
  1  2  1  0
  2  3  1  0
  3  4  2  0
  4  5  1  0
  5  6  2  0
  6  7  1  0
  7  8  1  0
  8  9  1  0
  9 10  2  0
  9 11  1  0
 11 12  2  0
 11 13  1  0
 13 14  1  1
 15 14  1  1
 15 16  1  0
 16 17  1  0
 17 18  1  0
 15 19  1  0
 18 19  1  0
 19 20  2  0
 13 21  1  0
 21 22  1  0
 22 23  2  0
 22 24  1  0
 24 25  1  1
 25 26  1  0
 26 27  1  0
 26 28  1  0
 24 29  1  0
 29 30  1  0
 30 31  2  0
 30 32  1  0
 32 33  1  0
 33 34  2  0
 34 35  1  0
 34 36  1  0
 36 37  2  0
 37 38  1  0
 38 39  1  0
 33 40  1  0
 38 40  2  0
 40 41  1  0
  3 42  1  0
  7 42  2  0
M  END
