YUN-WES-64c64eb2-3
     RDKit          3D

 42 44  0  0  0  0  0  0  0  0999 V2000
    8.7010  -11.7500   18.6070 C   0  0  0  0  0  0  0  0  0  0  0  0
    9.5060  -12.3520   19.3380 O   0  0  0  0  0  0  0  0  0  0  0  0
    9.2200  -11.4890   20.1140 C   0  0  0  0  0  0  0  0  0  0  0  0
   10.1430  -10.3140   19.7720 C   0  0  0  0  0  0  0  0  0  0  0  0
   10.1650   -9.0490   20.6210 C   0  0  0  0  0  0  0  0  0  0  0  0
    9.2340   -8.9890   21.7270 C   0  0  0  0  0  0  0  0  0  0  0  0
    8.2810  -10.0010   22.1180 C   0  0  0  0  0  0  0  0  0  0  0  0
    7.5280   -9.5290   23.1220 N   0  0  0  0  0  0  0  0  0  0  0  0
    7.4580   -8.1050   23.4810 C   0  0  0  0  0  0  0  0  0  0  0  0
    8.3850   -7.3330   23.5300 O   0  0  0  0  0  0  0  0  0  0  0  0
    6.1740   -7.5640   23.8320 C   0  0  0  0  0  0  0  0  0  0  0  0
    5.4150   -8.2720   24.4440 O   0  0  0  0  0  0  0  0  0  0  0  0
    5.7390   -6.2600   23.4880 C   0  0  2  0  0  0  0  0  0  0  0  0
    6.6840   -5.3660   23.9780 C   0  0  0  0  0  0  0  0  0  0  0  0
    6.8270   -4.3060   22.8900 C   0  0  2  0  0  0  0  0  0  0  0  0
    7.8090   -3.3000   23.4570 C   0  0  0  0  0  0  0  0  0  0  0  0
    7.1750   -2.0320   23.9150 C   0  0  0  0  0  0  0  0  0  0  0  0
    5.8030   -2.2740   23.5430 N   0  0  0  0  0  0  0  0  0  0  0  0
    5.6190   -3.3980   22.7300 C   0  0  0  0  0  0  0  0  0  0  0  0
    4.6390   -3.5770   22.0110 O   0  0  0  0  0  0  0  0  0  0  0  0
    4.4440   -5.9940   24.1570 N   0  0  0  0  0  0  0  0  0  0  0  0
    3.1950   -6.3150   23.6250 C   0  0  0  0  0  0  0  0  0  0  0  0
    3.0530   -7.0120   22.6330 O   0  0  0  0  0  0  0  0  0  0  0  0
    2.0530   -5.7960   24.2800 C   0  0  2  0  0  0  0  0  0  0  0  0
    1.7820   -6.2430   25.5800 C   0  0  0  0  0  0  0  0  0  0  0  0
    2.3630   -7.4260   26.0390 C   0  0  0  0  0  0  0  0  0  0  0  0
    2.4880   -8.4950   25.1490 C   0  0  0  0  0  0  0  0  0  0  0  0
    3.7370   -7.1590   26.6480 C   0  0  0  0  0  0  0  0  0  0  0  0
    0.9640   -6.2630   23.4150 N   0  0  0  0  0  0  0  0  0  0  0  0
   -0.2190   -5.5490   23.2680 C   0  0  0  0  0  0  0  0  0  0  0  0
   -0.4680   -4.5760   23.9640 O   0  0  0  0  0  0  0  0  0  0  0  0
   -1.0070   -6.1030   22.2680 N   0  0  0  0  0  0  0  0  0  0  0  0
   -1.6820   -5.4670   21.1940 C   0  0  0  0  0  0  0  0  0  0  0  0
   -1.7800   -6.0050   19.9030 C   0  0  0  0  0  0  0  0  0  0  0  0
   -1.2370   -7.1860   19.5690 F   0  0  0  0  0  0  0  0  0  0  0  0
   -2.4600   -5.3100   18.9120 C   0  0  0  0  0  0  0  0  0  0  0  0
   -3.0500   -4.0770   19.1830 C   0  0  0  0  0  0  0  0  0  0  0  0
   -2.9690   -3.5280   20.4550 C   0  0  0  0  0  0  0  0  0  0  0  0
   -3.5630   -2.3180   20.7010 O   0  0  0  0  0  0  0  0  0  0  0  0
   -2.2910   -4.2250   21.4460 C   0  0  0  0  0  0  0  0  0  0  0  0
   -2.2230   -3.6870   22.6770 F   0  0  0  0  0  0  0  0  0  0  0  0
    8.2390  -11.3910   21.2930 C   0  0  0  0  0  0  0  0  0  0  0  0
  1  2  1  0
  2  3  1  0
  3  4  2  0
  4  5  1  0
  5  6  2  0
  6  7  1  0
  7  8  1  0
  8  9  1  0
  9 10  2  0
  9 11  1  0
 11 12  2  0
 11 13  1  0
 13 14  1  1
 15 14  1  1
 15 16  1  0
 16 17  1  0
 17 18  1  0
 15 19  1  0
 18 19  1  0
 19 20  2  0
 13 21  1  0
 21 22  1  0
 22 23  2  0
 22 24  1  0
 24 25  1  1
 25 26  1  0
 26 27  1  0
 26 28  1  0
 24 29  1  0
 29 30  1  0
 30 31  2  0
 30 32  1  0
 32 33  1  0
 33 34  2  0
 34 35  1  0
 34 36  1  0
 36 37  2  0
 37 38  1  0
 38 39  1  0
 33 40  1  0
 38 40  2  0
 40 41  1  0
  3 42  1  0
  7 42  2  0
M  END
