YUN-WES-85ecc354-1
     RDKit          3D

 42 45  0  0  0  0  0  0  0  0999 V2000
    5.1030    2.2340   19.3530 C   0  0  0  0  0  0  0  0  0  0  0  0
    5.6490    1.9280   20.6110 C   0  0  0  0  0  0  0  0  0  0  0  0
    6.5840    2.8840   21.3320 C   0  0  0  0  0  0  0  0  0  0  0  0
    6.2540    0.5090   20.7310 C   0  0  0  0  0  0  0  0  0  0  0  0
    7.4220    0.1420   20.0160 C   0  0  2  0  0  0  0  0  0  0  0  0
    7.6500   -0.2710   18.6540 N   0  0  0  0  0  0  0  0  0  0  0  0
    7.5930    0.3800   17.3680 C   0  0  0  0  0  0  0  0  0  0  0  0
    7.0010    1.3880   17.1740 O   0  0  0  0  0  0  0  0  0  0  0  0
    8.2520   -0.2930   16.2790 N   0  0  0  0  0  0  0  0  0  0  0  0
    8.8450    0.4500   15.1040 C   0  0  0  0  0  0  0  0  0  0  0  0
    8.3680    0.4300   13.7690 C   0  0  0  0  0  0  0  0  0  0  0  0
    7.2120    0.9800   13.5780 C   0  0  0  0  0  0  0  0  0  0  0  0
    6.4360    1.1590   12.2760 C   0  0  0  0  0  0  0  0  0  0  0  0
    7.0840    0.6120   11.1230 C   0  0  0  0  0  0  0  0  0  0  0  0
    8.3050    0.0380   11.3460 C   0  0  0  0  0  0  0  0  0  0  0  0
    8.9590   -0.0380   12.6000 C   0  0  0  0  0  0  0  0  0  0  0  0
    7.9550   -1.0220   20.6490 C   0  0  0  0  0  0  0  0  0  0  0  0
    7.9240   -2.2220   20.0060 O   0  0  0  0  0  0  0  0  0  0  0  0
    8.4730   -0.9580   21.9200 N   0  0  0  0  0  0  0  0  0  0  0  0
    8.6310   -2.1880   22.5300 C   0  0  1  0  0  0  0  0  0  0  0  0
    9.9760   -2.4420   22.9490 C   0  0  0  0  0  0  0  0  0  0  0  0
   10.8860   -1.5330   23.5770 C   0  0  2  0  0  0  0  0  0  0  0  0
   11.4440   -0.7100   22.6260 C   0  0  0  0  0  0  0  0  0  0  0  0
   12.9040   -0.8240   22.4790 C   0  0  0  0  0  0  0  0  0  0  0  0
   13.2990   -1.7540   23.3590 N   0  0  0  0  0  0  0  0  0  0  0  0
   12.1760   -2.2480   24.1040 C   0  0  0  0  0  0  0  0  0  0  0  0
   12.2670   -3.0770   24.9910 O   0  0  0  0  0  0  0  0  0  0  0  0
    7.5660   -2.4000   23.6240 C   0  0  0  0  0  0  0  0  0  0  0  0
    8.2100   -1.5050   24.1560 O   0  0  0  0  0  0  0  0  0  0  0  0
    7.2020   -3.4010   22.5460 C   0  0  0  0  0  0  0  0  0  0  0  0
    6.4590   -3.0780   21.6280 O   0  0  0  0  0  0  0  0  0  0  0  0
    7.7580   -4.6530   22.7280 N   0  0  0  0  0  0  0  0  0  0  0  0
    7.0450   -5.7760   23.3350 C   0  0  0  0  0  0  0  0  0  0  0  0
    5.7010   -5.5090   23.6800 C   0  0  0  0  0  0  0  0  0  0  0  0
    5.3350   -4.7180   24.7660 C   0  0  0  0  0  0  0  0  0  0  0  0
    4.0160   -4.4160   25.1550 C   0  0  0  0  0  0  0  0  0  0  0  0
    3.0320   -4.9720   24.3690 C   0  0  0  0  0  0  0  0  0  0  0  0
    3.3470   -5.7640   23.2840 C   0  0  0  0  0  0  0  0  0  0  0  0
    4.6580   -6.0520   22.9110 C   0  0  0  0  0  0  0  0  0  0  0  0
    2.2290   -6.2100   22.6500 O   0  0  0  0  0  0  0  0  0  0  0  0
    1.2250   -5.8490   23.6200 C   0  0  0  0  0  0  0  0  0  0  0  0
    1.6870   -4.8330   24.5320 O   0  0  0  0  0  0  0  0  0  0  0  0
  1  2  1  0
  2  3  1  0
  2  4  1  0
  5  4  1  6
  5  6  1  0
  6  7  1  0
  7  8  2  0
  7  9  1  0
  9 10  1  0
 10 11  1  0
 11 12  2  0
 12 13  1  0
 13 14  2  0
 14 15  1  0
 11 16  1  0
 15 16  2  0
  5 17  1  0
 17 18  2  0
 17 19  1  0
 19 20  1  0
 20 21  1  1
 22 21  1  6
 22 23  1  0
 23 24  1  0
 24 25  1  0
 22 26  1  0
 25 26  1  0
 26 27  2  0
 20 28  1  0
 28 29  2  0
 28 30  1  0
 30 31  2  0
 30 32  1  0
 32 33  1  0
 33 34  1  0
 34 35  2  0
 35 36  1  0
 36 37  2  0
 37 38  1  0
 34 39  1  0
 38 39  2  0
 38 40  1  0
 40 41  1  0
 37 42  1  0
 41 42  1  0
M  END
