YUN-WES-58b0dbae-5
     RDKit          3D

 44 47  0  0  0  0  0  0  0  0999 V2000
    7.2130   -4.6830   28.4190 C   0  0  0  0  0  0  0  0  0  0  0  0
    6.3160   -4.2080   27.6730 O   0  0  0  0  0  0  0  0  0  0  0  0
    5.4350   -5.1020   27.1270 C   0  0  0  0  0  0  0  0  0  0  0  0
    5.0640   -6.3000   27.6030 C   0  0  0  0  0  0  0  0  0  0  0  0
    4.1630   -7.0750   26.9210 C   0  0  0  0  0  0  0  0  0  0  0  0
    3.4580   -6.9030   25.7100 C   0  0  0  0  0  0  0  0  0  0  0  0
    3.9100   -5.6860   25.3430 C   0  0  0  0  0  0  0  0  0  0  0  0
    3.3640   -4.9340   23.8780 S   0  0  0  0  0  0  0  0  0  0  0  0
    4.3380   -3.5770   24.1560 C   0  0  0  0  0  0  0  0  0  0  0  0
    4.3990   -2.5160   23.2870 N   0  0  0  0  0  0  0  0  0  0  0  0
    5.0820   -2.5240   22.0370 C   0  0  0  0  0  0  0  0  0  0  0  0
    4.8830   -3.3160   21.1210 O   0  0  0  0  0  0  0  0  0  0  0  0
    6.0980   -1.5130   21.7470 C   0  0  0  0  0  0  0  0  0  0  0  0
    5.0910   -0.8200   21.7810 O   0  0  0  0  0  0  0  0  0  0  0  0
    6.9580   -2.5020   21.7750 C   0  0  2  0  0  0  0  0  0  0  0  0
    7.3090   -3.0470   23.1040 C   0  0  0  0  0  0  0  0  0  0  0  0
    7.3890   -4.5000   23.1330 C   0  0  1  0  0  0  0  0  0  0  0  0
    6.3490   -5.3260   23.5320 C   0  0  0  0  0  0  0  0  0  0  0  0
    5.9620   -6.2780   22.6420 C   0  0  0  0  0  0  0  0  0  0  0  0
    6.7980   -6.0250   21.5230 N   0  0  0  0  0  0  0  0  0  0  0  0
    7.7540   -5.0900   21.8080 C   0  0  0  0  0  0  0  0  0  0  0  0
    8.6960   -4.8030   21.1150 O   0  0  0  0  0  0  0  0  0  0  0  0
    8.1790   -1.8840   21.2170 N   0  0  0  0  0  0  0  0  0  0  0  0
    9.4220   -2.1370   21.7740 C   0  0  0  0  0  0  0  0  0  0  0  0
   10.0590   -3.1560   21.5620 O   0  0  0  0  0  0  0  0  0  0  0  0
    9.9410   -1.1530   22.6180 C   0  0  2  0  0  0  0  0  0  0  0  0
    9.2500    0.2210   22.5120 C   0  0  0  0  0  0  0  0  0  0  0  0
    9.5490    1.1000   23.7220 C   0  0  0  0  0  0  0  0  0  0  0  0
    9.2050    0.3120   24.9910 C   0  0  0  0  0  0  0  0  0  0  0  0
   11.0170    1.5170   23.7420 C   0  0  0  0  0  0  0  0  0  0  0  0
   11.3780   -0.9860   22.2440 N   0  0  0  0  0  0  0  0  0  0  0  0
   12.5500   -1.0730   23.4430 S   0  0  0  0  0  0  0  0  0  0  0  0
   13.0300    0.2530   23.7220 O   0  0  0  0  0  0  0  0  0  0  0  0
   13.4110   -2.1630   23.0750 O   0  0  0  0  0  0  0  0  0  0  0  0
   11.6310   -1.6170   24.7210 N   0  0  0  0  0  0  0  0  0  0  0  0
   11.6440   -3.0390   24.9890 C   0  0  0  0  0  0  0  0  0  0  0  0
   10.2840   -3.5870   25.3660 C   0  0  0  0  0  0  0  0  0  0  0  0
    9.1850   -2.6720   25.2520 C   0  0  0  0  0  0  0  0  0  0  0  0
    8.1020   -3.5260   25.6630 C   0  0  0  0  0  0  0  0  0  0  0  0
    8.0620   -4.8600   26.0670 C   0  0  0  0  0  0  0  0  0  0  0  0
    9.1860   -5.5810   26.1280 C   0  0  0  0  0  0  0  0  0  0  0  0
   10.2970   -4.9240   25.7710 C   0  0  0  0  0  0  0  0  0  0  0  0
    5.0450   -3.5980   25.2530 N   0  0  0  0  0  0  0  0  0  0  0  0
    4.8300   -4.7860   25.9510 C   0  0  0  0  0  0  0  0  0  0  0  0
  1  2  1  0
  2  3  1  0
  3  4  2  0
  4  5  1  0
  5  6  2  0
  6  7  1  0
  7  8  1  0
  8  9  1  0
  9 10  1  0
 10 11  1  0
 11 12  2  0
 11 13  1  0
 13 14  2  0
 13 15  1  0
 15 16  1  1
 17 16  1  6
 17 18  1  0
 18 19  1  0
 19 20  1  0
 17 21  1  0
 20 21  1  0
 21 22  2  0
 15 23  1  0
 23 24  1  0
 24 25  2  0
 24 26  1  0
 26 27  1  6
 27 28  1  0
 28 29  1  0
 28 30  1  0
 26 31  1  0
 32 31  1  0
 32 33  2  0
 32 34  2  0
 32 35  1  0
 35 36  1  0
 36 37  1  0
 37 38  2  0
 38 39  1  0
 39 40  2  0
 40 41  1  0
 37 42  1  0
 41 42  2  0
  9 43  2  0
  3 44  1  0
  7 44  2  0
 43 44  1  0
M  END
