YUN-WES-64c64eb2-5
     RDKit          3D

 42 44  0  0  0  0  0  0  0  0999 V2000
    0.1750   -9.5990   24.5430 C   0  0  0  0  0  0  0  0  0  0  0  0
    0.8460   -8.9990   25.5400 C   0  0  0  0  0  0  0  0  0  0  0  0
    2.3290   -9.2440   25.4930 C   0  0  0  0  0  0  0  0  0  0  0  0
    0.5280   -7.4860   25.5250 C   0  0  0  0  0  0  0  0  0  0  0  0
    1.4220   -6.6850   26.2630 C   0  0  2  0  0  0  0  0  0  0  0  0
    1.0860   -6.7530   27.7240 N   0  0  0  0  0  0  0  0  0  0  0  0
    2.4130   -6.9240   28.7420 S   0  0  0  0  0  0  0  0  0  0  0  0
    3.5870   -6.9350   27.9030 O   0  0  0  0  0  0  0  0  0  0  0  0
    2.2650   -5.9780   29.8300 O   0  0  0  0  0  0  0  0  0  0  0  0
    2.1220   -8.4760   29.3180 N   0  0  0  0  0  0  0  0  0  0  0  0
    0.8700   -8.7710   29.8180 C   0  0  0  0  0  0  0  0  0  0  0  0
    0.7340  -10.1530   29.9690 C   0  0  0  0  0  0  0  0  0  0  0  0
    0.4710  -10.6750   31.2220 C   0  0  0  0  0  0  0  0  0  0  0  0
    0.3210  -12.0440   31.4890 C   0  0  0  0  0  0  0  0  0  0  0  0
    0.4420  -12.9640   30.4350 C   0  0  0  0  0  0  0  0  0  0  0  0
    0.7280  -12.5160   29.0060 C   0  0  0  0  0  0  0  0  0  0  0  0
    0.8630  -11.0020   28.8740 C   0  0  0  0  0  0  0  0  0  0  0  0
    1.2660   -5.2140   25.8270 C   0  0  0  0  0  0  0  0  0  0  0  0
    0.5820   -4.4200   26.4750 O   0  0  0  0  0  0  0  0  0  0  0  0
    1.9460   -4.8620   24.6430 N   0  0  0  0  0  0  0  0  0  0  0  0
    3.0130   -3.9130   24.6030 C   0  0  1  0  0  0  0  0  0  0  0  0
    3.8420   -4.1220   23.4910 C   0  0  0  0  0  0  0  0  0  0  0  0
    4.9680   -4.9590   23.6270 C   0  0  2  0  0  0  0  0  0  0  0  0
    6.2090   -4.4260   24.0070 C   0  0  0  0  0  0  0  0  0  0  0  0
    7.2570   -4.6170   23.1110 C   0  0  0  0  0  0  0  0  0  0  0  0
    6.5530   -5.0050   21.9380 N   0  0  0  0  0  0  0  0  0  0  0  0
    5.3800   -5.5880   22.3140 C   0  0  0  0  0  0  0  0  0  0  0  0
    4.8010   -6.4390   21.7140 O   0  0  0  0  0  0  0  0  0  0  0  0
    2.3900   -2.5170   24.7280 C   0  0  0  0  0  0  0  0  0  0  0  0
    1.1950   -2.3370   24.9460 O   0  0  0  0  0  0  0  0  0  0  0  0
    3.2220   -1.3900   24.5980 C   0  0  0  0  0  0  0  0  0  0  0  0
    4.3930   -1.5320   24.2970 O   0  0  0  0  0  0  0  0  0  0  0  0
    2.5490   -0.2060   24.8500 N   0  0  0  0  0  0  0  0  0  0  0  0
    2.0380    0.7330   23.9210 C   0  0  0  0  0  0  0  0  0  0  0  0
    2.6430    1.0250   22.6920 C   0  0  0  0  0  0  0  0  0  0  0  0
    2.0530    1.9600   21.8540 C   0  0  0  0  0  0  0  0  0  0  0  0
    2.6160    2.2660   20.6450 O   0  0  0  0  0  0  0  0  0  0  0  0
    0.8760    2.6090   22.2160 C   0  0  0  0  0  0  0  0  0  0  0  0
    0.3160    3.5120   21.3950 F   0  0  0  0  0  0  0  0  0  0  0  0
    0.2620    2.3360   23.4290 C   0  0  0  0  0  0  0  0  0  0  0  0
    0.8500    1.4010   24.2710 C   0  0  0  0  0  0  0  0  0  0  0  0
    0.2590    1.1330   25.4490 F   0  0  0  0  0  0  0  0  0  0  0  0
  1  2  1  0
  2  3  1  0
  2  4  1  0
  5  4  1  6
  5  6  1  0
  7  6  1  0
  7  8  2  0
  7  9  2  0
  7 10  1  0
 10 11  1  0
 11 12  1  0
 12 13  2  0
 13 14  1  0
 14 15  2  0
 15 16  1  0
 12 17  1  0
 16 17  2  0
  5 18  1  0
 18 19  2  0
 18 20  1  0
 20 21  1  0
 21 22  1  6
 23 22  1  6
 23 24  1  0
 24 25  1  0
 25 26  1  0
 23 27  1  0
 26 27  1  0
 27 28  2  0
 21 29  1  0
 29 30  2  0
 29 31  1  0
 31 32  2  0
 31 33  1  0
 33 34  1  0
 34 35  2  0
 35 36  1  0
 36 37  1  0
 36 38  2  0
 38 39  1  0
 38 40  1  0
 34 41  1  0
 40 41  2  0
 41 42  1  0
M  END
