YUN-WES-58b0dbae-9
     RDKit          3D

 48 51  0  0  0  0  0  0  0  0999 V2000
   10.0300   -5.5310   25.9840 C   0  0  0  0  0  0  0  0  0  0  0  0
    9.1250   -4.9590   25.4160 O   0  0  0  0  0  0  0  0  0  0  0  0
    9.4140   -4.1650   24.3400 C   0  0  0  0  0  0  0  0  0  0  0  0
    8.4020   -4.1130   23.1400 C   0  0  0  0  0  0  0  0  0  0  0  0
    9.2160   -3.1060   22.2870 C   0  0  0  0  0  0  0  0  0  0  0  0
    8.5680   -2.8480   21.1230 N   0  0  0  0  0  0  0  0  0  0  0  0
    8.2600   -1.5690   20.7090 C   0  0  0  0  0  0  0  0  0  0  0  0
    7.6270   -1.2980   19.4390 O   0  0  0  0  0  0  0  0  0  0  0  0
    8.5210   -0.3840   21.3720 C   0  0  0  0  0  0  0  0  0  0  0  0
    8.3530    0.4840   22.2150 O   0  0  0  0  0  0  0  0  0  0  0  0
    7.4320   -0.9040   22.0830 C   0  0  2  0  0  0  0  0  0  0  0  0
    6.5380   -1.5900   21.2320 C   0  0  0  0  0  0  0  0  0  0  0  0
    5.3770   -2.3890   21.7120 C   0  0  2  0  0  0  0  0  0  0  0  0
    5.3620   -2.6380   23.2010 C   0  0  0  0  0  0  0  0  0  0  0  0
    5.2250   -3.9510   23.2750 C   0  0  0  0  0  0  0  0  0  0  0  0
    5.2360   -4.4860   21.9650 N   0  0  0  0  0  0  0  0  0  0  0  0
    5.2980   -3.5440   20.9500 C   0  0  0  0  0  0  0  0  0  0  0  0
    5.2690   -3.7230   19.7320 O   0  0  0  0  0  0  0  0  0  0  0  0
    6.7810    0.2190   22.6080 N   0  0  0  0  0  0  0  0  0  0  0  0
    6.6500    0.4640   24.0070 C   0  0  0  0  0  0  0  0  0  0  0  0
    7.3070    1.5970   24.5850 O   0  0  0  0  0  0  0  0  0  0  0  0
    5.8760   -0.3490   24.8380 C   0  0  2  0  0  0  0  0  0  0  0  0
    4.7640    0.4270   25.2250 C   0  0  0  0  0  0  0  0  0  0  0  0
    3.6400   -0.0460   24.5600 C   0  0  0  0  0  0  0  0  0  0  0  0
    2.5940    0.8560   24.5530 C   0  0  0  0  0  0  0  0  0  0  0  0
    3.0860   -1.2520   25.3190 C   0  0  0  0  0  0  0  0  0  0  0  0
    6.5890   -0.9020   25.8540 N   0  0  0  0  0  0  0  0  0  0  0  0
    6.0470   -1.7490   26.7920 C   0  0  0  0  0  0  0  0  0  0  0  0
    5.1600   -1.3580   27.5520 O   0  0  0  0  0  0  0  0  0  0  0  0
    6.5500   -3.0540   26.8540 N   0  0  0  0  0  0  0  0  0  0  0  0
    5.6160   -4.0780   26.3190 C   0  0  0  0  0  0  0  0  0  0  0  0
    5.9520   -4.8720   25.1940 C   0  0  0  0  0  0  0  0  0  0  0  0
    5.0600   -5.6880   24.5540 C   0  0  0  0  0  0  0  0  0  0  0  0
    5.2520   -6.5380   23.4060 C   0  0  0  0  0  0  0  0  0  0  0  0
    6.6750   -6.2860   23.1210 C   0  0  0  0  0  0  0  0  0  0  0  0
    7.8470   -5.5490   23.5510 C   0  0  0  0  0  0  0  0  0  0  0  0
    7.0840   -5.0240   24.5260 C   0  0  0  0  0  0  0  0  0  0  0  0
    7.2720   -3.3450   27.9860 C   0  0  2  0  0  0  0  0  0  0  0  0
    8.3040   -4.2720   27.8560 C   0  0  0  0  0  0  0  0  0  0  0  0
    7.8950   -5.5860   27.6520 C   0  0  0  0  0  0  0  0  0  0  0  0
    6.7480   -6.0410   28.2940 C   0  0  0  0  0  0  0  0  0  0  0  0
    5.8050   -5.1280   28.7640 C   0  0  0  0  0  0  0  0  0  0  0  0
    6.3440   -3.8130   28.9920 O   0  0  0  0  0  0  0  0  0  0  0  0
   10.4240   -2.4550   22.4830 C   0  0  0  0  0  0  0  0  0  0  0  0
   11.1540   -2.6470   23.6110 C   0  0  0  0  0  0  0  0  0  0  0  0
   12.3230   -1.9440   23.6760 O   0  0  0  0  0  0  0  0  0  0  0  0
   13.4690   -2.6500   24.1300 C   0  0  0  0  0  0  0  0  0  0  0  0
   10.6310   -3.5100   24.5300 C   0  0  0  0  0  0  0  0  0  0  0  0
  1  2  1  0
  2  3  1  0
  3  4  2  0
  4  5  1  0
  5  6  1  0
  6  7  1  0
  7  8  2  0
  7  9  1  0
  9 10  2  0
  9 11  1  0
 11 12  1  6
 13 12  1  6
 13 14  1  0
 14 15  1  0
 15 16  1  0
 13 17  1  0
 16 17  1  0
 17 18  2  0
 11 19  1  0
 19 20  1  0
 20 21  2  0
 20 22  1  0
 22 23  1  1
 23 24  1  0
 24 25  1  0
 24 26  1  0
 22 27  1  0
 27 28  1  0
 28 29  2  0
 28 30  1  0
 30 31  1  0
 31 32  1  0
 32 33  2  0
 33 34  1  0
 34 35  2  0
 35 36  1  0
 32 37  1  0
 36 37  2  0
 38 30  1  6
 38 39  1  0
 39 40  1  0
 40 41  1  0
 41 42  1  0
 38 43  1  0
 42 43  1  0
  5 44  2  0
 44 45  1  0
 45 46  1  0
 46 47  1  0
  3 48  1  0
 45 48  2  0
M  END
