ZAC-WAB-3baddbb3-1
     RDKit          3D

 23 24  0  0  0  0  0  0  0  0999 V2000
    6.6460   -2.4490   28.5940 C   0  0  0  0  0  0  0  0  0  0  0  0
    5.9950   -1.3820   27.3200 S   0  0  0  0  0  0  0  0  0  0  0  0
    6.4520   -0.0340   27.5840 O   0  0  0  0  0  0  0  0  0  0  0  0
    4.5930   -1.6800   27.1220 O   0  0  0  0  0  0  0  0  0  0  0  0
    6.8260   -1.8810   25.9330 N   0  0  0  0  0  0  0  0  0  0  0  0
    7.5210   -0.9110   25.1660 C   0  0  0  0  0  0  0  0  0  0  0  0
    7.9440   -1.2020   23.7130 C   0  0  0  0  0  0  0  0  0  0  0  0
    8.9860   -0.2210   23.1550 C   0  0  2  0  0  0  0  0  0  0  0  0
    8.6800    0.3040   21.8780 C   0  0  0  0  0  0  0  0  0  0  0  0
    9.1680    1.3670   21.4510 O   0  0  0  0  0  0  0  0  0  0  0  0
    7.7680   -0.4530   21.1780 N   0  0  0  0  0  0  0  0  0  0  0  0
    6.9450    0.1080   20.1150 C   0  0  0  0  0  0  0  0  0  0  0  0
    5.9120    0.9810   20.4330 C   0  0  0  0  0  0  0  0  0  0  0  0
    5.1010    1.5420   19.4570 C   0  0  0  0  0  0  0  0  0  0  0  0
    5.3710    1.1910   18.1400 C   0  0  0  0  0  0  0  0  0  0  0  0
    6.3650    0.3440   17.7940 N   0  0  0  0  0  0  0  0  0  0  0  0
    7.1250   -0.1800   18.7830 C   0  0  0  0  0  0  0  0  0  0  0  0
   10.4000   -0.8820   23.3400 C   0  0  0  0  0  0  0  0  0  0  0  0
   11.1820   -0.8710   22.1920 C   0  0  0  0  0  0  0  0  0  0  0  0
   12.4510   -1.6950   22.3300 C   0  0  0  0  0  0  0  0  0  0  0  0
   12.9560   -1.7410   23.6110 C   0  0  0  0  0  0  0  0  0  0  0  0
   12.7060   -0.6090   24.3580 C   0  0  0  0  0  0  0  0  0  0  0  0
   11.2200   -0.2650   24.4810 C   0  0  0  0  0  0  0  0  0  0  0  0
  1  2  1  0
  2  3  2  0
  2  4  2  0
  2  5  1  0
  5  6  1  0
  6  7  1  0
  8  7  1  6
  8  9  1  0
  9 10  2  0
  9 11  1  0
 11 12  1  0
 12 13  2  0
 13 14  1  0
 14 15  2  0
 15 16  1  0
 12 17  1  0
 16 17  2  0
  8 18  1  0
 18 19  1  0
 19 20  1  0
 20 21  1  0
 21 22  1  0
 18 23  1  0
 22 23  1  0
M  END
