ZAC-MCD-b48cf8fd-1
     RDKit          3D

 37 41  0  0  0  0  0  0  0  0999 V2000
    5.4950   -4.2730   19.9310 O   0  0  0  0  0  0  0  0  0  0  0  0
    6.3580   -4.1340   20.8140 C   0  0  0  0  0  0  0  0  0  0  0  0
    7.3130   -2.9190   20.7580 C   0  0  0  0  0  0  0  0  0  0  0  0
    7.5220   -2.1730   22.0600 C   0  0  1  0  0  0  0  0  0  0  0  0
    8.8190   -2.1130   22.6260 C   0  0  0  0  0  0  0  0  0  0  0  0
    8.7930   -1.0370   23.4940 N   0  0  0  0  0  0  0  0  0  0  0  0
    8.6200   -1.4850   24.7860 C   0  0  0  0  0  0  0  0  0  0  0  0
    8.5790   -0.6260   25.8900 C   0  0  0  0  0  0  0  0  0  0  0  0
    8.4000   -1.0230   27.2130 C   0  0  0  0  0  0  0  0  0  0  0  0
    8.2290   -2.4460   27.5700 C   0  0  0  0  0  0  0  0  0  0  0  0
    8.2670   -3.4240   26.4170 C   0  0  0  0  0  0  0  0  0  0  0  0
    8.4680   -2.8710   25.0510 C   0  0  0  0  0  0  0  0  0  0  0  0
    8.0310   -0.0490   22.8500 C   0  0  0  0  0  0  0  0  0  0  0  0
    8.1390    1.1700   22.9070 O   0  0  0  0  0  0  0  0  0  0  0  0
    7.0790   -0.8490   22.0840 N   0  0  0  0  0  0  0  0  0  0  0  0
    6.2920   -0.0930   21.0730 C   0  0  0  0  0  0  0  0  0  0  0  0
    6.7810   -0.0160   19.6760 C   0  0  0  0  0  0  0  0  0  0  0  0
    5.9570    0.7780   18.6380 C   0  0  0  0  0  0  0  0  0  0  0  0
    4.7930    1.3820   19.0600 C   0  0  0  0  0  0  0  0  0  0  0  0
    4.3160    1.3300   20.3300 N   0  0  0  0  0  0  0  0  0  0  0  0
    5.0870    0.5820   21.3300 C   0  0  0  0  0  0  0  0  0  0  0  0
    6.5490   -5.0440   21.8450 N   0  0  0  0  0  0  0  0  0  0  0  0
    7.3410   -4.8770   23.0530 C   0  0  0  0  0  0  0  0  0  0  0  0
    6.4620   -4.5470   24.2420 C   0  0  0  0  0  0  0  0  0  0  0  0
    5.3370   -5.5130   24.3550 N   0  0  0  0  0  0  0  0  0  0  0  0
    4.5610   -5.6160   25.8510 S   0  0  0  0  0  0  0  0  0  0  0  0
    3.8140   -6.8530   25.8800 O   0  0  0  0  0  0  0  0  0  0  0  0
    5.5400   -5.3090   26.8690 O   0  0  0  0  0  0  0  0  0  0  0  0
    3.3850   -4.2760   25.8140 C   0  0  0  0  0  0  0  0  0  0  0  0
    2.0280   -4.5620   25.6830 C   0  0  0  0  0  0  0  0  0  0  0  0
    1.0950   -3.5330   25.6630 C   0  0  0  0  0  0  0  0  0  0  0  0
    1.5170   -2.2150   25.7710 C   0  0  0  0  0  0  0  0  0  0  0  0
    2.8660   -1.9460   25.8960 C   0  0  0  0  0  0  0  0  0  0  0  0
    3.2570   -0.6640   25.9980 F   0  0  0  0  0  0  0  0  0  0  0  0
    3.8130   -2.9490   25.9200 C   0  0  0  0  0  0  0  0  0  0  0  0
    4.6240   -5.8620   23.1200 C   0  0  0  0  0  0  0  0  0  0  0  0
    5.5850   -6.1300   21.9930 C   0  0  0  0  0  0  0  0  0  0  0  0
  1  2  2  0
  2  3  1  0
  4  3  1  6
  4  5  1  0
  5  6  1  0
  6  7  1  0
  7  8  2  0
  8  9  1  0
  9 10  2  0
 10 11  1  0
  7 12  1  0
 11 12  2  0
  6 13  1  0
 13 14  2  0
  4 15  1  0
 13 15  1  0
 15 16  1  0
 16 17  2  0
 17 18  1  0
 18 19  2  0
 19 20  1  0
 16 21  1  0
 20 21  2  0
  2 22  1  0
 22 23  1  0
 23 24  1  0
 24 25  1  0
 25 26  1  0
 26 27  2  0
 26 28  2  0
 26 29  1  0
 29 30  2  0
 30 31  1  0
 31 32  2  0
 32 33  1  0
 33 34  1  0
 29 35  1  0
 33 35  2  0
 25 36  1  0
 22 37  1  0
 36 37  1  0
M  END
