ZAC-WAB-0847d168-1
     RDKit          3D

 20 22  0  0  0  0  0  0  0  0999 V2000
    7.3850   -1.8470   23.8550 O   0  0  0  0  0  0  0  0  0  0  0  0
    7.8180   -0.7110   23.6430 C   0  0  0  0  0  0  0  0  0  0  0  0
    9.4090   -0.6650   23.4730 C   0  0  0  0  0  0  0  0  0  0  0  0
   10.3390    0.0040   24.4890 C   0  0  0  0  0  0  0  0  0  0  0  0
   11.7450   -0.0000   24.2940 C   0  0  0  0  0  0  0  0  0  0  0  0
   12.2980   -0.6180   23.1850 C   0  0  0  0  0  0  0  0  0  0  0  0
   11.4570   -1.2340   22.2690 C   0  0  0  0  0  0  0  0  0  0  0  0
   10.0510   -1.2800   22.3690 C   0  0  0  0  0  0  0  0  0  0  0  0
    6.8630    0.4770   23.5800 N   0  0  0  0  0  0  0  0  0  0  0  0
    7.1180    1.8810   23.2180 C   0  0  0  0  0  0  0  0  0  0  0  0
    5.7260    2.5740   22.9410 C   0  0  0  0  0  0  0  0  0  0  0  0
    4.5590    1.8840   23.7010 C   0  0  1  0  0  0  0  0  0  0  0  0
    3.1930    2.1130   22.9960 N   0  0  0  0  0  0  0  0  0  0  0  0
    1.8780    2.8570   23.4950 C   0  0  0  0  0  0  0  0  0  0  0  0
    1.9820    3.9530   24.5910 C   0  0  0  0  0  0  0  0  0  0  0  0
    0.6410    4.6370   25.0150 C   0  0  0  0  0  0  0  0  0  0  0  0
   -0.6790    4.2120   24.3530 C   0  0  0  0  0  0  0  0  0  0  0  0
   -0.6330    3.2140   23.3800 C   0  0  0  0  0  0  0  0  0  0  0  0
    0.5780    2.5840   22.9830 C   0  0  0  0  0  0  0  0  0  0  0  0
    5.3000    0.4120   23.7330 C   0  0  0  0  0  0  0  0  0  0  0  0
  1  2  2  0
  2  3  1  0
  3  4  2  0
  4  5  1  0
  5  6  2  0
  6  7  1  0
  3  8  1  0
  7  8  2  0
  2  9  1  0
  9 10  1  0
 10 11  1  0
 11 12  1  0
 12 13  1  6
 13 14  1  0
 14 15  2  0
 15 16  1  0
 16 17  2  0
 17 18  1  0
 14 19  1  0
 18 19  2  0
  9 20  1  0
 12 20  1  0
M  END
