ZAC-WAB-2baeb60f-1
     RDKit          3D

 26 28  0  0  0  0  0  0  0  0999 V2000
   12.0930   -2.9180   24.3090 C   0  0  0  0  0  0  0  0  0  0  0  0
   12.8680   -1.4600   24.8820 S   0  0  0  0  0  0  0  0  0  0  0  0
   13.6330   -1.8550   26.0290 O   0  0  0  0  0  0  0  0  0  0  0  0
   13.5250   -0.8360   23.7760 O   0  0  0  0  0  0  0  0  0  0  0  0
   11.5410   -0.4770   25.2090 N   0  0  0  0  0  0  0  0  0  0  0  0
   11.2820    0.5210   24.3880 C   0  0  0  0  0  0  0  0  0  0  0  0
    9.8180    0.9420   24.4500 C   0  0  0  0  0  0  0  0  0  0  0  0
    9.2390    0.0280   23.3990 C   0  0  1  0  0  0  0  0  0  0  0  0
    8.6110    0.7090   22.1550 C   0  0  0  0  0  0  0  0  0  0  0  0
    9.0820    1.7240   21.5950 O   0  0  0  0  0  0  0  0  0  0  0  0
    7.3410   -0.0450   21.7270 C   0  0  0  0  0  0  0  0  0  0  0  0
    6.7610    0.2600   20.5070 C   0  0  0  0  0  0  0  0  0  0  0  0
    7.1920   -0.3880   19.2130 C   0  0  0  0  0  0  0  0  0  0  0  0
    6.4280    0.1580   18.2420 N   0  0  0  0  0  0  0  0  0  0  0  0
    5.5610    1.0690   18.7900 C   0  0  0  0  0  0  0  0  0  0  0  0
    4.6400    1.8170   18.1360 N   0  0  0  0  0  0  0  0  0  0  0  0
    3.8530    2.6780   18.8190 C   0  0  0  0  0  0  0  0  0  0  0  0
    3.9110    2.8910   20.3060 C   0  0  0  0  0  0  0  0  0  0  0  0
    4.8560    2.1300   21.0020 C   0  0  0  0  0  0  0  0  0  0  0  0
    5.7190    1.1740   20.1830 C   0  0  0  0  0  0  0  0  0  0  0  0
   10.4850   -0.7800   22.9900 C   0  0  0  0  0  0  0  0  0  0  0  0
   11.7240    0.1270   22.8780 C   0  0  0  0  0  0  0  0  0  0  0  0
   13.0180   -0.5650   22.4220 C   0  0  0  0  0  0  0  0  0  0  0  0
   12.8780   -1.7930   21.5430 C   0  0  0  0  0  0  0  0  0  0  0  0
   11.5220   -2.4500   21.5270 C   0  0  0  0  0  0  0  0  0  0  0  0
   10.3060   -1.5690   21.7330 C   0  0  0  0  0  0  0  0  0  0  0  0
  1  2  1  0
  2  3  2  0
  2  4  2  0
  2  5  1  0
  5  6  1  0
  6  7  1  0
  8  7  1  1
  8  9  1  0
  9 10  2  0
  9 11  1  0
 11 12  1  0
 12 13  2  0
 13 14  1  0
 14 15  1  0
 15 16  1  0
 16 17  2  0
 17 18  1  0
 18 19  2  0
 12 20  1  0
 15 20  2  0
 19 20  1  0
  8 21  1  0
 21 22  1  0
 22 23  1  0
 23 24  1  0
 24 25  1  0
 21 26  1  0
 25 26  1  0
M  END
