AAR-POS-dddeddbf-2
     RDKit          3D

 28 29  0  0  0  0  0  0  0  0999 V2000
   11.0198    0.1338   23.7367 C   0  0  0  0  0  0  0  0  0  0  0  0
   12.6715    1.6471   22.8318 C   0  0  0  0  0  0  0  0  0  0  0  0
    7.6645    3.6191   23.3092 C   0  0  0  0  0  0  0  0  0  0  0  0
    7.9541    6.0569   21.9840 C   0  0  0  0  0  0  0  0  0  0  0  0
   12.1922    0.3496   23.0125 C   0  0  0  0  0  0  0  0  0  0  0  0
    6.7139    4.0198   22.3704 C   0  0  0  0  0  0  0  0  0  0  0  0
   10.3266    1.2153   24.2802 C   0  0  0  0  0  0  0  0  0  0  0  0
   11.9783    2.7287   23.3754 C   0  0  0  0  0  0  0  0  0  0  0  0
    8.7599    4.4374   23.5855 C   0  0  0  0  0  0  0  0  0  0  0  0
   10.8059    2.5128   24.0996 C   0  0  0  0  0  0  0  0  0  0  0  0
    6.8587    5.2386   21.7077 C   0  0  0  0  0  0  0  0  0  0  0  0
    8.9047    5.6562   22.9228 C   0  0  0  0  0  0  0  0  0  0  0  0
    5.5560    3.1141   22.1018 C   0  0  0  0  0  0  0  0  0  0  0  0
   12.9348   -0.8065   22.4332 C   0  0  0  0  0  0  0  0  0  0  0  0
    9.1341    0.9573   25.0126 N   0  0  0  0  0  0  0  0  0  0  0  0
   12.4965    4.0381   23.1706 N   0  0  0  0  0  0  0  0  0  0  0  0
    8.7492   -0.2283   25.1436 O   0  0  0  0  0  0  0  0  0  0  0  0
    8.5053    1.9233   25.5047 O   0  0  0  0  0  0  0  0  0  0  0  0
   13.5538    4.1740   22.5115 O   0  0  0  0  0  0  0  0  0  0  0  0
   11.8796    5.0155   23.6552 O   0  0  0  0  0  0  0  0  0  0  0  0
   10.8597    4.9803   24.9630 O   0  0  0  0  0  0  0  0  0  0  0  0
    9.1972    3.3465   25.9211 O   0  0  0  0  0  0  0  0  0  0  0  0
   12.3528   -2.0154   22.6900 F   0  0  0  0  0  0  0  0  0  0  0  0
   13.0572   -0.7522   21.0738 F   0  0  0  0  0  0  0  0  0  0  0  0
   14.2094   -0.9051   22.9117 F   0  0  0  0  0  0  0  0  0  0  0  0
    9.9315    3.8769   24.7858 S   0  0  0  0  0  0  0  0  0  0  0  0
    5.7024    5.7675   20.5403 Cl  0  0  0  0  0  0  0  0  0  0  0  0
   10.2430    6.7046   23.2274 Cl  0  0  0  0  0  0  0  0  0  0  0  0
  1  5  2  0
  1  7  1  0
  2  5  1  0
  2  8  2  0
  3  6  2  0
  3  9  1  0
  4 11  2  0
  4 12  1  0
  5 14  1  0
  6 11  1  0
  6 13  1  0
  7 10  2  0
  7 15  1  0
  8 10  1  0
  8 16  1  0
  9 12  2  0
  9 26  1  0
 10 26  1  0
 11 27  1  0
 12 28  1  0
 14 23  1  0
 14 24  1  0
 14 25  1  0
 15 17  1  0
 15 18  2  0
 16 19  1  0
 16 20  2  0
 21 26  2  0
 22 26  2  0
M  CHG  4  15   1  16   1  17  -1  19  -1
M  END
