AAR-POS-dddeddbf-3
     RDKit          3D

 18 19  0  0  0  0  0  0  0  0999 V2000
   11.7160    0.1642   21.1151 C   0  0  0  0  0  0  0  0  0  0  0  0
   10.4096   -0.7960   22.9064 C   0  0  0  0  0  0  0  0  0  0  0  0
   12.7805   -0.6760   21.4411 C   0  0  0  0  0  0  0  0  0  0  0  0
   11.4742   -1.6363   23.2323 C   0  0  0  0  0  0  0  0  0  0  0  0
    8.4127    0.4776   18.8996 C   0  0  0  0  0  0  0  0  0  0  0  0
   10.5305    0.1043   21.8478 C   0  0  0  0  0  0  0  0  0  0  0  0
    8.1741    0.3309   20.2508 C   0  0  0  0  0  0  0  0  0  0  0  0
   12.6596   -1.5763   22.4997 C   0  0  0  0  0  0  0  0  0  0  0  0
    7.1101   -0.4821   20.5844 C   0  0  0  0  0  0  0  0  0  0  0  0
    6.6666   -0.8864   18.3920 C   0  0  0  0  0  0  0  0  0  0  0  0
    7.6761   -0.1187   17.9393 N   0  0  0  0  0  0  0  0  0  0  0  0
    6.3322   -1.1086   19.6774 N   0  0  0  0  0  0  0  0  0  0  0  0
    6.8106   -0.6753   21.9550 N   0  0  0  0  0  0  0  0  0  0  0  0
    5.8738   -1.5266   17.4147 N   0  0  0  0  0  0  0  0  0  0  0  0
    8.4180    1.3218   22.6582 O   0  0  0  0  0  0  0  0  0  0  0  0
    9.7120    2.3290   20.7445 O   0  0  0  0  0  0  0  0  0  0  0  0
    9.1980    1.1560   21.4397 S   0  0  0  0  0  0  0  0  0  0  0  0
   13.9731   -2.6129   22.9019 Cl  0  0  0  0  0  0  0  0  0  0  0  0
  1  3  2  0
  1  6  1  0
  2  4  1  0
  2  6  2  0
  3  8  1  0
  4  8  2  0
  5  7  2  0
  5 11  1  0
  6 17  1  0
  7  9  1  0
  7 17  1  0
  8 18  1  0
  9 12  2  0
  9 13  1  0
 10 11  2  0
 10 12  1  0
 10 14  1  0
 15 17  2  0
 16 17  2  0
M  END
