AAR-POS-8a4e0f60-1
     RDKit          3D

 28 31  0  0  0  0  0  0  0  0999 V2000
   13.5146   -1.0545   21.3314 C   0  0  0  0  0  0  0  0  0  0  0  0
   12.2174   -1.5531   21.1771 C   0  0  0  0  0  0  0  0  0  0  0  0
    3.8471    2.1036   22.4257 C   0  0  0  0  0  0  0  0  0  0  0  0
    4.4933    1.6540   21.2742 C   0  0  0  0  0  0  0  0  0  0  0  0
    4.4939    2.0362   23.6598 C   0  0  0  0  0  0  0  0  0  0  0  0
   13.8999   -0.3901   22.5032 C   0  0  0  0  0  0  0  0  0  0  0  0
   11.2575   -1.4077   22.1848 C   0  0  0  0  0  0  0  0  0  0  0  0
    6.1698    1.2480   18.9302 C   0  0  0  0  0  0  0  0  0  0  0  0
    7.3912   -0.3555   20.2422 C   0  0  0  0  0  0  0  0  0  0  0  0
    6.4329    1.0695   22.5908 C   0  0  0  0  0  0  0  0  0  0  0  0
    6.8397    0.7668   17.8169 C   0  0  0  0  0  0  0  0  0  0  0  0
    8.0063   -0.7651   19.0701 C   0  0  0  0  0  0  0  0  0  0  0  0
    5.7861    1.1370   21.3567 C   0  0  0  0  0  0  0  0  0  0  0  0
    6.4565    0.6707   20.1622 C   0  0  0  0  0  0  0  0  0  0  0  0
    5.7867    1.5191   23.7423 C   0  0  0  0  0  0  0  0  0  0  0  0
   12.9470   -0.2378   23.5209 C   0  0  0  0  0  0  0  0  0  0  0  0
   11.6671   -0.7434   23.3390 C   0  0  0  0  0  0  0  0  0  0  0  0
    8.7527    0.5217   24.7851 C   0  0  0  0  0  0  0  0  0  0  0  0
    6.9209   -1.0766   27.0667 C   0  0  0  0  0  0  0  0  0  0  0  0
    6.4821    1.4468   25.0710 C   0  0  0  0  0  0  0  0  0  0  0  0
    9.6500   -0.6993   24.8856 C   0  0  0  0  0  0  0  0  0  0  0  0
    6.8335   -0.9375   25.5850 C   0  0  0  0  0  0  0  0  0  0  0  0
    7.7539   -0.2284   17.8552 N   0  0  0  0  0  0  0  0  0  0  0  0
   13.0309    0.3548   24.7531 N   0  0  0  0  0  0  0  0  0  0  0  0
   11.8487    0.2375   25.3478 N   0  0  0  0  0  0  0  0  0  0  0  0
   11.0345   -0.4178   24.5039 N   0  0  0  0  0  0  0  0  0  0  0  0
    7.4131    0.3274   25.1391 N   0  0  0  0  0  0  0  0  0  0  0  0
    9.2047    1.6069   24.4103 O   0  0  0  0  0  0  0  0  0  0  0  0
  1  2  2  0
  1  6  1  0
  2  7  1  0
  3  4  2  0
  3  5  1  0
  4 13  1  0
  5 15  2  0
  6 16  2  0
  7 17  2  0
  8 11  2  0
  8 14  1  0
  9 12  1  0
  9 14  2  0
 10 13  2  0
 10 15  1  0
 11 23  1  0
 12 23  2  0
 13 14  1  0
 15 20  1  0
 16 17  1  0
 16 24  1  0
 17 26  1  0
 18 21  1  0
 18 27  1  0
 18 28  2  0
 19 22  1  0
 20 27  1  0
 21 26  1  0
 22 27  1  0
 24 25  2  0
 25 26  1  0
M  END
