AAR-POS-8a4e0f60-8
     RDKit          3D

 28 31  0  0  0  0  0  0  0  0999 V2000
    8.4790    6.3974   22.8975 C   0  0  0  0  0  0  0  0  0  0  0  0
    8.4693    5.0561   22.5027 C   0  0  0  0  0  0  0  0  0  0  0  0
    5.3313   -6.2009   23.6278 C   0  0  0  0  0  0  0  0  0  0  0  0
   10.7906   -0.1259   22.9961 C   0  0  0  0  0  0  0  0  0  0  0  0
   11.9977   -2.0312   23.8620 C   0  0  0  0  0  0  0  0  0  0  0  0
    9.5159    6.9118   23.6869 C   0  0  0  0  0  0  0  0  0  0  0  0
    9.4924    4.1792   22.8800 C   0  0  0  0  0  0  0  0  0  0  0  0
    9.6414   -0.9076   22.8780 C   0  0  0  0  0  0  0  0  0  0  0  0
   10.8485   -2.8130   23.7439 C   0  0  0  0  0  0  0  0  0  0  0  0
    6.5089   -5.6706   24.2296 C   0  0  0  0  0  0  0  0  0  0  0  0
    5.2946   -5.9694   22.2704 C   0  0  0  0  0  0  0  0  0  0  0  0
   11.9688   -0.6877   23.4880 C   0  0  0  0  0  0  0  0  0  0  0  0
   10.5475    6.0431   24.0719 C   0  0  0  0  0  0  0  0  0  0  0  0
   10.5107    4.7166   23.6644 C   0  0  0  0  0  0  0  0  0  0  0  0
    9.6703   -2.2511   23.2519 C   0  0  0  0  0  0  0  0  0  0  0  0
    7.3277   -5.0542   23.3090 C   0  0  0  0  0  0  0  0  0  0  0  0
   12.7668    2.5083   22.7701 C   0  0  0  0  0  0  0  0  0  0  0  0
   13.8784    0.8284   21.3432 C   0  0  0  0  0  0  0  0  0  0  0  0
   13.2057    0.1537   23.6158 C   0  0  0  0  0  0  0  0  0  0  0  0
    8.6481   -4.3792   23.5381 C   0  0  0  0  0  0  0  0  0  0  0  0
   12.1362    2.8152   24.1169 C   0  0  0  0  0  0  0  0  0  0  0  0
   11.6706    6.2559   24.8269 N   0  0  0  0  0  0  0  0  0  0  0  0
   12.3370    5.1093   24.9057 N   0  0  0  0  0  0  0  0  0  0  0  0
   11.6448    4.1904   24.2122 N   0  0  0  0  0  0  0  0  0  0  0  0
   13.2564    1.2080   22.6057 N   0  0  0  0  0  0  0  0  0  0  0  0
   12.8306    3.3732   21.8922 O   0  0  0  0  0  0  0  0  0  0  0  0
    8.5485   -3.0133   23.1378 O   0  0  0  0  0  0  0  0  0  0  0  0
    6.6761   -5.1161   21.7266 S   0  0  0  0  0  0  0  0  0  0  0  0
  1  2  2  0
  1  6  1  0
  2  7  1  0
  3 10  1  0
  3 11  2  0
  4  8  2  0
  4 12  1  0
  5  9  1  0
  5 12  2  0
  6 13  2  0
  7 14  2  0
  8 15  1  0
  9 15  2  0
 10 16  2  0
 11 28  1  0
 12 19  1  0
 13 14  1  0
 13 22  1  0
 14 24  1  0
 15 27  1  0
 16 20  1  0
 16 28  1  0
 17 21  1  0
 17 25  1  0
 17 26  2  0
 18 25  1  0
 19 25  1  0
 20 27  1  0
 21 24  1  0
 22 23  2  0
 23 24  1  0
M  END
