ADA-UNI-f8e79267-8
     RDKit          3D

 24 25  0  0  1  0  0  0  0  0999 V2000
   12.1199    0.2769   24.4875 C   0  0  0  0  0  0  0  0  0  0  0  0
    6.2339    1.1803   19.5721 C   0  0  0  0  0  0  0  0  0  0  0  0
   10.9432   -0.4123   24.1942 C   0  0  0  0  0  0  0  0  0  0  0  0
    6.9699    0.4299   20.4823 C   0  0  0  0  0  0  0  0  0  0  0  0
   13.3059   -0.0587   23.8345 C   0  0  0  0  0  0  0  0  0  0  0  0
   12.1385   -1.7727   22.5950 C   0  0  0  0  0  0  0  0  0  0  0  0
    6.5783    1.0952   18.2328 C   0  0  0  0  0  0  0  0  0  0  0  0
    8.2777   -0.3872   18.6718 C   0  0  0  0  0  0  0  0  0  0  0  0
   10.9525   -1.4371   23.2480 C   0  0  0  0  0  0  0  0  0  0  0  0
    8.0130   -0.3714   20.0317 C   0  0  0  0  0  0  0  0  0  0  0  0
   13.3153   -1.0835   22.8883 C   0  0  0  0  0  0  0  0  0  0  0  0
    8.6343   -1.2328   22.3164 C   0  0  0  0  0  0  0  0  0  0  0  0
    5.5600   -5.6591   23.0163 C   0  0  0  0  0  0  0  0  0  0  0  0
    9.0823   -2.9124   24.1631 C   0  0  0  0  0  0  0  0  0  0  0  0
    7.8146   -3.7174   23.8786 C   0  0  0  0  0  0  0  0  0  0  0  0
    9.6704   -2.1883   22.9299 C   0  0  0  0  0  0  0  0  0  0  0  0
    7.5848    0.3280   17.7574 N   0  0  0  0  0  0  0  0  0  0  0  0
    8.7800   -1.1461   20.9339 N   0  0  0  0  0  0  0  0  0  0  0  0
    8.0763   -4.7493   22.8525 N   0  0  0  0  0  0  0  0  0  0  0  0
    7.8156   -0.6386   23.0124 O   0  0  0  0  0  0  0  0  0  0  0  0
    7.1793   -6.4433   21.1154 O   0  0  0  0  0  0  0  0  0  0  0  0
    6.3350   -4.0678   21.0999 O   0  0  0  0  0  0  0  0  0  0  0  0
    6.8070   -5.2335   21.8222 S   0  0  0  0  0  0  0  0  0  0  0  0
   14.7791   -1.4978   22.0838 Cl  0  0  0  0  0  0  0  0  0  0  0  0
  1  3  2  0
  1  5  1  0
  2  4  2  0
  2  7  1  0
  3  9  1  0
  4 10  1  0
  5 11  2  0
  6  9  2  0
  6 11  1  0
  7 17  2  0
  8 10  2  0
  8 17  1  0
  9 16  1  0
 10 18  1  0
 11 24  1  0
 12 16  1  0
 12 18  1  0
 12 20  2  0
 13 23  1  0
 14 15  1  0
 14 16  1  0
 15 19  1  0
 19 23  1  0
 21 23  2  0
 22 23  2  0
M  END
