ADA-UNI-f8e79267-4
     RDKit          3D

 21 22  0  0  1  0  0  0  0  0999 V2000
    8.6648   -3.2313   25.3170 C   0  0  0  0  0  0  0  0  0  0  0  0
    8.1101   -1.9524   25.3659 C   0  0  0  0  0  0  0  0  0  0  0  0
    9.7504   -3.4891   24.4799 C   0  0  0  0  0  0  0  0  0  0  0  0
    5.0339    0.5170   19.8271 C   0  0  0  0  0  0  0  0  0  0  0  0
    8.6409   -0.9314   24.5777 C   0  0  0  0  0  0  0  0  0  0  0  0
   10.2812   -2.4681   23.6917 C   0  0  0  0  0  0  0  0  0  0  0  0
    5.9438    0.4111   20.8730 C   0  0  0  0  0  0  0  0  0  0  0  0
    5.5240    0.4565   18.5325 C   0  0  0  0  0  0  0  0  0  0  0  0
    7.6857    0.2014   19.2674 C   0  0  0  0  0  0  0  0  0  0  0  0
    9.7265   -1.1892   23.7406 C   0  0  0  0  0  0  0  0  0  0  0  0
    7.2969    0.2502   20.5964 C   0  0  0  0  0  0  0  0  0  0  0  0
    9.6238   -0.0197   21.5196 C   0  0  0  0  0  0  0  0  0  0  0  0
   11.5876    5.8149   23.8446 C   0  0  0  0  0  0  0  0  0  0  0  0
   10.8109    3.4417   23.7856 C   0  0  0  0  0  0  0  0  0  0  0  0
   11.0221    2.1313   23.0533 C   0  0  0  0  0  0  0  0  0  0  0  0
   10.2945   -0.0979   22.8973 C   0  0  0  0  0  0  0  0  0  0  0  0
    6.8311    0.3009   18.2246 N   0  0  0  0  0  0  0  0  0  0  0  0
    8.2466    0.1398   21.6394 N   0  0  0  0  0  0  0  0  0  0  0  0
   11.7228    4.4697   23.2234 N   0  0  0  0  0  0  0  0  0  0  0  0
   10.2778   -0.0965   20.4834 O   0  0  0  0  0  0  0  0  0  0  0  0
   10.1278    1.1534   23.5616 O   0  0  0  0  0  0  0  0  0  0  0  0
  1  2  2  0
  1  3  1  0
  2  5  1  0
  3  6  2  0
  4  7  2  0
  4  8  1  0
  5 10  2  0
  6 10  1  0
  7 11  1  0
  8 17  2  0
  9 11  2  0
  9 17  1  0
 10 16  1  0
 11 18  1  0
 12 16  1  0
 12 18  1  0
 12 20  2  0
 13 19  1  0
 14 15  1  0
 14 19  1  0
 15 21  1  0
 16 21  1  0
M  CHG  1  19   1
M  END
