ADA-UNI-f8e79267-5
     RDKit          3D

 20 21  0  0  1  0  0  0  0  0999 V2000
   13.6393   -2.2339   22.8608 C   0  0  0  0  0  0  0  0  0  0  0  0
   12.3157   -2.5695   23.1453 C   0  0  0  0  0  0  0  0  0  0  0  0
   13.9682   -0.9220   22.5192 C   0  0  0  0  0  0  0  0  0  0  0  0
    5.5319    0.6952   19.2198 C   0  0  0  0  0  0  0  0  0  0  0  0
   11.3209   -1.5935   23.0881 C   0  0  0  0  0  0  0  0  0  0  0  0
   12.9734    0.0541   22.4620 C   0  0  0  0  0  0  0  0  0  0  0  0
    6.3750    0.7505   20.3241 C   0  0  0  0  0  0  0  0  0  0  0  0
    6.0881    0.3623   17.9952 C   0  0  0  0  0  0  0  0  0  0  0  0
    8.1872    0.1519   18.9050 C   0  0  0  0  0  0  0  0  0  0  0  0
   11.6497   -0.2816   22.7465 C   0  0  0  0  0  0  0  0  0  0  0  0
    7.7294    0.4751   20.1722 C   0  0  0  0  0  0  0  0  0  0  0  0
    9.9672    0.8458   21.2690 C   0  0  0  0  0  0  0  0  0  0  0  0
    8.0516    4.4710   22.5801 C   0  0  0  0  0  0  0  0  0  0  0  0
   11.0750    2.1739   23.1241 C   0  0  0  0  0  0  0  0  0  0  0  0
    9.9886    3.1830   23.4900 C   0  0  0  0  0  0  0  0  0  0  0  0
   10.5665    0.7821   22.6837 C   0  0  0  0  0  0  0  0  0  0  0  0
    7.3987    0.0883   17.8087 N   0  0  0  0  0  0  0  0  0  0  0  0
    8.6120    0.5236   21.2771 N   0  0  0  0  0  0  0  0  0  0  0  0
    9.0939    3.4354   22.3368 N   0  0  0  0  0  0  0  0  0  0  0  0
   10.6515    1.1378   20.2923 O   0  0  0  0  0  0  0  0  0  0  0  0
  1  2  2  0
  1  3  1  0
  2  5  1  0
  3  6  2  0
  4  7  2  0
  4  8  1  0
  5 10  2  0
  6 10  1  0
  7 11  1  0
  8 17  2  0
  9 11  2  0
  9 17  1  0
 10 16  1  0
 11 18  1  0
 12 16  1  0
 12 18  1  0
 12 20  2  0
 13 19  1  0
 14 15  1  0
 14 16  1  0
 15 19  1  0
M  CHG  1  19   1
M  END
