AGN-NEW-c7b24fe3-5
     RDKit          3D

 19 20  0  0  0  0  0  0  0  0999 V2000
    7.9368    4.8069   21.7535 C   0  0  0  0  0  0  0  0  0  0  0  0
    8.7464    5.3113   22.4828 C   0  0  0  0  0  0  0  0  0  0  0  0
   13.8200   -1.2028   23.0236 C   0  0  0  0  0  0  0  0  0  0  0  0
   11.4184    7.1947   25.0476 C   0  0  0  0  0  0  0  0  0  0  0  0
   13.5898   -0.0278   22.3081 C   0  0  0  0  0  0  0  0  0  0  0  0
   11.8345    6.0297   24.4129 C   0  0  0  0  0  0  0  0  0  0  0  0
   13.3789   -1.3143   24.3422 C   0  0  0  0  0  0  0  0  0  0  0  0
   12.4775    0.9244   24.2298 C   0  0  0  0  0  0  0  0  0  0  0  0
   10.1382    7.6549   24.7845 C   0  0  0  0  0  0  0  0  0  0  0  0
    9.7097    5.9114   23.3511 C   0  0  0  0  0  0  0  0  0  0  0  0
   12.9186    1.0358   22.9112 C   0  0  0  0  0  0  0  0  0  0  0  0
   10.9698    5.3697   23.5468 C   0  0  0  0  0  0  0  0  0  0  0  0
   12.7077   -0.2506   24.9453 C   0  0  0  0  0  0  0  0  0  0  0  0
   12.6250    3.5471   23.0141 C   0  0  0  0  0  0  0  0  0  0  0  0
   12.6738    2.2924   22.1460 C   0  0  0  0  0  0  0  0  0  0  0  0
    9.2700    7.0410   23.9496 N   0  0  0  0  0  0  0  0  0  0  0  0
   11.3919    4.1841   22.8993 N   0  0  0  0  0  0  0  0  0  0  0  0
   13.5807    3.8964   23.6995 O   0  0  0  0  0  0  0  0  0  0  0  0
   12.1647   -0.3883   26.5726 Cl  0  0  0  0  0  0  0  0  0  0  0  0
  1  2  3  0
  2 10  1  0
  3  5  2  0
  3  7  1  0
  4  6  2  0
  4  9  1  0
  5 11  1  0
  6 12  1  0
  7 13  2  0
  8 11  2  0
  8 13  1  0
  9 16  2  0
 10 12  2  0
 10 16  1  0
 11 15  1  0
 12 17  1  0
 13 19  1  0
 14 15  1  0
 14 17  1  0
 14 18  2  0
M  END
