AGN-NEW-891393a6-5
     RDKit          3D

 21 22  0  0  0  0  0  0  0  0999 V2000
    5.7920    1.0301   18.9253 C   0  0  0  0  0  0  0  0  0  0  0  0
    6.1961    0.4463   20.1207 C   0  0  0  0  0  0  0  0  0  0  0  0
   10.8512   -2.3546   22.8927 C   0  0  0  0  0  0  0  0  0  0  0  0
   12.0691   -0.3928   23.6030 C   0  0  0  0  0  0  0  0  0  0  0  0
    9.6993   -0.5674   24.0399 C   0  0  0  0  0  0  0  0  0  0  0  0
    6.5972    0.8523   17.8119 C   0  0  0  0  0  0  0  0  0  0  0  0
    8.1107   -0.4062   18.9966 C   0  0  0  0  0  0  0  0  0  0  0  0
    7.3765   -0.2872   20.1656 C   0  0  0  0  0  0  0  0  0  0  0  0
   12.0470   -1.6424   22.9838 C   0  0  0  0  0  0  0  0  0  0  0  0
    9.6773   -1.8171   23.4207 C   0  0  0  0  0  0  0  0  0  0  0  0
   10.8952    0.1448   24.1311 C   0  0  0  0  0  0  0  0  0  0  0  0
    7.8321   -0.9175   21.4168 C   0  0  0  0  0  0  0  0  0  0  0  0
    7.5275   -2.1641   21.7984 C   0  0  0  0  0  0  0  0  0  0  0  0
   14.3753   -2.4596   23.4989 C   0  0  0  0  0  0  0  0  0  0  0  0
   13.8873   -1.3572   21.2849 C   0  0  0  0  0  0  0  0  0  0  0  0
   13.3022   -2.2182   22.4204 C   0  0  0  0  0  0  0  0  0  0  0  0
    7.7503    0.1466   17.8167 N   0  0  0  0  0  0  0  0  0  0  0  0
    8.4963   -4.1285   23.1884 O   0  0  0  0  0  0  0  0  0  0  0  0
    7.3144   -2.2646   24.3919 O   0  0  0  0  0  0  0  0  0  0  0  0
    8.1812   -2.7099   23.3077 S   0  0  0  0  0  0  0  0  0  0  0  0
   10.9229    1.6854   24.8973 Cl  0  0  0  0  0  0  0  0  0  0  0  0
  1  2  2  0
  1  6  1  0
  2  8  1  0
  3  9  2  0
  3 10  1  0
  4  9  1  0
  4 11  2  0
  5 10  2  0
  5 11  1  0
  6 17  2  0
  7  8  2  0
  7 17  1  0
  8 12  1  0
  9 16  1  0
 10 20  1  0
 11 21  1  0
 12 13  2  0
 13 20  1  0
 14 16  1  0
 15 16  1  0
 18 20  2  0
 19 20  2  0
M  END
