AGN-NEW-c7b24fe3-2
     RDKit          3D

 19 20  0  0  0  0  0  0  0  0999 V2000
   11.7855    0.5983   24.1622 C   0  0  0  0  0  0  0  0  0  0  0  0
    6.1826    0.6064   18.2547 C   0  0  0  0  0  0  0  0  0  0  0  0
   12.9330   -0.1002   23.7870 C   0  0  0  0  0  0  0  0  0  0  0  0
   10.5254    0.0944   23.8394 C   0  0  0  0  0  0  0  0  0  0  0  0
    6.9574    0.0270   19.2533 C   0  0  0  0  0  0  0  0  0  0  0  0
   11.5606   -1.8064   22.7660 C   0  0  0  0  0  0  0  0  0  0  0  0
    5.0166    1.2532   18.6316 C   0  0  0  0  0  0  0  0  0  0  0  0
   12.8206   -1.3025   23.0888 C   0  0  0  0  0  0  0  0  0  0  0  0
   10.4130   -1.1080   23.1413 C   0  0  0  0  0  0  0  0  0  0  0  0
    6.5484    0.1109   20.5796 C   0  0  0  0  0  0  0  0  0  0  0  0
    5.3662    0.7800   20.8525 C   0  0  0  0  0  0  0  0  0  0  0  0
    4.1146    1.9202   22.6269 C   0  0  0  0  0  0  0  0  0  0  0  0
    4.8679    0.9116   22.2158 C   0  0  0  0  0  0  0  0  0  0  0  0
    8.5365   -1.1712   21.4448 C   0  0  0  0  0  0  0  0  0  0  0  0
   14.0481   -2.0495   22.6892 C   0  0  0  0  0  0  0  0  0  0  0  0
    9.0657   -1.6463   22.7956 C   0  0  0  0  0  0  0  0  0  0  0  0
    4.5870    1.3553   19.9093 N   0  0  0  0  0  0  0  0  0  0  0  0
    7.3378   -0.4786   21.5956 N   0  0  0  0  0  0  0  0  0  0  0  0
    9.1344   -1.4024   20.3988 O   0  0  0  0  0  0  0  0  0  0  0  0
  1  3  2  0
  1  4  1  0
  2  5  2  0
  2  7  1  0
  3  8  1  0
  4  9  2  0
  5 10  1  0
  6  8  2  0
  6  9  1  0
  7 17  2  0
  8 15  1  0
  9 16  1  0
 10 11  2  0
 10 18  1  0
 11 13  1  0
 11 17  1  0
 12 13  2  0
 14 16  1  0
 14 18  1  0
 14 19  2  0
M  END
