AGN-NEW-891393a6-2
     RDKit          3D

 18 19  0  0  0  0  0  0  0  0999 V2000
    5.8383    0.9738   18.8618 C   0  0  0  0  0  0  0  0  0  0  0  0
    6.5124    0.5744   20.0104 C   0  0  0  0  0  0  0  0  0  0  0  0
   12.3833   -1.6167   22.1115 C   0  0  0  0  0  0  0  0  0  0  0  0
   14.2044   -0.9311   23.5434 C   0  0  0  0  0  0  0  0  0  0  0  0
   11.9624   -0.1439   23.9799 C   0  0  0  0  0  0  0  0  0  0  0  0
    6.4936    0.8463   17.6477 C   0  0  0  0  0  0  0  0  0  0  0  0
    8.3704   -0.0205   18.6501 C   0  0  0  0  0  0  0  0  0  0  0  0
    7.8031    0.0667   19.9112 C   0  0  0  0  0  0  0  0  0  0  0  0
   13.7377   -1.6506   22.4433 C   0  0  0  0  0  0  0  0  0  0  0  0
   11.4956   -0.8633   22.8798 C   0  0  0  0  0  0  0  0  0  0  0  0
   13.3168   -0.1778   24.3117 C   0  0  0  0  0  0  0  0  0  0  0  0
    9.8797   -0.3296   21.2687 C   0  0  0  0  0  0  0  0  0  0  0  0
    7.7468    0.3577   17.5118 N   0  0  0  0  0  0  0  0  0  0  0  0
    8.5136   -0.3473   21.0607 N   0  0  0  0  0  0  0  0  0  0  0  0
   10.7505    0.0498   20.4941 O   0  0  0  0  0  0  0  0  0  0  0  0
   14.6037   -2.3860   21.6937 O   0  0  0  0  0  0  0  0  0  0  0  0
   10.1739   -0.8308   22.5564 O   0  0  0  0  0  0  0  0  0  0  0  0
   13.8928    0.7084   25.6699 Cl  0  0  0  0  0  0  0  0  0  0  0  0
  1  2  2  0
  1  6  1  0
  2  8  1  0
  3  9  2  0
  3 10  1  0
  4  9  1  0
  4 11  2  0
  5 10  2  0
  5 11  1  0
  6 13  2  0
  7  8  2  0
  7 13  1  0
  8 14  1  0
  9 16  1  0
 10 17  1  0
 11 18  1  0
 12 14  1  0
 12 15  2  0
 12 17  1  0
M  END
