AGN-NEW-9315dc74-4
     RDKit          3D

 22 23  0  0  0  0  0  0  0  0999 V2000
    6.1648    1.6417   19.4457 C   0  0  0  0  0  0  0  0  0  0  0  0
    6.8265    1.3379   18.2668 C   0  0  0  0  0  0  0  0  0  0  0  0
    6.1806    0.6946   20.4635 C   0  0  0  0  0  0  0  0  0  0  0  0
    6.8480   -0.5104   20.2740 C   0  0  0  0  0  0  0  0  0  0  0  0
    7.4789   -0.7179   19.0580 C   0  0  0  0  0  0  0  0  0  0  0  0
    9.6587   -0.4519   24.0393 C   0  0  0  0  0  0  0  0  0  0  0  0
   11.8519    0.0669   24.4166 C   0  0  0  0  0  0  0  0  0  0  0  0
   14.0047   -2.1614   23.4552 C   0  0  0  0  0  0  0  0  0  0  0  0
   15.0745   -1.3058   24.1097 C   0  0  0  0  0  0  0  0  0  0  0  0
   13.1608   -1.1408   22.7042 C   0  0  0  0  0  0  0  0  0  0  0  0
   14.3275   -0.0549   24.5617 C   0  0  0  0  0  0  0  0  0  0  0  0
   13.1386    0.0853   23.6117 C   0  0  0  0  0  0  0  0  0  0  0  0
    5.4759    0.9947   21.7454 C   0  0  0  0  0  0  0  0  0  0  0  0
    8.4076   -0.4176   23.2191 C   0  0  0  0  0  0  0  0  0  0  0  0
    7.4854    0.1784   18.0459 N   0  0  0  0  0  0  0  0  0  0  0  0
   10.7333    0.1237   23.6139 N   0  0  0  0  0  0  0  0  0  0  0  0
    6.8903   -1.5189   21.2993 N   0  0  0  0  0  0  0  0  0  0  0  0
   11.8789    0.0035   25.6442 O   0  0  0  0  0  0  0  0  0  0  0  0
    8.2591   -2.9947   22.8963 O   0  0  0  0  0  0  0  0  0  0  0  0
    9.5019   -1.6355   21.1778 O   0  0  0  0  0  0  0  0  0  0  0  0
    8.1302   -1.8742   18.8508 F   0  0  0  0  0  0  0  0  0  0  0  0
    8.3885   -1.7796   22.1037 S   0  0  0  0  0  0  0  0  0  0  0  0
  1  2  2  0
  1  3  1  0
  2 15  1  0
  3  4  2  0
  3 13  1  0
  4  5  1  0
  4 17  1  0
  5 15  2  0
  5 21  1  0
  6 14  1  0
  6 16  2  0
  7 12  1  0
  7 16  1  0
  7 18  2  0
  8  9  1  0
  8 10  1  0
  9 11  1  0
 10 12  1  0
 11 12  1  0
 14 22  1  0
 17 22  1  0
 19 22  2  0
 20 22  2  0
M  END
