AGN-NEW-9d245c51-1
     RDKit          3D

 36 38  0  0  0  0  0  0  0  0999 V2000
   13.9931   -1.7614   23.5689 C   0  0  0  0  0  0  0  0  0  0  0  0
   12.0077   -0.6048   22.8581 C   0  0  0  0  0  0  0  0  0  0  0  0
   13.4395   -2.9199   23.0483 C   0  0  0  0  0  0  0  0  0  0  0  0
    5.9551    1.0579   18.0823 C   0  0  0  0  0  0  0  0  0  0  0  0
   13.2571   -0.5860   23.4679 C   0  0  0  0  0  0  0  0  0  0  0  0
    5.4712    1.0528   19.3806 C   0  0  0  0  0  0  0  0  0  0  0  0
    6.2683    0.4880   20.3701 C   0  0  0  0  0  0  0  0  0  0  0  0
    7.5074   -0.0469   20.0357 C   0  0  0  0  0  0  0  0  0  0  0  0
    7.9001    0.0073   18.7080 C   0  0  0  0  0  0  0  0  0  0  0  0
   11.5431   -1.8151   22.3691 C   0  0  0  0  0  0  0  0  0  0  0  0
    8.7596   -3.3014   23.0393 C   0  0  0  0  0  0  0  0  0  0  0  0
    7.0185   -4.1484   24.1741 C   0  0  0  0  0  0  0  0  0  0  0  0
    8.6144   -3.0025   25.2589 C   0  0  0  0  0  0  0  0  0  0  0  0
    9.3502   -1.7717   17.8433 C   0  0  0  0  0  0  0  0  0  0  0  0
    9.1831   -0.5302   18.2728 C   0  0  0  0  0  0  0  0  0  0  0  0
    7.2132    3.7285   21.8399 C   0  0  0  0  0  0  0  0  0  0  0  0
    9.7341   -0.6784   21.0505 C   0  0  0  0  0  0  0  0  0  0  0  0
   13.8060    0.6890   24.0117 C   0  0  0  0  0  0  0  0  0  0  0  0
    4.1358    1.6405   19.6802 C   0  0  0  0  0  0  0  0  0  0  0  0
    6.7249    5.0689   21.4004 C   0  0  0  0  0  0  0  0  0  0  0  0
    5.2114   -5.0111   25.4571 C   0  0  0  0  0  0  0  0  0  0  0  0
    5.7837    0.4607   21.7989 C   0  0  0  0  0  0  0  0  0  0  0  0
    9.4868   -3.0889   21.7431 C   0  0  0  0  0  0  0  0  0  0  0  0
    6.4582    1.5121   22.6767 C   0  0  0  0  0  0  0  0  0  0  0  0
    7.1533    0.5479   17.7192 N   0  0  0  0  0  0  0  0  0  0  0  0
   12.2291   -2.9773   22.4488 N   0  0  0  0  0  0  0  0  0  0  0  0
    7.6136   -3.9991   22.9799 N   0  0  0  0  0  0  0  0  0  0  0  0
    9.3200   -2.7738   24.1396 N   0  0  0  0  0  0  0  0  0  0  0  0
    7.4586   -3.6795   25.3528 N   0  0  0  0  0  0  0  0  0  0  0  0
    8.3245   -0.6182   21.0162 N   0  0  0  0  0  0  0  0  0  0  0  0
    6.2075    2.8601   22.2194 N   0  0  0  0  0  0  0  0  0  0  0  0
   10.2386   -1.8244   21.7345 N   0  0  0  0  0  0  0  0  0  0  0  0
    8.4156    3.4923   21.8358 O   0  0  0  0  0  0  0  0  0  0  0  0
   10.4591    0.1813   20.5474 O   0  0  0  0  0  0  0  0  0  0  0  0
    5.8386   -4.8548   24.1924 O   0  0  0  0  0  0  0  0  0  0  0  0
    9.1158   -2.5035   26.4009 F   0  0  0  0  0  0  0  0  0  0  0  0
  1  3  2  0
  1  5  1  0
  2  5  2  0
  2 10  1  0
  3 26  1  0
  4  6  2  0
  4 25  1  0
  5 18  1  0
  6  7  1  0
  6 19  1  0
  7  8  2  0
  7 22  1  0
  8  9  1  0
  8 30  1  0
  9 15  1  0
  9 25  2  0
 10 26  2  0
 10 32  1  0
 11 23  1  0
 11 27  1  0
 11 28  2  0
 12 27  2  0
 12 29  1  0
 12 35  1  0
 13 28  1  0
 13 29  2  0
 13 36  1  0
 14 15  2  0
 16 20  1  0
 16 31  1  0
 16 33  2  0
 17 30  1  0
 17 32  1  0
 17 34  2  0
 21 35  1  0
 22 24  1  0
 23 32  1  0
 24 31  1  0
M  END
