AGN-NEW-c7b24fe3-3
     RDKit          3D

 19 20  0  0  0  0  0  0  0  0999 V2000
    6.2755   -2.3899   21.6353 C   0  0  0  0  0  0  0  0  0  0  0  0
   13.0178    0.1076   24.4948 C   0  0  0  0  0  0  0  0  0  0  0  0
    7.4365   -6.3393   22.1996 C   0  0  0  0  0  0  0  0  0  0  0  0
   13.9579   -0.9177   24.3921 C   0  0  0  0  0  0  0  0  0  0  0  0
   11.6740   -0.1974   24.7116 C   0  0  0  0  0  0  0  0  0  0  0  0
    8.0842   -5.3569   22.9402 C   0  0  0  0  0  0  0  0  0  0  0  0
   12.2105   -2.5530   24.7228 C   0  0  0  0  0  0  0  0  0  0  0  0
    6.4437   -5.9394   21.3197 C   0  0  0  0  0  0  0  0  0  0  0  0
    6.7191   -3.7270   21.8743 C   0  0  0  0  0  0  0  0  0  0  0  0
   13.5543   -2.2480   24.5061 C   0  0  0  0  0  0  0  0  0  0  0  0
   11.2704   -1.5277   24.8255 C   0  0  0  0  0  0  0  0  0  0  0  0
    7.7246   -4.0233   22.7804 C   0  0  0  0  0  0  0  0  0  0  0  0
    9.3999   -3.1943   24.4688 C   0  0  0  0  0  0  0  0  0  0  0  0
   14.5603   -3.3436   24.3977 C   0  0  0  0  0  0  0  0  0  0  0  0
    9.8333   -1.8538   25.0566 C   0  0  0  0  0  0  0  0  0  0  0  0
    5.9152   -1.3039   21.4411 N   0  0  0  0  0  0  0  0  0  0  0  0
    6.0670   -4.6539   21.1373 N   0  0  0  0  0  0  0  0  0  0  0  0
    8.3823   -3.0220   23.5339 N   0  0  0  0  0  0  0  0  0  0  0  0
    9.9179   -4.2505   24.8170 O   0  0  0  0  0  0  0  0  0  0  0  0
  1  9  1  0
  1 16  3  0
  2  4  2  0
  2  5  1  0
  3  6  2  0
  3  8  1  0
  4 10  1  0
  5 11  2  0
  6 12  1  0
  7 10  2  0
  7 11  1  0
  8 17  2  0
  9 12  2  0
  9 17  1  0
 10 14  1  0
 11 15  1  0
 12 18  1  0
 13 15  1  0
 13 18  1  0
 13 19  2  0
M  END
