AGN-NEW-c197b967-2
     RDKit          3D

 36 39  0  0  0  0  0  0  0  0999 V2000
   12.4259   -2.8460   21.2851 C   0  0  0  0  0  0  0  0  0  0  0  0
   12.2917   -1.8573   21.9531 C   0  0  0  0  0  0  0  0  0  0  0  0
   12.9909    1.2147   23.8946 C   0  0  0  0  0  0  0  0  0  0  0  0
   13.2243    0.0847   23.1188 C   0  0  0  0  0  0  0  0  0  0  0  0
   11.6913    1.5377   24.2691 C   0  0  0  0  0  0  0  0  0  0  0  0
    5.6601    1.4616   19.0628 C   0  0  0  0  0  0  0  0  0  0  0  0
    8.2296   -3.1215   26.9454 C   0  0  0  0  0  0  0  0  0  0  0  0
    7.4086   -2.2007   24.8762 C   0  0  0  0  0  0  0  0  0  0  0  0
    6.3635    0.9444   17.9869 C   0  0  0  0  0  0  0  0  0  0  0  0
    9.1088   -2.0518   27.0369 C   0  0  0  0  0  0  0  0  0  0  0  0
   12.1328   -0.6832   22.7466 C   0  0  0  0  0  0  0  0  0  0  0  0
    6.2137    1.3210   20.3305 C   0  0  0  0  0  0  0  0  0  0  0  0
    7.3722   -3.1926   25.8517 C   0  0  0  0  0  0  0  0  0  0  0  0
    7.4365    0.6766   20.4814 C   0  0  0  0  0  0  0  0  0  0  0  0
   10.6684    0.7049   23.8452 C   0  0  0  0  0  0  0  0  0  0  0  0
    8.0603    0.1943   19.3421 C   0  0  0  0  0  0  0  0  0  0  0  0
    8.3085   -1.1543   25.0201 C   0  0  0  0  0  0  0  0  0  0  0  0
    7.4910   -0.1523   22.8682 C   0  0  0  0  0  0  0  0  0  0  0  0
    6.8833    3.8311   22.1568 C   0  0  0  0  0  0  0  0  0  0  0  0
    4.4136    3.9474   22.4179 C   0  0  0  0  0  0  0  0  0  0  0  0
    6.8918    5.3503   22.1709 C   0  0  0  0  0  0  0  0  0  0  0  0
    4.5496    5.4606   22.4191 C   0  0  0  0  0  0  0  0  0  0  0  0
    9.3765   -0.5073   19.4373 C   0  0  0  0  0  0  0  0  0  0  0  0
    6.4258   -5.3073   26.7419 C   0  0  0  0  0  0  0  0  0  0  0  0
    5.5626   -4.3441   24.6028 C   0  0  0  0  0  0  0  0  0  0  0  0
    5.4717    1.8726   21.5121 C   0  0  0  0  0  0  0  0  0  0  0  0
    9.2535    1.0213   24.2350 C   0  0  0  0  0  0  0  0  0  0  0  0
    7.5536    0.3121   18.0943 N   0  0  0  0  0  0  0  0  0  0  0  0
   10.8563   -0.4013   23.0910 N   0  0  0  0  0  0  0  0  0  0  0  0
    9.1229   -1.1104   26.0834 N   0  0  0  0  0  0  0  0  0  0  0  0
    8.0154    0.5214   21.7432 N   0  0  0  0  0  0  0  0  0  0  0  0
    6.4693   -4.2689   25.7314 N   0  0  0  0  0  0  0  0  0  0  0  0
    8.3514   -0.1180   24.0059 N   0  0  0  0  0  0  0  0  0  0  0  0
    5.5526    3.3689   21.6115 N   0  0  0  0  0  0  0  0  0  0  0  0
    6.3994   -0.7235   22.8640 O   0  0  0  0  0  0  0  0  0  0  0  0
    5.8123    5.8499   22.9616 O   0  0  0  0  0  0  0  0  0  0  0  0
  1  2  3  0
  2 11  1  0
  3  4  2  0
  3  5  1  0
  4 11  1  0
  5 15  2  0
  6  9  2  0
  6 12  1  0
  7 10  2  0
  7 13  1  0
  8 13  2  0
  8 17  1  0
  9 28  1  0
 10 30  1  0
 11 29  2  0
 12 14  2  0
 12 26  1  0
 13 32  1  0
 14 16  1  0
 14 31  1  0
 15 27  1  0
 15 29  1  0
 16 23  1  0
 16 28  2  0
 17 30  2  0
 17 33  1  0
 18 31  1  0
 18 33  1  0
 18 35  2  0
 19 21  1  0
 19 34  1  0
 20 22  1  0
 20 34  1  0
 21 36  1  0
 22 36  1  0
 24 32  1  0
 25 32  1  0
 26 34  1  0
 27 33  1  0
M  CHG  2  30   1  34   1
M  END
