AGN-NEW-817c14da-4
     RDKit          3D

 29 31  0  0  0  0  0  0  0  0999 V2000
    6.2126   -6.3137   21.8518 C   0  0  0  0  0  0  0  0  0  0  0  0
    6.8236   -5.6839   22.6715 C   0  0  0  0  0  0  0  0  0  0  0  0
    9.3400   -4.6653   25.1865 C   0  0  0  0  0  0  0  0  0  0  0  0
    4.8489    0.9194   19.1692 C   0  0  0  0  0  0  0  0  0  0  0  0
    8.6864   -5.4526   24.2451 C   0  0  0  0  0  0  0  0  0  0  0  0
    5.3729    0.6585   20.4305 C   0  0  0  0  0  0  0  0  0  0  0  0
    8.8438   -3.4035   25.4944 C   0  0  0  0  0  0  0  0  0  0  0  0
   10.9715    1.4561   24.2629 C   0  0  0  0  0  0  0  0  0  0  0  0
    5.6596    0.6882   18.0696 C   0  0  0  0  0  0  0  0  0  0  0  0
   10.8353    0.2088   24.8374 C   0  0  0  0  0  0  0  0  0  0  0  0
    7.5495   -4.9362   23.6447 C   0  0  0  0  0  0  0  0  0  0  0  0
    6.6731    0.1810   20.5518 C   0  0  0  0  0  0  0  0  0  0  0  0
    7.6999   -2.9787   24.8380 C   0  0  0  0  0  0  0  0  0  0  0  0
    9.8474    1.9489   23.6323 C   0  0  0  0  0  0  0  0  0  0  0  0
    7.4020   -0.0174   19.3903 C   0  0  0  0  0  0  0  0  0  0  0  0
    8.6692    0.0781   24.1606 C   0  0  0  0  0  0  0  0  0  0  0  0
    6.5272   -0.4944   22.9827 C   0  0  0  0  0  0  0  0  0  0  0  0
    8.8056   -0.5270   19.4555 C   0  0  0  0  0  0  0  0  0  0  0  0
    8.9138    4.2903   23.6212 C   0  0  0  0  0  0  0  0  0  0  0  0
    9.6547    3.2184   21.4631 C   0  0  0  0  0  0  0  0  0  0  0  0
    7.1375   -1.6315   25.1475 C   0  0  0  0  0  0  0  0  0  0  0  0
    9.8966    3.2910   22.9825 C   0  0  0  0  0  0  0  0  0  0  0  0
    6.9272    0.2248   18.1479 N   0  0  0  0  0  0  0  0  0  0  0  0
    9.6945   -0.5108   24.8050 N   0  0  0  0  0  0  0  0  0  0  0  0
    7.0375   -3.7152   23.9179 N   0  0  0  0  0  0  0  0  0  0  0  0
    8.6753    1.2843   23.5617 N   0  0  0  0  0  0  0  0  0  0  0  0
    7.2146   -0.0873   21.8324 N   0  0  0  0  0  0  0  0  0  0  0  0
    7.4121   -0.6724   24.1082 N   0  0  0  0  0  0  0  0  0  0  0  0
    5.3098   -0.6787   23.0243 O   0  0  0  0  0  0  0  0  0  0  0  0
  1  2  3  0
  2 11  1  0
  3  5  2  0
  3  7  1  0
  4  6  2  0
  4  9  1  0
  5 11  1  0
  6 12  1  0
  7 13  2  0
  8 10  2  0
  8 14  1  0
  9 23  2  0
 10 24  1  0
 11 25  2  0
 12 15  2  0
 12 27  1  0
 13 21  1  0
 13 25  1  0
 14 22  1  0
 14 26  2  0
 15 18  1  0
 15 23  1  0
 16 24  2  0
 16 26  1  0
 16 28  1  0
 17 27  1  0
 17 28  1  0
 17 29  2  0
 19 22  1  0
 20 22  1  0
 21 28  1  0
M  END
