AGN-NEW-c7b24fe3-6
     RDKit          3D

 19 20  0  0  0  0  0  0  0  0999 V2000
    7.7256    5.1934   21.6675 C   0  0  0  0  0  0  0  0  0  0  0  0
    8.5108    5.6869   22.4302 C   0  0  0  0  0  0  0  0  0  0  0  0
   12.5710    0.1278   24.7298 C   0  0  0  0  0  0  0  0  0  0  0  0
   11.0959    7.5281   25.1120 C   0  0  0  0  0  0  0  0  0  0  0  0
   13.2765   -0.8946   24.0953 C   0  0  0  0  0  0  0  0  0  0  0  0
   12.3233    1.3251   24.0583 C   0  0  0  0  0  0  0  0  0  0  0  0
   11.5504    6.4005   24.4374 C   0  0  0  0  0  0  0  0  0  0  0  0
   13.4867    0.4776   22.1179 C   0  0  0  0  0  0  0  0  0  0  0  0
    9.8088    7.9674   24.8471 C   0  0  0  0  0  0  0  0  0  0  0  0
    9.4456    6.2742   23.3375 C   0  0  0  0  0  0  0  0  0  0  0  0
   13.7343   -0.7197   22.7894 C   0  0  0  0  0  0  0  0  0  0  0  0
   12.7812    1.5000   22.7524 C   0  0  0  0  0  0  0  0  0  0  0  0
   10.7157    5.7556   23.5314 C   0  0  0  0  0  0  0  0  0  0  0  0
   12.4237    3.9971   22.9521 C   0  0  0  0  0  0  0  0  0  0  0  0
   14.4873   -1.8139   22.1112 C   0  0  0  0  0  0  0  0  0  0  0  0
   12.5168    2.7806   22.0347 C   0  0  0  0  0  0  0  0  0  0  0  0
    8.9689    7.3674   23.9741 N   0  0  0  0  0  0  0  0  0  0  0  0
   11.1770    4.6082   22.8434 N   0  0  0  0  0  0  0  0  0  0  0  0
   13.3599    4.3412   23.6665 O   0  0  0  0  0  0  0  0  0  0  0  0
  1  2  3  0
  2 10  1  0
  3  5  2  0
  3  6  1  0
  4  7  2  0
  4  9  1  0
  5 11  1  0
  6 12  2  0
  7 13  1  0
  8 11  2  0
  8 12  1  0
  9 17  2  0
 10 13  2  0
 10 17  1  0
 11 15  1  0
 12 16  1  0
 13 18  1  0
 14 16  1  0
 14 18  1  0
 14 19  2  0
M  END
