AGN-NEW-891393a6-7
     RDKit          3D

 25 27  0  0  0  0  0  0  0  0999 V2000
   10.3953   -2.5518   23.1698 C   0  0  0  0  0  0  0  0  0  0  0  0
    5.2529    1.3973   19.2644 C   0  0  0  0  0  0  0  0  0  0  0  0
    9.5018   -3.3502   23.8837 C   0  0  0  0  0  0  0  0  0  0  0  0
    6.1910   -3.5308   25.0834 C   0  0  0  0  0  0  0  0  0  0  0  0
    6.0064    1.3138   20.4301 C   0  0  0  0  0  0  0  0  0  0  0  0
    5.2949   -4.3289   25.7945 C   0  0  0  0  0  0  0  0  0  0  0  0
   10.2679   -1.1631   23.2006 C   0  0  0  0  0  0  0  0  0  0  0  0
    8.3533   -1.3711   24.6593 C   0  0  0  0  0  0  0  0  0  0  0  0
    7.1268   -5.2429   27.0773 C   0  0  0  0  0  0  0  0  0  0  0  0
    5.8044    0.8919   18.0982 C   0  0  0  0  0  0  0  0  0  0  0  0
    7.7314    0.2595   19.1774 C   0  0  0  0  0  0  0  0  0  0  0  0
    8.4807   -2.7598   24.6284 C   0  0  0  0  0  0  0  0  0  0  0  0
    7.5551   -3.5889   25.3692 C   0  0  0  0  0  0  0  0  0  0  0  0
    7.2703    0.7355   20.3943 C   0  0  0  0  0  0  0  0  0  0  0  0
    5.7627   -5.1849   26.7915 C   0  0  0  0  0  0  0  0  0  0  0  0
    8.0229   -4.4449   26.3662 C   0  0  0  0  0  0  0  0  0  0  0  0
    9.2469   -0.5727   23.9453 C   0  0  0  0  0  0  0  0  0  0  0  0
    8.0934    0.6325   21.6118 C   0  0  0  0  0  0  0  0  0  0  0  0
    8.0366    1.4813   22.6455 C   0  0  0  0  0  0  0  0  0  0  0  0
    7.0285    0.3231   18.0243 N   0  0  0  0  0  0  0  0  0  0  0  0
    8.3989    1.5400   25.2135 O   0  0  0  0  0  0  0  0  0  0  0  0
   10.4011    1.7375   23.7063 O   0  0  0  0  0  0  0  0  0  0  0  0
    4.9017   -5.9501   27.4749 F   0  0  0  0  0  0  0  0  0  0  0  0
    9.3315   -4.5128   26.6523 F   0  0  0  0  0  0  0  0  0  0  0  0
    9.0895    1.1658   23.9852 S   0  0  0  0  0  0  0  0  0  0  0  0
  1  3  2  0
  1  7  1  0
  2  5  2  0
  2 10  1  0
  3 12  1  0
  4  6  2  0
  4 13  1  0
  5 14  1  0
  6 15  1  0
  7 17  2  0
  8 12  2  0
  8 17  1  0
  9 15  2  0
  9 16  1  0
 10 20  2  0
 11 14  2  0
 11 20  1  0
 12 13  1  0
 13 16  2  0
 14 18  1  0
 15 23  1  0
 16 24  1  0
 17 25  1  0
 18 19  2  0
 19 25  1  0
 21 25  2  0
 22 25  2  0
M  END
