AGN-NEW-817c14da-5
     RDKit          3D

 30 32  0  0  0  0  0  0  0  0999 V2000
   12.5946    3.0029   22.1989 C   0  0  0  0  0  0  0  0  0  0  0  0
   12.5234    1.8090   22.3055 C   0  0  0  0  0  0  0  0  0  0  0  0
    5.5628    0.9570   18.9353 C   0  0  0  0  0  0  0  0  0  0  0  0
    6.3278    0.6333   20.0503 C   0  0  0  0  0  0  0  0  0  0  0  0
    8.1448   -1.1344   27.2695 C   0  0  0  0  0  0  0  0  0  0  0  0
   13.5798   -0.3899   22.5269 C   0  0  0  0  0  0  0  0  0  0  0  0
   12.1394   -2.3107   22.6687 C   0  0  0  0  0  0  0  0  0  0  0  0
    6.1446    0.8144   17.6859 C   0  0  0  0  0  0  0  0  0  0  0  0
    8.9768   -2.0320   26.6320 C   0  0  0  0  0  0  0  0  0  0  0  0
   12.4392    0.3911   22.4324 C   0  0  0  0  0  0  0  0  0  0  0  0
    7.6328    0.1831   19.8842 C   0  0  0  0  0  0  0  0  0  0  0  0
   13.4184   -1.7657   22.6471 C   0  0  0  0  0  0  0  0  0  0  0  0
    7.5211   -0.2142   26.4520 C   0  0  0  0  0  0  0  0  0  0  0  0
   11.0633   -1.4437   22.5680 C   0  0  0  0  0  0  0  0  0  0  0  0
    8.1219    0.0749   18.5923 C   0  0  0  0  0  0  0  0  0  0  0  0
    8.5250   -1.0932   24.6117 C   0  0  0  0  0  0  0  0  0  0  0  0
    8.0466   -0.0847   22.3628 C   0  0  0  0  0  0  0  0  0  0  0  0
    9.5176   -0.4012   18.3491 C   0  0  0  0  0  0  0  0  0  0  0  0
    5.1569    0.6565   26.5321 C   0  0  0  0  0  0  0  0  0  0  0  0
    7.0945    2.2402   26.8368 C   0  0  0  0  0  0  0  0  0  0  0  0
    9.6763   -1.9942   22.5855 C   0  0  0  0  0  0  0  0  0  0  0  0
    6.6009    0.7968   27.0495 C   0  0  0  0  0  0  0  0  0  0  0  0
    7.4089    0.3801   17.4850 N   0  0  0  0  0  0  0  0  0  0  0  0
    9.1908   -2.0401   25.2999 N   0  0  0  0  0  0  0  0  0  0  0  0
   11.1806   -0.1021   22.4499 N   0  0  0  0  0  0  0  0  0  0  0  0
    7.6891   -0.1645   25.1142 N   0  0  0  0  0  0  0  0  0  0  0  0
    8.4188   -0.1488   21.0142 N   0  0  0  0  0  0  0  0  0  0  0  0
    8.7297   -1.0734   23.1612 N   0  0  0  0  0  0  0  0  0  0  0  0
    7.2305    0.7221   22.8109 O   0  0  0  0  0  0  0  0  0  0  0  0
   14.4905   -2.5626   22.7432 F   0  0  0  0  0  0  0  0  0  0  0  0
  1  2  3  0
  2 10  1  0
  3  4  2  0
  3  8  1  0
  4 11  1  0
  5  9  2  0
  5 13  1  0
  6 10  2  0
  6 12  1  0
  7 12  2  0
  7 14  1  0
  8 23  2  0
  9 24  1  0
 10 25  1  0
 11 15  2  0
 11 27  1  0
 12 30  1  0
 13 22  1  0
 13 26  2  0
 14 21  1  0
 14 25  2  0
 15 18  1  0
 15 23  1  0
 16 24  2  0
 16 26  1  0
 16 28  1  0
 17 27  1  0
 17 28  1  0
 17 29  2  0
 19 22  1  0
 20 22  1  0
 21 28  1  0
M  END
