AGN-NEW-9d245c51-5
     RDKit          3D

 41 44  0  0  0  0  0  0  0  0999 V2000
    6.2978    1.5585   18.1989 C   0  0  0  0  0  0  0  0  0  0  0  0
    6.3768    0.2501   20.2154 C   0  0  0  0  0  0  0  0  0  0  0  0
    7.5565    1.0660   17.8941 C   0  0  0  0  0  0  0  0  0  0  0  0
    7.1267   -5.0518   25.6176 C   0  0  0  0  0  0  0  0  0  0  0  0
   10.9094    2.1369   21.7433 C   0  0  0  0  0  0  0  0  0  0  0  0
    5.7037    1.1379   19.3835 C   0  0  0  0  0  0  0  0  0  0  0  0
    7.4088   -3.7483   25.9933 C   0  0  0  0  0  0  0  0  0  0  0  0
    7.8129   -2.8588   25.0039 C   0  0  0  0  0  0  0  0  0  0  0  0
    7.9211   -3.2939   23.6877 C   0  0  0  0  0  0  0  0  0  0  0  0
    7.6163   -4.6178   23.4153 C   0  0  0  0  0  0  0  0  0  0  0  0
    7.6319   -0.1841   19.8202 C   0  0  0  0  0  0  0  0  0  0  0  0
   10.4043   -0.0317   21.4624 C   0  0  0  0  0  0  0  0  0  0  0  0
   11.4766    0.6397   23.3161 C   0  0  0  0  0  0  0  0  0  0  0  0
    6.9182   -6.1172   21.6044 C   0  0  0  0  0  0  0  0  0  0  0  0
    7.7035   -5.1546   22.0631 C   0  0  0  0  0  0  0  0  0  0  0  0
    8.0085    1.7476   24.4046 C   0  0  0  0  0  0  0  0  0  0  0  0
    7.6150   -2.0321   21.5196 C   0  0  0  0  0  0  0  0  0  0  0  0
    8.9998    5.4145   24.3677 C   0  0  0  0  0  0  0  0  0  0  0  0
    6.8918    4.5201   23.3993 C   0  0  0  0  0  0  0  0  0  0  0  0
    9.0422    6.3934   23.2066 C   0  0  0  0  0  0  0  0  0  0  0  0
    7.0428    5.5456   22.2885 C   0  0  0  0  0  0  0  0  0  0  0  0
    4.3503    1.6371   19.7597 C   0  0  0  0  0  0  0  0  0  0  0  0
    7.2751   -3.3384   27.4189 C   0  0  0  0  0  0  0  0  0  0  0  0
   12.6109    1.4384   25.2477 C   0  0  0  0  0  0  0  0  0  0  0  0
    8.1298   -1.4284   25.3652 C   0  0  0  0  0  0  0  0  0  0  0  0
    9.7960   -1.1286   20.6372 C   0  0  0  0  0  0  0  0  0  0  0  0
    8.2219    3.1221   24.9872 C   0  0  0  0  0  0  0  0  0  0  0  0
    7.0232   -0.4546   24.9676 C   0  0  0  0  0  0  0  0  0  0  0  0
    7.2204   -5.5111   24.3496 N   0  0  0  0  0  0  0  0  0  0  0  0
    8.2413    0.2025   18.6770 N   0  0  0  0  0  0  0  0  0  0  0  0
   10.3457    1.2091   20.9527 N   0  0  0  0  0  0  0  0  0  0  0  0
   11.4922    1.9271   22.9347 N   0  0  0  0  0  0  0  0  0  0  0  0
   10.9523   -0.3914   22.6342 N   0  0  0  0  0  0  0  0  0  0  0  0
    8.3246   -2.4147   22.6780 N   0  0  0  0  0  0  0  0  0  0  0  0
    7.3463    0.9141   25.2934 N   0  0  0  0  0  0  0  0  0  0  0  0
    8.3261   -1.1102   20.6947 N   0  0  0  0  0  0  0  0  0  0  0  0
    8.2686    4.1726   23.9151 N   0  0  0  0  0  0  0  0  0  0  0  0
    8.3818    1.4270   23.2793 O   0  0  0  0  0  0  0  0  0  0  0  0
    6.4860   -2.4462   21.2517 O   0  0  0  0  0  0  0  0  0  0  0  0
    7.7198    6.7082   22.7684 O   0  0  0  0  0  0  0  0  0  0  0  0
   12.0567    0.3464   24.5281 O   0  0  0  0  0  0  0  0  0  0  0  0
  1  3  2  0
  1  6  1  0
  2  6  2  0
  2 11  1  0
  3 30  1  0
  4  7  2  0
  4 29  1  0
  5 31  2  0
  5 32  1  0
  6 22  1  0
  7  8  1  0
  7 23  1  0
  8  9  2  0
  8 25  1  0
  9 10  1  0
  9 34  1  0
 10 15  1  0
 10 29  2  0
 11 30  2  0
 11 36  1  0
 12 26  1  0
 12 31  1  0
 12 33  2  0
 13 32  2  0
 13 33  1  0
 13 41  1  0
 14 15  2  0
 16 27  1  0
 16 35  1  0
 16 38  2  0
 17 34  1  0
 17 36  1  0
 17 39  2  0
 18 20  1  0
 18 37  1  0
 19 21  1  0
 19 37  1  0
 20 40  1  0
 21 40  1  0
 24 41  1  0
 25 28  1  0
 26 36  1  0
 27 37  1  0
 28 35  1  0
M  CHG  1  37   1
M  END
