AGN-NEW-95323f67-6
     RDKit          3D

 22 23  0  0  0  0  0  0  0  0999 V2000
   14.7599   -1.3183   23.4979 C   0  0  0  0  0  0  0  0  0  0  0  0
   13.8768   -0.4489   24.2010 C   0  0  0  0  0  0  0  0  0  0  0  0
    6.1324    1.4884   18.8891 C   0  0  0  0  0  0  0  0  0  0  0  0
    6.8726    1.1023   17.7833 C   0  0  0  0  0  0  0  0  0  0  0  0
   14.0824   -2.1787   22.6622 C   0  0  0  0  0  0  0  0  0  0  0  0
    6.0312    0.5942   19.9490 C   0  0  0  0  0  0  0  0  0  0  0  0
    6.6643   -0.6414   19.8718 C   0  0  0  0  0  0  0  0  0  0  0  0
   12.5578   -0.6778   23.8757 C   0  0  0  0  0  0  0  0  0  0  0  0
    7.3805   -0.9322   18.7219 C   0  0  0  0  0  0  0  0  0  0  0  0
    9.1698   -0.4904   23.8438 C   0  0  0  0  0  0  0  0  0  0  0  0
   11.3359    0.0105   24.3842 C   0  0  0  0  0  0  0  0  0  0  0  0
    5.2398    0.9833   21.1541 C   0  0  0  0  0  0  0  0  0  0  0  0
    7.9894   -0.4536   22.9251 C   0  0  0  0  0  0  0  0  0  0  0  0
    7.5015   -0.0892   17.6719 N   0  0  0  0  0  0  0  0  0  0  0  0
   10.2825    0.0651   23.4969 N   0  0  0  0  0  0  0  0  0  0  0  0
    6.5865   -1.5974   20.9441 N   0  0  0  0  0  0  0  0  0  0  0  0
   11.3462    0.4666   25.5244 O   0  0  0  0  0  0  0  0  0  0  0  0
    7.7670   -3.0370   22.7150 O   0  0  0  0  0  0  0  0  0  0  0  0
    9.1931   -1.8109   21.0393 O   0  0  0  0  0  0  0  0  0  0  0  0
    8.0008   -2.1195   18.6234 F   0  0  0  0  0  0  0  0  0  0  0  0
   12.3884   -1.9366   22.7273 S   0  0  0  0  0  0  0  0  0  0  0  0
    8.0055   -1.8689   21.8782 S   0  0  0  0  0  0  0  0  0  0  0  0
  1  2  1  0
  1  5  2  0
  2  8  2  0
  3  4  2  0
  3  6  1  0
  4 14  1  0
  5 21  1  0
  6  7  2  0
  6 12  1  0
  7  9  1  0
  7 16  1  0
  8 11  1  0
  8 21  1  0
  9 14  2  0
  9 20  1  0
 10 13  1  0
 10 15  2  0
 11 15  1  0
 11 17  2  0
 13 22  1  0
 16 22  1  0
 18 22  2  0
 19 22  2  0
M  END
