AGN-NEW-817c14da-1
     RDKit          3D

 36 39  0  0  0  0  0  0  0  0999 V2000
   10.7584    2.3001   21.5868 C   0  0  0  0  0  0  0  0  0  0  0  0
   10.2447    1.6616   22.4645 C   0  0  0  0  0  0  0  0  0  0  0  0
    9.5471    0.0778   25.7356 C   0  0  0  0  0  0  0  0  0  0  0  0
   10.1983    0.8387   24.7711 C   0  0  0  0  0  0  0  0  0  0  0  0
    8.3691   -0.5857   25.4110 C   0  0  0  0  0  0  0  0  0  0  0  0
    4.9538    1.8905   18.5744 C   0  0  0  0  0  0  0  0  0  0  0  0
    8.3357   -5.8458   23.5576 C   0  0  0  0  0  0  0  0  0  0  0  0
    5.6858    1.5231   17.4568 C   0  0  0  0  0  0  0  0  0  0  0  0
    7.9627   -5.5030   22.2740 C   0  0  0  0  0  0  0  0  0  0  0  0
    9.6349    0.9035   23.5069 C   0  0  0  0  0  0  0  0  0  0  0  0
    5.2336    1.2487   19.7756 C   0  0  0  0  0  0  0  0  0  0  0  0
    6.2231    0.2728   19.8220 C   0  0  0  0  0  0  0  0  0  0  0  0
    7.8875   -0.4569   24.1182 C   0  0  0  0  0  0  0  0  0  0  0  0
    8.1756   -4.8594   24.5093 C   0  0  0  0  0  0  0  0  0  0  0  0
    6.8982   -0.0223   18.6486 C   0  0  0  0  0  0  0  0  0  0  0  0
    7.3617   -3.4180   22.9514 C   0  0  0  0  0  0  0  0  0  0  0  0
    6.4477   -1.7704   21.2921 C   0  0  0  0  0  0  0  0  0  0  0  0
    6.1624    2.8491   22.3564 C   0  0  0  0  0  0  0  0  0  0  0  0
    3.7845    3.5724   22.4206 C   0  0  0  0  0  0  0  0  0  0  0  0
    6.5309    4.2368   22.8529 C   0  0  0  0  0  0  0  0  0  0  0  0
    4.2758    4.9227   22.9144 C   0  0  0  0  0  0  0  0  0  0  0  0
    7.9727   -1.0609   18.6324 C   0  0  0  0  0  0  0  0  0  0  0  0
    7.3458   -5.0429   26.8824 C   0  0  0  0  0  0  0  0  0  0  0  0
    9.6850   -4.2220   26.4249 C   0  0  0  0  0  0  0  0  0  0  0  0
    4.4548    1.6286   21.0004 C   0  0  0  0  0  0  0  0  0  0  0  0
    6.6202   -1.1634   23.7321 C   0  0  0  0  0  0  0  0  0  0  0  0
    8.5500   -5.1363   25.9266 C   0  0  0  0  0  0  0  0  0  0  0  0
    6.6543    0.5799   17.4630 N   0  0  0  0  0  0  0  0  0  0  0  0
    7.4701   -4.2938   21.9341 N   0  0  0  0  0  0  0  0  0  0  0  0
    8.4922    0.2730   23.1544 N   0  0  0  0  0  0  0  0  0  0  0  0
    7.6899   -3.6298   24.2402 N   0  0  0  0  0  0  0  0  0  0  0  0
    6.5246   -0.3877   21.0153 N   0  0  0  0  0  0  0  0  0  0  0  0
    6.8320   -2.1078   22.6241 N   0  0  0  0  0  0  0  0  0  0  0  0
    4.8726    2.9509   21.5767 N   0  0  0  0  0  0  0  0  0  0  0  0
    6.0925   -2.6062   20.4595 O   0  0  0  0  0  0  0  0  0  0  0  0
    5.4836    4.7737   23.6623 O   0  0  0  0  0  0  0  0  0  0  0  0
  1  2  3  0
  2 10  1  0
  3  4  2  0
  3  5  1  0
  4 10  1  0
  5 13  2  0
  6  8  2  0
  6 11  1  0
  7  9  2  0
  7 14  1  0
  8 28  1  0
  9 29  1  0
 10 30  2  0
 11 12  2  0
 11 25  1  0
 12 15  1  0
 12 32  1  0
 13 26  1  0
 13 30  1  0
 14 27  1  0
 14 31  2  0
 15 22  1  0
 15 28  2  0
 16 29  2  0
 16 31  1  0
 16 33  1  0
 17 32  1  0
 17 33  1  0
 17 35  2  0
 18 20  1  0
 18 34  1  0
 19 21  1  0
 19 34  1  0
 20 36  1  0
 21 36  1  0
 23 27  1  0
 24 27  1  0
 25 34  1  0
 26 33  1  0
M  CHG  1  34   1
M  END
