AGN-NEW-891393a6-3
     RDKit          3D

 19 20  0  0  0  0  0  0  0  0999 V2000
    5.6525    1.0869   18.9724 C   0  0  0  0  0  0  0  0  0  0  0  0
    6.0228    0.5701   20.2090 C   0  0  0  0  0  0  0  0  0  0  0  0
   12.2152   -1.6378   21.9516 C   0  0  0  0  0  0  0  0  0  0  0  0
   11.6811   -0.6004   24.0671 C   0  0  0  0  0  0  0  0  0  0  0  0
   13.9662   -0.6389   23.2834 C   0  0  0  0  0  0  0  0  0  0  0  0
    6.4406    0.7742   17.8765 C   0  0  0  0  0  0  0  0  0  0  0  0
    7.8747   -0.4859   19.1546 C   0  0  0  0  0  0  0  0  0  0  0  0
   11.2755   -1.2792   22.9181 C   0  0  0  0  0  0  0  0  0  0  0  0
    7.1539   -0.2321   20.3104 C   0  0  0  0  0  0  0  0  0  0  0  0
   13.5605   -1.3177   22.1343 C   0  0  0  0  0  0  0  0  0  0  0  0
   13.0265   -0.2802   24.2498 C   0  0  0  0  0  0  0  0  0  0  0  0
    9.8376   -1.6225   22.7222 C   0  0  0  0  0  0  0  0  0  0  0  0
    7.5461   -0.0016   17.9360 N   0  0  0  0  0  0  0  0  0  0  0  0
    7.5613   -0.7831   21.5755 N   0  0  0  0  0  0  0  0  0  0  0  0
    9.7447    0.5380   21.2761 O   0  0  0  0  0  0  0  0  0  0  0  0
    8.6468    0.5583   23.5431 O   0  0  0  0  0  0  0  0  0  0  0  0
   14.4777   -1.6676   21.1915 O   0  0  0  0  0  0  0  0  0  0  0  0
    8.9766   -0.1392   22.3105 S   0  0  0  0  0  0  0  0  0  0  0  0
   13.5270    0.5583   25.6668 Cl  0  0  0  0  0  0  0  0  0  0  0  0
  1  2  2  0
  1  6  1  0
  2  9  1  0
  3  8  2  0
  3 10  1  0
  4  8  1  0
  4 11  2  0
  5 10  2  0
  5 11  1  0
  6 13  2  0
  7  9  2  0
  7 13  1  0
  8 12  1  0
  9 14  1  0
 10 17  1  0
 11 19  1  0
 12 18  1  0
 14 18  1  0
 15 18  2  0
 16 18  2  0
M  END
