AGN-NEW-c7b24fe3-1
     RDKit          3D

 19 20  0  0  0  0  0  0  0  0999 V2000
   11.1366   -2.1455   22.7014 C   0  0  0  0  0  0  0  0  0  0  0  0
   12.1305    6.5667   25.2812 C   0  0  0  0  0  0  0  0  0  0  0  0
   11.5985   -0.9327   22.1902 C   0  0  0  0  0  0  0  0  0  0  0  0
   12.2088    5.3930   24.5399 C   0  0  0  0  0  0  0  0  0  0  0  0
   10.3404   -2.1616   23.8466 C   0  0  0  0  0  0  0  0  0  0  0  0
   10.4682    0.2479   23.9694 C   0  0  0  0  0  0  0  0  0  0  0  0
   10.9267    7.2528   25.2843 C   0  0  0  0  0  0  0  0  0  0  0  0
   11.2643    0.2640   22.8242 C   0  0  0  0  0  0  0  0  0  0  0  0
   11.0966    4.9475   23.8343 C   0  0  0  0  0  0  0  0  0  0  0  0
   10.0062   -0.9650   24.4806 C   0  0  0  0  0  0  0  0  0  0  0  0
    9.9390    5.7059   23.9023 C   0  0  0  0  0  0  0  0  0  0  0  0
    8.0816    4.1775   23.4238 C   0  0  0  0  0  0  0  0  0  0  0  0
    8.7304    5.3083   23.1914 C   0  0  0  0  0  0  0  0  0  0  0  0
   11.9723    2.6386   23.3371 C   0  0  0  0  0  0  0  0  0  0  0  0
   11.7596    1.5603   22.2776 C   0  0  0  0  0  0  0  0  0  0  0  0
    9.8250    6.8512   24.6115 N   0  0  0  0  0  0  0  0  0  0  0  0
   11.1767    3.7524   23.0804 N   0  0  0  0  0  0  0  0  0  0  0  0
   12.7570    2.4847   24.2675 O   0  0  0  0  0  0  0  0  0  0  0  0
    9.0248   -0.9856   25.8942 Cl  0  0  0  0  0  0  0  0  0  0  0  0
  1  3  2  0
  1  5  1  0
  2  4  2  0
  2  7  1  0
  3  8  1  0
  4  9  1  0
  5 10  2  0
  6  8  2  0
  6 10  1  0
  7 16  2  0
  8 15  1  0
  9 11  2  0
  9 17  1  0
 10 19  1  0
 11 13  1  0
 11 16  1  0
 12 13  2  0
 14 15  1  0
 14 17  1  0
 14 18  2  0
M  END
