AGN-NEW-fad6815c-1
     RDKit          3D

 36 39  0  0  0  0  0  0  0  0999 V2000
    8.3680    4.1527   25.9971 C   0  0  0  0  0  0  0  0  0  0  0  0
    8.5057    3.0107   25.6526 C   0  0  0  0  0  0  0  0  0  0  0  0
    9.9112    1.0525   25.2350 C   0  0  0  0  0  0  0  0  0  0  0  0
    5.1458    1.6959   18.6048 C   0  0  0  0  0  0  0  0  0  0  0  0
    8.1218   -5.6668   24.3540 C   0  0  0  0  0  0  0  0  0  0  0  0
    9.9338   -0.2628   24.8178 C   0  0  0  0  0  0  0  0  0  0  0  0
    5.9471    1.2447   17.5684 C   0  0  0  0  0  0  0  0  0  0  0  0
    7.8378   -5.4177   23.0267 C   0  0  0  0  0  0  0  0  0  0  0  0
    8.6697    1.6548   25.2434 C   0  0  0  0  0  0  0  0  0  0  0  0
    5.3397    1.1429   19.8657 C   0  0  0  0  0  0  0  0  0  0  0  0
    6.3153    0.1693   20.0491 C   0  0  0  0  0  0  0  0  0  0  0  0
    7.9076   -4.6127   25.2183 C   0  0  0  0  0  0  0  0  0  0  0  0
    7.0641   -0.2138   18.9480 C   0  0  0  0  0  0  0  0  0  0  0  0
    7.6847   -0.2497   24.4887 C   0  0  0  0  0  0  0  0  0  0  0  0
    7.2115   -3.2864   23.5085 C   0  0  0  0  0  0  0  0  0  0  0  0
    6.4240   -1.7615   21.6761 C   0  0  0  0  0  0  0  0  0  0  0  0
    6.3186    3.0235   21.9515 C   0  0  0  0  0  0  0  0  0  0  0  0
    3.9609    3.4550   22.6120 C   0  0  0  0  0  0  0  0  0  0  0  0
    6.6344    4.4424   22.3932 C   0  0  0  0  0  0  0  0  0  0  0  0
    4.3986    4.8515   23.0202 C   0  0  0  0  0  0  0  0  0  0  0  0
    8.1282   -1.2550   19.0795 C   0  0  0  0  0  0  0  0  0  0  0  0
    6.9207   -4.6182   27.5377 C   0  0  0  0  0  0  0  0  0  0  0  0
    9.2922   -3.8422   27.1788 C   0  0  0  0  0  0  0  0  0  0  0  0
    4.4847    1.6147   21.0047 C   0  0  0  0  0  0  0  0  0  0  0  0
    6.4396   -0.9776   24.0713 C   0  0  0  0  0  0  0  0  0  0  0  0
    8.1848   -4.7863   26.6739 C   0  0  0  0  0  0  0  0  0  0  0  0
    6.9047    0.3007   17.7080 N   0  0  0  0  0  0  0  0  0  0  0  0
    8.8354   -0.9471   24.4363 N   0  0  0  0  0  0  0  0  0  0  0  0
    7.3795   -4.2348   22.5674 N   0  0  0  0  0  0  0  0  0  0  0  0
    7.5313    1.0312   24.8751 N   0  0  0  0  0  0  0  0  0  0  0  0
    7.4516   -3.4042   24.8284 N   0  0  0  0  0  0  0  0  0  0  0  0
    6.5312   -0.4031   21.3049 N   0  0  0  0  0  0  0  0  0  0  0  0
    6.7162   -2.0016   23.0519 N   0  0  0  0  0  0  0  0  0  0  0  0
    4.8749    2.9741   21.5096 N   0  0  0  0  0  0  0  0  0  0  0  0
    6.1175   -2.6547   20.8849 O   0  0  0  0  0  0  0  0  0  0  0  0
    5.7609    4.8443   23.4494 O   0  0  0  0  0  0  0  0  0  0  0  0
  1  2  3  0
  2  9  1  0
  3  6  2  0
  3  9  1  0
  4  7  2  0
  4 10  1  0
  5  8  2  0
  5 12  1  0
  6 28  1  0
  7 27  1  0
  8 29  1  0
  9 30  2  0
 10 11  2  0
 10 24  1  0
 11 13  1  0
 11 32  1  0
 12 26  1  0
 12 31  2  0
 13 21  1  0
 13 27  2  0
 14 25  1  0
 14 28  2  0
 14 30  1  0
 15 29  2  0
 15 31  1  0
 15 33  1  0
 16 32  1  0
 16 33  1  0
 16 35  2  0
 17 19  1  0
 17 34  1  0
 18 20  1  0
 18 34  1  0
 19 36  1  0
 20 36  1  0
 22 26  1  0
 23 26  1  0
 24 34  1  0
 25 33  1  0
M  CHG  1  34   1
M  END
