AGN-NEW-051944a9-4
     RDKit          3D

 39 42  0  0  0  0  0  0  0  0999 V2000
   11.0325    0.0750   18.9833 C   0  0  0  0  0  0  0  0  0  0  0  0
    9.8811    0.2945   19.2439 C   0  0  0  0  0  0  0  0  0  0  0  0
   14.4080   -1.0430   24.3207 C   0  0  0  0  0  0  0  0  0  0  0  0
   12.6790   -0.4916   22.7425 C   0  0  0  0  0  0  0  0  0  0  0  0
   13.6291   -0.4482   25.3000 C   0  0  0  0  0  0  0  0  0  0  0  0
    6.3649    0.6092   18.7351 C   0  0  0  0  0  0  0  0  0  0  0  0
    8.5108    0.5561   19.5539 C   0  0  0  0  0  0  0  0  0  0  0  0
   13.9168   -1.0610   23.0201 C   0  0  0  0  0  0  0  0  0  0  0  0
    5.8506    1.0088   19.9580 C   0  0  0  0  0  0  0  0  0  0  0  0
    6.7399    1.1819   21.0128 C   0  0  0  0  0  0  0  0  0  0  0  0
    8.0971    0.9534   20.8151 C   0  0  0  0  0  0  0  0  0  0  0  0
   11.9773    0.0784   23.7925 C   0  0  0  0  0  0  0  0  0  0  0  0
    7.2165   -0.6970   24.5531 C   0  0  0  0  0  0  0  0  0  0  0  0
    9.8760    0.1613   22.4276 C   0  0  0  0  0  0  0  0  0  0  0  0
    7.3656   -2.9047   26.6767 C   0  0  0  0  0  0  0  0  0  0  0  0
    7.7842   -4.3449   24.7737 C   0  0  0  0  0  0  0  0  0  0  0  0
    6.5544   -3.9967   27.3639 C   0  0  0  0  0  0  0  0  0  0  0  0
    6.9834   -5.4735   25.4122 C   0  0  0  0  0  0  0  0  0  0  0  0
   12.0695    3.4032   24.1222 C   0  0  0  0  0  0  0  0  0  0  0  0
    9.7261    4.2188   24.2790 C   0  0  0  0  0  0  0  0  0  0  0  0
   12.4249    4.7406   23.4950 C   0  0  0  0  0  0  0  0  0  0  0  0
   10.2026    5.5143   23.6443 C   0  0  0  0  0  0  0  0  0  0  0  0
   14.7144   -1.6883   21.9280 C   0  0  0  0  0  0  0  0  0  0  0  0
    4.3871    1.2399   20.1111 C   0  0  0  0  0  0  0  0  0  0  0  0
    6.2265    1.6171   22.3633 C   0  0  0  0  0  0  0  0  0  0  0  0
    8.0436   -1.9571   24.5663 C   0  0  0  0  0  0  0  0  0  0  0  0
    5.5453    0.4884   23.1334 C   0  0  0  0  0  0  0  0  0  0  0  0
   10.1956    1.7652   24.3449 C   0  0  0  0  0  0  0  0  0  0  0  0
    7.6768    0.3775   18.5050 N   0  0  0  0  0  0  0  0  0  0  0  0
   12.4221    0.1150   25.0687 N   0  0  0  0  0  0  0  0  0  0  0  0
    7.2911   -3.0311   25.2136 N   0  0  0  0  0  0  0  0  0  0  0  0
    9.0096    1.1213   21.8612 N   0  0  0  0  0  0  0  0  0  0  0  0
    6.4386   -0.6142   23.4071 N   0  0  0  0  0  0  0  0  0  0  0  0
   10.6848    0.6706   23.4923 N   0  0  0  0  0  0  0  0  0  0  0  0
    7.0380   -5.3286   26.8962 N   0  0  0  0  0  0  0  0  0  0  0  0
   10.6239    3.0998   23.8058 N   0  0  0  0  0  0  0  0  0  0  0  0
    7.2410    0.1369   25.4544 O   0  0  0  0  0  0  0  0  0  0  0  0
    9.9312   -1.0075   22.0411 O   0  0  0  0  0  0  0  0  0  0  0  0
   11.5653    5.7692   23.9882 O   0  0  0  0  0  0  0  0  0  0  0  0
  1  2  3  0
  2  7  1  0
  3  5  2  0
  3  8  1  0
  4  8  2  0
  4 12  1  0
  5 30  1  0
  6  9  2  0
  6 29  1  0
  7 11  1  0
  7 29  2  0
  8 23  1  0
  9 10  1  0
  9 24  1  0
 10 11  2  0
 10 25  1  0
 11 32  1  0
 12 30  2  0
 12 34  1  0
 13 26  1  0
 13 33  1  0
 13 37  2  0
 14 32  1  0
 14 34  1  0
 14 38  2  0
 15 17  1  0
 15 31  1  0
 16 18  1  0
 16 31  1  0
 17 35  1  0
 18 35  1  0
 19 21  1  0
 19 36  1  0
 20 22  1  0
 20 36  1  0
 21 39  1  0
 22 39  1  0
 25 27  1  0
 26 31  1  0
 27 33  1  0
 28 34  1  0
 28 36  1  0
M  CHG  2  35   1  36   1
M  END
