AGN-NEW-051944a9-1
     RDKit          3D

 33 35  0  0  0  0  0  0  0  0999 V2000
    6.3006   -0.4657   19.3127 C   0  0  0  0  0  0  0  0  0  0  0  0
    5.1556    1.3388   20.4160 C   0  0  0  0  0  0  0  0  0  0  0  0
    7.4896    0.1860   19.5979 C   0  0  0  0  0  0  0  0  0  0  0  0
   10.9999    1.7618   25.4998 C   0  0  0  0  0  0  0  0  0  0  0  0
    5.1158    0.1283   19.7330 C   0  0  0  0  0  0  0  0  0  0  0  0
   11.4636    1.4509   24.2317 C   0  0  0  0  0  0  0  0  0  0  0  0
   10.6263    1.7069   23.1516 C   0  0  0  0  0  0  0  0  0  0  0  0
    9.3686    2.2582   23.3695 C   0  0  0  0  0  0  0  0  0  0  0  0
    8.9985    2.5328   24.6762 C   0  0  0  0  0  0  0  0  0  0  0  0
    6.3959    1.9096   20.6520 C   0  0  0  0  0  0  0  0  0  0  0  0
    7.4869    3.9246   26.0152 C   0  0  0  0  0  0  0  0  0  0  0  0
    7.6984    3.1109   24.9919 C   0  0  0  0  0  0  0  0  0  0  0  0
    9.3320   -1.6593   22.3891 C   0  0  0  0  0  0  0  0  0  0  0  0
    7.5315    3.5341   22.1930 C   0  0  0  0  0  0  0  0  0  0  0  0
    6.1268   -3.2567   23.3559 C   0  0  0  0  0  0  0  0  0  0  0  0
    7.1426   -1.3561   24.4634 C   0  0  0  0  0  0  0  0  0  0  0  0
    5.6069   -3.7924   24.6846 C   0  0  0  0  0  0  0  0  0  0  0  0
    6.6488   -1.8434   25.8204 C   0  0  0  0  0  0  0  0  0  0  0  0
    3.8082   -0.5304   19.4520 C   0  0  0  0  0  0  0  0  0  0  0  0
   12.8207    0.8618   24.0584 C   0  0  0  0  0  0  0  0  0  0  0  0
    5.3172    4.1107   21.1365 C   0  0  0  0  0  0  0  0  0  0  0  0
   11.0887    1.3859   21.7515 C   0  0  0  0  0  0  0  0  0  0  0  0
    7.8706   -2.0048   22.2587 C   0  0  0  0  0  0  0  0  0  0  0  0
   11.0310   -0.1060   21.4326 C   0  0  0  0  0  0  0  0  0  0  0  0
    9.7846    2.2981   25.7508 N   0  0  0  0  0  0  0  0  0  0  0  0
    7.5681    1.3626   20.2591 N   0  0  0  0  0  0  0  0  0  0  0  0
    7.3629   -2.4826   23.5443 N   0  0  0  0  0  0  0  0  0  0  0  0
    8.5121    2.5244   22.2966 N   0  0  0  0  0  0  0  0  0  0  0  0
    9.6908   -0.6401   21.5186 N   0  0  0  0  0  0  0  0  0  0  0  0
    6.4270    3.1723   21.3654 N   0  0  0  0  0  0  0  0  0  0  0  0
    5.4093   -2.6508   25.6250 N   0  0  0  0  0  0  0  0  0  0  0  0
   10.0915   -2.2197   23.1751 O   0  0  0  0  0  0  0  0  0  0  0  0
    7.6253    4.6266   22.7547 O   0  0  0  0  0  0  0  0  0  0  0  0
  1  3  2  0
  1  5  1  0
  2  5  2  0
  2 10  1  0
  3 26  1  0
  4  6  2  0
  4 25  1  0
  5 19  1  0
  6  7  1  0
  6 20  1  0
  7  8  2  0
  7 22  1  0
  8  9  1  0
  8 28  1  0
  9 12  1  0
  9 25  2  0
 10 26  2  0
 10 30  1  0
 11 12  2  0
 13 23  1  0
 13 29  1  0
 13 32  2  0
 14 28  1  0
 14 30  1  0
 14 33  2  0
 15 17  1  0
 15 27  1  0
 16 18  1  0
 16 27  1  0
 17 31  1  0
 18 31  1  0
 21 30  1  0
 22 24  1  0
 23 27  1  0
 24 29  1  0
M  CHG  1  31   1
M  END
