AGN-NEW-891393a6-4
     RDKit          3D

 20 21  0  0  0  0  0  0  0  0999 V2000
    5.5137    1.1016   18.8036 C   0  0  0  0  0  0  0  0  0  0  0  0
    5.7982    0.4723   20.0104 C   0  0  0  0  0  0  0  0  0  0  0  0
   11.9471   -1.4521   22.1888 C   0  0  0  0  0  0  0  0  0  0  0  0
   11.1083   -0.7143   24.3309 C   0  0  0  0  0  0  0  0  0  0  0  0
   13.4566   -0.4878   23.8101 C   0  0  0  0  0  0  0  0  0  0  0  0
    6.4352    0.9806   17.7760 C   0  0  0  0  0  0  0  0  0  0  0  0
    7.8346   -0.3095   19.0627 C   0  0  0  0  0  0  0  0  0  0  0  0
   10.8848   -1.2817   23.0765 C   0  0  0  0  0  0  0  0  0  0  0  0
    6.9788   -0.2487   20.1507 C   0  0  0  0  0  0  0  0  0  0  0  0
   13.2330   -1.0552   22.5556 C   0  0  0  0  0  0  0  0  0  0  0  0
   12.3942   -0.3174   24.6978 C   0  0  0  0  0  0  0  0  0  0  0  0
   13.9710   -1.8080   20.4238 C   0  0  0  0  0  0  0  0  0  0  0  0
    9.5105   -1.7071   22.6836 C   0  0  0  0  0  0  0  0  0  0  0  0
    7.5925    0.2887   17.8748 N   0  0  0  0  0  0  0  0  0  0  0  0
    7.3001   -0.9126   21.3860 N   0  0  0  0  0  0  0  0  0  0  0  0
    9.3783    0.5954   21.4801 O   0  0  0  0  0  0  0  0  0  0  0  0
    8.0545    0.2658   23.5977 O   0  0  0  0  0  0  0  0  0  0  0  0
   14.2699   -1.2215   21.6897 O   0  0  0  0  0  0  0  0  0  0  0  0
    8.5698   -0.2548   22.3415 S   0  0  0  0  0  0  0  0  0  0  0  0
   12.6701    0.3837   26.2450 Cl  0  0  0  0  0  0  0  0  0  0  0  0
  1  2  2  0
  1  6  1  0
  2  9  1  0
  3  8  2  0
  3 10  1  0
  4  8  1  0
  4 11  2  0
  5 10  2  0
  5 11  1  0
  6 14  2  0
  7  9  2  0
  7 14  1  0
  8 13  1  0
  9 15  1  0
 10 18  1  0
 11 20  1  0
 12 18  1  0
 13 19  1  0
 15 19  1  0
 16 19  2  0
 17 19  2  0
M  END
