AGN-NEW-9d245c51-4
     RDKit          3D

 41 44  0  0  0  0  0  0  0  0999 V2000
    6.4710    4.8385   22.4246 C   0  0  0  0  0  0  0  0  0  0  0  0
    6.7266    2.5586   23.1464 C   0  0  0  0  0  0  0  0  0  0  0  0
    7.7937    5.0434   22.7824 C   0  0  0  0  0  0  0  0  0  0  0  0
   10.4767   -4.3077   24.1447 C   0  0  0  0  0  0  0  0  0  0  0  0
   12.9969    1.6772   22.9526 C   0  0  0  0  0  0  0  0  0  0  0  0
    5.9348    3.5696   22.6132 C   0  0  0  0  0  0  0  0  0  0  0  0
    9.8093   -4.0229   25.3250 C   0  0  0  0  0  0  0  0  0  0  0  0
    9.3315   -2.7299   25.5068 C   0  0  0  0  0  0  0  0  0  0  0  0
    9.5328   -1.7747   24.5167 C   0  0  0  0  0  0  0  0  0  0  0  0
   10.2127   -2.1601   23.3726 C   0  0  0  0  0  0  0  0  0  0  0  0
    8.0380    2.8655   23.4717 C   0  0  0  0  0  0  0  0  0  0  0  0
   11.2326    2.4502   24.1044 C   0  0  0  0  0  0  0  0  0  0  0  0
   12.7119    3.8874   23.2193 C   0  0  0  0  0  0  0  0  0  0  0  0
    9.9973   -1.3774   21.0583 C   0  0  0  0  0  0  0  0  0  0  0  0
   10.4660   -1.2212   22.2870 C   0  0  0  0  0  0  0  0  0  0  0  0
    5.8145   -3.6368   24.9487 C   0  0  0  0  0  0  0  0  0  0  0  0
    8.6375    0.4367   23.6831 C   0  0  0  0  0  0  0  0  0  0  0  0
    5.4040   -6.9588   20.8399 C   0  0  0  0  0  0  0  0  0  0  0  0
    6.4165   -5.8661   21.1660 C   0  0  0  0  0  0  0  0  0  0  0  0
    4.0629   -6.6877   21.5131 C   0  0  0  0  0  0  0  0  0  0  0  0
    6.5619   -5.6623   22.6672 C   0  0  0  0  0  0  0  0  0  0  0  0
    4.2166   -6.4806   23.0129 C   0  0  0  0  0  0  0  0  0  0  0  0
    4.5165    3.2947   22.2452 C   0  0  0  0  0  0  0  0  0  0  0  0
    9.6229   -5.0867   26.3507 C   0  0  0  0  0  0  0  0  0  0  0  0
   12.3293    6.2108   23.5528 C   0  0  0  0  0  0  0  0  0  0  0  0
    8.5973   -2.3731   26.7760 C   0  0  0  0  0  0  0  0  0  0  0  0
    9.9806    2.1934   24.8921 C   0  0  0  0  0  0  0  0  0  0  0  0
    5.3080   -5.0406   24.7314 C   0  0  0  0  0  0  0  0  0  0  0  0
    7.0860   -2.2762   26.5825 C   0  0  0  0  0  0  0  0  0  0  0  0
   10.6915   -3.4064   23.1602 N   0  0  0  0  0  0  0  0  0  0  0  0
    8.5940    4.0862   23.3030 N   0  0  0  0  0  0  0  0  0  0  0  0
   11.8880    1.3718   23.6459 N   0  0  0  0  0  0  0  0  0  0  0  0
   13.4696    2.9083   22.6994 N   0  0  0  0  0  0  0  0  0  0  0  0
   11.5836    3.7347   23.9310 N   0  0  0  0  0  0  0  0  0  0  0  0
    9.0590   -0.4692   24.6798 N   0  0  0  0  0  0  0  0  0  0  0  0
    6.5021   -3.5227   26.1476 N   0  0  0  0  0  0  0  0  0  0  0  0
    8.8561    1.8041   24.0271 N   0  0  0  0  0  0  0  0  0  0  0  0
    5.2071   -5.3692   23.2673 N   0  0  0  0  0  0  0  0  0  0  0  0
    5.6309   -2.7227   24.1494 O   0  0  0  0  0  0  0  0  0  0  0  0
    8.1211    0.0814   22.6224 O   0  0  0  0  0  0  0  0  0  0  0  0
   13.1336    5.1781   23.0013 O   0  0  0  0  0  0  0  0  0  0  0  0
  1  3  2  0
  1  6  1  0
  2  6  2  0
  2 11  1  0
  3 31  1  0
  4  7  2  0
  4 30  1  0
  5 32  2  0
  5 33  1  0
  6 23  1  0
  7  8  1  0
  7 24  1  0
  8  9  2  0
  8 26  1  0
  9 10  1  0
  9 35  1  0
 10 15  1  0
 10 30  2  0
 11 31  2  0
 11 37  1  0
 12 27  1  0
 12 32  1  0
 12 34  2  0
 13 33  2  0
 13 34  1  0
 13 41  1  0
 14 15  2  0
 16 28  1  0
 16 36  1  0
 16 39  2  0
 17 35  1  0
 17 37  1  0
 17 40  2  0
 18 19  1  0
 18 20  1  0
 19 21  1  0
 20 22  1  0
 21 38  1  0
 22 38  1  0
 25 41  1  0
 26 29  1  0
 27 37  1  0
 28 38  1  0
 29 36  1  0
M  CHG  1  38   1
M  END
