AGN-NEW-891393a6-9
     RDKit          3D

 20 21  0  0  0  0  0  0  0  0999 V2000
   10.4729    3.4603   24.2209 C   0  0  0  0  0  0  0  0  0  0  0  0
   12.6564   -0.1028   22.5749 C   0  0  0  0  0  0  0  0  0  0  0  0
    6.9786   -0.6410   18.7006 C   0  0  0  0  0  0  0  0  0  0  0  0
    7.9044   -0.8079   19.7245 C   0  0  0  0  0  0  0  0  0  0  0  0
   12.5243    1.1067   23.2569 C   0  0  0  0  0  0  0  0  0  0  0  0
   11.7854   -1.1572   22.8496 C   0  0  0  0  0  0  0  0  0  0  0  0
   10.6503    0.2076   24.4884 C   0  0  0  0  0  0  0  0  0  0  0  0
    5.9242   -1.5369   18.6271 C   0  0  0  0  0  0  0  0  0  0  0  0
    6.6606   -2.6926   20.4711 C   0  0  0  0  0  0  0  0  0  0  0  0
    7.7497   -1.8510   20.6308 C   0  0  0  0  0  0  0  0  0  0  0  0
   11.5213    1.2619   24.2137 C   0  0  0  0  0  0  0  0  0  0  0  0
   10.7824   -1.0019   23.8064 C   0  0  0  0  0  0  0  0  0  0  0  0
    8.7135   -2.0549   21.7262 C   0  0  0  0  0  0  0  0  0  0  0  0
    8.4016   -2.0505   23.0281 C   0  0  0  0  0  0  0  0  0  0  0  0
   11.3807    2.5556   24.9425 C   0  0  0  0  0  0  0  0  0  0  0  0
    9.7576    4.1751   23.6517 N   0  0  0  0  0  0  0  0  0  0  0  0
    5.7407   -2.5621   19.4890 N   0  0  0  0  0  0  0  0  0  0  0  0
   10.3557   -3.5727   23.7985 O   0  0  0  0  0  0  0  0  0  0  0  0
    9.1918   -2.1432   25.5077 O   0  0  0  0  0  0  0  0  0  0  0  0
    9.6935   -2.3224   24.1507 S   0  0  0  0  0  0  0  0  0  0  0  0
  1 15  1  0
  1 16  3  0
  2  5  2  0
  2  6  1  0
  3  4  2  0
  3  8  1  0
  4 10  1  0
  5 11  1  0
  6 12  2  0
  7 11  2  0
  7 12  1  0
  8 17  2  0
  9 10  2  0
  9 17  1  0
 10 13  1  0
 11 15  1  0
 12 20  1  0
 13 14  2  0
 14 20  1  0
 18 20  2  0
 19 20  2  0
M  END
