AGN-NEW-95323f67-4
     RDKit          3D

 26 28  0  0  0  0  0  0  0  0999 V2000
   11.3877    5.1260   23.3586 C   0  0  0  0  0  0  0  0  0  0  0  0
   10.5365    3.9868   23.2693 C   0  0  0  0  0  0  0  0  0  0  0  0
    4.8858    1.1901   19.0013 C   0  0  0  0  0  0  0  0  0  0  0  0
   10.2526    0.7836   23.1704 C   0  0  0  0  0  0  0  0  0  0  0  0
    9.9771    1.2369   25.5163 C   0  0  0  0  0  0  0  0  0  0  0  0
    5.5906    0.9479   17.8333 C   0  0  0  0  0  0  0  0  0  0  0  0
   12.4401    4.9190   24.2230 C   0  0  0  0  0  0  0  0  0  0  0  0
   10.3941    1.6436   24.2537 C   0  0  0  0  0  0  0  0  0  0  0  0
    5.5234    0.9370   20.2106 C   0  0  0  0  0  0  0  0  0  0  0  0
    6.8281    0.4561   20.2150 C   0  0  0  0  0  0  0  0  0  0  0  0
   10.9710    2.9524   24.0688 C   0  0  0  0  0  0  0  0  0  0  0  0
    9.6925   -0.4627   23.4005 C   0  0  0  0  0  0  0  0  0  0  0  0
    9.4292   -0.0296   25.6414 C   0  0  0  0  0  0  0  0  0  0  0  0
    7.4459    0.2465   18.9926 C   0  0  0  0  0  0  0  0  0  0  0  0
    4.7882    1.1889   21.4857 C   0  0  0  0  0  0  0  0  0  0  0  0
    8.4559   -1.7617   26.9484 C   0  0  0  0  0  0  0  0  0  0  0  0
    9.5254   -1.4118   22.2612 C   0  0  0  0  0  0  0  0  0  0  0  0
    6.8588    0.4810   17.7976 N   0  0  0  0  0  0  0  0  0  0  0  0
    9.2757   -0.8930   24.6124 N   0  0  0  0  0  0  0  0  0  0  0  0
    7.5265    0.1803   21.4422 N   0  0  0  0  0  0  0  0  0  0  0  0
    7.0773   -1.7550   23.0716 O   0  0  0  0  0  0  0  0  0  0  0  0
    7.6459   -2.3217   20.6840 O   0  0  0  0  0  0  0  0  0  0  0  0
    9.0106   -0.4537   26.8753 O   0  0  0  0  0  0  0  0  0  0  0  0
    8.7061   -0.2177   18.9706 F   0  0  0  0  0  0  0  0  0  0  0  0
   12.3994    3.3565   24.9224 S   0  0  0  0  0  0  0  0  0  0  0  0
    7.8118   -1.4664   21.8484 S   0  0  0  0  0  0  0  0  0  0  0  0
  1  2  1  0
  1  7  2  0
  2 11  2  0
  3  6  2  0
  3  9  1  0
  4  8  2  0
  4 12  1  0
  5  8  1  0
  5 13  2  0
  6 18  1  0
  7 25  1  0
  8 11  1  0
  9 10  2  0
  9 15  1  0
 10 14  1  0
 10 20  1  0
 11 25  1  0
 12 17  1  0
 12 19  2  0
 13 19  1  0
 13 23  1  0
 14 18  2  0
 14 24  1  0
 16 23  1  0
 17 26  1  0
 20 26  1  0
 21 26  2  0
 22 26  2  0
M  END
