ALB-THE-e2bfce8e-1
     RDKit          3D

 28 30  0  0  1  0  0  0  0  0999 V2000
    5.1730    0.3060   20.1050 C   0  0  0  0  0  0  0  0  0  0  0  0
    5.9728    0.6262   21.1963 C   0  0  0  0  0  0  0  0  0  0  0  0
    6.4784   -3.2031   25.2742 C   0  0  0  0  0  0  0  0  0  0  0  0
    8.0542   -3.8963   23.0854 C   0  0  0  0  0  0  0  0  0  0  0  0
    5.7611    0.2968   18.8504 C   0  0  0  0  0  0  0  0  0  0  0  0
    7.8094    0.8862   19.7079 C   0  0  0  0  0  0  0  0  0  0  0  0
    7.6332   -2.4460   25.0175 C   0  0  0  0  0  0  0  0  0  0  0  0
    7.3172    0.9232   21.0026 C   0  0  0  0  0  0  0  0  0  0  0  0
    8.4025   -2.8195   23.9062 C   0  0  0  0  0  0  0  0  0  0  0  0
    6.9083   -4.6314   23.3714 C   0  0  0  0  0  0  0  0  0  0  0  0
    6.1198   -4.2855   24.4648 C   0  0  0  0  0  0  0  0  0  0  0  0
    9.4997    1.5625   22.0066 C   0  0  0  0  0  0  0  0  0  0  0  0
    9.1268   -0.5743   25.7029 C   0  0  0  0  0  0  0  0  0  0  0  0
   10.0478    1.8589   23.3989 C   0  0  0  0  0  0  0  0  0  0  0  0
   10.5881    0.6296   24.1171 C   0  0  0  0  0  0  0  0  0  0  0  0
    7.0633    0.5796   18.6230 N   0  0  0  0  0  0  0  0  0  0  0  0
    7.9238   -1.3691   25.8382 N   0  0  0  0  0  0  0  0  0  0  0  0
    9.5539   -0.4212   24.2875 N   0  0  0  0  0  0  0  0  0  0  0  0
    5.5374   -5.2005   21.1579 N   0  0  0  0  0  0  0  0  0  0  0  0
    8.1455    1.2488   22.0797 N   0  0  0  0  0  0  0  0  0  0  0  0
   10.2102    1.6035   21.0080 O   0  0  0  0  0  0  0  0  0  0  0  0
   10.9644   -2.5963   24.1235 O   0  0  0  0  0  0  0  0  0  0  0  0
    9.8332   -1.6802   22.0546 O   0  0  0  0  0  0  0  0  0  0  0  0
    7.7361   -6.4368   21.6899 O   0  0  0  0  0  0  0  0  0  0  0  0
    5.6873   -6.9130   23.0767 O   0  0  0  0  0  0  0  0  0  0  0  0
    9.8561   -1.9131   23.4857 S   0  0  0  0  0  0  0  0  0  0  0  0
    6.5106   -5.9790   22.3251 S   0  0  0  0  0  0  0  0  0  0  0  0
    4.6826   -5.1577   24.8624 Cl  0  0  0  0  0  0  0  0  0  0  0  0
  1  2  2  0
  1  5  1  0
  2  8  1  0
  3  7  2  0
  3 11  1  0
  4  9  2  0
  4 10  1  0
  5 16  2  0
  6  8  2  0
  6 16  1  0
  7  9  1  0
  7 17  1  0
  8 20  1  0
  9 26  1  0
 10 11  2  0
 10 27  1  0
 11 28  1  0
 12 14  1  0
 12 20  1  0
 12 21  2  0
 13 17  1  0
 13 18  1  0
 14 15  1  0
 15 18  1  0
 18 26  1  0
 19 27  1  0
 22 26  2  0
 23 26  2  0
 24 27  2  0
 25 27  2  0
M  END
