ALE-HEI-f28a35b5-10
     RDKit          3D

 17 17  0  0  1  0  0  0  0  0999 V2000
    6.0047    1.0051   18.8818 C   0  0  0  0  0  0  0  0  0  0  0  0
    6.7119    0.6590   17.7417 C   0  0  0  0  0  0  0  0  0  0  0  0
    8.4795   -0.1405   18.9725 C   0  0  0  0  0  0  0  0  0  0  0  0
    6.5943    0.7518   20.1153 C   0  0  0  0  0  0  0  0  0  0  0  0
    7.8552    0.1684   20.1703 C   0  0  0  0  0  0  0  0  0  0  0  0
    9.7463   -0.6845   21.5922 C   0  0  0  0  0  0  0  0  0  0  0  0
    5.8544    1.1155   21.3607 C   0  0  0  0  0  0  0  0  0  0  0  0
   10.0882   -0.8199   23.0666 C   0  0  0  0  0  0  0  0  0  0  0  0
   11.4608   -1.4513   23.2970 C   0  0  0  0  0  0  0  0  0  0  0  0
   12.6003   -0.6018   22.7227 C   0  0  0  0  0  0  0  0  0  0  0  0
   13.9582   -1.2839   22.9394 C   0  0  0  0  0  0  0  0  0  0  0  0
   14.3535   -1.4931   24.4098 C   0  0  0  0  0  0  0  0  0  0  0  0
    7.9385    0.0907   17.7553 N   0  0  0  0  0  0  0  0  0  0  0  0
   14.8909   -0.2748   25.0032 N   0  0  0  0  0  0  0  0  0  0  0  0
    8.4966   -0.1094   21.4006 N   0  0  0  0  0  0  0  0  0  0  0  0
   15.2925   -2.6448   24.5080 N   0  0  0  0  0  0  0  0  0  0  0  0
   10.5370   -1.0667   20.7343 O   0  0  0  0  0  0  0  0  0  0  0  0
  1  2  2  0
  1  4  1  0
  2 13  1  0
  3  5  1  0
  3 13  2  0
  4  5  2  0
  4  7  1  0
  5 15  1  0
  6  8  1  0
  6 15  1  0
  6 17  2  0
  8  9  1  0
  9 10  1  0
 10 11  1  0
 11 12  1  0
 12 14  1  0
 12 16  1  0
M  CHG  1  16   1
M  END
