ALE-HEI-f28a35b5-5
     RDKit          3D

 16 17  0  0  0  0  0  0  0  0999 V2000
    5.5752    1.2562   18.9232 C   0  0  0  0  0  0  0  0  0  0  0  0
    6.1850    1.1022   20.1632 C   0  0  0  0  0  0  0  0  0  0  0  0
    6.3104    0.9325   17.7942 C   0  0  0  0  0  0  0  0  0  0  0  0
    8.1422    0.3397   19.0477 C   0  0  0  0  0  0  0  0  0  0  0  0
    7.4929    0.6358   20.2354 C   0  0  0  0  0  0  0  0  0  0  0  0
   13.2390   -1.3151   23.4231 C   0  0  0  0  0  0  0  0  0  0  0  0
   11.1486   -0.2236   23.4988 C   0  0  0  0  0  0  0  0  0  0  0  0
    9.5015    0.5812   21.7545 C   0  0  0  0  0  0  0  0  0  0  0  0
   14.4336   -2.1065   23.0655 C   0  0  0  0  0  0  0  0  0  0  0  0
    9.7715    0.3238   23.2286 C   0  0  0  0  0  0  0  0  0  0  0  0
    7.5827    0.4767   17.8246 N   0  0  0  0  0  0  0  0  0  0  0  0
   13.0823   -0.6384   24.5409 N   0  0  0  0  0  0  0  0  0  0  0  0
   11.8557    0.0009   24.5857 N   0  0  0  0  0  0  0  0  0  0  0  0
    8.1299    0.4716   21.4629 N   0  0  0  0  0  0  0  0  0  0  0  0
   10.3983    0.8452   20.9601 O   0  0  0  0  0  0  0  0  0  0  0  0
   11.9137   -1.2276   22.3378 S   0  0  0  0  0  0  0  0  0  0  0  0
  1  2  2  0
  1  3  1  0
  2  5  1  0
  3 11  2  0
  4  5  2  0
  4 11  1  0
  5 14  1  0
  6  9  1  0
  6 12  2  0
  6 16  1  0
  7 10  1  0
  7 13  2  0
  7 16  1  0
  8 10  1  0
  8 14  1  0
  8 15  2  0
 12 13  1  0
M  END
