ALE-HEI-f28a35b5-12
     RDKit          3D

 14 14  0  0  0  0  0  0  0  0999 V2000
    5.6013    0.9039   18.8447 C   0  0  0  0  0  0  0  0  0  0  0  0
    6.2987    0.6560   17.6734 C   0  0  0  0  0  0  0  0  0  0  0  0
    8.1831    0.0217   18.8243 C   0  0  0  0  0  0  0  0  0  0  0  0
    6.2583    0.6895   20.0512 C   0  0  0  0  0  0  0  0  0  0  0  0
    7.5741    0.2400   20.0495 C   0  0  0  0  0  0  0  0  0  0  0  0
    9.6560    0.1252   21.4619 C   0  0  0  0  0  0  0  0  0  0  0  0
    5.5304    0.9493   21.3292 C   0  0  0  0  0  0  0  0  0  0  0  0
   10.0073   -0.2194   22.9041 C   0  0  0  0  0  0  0  0  0  0  0  0
   10.3211   -1.6980   23.1271 C   0  0  0  0  0  0  0  0  0  0  0  0
   11.4509   -2.1834   22.2315 C   0  0  0  0  0  0  0  0  0  0  0  0
    7.5773    0.2189   17.6319 N   0  0  0  0  0  0  0  0  0  0  0  0
    8.2852    0.0067   21.2506 N   0  0  0  0  0  0  0  0  0  0  0  0
   10.5060    0.4747   20.6496 O   0  0  0  0  0  0  0  0  0  0  0  0
   13.0512   -1.1226   22.5604 Br  0  0  0  0  0  0  0  0  0  0  0  0
  1  2  2  0
  1  4  1  0
  2 11  1  0
  3  5  1  0
  3 11  2  0
  4  5  2  0
  4  7  1  0
  5 12  1  0
  6  8  1  0
  6 12  1  0
  6 13  2  0
  8  9  1  0
  9 10  1  0
 10 14  1  0
M  END
