ALE-UNK-fca05062-4
     RDKit          3D

 19 20  0  0  0  0  0  0  0  0999 V2000
   14.5657   -2.6221   23.4139 C   0  0  0  0  0  0  0  0  0  0  0  0
    4.8773    1.2580   19.0119 C   0  0  0  0  0  0  0  0  0  0  0  0
   14.3595   -1.8950   24.5863 C   0  0  0  0  0  0  0  0  0  0  0  0
   14.0982   -2.1287   22.1958 C   0  0  0  0  0  0  0  0  0  0  0  0
    5.5895    1.3388   20.2085 C   0  0  0  0  0  0  0  0  0  0  0  0
    5.4970    0.7655   17.8633 C   0  0  0  0  0  0  0  0  0  0  0  0
   13.6858   -0.6745   24.5406 C   0  0  0  0  0  0  0  0  0  0  0  0
   13.4244   -0.9082   22.1502 C   0  0  0  0  0  0  0  0  0  0  0  0
    6.9215    0.9273   20.2565 C   0  0  0  0  0  0  0  0  0  0  0  0
    6.8289    0.3540   17.9114 C   0  0  0  0  0  0  0  0  0  0  0  0
   13.2182   -0.1811   23.3225 C   0  0  0  0  0  0  0  0  0  0  0  0
    7.5412    0.4349   19.1079 C   0  0  0  0  0  0  0  0  0  0  0  0
    9.8980    0.6280   21.2397 C   0  0  0  0  0  0  0  0  0  0  0  0
   12.4890    1.1391   23.2724 C   0  0  0  0  0  0  0  0  0  0  0  0
    9.3283   -0.4815   20.3816 C   0  0  0  0  0  0  0  0  0  0  0  0
   10.9799    0.9930   23.4515 C   0  0  0  0  0  0  0  0  0  0  0  0
   10.3816    0.1454   22.4458 N   0  0  0  0  0  0  0  0  0  0  0  0
    9.9151    1.8024   20.8814 O   0  0  0  0  0  0  0  0  0  0  0  0
    8.8545    0.0307   19.1543 O   0  0  0  0  0  0  0  0  0  0  0  0
  1  3  2  0
  1  4  1  0
  2  5  2  0
  2  6  1  0
  3  7  1  0
  4  8  2  0
  5  9  1  0
  6 10  2  0
  7 11  2  0
  8 11  1  0
  9 12  2  0
 10 12  1  0
 11 14  1  0
 12 19  1  0
 13 15  1  0
 13 17  1  0
 13 18  2  0
 14 16  1  0
 15 19  1  0
 16 17  1  0
M  END
