ALE-HEI-f28a35b5-13
     RDKit          3D

 14 14  0  0  0  0  0  0  0  0999 V2000
    5.5311    0.5981   19.0930 C   0  0  0  0  0  0  0  0  0  0  0  0
    6.1997    0.3204   17.9116 C   0  0  0  0  0  0  0  0  0  0  0  0
    8.2279    0.1975   18.9839 C   0  0  0  0  0  0  0  0  0  0  0  0
    6.2795    0.6724   20.2624 C   0  0  0  0  0  0  0  0  0  0  0  0
    7.6543    0.4697   20.2155 C   0  0  0  0  0  0  0  0  0  0  0  0
    9.7979    0.9228   21.4726 C   0  0  0  0  0  0  0  0  0  0  0  0
    5.5845    0.9710   21.5502 C   0  0  0  0  0  0  0  0  0  0  0  0
   11.5723    1.1911   23.2129 C   0  0  0  0  0  0  0  0  0  0  0  0
   12.2920    0.0286   23.8665 C   0  0  0  0  0  0  0  0  0  0  0  0
    7.5336    0.1175   17.8266 N   0  0  0  0  0  0  0  0  0  0  0  0
    8.4474    0.5336   21.3609 N   0  0  0  0  0  0  0  0  0  0  0  0
   10.2301    0.8503   22.8008 N   0  0  0  0  0  0  0  0  0  0  0  0
   10.5239    1.2824   20.5489 O   0  0  0  0  0  0  0  0  0  0  0  0
   12.4114   -1.4837   22.6425 Br  0  0  0  0  0  0  0  0  0  0  0  0
  1  2  2  0
  1  4  1  0
  2 10  1  0
  3  5  1  0
  3 10  2  0
  4  5  2  0
  4  7  1  0
  5 11  1  0
  6 11  1  0
  6 12  1  0
  6 13  2  0
  8  9  1  0
  8 12  1  0
  9 14  1  0
M  END
