ALE-HEI-f28a35b5-15
     RDKit          3D

 13 13  0  0  0  0  0  0  0  0999 V2000
    5.5053    0.7415   19.2513 C   0  0  0  0  0  0  0  0  0  0  0  0
    6.3654    0.7335   20.3436 C   0  0  0  0  0  0  0  0  0  0  0  0
    6.0440    0.4904   17.9997 C   0  0  0  0  0  0  0  0  0  0  0  0
    8.1586    0.2385   18.8618 C   0  0  0  0  0  0  0  0  0  0  0  0
    7.7190    0.4781   20.1538 C   0  0  0  0  0  0  0  0  0  0  0  0
    9.9954    0.2258   21.2190 C   0  0  0  0  0  0  0  0  0  0  0  0
   11.9257    0.0981   22.8022 C   0  0  0  0  0  0  0  0  0  0  0  0
   12.2557   -1.3522   23.0928 C   0  0  0  0  0  0  0  0  0  0  0  0
    7.3532    0.2382   17.7760 N   0  0  0  0  0  0  0  0  0  0  0  0
    8.6046    0.4637   21.2286 N   0  0  0  0  0  0  0  0  0  0  0  0
   10.5249    0.2996   22.5114 N   0  0  0  0  0  0  0  0  0  0  0  0
   10.6782   -0.0160   20.2265 O   0  0  0  0  0  0  0  0  0  0  0  0
   14.1587   -1.5661   23.4568 Br  0  0  0  0  0  0  0  0  0  0  0  0
  1  2  2  0
  1  3  1  0
  2  5  1  0
  3  9  2  0
  4  5  2  0
  4  9  1  0
  5 10  1  0
  6 10  1  0
  6 11  1  0
  6 12  2  0
  7  8  1  0
  7 11  1  0
  8 13  1  0
M  END
