ALE-UNK-fca05062-8
     RDKit          3D

 16 16  0  0  1  0  0  0  0  0999 V2000
   13.8801   -1.2322   23.3969 C   0  0  0  0  0  0  0  0  0  0  0  0
   12.9539   -2.0901   22.8040 C   0  0  0  0  0  0  0  0  0  0  0  0
   13.4897    0.0451   23.7993 C   0  0  0  0  0  0  0  0  0  0  0  0
   11.6373   -1.6708   22.6132 C   0  0  0  0  0  0  0  0  0  0  0  0
   12.1731    0.4644   23.6085 C   0  0  0  0  0  0  0  0  0  0  0  0
   11.2469   -0.3935   23.0155 C   0  0  0  0  0  0  0  0  0  0  0  0
    8.2278    0.4629   21.2032 C   0  0  0  0  0  0  0  0  0  0  0  0
    6.4620    0.9688   17.9002 C   0  0  0  0  0  0  0  0  0  0  0  0
    4.8461    0.9120   22.0347 C   0  0  0  0  0  0  0  0  0  0  0  0
    9.2546   -0.5205   21.7231 C   0  0  0  0  0  0  0  0  0  0  0  0
    5.9422   -0.3250   18.5080 C   0  0  0  0  0  0  0  0  0  0  0  0
    5.0392   -0.0522   19.7147 C   0  0  0  0  0  0  0  0  0  0  0  0
    5.7740    0.6807   20.8462 C   0  0  0  0  0  0  0  0  0  0  0  0
    6.9423   -0.0514   21.2764 N   0  0  0  0  0  0  0  0  0  0  0  0
    8.5293    1.5740   20.7759 O   0  0  0  0  0  0  0  0  0  0  0  0
    9.9497    0.0209   22.8262 O   0  0  0  0  0  0  0  0  0  0  0  0
  1  2  2  0
  1  3  1  0
  2  4  1  0
  3  5  2  0
  4  6  2  0
  5  6  1  0
  6 16  1  0
  7 10  1  0
  7 14  1  0
  7 15  2  0
  8 11  1  0
  9 13  1  0
 10 16  1  0
 11 12  1  0
 12 13  1  0
 13 14  1  0
M  END
