ALE-HEI-f28a35b5-1
     RDKit          3D

 17 18  0  0  0  0  0  0  0  0999 V2000
   14.2238   -0.9928   23.9289 C   0  0  0  0  0  0  0  0  0  0  0  0
   13.2682   -0.4429   24.7832 C   0  0  0  0  0  0  0  0  0  0  0  0
   13.9351   -1.1595   22.5745 C   0  0  0  0  0  0  0  0  0  0  0  0
   12.0237   -0.0598   24.2832 C   0  0  0  0  0  0  0  0  0  0  0  0
   12.6905   -0.7765   22.0744 C   0  0  0  0  0  0  0  0  0  0  0  0
    5.7813    1.2555   18.8360 C   0  0  0  0  0  0  0  0  0  0  0  0
    6.3228    0.7972   17.6459 C   0  0  0  0  0  0  0  0  0  0  0  0
    8.3046    0.2321   18.6615 C   0  0  0  0  0  0  0  0  0  0  0  0
    6.5689    1.1841   19.9796 C   0  0  0  0  0  0  0  0  0  0  0  0
   11.7348   -0.2266   22.9288 C   0  0  0  0  0  0  0  0  0  0  0  0
    7.8559    0.6641   19.8992 C   0  0  0  0  0  0  0  0  0  0  0  0
   10.0066    0.0714   21.1003 C   0  0  0  0  0  0  0  0  0  0  0  0
    6.0104    1.6717   21.2761 C   0  0  0  0  0  0  0  0  0  0  0  0
    7.5686    0.2855   17.5287 N   0  0  0  0  0  0  0  0  0  0  0  0
   10.4900    0.1568   22.4288 N   0  0  0  0  0  0  0  0  0  0  0  0
    8.6957    0.5701   21.0340 N   0  0  0  0  0  0  0  0  0  0  0  0
   10.6450   -0.3740   20.1520 O   0  0  0  0  0  0  0  0  0  0  0  0
  1  2  2  0
  1  3  1  0
  2  4  1  0
  3  5  2  0
  4 10  2  0
  5 10  1  0
  6  7  2  0
  6  9  1  0
  7 14  1  0
  8 11  1  0
  8 14  2  0
  9 11  2  0
  9 13  1  0
 10 15  1  0
 11 16  1  0
 12 15  1  0
 12 16  1  0
 12 17  2  0
M  END
