ALE-HEI-f28a35b5-16
     RDKit          3D

 16 17  0  0  0  0  0  0  0  0999 V2000
    6.4257    0.7057   19.5453 C   0  0  0  0  0  0  0  0  0  0  0  0
    7.5138    0.4697   20.3782 C   0  0  0  0  0  0  0  0  0  0  0  0
    6.6058    0.5432   18.1812 C   0  0  0  0  0  0  0  0  0  0  0  0
    8.8085   -0.0509   18.4523 C   0  0  0  0  0  0  0  0  0  0  0  0
    8.7316    0.0839   19.8292 C   0  0  0  0  0  0  0  0  0  0  0  0
    9.9272   -0.0681   22.0422 C   0  0  0  0  0  0  0  0  0  0  0  0
   11.5986    0.2528   23.8475 C   0  0  0  0  0  0  0  0  0  0  0  0
   12.1354   -1.3787   22.0610 C   0  0  0  0  0  0  0  0  0  0  0  0
   13.0116    0.8086   23.7824 C   0  0  0  0  0  0  0  0  0  0  0  0
   13.5614   -0.8435   22.0019 C   0  0  0  0  0  0  0  0  0  0  0  0
   14.2994   -1.2840   24.3748 C   0  0  0  0  0  0  0  0  0  0  0  0
    7.7734    0.1696   17.6112 N   0  0  0  0  0  0  0  0  0  0  0  0
   11.1945   -0.3776   22.5876 N   0  0  0  0  0  0  0  0  0  0  0  0
    9.8584   -0.1634   20.6522 N   0  0  0  0  0  0  0  0  0  0  0  0
   13.9766   -0.2562   23.3255 N   0  0  0  0  0  0  0  0  0  0  0  0
    8.9680    0.2327   22.7575 O   0  0  0  0  0  0  0  0  0  0  0  0
  1  2  2  0
  1  3  1  0
  2  5  1  0
  3 12  2  0
  4  5  2  0
  4 12  1  0
  5 14  1  0
  6 13  1  0
  6 14  1  0
  6 16  2  0
  7  9  1  0
  7 13  1  0
  8 10  1  0
  8 13  1  0
  9 15  1  0
 10 15  1  0
 11 15  1  0
M  CHG  1  15   1
M  END
