ALE-UNK-fca05062-9
     RDKit          3D

 20 20  0  0  1  0  0  0  0  0999 V2000
   10.2812   -1.7525   24.2274 C   0  0  0  0  0  0  0  0  0  0  0  0
   10.5561   -0.6813   23.4033 C   0  0  0  0  0  0  0  0  0  0  0  0
    9.2385    0.3327   24.8337 C   0  0  0  0  0  0  0  0  0  0  0  0
   12.4524    3.8535   23.3078 C   0  0  0  0  0  0  0  0  0  0  0  0
   13.6018    0.4180   22.7482 C   0  0  0  0  0  0  0  0  0  0  0  0
    8.4509    1.3907   25.5030 C   0  0  0  0  0  0  0  0  0  0  0  0
   11.2520    7.4153   26.0741 C   0  0  0  0  0  0  0  0  0  0  0  0
   14.0754    3.4196   21.4463 C   0  0  0  0  0  0  0  0  0  0  0  0
   13.4422   -2.0808   22.6514 C   0  0  0  0  0  0  0  0  0  0  0  0
   11.4344   -0.7142   22.1861 C   0  0  0  0  0  0  0  0  0  0  0  0
   12.1224    6.2796   25.5551 C   0  0  0  0  0  0  0  0  0  0  0  0
   12.1565    6.2121   24.0330 C   0  0  0  0  0  0  0  0  0  0  0  0
   13.5063    2.9015   22.7579 C   0  0  0  0  0  0  0  0  0  0  0  0
    9.9587    0.5151   23.7491 N   0  0  0  0  0  0  0  0  0  0  0  0
   12.9676    5.1195   23.5489 N   0  0  0  0  0  0  0  0  0  0  0  0
   12.8912    1.6044   22.5884 N   0  0  0  0  0  0  0  0  0  0  0  0
   12.8521   -0.7537   22.5359 N   0  0  0  0  0  0  0  0  0  0  0  0
   11.2784    3.5301   23.4754 O   0  0  0  0  0  0  0  0  0  0  0  0
   14.8004    0.4068   23.0444 O   0  0  0  0  0  0  0  0  0  0  0  0
    9.2349   -1.2525   25.4910 S   0  0  0  0  0  0  0  0  0  0  0  0
  1  2  2  0
  1 20  1  0
  2 10  1  0
  2 14  1  0
  3  6  1  0
  3 14  2  0
  3 20  1  0
  4 13  1  0
  4 15  1  0
  4 18  2  0
  5 16  1  0
  5 17  1  0
  5 19  2  0
  7 11  1  0
  8 13  1  0
  9 17  1  0
 10 17  1  0
 11 12  1  0
 12 15  1  0
 13 16  1  0
M  END
