ALE-UNK-fca05062-3
     RDKit          3D

 21 22  0  0  0  0  0  0  0  0999 V2000
    6.8653    4.8093   21.8201 C   0  0  0  0  0  0  0  0  0  0  0  0
    7.2059    6.1611   21.7727 C   0  0  0  0  0  0  0  0  0  0  0  0
    7.6531    3.9166   22.5468 C   0  0  0  0  0  0  0  0  0  0  0  0
   10.1772   -1.4544   23.4014 C   0  0  0  0  0  0  0  0  0  0  0  0
    8.3344    6.6201   22.4520 C   0  0  0  0  0  0  0  0  0  0  0  0
    8.7816    4.3756   23.2260 C   0  0  0  0  0  0  0  0  0  0  0  0
   11.3158   -1.5450   22.6007 C   0  0  0  0  0  0  0  0  0  0  0  0
    9.9924   -0.3463   24.2282 C   0  0  0  0  0  0  0  0  0  0  0  0
    9.1223    5.7274   23.1786 C   0  0  0  0  0  0  0  0  0  0  0  0
   12.2696   -0.5276   22.6270 C   0  0  0  0  0  0  0  0  0  0  0  0
   10.9462    0.6712   24.2544 C   0  0  0  0  0  0  0  0  0  0  0  0
   12.0848    0.5805   23.4538 C   0  0  0  0  0  0  0  0  0  0  0  0
   12.7121    3.9621   23.2948 C   0  0  0  0  0  0  0  0  0  0  0  0
   13.4816   -0.6430   21.7623 C   0  0  0  0  0  0  0  0  0  0  0  0
   10.7302    1.8492   25.1464 C   0  0  0  0  0  0  0  0  0  0  0  0
   10.3434    6.2233   23.9135 C   0  0  0  0  0  0  0  0  0  0  0  0
   12.8625    2.6446   22.5646 C   0  0  0  0  0  0  0  0  0  0  0  0
   11.6093    6.1814   23.0611 C   0  0  0  0  0  0  0  0  0  0  0  0
   11.9160    4.8507   22.5890 N   0  0  0  0  0  0  0  0  0  0  0  0
   13.2431    4.1846   24.3794 O   0  0  0  0  0  0  0  0  0  0  0  0
   13.0257    1.5827   23.4805 O   0  0  0  0  0  0  0  0  0  0  0  0
  1  2  2  0
  1  3  1  0
  2  5  1  0
  3  6  2  0
  4  7  2  0
  4  8  1  0
  5  9  2  0
  6  9  1  0
  7 10  1  0
  8 11  2  0
  9 16  1  0
 10 12  2  0
 10 14  1  0
 11 12  1  0
 11 15  1  0
 12 21  1  0
 13 17  1  0
 13 19  1  0
 13 20  2  0
 16 18  1  0
 17 21  1  0
 18 19  1  0
M  END
