ALI-DIA-59c2fdb0-8
     RDKit          3D

 26 27  0  0  0  0  0  0  0  0999 V2000
    5.7905   -0.2022   19.5793 C   0  0  0  0  0  0  0  0  0  0  0  0
    6.7816   -0.7252   18.7308 C   0  0  0  0  0  0  0  0  0  0  0  0
    5.4737    1.0012   19.0070 C   0  0  0  0  0  0  0  0  0  0  0  0
    5.9250   -3.7557   22.9446 C   0  0  0  0  0  0  0  0  0  0  0  0
    9.5439   -0.0576   22.4108 C   0  0  0  0  0  0  0  0  0  0  0  0
    6.7074   -3.2639   20.8840 C   0  0  0  0  0  0  0  0  0  0  0  0
   11.2590    3.1421   23.4310 C   0  0  0  0  0  0  0  0  0  0  0  0
   11.1134    1.9310   24.3450 C   0  0  0  0  0  0  0  0  0  0  0  0
   10.7153    2.8563   22.0360 C   0  0  0  0  0  0  0  0  0  0  0  0
    9.6687    1.4366   24.4100 C   0  0  0  0  0  0  0  0  0  0  0  0
    9.2613    2.3895   22.0820 C   0  0  0  0  0  0  0  0  0  0  0  0
    9.0396    1.2119   23.0335 C   0  0  0  0  0  0  0  0  0  0  0  0
    4.5306    2.0727   19.3499 C   0  0  0  0  0  0  0  0  0  0  0  0
    5.3679   -0.6734   26.1032 C   0  0  0  0  0  0  0  0  0  0  0  0
    7.5089   -2.0321   18.8617 C   0  0  0  0  0  0  0  0  0  0  0  0
    6.0729   -4.1001   24.4009 C   0  0  0  0  0  0  0  0  0  0  0  0
    6.0206   -1.6669   25.1544 C   0  0  0  0  0  0  0  0  0  0  0  0
    5.3987   -3.0584   25.2903 C   0  0  0  0  0  0  0  0  0  0  0  0
    8.8344   -1.9445   20.9623 C   0  0  0  0  0  0  0  0  0  0  0  0
    7.0582    0.0914   17.7103 N   0  0  0  0  0  0  0  0  0  0  0  0
    6.9673   -3.5547   22.2075 N   0  0  0  0  0  0  0  0  0  0  0  0
    8.5850   -0.6867   21.6376 N   0  0  0  0  0  0  0  0  0  0  0  0
    7.6548   -2.4379   20.2535 N   0  0  0  0  0  0  0  0  0  0  0  0
   10.6827   -0.4718   22.6130 O   0  0  0  0  0  0  0  0  0  0  0  0
    5.7077   -3.6890   20.3025 O   0  0  0  0  0  0  0  0  0  0  0  0
    6.2236    1.1878   17.8908 O   0  0  0  0  0  0  0  0  0  0  0  0
  1  2  1  0
  1  3  2  0
  2 15  1  0
  2 20  2  0
  3 13  1  0
  3 26  1  0
  4 16  1  0
  4 21  2  0
  5 12  1  0
  5 22  1  0
  5 24  2  0
  6 21  1  0
  6 23  1  0
  6 25  2  0
  7  8  1  0
  7  9  1  0
  8 10  1  0
  9 11  1  0
 10 12  1  0
 11 12  1  0
 14 17  1  0
 15 23  1  0
 16 18  1  0
 17 18  1  0
 19 22  1  0
 19 23  1  0
 20 26  1  0
M  END
