ALI-DIA-59c2fdb0-4
     RDKit          3D

 29 31  0  0  1  0  0  0  0  0999 V2000
   14.1274   -2.4850   23.9378 C   0  0  0  0  0  0  0  0  0  0  0  0
   14.0135   -1.0854   24.0000 C   0  0  0  0  0  0  0  0  0  0  0  0
   14.4555   -2.8423   25.2187 C   0  0  0  0  0  0  0  0  0  0  0  0
    4.7899    1.9604   19.1457 C   0  0  0  0  0  0  0  0  0  0  0  0
    4.7858    1.4363   20.3762 C   0  0  0  0  0  0  0  0  0  0  0  0
   11.2584   -0.3834   22.3896 C   0  0  0  0  0  0  0  0  0  0  0  0
   10.1000    7.1600   23.7603 C   0  0  0  0  0  0  0  0  0  0  0  0
   11.5062    7.2145   24.3477 C   0  0  0  0  0  0  0  0  0  0  0  0
    9.8516    5.8553   23.0112 C   0  0  0  0  0  0  0  0  0  0  0  0
   11.7970    6.0040   25.2333 C   0  0  0  0  0  0  0  0  0  0  0  0
   10.1322    4.6366   23.8888 C   0  0  0  0  0  0  0  0  0  0  0  0
    8.0921   -1.5390   22.7038 C   0  0  0  0  0  0  0  0  0  0  0  0
    8.8144   -0.4351   21.9769 C   0  0  0  0  0  0  0  0  0  0  0  0
    7.4535   -0.1869   22.5727 C   0  0  0  0  0  0  0  0  0  0  0  0
   11.5167    4.6708   24.5380 C   0  0  0  0  0  0  0  0  0  0  0  0
   14.7266   -4.1256   25.8780 C   0  0  0  0  0  0  0  0  0  0  0  0
   13.6711   -0.1396   22.8854 C   0  0  0  0  0  0  0  0  0  0  0  0
    5.9946    1.3482   21.2483 C   0  0  0  0  0  0  0  0  0  0  0  0
   12.1265    1.6239   23.6950 C   0  0  0  0  0  0  0  0  0  0  0  0
   14.2527   -0.6110   25.2258 N   0  0  0  0  0  0  0  0  0  0  0  0
    9.9906    0.1748   22.5332 N   0  0  0  0  0  0  0  0  0  0  0  0
   12.2148    2.7785   22.7726 N   0  0  0  0  0  0  0  0  0  0  0  0
   12.3015    0.3498   22.9866 N   0  0  0  0  0  0  0  0  0  0  0  0
    6.3202   -0.0547   21.6494 N   0  0  0  0  0  0  0  0  0  0  0  0
   11.4411   -1.4378   21.7733 O   0  0  0  0  0  0  0  0  0  0  0  0
   14.0233    4.0678   24.1003 O   0  0  0  0  0  0  0  0  0  0  0  0
   12.7156    5.2506   22.2981 O   0  0  0  0  0  0  0  0  0  0  0  0
   14.5332   -1.7326   25.9969 O   0  0  0  0  0  0  0  0  0  0  0  0
   12.7898    4.2726   23.3666 S   0  0  0  0  0  0  0  0  0  0  0  0
  1  2  1  0
  1  3  2  0
  2 17  1  0
  2 20  2  0
  3 16  1  0
  3 28  1  0
  4  5  2  0
  5 18  1  0
  6 21  1  0
  6 23  1  0
  6 25  2  0
  7  8  1  0
  7  9  1  0
  8 10  1  0
  9 11  1  0
 10 15  1  0
 11 15  1  0
 12 13  1  0
 12 14  1  0
 13 14  1  0
 13 21  1  0
 14 24  1  0
 15 29  1  0
 17 23  1  0
 18 24  1  0
 19 22  1  0
 19 23  1  0
 20 28  1  0
 22 29  1  0
 26 29  2  0
 27 29  2  0
M  CHG  1  24   1
M  END
