ALI-DIA-59c2fdb0-2
     RDKit          3D

 29 31  0  0  1  0  0  0  0  0999 V2000
    5.1960    0.2023   19.8474 C   0  0  0  0  0  0  0  0  0  0  0  0
    6.5462    0.4475   19.5435 C   0  0  0  0  0  0  0  0  0  0  0  0
    4.5608    1.3522   19.4594 C   0  0  0  0  0  0  0  0  0  0  0  0
   12.3693    5.6864   23.7747 C   0  0  0  0  0  0  0  0  0  0  0  0
   12.7057    4.4530   23.3913 C   0  0  0  0  0  0  0  0  0  0  0  0
    9.0264    0.3717   21.7116 C   0  0  0  0  0  0  0  0  0  0  0  0
    6.7413   -5.1554   26.5087 C   0  0  0  0  0  0  0  0  0  0  0  0
    5.6066   -5.4343   25.5272 C   0  0  0  0  0  0  0  0  0  0  0  0
    7.5122   -3.8931   26.1332 C   0  0  0  0  0  0  0  0  0  0  0  0
    6.1095   -5.4922   24.0872 C   0  0  0  0  0  0  0  0  0  0  0  0
    8.0173   -3.9495   24.6939 C   0  0  0  0  0  0  0  0  0  0  0  0
   11.0642    0.9139   24.8582 C   0  0  0  0  0  0  0  0  0  0  0  0
    6.8803   -4.2269   23.7106 C   0  0  0  0  0  0  0  0  0  0  0  0
   11.6977    0.9972   23.4835 C   0  0  0  0  0  0  0  0  0  0  0  0
    3.1623    1.7980   19.4821 C   0  0  0  0  0  0  0  0  0  0  0  0
    7.7177   -0.4677   19.7544 C   0  0  0  0  0  0  0  0  0  0  0  0
    9.3388    0.1739   23.1800 C   0  0  0  0  0  0  0  0  0  0  0  0
   12.5571    2.1551   23.1177 C   0  0  0  0  0  0  0  0  0  0  0  0
    7.4991   -1.6028   21.9510 C   0  0  0  0  0  0  0  0  0  0  0  0
    6.7342    1.6569   19.0080 N   0  0  0  0  0  0  0  0  0  0  0  0
    8.3007   -2.8480   21.9074 N   0  0  0  0  0  0  0  0  0  0  0  0
    8.1137   -0.5330   21.1564 N   0  0  0  0  0  0  0  0  0  0  0  0
   10.2807    1.2101   23.6758 N   0  0  0  0  0  0  0  0  0  0  0  0
    9.5612    1.2817   21.0734 O   0  0  0  0  0  0  0  0  0  0  0  0
    8.5092   -5.4021   22.0532 O   0  0  0  0  0  0  0  0  0  0  0  0
    6.3762   -4.4042   21.1530 O   0  0  0  0  0  0  0  0  0  0  0  0
    5.4683    2.2280   18.9568 O   0  0  0  0  0  0  0  0  0  0  0  0
   11.9915    3.3637   23.6275 O   0  0  0  0  0  0  0  0  0  0  0  0
    7.5079   -4.3529   22.0576 S   0  0  0  0  0  0  0  0  0  0  0  0
  1  2  1  0
  1  3  2  0
  2 16  1  0
  2 20  2  0
  3 15  1  0
  3 27  1  0
  4  5  2  0
  5 28  1  0
  6 17  1  0
  6 22  1  0
  6 24  2  0
  7  8  1  0
  7  9  1  0
  8 10  1  0
  9 11  1  0
 10 13  1  0
 11 13  1  0
 12 14  1  0
 12 23  1  0
 13 29  1  0
 14 18  1  0
 14 23  1  0
 16 22  1  0
 17 23  1  0
 18 28  1  0
 19 21  1  0
 19 22  1  0
 20 27  1  0
 21 29  1  0
 25 29  2  0
 26 29  2  0
M  CHG  1  23   1
M  END
