ALP-POS-8df010a9-1
     RDKit          3D

 33 35  0  0  1  0  0  0  0  0999 V2000
   14.1732    0.6694   22.3846 C   0  0  0  0  0  0  0  0  0  0  0  0
   14.3059   -0.6949   22.1270 C   0  0  0  0  0  0  0  0  0  0  0  0
   13.0353    1.1493   23.0334 C   0  0  0  0  0  0  0  0  0  0  0  0
    6.7298   -5.3553   23.1964 C   0  0  0  0  0  0  0  0  0  0  0  0
    7.0946   -4.3394   25.3579 C   0  0  0  0  0  0  0  0  0  0  0  0
   13.3008   -1.5796   22.5181 C   0  0  0  0  0  0  0  0  0  0  0  0
   12.0303    0.2647   23.4245 C   0  0  0  0  0  0  0  0  0  0  0  0
    5.7295   -6.1591   23.7431 C   0  0  0  0  0  0  0  0  0  0  0  0
    6.0943   -5.1432   25.9045 C   0  0  0  0  0  0  0  0  0  0  0  0
    7.1263    0.4875   18.7216 C   0  0  0  0  0  0  0  0  0  0  0  0
    7.8205    0.0012   19.8294 C   0  0  0  0  0  0  0  0  0  0  0  0
    5.2567    1.0554   20.1426 C   0  0  0  0  0  0  0  0  0  0  0  0
    7.4124   -4.4454   24.0038 C   0  0  0  0  0  0  0  0  0  0  0  0
   12.1630   -1.0998   23.1668 C   0  0  0  0  0  0  0  0  0  0  0  0
    5.4117   -6.0530   25.0971 C   0  0  0  0  0  0  0  0  0  0  0  0
    5.8444    1.0147   18.8783 C   0  0  0  0  0  0  0  0  0  0  0  0
    7.2328    0.0419   21.0937 C   0  0  0  0  0  0  0  0  0  0  0  0
    5.9509    0.5690   21.2504 C   0  0  0  0  0  0  0  0  0  0  0  0
    8.4779   -3.5893   23.4216 C   0  0  0  0  0  0  0  0  0  0  0  0
    9.2493   -0.9947   22.1911 C   0  0  0  0  0  0  0  0  0  0  0  0
    3.6852   -7.8143   24.8194 C   0  0  0  0  0  0  0  0  0  0  0  0
    4.0722   -6.7730   27.0586 C   0  0  0  0  0  0  0  0  0  0  0  0
   11.0752   -2.0561   23.5899 C   0  0  0  0  0  0  0  0  0  0  0  0
    9.6779   -1.4247   23.5958 C   0  0  0  0  0  0  0  0  0  0  0  0
    7.9642   -0.4601   22.1957 N   0  0  0  0  0  0  0  0  0  0  0  0
    8.6954   -2.3755   24.0567 N   0  0  0  0  0  0  0  0  0  0  0  0
    4.4003   -6.8658   25.6498 N   0  0  0  0  0  0  0  0  0  0  0  0
    5.1384    1.5094   17.7501 N   0  0  0  0  0  0  0  0  0  0  0  0
    9.0812   -3.9771   22.4246 O   0  0  0  0  0  0  0  0  0  0  0  0
   10.0088   -1.0886   21.2306 O   0  0  0  0  0  0  0  0  0  0  0  0
    5.6858    1.4630   16.6218 O   0  0  0  0  0  0  0  0  0  0  0  0
    3.9862    1.9794   17.9117 O   0  0  0  0  0  0  0  0  0  0  0  0
    5.1868    0.6392   22.7985 Cl  0  0  0  0  0  0  0  0  0  0  0  0
  1  2  2  0
  1  3  1  0
  2  6  1  0
  3  7  2  0
  4  8  2  0
  4 13  1  0
  5  9  1  0
  5 13  2  0
  6 14  2  0
  7 14  1  0
  8 15  1  0
  9 15  2  0
 10 11  2  0
 10 16  1  0
 11 17  1  0
 12 16  2  0
 12 18  1  0
 13 19  1  0
 14 23  1  0
 15 27  1  0
 16 28  1  0
 17 18  2  0
 17 25  1  0
 18 33  1  0
 19 26  1  0
 19 29  2  0
 20 24  1  0
 20 25  1  0
 20 30  2  0
 21 27  1  0
 22 27  1  0
 23 24  1  0
 24 26  1  0
 28 31  1  0
 28 32  2  0
M  CHG  2  28   1  31  -1
M  END
