ALV-UNI-7ff1a6f9-28
     RDKit          3D

 23 26  0  0  0  0  0  0  0  0999 V2000
   10.2837   -0.4496   25.2992 C   0  0  0  0  0  0  0  0  0  0  0  0
    9.2884   -0.1428   23.1193 C   0  0  0  0  0  0  0  0  0  0  0  0
    9.8690   -1.7814   25.3011 C   0  0  0  0  0  0  0  0  0  0  0  0
    8.8737   -1.4746   23.1211 C   0  0  0  0  0  0  0  0  0  0  0  0
   12.7075    0.1216   22.9342 C   0  0  0  0  0  0  0  0  0  0  0  0
    9.9933    0.3697   24.2083 C   0  0  0  0  0  0  0  0  0  0  0  0
   11.6333    2.2618   23.7259 C   0  0  0  0  0  0  0  0  0  0  0  0
    9.1641   -2.2939   24.2121 C   0  0  0  0  0  0  0  0  0  0  0  0
   12.7167    1.5161   23.1264 C   0  0  0  0  0  0  0  0  0  0  0  0
   10.4219    1.7467   24.2065 C   0  0  0  0  0  0  0  0  0  0  0  0
   13.9172   -0.1517   22.3441 C   0  0  0  0  0  0  0  0  0  0  0  0
   11.5549    3.6170   23.9525 C   0  0  0  0  0  0  0  0  0  0  0  0
    9.9183    5.1285   24.9122 C   0  0  0  0  0  0  0  0  0  0  0  0
   12.0216    5.8235   24.0505 C   0  0  0  0  0  0  0  0  0  0  0  0
   10.7231    6.1767   24.6925 C   0  0  0  0  0  0  0  0  0  0  0  0
   14.5280   -1.4107   21.8885 C   0  0  0  0  0  0  0  0  0  0  0  0
   10.4346    7.5972   25.0231 C   0  0  0  0  0  0  0  0  0  0  0  0
   13.8430    2.0889   22.6936 N   0  0  0  0  0  0  0  0  0  0  0  0
    9.6199    2.6868   24.7051 N   0  0  0  0  0  0  0  0  0  0  0  0
   12.4215    4.6384   23.7008 N   0  0  0  0  0  0  0  0  0  0  0  0
   14.5529    1.0490   22.2237 N   0  0  0  0  0  0  0  0  0  0  0  0
   10.3152    3.8440   24.5504 N   0  0  0  0  0  0  0  0  0  0  0  0
    8.7659   -3.5728   24.2140 F   0  0  0  0  0  0  0  0  0  0  0  0
  1  3  2  0
  1  6  1  0
  2  4  1  0
  2  6  2  0
  3  8  1  0
  4  8  2  0
  5  9  1  0
  5 11  2  0
  6 10  1  0
  7  9  1  0
  7 10  1  0
  7 12  2  0
  8 23  1  0
  9 18  2  0
 10 19  2  0
 11 16  1  0
 11 21  1  0
 12 20  1  0
 12 22  1  0
 13 15  2  0
 13 22  1  0
 14 15  1  0
 14 20  2  0
 15 17  1  0
 18 21  1  0
 19 22  1  0
M  END
