ALV-UNI-7ff1a6f9-40
     RDKit          3D

 23 26  0  0  0  0  0  0  0  0999 V2000
   10.7394   -1.7552   22.4694 C   0  0  0  0  0  0  0  0  0  0  0  0
   11.8809    0.1196   21.4601 C   0  0  0  0  0  0  0  0  0  0  0  0
   11.9002   -2.0857   23.1686 C   0  0  0  0  0  0  0  0  0  0  0  0
   13.0418   -0.2108   22.1593 C   0  0  0  0  0  0  0  0  0  0  0  0
    7.4230   -0.8778   23.6467 C   0  0  0  0  0  0  0  0  0  0  0  0
    7.2357   -0.2246   24.8796 C   0  0  0  0  0  0  0  0  0  0  0  0
   10.7297   -0.6526   21.6151 C   0  0  0  0  0  0  0  0  0  0  0  0
   13.0514   -1.3134   23.0136 C   0  0  0  0  0  0  0  0  0  0  0  0
    9.5377   -0.3134   20.8969 C   0  0  0  0  0  0  0  0  0  0  0  0
    7.9407    0.0898   22.8207 C   0  0  0  0  0  0  0  0  0  0  0  0
    8.3264    0.0084   21.4575 C   0  0  0  0  0  0  0  0  0  0  0  0
    8.2339    0.0709   19.2343 C   0  0  0  0  0  0  0  0  0  0  0  0
    5.5395    0.8067   19.2177 C   0  0  0  0  0  0  0  0  0  0  0  0
    6.1615    0.6176   20.3860 C   0  0  0  0  0  0  0  0  0  0  0  0
    6.3917    0.5945   18.0053 C   0  0  0  0  0  0  0  0  0  0  0  0
    5.7140    0.8025   16.6750 C   0  0  0  0  0  0  0  0  0  0  0  0
    8.5152    2.5162   23.1651 C   0  0  0  0  0  0  0  0  0  0  0  0
    7.6045    1.0586   24.8446 N   0  0  0  0  0  0  0  0  0  0  0  0
    9.4750   -0.2733   19.5285 N   0  0  0  0  0  0  0  0  0  0  0  0
    7.6486    0.2513   18.0135 N   0  0  0  0  0  0  0  0  0  0  0  0
    7.4958    0.2531   20.3968 N   0  0  0  0  0  0  0  0  0  0  0  0
    8.0288    1.2196   23.5796 N   0  0  0  0  0  0  0  0  0  0  0  0
   14.1661   -1.6308   23.6850 F   0  0  0  0  0  0  0  0  0  0  0  0
  1  3  2  0
  1  7  1  0
  2  4  1  0
  2  7  2  0
  3  8  1  0
  4  8  2  0
  5  6  1  0
  5 10  2  0
  6 18  2  0
  7  9  1  0
  8 23  1  0
  9 11  2  0
  9 19  1  0
 10 11  1  0
 10 22  1  0
 11 21  1  0
 12 19  2  0
 12 20  1  0
 12 21  1  0
 13 14  2  0
 13 15  1  0
 14 21  1  0
 15 16  1  0
 15 20  2  0
 17 22  1  0
 18 22  1  0
M  END
