ALV-UNI-7ff1a6f9-43
     RDKit          3D

 22 25  0  0  0  0  0  0  0  0999 V2000
   14.5604   -1.2404   23.9956 C   0  0  0  0  0  0  0  0  0  0  0  0
   13.5761   -0.2726   24.1626 C   0  0  0  0  0  0  0  0  0  0  0  0
    9.8116   -1.4546   25.2687 C   0  0  0  0  0  0  0  0  0  0  0  0
    8.2755   -1.0746   23.4430 C   0  0  0  0  0  0  0  0  0  0  0  0
    9.1556   -2.6474   25.5724 C   0  0  0  0  0  0  0  0  0  0  0  0
    7.6195   -2.2675   23.7467 C   0  0  0  0  0  0  0  0  0  0  0  0
   14.3429   -2.2303   23.0509 C   0  0  0  0  0  0  0  0  0  0  0  0
   12.2992   -1.3545   22.4729 C   0  0  0  0  0  0  0  0  0  0  0  0
    9.3715   -0.6681   24.2040 C   0  0  0  0  0  0  0  0  0  0  0  0
   12.4208   -0.3236   23.3906 C   0  0  0  0  0  0  0  0  0  0  0  0
    8.0595   -3.0539   24.8114 C   0  0  0  0  0  0  0  0  0  0  0  0
   10.0453    0.5575   23.8922 C   0  0  0  0  0  0  0  0  0  0  0  0
   11.3810    0.6664   23.5407 C   0  0  0  0  0  0  0  0  0  0  0  0
   10.3672    2.6093   23.5747 C   0  0  0  0  0  0  0  0  0  0  0  0
   12.5962    2.8326   22.9828 C   0  0  0  0  0  0  0  0  0  0  0  0
   12.2042    4.1199   22.9338 C   0  0  0  0  0  0  0  0  0  0  0  0
   13.0434    5.2968   22.5842 C   0  0  0  0  0  0  0  0  0  0  0  0
   13.2337   -2.3127   22.2825 N   0  0  0  0  0  0  0  0  0  0  0  0
    9.4128    1.7868   23.9114 N   0  0  0  0  0  0  0  0  0  0  0  0
   11.5620    2.0008   23.3413 N   0  0  0  0  0  0  0  0  0  0  0  0
    7.4296   -4.1995   25.1031 F   0  0  0  0  0  0  0  0  0  0  0  0
   10.4819    4.3267   23.3471 S   0  0  0  0  0  0  0  0  0  0  0  0
  1  2  2  0
  1  7  1  0
  2 10  1  0
  3  5  2  0
  3  9  1  0
  4  6  1  0
  4  9  2  0
  5 11  1  0
  6 11  2  0
  7 18  2  0
  8 10  2  0
  8 18  1  0
  9 12  1  0
 10 13  1  0
 11 21  1  0
 12 13  2  0
 12 19  1  0
 13 20  1  0
 14 19  2  0
 14 20  1  0
 14 22  1  0
 15 16  2  0
 15 20  1  0
 16 17  1  0
 16 22  1  0
M  END
