ALV-UNI-7ff1a6f9-29
     RDKit          3D

 26 30  0  0  0  0  0  0  0  0999 V2000
    7.3450   -6.5697   21.9018 C   0  0  0  0  0  0  0  0  0  0  0  0
    8.1880   -5.4663   22.0480 C   0  0  0  0  0  0  0  0  0  0  0  0
    6.7151   -2.3947   21.3585 C   0  0  0  0  0  0  0  0  0  0  0  0
    7.8410   -0.2573   21.3306 C   0  0  0  0  0  0  0  0  0  0  0  0
    6.2598   -6.7709   22.7611 C   0  0  0  0  0  0  0  0  0  0  0  0
    5.7475   -1.8964   20.4861 C   0  0  0  0  0  0  0  0  0  0  0  0
    6.8735    0.2410   20.4582 C   0  0  0  0  0  0  0  0  0  0  0  0
    6.3369   -4.0326   25.0409 C   0  0  0  0  0  0  0  0  0  0  0  0
    6.8868   -4.7130   23.9333 C   0  0  0  0  0  0  0  0  0  0  0  0
    7.7618   -1.5751   21.7808 C   0  0  0  0  0  0  0  0  0  0  0  0
    7.9727   -4.5245   23.0620 C   0  0  0  0  0  0  0  0  0  0  0  0
    8.8280   -3.3856   23.2270 C   0  0  0  0  0  0  0  0  0  0  0  0
    6.0630   -5.8204   23.7654 C   0  0  0  0  0  0  0  0  0  0  0  0
    5.8267   -0.5786   20.0359 C   0  0  0  0  0  0  0  0  0  0  0  0
    8.7616   -2.0900   22.6826 C   0  0  0  0  0  0  0  0  0  0  0  0
    9.9542   -3.3669   24.0129 C   0  0  0  0  0  0  0  0  0  0  0  0
   10.6256   -4.2901   24.8398 C   0  0  0  0  0  0  0  0  0  0  0  0
   11.7390   -3.9078   25.4768 C   0  0  0  0  0  0  0  0  0  0  0  0
   12.2032   -2.5041   25.2649 C   0  0  0  0  0  0  0  0  0  0  0  0
   13.4582   -2.0977   25.9924 C   0  0  0  0  0  0  0  0  0  0  0  0
    5.2602   -4.6426   25.5415 N   0  0  0  0  0  0  0  0  0  0  0  0
    9.7630   -1.3038   23.0855 N   0  0  0  0  0  0  0  0  0  0  0  0
   11.6087   -1.6271   24.5099 N   0  0  0  0  0  0  0  0  0  0  0  0
    5.1185   -5.7196   24.7510 N   0  0  0  0  0  0  0  0  0  0  0  0
   10.4870   -2.0999   23.9016 N   0  0  0  0  0  0  0  0  0  0  0  0
    4.8975   -0.1001   19.1981 F   0  0  0  0  0  0  0  0  0  0  0  0
  1  2  2  0
  1  5  1  0
  2 11  1  0
  3  6  2  0
  3 10  1  0
  4  7  1  0
  4 10  2  0
  5 13  2  0
  6 14  1  0
  7 14  2  0
  8  9  1  0
  8 21  2  0
  9 11  2  0
  9 13  1  0
 10 15  1  0
 11 12  1  0
 12 15  1  0
 12 16  2  0
 13 24  1  0
 14 26  1  0
 15 22  2  0
 16 17  1  0
 16 25  1  0
 17 18  2  0
 18 19  1  0
 19 20  1  0
 19 23  2  0
 21 24  1  0
 22 25  1  0
 23 25  1  0
M  END
