ALV-UNI-7ff1a6f9-26
     RDKit          3D

 24 27  0  0  0  0  0  0  0  0999 V2000
   11.9604   -0.2737   23.2192 C   0  0  0  0  0  0  0  0  0  0  0  0
   13.8523    1.1025   22.6159 C   0  0  0  0  0  0  0  0  0  0  0  0
   12.6291   -1.4015   22.7433 C   0  0  0  0  0  0  0  0  0  0  0  0
   14.5210   -0.0253   22.1401 C   0  0  0  0  0  0  0  0  0  0  0  0
    9.6444    0.4848   25.6821 C   0  0  0  0  0  0  0  0  0  0  0  0
    8.6896    0.8378   23.5031 C   0  0  0  0  0  0  0  0  0  0  0  0
    8.6922   -0.5020   25.8802 C   0  0  0  0  0  0  0  0  0  0  0  0
   12.5720    0.9784   23.1554 C   0  0  0  0  0  0  0  0  0  0  0  0
    9.6363    1.1628   24.4682 C   0  0  0  0  0  0  0  0  0  0  0  0
   10.6005    2.1931   24.2144 C   0  0  0  0  0  0  0  0  0  0  0  0
   13.9094   -1.2774   22.2038 C   0  0  0  0  0  0  0  0  0  0  0  0
   11.8809    2.1439   23.6469 C   0  0  0  0  0  0  0  0  0  0  0  0
    7.7803   -0.1650   23.7986 C   0  0  0  0  0  0  0  0  0  0  0  0
   10.4001    3.5204   24.5178 C   0  0  0  0  0  0  0  0  0  0  0  0
   11.6793    5.5690   24.2920 C   0  0  0  0  0  0  0  0  0  0  0  0
    9.4971    5.4638   25.2279 C   0  0  0  0  0  0  0  0  0  0  0  0
   10.6847    6.2783   24.8418 C   0  0  0  0  0  0  0  0  0  0  0  0
   10.6753    7.7447   25.0867 C   0  0  0  0  0  0  0  0  0  0  0  0
    7.7570   -0.8456   24.9664 N   0  0  0  0  0  0  0  0  0  0  0  0
   12.4671    3.3389   23.5848 N   0  0  0  0  0  0  0  0  0  0  0  0
    9.3509    4.1813   25.0836 N   0  0  0  0  0  0  0  0  0  0  0  0
   11.5564    4.1926   24.1218 N   0  0  0  0  0  0  0  0  0  0  0  0
    6.8214   -0.4853   22.8058 N   0  0  0  0  0  0  0  0  0  0  0  0
   14.5515   -2.3605   21.7469 F   0  0  0  0  0  0  0  0  0  0  0  0
  1  3  2  0
  1  8  1  0
  2  4  1  0
  2  8  2  0
  3 11  1  0
  4 11  2  0
  5  7  2  0
  5  9  1  0
  6  9  2  0
  6 13  1  0
  7 19  1  0
  8 12  1  0
  9 10  1  0
 10 12  1  0
 10 14  2  0
 11 24  1  0
 12 20  2  0
 13 19  2  0
 13 23  1  0
 14 21  1  0
 14 22  1  0
 15 17  2  0
 15 22  1  0
 16 17  1  0
 16 21  2  0
 17 18  1  0
 20 22  1  0
M  END
