ALV-UNI-7ff1a6f9-19
     RDKit          3D

 24 27  0  0  0  0  0  0  0  0999 V2000
   10.6608    3.4097   24.0759 C   0  0  0  0  0  0  0  0  0  0  0  0
   12.8047    3.7360   23.0109 C   0  0  0  0  0  0  0  0  0  0  0  0
   10.3874    4.7709   23.9425 C   0  0  0  0  0  0  0  0  0  0  0  0
   12.5313    5.0972   22.8774 C   0  0  0  0  0  0  0  0  0  0  0  0
   10.1677    1.1406   21.1710 C   0  0  0  0  0  0  0  0  0  0  0  0
    9.0312   -0.0881   22.8004 C   0  0  0  0  0  0  0  0  0  0  0  0
   11.8696    2.8922   23.6102 C   0  0  0  0  0  0  0  0  0  0  0  0
   10.2086    0.5078   22.3967 C   0  0  0  0  0  0  0  0  0  0  0  0
   11.3225    5.6147   23.3432 C   0  0  0  0  0  0  0  0  0  0  0  0
   12.1504    1.4945   23.7474 C   0  0  0  0  0  0  0  0  0  0  0  0
   11.4073    0.4719   23.2064 C   0  0  0  0  0  0  0  0  0  0  0  0
   13.1431   -0.2990   24.3534 C   0  0  0  0  0  0  0  0  0  0  0  0
    7.9834    0.5750   20.8953 C   0  0  0  0  0  0  0  0  0  0  0  0
   13.9667   -1.3411   24.8725 C   0  0  0  0  0  0  0  0  0  0  0  0
   12.4942   -2.9819   23.8157 C   0  0  0  0  0  0  0  0  0  0  0  0
   11.7155   -2.0044   23.3245 C   0  0  0  0  0  0  0  0  0  0  0  0
   13.6646   -2.6338   24.6206 C   0  0  0  0  0  0  0  0  0  0  0  0
   14.4883   -3.7726   25.1384 C   0  0  0  0  0  0  0  0  0  0  0  0
    9.0681    1.1938   20.3911 N   0  0  0  0  0  0  0  0  0  0  0  0
    7.8955   -0.0737   22.0721 N   0  0  0  0  0  0  0  0  0  0  0  0
   13.2221    1.0122   24.4552 N   0  0  0  0  0  0  0  0  0  0  0  0
   12.0420   -0.6801   23.5941 N   0  0  0  0  0  0  0  0  0  0  0  0
    6.8133    0.6095   20.1055 N   0  0  0  0  0  0  0  0  0  0  0  0
   11.0598    6.9219   23.2151 F   0  0  0  0  0  0  0  0  0  0  0  0
  1  3  2  0
  1  7  1  0
  2  4  1  0
  2  7  2  0
  3  9  1  0
  4  9  2  0
  5  8  2  0
  5 19  1  0
  6  8  1  0
  6 20  2  0
  7 10  1  0
  8 11  1  0
  9 24  1  0
 10 11  2  0
 10 21  1  0
 11 22  1  0
 12 14  1  0
 12 21  2  0
 12 22  1  0
 13 19  2  0
 13 20  1  0
 13 23  1  0
 14 17  2  0
 15 16  2  0
 15 17  1  0
 16 22  1  0
 17 18  1  0
M  END
