ALV-UNI-7ff1a6f9-22
     RDKit          3D

 26 30  0  0  0  0  0  0  0  0999 V2000
   11.0320   -0.6330   22.6178 C   0  0  0  0  0  0  0  0  0  0  0  0
    9.1553   -1.0116   25.8923 C   0  0  0  0  0  0  0  0  0  0  0  0
    7.3341   -0.3134   24.4666 C   0  0  0  0  0  0  0  0  0  0  0  0
   11.8357   -1.6547   22.0659 C   0  0  0  0  0  0  0  0  0  0  0  0
    8.4687   -2.1878   26.1935 C   0  0  0  0  0  0  0  0  0  0  0  0
    6.6475   -1.4896   24.7677 C   0  0  0  0  0  0  0  0  0  0  0  0
   12.7625    0.2254   24.2146 C   0  0  0  0  0  0  0  0  0  0  0  0
   14.8175   -1.0910   23.9844 C   0  0  0  0  0  0  0  0  0  0  0  0
   13.5275   -0.7883   23.6519 C   0  0  0  0  0  0  0  0  0  0  0  0
    8.5881   -0.0744   25.0289 C   0  0  0  0  0  0  0  0  0  0  0  0
   11.4757    0.2621   23.6419 C   0  0  0  0  0  0  0  0  0  0  0  0
   10.5561    1.2563   24.1125 C   0  0  0  0  0  0  0  0  0  0  0  0
   13.1277   -1.7149   22.6198 C   0  0  0  0  0  0  0  0  0  0  0  0
    7.2148   -2.4268   25.6311 C   0  0  0  0  0  0  0  0  0  0  0  0
    9.2975    1.1411   24.7180 C   0  0  0  0  0  0  0  0  0  0  0  0
   10.7880    2.6107   24.0361 C   0  0  0  0  0  0  0  0  0  0  0  0
    9.5860    4.6200   24.6699 C   0  0  0  0  0  0  0  0  0  0  0  0
   11.7262    4.6246   23.6360 C   0  0  0  0  0  0  0  0  0  0  0  0
   10.5815    5.3890   24.2091 C   0  0  0  0  0  0  0  0  0  0  0  0
   10.6295    6.8749   24.2226 C   0  0  0  0  0  0  0  0  0  0  0  0
   14.1535   -2.5417   22.3504 N   0  0  0  0  0  0  0  0  0  0  0  0
    8.7535    2.3214   25.0122 N   0  0  0  0  0  0  0  0  0  0  0  0
   11.8358    3.3334   23.5488 N   0  0  0  0  0  0  0  0  0  0  0  0
   15.1392   -2.1435   23.1779 N   0  0  0  0  0  0  0  0  0  0  0  0
    9.6704    3.2325   24.5928 N   0  0  0  0  0  0  0  0  0  0  0  0
    6.5554   -3.5564   25.9204 F   0  0  0  0  0  0  0  0  0  0  0  0
  1  4  2  0
  1 11  1  0
  2  5  2  0
  2 10  1  0
  3  6  1  0
  3 10  2  0
  4 13  1  0
  5 14  1  0
  6 14  2  0
  7  9  1  0
  7 11  2  0
  8  9  2  0
  8 24  1  0
  9 13  1  0
 10 15  1  0
 11 12  1  0
 12 15  1  0
 12 16  2  0
 13 21  2  0
 14 26  1  0
 15 22  2  0
 16 23  1  0
 16 25  1  0
 17 19  2  0
 17 25  1  0
 18 19  1  0
 18 23  2  0
 19 20  1  0
 21 24  1  0
 22 25  1  0
M  END
