ALV-UNI-7ff1a6f9-32
     RDKit          3D

 23 26  0  0  0  0  0  0  0  0999 V2000
   11.5728    1.1357   22.2482 C   0  0  0  0  0  0  0  0  0  0  0  0
   11.5042   -1.1776   21.5547 C   0  0  0  0  0  0  0  0  0  0  0  0
   12.7855    0.9052   22.8975 C   0  0  0  0  0  0  0  0  0  0  0  0
   12.7170   -1.4082   22.2041 C   0  0  0  0  0  0  0  0  0  0  0  0
    8.2745    0.2818   23.9711 C   0  0  0  0  0  0  0  0  0  0  0  0
    7.8862    1.0828   25.0617 C   0  0  0  0  0  0  0  0  0  0  0  0
   10.9321    0.0943   21.5768 C   0  0  0  0  0  0  0  0  0  0  0  0
    8.4764    0.7802   21.4837 C   0  0  0  0  0  0  0  0  0  0  0  0
   13.3577   -0.3667   22.8755 C   0  0  0  0  0  0  0  0  0  0  0  0
    9.6786    0.3325   20.9059 C   0  0  0  0  0  0  0  0  0  0  0  0
    8.1822    1.1149   22.8831 C   0  0  0  0  0  0  0  0  0  0  0  0
    7.5962    0.8432   20.4312 C   0  0  0  0  0  0  0  0  0  0  0  0
    6.2430    1.2009   20.2649 C   0  0  0  0  0  0  0  0  0  0  0  0
    5.6957    1.1388   19.0450 C   0  0  0  0  0  0  0  0  0  0  0  0
    6.5709    0.6865   17.9224 C   0  0  0  0  0  0  0  0  0  0  0  0
    5.9319    0.6241   16.5595 C   0  0  0  0  0  0  0  0  0  0  0  0
    7.5139    3.5225   22.6113 C   0  0  0  0  0  0  0  0  0  0  0  0
    7.5709    2.3292   24.6996 N   0  0  0  0  0  0  0  0  0  0  0  0
    9.5788    0.1253   19.5904 N   0  0  0  0  0  0  0  0  0  0  0  0
    7.8219    0.3494   18.0403 N   0  0  0  0  0  0  0  0  0  0  0  0
    7.7610    2.3176   23.3692 N   0  0  0  0  0  0  0  0  0  0  0  0
    8.2957    0.4422   19.3126 N   0  0  0  0  0  0  0  0  0  0  0  0
   14.5223   -0.5881   23.4991 F   0  0  0  0  0  0  0  0  0  0  0  0
  1  3  2  0
  1  7  1  0
  2  4  1  0
  2  7  2  0
  3  9  1  0
  4  9  2  0
  5  6  1  0
  5 11  2  0
  6 18  2  0
  7 10  1  0
  8 10  1  0
  8 11  1  0
  8 12  2  0
  9 23  1  0
 10 19  2  0
 11 21  1  0
 12 13  1  0
 12 22  1  0
 13 14  2  0
 14 15  1  0
 15 16  1  0
 15 20  2  0
 17 21  1  0
 18 21  1  0
 19 22  1  0
 20 22  1  0
M  END
