ALV-UNI-7ff1a6f9-4
     RDKit          3D

 23 26  0  0  0  0  0  0  0  0999 V2000
    8.0757    0.3375   24.2686 C   0  0  0  0  0  0  0  0  0  0  0  0
    9.9290   -0.6537   25.4601 C   0  0  0  0  0  0  0  0  0  0  0  0
    7.2718   -0.7481   24.6158 C   0  0  0  0  0  0  0  0  0  0  0  0
    9.1251   -1.7393   25.8074 C   0  0  0  0  0  0  0  0  0  0  0  0
   13.2218   -0.1732   23.4742 C   0  0  0  0  0  0  0  0  0  0  0  0
   11.2238   -0.5617   22.1930 C   0  0  0  0  0  0  0  0  0  0  0  0
   11.3024    4.8579   24.1366 C   0  0  0  0  0  0  0  0  0  0  0  0
   13.7281   -1.3470   22.9398 C   0  0  0  0  0  0  0  0  0  0  0  0
   11.8196   -1.7181   21.7158 C   0  0  0  0  0  0  0  0  0  0  0  0
   13.2579    4.3324   22.8469 C   0  0  0  0  0  0  0  0  0  0  0  0
    9.4044    0.3847   24.6906 C   0  0  0  0  0  0  0  0  0  0  0  0
   12.4571    5.2798   23.4771 C   0  0  0  0  0  0  0  0  0  0  0  0
   11.0202    3.4860   24.1207 C   0  0  0  0  0  0  0  0  0  0  0  0
   11.9451    0.2199   23.0886 C   0  0  0  0  0  0  0  0  0  0  0  0
    7.7964   -1.7865   25.3853 C   0  0  0  0  0  0  0  0  0  0  0  0
   11.9057    2.6512   23.4531 C   0  0  0  0  0  0  0  0  0  0  0  0
   10.2388    1.5119   24.3308 C   0  0  0  0  0  0  0  0  0  0  0  0
   12.8258    6.7224   23.4493 C   0  0  0  0  0  0  0  0  0  0  0  0
   13.0575   -2.1324   22.0674 N   0  0  0  0  0  0  0  0  0  0  0  0
   13.0290    2.9973   22.8028 N   0  0  0  0  0  0  0  0  0  0  0  0
    9.9868    2.7606   24.6620 N   0  0  0  0  0  0  0  0  0  0  0  0
   11.3897    1.3946   23.5986 N   0  0  0  0  0  0  0  0  0  0  0  0
    7.0242   -2.8287   25.7197 F   0  0  0  0  0  0  0  0  0  0  0  0
  1  3  2  0
  1 11  1  0
  2  4  1  0
  2 11  2  0
  3 15  1  0
  4 15  2  0
  5  8  2  0
  5 14  1  0
  6  9  1  0
  6 14  2  0
  7 12  2  0
  7 13  1  0
  8 19  1  0
  9 19  2  0
 10 12  1  0
 10 20  2  0
 11 17  1  0
 12 18  1  0
 13 16  2  0
 13 21  1  0
 14 22  1  0
 15 23  1  0
 16 20  1  0
 16 22  1  0
 17 21  2  0
 17 22  1  0
M  END
