ALV-UNI-7ff1a6f9-23
     RDKit          3D

 26 30  0  0  0  0  0  0  0  0999 V2000
    6.0886    0.6616   21.3271 C   0  0  0  0  0  0  0  0  0  0  0  0
    7.1593   -0.0647   21.8849 C   0  0  0  0  0  0  0  0  0  0  0  0
    7.1870   -3.8502   22.1308 C   0  0  0  0  0  0  0  0  0  0  0  0
    7.6545   -3.2975   24.4358 C   0  0  0  0  0  0  0  0  0  0  0  0
    6.0490   -4.5512   22.5297 C   0  0  0  0  0  0  0  0  0  0  0  0
    6.5164   -3.9984   24.8347 C   0  0  0  0  0  0  0  0  0  0  0  0
    8.2531   -0.6367   19.7022 C   0  0  0  0  0  0  0  0  0  0  0  0
    5.2977    1.3107   19.0995 C   0  0  0  0  0  0  0  0  0  0  0  0
    6.1769    0.6902   19.9411 C   0  0  0  0  0  0  0  0  0  0  0  0
    7.9898   -3.2234   23.0839 C   0  0  0  0  0  0  0  0  0  0  0  0
    8.1919   -0.6842   21.1123 C   0  0  0  0  0  0  0  0  0  0  0  0
    9.2226   -1.3953   21.8104 C   0  0  0  0  0  0  0  0  0  0  0  0
    7.1950    0.0832   19.1173 C   0  0  0  0  0  0  0  0  0  0  0  0
    5.7136   -4.6253   23.8816 C   0  0  0  0  0  0  0  0  0  0  0  0
    9.1659   -2.4993   22.6717 C   0  0  0  0  0  0  0  0  0  0  0  0
   10.5588   -1.0739   21.7367 C   0  0  0  0  0  0  0  0  0  0  0  0
   12.6120   -1.9405   22.6945 C   0  0  0  0  0  0  0  0  0  0  0  0
   12.5184   -0.0807   21.2174 C   0  0  0  0  0  0  0  0  0  0  0  0
   13.3310   -1.0074   22.0564 C   0  0  0  0  0  0  0  0  0  0  0  0
   14.8060   -0.8321   22.1191 C   0  0  0  0  0  0  0  0  0  0  0  0
    6.9242    0.3382   17.8250 N   0  0  0  0  0  0  0  0  0  0  0  0
   10.3645   -2.8677   23.1224 N   0  0  0  0  0  0  0  0  0  0  0  0
   11.2294   -0.0995   21.0595 N   0  0  0  0  0  0  0  0  0  0  0  0
    5.7924    1.0685   17.8512 N   0  0  0  0  0  0  0  0  0  0  0  0
   11.2284   -1.9901   22.5477 N   0  0  0  0  0  0  0  0  0  0  0  0
    4.6207   -5.2984   24.2646 F   0  0  0  0  0  0  0  0  0  0  0  0
  1  2  2  0
  1  9  1  0
  2 11  1  0
  3  5  2  0
  3 10  1  0
  4  6  1  0
  4 10  2  0
  5 14  1  0
  6 14  2  0
  7 11  2  0
  7 13  1  0
  8  9  2  0
  8 24  1  0
  9 13  1  0
 10 15  1  0
 11 12  1  0
 12 15  1  0
 12 16  2  0
 13 21  2  0
 14 26  1  0
 15 22  2  0
 16 23  1  0
 16 25  1  0
 17 19  2  0
 17 25  1  0
 18 19  1  0
 18 23  2  0
 19 20  1  0
 21 24  1  0
 22 25  1  0
M  END
