ALV-UNI-7ff1a6f9-1
     RDKit          3D

 23 26  0  0  0  0  0  0  0  0999 V2000
    7.1604   -2.2979   21.1217 C   0  0  0  0  0  0  0  0  0  0  0  0
    8.5327   -0.3300   20.8366 C   0  0  0  0  0  0  0  0  0  0  0  0
    6.2733   -1.8190   20.1578 C   0  0  0  0  0  0  0  0  0  0  0  0
    7.6456    0.1489   19.8726 C   0  0  0  0  0  0  0  0  0  0  0  0
    8.2775   -5.3643   22.2624 C   0  0  0  0  0  0  0  0  0  0  0  0
    7.0184   -4.2402   23.9756 C   0  0  0  0  0  0  0  0  0  0  0  0
    7.3008   -6.3471   22.2648 C   0  0  0  0  0  0  0  0  0  0  0  0
    6.0979   -5.2732   23.9013 C   0  0  0  0  0  0  0  0  0  0  0  0
    8.2901   -1.5534   21.4612 C   0  0  0  0  0  0  0  0  0  0  0  0
    8.1262   -4.2942   23.1371 C   0  0  0  0  0  0  0  0  0  0  0  0
    9.1088   -3.2503   23.1744 C   0  0  0  0  0  0  0  0  0  0  0  0
    6.5159   -0.5956   19.5332 C   0  0  0  0  0  0  0  0  0  0  0  0
    9.2069   -2.0484   22.4579 C   0  0  0  0  0  0  0  0  0  0  0  0
   10.2149   -3.2538   23.9877 C   0  0  0  0  0  0  0  0  0  0  0  0
   10.7405   -4.1481   24.9598 C   0  0  0  0  0  0  0  0  0  0  0  0
   11.8844   -3.8397   25.5987 C   0  0  0  0  0  0  0  0  0  0  0  0
   12.1067   -1.7604   24.3987 C   0  0  0  0  0  0  0  0  0  0  0  0
   12.6083   -2.6032   25.3206 C   0  0  0  0  0  0  0  0  0  0  0  0
   13.8706   -2.3463   26.0788 C   0  0  0  0  0  0  0  0  0  0  0  0
    6.2110   -6.3290   23.0646 N   0  0  0  0  0  0  0  0  0  0  0  0
   10.2851   -1.3324   22.7799 N   0  0  0  0  0  0  0  0  0  0  0  0
   10.9177   -2.0735   23.7301 N   0  0  0  0  0  0  0  0  0  0  0  0
    5.6640   -0.1357   18.6074 F   0  0  0  0  0  0  0  0  0  0  0  0
  1  3  2  0
  1  9  1  0
  2  4  1  0
  2  9  2  0
  3 12  1  0
  4 12  2  0
  5  7  2  0
  5 10  1  0
  6  8  1  0
  6 10  2  0
  7 20  1  0
  8 20  2  0
  9 13  1  0
 10 11  1  0
 11 13  1  0
 11 14  2  0
 12 23  1  0
 13 21  2  0
 14 15  1  0
 14 22  1  0
 15 16  2  0
 16 18  1  0
 17 18  2  0
 17 22  1  0
 18 19  1  0
 21 22  1  0
M  END
