ALV-UNI-7ff1a6f9-8
     RDKit          3D

 23 26  0  0  0  0  0  0  0  0999 V2000
    7.4572   -0.8582   21.1786 C   0  0  0  0  0  0  0  0  0  0  0  0
    8.0095   -1.5714   22.2367 C   0  0  0  0  0  0  0  0  0  0  0  0
    8.3182   -5.2702   22.1383 C   0  0  0  0  0  0  0  0  0  0  0  0
    7.4135   -5.0362   24.3662 C   0  0  0  0  0  0  0  0  0  0  0  0
    7.2167   -6.0435   21.7722 C   0  0  0  0  0  0  0  0  0  0  0  0
    6.3119   -5.8095   24.0001 C   0  0  0  0  0  0  0  0  0  0  0  0
    8.2471   -0.6396   20.0614 C   0  0  0  0  0  0  0  0  0  0  0  0
   10.0229   -1.7665   20.9861 C   0  0  0  0  0  0  0  0  0  0  0  0
    8.4167   -4.7665   23.4354 C   0  0  0  0  0  0  0  0  0  0  0  0
    9.3163   -2.0376   22.1467 C   0  0  0  0  0  0  0  0  0  0  0  0
    6.2135   -6.3132   22.7030 C   0  0  0  0  0  0  0  0  0  0  0  0
    9.5479   -3.9726   23.8113 C   0  0  0  0  0  0  0  0  0  0  0  0
    9.9191   -2.7828   23.2309 C   0  0  0  0  0  0  0  0  0  0  0  0
   11.3053   -3.3616   24.8637 C   0  0  0  0  0  0  0  0  0  0  0  0
   12.4452   -3.1651   25.6978 C   0  0  0  0  0  0  0  0  0  0  0  0
   12.9065   -1.0765   24.5137 C   0  0  0  0  0  0  0  0  0  0  0  0
   11.8341   -1.2567   23.7258 C   0  0  0  0  0  0  0  0  0  0  0  0
   13.2219   -2.0709   25.5387 C   0  0  0  0  0  0  0  0  0  0  0  0
   14.4323   -1.8087   26.3811 C   0  0  0  0  0  0  0  0  0  0  0  0
    9.5203   -1.0769   19.9375 N   0  0  0  0  0  0  0  0  0  0  0  0
   10.4081   -4.3255   24.8200 N   0  0  0  0  0  0  0  0  0  0  0  0
   11.0467   -2.3887   23.9041 N   0  0  0  0  0  0  0  0  0  0  0  0
    5.1556   -7.0559   22.3514 F   0  0  0  0  0  0  0  0  0  0  0  0
  1  2  2  0
  1  7  1  0
  2 10  1  0
  3  5  2  0
  3  9  1  0
  4  6  1  0
  4  9  2  0
  5 11  1  0
  6 11  2  0
  7 20  2  0
  8 10  2  0
  8 20  1  0
  9 12  1  0
 10 13  1  0
 11 23  1  0
 12 13  2  0
 12 21  1  0
 13 22  1  0
 14 15  1  0
 14 21  2  0
 14 22  1  0
 15 18  2  0
 16 17  2  0
 16 18  1  0
 17 22  1  0
 18 19  1  0
M  END
