ALV-UNI-7ff1a6f9-20
     RDKit          3D

 23 26  0  0  0  0  0  0  0  0999 V2000
    9.3408   -1.4457   25.0856 C   0  0  0  0  0  0  0  0  0  0  0  0
    7.1559   -0.7508   24.3239 C   0  0  0  0  0  0  0  0  0  0  0  0
    8.8730   -2.7510   25.2370 C   0  0  0  0  0  0  0  0  0  0  0  0
    6.6880   -2.0561   24.4753 C   0  0  0  0  0  0  0  0  0  0  0  0
   12.2113    0.2926   22.8481 C   0  0  0  0  0  0  0  0  0  0  0  0
    8.4823   -0.4456   24.6291 C   0  0  0  0  0  0  0  0  0  0  0  0
    7.5466   -3.0562   24.9319 C   0  0  0  0  0  0  0  0  0  0  0  0
   10.8141    0.4440   22.7661 C   0  0  0  0  0  0  0  0  0  0  0  0
    8.9627    0.8948   24.4739 C   0  0  0  0  0  0  0  0  0  0  0  0
    9.9918    1.2891   23.6516 C   0  0  0  0  0  0  0  0  0  0  0  0
   12.5226   -0.5769   21.8315 C   0  0  0  0  0  0  0  0  0  0  0  0
    9.1221    3.0082   24.7523 C   0  0  0  0  0  0  0  0  0  0  0  0
    9.0379    4.3890   25.0989 C   0  0  0  0  0  0  0  0  0  0  0  0
   10.8900    4.8483   23.5705 C   0  0  0  0  0  0  0  0  0  0  0  0
   10.9734    3.5493   23.2407 C   0  0  0  0  0  0  0  0  0  0  0  0
    9.8821    5.2822   24.5374 C   0  0  0  0  0  0  0  0  0  0  0  0
   13.8043   -1.1415   21.3794 C   0  0  0  0  0  0  0  0  0  0  0  0
    9.8451    6.7446   24.8596 C   0  0  0  0  0  0  0  0  0  0  0  0
    8.4289    1.9614   25.1516 N   0  0  0  0  0  0  0  0  0  0  0  0
   10.2750   -0.2718   21.7756 N   0  0  0  0  0  0  0  0  0  0  0  0
   11.3391   -0.8814   21.2258 N   0  0  0  0  0  0  0  0  0  0  0  0
   10.0964    2.6448   23.8286 N   0  0  0  0  0  0  0  0  0  0  0  0
    7.0973   -4.3097   25.0773 F   0  0  0  0  0  0  0  0  0  0  0  0
  1  3  2  0
  1  6  1  0
  2  4  1  0
  2  6  2  0
  3  7  1  0
  4  7  2  0
  5  8  1  0
  5 11  2  0
  6  9  1  0
  7 23  1  0
  8 10  1  0
  8 20  2  0
  9 10  2  0
  9 19  1  0
 10 22  1  0
 11 17  1  0
 11 21  1  0
 12 13  1  0
 12 19  2  0
 12 22  1  0
 13 16  2  0
 14 15  2  0
 14 16  1  0
 15 22  1  0
 16 18  1  0
 20 21  1  0
M  END
