ALV-UNI-7ff1a6f9-7
     RDKit          3D

 23 26  0  0  0  0  0  0  0  0999 V2000
   12.0754   -2.1993   22.6765 C   0  0  0  0  0  0  0  0  0  0  0  0
   12.2064    0.1914   22.9997 C   0  0  0  0  0  0  0  0  0  0  0  0
   13.2599   -2.3614   23.3950 C   0  0  0  0  0  0  0  0  0  0  0  0
   13.3909    0.0293   23.7183 C   0  0  0  0  0  0  0  0  0  0  0  0
    8.8877   -1.6809   24.4920 C   0  0  0  0  0  0  0  0  0  0  0  0
    8.2072   -3.4061   22.9606 C   0  0  0  0  0  0  0  0  0  0  0  0
    8.5069   -2.5224   25.5248 C   0  0  0  0  0  0  0  0  0  0  0  0
    7.8570   -4.1704   24.0620 C   0  0  0  0  0  0  0  0  0  0  0  0
   11.5487   -0.9229   22.4788 C   0  0  0  0  0  0  0  0  0  0  0  0
    8.7318   -2.1387   23.1884 C   0  0  0  0  0  0  0  0  0  0  0  0
   13.9176   -1.2471   23.9160 C   0  0  0  0  0  0  0  0  0  0  0  0
   10.3326   -0.7564   21.7408 C   0  0  0  0  0  0  0  0  0  0  0  0
    9.1139   -1.2995   22.0732 C   0  0  0  0  0  0  0  0  0  0  0  0
    8.9921   -0.1005   20.2103 C   0  0  0  0  0  0  0  0  0  0  0  0
    8.2990    0.4535   19.0939 C   0  0  0  0  0  0  0  0  0  0  0  0
    6.2467   -0.6145   19.8844 C   0  0  0  0  0  0  0  0  0  0  0  0
    6.8947   -1.1384   20.9373 C   0  0  0  0  0  0  0  0  0  0  0  0
    6.9798    0.2133   18.9271 C   0  0  0  0  0  0  0  0  0  0  0  0
    6.1966    0.7645   17.7755 C   0  0  0  0  0  0  0  0  0  0  0  0
    7.9937   -3.7598   25.3428 N   0  0  0  0  0  0  0  0  0  0  0  0
   10.2514   -0.0163   20.5886 N   0  0  0  0  0  0  0  0  0  0  0  0
    8.2521   -0.8804   21.0925 N   0  0  0  0  0  0  0  0  0  0  0  0
   15.0551   -1.4029   24.6060 F   0  0  0  0  0  0  0  0  0  0  0  0
  1  3  2  0
  1  9  1  0
  2  4  1  0
  2  9  2  0
  3 11  1  0
  4 11  2  0
  5  7  2  0
  5 10  1  0
  6  8  1  0
  6 10  2  0
  7 20  1  0
  8 20  2  0
  9 12  1  0
 10 13  1  0
 11 23  1  0
 12 13  2  0
 12 21  1  0
 13 22  1  0
 14 15  1  0
 14 21  2  0
 14 22  1  0
 15 18  2  0
 16 17  2  0
 16 18  1  0
 17 22  1  0
 18 19  1  0
M  END
