ALV-UNI-7ff1a6f9-31
     RDKit          3D

 26 30  0  0  0  0  0  0  0  0999 V2000
   11.2229   -1.0481   22.0959 C   0  0  0  0  0  0  0  0  0  0  0  0
   10.0377   -1.7737   22.2702 C   0  0  0  0  0  0  0  0  0  0  0  0
    6.6113   -0.1650   22.0477 C   0  0  0  0  0  0  0  0  0  0  0  0
    6.2225   -2.0652   20.6071 C   0  0  0  0  0  0  0  0  0  0  0  0
    6.2840    0.6960   21.0003 C   0  0  0  0  0  0  0  0  0  0  0  0
    5.8952   -1.2041   19.5597 C   0  0  0  0  0  0  0  0  0  0  0  0
    9.8221   -0.9941   24.5667 C   0  0  0  0  0  0  0  0  0  0  0  0
   12.8179    0.5522   23.4109 C   0  0  0  0  0  0  0  0  0  0  0  0
   11.7091   -0.2882   23.1729 C   0  0  0  0  0  0  0  0  0  0  0  0
    6.5807   -1.5457   21.8511 C   0  0  0  0  0  0  0  0  0  0  0  0
    9.3508   -1.7458   23.4854 C   0  0  0  0  0  0  0  0  0  0  0  0
    8.1400   -2.5001   23.6297 C   0  0  0  0  0  0  0  0  0  0  0  0
   11.0054   -0.2782   24.3720 C   0  0  0  0  0  0  0  0  0  0  0  0
    5.9259    0.1765   19.7563 C   0  0  0  0  0  0  0  0  0  0  0  0
    6.9192   -2.4355   22.9334 C   0  0  0  0  0  0  0  0  0  0  0  0
    7.9525   -3.4998   24.5526 C   0  0  0  0  0  0  0  0  0  0  0  0
    8.7282   -4.0995   25.5652 C   0  0  0  0  0  0  0  0  0  0  0  0
    8.1971   -5.0860   26.2976 C   0  0  0  0  0  0  0  0  0  0  0  0
    6.7938   -5.4923   25.9871 C   0  0  0  0  0  0  0  0  0  0  0  0
    6.2185   -6.6044   26.8247 C   0  0  0  0  0  0  0  0  0  0  0  0
   12.8297    1.0571   24.6466 N   0  0  0  0  0  0  0  0  0  0  0  0
    6.0212   -3.3207   23.3732 N   0  0  0  0  0  0  0  0  0  0  0  0
    6.0504   -4.9610   25.0609 N   0  0  0  0  0  0  0  0  0  0  0  0
   11.7229    0.5382   25.2040 N   0  0  0  0  0  0  0  0  0  0  0  0
    6.6686   -3.9673   24.3665 N   0  0  0  0  0  0  0  0  0  0  0  0
    5.6116    1.0034   18.7505 F   0  0  0  0  0  0  0  0  0  0  0  0
  1  2  2  0
  1  9  1  0
  2 11  1  0
  3  5  2  0
  3 10  1  0
  4  6  1  0
  4 10  2  0
  5 14  1  0
  6 14  2  0
  7 11  2  0
  7 13  1  0
  8  9  1  0
  8 21  2  0
  9 13  2  0
 10 15  1  0
 11 12  1  0
 12 15  1  0
 12 16  2  0
 13 24  1  0
 14 26  1  0
 15 22  2  0
 16 17  1  0
 16 25  1  0
 17 18  2  0
 18 19  1  0
 19 20  1  0
 19 23  2  0
 21 24  1  0
 22 25  1  0
 23 25  1  0
M  END
