ALV-UNI-7ff1a6f9-44
     RDKit          3D

 25 29  0  0  0  0  0  0  0  0999 V2000
    9.5314   -1.0002   25.8300 C   0  0  0  0  0  0  0  0  0  0  0  0
    7.5992    0.0122   24.7913 C   0  0  0  0  0  0  0  0  0  0  0  0
    8.7272   -2.0265   26.3256 C   0  0  0  0  0  0  0  0  0  0  0  0
    6.7950   -1.0141   25.2868 C   0  0  0  0  0  0  0  0  0  0  0  0
   10.7299   -1.1288   22.2675 C   0  0  0  0  0  0  0  0  0  0  0  0
   13.8400   -0.0370   24.1430 C   0  0  0  0  0  0  0  0  0  0  0  0
   11.3664   -2.2446   21.7406 C   0  0  0  0  0  0  0  0  0  0  0  0
   14.9468   -0.8452   23.9967 C   0  0  0  0  0  0  0  0  0  0  0  0
   12.7896   -0.6047   23.3743 C   0  0  0  0  0  0  0  0  0  0  0  0
    8.9674    0.0192   25.0628 C   0  0  0  0  0  0  0  0  0  0  0  0
   11.4498   -0.2804   23.1068 C   0  0  0  0  0  0  0  0  0  0  0  0
    7.3590   -2.0335   26.0540 C   0  0  0  0  0  0  0  0  0  0  0  0
    9.7935    1.0736   24.5539 C   0  0  0  0  0  0  0  0  0  0  0  0
   10.8707    0.9014   23.6999 C   0  0  0  0  0  0  0  0  0  0  0  0
   13.3015   -1.7540   22.7790 C   0  0  0  0  0  0  0  0  0  0  0  0
   10.5422    3.0068   24.2128 C   0  0  0  0  0  0  0  0  0  0  0  0
   12.3497    2.7601   22.7844 C   0  0  0  0  0  0  0  0  0  0  0  0
   12.3519    4.0969   22.9464 C   0  0  0  0  0  0  0  0  0  0  0  0
   13.2958    5.0696   22.3346 C   0  0  0  0  0  0  0  0  0  0  0  0
   12.6516   -2.6054   21.9631 N   0  0  0  0  0  0  0  0  0  0  0  0
    9.5926    2.4038   24.8727 N   0  0  0  0  0  0  0  0  0  0  0  0
   14.6090   -1.8830   23.1672 N   0  0  0  0  0  0  0  0  0  0  0  0
   11.3353    2.1647   23.4959 N   0  0  0  0  0  0  0  0  0  0  0  0
    6.5868   -3.0191   26.5300 F   0  0  0  0  0  0  0  0  0  0  0  0
   11.0467    4.6574   24.0245 S   0  0  0  0  0  0  0  0  0  0  0  0
  1  3  2  0
  1 10  1  0
  2  4  1  0
  2 10  2  0
  3 12  1  0
  4 12  2  0
  5  7  2  0
  5 11  1  0
  6  8  2  0
  6  9  1  0
  7 20  1  0
  8 22  1  0
  9 11  2  0
  9 15  1  0
 10 13  1  0
 11 14  1  0
 12 24  1  0
 13 14  2  0
 13 21  1  0
 14 23  1  0
 15 20  2  0
 15 22  1  0
 16 21  2  0
 16 23  1  0
 16 25  1  0
 17 18  2  0
 17 23  1  0
 18 19  1  0
 18 25  1  0
M  END
