ALV-UNI-7ff1a6f9-11
     RDKit          3D

 23 26  0  0  0  0  0  0  0  0999 V2000
   14.7461   -1.2862   23.7673 C   0  0  0  0  0  0  0  0  0  0  0  0
   13.8060   -0.2845   23.9820 C   0  0  0  0  0  0  0  0  0  0  0  0
    9.9148   -1.3585   25.0241 C   0  0  0  0  0  0  0  0  0  0  0  0
    8.4274   -0.7824   23.2095 C   0  0  0  0  0  0  0  0  0  0  0  0
    9.1716   -2.5137   25.2666 C   0  0  0  0  0  0  0  0  0  0  0  0
    7.6842   -1.9376   23.4519 C   0  0  0  0  0  0  0  0  0  0  0  0
   14.4899   -2.2129   22.7696 C   0  0  0  0  0  0  0  0  0  0  0  0
   12.4922   -1.2141   22.2310 C   0  0  0  0  0  0  0  0  0  0  0  0
    9.5427   -0.4928   23.9955 C   0  0  0  0  0  0  0  0  0  0  0  0
   12.6547   -0.2407   23.2036 C   0  0  0  0  0  0  0  0  0  0  0  0
   11.6669    0.7794   23.4015 C   0  0  0  0  0  0  0  0  0  0  0  0
    8.0563   -2.8032   24.4805 C   0  0  0  0  0  0  0  0  0  0  0  0
   10.3106    0.7010   23.7451 C   0  0  0  0  0  0  0  0  0  0  0  0
   11.9206    2.1259   23.2725 C   0  0  0  0  0  0  0  0  0  0  0  0
   10.6315    4.1684   23.4960 C   0  0  0  0  0  0  0  0  0  0  0  0
   12.9371    4.1108   22.9217 C   0  0  0  0  0  0  0  0  0  0  0  0
   11.7061    4.9078   23.1910 C   0  0  0  0  0  0  0  0  0  0  0  0
   11.7626    6.3908   23.1026 C   0  0  0  0  0  0  0  0  0  0  0  0
   13.3832   -2.2026   21.9932 N   0  0  0  0  0  0  0  0  0  0  0  0
    9.7278    1.8961   23.8332 N   0  0  0  0  0  0  0  0  0  0  0  0
   13.0515    2.8175   22.9556 N   0  0  0  0  0  0  0  0  0  0  0  0
   10.7183    2.7796   23.5419 N   0  0  0  0  0  0  0  0  0  0  0  0
    7.3426   -3.9126   24.7134 F   0  0  0  0  0  0  0  0  0  0  0  0
  1  2  2  0
  1  7  1  0
  2 10  1  0
  3  5  2  0
  3  9  1  0
  4  6  1  0
  4  9  2  0
  5 12  1  0
  6 12  2  0
  7 19  2  0
  8 10  2  0
  8 19  1  0
  9 13  1  0
 10 11  1  0
 11 13  1  0
 11 14  2  0
 12 23  1  0
 13 20  2  0
 14 21  1  0
 14 22  1  0
 15 17  2  0
 15 22  1  0
 16 17  1  0
 16 21  2  0
 17 18  1  0
 20 22  1  0
M  END
