ALV-UNI-7ff1a6f9-5
     RDKit          3D

 23 26  0  0  0  0  0  0  0  0999 V2000
   14.5902   -1.1151   23.6349 C   0  0  0  0  0  0  0  0  0  0  0  0
   13.6402   -0.1442   23.9320 C   0  0  0  0  0  0  0  0  0  0  0  0
    9.9451   -1.3419   25.4438 C   0  0  0  0  0  0  0  0  0  0  0  0
    8.2346   -0.8815   23.8009 C   0  0  0  0  0  0  0  0  0  0  0  0
    9.2876   -2.5199   25.7983 C   0  0  0  0  0  0  0  0  0  0  0  0
    7.5771   -2.0595   24.1553 C   0  0  0  0  0  0  0  0  0  0  0  0
   14.2600   -2.0800   22.6970 C   0  0  0  0  0  0  0  0  0  0  0  0
   12.1741   -1.1749   22.3686 C   0  0  0  0  0  0  0  0  0  0  0  0
    9.4186   -0.5227   24.4451 C   0  0  0  0  0  0  0  0  0  0  0  0
   12.4065   -0.1676   23.2912 C   0  0  0  0  0  0  0  0  0  0  0  0
   11.4062    0.8192   23.5766 C   0  0  0  0  0  0  0  0  0  0  0  0
    8.1036   -2.8787   25.1541 C   0  0  0  0  0  0  0  0  0  0  0  0
   10.0980    0.6948   24.0790 C   0  0  0  0  0  0  0  0  0  0  0  0
   11.5721    2.1700   23.3910 C   0  0  0  0  0  0  0  0  0  0  0  0
   12.6062    3.0073   22.9260 C   0  0  0  0  0  0  0  0  0  0  0  0
   12.4058    4.3299   22.8803 C   0  0  0  0  0  0  0  0  0  0  0  0
   11.0764    4.8385   23.3332 C   0  0  0  0  0  0  0  0  0  0  0  0
   10.8751    6.3302   23.2724 C   0  0  0  0  0  0  0  0  0  0  0  0
   13.0721   -2.1352   22.0539 N   0  0  0  0  0  0  0  0  0  0  0  0
    9.4746    1.8690   24.2055 N   0  0  0  0  0  0  0  0  0  0  0  0
   10.1011    4.0951   23.7674 N   0  0  0  0  0  0  0  0  0  0  0  0
   10.3908    2.7655   23.7802 N   0  0  0  0  0  0  0  0  0  0  0  0
    7.4722   -4.0099   25.4946 F   0  0  0  0  0  0  0  0  0  0  0  0
  1  2  2  0
  1  7  1  0
  2 10  1  0
  3  5  2  0
  3  9  1  0
  4  6  1  0
  4  9  2  0
  5 12  1  0
  6 12  2  0
  7 19  2  0
  8 10  2  0
  8 19  1  0
  9 13  1  0
 10 11  1  0
 11 13  1  0
 11 14  2  0
 12 23  1  0
 13 20  2  0
 14 15  1  0
 14 22  1  0
 15 16  2  0
 16 17  1  0
 17 18  1  0
 17 21  2  0
 20 22  1  0
 21 22  1  0
M  END
