ALV-UNI-7ff1a6f9-9
     RDKit          3D

 26 30  0  0  0  0  0  0  0  0999 V2000
    6.5105   -2.0290   22.1077 C   0  0  0  0  0  0  0  0  0  0  0  0
    7.9285   -1.1614   20.3545 C   0  0  0  0  0  0  0  0  0  0  0  0
    5.3828   -1.7343   21.3415 C   0  0  0  0  0  0  0  0  0  0  0  0
    6.8008   -0.8667   19.5883 C   0  0  0  0  0  0  0  0  0  0  0  0
    7.6351   -4.2022   25.0264 C   0  0  0  0  0  0  0  0  0  0  0  0
    7.7380   -5.1647   21.3596 C   0  0  0  0  0  0  0  0  0  0  0  0
    6.7081   -5.1926   25.3222 C   0  0  0  0  0  0  0  0  0  0  0  0
    6.9275   -6.2162   20.9896 C   0  0  0  0  0  0  0  0  0  0  0  0
    7.5624   -4.9575   22.7534 C   0  0  0  0  0  0  0  0  0  0  0  0
    7.7834   -1.7425   21.6142 C   0  0  0  0  0  0  0  0  0  0  0  0
    8.0807   -4.0721   23.7123 C   0  0  0  0  0  0  0  0  0  0  0  0
    5.5280   -1.1531   20.0818 C   0  0  0  0  0  0  0  0  0  0  0  0
    8.9413   -2.0450   22.4010 C   0  0  0  0  0  0  0  0  0  0  0  0
    9.0447   -3.0698   23.3118 C   0  0  0  0  0  0  0  0  0  0  0  0
    6.6385   -5.9032   23.1883 C   0  0  0  0  0  0  0  0  0  0  0  0
   10.9230   -1.8953   23.1883 C   0  0  0  0  0  0  0  0  0  0  0  0
   12.2679   -1.5991   23.5586 C   0  0  0  0  0  0  0  0  0  0  0  0
   12.2142   -3.4803   25.1192 C   0  0  0  0  0  0  0  0  0  0  0  0
   10.9478   -3.7635   24.7740 C   0  0  0  0  0  0  0  0  0  0  0  0
   12.8984   -2.3539   24.4853 C   0  0  0  0  0  0  0  0  0  0  0  0
   14.3085   -2.0929   24.9178 C   0  0  0  0  0  0  0  0  0  0  0  0
    6.1756   -6.0713   24.4414 N   0  0  0  0  0  0  0  0  0  0  0  0
   10.1051   -1.3224   22.3287 N   0  0  0  0  0  0  0  0  0  0  0  0
    6.2651   -6.6561   22.1062 N   0  0  0  0  0  0  0  0  0  0  0  0
   10.3152   -2.9758   23.8187 N   0  0  0  0  0  0  0  0  0  0  0  0
    4.4450   -0.8701   19.3461 F   0  0  0  0  0  0  0  0  0  0  0  0
  1  3  2  0
  1 10  1  0
  2  4  1  0
  2 10  2  0
  3 12  1  0
  4 12  2  0
  5  7  2  0
  5 11  1  0
  6  8  2  0
  6  9  1  0
  7 22  1  0
  8 24  1  0
  9 11  2  0
  9 15  1  0
 10 13  1  0
 11 14  1  0
 12 26  1  0
 13 14  2  0
 13 23  1  0
 14 25  1  0
 15 22  2  0
 15 24  1  0
 16 17  1  0
 16 23  2  0
 16 25  1  0
 17 20  2  0
 18 19  2  0
 18 20  1  0
 19 25  1  0
 20 21  1  0
M  END
