ALV-UNI-7ff1a6f9-36
     RDKit          3D

 23 26  0  0  0  0  0  0  0  0999 V2000
   10.8958   -2.1344   22.4073 C   0  0  0  0  0  0  0  0  0  0  0  0
   11.9035   -0.1561   21.4544 C   0  0  0  0  0  0  0  0  0  0  0  0
   12.1294   -2.5049   22.9426 C   0  0  0  0  0  0  0  0  0  0  0  0
   13.1371   -0.5266   21.9897 C   0  0  0  0  0  0  0  0  0  0  0  0
    8.9458   -0.1164   24.2822 C   0  0  0  0  0  0  0  0  0  0  0  0
   10.7828   -0.9600   21.6631 C   0  0  0  0  0  0  0  0  0  0  0  0
    8.3187   -0.3163   21.8147 C   0  0  0  0  0  0  0  0  0  0  0  0
   13.2500   -1.7011   22.7338 C   0  0  0  0  0  0  0  0  0  0  0  0
    9.5080   -0.5772   21.1097 C   0  0  0  0  0  0  0  0  0  0  0  0
    8.0620   -0.3625   23.2600 C   0  0  0  0  0  0  0  0  0  0  0  0
    7.4075    0.0031   20.8379 C   0  0  0  0  0  0  0  0  0  0  0  0
    8.1877   -0.2986   25.4544 C   0  0  0  0  0  0  0  0  0  0  0  0
    6.0465    0.3682   20.8052 C   0  0  0  0  0  0  0  0  0  0  0  0
    5.4645    0.6162   19.6256 C   0  0  0  0  0  0  0  0  0  0  0  0
    6.3111    0.4870   18.4020 C   0  0  0  0  0  0  0  0  0  0  0  0
    8.6436   -0.1600   26.8479 C   0  0  0  0  0  0  0  0  0  0  0  0
    5.6333    0.7703   17.0867 C   0  0  0  0  0  0  0  0  0  0  0  0
    9.3719   -0.4366   19.7887 N   0  0  0  0  0  0  0  0  0  0  0  0
    6.9199   -0.6343   25.2015 N   0  0  0  0  0  0  0  0  0  0  0  0
    7.5683    0.1526   18.3959 N   0  0  0  0  0  0  0  0  0  0  0  0
    6.8745   -0.6649   23.8588 N   0  0  0  0  0  0  0  0  0  0  0  0
    8.0781   -0.0807   19.6359 N   0  0  0  0  0  0  0  0  0  0  0  0
   14.4346   -2.0570   23.2479 F   0  0  0  0  0  0  0  0  0  0  0  0
  1  3  2  0
  1  6  1  0
  2  4  1  0
  2  6  2  0
  3  8  1  0
  4  8  2  0
  5 10  2  0
  5 12  1  0
  6  9  1  0
  7  9  1  0
  7 10  1  0
  7 11  2  0
  8 23  1  0
  9 18  2  0
 10 21  1  0
 11 13  1  0
 11 22  1  0
 12 16  1  0
 12 19  2  0
 13 14  2  0
 14 15  1  0
 15 17  1  0
 15 20  2  0
 18 22  1  0
 19 21  1  0
 20 22  1  0
M  END
