ALV-UNI-7ff1a6f9-30
     RDKit          3D

 26 30  0  0  0  0  0  0  0  0999 V2000
   10.9672   -0.2259   22.2367 C   0  0  0  0  0  0  0  0  0  0  0  0
    8.8067   -0.5105   25.3396 C   0  0  0  0  0  0  0  0  0  0  0  0
    7.1759    0.3848   23.7981 C   0  0  0  0  0  0  0  0  0  0  0  0
   11.7159   -1.3052   21.7182 C   0  0  0  0  0  0  0  0  0  0  0  0
    7.9971   -1.6270   25.5478 C   0  0  0  0  0  0  0  0  0  0  0  0
    6.3662   -0.7318   24.0063 C   0  0  0  0  0  0  0  0  0  0  0  0
   12.6339    0.4287   23.9901 C   0  0  0  0  0  0  0  0  0  0  0  0
   14.5716   -1.0689   23.8813 C   0  0  0  0  0  0  0  0  0  0  0  0
   13.3459   -0.6389   23.4581 C   0  0  0  0  0  0  0  0  0  0  0  0
    8.3961    0.4955   24.4648 C   0  0  0  0  0  0  0  0  0  0  0  0
   11.4066    0.5993   23.3196 C   0  0  0  0  0  0  0  0  0  0  0  0
   10.5468    1.6641   23.7472 C   0  0  0  0  0  0  0  0  0  0  0  0
   12.9479   -1.4993   22.3697 C   0  0  0  0  0  0  0  0  0  0  0  0
    6.7768   -1.7377   24.8811 C   0  0  0  0  0  0  0  0  0  0  0  0
    9.2328    1.6494   24.2498 C   0  0  0  0  0  0  0  0  0  0  0  0
   10.8920    2.9934   23.7368 C   0  0  0  0  0  0  0  0  0  0  0  0
   12.0296    3.7398   23.3687 C   0  0  0  0  0  0  0  0  0  0  0  0
   12.0078    5.0718   23.4991 C   0  0  0  0  0  0  0  0  0  0  0  0
   10.7576    5.6884   24.0356 C   0  0  0  0  0  0  0  0  0  0  0  0
   10.7576    7.1886   24.1732 C   0  0  0  0  0  0  0  0  0  0  0  0
   13.9121   -2.4121   22.1561 N   0  0  0  0  0  0  0  0  0  0  0  0
    8.7718    2.8691   24.5383 N   0  0  0  0  0  0  0  0  0  0  0  0
    9.6910    5.0305   24.3846 N   0  0  0  0  0  0  0  0  0  0  0  0
   14.8598   -2.1277   23.0704 N   0  0  0  0  0  0  0  0  0  0  0  0
    9.8003    3.6841   24.2191 N   0  0  0  0  0  0  0  0  0  0  0  0
    5.9993   -2.8100   25.0811 F   0  0  0  0  0  0  0  0  0  0  0  0
  1  4  2  0
  1 11  1  0
  2  5  2  0
  2 10  1  0
  3  6  1  0
  3 10  2  0
  4 13  1  0
  5 14  1  0
  6 14  2  0
  7  9  1  0
  7 11  2  0
  8  9  2  0
  8 24  1  0
  9 13  1  0
 10 15  1  0
 11 12  1  0
 12 15  1  0
 12 16  2  0
 13 21  2  0
 14 26  1  0
 15 22  2  0
 16 17  1  0
 16 25  1  0
 17 18  2  0
 18 19  1  0
 19 20  1  0
 19 23  2  0
 21 24  1  0
 22 25  1  0
 23 25  1  0
M  END
