ALV-UNI-7ff1a6f9-16
     RDKit          3D

 26 30  0  0  0  0  0  0  0  0999 V2000
    8.7935   -1.3114   19.5950 C   0  0  0  0  0  0  0  0  0  0  0  0
    9.4305   -1.8838   20.7032 C   0  0  0  0  0  0  0  0  0  0  0  0
    7.9837   -5.3549   22.2403 C   0  0  0  0  0  0  0  0  0  0  0  0
    7.1374   -4.9691   24.4701 C   0  0  0  0  0  0  0  0  0  0  0  0
    6.9294   -6.2337   21.9921 C   0  0  0  0  0  0  0  0  0  0  0  0
    6.0830   -5.8479   24.2219 C   0  0  0  0  0  0  0  0  0  0  0  0
    7.4049   -1.7040   22.0420 C   0  0  0  0  0  0  0  0  0  0  0  0
    6.4708   -0.3467   18.8818 C   0  0  0  0  0  0  0  0  0  0  0  0
    7.4462   -0.9325   19.7172 C   0  0  0  0  0  0  0  0  0  0  0  0
    8.0878   -4.7226   23.4792 C   0  0  0  0  0  0  0  0  0  0  0  0
    8.7462   -2.0759   21.9049 C   0  0  0  0  0  0  0  0  0  0  0  0
    6.7885   -1.1350   20.9254 C   0  0  0  0  0  0  0  0  0  0  0  0
    5.9790   -6.4802   22.9829 C   0  0  0  0  0  0  0  0  0  0  0  0
    9.1706   -3.8203   23.7341 C   0  0  0  0  0  0  0  0  0  0  0  0
    9.4360   -2.6696   23.0300 C   0  0  0  0  0  0  0  0  0  0  0  0
   10.9127   -2.9913   24.6544 C   0  0  0  0  0  0  0  0  0  0  0  0
   12.0621   -2.6374   25.4209 C   0  0  0  0  0  0  0  0  0  0  0  0
   12.3330   -0.6464   24.0281 C   0  0  0  0  0  0  0  0  0  0  0  0
   11.2513   -0.9751   23.3034 C   0  0  0  0  0  0  0  0  0  0  0  0
   12.7523   -1.5131   25.1290 C   0  0  0  0  0  0  0  0  0  0  0  0
   13.9675   -1.0883   25.8948 C   0  0  0  0  0  0  0  0  0  0  0  0
    5.2946   -0.1857   19.4923 N   0  0  0  0  0  0  0  0  0  0  0  0
   10.0863   -4.0142   24.7369 N   0  0  0  0  0  0  0  0  0  0  0  0
    5.5165   -0.6707   20.7253 N   0  0  0  0  0  0  0  0  0  0  0  0
   10.5537   -2.1358   23.6183 N   0  0  0  0  0  0  0  0  0  0  0  0
    4.9665   -7.3242   22.7446 F   0  0  0  0  0  0  0  0  0  0  0  0
  1  2  2  0
  1  9  1  0
  2 11  1  0
  3  5  2  0
  3 10  1  0
  4  6  1  0
  4 10  2  0
  5 13  1  0
  6 13  2  0
  7 11  2  0
  7 12  1  0
  8  9  1  0
  8 22  2  0
  9 12  2  0
 10 14  1  0
 11 15  1  0
 12 24  1  0
 13 26  1  0
 14 15  2  0
 14 23  1  0
 15 25  1  0
 16 17  1  0
 16 23  2  0
 16 25  1  0
 17 20  2  0
 18 19  2  0
 18 20  1  0
 19 25  1  0
 20 21  1  0
 22 24  1  0
M  END
