ALV-UNI-7ff1a6f9-2
     RDKit          3D

 23 26  0  0  0  0  0  0  0  0999 V2000
   10.8121   -1.8506   22.4799 C   0  0  0  0  0  0  0  0  0  0  0  0
   11.9956   -0.1764   21.2018 C   0  0  0  0  0  0  0  0  0  0  0  0
   12.0191   -2.2867   23.0263 C   0  0  0  0  0  0  0  0  0  0  0  0
   13.2027   -0.6125   21.7482 C   0  0  0  0  0  0  0  0  0  0  0  0
    9.0464    1.2328   23.8143 C   0  0  0  0  0  0  0  0  0  0  0  0
    7.1723   -0.2730   23.7455 C   0  0  0  0  0  0  0  0  0  0  0  0
    8.7895    1.4050   25.1649 C   0  0  0  0  0  0  0  0  0  0  0  0
    6.9994   -0.0336   25.0992 C   0  0  0  0  0  0  0  0  0  0  0  0
   10.8004   -0.7954   21.5676 C   0  0  0  0  0  0  0  0  0  0  0  0
    8.2178    0.3761   23.0982 C   0  0  0  0  0  0  0  0  0  0  0  0
    8.4402    0.1631   21.6979 C   0  0  0  0  0  0  0  0  0  0  0  0
   13.2144   -1.6677   22.6605 C   0  0  0  0  0  0  0  0  0  0  0  0
    9.5531   -0.3448   21.0028 C   0  0  0  0  0  0  0  0  0  0  0  0
    7.5240    0.4438   20.7139 C   0  0  0  0  0  0  0  0  0  0  0  0
    6.2153    0.9654   20.6701 C   0  0  0  0  0  0  0  0  0  0  0  0
    5.6067    1.1052   19.4861 C   0  0  0  0  0  0  0  0  0  0  0  0
    6.3686    0.6917   18.2698 C   0  0  0  0  0  0  0  0  0  0  0  0
    5.6626    0.8586   16.9496 C   0  0  0  0  0  0  0  0  0  0  0  0
    7.7838    0.7917   25.8282 N   0  0  0  0  0  0  0  0  0  0  0  0
    9.3670   -0.3866   19.6811 N   0  0  0  0  0  0  0  0  0  0  0  0
    7.5760    0.2073   18.2741 N   0  0  0  0  0  0  0  0  0  0  0  0
    8.1177    0.0998   19.5178 N   0  0  0  0  0  0  0  0  0  0  0  0
   14.3734   -2.0867   23.1852 F   0  0  0  0  0  0  0  0  0  0  0  0
  1  3  2  0
  1  9  1  0
  2  4  1  0
  2  9  2  0
  3 12  1  0
  4 12  2  0
  5  7  2  0
  5 10  1  0
  6  8  1  0
  6 10  2  0
  7 19  1  0
  8 19  2  0
  9 13  1  0
 10 11  1  0
 11 13  1  0
 11 14  2  0
 12 23  1  0
 13 20  2  0
 14 15  1  0
 14 22  1  0
 15 16  2  0
 16 17  1  0
 17 18  1  0
 17 21  2  0
 20 22  1  0
 21 22  1  0
M  END
