ALV-UNI-7ff1a6f9-15
     RDKit          3D

 26 30  0  0  0  0  0  0  0  0999 V2000
    6.4702   -5.2087   25.2349 C   0  0  0  0  0  0  0  0  0  0  0  0
    7.5166   -4.3106   25.0168 C   0  0  0  0  0  0  0  0  0  0  0  0
    6.8852   -1.9317   22.1046 C   0  0  0  0  0  0  0  0  0  0  0  0
    8.5418   -1.1340   20.5373 C   0  0  0  0  0  0  0  0  0  0  0  0
    5.9687   -6.0022   24.1979 C   0  0  0  0  0  0  0  0  0  0  0  0
    5.8699   -1.5015   21.2504 C   0  0  0  0  0  0  0  0  0  0  0  0
    7.5265   -0.7038   19.6830 C   0  0  0  0  0  0  0  0  0  0  0  0
    7.8936   -5.1351   21.3266 C   0  0  0  0  0  0  0  0  0  0  0  0
    7.6051   -4.9659   22.6978 C   0  0  0  0  0  0  0  0  0  0  0  0
    8.2212   -1.7479   21.7481 C   0  0  0  0  0  0  0  0  0  0  0  0
    8.0981   -4.1758   23.7498 C   0  0  0  0  0  0  0  0  0  0  0  0
    6.5622   -5.8523   22.9426 C   0  0  0  0  0  0  0  0  0  0  0  0
    6.1905   -0.8876   20.0396 C   0  0  0  0  0  0  0  0  0  0  0  0
    9.2636   -2.1894   22.6253 C   0  0  0  0  0  0  0  0  0  0  0  0
    9.1835   -3.2545   23.4912 C   0  0  0  0  0  0  0  0  0  0  0  0
   11.1634   -2.2592   23.6028 C   0  0  0  0  0  0  0  0  0  0  0  0
   12.4865   -2.1066   24.1125 C   0  0  0  0  0  0  0  0  0  0  0  0
   12.1091   -4.0342   25.5683 C   0  0  0  0  0  0  0  0  0  0  0  0
   10.8626   -4.1823   25.0915 C   0  0  0  0  0  0  0  0  0  0  0  0
   12.9516   -2.9535   25.0570 C   0  0  0  0  0  0  0  0  0  0  0  0
   14.3300   -2.8446   25.6330 C   0  0  0  0  0  0  0  0  0  0  0  0
    7.1113   -6.0444   20.7407 N   0  0  0  0  0  0  0  0  0  0  0  0
   10.4896   -1.5780   22.6985 N   0  0  0  0  0  0  0  0  0  0  0  0
    6.3170   -6.4606   21.7411 N   0  0  0  0  0  0  0  0  0  0  0  0
   10.4012   -3.3013   24.1199 N   0  0  0  0  0  0  0  0  0  0  0  0
    5.2154   -0.4745   19.2193 F   0  0  0  0  0  0  0  0  0  0  0  0
  1  2  2  0
  1  5  1  0
  2 11  1  0
  3  6  2  0
  3 10  1  0
  4  7  1  0
  4 10  2  0
  5 12  2  0
  6 13  1  0
  7 13  2  0
  8  9  1  0
  8 22  2  0
  9 11  2  0
  9 12  1  0
 10 14  1  0
 11 15  1  0
 12 24  1  0
 13 26  1  0
 14 15  2  0
 14 23  1  0
 15 25  1  0
 16 17  1  0
 16 23  2  0
 16 25  1  0
 17 20  2  0
 18 19  2  0
 18 20  1  0
 19 25  1  0
 20 21  1  0
 22 24  1  0
M  END
