ALV-UNI-7ff1a6f9-47
     RDKit          3D

 22 24  0  0  0  0  0  0  0  0999 V2000
   11.6066   -1.6774   22.9799 C   0  0  0  0  0  0  0  0  0  0  0  0
   12.6188   -1.2295   22.1363 C   0  0  0  0  0  0  0  0  0  0  0  0
   10.9103   -0.7700   23.7787 C   0  0  0  0  0  0  0  0  0  0  0  0
   12.9387    0.1276   22.0884 C   0  0  0  0  0  0  0  0  0  0  0  0
   10.5284    1.5271   24.5404 C   0  0  0  0  0  0  0  0  0  0  0  0
   10.8483    2.8842   24.4925 C   0  0  0  0  0  0  0  0  0  0  0  0
    6.3578    7.4882   22.8186 C   0  0  0  0  0  0  0  0  0  0  0  0
   12.5569    2.4248   22.8501 C   0  0  0  0  0  0  0  0  0  0  0  0
    8.4950    7.1444   23.8669 C   0  0  0  0  0  0  0  0  0  0  0  0
    6.7100    6.5096   21.9030 C   0  0  0  0  0  0  0  0  0  0  0  0
   11.2189    0.5996   23.7433 C   0  0  0  0  0  0  0  0  0  0  0  0
   12.2483    1.0552   22.8855 C   0  0  0  0  0  0  0  0  0  0  0  0
   11.8606    3.3322   23.6490 C   0  0  0  0  0  0  0  0  0  0  0  0
    7.2729    7.8058   23.8161 C   0  0  0  0  0  0  0  0  0  0  0  0
    8.7514    6.1811   22.9046 C   0  0  0  0  0  0  0  0  0  0  0  0
   11.0207    5.7071   23.8896 C   0  0  0  0  0  0  0  0  0  0  0  0
    7.9592    9.0344   25.7332 C   0  0  0  0  0  0  0  0  0  0  0  0
   12.2010    4.7836   23.5989 C   0  0  0  0  0  0  0  0  0  0  0  0
    7.8874    5.8455   21.9204 N   0  0  0  0  0  0  0  0  0  0  0  0
    9.9978    5.5134   22.9647 N   0  0  0  0  0  0  0  0  0  0  0  0
   11.0332    6.4958   24.8292 O   0  0  0  0  0  0  0  0  0  0  0  0
    6.9734    8.7599   24.7385 O   0  0  0  0  0  0  0  0  0  0  0  0
  1  2  2  0
  1  3  1  0
  2  4  1  0
  3 11  2  0
  4 12  2  0
  5  6  2  0
  5 11  1  0
  6 13  1  0
  7 10  2  0
  7 14  1  0
  8 12  1  0
  8 13  2  0
  9 14  2  0
  9 15  1  0
 10 19  1  0
 11 12  1  0
 13 18  1  0
 14 22  1  0
 15 19  2  0
 15 20  1  0
 16 18  1  0
 16 20  1  0
 16 21  2  0
 17 22  1  0
M  END
