AMD-UAU-3d234461-1
     RDKit          3D

 16 17  0  0  0  0  0  0  0  0999 V2000
    8.5353   -0.4025   19.1735 C   0  0  0  0  0  0  0  0  0  0  0  0
    9.0788   -0.6625   20.4340 C   0  0  0  0  0  0  0  0  0  0  0  0
    4.8898    1.5531   18.7780 C   0  0  0  0  0  0  0  0  0  0  0  0
    7.1774    0.3901   21.4604 C   0  0  0  0  0  0  0  0  0  0  0  0
    5.6315    1.1244   17.6958 C   0  0  0  0  0  0  0  0  0  0  0  0
    6.6309    0.6514   20.1924 C   0  0  0  0  0  0  0  0  0  0  0  0
    5.4028    1.3099   20.0439 C   0  0  0  0  0  0  0  0  0  0  0  0
    7.3152    0.2514   19.0255 C   0  0  0  0  0  0  0  0  0  0  0  0
    8.3993   -0.2658   21.5791 C   0  0  0  0  0  0  0  0  0  0  0  0
    4.6104    1.7656   21.1821 C   0  0  0  0  0  0  0  0  0  0  0  0
   10.1814   -1.1934   22.8517 C   0  0  0  0  0  0  0  0  0  0  0  0
    6.8199    0.4861   17.7956 N   0  0  0  0  0  0  0  0  0  0  0  0
    3.5931    3.6423   22.2745 N   0  0  0  0  0  0  0  0  0  0  0  0
    4.3590    3.1366   21.2400 N   0  0  0  0  0  0  0  0  0  0  0  0
    4.1633    0.9883   22.0367 O   0  0  0  0  0  0  0  0  0  0  0  0
    8.9253   -0.5172   22.8080 O   0  0  0  0  0  0  0  0  0  0  0  0
  1  2  2  0
  1  8  1  0
  2  9  1  0
  3  5  1  0
  3  7  2  0
  4  6  1  0
  4  9  2  0
  5 12  2  0
  6  7  1  0
  6  8  2  0
  7 10  1  0
  8 12  1  0
  9 16  1  0
 10 14  1  0
 10 15  2  0
 11 16  1  0
 13 14  1  0
M  END
