AME-NAT-624a42b4-1
     RDKit          3D

 23 26  0  0  0  0  0  0  0  0999 V2000
   14.5466   -1.1794   22.0283 C   0  0  0  0  0  0  0  0  0  0  0  0
   13.6470   -2.0183   22.6902 C   0  0  0  0  0  0  0  0  0  0  0  0
    9.3472   -0.5591   22.5698 C   0  0  0  0  0  0  0  0  0  0  0  0
    8.7214   -1.6376   24.6392 C   0  0  0  0  0  0  0  0  0  0  0  0
   14.3753    0.2106   22.0346 C   0  0  0  0  0  0  0  0  0  0  0  0
   12.5461   -1.5011   23.3810 C   0  0  0  0  0  0  0  0  0  0  0  0
    8.5323   -1.4431   21.8626 C   0  0  0  0  0  0  0  0  0  0  0  0
    7.9065   -2.5216   23.9320 C   0  0  0  0  0  0  0  0  0  0  0  0
    9.4418   -0.6564   23.9581 C   0  0  0  0  0  0  0  0  0  0  0  0
   13.2746    0.7473   22.7236 C   0  0  0  0  0  0  0  0  0  0  0  0
   12.3954   -0.1141   23.3738 C   0  0  0  0  0  0  0  0  0  0  0  0
    7.8120   -2.4244   22.5437 C   0  0  0  0  0  0  0  0  0  0  0  0
   11.7914    2.0010   23.6113 C   0  0  0  0  0  0  0  0  0  0  0  0
   12.3100    6.5701   23.4959 C   0  0  0  0  0  0  0  0  0  0  0  0
   10.8524    6.7313   23.8782 C   0  0  0  0  0  0  0  0  0  0  0  0
   12.5659    5.1059   23.7817 C   0  0  0  0  0  0  0  0  0  0  0  0
   10.1898    5.4737   23.3440 C   0  0  0  0  0  0  0  0  0  0  0  0
   10.3195    0.2982   24.7216 C   0  0  0  0  0  0  0  0  0  0  0  0
   10.9721    3.1749   24.0605 C   0  0  0  0  0  0  0  0  0  0  0  0
   12.8834    2.0570   22.8823 N   0  0  0  0  0  0  0  0  0  0  0  0
   11.4569    0.7149   23.9328 N   0  0  0  0  0  0  0  0  0  0  0  0
   11.2933    4.4319   23.3178 N   0  0  0  0  0  0  0  0  0  0  0  0
    6.8067   -3.5147   21.6712 Cl  0  0  0  0  0  0  0  0  0  0  0  0
  1  2  2  0
  1  5  1  0
  2  6  1  0
  3  7  2  0
  3  9  1  0
  4  8  1  0
  4  9  2  0
  5 10  2  0
  6 11  2  0
  7 12  1  0
  8 12  2  0
  9 18  1  0
 10 11  1  0
 10 20  1  0
 11 21  1  0
 12 23  1  0
 13 19  1  0
 13 20  2  0
 13 21  1  0
 14 15  1  0
 14 16  1  0
 15 17  1  0
 16 22  1  0
 17 22  1  0
 18 21  1  0
 19 22  1  0
M  CHG  1  22   1
M  END
