AND-WAB-9085730e-2
     RDKit          3D

 24 25  0  0  1  0  0  0  0  0999 V2000
   13.4818   -0.7580   23.4725 C   0  0  0  0  0  0  0  0  0  0  0  0
   13.1947   -2.2437   23.2792 C   0  0  0  0  0  0  0  0  0  0  0  0
   12.4063   -0.0841   24.3189 C   0  0  0  0  0  0  0  0  0  0  0  0
   11.8002   -2.4777   22.7027 C   0  0  0  0  0  0  0  0  0  0  0  0
   11.0104   -0.3146   23.7442 C   0  0  0  0  0  0  0  0  0  0  0  0
    6.8727   -4.5666   27.1510 C   0  0  0  0  0  0  0  0  0  0  0  0
    5.7098   -5.2779   26.4597 C   0  0  0  0  0  0  0  0  0  0  0  0
    7.0266   -5.6901   24.4736 C   0  0  0  0  0  0  0  0  0  0  0  0
   10.7145   -1.8087   23.5565 C   0  0  0  0  0  0  0  0  0  0  0  0
    8.2261   -5.0557   26.6136 C   0  0  0  0  0  0  0  0  0  0  0  0
    8.2610   -5.0102   25.0747 C   0  0  0  0  0  0  0  0  0  0  0  0
    9.3802   -4.3005   27.2730 C   0  0  0  0  0  0  0  0  0  0  0  0
    6.3306    1.7101   21.0535 C   0  0  0  0  0  0  0  0  0  0  0  0
    8.3310   -0.9282   23.3918 C   0  0  0  0  0  0  0  0  0  0  0  0
    6.9242   -1.1336   22.8231 C   0  0  0  0  0  0  0  0  0  0  0  0
    9.3356   -2.0111   22.9313 C   0  0  0  0  0  0  0  0  0  0  0  0
    8.8040   -3.4485   23.1669 C   0  0  0  0  0  0  0  0  0  0  0  0
    5.7771   -5.1412   25.0049 N   0  0  0  0  0  0  0  0  0  0  0  0
    6.9600   -1.1018   21.3645 N   0  0  0  0  0  0  0  0  0  0  0  0
    8.3108   -3.6027   24.5798 N   0  0  0  0  0  0  0  0  0  0  0  0
    7.8432   -3.7405   22.1523 O   0  0  0  0  0  0  0  0  0  0  0  0
    6.9579    0.2381   18.9668 O   0  0  0  0  0  0  0  0  0  0  0  0
    8.7892    0.8365   20.7543 O   0  0  0  0  0  0  0  0  0  0  0  0
    7.2720    0.3166   20.5507 S   0  0  0  0  0  0  0  0  0  0  0  0
  1  2  1  0
  1  3  1  0
  2  4  1  0
  3  5  1  0
  4  9  1  0
  5  9  1  0
  6  7  1  0
  6 10  1  0
  7 18  1  0
  8 11  1  0
  8 18  1  0
  9 16  1  0
 10 11  1  0
 10 12  1  0
 11 20  1  0
 13 24  1  0
 14 15  1  0
 14 16  1  0
 15 19  1  0
 16 17  1  0
 17 20  1  0
 17 21  1  0
 19 24  1  0
 22 24  1  0
 23 24  1  0
M  CHG  1  20   1
M  END
