AND-WAB-34fc5141-1
     RDKit          3D

 27 29  0  0  1  0  0  0  0  0999 V2000
   13.2086   -1.6537   21.7364 C   0  0  0  0  0  0  0  0  0  0  0  0
   13.9893   -1.8243   22.9334 C   0  0  0  0  0  0  0  0  0  0  0  0
    8.1683    0.1868   25.2292 C   0  0  0  0  0  0  0  0  0  0  0  0
    8.4710    0.7765   26.5082 C   0  0  0  0  0  0  0  0  0  0  0  0
   13.4601   -0.4497   21.2035 C   0  0  0  0  0  0  0  0  0  0  0  0
   14.7285   -0.7268   23.1481 C   0  0  0  0  0  0  0  0  0  0  0  0
    9.2182    0.3333   24.4078 C   0  0  0  0  0  0  0  0  0  0  0  0
    9.7095    1.2903   26.4838 C   0  0  0  0  0  0  0  0  0  0  0  0
   10.9321    6.6724   23.6580 C   0  0  0  0  0  0  0  0  0  0  0  0
   10.4691    5.4319   24.3497 C   0  0  0  0  0  0  0  0  0  0  0  0
   14.0842    4.0598   22.1030 C   0  0  0  0  0  0  0  0  0  0  0  0
    9.6188    3.3030   24.2543 C   0  0  0  0  0  0  0  0  0  0  0  0
   10.5526    5.3698   25.8434 C   0  0  0  0  0  0  0  0  0  0  0  0
   10.6235    6.7777   26.4026 C   0  0  0  0  0  0  0  0  0  0  0  0
   11.7308    7.5505   25.7025 C   0  0  0  0  0  0  0  0  0  0  0  0
   14.4685    0.2790   22.0554 C   0  0  0  0  0  0  0  0  0  0  0  0
   10.3207    1.0458   25.1354 C   0  0  0  0  0  0  0  0  0  0  0  0
   14.0682    2.6942   21.5230 C   0  0  0  0  0  0  0  0  0  0  0  0
   12.4484    1.4700   23.0556 C   0  0  0  0  0  0  0  0  0  0  0  0
   11.9798    2.5257   24.0552 C   0  0  0  0  0  0  0  0  0  0  0  0
   13.9198    1.6010   22.6017 C   0  0  0  0  0  0  0  0  0  0  0  0
   11.5009    7.6526   24.2603 N   0  0  0  0  0  0  0  0  0  0  0  0
   10.0438    4.4562   23.6208 N   0  0  0  0  0  0  0  0  0  0  0  0
   13.1798    4.9270   21.6717 N   0  0  0  0  0  0  0  0  0  0  0  0
   10.6204    2.3224   24.4719 N   0  0  0  0  0  0  0  0  0  0  0  0
   15.0102    4.3304   23.0117 N   0  0  0  0  0  0  0  0  0  0  0  0
    8.4568    3.1088   24.6200 O   0  0  0  0  0  0  0  0  0  0  0  0
  1  2  1  0
  1  5  2  0
  2  6  2  0
  3  4  1  0
  3  7  2  0
  4  8  2  0
  5 16  1  0
  6 16  1  0
  7 17  1  0
  8 17  1  0
  9 10  1  0
  9 22  2  0
 10 13  1  0
 10 23  2  0
 11 18  1  0
 11 24  1  0
 11 26  2  0
 12 23  1  0
 12 25  1  0
 12 27  2  0
 13 14  1  0
 14 15  1  0
 15 22  1  0
 16 21  1  0
 17 25  1  0
 18 21  1  0
 19 20  1  0
 19 21  1  0
 20 25  1  0
M  CHG  1  26   1
M  END
