AND-WAB-9085730e-1
     RDKit          3D

 16 17  0  0  1  0  0  0  0  0999 V2000
    9.0843   -2.9486   24.0939 C   0  0  0  0  0  0  0  0  0  0  0  0
    7.1819   -2.4410   22.6852 C   0  0  0  0  0  0  0  0  0  0  0  0
   12.8908    1.0753   22.9674 C   0  0  0  0  0  0  0  0  0  0  0  0
    9.4821   -1.4771   24.1469 C   0  0  0  0  0  0  0  0  0  0  0  0
    7.5253   -0.9549   22.6972 C   0  0  0  0  0  0  0  0  0  0  0  0
   10.7728    1.8754   21.8319 C   0  0  0  0  0  0  0  0  0  0  0  0
   12.4323    3.4291   22.8417 C   0  0  0  0  0  0  0  0  0  0  0  0
   11.4133    0.7637   22.6671 C   0  0  0  0  0  0  0  0  0  0  0  0
    7.2629   -4.5152   23.9090 C   0  0  0  0  0  0  0  0  0  0  0  0
   11.2829   -0.5784   21.9492 C   0  0  0  0  0  0  0  0  0  0  0  0
    9.8394   -1.0146   21.6918 C   0  0  0  0  0  0  0  0  0  0  0  0
   13.0404    2.3694   23.6369 N   0  0  0  0  0  0  0  0  0  0  0  0
    7.6347   -3.1008   23.9165 N   0  0  0  0  0  0  0  0  0  0  0  0
   10.9928    3.1831   22.5206 N   0  0  0  0  0  0  0  0  0  0  0  0
    9.0033   -0.7524   22.9146 N   0  0  0  0  0  0  0  0  0  0  0  0
    9.3829   -0.3531   20.5157 O   0  0  0  0  0  0  0  0  0  0  0  0
  1  4  1  0
  1 13  1  0
  2  5  1  0
  2 13  1  0
  3  8  1  0
  3 12  1  0
  4 15  1  0
  5 15  1  0
  6  8  1  0
  6 14  1  0
  7 12  1  0
  7 14  1  0
  8 10  1  0
  9 13  1  0
 10 11  1  0
 11 15  1  0
 11 16  1  0
M  CHG  2  14   1  15   1
M  END
