AND-WAB-bfd3647f-2
     RDKit          3D

 16 17  0  0  1  0  0  0  0  0999 V2000
    6.6869   -0.5994   20.4587 C   0  0  0  0  0  0  0  0  0  0  0  0
    8.4489   -0.3001   18.9547 C   0  0  0  0  0  0  0  0  0  0  0  0
    6.2880   -0.2069   18.2555 C   0  0  0  0  0  0  0  0  0  0  0  0
    8.0503   -0.5412   20.2537 C   0  0  0  0  0  0  0  0  0  0  0  0
   13.2594    0.3867   23.5874 C   0  0  0  0  0  0  0  0  0  0  0  0
   12.7575   -1.9622   23.3087 C   0  0  0  0  0  0  0  0  0  0  0  0
   12.3776    0.7524   22.3980 C   0  0  0  0  0  0  0  0  0  0  0  0
   11.8612   -1.6648   22.1112 C   0  0  0  0  0  0  0  0  0  0  0  0
   14.7006   -1.2813   24.5600 C   0  0  0  0  0  0  0  0  0  0  0  0
    9.0423   -0.7279   21.3780 C   0  0  0  0  0  0  0  0  0  0  0  0
   10.3360    0.0569   21.1420 C   0  0  0  0  0  0  0  0  0  0  0  0
    5.7739   -0.4363   19.4789 N   0  0  0  0  0  0  0  0  0  0  0  0
    7.5917   -0.1276   17.9273 N   0  0  0  0  0  0  0  0  0  0  0  0
   13.8243   -0.9604   23.4339 N   0  0  0  0  0  0  0  0  0  0  0  0
   11.2861   -0.2784   22.2564 N   0  0  0  0  0  0  0  0  0  0  0  0
   10.0310    1.4434   21.0344 O   0  0  0  0  0  0  0  0  0  0  0  0
  1  4  2  0
  1 12  1  0
  2  4  1  0
  2 13  2  0
  3 12  2  0
  3 13  1  0
  4 10  1  0
  5  7  1  0
  5 14  1  0
  6  8  1  0
  6 14  1  0
  7 15  1  0
  8 15  1  0
  9 14  1  0
 10 11  1  0
 11 15  1  0
 11 16  1  0
M  CHG  1  15   1
M  END
