ANN-UNI-26382800-5
     RDKit          3D

 18 19  0  0  0  0  0  0  0  0999 V2000
    6.7517   -2.7136   20.9226 C   0  0  0  0  0  0  0  0  0  0  0  0
    6.0716   -6.1415   22.2044 C   0  0  0  0  0  0  0  0  0  0  0  0
   13.7799   -1.5567   25.2076 C   0  0  0  0  0  0  0  0  0  0  0  0
    5.9550   -4.9583   21.4750 C   0  0  0  0  0  0  0  0  0  0  0  0
    7.1052   -6.2919   23.1289 C   0  0  0  0  0  0  0  0  0  0  0  0
   13.0441   -2.6548   24.7763 C   0  0  0  0  0  0  0  0  0  0  0  0
    7.9058   -4.0760   22.5944 C   0  0  0  0  0  0  0  0  0  0  0  0
   13.1306   -0.6009   25.9723 C   0  0  0  0  0  0  0  0  0  0  0  0
   11.1445   -1.7524   25.8868 C   0  0  0  0  0  0  0  0  0  0  0  0
    6.8721   -3.9255   21.6699 C   0  0  0  0  0  0  0  0  0  0  0  0
    8.0223   -5.2591   23.3239 C   0  0  0  0  0  0  0  0  0  0  0  0
   11.7006   -2.7621   25.1180 C   0  0  0  0  0  0  0  0  0  0  0  0
    9.5798   -4.1115   24.9549 C   0  0  0  0  0  0  0  0  0  0  0  0
    9.1274   -5.4203   24.3123 C   0  0  0  0  0  0  0  0  0  0  0  0
    6.6538   -1.7293   20.3157 N   0  0  0  0  0  0  0  0  0  0  0  0
   11.8272   -0.6707   26.3243 N   0  0  0  0  0  0  0  0  0  0  0  0
   10.9258   -3.8678   24.6936 N   0  0  0  0  0  0  0  0  0  0  0  0
    8.8108   -3.4113   25.6057 O   0  0  0  0  0  0  0  0  0  0  0  0
  1 10  1  0
  1 15  3  0
  2  4  2  0
  2  5  1  0
  3  6  2  0
  3  8  1  0
  4 10  1  0
  5 11  2  0
  6 12  1  0
  7 10  2  0
  7 11  1  0
  8 16  2  0
  9 12  2  0
  9 16  1  0
 11 14  1  0
 12 17  1  0
 13 14  1  0
 13 17  1  0
 13 18  2  0
M  END
