ANN-UNI-26382800-6
     RDKit          3D

 20 21  0  0  0  0  0  0  0  0999 V2000
    6.4620   -3.2586   20.7862 C   0  0  0  0  0  0  0  0  0  0  0  0
    6.6951   -6.5876   22.4351 C   0  0  0  0  0  0  0  0  0  0  0  0
   14.4077   -2.7710   26.9187 C   0  0  0  0  0  0  0  0  0  0  0  0
    6.2481   -5.5467   21.6214 C   0  0  0  0  0  0  0  0  0  0  0  0
    7.8139   -6.4063   23.2482 C   0  0  0  0  0  0  0  0  0  0  0  0
   13.4020   -3.6407   26.4972 C   0  0  0  0  0  0  0  0  0  0  0  0
   14.4724   -1.4768   26.4024 C   0  0  0  0  0  0  0  0  0  0  0  0
    8.0391   -4.1430   22.4335 C   0  0  0  0  0  0  0  0  0  0  0  0
   12.5256   -1.9221   25.0427 C   0  0  0  0  0  0  0  0  0  0  0  0
    6.9201   -4.3244   21.6205 C   0  0  0  0  0  0  0  0  0  0  0  0
    8.4859   -5.1840   23.2473 C   0  0  0  0  0  0  0  0  0  0  0  0
   12.4609   -3.2163   25.5591 C   0  0  0  0  0  0  0  0  0  0  0  0
   13.5313   -1.0524   25.4643 C   0  0  0  0  0  0  0  0  0  0  0  0
   10.4165   -3.8511   24.2040 C   0  0  0  0  0  0  0  0  0  0  0  0
   12.6008    0.5785   24.0049 C   0  0  0  0  0  0  0  0  0  0  0  0
    6.0899   -2.3930   20.1086 N   0  0  0  0  0  0  0  0  0  0  0  0
    9.6042   -5.0026   24.0615 N   0  0  0  0  0  0  0  0  0  0  0  0
   11.4407   -4.0987   25.1320 N   0  0  0  0  0  0  0  0  0  0  0  0
   10.2444   -2.7961   23.6019 O   0  0  0  0  0  0  0  0  0  0  0  0
   13.5944    0.2104   24.9602 O   0  0  0  0  0  0  0  0  0  0  0  0
  1 10  1  0
  1 16  3  0
  2  4  2  0
  2  5  1  0
  3  6  2  0
  3  7  1  0
  4 10  1  0
  5 11  2  0
  6 12  1  0
  7 13  2  0
  8 10  2  0
  8 11  1  0
  9 12  2  0
  9 13  1  0
 11 17  1  0
 12 18  1  0
 13 20  1  0
 14 17  1  0
 14 18  1  0
 14 19  2  0
 15 20  1  0
M  END
