ANN-UNI-26382800-1
     RDKit          3D

 16 17  0  0  0  0  0  0  0  0999 V2000
   10.3345   -4.6691   24.4267 C   0  0  0  0  0  0  0  0  0  0  0  0
   11.3957   -3.9834   25.0072 C   0  0  0  0  0  0  0  0  0  0  0  0
    9.6536   -2.6371   23.3952 C   0  0  0  0  0  0  0  0  0  0  0  0
    9.4423   -3.9905   23.6040 C   0  0  0  0  0  0  0  0  0  0  0  0
   11.5196   -2.6304   24.7354 C   0  0  0  0  0  0  0  0  0  0  0  0
    6.9560   -6.6410   22.5332 C   0  0  0  0  0  0  0  0  0  0  0  0
    6.1094   -5.9531   21.7575 C   0  0  0  0  0  0  0  0  0  0  0  0
    8.0850   -6.0014   23.1636 C   0  0  0  0  0  0  0  0  0  0  0  0
    8.3071   -4.6891   22.9736 C   0  0  0  0  0  0  0  0  0  0  0  0
    6.3380   -4.4971   21.5380 C   0  0  0  0  0  0  0  0  0  0  0  0
   14.5787   -1.6332   26.6773 C   0  0  0  0  0  0  0  0  0  0  0  0
   13.5497   -2.5935   26.1856 C   0  0  0  0  0  0  0  0  0  0  0  0
   10.6729   -1.9371   23.9416 N   0  0  0  0  0  0  0  0  0  0  0  0
    7.4443   -3.9600   22.1771 N   0  0  0  0  0  0  0  0  0  0  0  0
   12.6061   -1.9455   25.3341 N   0  0  0  0  0  0  0  0  0  0  0  0
    5.5724   -3.8499   20.8281 O   0  0  0  0  0  0  0  0  0  0  0  0
  1  2  2  0
  1  4  1  0
  2  5  1  0
  3  4  2  0
  3 13  1  0
  4  9  1  0
  5 13  2  0
  5 15  1  0
  6  7  2  0
  6  8  1  0
  7 10  1  0
  8  9  2  0
  9 14  1  0
 10 14  1  0
 10 16  2  0
 11 12  1  0
 12 15  1  0
M  END
