ANT-DIA-b7f58f21-7
     RDKit          3D

 16 17  0  0  0  0  0  0  0  0999 V2000
   10.7110    2.7076   24.4575 C   0  0  0  0  0  0  0  0  0  0  0  0
   10.1035    1.4650   24.6600 C   0  0  0  0  0  0  0  0  0  0  0  0
   12.1957    1.7536   22.7948 C   0  0  0  0  0  0  0  0  0  0  0  0
   10.6800   -1.7320   23.1871 C   0  0  0  0  0  0  0  0  0  0  0  0
   11.7433    2.8478   23.5365 C   0  0  0  0  0  0  0  0  0  0  0  0
   10.5414    0.3429   23.9236 C   0  0  0  0  0  0  0  0  0  0  0  0
   11.5809    0.5085   23.0032 C   0  0  0  0  0  0  0  0  0  0  0  0
    8.0338    6.3641   21.6691 C   0  0  0  0  0  0  0  0  0  0  0  0
   12.3782    4.1839   23.3358 C   0  0  0  0  0  0  0  0  0  0  0  0
   11.4246    5.3580   23.5855 C   0  0  0  0  0  0  0  0  0  0  0  0
   10.0358   -0.9455   24.0173 N   0  0  0  0  0  0  0  0  0  0  0  0
   10.2729    5.3199   22.7247 N   0  0  0  0  0  0  0  0  0  0  0  0
    9.0370    7.2626   23.9134 O   0  0  0  0  0  0  0  0  0  0  0  0
    7.9701    4.9785   23.8786 O   0  0  0  0  0  0  0  0  0  0  0  0
   11.9132   -1.0064   22.2498 S   0  0  0  0  0  0  0  0  0  0  0  0
    8.7767    6.0032   23.2439 S   0  0  0  0  0  0  0  0  0  0  0  0
  1  2  2  0
  1  5  1  0
  2  6  1  0
  3  5  2  0
  3  7  1  0
  4 11  2  0
  4 15  1  0
  5  9  1  0
  6  7  2  0
  6 11  1  0
  7 15  1  0
  8 16  1  0
  9 10  1  0
 10 12  1  0
 12 16  1  0
 13 16  2  0
 14 16  2  0
M  END
