ANT-DIA-045cfdc4-2
     RDKit          3D

 17 18  0  0  1  0  0  0  0  0999 V2000
   11.7270   -0.3563   24.1656 C   0  0  0  0  0  0  0  0  0  0  0  0
   13.0076   -0.3054   23.6605 C   0  0  0  0  0  0  0  0  0  0  0  0
   11.4807   -1.5457   22.1840 C   0  0  0  0  0  0  0  0  0  0  0  0
   10.8425   -1.0749   23.3104 C   0  0  0  0  0  0  0  0  0  0  0  0
    8.7194    0.2357   21.6957 C   0  0  0  0  0  0  0  0  0  0  0  0
    7.2292   -2.3240   23.2938 C   0  0  0  0  0  0  0  0  0  0  0  0
    8.7140   -2.5623   23.0544 C   0  0  0  0  0  0  0  0  0  0  0  0
    7.0244   -0.8126   23.1755 C   0  0  0  0  0  0  0  0  0  0  0  0
    9.3746   -1.2932   23.6062 C   0  0  0  0  0  0  0  0  0  0  0  0
    8.4230   -0.1878   23.1080 C   0  0  0  0  0  0  0  0  0  0  0  0
    4.8379    1.0247   18.6611 C   0  0  0  0  0  0  0  0  0  0  0  0
    8.2187   -0.2835   19.3162 C   0  0  0  0  0  0  0  0  0  0  0  0
    7.1571    0.6981   18.8545 C   0  0  0  0  0  0  0  0  0  0  0  0
    8.0758   -0.5205   20.7348 N   0  0  0  0  0  0  0  0  0  0  0  0
    9.4747    1.1793   21.4939 O   0  0  0  0  0  0  0  0  0  0  0  0
    5.8685    0.1426   19.0841 O   0  0  0  0  0  0  0  0  0  0  0  0
   13.1396   -1.1216   22.1609 S   0  0  0  0  0  0  0  0  0  0  0  0
  1  2  2  0
  1  4  1  0
  2 17  1  0
  3  4  2  0
  3 17  1  0
  4  9  1  0
  5 10  1  0
  5 14  1  0
  5 15  2  0
  6  7  1  0
  6  8  1  0
  7  9  1  0
  8 10  1  0
  9 10  1  0
 11 16  1  0
 12 13  1  0
 12 14  1  0
 13 16  1  0
M  END
