ANT-LOU-17aa1493-1
     RDKit          3D

 24 25  0  0  0  0  0  0  0  0999 V2000
    7.0296   -4.1986   25.2409 C   0  0  0  0  0  0  0  0  0  0  0  0
    9.2719   -3.8429   24.4150 C   0  0  0  0  0  0  0  0  0  0  0  0
    6.3629   -0.0545   19.3620 C   0  0  0  0  0  0  0  0  0  0  0  0
    5.3543    1.1858   21.1734 C   0  0  0  0  0  0  0  0  0  0  0  0
    7.9399   -3.4390   24.5062 C   0  0  0  0  0  0  0  0  0  0  0  0
    6.2415    0.2065   20.7268 C   0  0  0  0  0  0  0  0  0  0  0  0
    7.4512   -5.3621   25.8845 C   0  0  0  0  0  0  0  0  0  0  0  0
    9.6935   -5.0064   25.0585 C   0  0  0  0  0  0  0  0  0  0  0  0
    5.5971    0.6639   18.4437 C   0  0  0  0  0  0  0  0  0  0  0  0
    4.5885    1.9042   20.2551 C   0  0  0  0  0  0  0  0  0  0  0  0
    8.7831   -5.7660   25.7933 C   0  0  0  0  0  0  0  0  0  0  0  0
    4.7099    1.6432   18.8903 C   0  0  0  0  0  0  0  0  0  0  0  0
    8.2677   -1.1356   23.5941 C   0  0  0  0  0  0  0  0  0  0  0  0
    7.4716   -0.0814   22.8827 C   0  0  0  0  0  0  0  0  0  0  0  0
    7.5181   -2.2749   23.8627 N   0  0  0  0  0  0  0  0  0  0  0  0
    7.0181   -0.5215   21.6574 N   0  0  0  0  0  0  0  0  0  0  0  0
    9.4288   -0.8662   23.8530 O   0  0  0  0  0  0  0  0  0  0  0  0
    7.3466    0.9901   23.4517 O   0  0  0  0  0  0  0  0  0  0  0  0
    6.5525   -6.0955   26.5989 O   0  0  0  0  0  0  0  0  0  0  0  0
   10.9970   -5.3908   24.9620 O   0  0  0  0  0  0  0  0  0  0  0  0
    5.7245    0.3996   17.1134 O   0  0  0  0  0  0  0  0  0  0  0  0
    3.7253    2.8581   20.7034 O   0  0  0  0  0  0  0  0  0  0  0  0
    9.1958   -6.9030   26.4229 O   0  0  0  0  0  0  0  0  0  0  0  0
    3.9616    2.3461   17.9928 O   0  0  0  0  0  0  0  0  0  0  0  0
  1  5  2  0
  1  7  1  0
  2  5  1  0
  2  8  2  0
  3  6  2  0
  3  9  1  0
  4  6  1  0
  4 10  2  0
  5 15  1  0
  6 16  1  0
  7 11  2  0
  7 19  1  0
  8 11  1  0
  8 20  1  0
  9 12  2  0
  9 21  1  0
 10 12  1  0
 10 22  1  0
 11 23  1  0
 12 24  1  0
 13 14  1  0
 13 15  1  0
 13 17  2  0
 14 16  1  0
 14 18  2  0
M  END
