ANT-DIA-b7f58f21-5
     RDKit          3D

 12 12  0  0  0  0  0  0  0  0999 V2000
    5.6697    0.0648   19.4692 C   0  0  0  0  0  0  0  0  0  0  0  0
    6.1694    1.6091   17.6893 C   0  0  0  0  0  0  0  0  0  0  0  0
    6.4277   -0.4380   18.4325 C   0  0  0  0  0  0  0  0  0  0  0  0
    7.7256   -4.4292   22.1387 C   0  0  0  0  0  0  0  0  0  0  0  0
    6.9541   -1.8485   18.3300 C   0  0  0  0  0  0  0  0  0  0  0  0
    7.8527   -2.2354   19.5020 C   0  0  0  0  0  0  0  0  0  0  0  0
    6.7148    0.4459   17.4108 N   0  0  0  0  0  0  0  0  0  0  0  0
    7.1493   -2.1808   20.7962 N   0  0  0  0  0  0  0  0  0  0  0  0
    5.9041   -4.3845   20.2598 O   0  0  0  0  0  0  0  0  0  0  0  0
    5.4489   -3.1901   22.4329 O   0  0  0  0  0  0  0  0  0  0  0  0
    5.2973    1.7109   19.1638 S   0  0  0  0  0  0  0  0  0  0  0  0
    6.3619   -3.5803   21.3758 S   0  0  0  0  0  0  0  0  0  0  0  0
  1  3  2  0
  1 11  1  0
  2  7  2  0
  2 11  1  0
  3  5  1  0
  3  7  1  0
  4 12  1  0
  5  6  1  0
  6  8  1  0
  8 12  1  0
  9 12  2  0
 10 12  2  0
M  END
