ANT-DIA-045cfdc4-3
     RDKit          3D

 19 21  0  0  1  0  0  0  0  0999 V2000
   10.3418    2.0311   23.4024 C   0  0  0  0  0  0  0  0  0  0  0  0
    7.1777    0.6573   20.6716 C   0  0  0  0  0  0  0  0  0  0  0  0
    8.7304   -0.1910   19.1466 C   0  0  0  0  0  0  0  0  0  0  0  0
   10.2286    3.4028   23.3439 C   0  0  0  0  0  0  0  0  0  0  0  0
   12.5764    2.6703   23.3779 C   0  0  0  0  0  0  0  0  0  0  0  0
    6.7888    0.7522   18.4340 C   0  0  0  0  0  0  0  0  0  0  0  0
   11.7019    1.6067   23.4222 C   0  0  0  0  0  0  0  0  0  0  0  0
    8.3933    0.0376   20.4650 C   0  0  0  0  0  0  0  0  0  0  0  0
   10.6251   -0.4171   21.5310 C   0  0  0  0  0  0  0  0  0  0  0  0
   13.4338   -1.7482   22.8217 C   0  0  0  0  0  0  0  0  0  0  0  0
   13.4549   -0.2258   22.8079 C   0  0  0  0  0  0  0  0  0  0  0  0
   11.9611   -2.1466   22.7082 C   0  0  0  0  0  0  0  0  0  0  0  0
   12.1328    0.1575   23.4838 C   0  0  0  0  0  0  0  0  0  0  0  0
   11.1477   -0.8571   22.8708 C   0  0  0  0  0  0  0  0  0  0  0  0
    6.3473    1.0296   19.6755 N   0  0  0  0  0  0  0  0  0  0  0  0
    7.9491    0.1543   18.1023 N   0  0  0  0  0  0  0  0  0  0  0  0
    9.2383   -0.3387   21.5359 N   0  0  0  0  0  0  0  0  0  0  0  0
   11.3935   -0.1751   20.6058 O   0  0  0  0  0  0  0  0  0  0  0  0
   11.7577    4.1729   23.3130 S   0  0  0  0  0  0  0  0  0  0  0  0
  1  4  2  0
  1  7  1  0
  2  8  2  0
  2 15  1  0
  3  8  1  0
  3 16  2  0
  4 19  1  0
  5  7  2  0
  5 19  1  0
  6 15  2  0
  6 16  1  0
  7 13  1  0
  8 17  1  0
  9 14  1  0
  9 17  1  0
  9 18  2  0
 10 11  1  0
 10 12  1  0
 11 13  1  0
 12 14  1  0
 13 14  1  0
M  END
