ANT-OPE-a517596a-1
     RDKit          3D

 24 26  0  0  0  0  0  0  0  0999 V2000
   13.9995   -0.2993   23.1436 C   0  0  0  0  0  0  0  0  0  0  0  0
   13.7809   -1.4778   22.4303 C   0  0  0  0  0  0  0  0  0  0  0  0
   12.9206    0.3947   23.6915 C   0  0  0  0  0  0  0  0  0  0  0  0
    5.8541    0.9933   19.1106 C   0  0  0  0  0  0  0  0  0  0  0  0
   12.4835   -1.9624   22.2647 C   0  0  0  0  0  0  0  0  0  0  0  0
   11.6232   -0.0899   23.5259 C   0  0  0  0  0  0  0  0  0  0  0  0
    6.7317    0.9472   20.1881 C   0  0  0  0  0  0  0  0  0  0  0  0
    9.5357   -2.9797   23.0471 C   0  0  0  0  0  0  0  0  0  0  0  0
    6.3310    0.6057   17.8688 C   0  0  0  0  0  0  0  0  0  0  0  0
    8.4198    0.1542   18.7124 C   0  0  0  0  0  0  0  0  0  0  0  0
    7.9101   -1.8146   22.0129 C   0  0  0  0  0  0  0  0  0  0  0  0
   11.4046   -1.2684   22.8126 C   0  0  0  0  0  0  0  0  0  0  0  0
    8.1762   -3.0067   22.6495 C   0  0  0  0  0  0  0  0  0  0  0  0
    8.0408    0.5209   19.9937 C   0  0  0  0  0  0  0  0  0  0  0  0
   10.0589   -1.7717   22.6416 C   0  0  0  0  0  0  0  0  0  0  0  0
    5.2426   -4.9612   24.1657 C   0  0  0  0  0  0  0  0  0  0  0  0
    6.8931   -3.4471   25.2539 C   0  0  0  0  0  0  0  0  0  0  0  0
    7.2044   -4.1266   22.8786 C   0  0  0  0  0  0  0  0  0  0  0  0
    7.5958    0.1859   17.6411 N   0  0  0  0  0  0  0  0  0  0  0  0
    9.0617   -1.0716   22.0142 N   0  0  0  0  0  0  0  0  0  0  0  0
    6.2152   -3.8333   23.9702 N   0  0  0  0  0  0  0  0  0  0  0  0
   10.5451    0.5225   20.8008 O   0  0  0  0  0  0  0  0  0  0  0  0
    8.7230    1.4288   22.3277 O   0  0  0  0  0  0  0  0  0  0  0  0
    9.1892    0.4487   21.3440 S   0  0  0  0  0  0  0  0  0  0  0  0
  1  2  2  0
  1  3  1  0
  2  5  1  0
  3  6  2  0
  4  7  2  0
  4  9  1  0
  5 12  2  0
  6 12  1  0
  7 14  1  0
  8 13  1  0
  8 15  2  0
  9 19  2  0
 10 14  2  0
 10 19  1  0
 11 13  2  0
 11 20  1  0
 12 15  1  0
 13 18  1  0
 14 24  1  0
 15 20  1  0
 16 21  1  0
 17 21  1  0
 18 21  1  0
 20 24  1  0
 22 24  2  0
 23 24  2  0
M  CHG  1  21   1
M  END
