ANT-OPE-45835252-1
     RDKit          3D

 23 25  0  0  0  0  0  0  0  0999 V2000
    4.2652    0.9289   20.1133 C   0  0  0  0  0  0  0  0  0  0  0  0
    4.8035    1.0722   21.3957 C   0  0  0  0  0  0  0  0  0  0  0  0
    9.1485   -0.9965   24.1360 C   0  0  0  0  0  0  0  0  0  0  0  0
    8.5261   -2.7925   22.6447 C   0  0  0  0  0  0  0  0  0  0  0  0
    5.0849    0.6525   19.0112 C   0  0  0  0  0  0  0  0  0  0  0  0
    6.1778    0.9451   21.6264 C   0  0  0  0  0  0  0  0  0  0  0  0
    8.5160   -1.6536   25.1913 C   0  0  0  0  0  0  0  0  0  0  0  0
    7.8937   -3.4497   23.7000 C   0  0  0  0  0  0  0  0  0  0  0  0
    9.1535   -1.5659   22.8626 C   0  0  0  0  0  0  0  0  0  0  0  0
    6.4644    0.5228   19.2289 C   0  0  0  0  0  0  0  0  0  0  0  0
    6.9696    0.6702   20.5134 C   0  0  0  0  0  0  0  0  0  0  0  0
    7.8886   -2.8802   24.9734 C   0  0  0  0  0  0  0  0  0  0  0  0
    9.8303   -0.8632   21.7336 C   0  0  0  0  0  0  0  0  0  0  0  0
    9.3454    0.5215   21.3482 C   0  0  0  0  0  0  0  0  0  0  0  0
    7.7304   -4.8204   26.3601 C   0  0  0  0  0  0  0  0  0  0  0  0
    7.4928    0.2595   18.3631 N   0  0  0  0  0  0  0  0  0  0  0  0
    8.6231    0.2373   19.0612 N   0  0  0  0  0  0  0  0  0  0  0  0
    8.3110    0.4826   20.3445 N   0  0  0  0  0  0  0  0  0  0  0  0
   10.7556   -1.4216   21.1483 O   0  0  0  0  0  0  0  0  0  0  0  0
    7.2712   -3.5215   26.0029 O   0  0  0  0  0  0  0  0  0  0  0  0
    9.0471   -4.9594   26.0971 F   0  0  0  0  0  0  0  0  0  0  0  0
    7.0600   -5.7368   25.6253 F   0  0  0  0  0  0  0  0  0  0  0  0
    7.4928   -5.0784   27.6636 F   0  0  0  0  0  0  0  0  0  0  0  0
  1  2  2  0
  1  5  1  0
  2  6  1  0
  3  7  2  0
  3  9  1  0
  4  8  1  0
  4  9  2  0
  5 10  2  0
  6 11  2  0
  7 12  1  0
  8 12  2  0
  9 13  1  0
 10 11  1  0
 10 16  1  0
 11 18  1  0
 12 20  1  0
 13 14  1  0
 13 19  2  0
 14 18  1  0
 15 20  1  0
 15 21  1  0
 15 22  1  0
 15 23  1  0
 16 17  2  0
 17 18  1  0
M  END
