ANT-OPE-997bdc93-2
     RDKit          3D

 19 21  0  0  1  0  0  0  0  0999 V2000
   11.8083   -2.0454   23.7462 C   0  0  0  0  0  0  0  0  0  0  0  0
   12.9901   -1.8409   23.0325 C   0  0  0  0  0  0  0  0  0  0  0  0
   10.9840   -0.9541   24.0069 C   0  0  0  0  0  0  0  0  0  0  0  0
   13.3216   -0.5477   22.6318 C   0  0  0  0  0  0  0  0  0  0  0  0
   11.3164    0.3444   23.5886 C   0  0  0  0  0  0  0  0  0  0  0  0
   12.4994    0.5566   22.9153 C   0  0  0  0  0  0  0  0  0  0  0  0
   12.3730    5.9864   23.8710 C   0  0  0  0  0  0  0  0  0  0  0  0
    9.6920   -0.9557   24.7641 C   0  0  0  0  0  0  0  0  0  0  0  0
   14.5191   -0.1347   21.8334 C   0  0  0  0  0  0  0  0  0  0  0  0
   10.2637    1.3179   24.0096 C   0  0  0  0  0  0  0  0  0  0  0  0
    9.0865    0.3813   24.3183 C   0  0  0  0  0  0  0  0  0  0  0  0
   14.5534    1.3714   22.1164 C   0  0  0  0  0  0  0  0  0  0  0  0
   13.0893    1.8121   22.3377 C   0  0  0  0  0  0  0  0  0  0  0  0
   12.7656    6.8629   26.2067 C   0  0  0  0  0  0  0  0  0  0  0  0
   12.6197    7.2087   24.7360 C   0  0  0  0  0  0  0  0  0  0  0  0
   13.0131    3.0526   23.2153 C   0  0  0  0  0  0  0  0  0  0  0  0
   13.6169    4.2816   22.5482 C   0  0  0  0  0  0  0  0  0  0  0  0
   13.5614    5.4447   23.3898 N   0  0  0  0  0  0  0  0  0  0  0  0
   11.2516    5.5434   23.6382 O   0  0  0  0  0  0  0  0  0  0  0  0
  1  2  2  0
  1  3  1  0
  2  4  1  0
  3  5  2  0
  3  8  1  0
  4  6  2  0
  4  9  1  0
  5  6  1  0
  5 10  1  0
  6 13  1  0
  7 15  1  0
  7 18  1  0
  7 19  2  0
  8 11  1  0
  9 12  1  0
 10 11  1  0
 12 13  1  0
 13 16  1  0
 14 15  1  0
 16 17  1  0
 17 18  1  0
M  END
