ANT-OPE-997bdc93-1
     RDKit          3D

 18 20  0  0  1  0  0  0  0  0999 V2000
   11.4210   -2.1049   23.7522 C   0  0  0  0  0  0  0  0  0  0  0  0
   12.6065   -1.9012   23.0444 C   0  0  0  0  0  0  0  0  0  0  0  0
   10.6477   -1.0003   24.0990 C   0  0  0  0  0  0  0  0  0  0  0  0
   12.9930   -0.5980   22.7357 C   0  0  0  0  0  0  0  0  0  0  0  0
   11.0353    0.3094   23.7730 C   0  0  0  0  0  0  0  0  0  0  0  0
   12.2226    0.5178   23.1061 C   0  0  0  0  0  0  0  0  0  0  0  0
   11.9776    5.7121   24.6298 C   0  0  0  0  0  0  0  0  0  0  0  0
    9.3615   -1.0002   24.8658 C   0  0  0  0  0  0  0  0  0  0  0  0
   14.2030   -0.1811   21.9585 C   0  0  0  0  0  0  0  0  0  0  0  0
   10.0296    1.2950   24.2733 C   0  0  0  0  0  0  0  0  0  0  0  0
    8.8136    0.3912   24.5238 C   0  0  0  0  0  0  0  0  0  0  0  0
   14.3062    1.2974   22.3498 C   0  0  0  0  0  0  0  0  0  0  0  0
   12.8645    1.7848   22.6159 C   0  0  0  0  0  0  0  0  0  0  0  0
   12.2031    6.9004   25.5046 C   0  0  0  0  0  0  0  0  0  0  0  0
   12.8489    2.9602   23.5820 C   0  0  0  0  0  0  0  0  0  0  0  0
   13.0389    4.2989   22.8807 C   0  0  0  0  0  0  0  0  0  0  0  0
   13.0446    5.4030   23.8001 N   0  0  0  0  0  0  0  0  0  0  0  0
   10.9137    5.1074   24.6944 O   0  0  0  0  0  0  0  0  0  0  0  0
  1  2  2  0
  1  3  1  0
  2  4  1  0
  3  5  2  0
  3  8  1  0
  4  6  2  0
  4  9  1  0
  5  6  1  0
  5 10  1  0
  6 13  1  0
  7 14  1  0
  7 17  1  0
  7 18  2  0
  8 11  1  0
  9 12  1  0
 10 11  1  0
 12 13  1  0
 13 15  1  0
 15 16  1  0
 16 17  1  0
M  END
