ANT-DIA-3c79be55-2
     RDKit          3D

 18 19  0  0  0  0  0  0  0  0999 V2000
   11.2554    0.2332   23.0296 C   0  0  0  0  0  0  0  0  0  0  0  0
   13.8971   -1.5241   24.9622 C   0  0  0  0  0  0  0  0  0  0  0  0
   13.1976   -2.6268   25.4525 C   0  0  0  0  0  0  0  0  0  0  0  0
    7.1908   -6.3702   22.4102 C   0  0  0  0  0  0  0  0  0  0  0  0
   13.2462   -0.5847   24.1624 C   0  0  0  0  0  0  0  0  0  0  0  0
    7.6234   -5.3407   23.2386 C   0  0  0  0  0  0  0  0  0  0  0  0
   11.8474   -2.7902   25.1430 C   0  0  0  0  0  0  0  0  0  0  0  0
    6.2904   -6.0583   21.4043 C   0  0  0  0  0  0  0  0  0  0  0  0
    6.2506   -3.8410   22.0046 C   0  0  0  0  0  0  0  0  0  0  0  0
   11.8960   -0.7480   23.8529 C   0  0  0  0  0  0  0  0  0  0  0  0
    7.1491   -4.0490   23.0387 C   0  0  0  0  0  0  0  0  0  0  0  0
   11.1965   -1.8508   24.3432 C   0  0  0  0  0  0  0  0  0  0  0  0
    9.0072   -3.0905   24.4642 C   0  0  0  0  0  0  0  0  0  0  0  0
    7.5990   -2.9123   23.9186 C   0  0  0  0  0  0  0  0  0  0  0  0
   10.7363    1.0283   22.3624 N   0  0  0  0  0  0  0  0  0  0  0  0
    5.8074   -4.8158   21.1794 N   0  0  0  0  0  0  0  0  0  0  0  0
    9.8423   -2.0422   24.0504 N   0  0  0  0  0  0  0  0  0  0  0  0
    9.3215   -4.0448   25.1683 O   0  0  0  0  0  0  0  0  0  0  0  0
  1 10  1  0
  1 15  3  0
  2  3  2  0
  2  5  1  0
  3  7  1  0
  4  6  2  0
  4  8  1  0
  5 10  2  0
  6 11  1  0
  7 12  2  0
  8 16  2  0
  9 11  2  0
  9 16  1  0
 10 12  1  0
 11 14  1  0
 12 17  1  0
 13 14  1  0
 13 17  1  0
 13 18  2  0
M  END
