ANT-OPE-ab37bd51-2
     RDKit          3D

 19 20  0  0  0  0  0  0  0  0999 V2000
   13.3977   -1.5400   21.6397 C   0  0  0  0  0  0  0  0  0  0  0  0
   14.2345   -2.0989   22.6037 C   0  0  0  0  0  0  0  0  0  0  0  0
   12.6363   -0.4010   21.9257 C   0  0  0  0  0  0  0  0  0  0  0  0
   14.3375   -1.5396   23.8806 C   0  0  0  0  0  0  0  0  0  0  0  0
   12.5925    1.3840   25.1151 C   0  0  0  0  0  0  0  0  0  0  0  0
   12.7236    0.1804   23.2062 C   0  0  0  0  0  0  0  0  0  0  0  0
   12.1134    1.3058   23.8277 C   0  0  0  0  0  0  0  0  0  0  0  0
   13.5704   -0.4011   24.1522 C   0  0  0  0  0  0  0  0  0  0  0  0
    8.2691    0.7412   21.2645 C   0  0  0  0  0  0  0  0  0  0  0  0
    8.0303    0.0791   20.1242 C   0  0  0  0  0  0  0  0  0  0  0  0
    9.5306    1.5132   21.4361 C   0  0  0  0  0  0  0  0  0  0  0  0
    5.5234    1.1643   18.8610 C   0  0  0  0  0  0  0  0  0  0  0  0
    6.7820   -0.4232   17.4130 C   0  0  0  0  0  0  0  0  0  0  0  0
   11.1228    2.2448   23.2024 C   0  0  0  0  0  0  0  0  0  0  0  0
    6.7892   -0.7199   19.8854 C   0  0  0  0  0  0  0  0  0  0  0  0
   13.4709    0.3504   25.3013 N   0  0  0  0  0  0  0  0  0  0  0  0
    9.9298    1.5574   22.7610 N   0  0  0  0  0  0  0  0  0  0  0  0
    6.0203   -0.2509   18.7033 N   0  0  0  0  0  0  0  0  0  0  0  0
   10.1175    2.0345   20.4935 O   0  0  0  0  0  0  0  0  0  0  0  0
  1  2  2  0
  1  3  1  0
  2  4  1  0
  3  6  2  0
  4  8  2  0
  5  7  2  0
  5 16  1  0
  6  7  1  0
  6  8  1  0
  7 14  1  0
  8 16  1  0
  9 10  2  0
  9 11  1  0
 10 15  1  0
 11 17  1  0
 11 19  2  0
 12 18  1  0
 13 18  1  0
 14 17  1  0
 15 18  1  0
M  CHG  1  18   1
M  END
