ANT-OPE-7824651a-2
     RDKit          3D

 24 26  0  0  0  0  0  0  0  0999 V2000
   10.7949    5.7379   24.8618 C   0  0  0  0  0  0  0  0  0  0  0  0
   10.2831    4.6556   25.5776 C   0  0  0  0  0  0  0  0  0  0  0  0
   11.6528    5.5183   23.7841 C   0  0  0  0  0  0  0  0  0  0  0  0
   13.4330    0.2280   22.8156 C   0  0  0  0  0  0  0  0  0  0  0  0
   10.6292    3.3538   25.2157 C   0  0  0  0  0  0  0  0  0  0  0  0
   11.9990    4.2164   23.4222 C   0  0  0  0  0  0  0  0  0  0  0  0
   13.0865    1.5295   23.1785 C   0  0  0  0  0  0  0  0  0  0  0  0
   12.5386   -0.8193   23.0371 C   0  0  0  0  0  0  0  0  0  0  0  0
   10.9514    0.7364   23.9844 C   0  0  0  0  0  0  0  0  0  0  0  0
   11.4872    3.1341   24.1380 C   0  0  0  0  0  0  0  0  0  0  0  0
   11.8458    1.7837   23.7629 C   0  0  0  0  0  0  0  0  0  0  0  0
   11.2979   -0.5651   23.6215 C   0  0  0  0  0  0  0  0  0  0  0  0
    6.2839   -1.9861   19.5679 C   0  0  0  0  0  0  0  0  0  0  0  0
    8.3714   -0.8248   20.4427 C   0  0  0  0  0  0  0  0  0  0  0  0
    6.6219   -1.6094   21.9905 C   0  0  0  0  0  0  0  0  0  0  0  0
    9.4399   -1.4709   21.3195 C   0  0  0  0  0  0  0  0  0  0  0  0
    7.6833   -2.2605   22.8701 C   0  0  0  0  0  0  0  0  0  0  0  0
    6.3627   -1.2424   18.2586 C   0  0  0  0  0  0  0  0  0  0  0  0
    7.0832   -1.5088   20.6052 N   0  0  0  0  0  0  0  0  0  0  0  0
    8.9670   -1.5077   22.7365 N   0  0  0  0  0  0  0  0  0  0  0  0
    5.5364   -2.9628   19.6631 O   0  0  0  0  0  0  0  0  0  0  0  0
   10.8214   -3.1213   23.5129 O   0  0  0  0  0  0  0  0  0  0  0  0
    9.6043   -1.7277   25.2229 O   0  0  0  0  0  0  0  0  0  0  0  0
   10.1658   -1.8907   23.8993 S   0  0  0  0  0  0  0  0  0  0  0  0
  1  2  2  0
  1  3  1  0
  2  5  1  0
  3  6  2  0
  4  7  2  0
  4  8  1  0
  5 10  2  0
  6 10  1  0
  7 11  1  0
  8 12  2  0
  9 11  2  0
  9 12  1  0
 10 11  1  0
 12 24  1  0
 13 18  1  0
 13 19  1  0
 13 21  2  0
 14 16  1  0
 14 19  1  0
 15 17  1  0
 15 19  1  0
 16 20  1  0
 17 20  1  0
 20 24  1  0
 22 24  2  0
 23 24  2  0
M  END
