ANT-DIA-045cfdc4-4
     RDKit          3D

 20 22  0  0  1  0  0  0  0  0999 V2000
    6.6180   -0.1585   20.5705 C   0  0  0  0  0  0  0  0  0  0  0  0
    5.9379   -0.3378   19.3711 C   0  0  0  0  0  0  0  0  0  0  0  0
    7.9835    0.1032   20.5566 C   0  0  0  0  0  0  0  0  0  0  0  0
    9.5275   -2.4059   22.9035 C   0  0  0  0  0  0  0  0  0  0  0  0
    6.6634   -0.2461   18.1942 C   0  0  0  0  0  0  0  0  0  0  0  0
    8.2770   -2.1175   23.4043 C   0  0  0  0  0  0  0  0  0  0  0  0
   10.0251   -0.7189   24.4230 C   0  0  0  0  0  0  0  0  0  0  0  0
   10.5402   -1.5958   23.4936 C   0  0  0  0  0  0  0  0  0  0  0  0
    8.6175    0.1749   19.3267 C   0  0  0  0  0  0  0  0  0  0  0  0
   11.6442   -0.2599   21.0793 C   0  0  0  0  0  0  0  0  0  0  0  0
   14.2772   -0.9072   23.0730 C   0  0  0  0  0  0  0  0  0  0  0  0
   12.9781   -0.7359   23.8486 C   0  0  0  0  0  0  0  0  0  0  0  0
   13.8659   -1.2188   21.6328 C   0  0  0  0  0  0  0  0  0  0  0  0
   12.0084   -1.6887   23.1390 C   0  0  0  0  0  0  0  0  0  0  0  0
   12.3513   -1.4561   21.6545 C   0  0  0  0  0  0  0  0  0  0  0  0
   10.0914    0.4557   19.2739 C   0  0  0  0  0  0  0  0  0  0  0  0
    7.9904    0.0065   18.1409 N   0  0  0  0  0  0  0  0  0  0  0  0
   10.8584   -0.5460   19.9792 N   0  0  0  0  0  0  0  0  0  0  0  0
   11.7994    0.8401   21.5966 O   0  0  0  0  0  0  0  0  0  0  0  0
    8.3272   -0.8746   24.5810 S   0  0  0  0  0  0  0  0  0  0  0  0
  1  2  2  0
  1  3  1  0
  2  5  1  0
  3  9  2  0
  4  6  2  0
  4  8  1  0
  5 17  2  0
  6 20  1  0
  7  8  2  0
  7 20  1  0
  8 14  1  0
  9 16  1  0
  9 17  1  0
 10 15  1  0
 10 18  1  0
 10 19  2  0
 11 12  1  0
 11 13  1  0
 12 14  1  0
 13 15  1  0
 14 15  1  0
 16 18  1  0
M  END
