ANT-LOU-17aa1493-3
     RDKit          3D

 20 20  0  0  0  0  0  0  0  0999 V2000
    9.7206    2.8546   24.0614 C   0  0  0  0  0  0  0  0  0  0  0  0
   11.9973    2.6605   23.2767 C   0  0  0  0  0  0  0  0  0  0  0  0
   10.7725    2.0702   23.5885 C   0  0  0  0  0  0  0  0  0  0  0  0
    9.8933    4.2294   24.2226 C   0  0  0  0  0  0  0  0  0  0  0  0
   12.1701    4.0352   23.4379 C   0  0  0  0  0  0  0  0  0  0  0  0
   11.1181    4.8197   23.9108 C   0  0  0  0  0  0  0  0  0  0  0  0
   11.5587   -0.1833   22.9713 C   0  0  0  0  0  0  0  0  0  0  0  0
   11.0409   -1.5894   22.9185 C   0  0  0  0  0  0  0  0  0  0  0  0
    9.4297   -3.5256   24.7653 C   0  0  0  0  0  0  0  0  0  0  0  0
    7.9711    5.5337   23.7131 C   0  0  0  0  0  0  0  0  0  0  0  0
   13.5474    5.0587   21.7913 C   0  0  0  0  0  0  0  0  0  0  0  0
   11.7618    6.6125   25.3346 C   0  0  0  0  0  0  0  0  0  0  0  0
    9.1534   -2.8832   23.4227 C   0  0  0  0  0  0  0  0  0  0  0  0
   10.5994    0.6951   23.4270 N   0  0  0  0  0  0  0  0  0  0  0  0
   12.7076   -0.0146   22.5991 O   0  0  0  0  0  0  0  0  0  0  0  0
   11.7366   -2.5047   22.5244 O   0  0  0  0  0  0  0  0  0  0  0  0
    8.8584    4.9847   24.6854 O   0  0  0  0  0  0  0  0  0  0  0  0
   13.3710    4.6003   23.1302 O   0  0  0  0  0  0  0  0  0  0  0  0
   11.2871    6.1637   24.0675 O   0  0  0  0  0  0  0  0  0  0  0  0
    9.7776   -1.5968   23.3844 O   0  0  0  0  0  0  0  0  0  0  0  0
  1  3  2  0
  1  4  1  0
  2  3  1  0
  2  5  2  0
  3 14  1  0
  4  6  2  0
  4 17  1  0
  5  6  1  0
  5 18  1  0
  6 19  1  0
  7  8  1  0
  7 14  1  0
  7 15  2  0
  8 16  2  0
  8 20  1  0
  9 13  1  0
 10 17  1  0
 11 18  1  0
 12 19  1  0
 13 20  1  0
M  END
