ANT-OPE-ab37bd51-1
     RDKit          3D

 18 19  0  0  0  0  0  0  0  0999 V2000
   10.2084   -2.9905   24.1730 C   0  0  0  0  0  0  0  0  0  0  0  0
   11.1951   -3.9526   24.3794 C   0  0  0  0  0  0  0  0  0  0  0  0
   10.5501   -1.6580   23.9149 C   0  0  0  0  0  0  0  0  0  0  0  0
   12.5509   -3.6157   24.3348 C   0  0  0  0  0  0  0  0  0  0  0  0
   13.9511   -0.3348   23.7089 C   0  0  0  0  0  0  0  0  0  0  0  0
   11.9105   -1.2946   23.8651 C   0  0  0  0  0  0  0  0  0  0  0  0
   12.8776   -2.2798   24.0758 C   0  0  0  0  0  0  0  0  0  0  0  0
   12.6025   -0.0727   23.6347 C   0  0  0  0  0  0  0  0  0  0  0  0
   11.7661    3.5146   22.9107 C   0  0  0  0  0  0  0  0  0  0  0  0
   10.8711    3.8570   23.8476 C   0  0  0  0  0  0  0  0  0  0  0  0
   12.7206    2.3913   23.1489 C   0  0  0  0  0  0  0  0  0  0  0  0
    8.2628    3.4525   22.5420 C   0  0  0  0  0  0  0  0  0  0  0  0
    8.0462    5.9202   22.2891 C   0  0  0  0  0  0  0  0  0  0  0  0
    9.8850    4.9672   23.6715 C   0  0  0  0  0  0  0  0  0  0  0  0
   14.1071   -1.6687   23.9750 N   0  0  0  0  0  0  0  0  0  0  0  0
   12.0567    1.1654   23.3806 N   0  0  0  0  0  0  0  0  0  0  0  0
    8.9978    4.7686   22.4960 N   0  0  0  0  0  0  0  0  0  0  0  0
   13.9325    2.5720   23.1332 O   0  0  0  0  0  0  0  0  0  0  0  0
  1  2  2  0
  1  3  1  0
  2  4  1  0
  3  6  2  0
  4  7  2  0
  5  8  2  0
  5 15  1  0
  6  7  1  0
  6  8  1  0
  7 15  1  0
  8 16  1  0
  9 10  2  0
  9 11  1  0
 10 14  1  0
 11 16  1  0
 11 18  2  0
 12 17  1  0
 13 17  1  0
 14 17  1  0
M  CHG  1  17   1
M  END
