ATU-SYN-3e3fbfe4-1
     RDKit          3D

 26 28  0  0  1  0  0  0  0  0999 V2000
    5.5264   -3.0341   26.7125 C   0  0  0  0  0  0  0  0  0  0  0  0
    4.3609   -3.6779   27.1178 C   0  0  0  0  0  0  0  0  0  0  0  0
    9.1455   -3.7837   26.3650 C   0  0  0  0  0  0  0  0  0  0  0  0
    5.6441   -5.6716   27.5676 C   0  0  0  0  0  0  0  0  0  0  0  0
    9.1123   -5.0918   26.8040 C   0  0  0  0  0  0  0  0  0  0  0  0
    6.7574   -3.7115   26.7344 C   0  0  0  0  0  0  0  0  0  0  0  0
    6.8250   -5.0523   27.1676 C   0  0  0  0  0  0  0  0  0  0  0  0
    7.9459   -3.0875   26.3318 C   0  0  0  0  0  0  0  0  0  0  0  0
    4.4202   -4.9983   27.5459 C   0  0  0  0  0  0  0  0  0  0  0  0
    5.7673   -1.9454   19.0834 C   0  0  0  0  0  0  0  0  0  0  0  0
    6.8424   -0.6434   20.9821 C   0  0  0  0  0  0  0  0  0  0  0  0
    6.1350   -2.9809   21.2981 C   0  0  0  0  0  0  0  0  0  0  0  0
    8.1340   -0.9600   21.7383 C   0  0  0  0  0  0  0  0  0  0  0  0
    7.4417   -3.2541   22.0421 C   0  0  0  0  0  0  0  0  0  0  0  0
    5.8214   -0.6920   18.2467 C   0  0  0  0  0  0  0  0  0  0  0  0
    9.1542   -2.3125   23.4529 C   0  0  0  0  0  0  0  0  0  0  0  0
    9.3511   -1.3561   24.6133 C   0  0  0  0  0  0  0  0  0  0  0  0
    7.9878   -5.7304   27.2010 N   0  0  0  0  0  0  0  0  0  0  0  0
    8.4204   -0.5744   26.9971 N   0  0  0  0  0  0  0  0  0  0  0  0
    6.2736   -1.8523   20.3790 N   0  0  0  0  0  0  0  0  0  0  0  0
    7.9219   -2.0383   22.7149 N   0  0  0  0  0  0  0  0  0  0  0  0
    5.2931   -2.9755   18.5979 O   0  0  0  0  0  0  0  0  0  0  0  0
    6.8095   -1.1982   24.9673 O   0  0  0  0  0  0  0  0  0  0  0  0
    8.0107   -1.4087   25.7615 S   0  0  0  0  0  0  0  0  0  0  0  0
    2.9865   -5.8054   28.0515 Cl  0  0  0  0  0  0  0  0  0  0  0  0
    5.1578   -1.1093   16.6709 Cl  0  0  0  0  0  0  0  0  0  0  0  0
  1  2  2  0
  1  6  1  0
  2  9  1  0
  3  5  1  0
  3  8  2  0
  4  7  1  0
  4  9  2  0
  5 18  2  0
  6  7  2  0
  6  8  1  0
  7 18  1  0
  8 24  1  0
  9 25  1  0
 10 15  1  0
 10 20  1  0
 10 22  2  0
 11 13  1  0
 11 20  1  0
 12 14  1  0
 12 20  1  0
 13 21  1  0
 14 21  1  0
 15 26  1  0
 16 17  1  0
 16 21  1  0
 17 24  1  0
 19 24  2  0
 23 24  2  0
M  END
