AUS-ARG-7cfdce8f-7
     RDKit          3D

 25 28  0  0  0  0  0  0  0  0999 V2000
    8.2792   -5.2473   23.8654 C   0  0  0  0  0  0  0  0  0  0  0  0
    7.6309   -5.7456   22.7408 C   0  0  0  0  0  0  0  0  0  0  0  0
    5.7296    1.3508   19.0217 C   0  0  0  0  0  0  0  0  0  0  0  0
    8.5424   -3.8843   23.9584 C   0  0  0  0  0  0  0  0  0  0  0  0
    6.1052    0.5280   20.0778 C   0  0  0  0  0  0  0  0  0  0  0  0
   12.4868   -0.3127   24.9778 C   0  0  0  0  0  0  0  0  0  0  0  0
    7.2471   -4.8805   21.7120 C   0  0  0  0  0  0  0  0  0  0  0  0
   11.0963   -0.4079   25.0310 C   0  0  0  0  0  0  0  0  0  0  0  0
   11.0850   -1.4599   22.8561 C   0  0  0  0  0  0  0  0  0  0  0  0
    6.2686    1.0894   17.7724 C   0  0  0  0  0  0  0  0  0  0  0  0
    7.4779   -0.6944   18.5686 C   0  0  0  0  0  0  0  0  0  0  0  0
    8.1533   -3.0208   22.9196 C   0  0  0  0  0  0  0  0  0  0  0  0
    6.9957   -0.5164   19.8553 C   0  0  0  0  0  0  0  0  0  0  0  0
   13.1765   -0.7910   23.8636 C   0  0  0  0  0  0  0  0  0  0  0  0
   12.4756   -1.3646   22.8028 C   0  0  0  0  0  0  0  0  0  0  0  0
    7.4978   -3.5121   21.7788 C   0  0  0  0  0  0  0  0  0  0  0  0
   10.3953   -0.9815   23.9702 C   0  0  0  0  0  0  0  0  0  0  0  0
    8.3861   -1.6487   22.9503 C   0  0  0  0  0  0  0  0  0  0  0  0
    7.4040   -1.3852   20.9283 C   0  0  0  0  0  0  0  0  0  0  0  0
   14.6652   -0.6780   23.8295 C   0  0  0  0  0  0  0  0  0  0  0  0
   13.1925   -1.8825   21.5994 C   0  0  0  0  0  0  0  0  0  0  0  0
    7.1362    0.0844   17.5177 N   0  0  0  0  0  0  0  0  0  0  0  0
    7.1210   -2.6952   20.7796 N   0  0  0  0  0  0  0  0  0  0  0  0
    8.0228   -0.8028   21.9679 N   0  0  0  0  0  0  0  0  0  0  0  0
    9.0193   -1.0754   24.0226 O   0  0  0  0  0  0  0  0  0  0  0  0
  1  2  2  0
  1  4  1  0
  2  7  1  0
  3  5  2  0
  3 10  1  0
  4 12  2  0
  5 13  1  0
  6  8  2  0
  6 14  1  0
  7 16  2  0
  8 17  1  0
  9 15  1  0
  9 17  2  0
 10 22  2  0
 11 13  2  0
 11 22  1  0
 12 16  1  0
 12 18  1  0
 13 19  1  0
 14 15  2  0
 14 20  1  0
 15 21  1  0
 16 23  1  0
 17 25  1  0
 18 24  2  0
 18 25  1  0
 19 23  2  0
 19 24  1  0
M  END
