AUS-ARG-7cfdce8f-3
     RDKit          3D

 22 24  0  0  1  0  0  0  0  0999 V2000
    9.9459   -2.1764   23.1468 C   0  0  0  0  0  0  0  0  0  0  0  0
    9.5699   -3.1947   24.0221 C   0  0  0  0  0  0  0  0  0  0  0  0
    8.3474   -1.5949   25.3479 C   0  0  0  0  0  0  0  0  0  0  0  0
    9.5245   -0.8521   23.3577 C   0  0  0  0  0  0  0  0  0  0  0  0
    8.7110   -0.5612   24.4697 C   0  0  0  0  0  0  0  0  0  0  0  0
    8.7702   -2.9040   25.1223 C   0  0  0  0  0  0  0  0  0  0  0  0
    7.2807    0.3362   18.9550 C   0  0  0  0  0  0  0  0  0  0  0  0
    6.8736    0.5130   20.3650 C   0  0  0  0  0  0  0  0  0  0  0  0
    5.6375    0.9953   20.5313 C   0  0  0  0  0  0  0  0  0  0  0  0
    4.7767    1.3143   19.3629 C   0  0  0  0  0  0  0  0  0  0  0  0
    8.2724    0.8456   24.7905 C   0  0  0  0  0  0  0  0  0  0  0  0
    8.4171    1.8144   23.6207 C   0  0  0  0  0  0  0  0  0  0  0  0
    9.7725    1.6382   22.9469 C   0  0  0  0  0  0  0  0  0  0  0  0
    9.9381    0.2228   22.3694 C   0  0  0  0  0  0  0  0  0  0  0  0
    8.8777   -5.2103   25.6928 C   0  0  0  0  0  0  0  0  0  0  0  0
    9.1660    0.0675   21.0529 C   0  0  0  0  0  0  0  0  0  0  0  0
    6.5752    0.5963   17.9056 N   0  0  0  0  0  0  0  0  0  0  0  0
    5.3318    1.0823   18.1247 N   0  0  0  0  0  0  0  0  0  0  0  0
    7.7708    0.1773   21.3043 N   0  0  0  0  0  0  0  0  0  0  0  0
    3.6390    1.7582   19.5069 O   0  0  0  0  0  0  0  0  0  0  0  0
    8.4052   -3.8950   25.9805 O   0  0  0  0  0  0  0  0  0  0  0  0
    4.9686    1.2762   22.0969 Cl  0  0  0  0  0  0  0  0  0  0  0  0
  1  2  2  0
  1  4  1  0
  2  6  1  0
  3  5  1  0
  3  6  2  0
  4  5  2  0
  4 14  1  0
  5 11  1  0
  6 21  1  0
  7  8  1  0
  7 17  2  0
  8  9  2  0
  8 19  1  0
  9 10  1  0
  9 22  1  0
 10 18  1  0
 10 20  2  0
 11 12  1  0
 12 13  1  0
 13 14  1  0
 14 16  1  0
 15 21  1  0
 16 19  1  0
 17 18  1  0
M  END
