AUS-ARG-7cfdce8f-17
     RDKit          3D

 23 25  0  0  1  0  0  0  0  0999 V2000
    5.7867    1.1327   19.2025 C   0  0  0  0  0  0  0  0  0  0  0  0
    6.3356    0.4591   20.2880 C   0  0  0  0  0  0  0  0  0  0  0  0
    6.4333    1.0303   17.9814 C   0  0  0  0  0  0  0  0  0  0  0  0
    8.0677   -0.3248   18.8592 C   0  0  0  0  0  0  0  0  0  0  0  0
    7.4978   -0.2858   20.1216 C   0  0  0  0  0  0  0  0  0  0  0  0
   13.3417   -1.0251   23.1120 C   0  0  0  0  0  0  0  0  0  0  0  0
   13.5203   -1.6509   21.9008 C   0  0  0  0  0  0  0  0  0  0  0  0
   11.7501   -0.3385   21.8768 C   0  0  0  0  0  0  0  0  0  0  0  0
   10.6338    1.8775   21.3466 C   0  0  0  0  0  0  0  0  0  0  0  0
    8.6624    1.3193   22.5451 C   0  0  0  0  0  0  0  0  0  0  0  0
   10.5225    0.3471   21.3160 C   0  0  0  0  0  0  0  0  0  0  0  0
    9.8312    2.2908   22.5704 C   0  0  0  0  0  0  0  0  0  0  0  0
   14.1588   -1.1413   24.3305 C   0  0  0  0  0  0  0  0  0  0  0  0
   14.5286   -2.6026   21.4088 C   0  0  0  0  0  0  0  0  0  0  0  0
   10.4076    4.5497   22.7978 C   0  0  0  0  0  0  0  0  0  0  0  0
    7.5637    0.3164   17.7810 N   0  0  0  0  0  0  0  0  0  0  0  0
   12.2379   -0.2098   23.0907 N   0  0  0  0  0  0  0  0  0  0  0  0
   12.4928   -1.2015   21.1200 N   0  0  0  0  0  0  0  0  0  0  0  0
    9.2660    0.0422   22.0829 N   0  0  0  0  0  0  0  0  0  0  0  0
    7.1760   -1.4141   22.4446 O   0  0  0  0  0  0  0  0  0  0  0  0
    9.0127   -2.2433   20.9325 O   0  0  0  0  0  0  0  0  0  0  0  0
    9.3803    3.6268   22.4654 O   0  0  0  0  0  0  0  0  0  0  0  0
    8.2245   -1.1551   21.4772 S   0  0  0  0  0  0  0  0  0  0  0  0
  1  2  2  0
  1  3  1  0
  2  5  1  0
  3 16  2  0
  4  5  2  0
  4 16  1  0
  5 23  1  0
  6  7  2  0
  6 13  1  0
  6 17  1  0
  7 14  1  0
  7 18  1  0
  8 11  1  0
  8 17  2  0
  8 18  1  0
  9 11  1  0
  9 12  1  0
 10 12  1  0
 10 19  1  0
 11 19  1  0
 12 22  1  0
 15 22  1  0
 19 23  1  0
 20 23  2  0
 21 23  2  0
M  END
