AUS-ARG-7cfdce8f-4
     RDKit          3D

 25 28  0  0  1  0  0  0  0  0999 V2000
    8.1849   -5.5937   26.6243 C   0  0  0  0  0  0  0  0  0  0  0  0
    6.9764   -4.9891   26.9817 C   0  0  0  0  0  0  0  0  0  0  0  0
    7.3220   -3.2097   25.3656 C   0  0  0  0  0  0  0  0  0  0  0  0
    5.6179    0.7527   17.9823 C   0  0  0  0  0  0  0  0  0  0  0  0
    5.1376    1.2650   19.1674 C   0  0  0  0  0  0  0  0  0  0  0  0
    7.7152    0.6295   18.8855 C   0  0  0  0  0  0  0  0  0  0  0  0
   10.5330   -4.4358   24.1219 C   0  0  0  0  0  0  0  0  0  0  0  0
    8.5442   -3.8010   24.9887 C   0  0  0  0  0  0  0  0  0  0  0  0
    9.5547   -3.4716   24.0425 C   0  0  0  0  0  0  0  0  0  0  0  0
    8.9466   -4.9770   25.6254 C   0  0  0  0  0  0  0  0  0  0  0  0
    6.5496   -3.8155   26.3633 C   0  0  0  0  0  0  0  0  0  0  0  0
    7.2352    1.1425   20.0703 C   0  0  0  0  0  0  0  0  0  0  0  0
    8.3650   -2.3489   22.1659 C   0  0  0  0  0  0  0  0  0  0  0  0
    9.5679   -0.9849   23.9208 C   0  0  0  0  0  0  0  0  0  0  0  0
    8.3344   -1.1297   21.2532 C   0  0  0  0  0  0  0  0  0  0  0  0
    9.5283    0.2238   22.9945 C   0  0  0  0  0  0  0  0  0  0  0  0
    9.5623   -2.3025   23.1290 C   0  0  0  0  0  0  0  0  0  0  0  0
    7.7096    2.5010   22.1494 C   0  0  0  0  0  0  0  0  0  0  0  0
    4.6222   -3.9119   27.7533 C   0  0  0  0  0  0  0  0  0  0  0  0
    8.1623    1.3581   21.2442 C   0  0  0  0  0  0  0  0  0  0  0  0
    6.9153    0.4257   17.8201 N   0  0  0  0  0  0  0  0  0  0  0  0
    5.9377    1.4691   20.2327 N   0  0  0  0  0  0  0  0  0  0  0  0
   10.1572   -5.3396   25.0792 N   0  0  0  0  0  0  0  0  0  0  0  0
    8.3218    0.1258   22.0919 N   0  0  0  0  0  0  0  0  0  0  0  0
    5.3659   -3.2497   26.7326 O   0  0  0  0  0  0  0  0  0  0  0  0
  1  2  2  0
  1 10  1  0
  2 11  1  0
  3  8  1  0
  3 11  2  0
  4  5  2  0
  4 21  1  0
  5 22  1  0
  6 12  1  0
  6 21  2  0
  7  9  2  0
  7 23  1  0
  8  9  1  0
  8 10  2  0
  9 17  1  0
 10 23  1  0
 11 25  1  0
 12 20  1  0
 12 22  2  0
 13 15  1  0
 13 17  1  0
 14 16  1  0
 14 17  1  0
 15 24  1  0
 16 24  1  0
 18 20  1  0
 19 25  1  0
 20 24  1  0
M  CHG  1  24   1
M  END
