AUS-ARG-7cfdce8f-9
     RDKit          3D

 25 28  0  0  0  0  0  0  0  0999 V2000
   11.1725    0.9869   25.0018 C   0  0  0  0  0  0  0  0  0  0  0  0
   11.5821    1.8643   24.0040 C   0  0  0  0  0  0  0  0  0  0  0  0
    5.1922    1.1437   18.8590 C   0  0  0  0  0  0  0  0  0  0  0  0
   10.0353    0.2092   24.8076 C   0  0  0  0  0  0  0  0  0  0  0  0
    5.8706    1.0375   20.0681 C   0  0  0  0  0  0  0  0  0  0  0  0
   10.8543    1.9620   22.8144 C   0  0  0  0  0  0  0  0  0  0  0  0
    9.0832   -2.9460   23.2203 C   0  0  0  0  0  0  0  0  0  0  0  0
    9.5799   -4.2461   23.1275 C   0  0  0  0  0  0  0  0  0  0  0  0
    8.2373   -4.8947   25.0285 C   0  0  0  0  0  0  0  0  0  0  0  0
    5.8864    0.8457   17.6975 C   0  0  0  0  0  0  0  0  0  0  0  0
    7.8076    0.3661   18.8625 C   0  0  0  0  0  0  0  0  0  0  0  0
    9.3089    0.3132   23.6086 C   0  0  0  0  0  0  0  0  0  0  0  0
    7.2035    0.6419   20.0786 C   0  0  0  0  0  0  0  0  0  0  0  0
    9.7127    1.1956   22.5933 C   0  0  0  0  0  0  0  0  0  0  0  0
    8.1636   -2.6202   24.2172 C   0  0  0  0  0  0  0  0  0  0  0  0
    9.1569   -5.2205   24.0316 C   0  0  0  0  0  0  0  0  0  0  0  0
    7.7406   -3.5946   25.1213 C   0  0  0  0  0  0  0  0  0  0  0  0
    8.1640   -0.4356   23.3513 C   0  0  0  0  0  0  0  0  0  0  0  0
    7.9329    0.5231   21.3141 C   0  0  0  0  0  0  0  0  0  0  0  0
    7.1813    0.4582   17.6680 N   0  0  0  0  0  0  0  0  0  0  0  0
    9.0255    1.3029   21.4426 N   0  0  0  0  0  0  0  0  0  0  0  0
    7.4525   -0.3529   22.2113 N   0  0  0  0  0  0  0  0  0  0  0  0
    7.6918   -1.3247   24.2818 O   0  0  0  0  0  0  0  0  0  0  0  0
    9.6341   -6.4689   23.9421 F   0  0  0  0  0  0  0  0  0  0  0  0
    6.4921   -3.1884   26.4881 Br  0  0  0  0  0  0  0  0  0  0  0  0
  1  2  2  0
  1  4  1  0
  2  6  1  0
  3  5  2  0
  3 10  1  0
  4 12  2  0
  5 13  1  0
  6 14  2  0
  7  8  2  0
  7 15  1  0
  8 16  1  0
  9 16  2  0
  9 17  1  0
 10 20  2  0
 11 13  2  0
 11 20  1  0
 12 14  1  0
 12 18  1  0
 13 19  1  0
 14 21  1  0
 15 17  2  0
 15 23  1  0
 16 24  1  0
 17 25  1  0
 18 22  2  0
 18 23  1  0
 19 21  2  0
 19 22  1  0
M  END
