AUS-ARG-7cfdce8f-16
     RDKit          3D

 27 31  0  0  0  0  0  0  0  0999 V2000
    7.2586   -6.5506   24.5205 C   0  0  0  0  0  0  0  0  0  0  0  0
    6.4760   -5.8299   25.4178 C   0  0  0  0  0  0  0  0  0  0  0  0
   12.0678    2.5394   24.0099 C   0  0  0  0  0  0  0  0  0  0  0  0
   12.1425    3.2554   22.8204 C   0  0  0  0  0  0  0  0  0  0  0  0
    5.3147    0.4868   19.1412 C   0  0  0  0  0  0  0  0  0  0  0  0
    8.2393   -5.9009   23.7706 C   0  0  0  0  0  0  0  0  0  0  0  0
    6.6712   -4.4567   25.5686 C   0  0  0  0  0  0  0  0  0  0  0  0
   11.0886    1.5629   24.1630 C   0  0  0  0  0  0  0  0  0  0  0  0
    9.4323   -3.8490   23.1628 C   0  0  0  0  0  0  0  0  0  0  0  0
    6.1753    0.7362   20.2044 C   0  0  0  0  0  0  0  0  0  0  0  0
   11.2385    2.9935   21.7866 C   0  0  0  0  0  0  0  0  0  0  0  0
    9.6275   -2.4758   23.3135 C   0  0  0  0  0  0  0  0  0  0  0  0
    7.8641   -2.4048   24.9607 C   0  0  0  0  0  0  0  0  0  0  0  0
    5.8702    0.0812   17.9384 C   0  0  0  0  0  0  0  0  0  0  0  0
    8.0016    0.1649   18.7920 C   0  0  0  0  0  0  0  0  0  0  0  0
    8.4496   -4.5193   23.9094 C   0  0  0  0  0  0  0  0  0  0  0  0
    7.6538   -3.7864   24.8219 C   0  0  0  0  0  0  0  0  0  0  0  0
   10.1833    1.3054   23.1188 C   0  0  0  0  0  0  0  0  0  0  0  0
    7.5459    0.5746   20.0347 C   0  0  0  0  0  0  0  0  0  0  0  0
   10.2487    2.0218   21.9126 C   0  0  0  0  0  0  0  0  0  0  0  0
    8.8449   -1.7551   24.2107 C   0  0  0  0  0  0  0  0  0  0  0  0
    9.1814    0.3430   23.2074 C   0  0  0  0  0  0  0  0  0  0  0  0
    8.4625    0.8255   21.1162 C   0  0  0  0  0  0  0  0  0  0  0  0
    7.1962   -0.0868   17.7357 N   0  0  0  0  0  0  0  0  0  0  0  0
    9.3882    1.7836   20.9074 N   0  0  0  0  0  0  0  0  0  0  0  0
    8.3037    0.0792   22.2211 N   0  0  0  0  0  0  0  0  0  0  0  0
    9.0368   -0.4156   24.3568 O   0  0  0  0  0  0  0  0  0  0  0  0
  1  2  2  0
  1  6  1  0
  2  7  1  0
  3  4  2  0
  3  8  1  0
  4 11  1  0
  5 10  2  0
  5 14  1  0
  6 16  2  0
  7 17  2  0
  8 18  2  0
  9 12  2  0
  9 16  1  0
 10 19  1  0
 11 20  2  0
 12 21  1  0
 13 17  1  0
 13 21  2  0
 14 24  2  0
 15 19  2  0
 15 24  1  0
 16 17  1  0
 18 20  1  0
 18 22  1  0
 19 23  1  0
 20 25  1  0
 21 27  1  0
 22 26  2  0
 22 27  1  0
 23 25  2  0
 23 26  1  0
M  END
