AUS-ARG-7cfdce8f-12
     RDKit          3D

 30 32  0  0  1  0  0  0  0  0999 V2000
    7.7603    5.8279   25.2153 C   0  0  0  0  0  0  0  0  0  0  0  0
    9.0836    5.3887   25.2531 C   0  0  0  0  0  0  0  0  0  0  0  0
    9.9936   -3.9539   24.3192 C   0  0  0  0  0  0  0  0  0  0  0  0
    7.2980    6.5557   24.1188 C   0  0  0  0  0  0  0  0  0  0  0  0
   10.9222   -3.0190   23.8752 C   0  0  0  0  0  0  0  0  0  0  0  0
    9.4825    6.4052   23.0980 C   0  0  0  0  0  0  0  0  0  0  0  0
    8.2584   -2.4881   23.6139 C   0  0  0  0  0  0  0  0  0  0  0  0
    9.9448    5.6774   24.1945 C   0  0  0  0  0  0  0  0  0  0  0  0
    8.6344   -3.6910   24.1897 C   0  0  0  0  0  0  0  0  0  0  0  0
   12.3656    0.9617   22.3216 C   0  0  0  0  0  0  0  0  0  0  0  0
    8.1591    6.8444   23.0602 C   0  0  0  0  0  0  0  0  0  0  0  0
   13.1748   -0.1663   22.0878 C   0  0  0  0  0  0  0  0  0  0  0  0
   11.1975    0.4472   22.8288 C   0  0  0  0  0  0  0  0  0  0  0  0
   10.4438   -1.8463   23.3133 C   0  0  0  0  0  0  0  0  0  0  0  0
   12.6126    3.2684   23.3193 C   0  0  0  0  0  0  0  0  0  0  0  0
   14.5438   -0.1986   21.5443 C   0  0  0  0  0  0  0  0  0  0  0  0
    9.9585    1.1192   23.2704 C   0  0  0  0  0  0  0  0  0  0  0  0
   12.3810    6.3531   24.1888 C   0  0  0  0  0  0  0  0  0  0  0  0
   12.7014    2.4084   22.0732 C   0  0  0  0  0  0  0  0  0  0  0  0
   11.3594    5.2072   24.2361 C   0  0  0  0  0  0  0  0  0  0  0  0
    7.6164   -4.6703   24.6554 C   0  0  0  0  0  0  0  0  0  0  0  0
    9.1312   -1.5556   23.1708 N   0  0  0  0  0  0  0  0  0  0  0  0
   12.5718   -1.3111   22.4195 N   0  0  0  0  0  0  0  0  0  0  0  0
   11.3714   -0.9051   22.8669 N   0  0  0  0  0  0  0  0  0  0  0  0
   11.6485    4.2501   23.1815 N   0  0  0  0  0  0  0  0  0  0  0  0
   13.3131    3.0959   24.3135 O   0  0  0  0  0  0  0  0  0  0  0  0
    7.7155    7.5436   22.0073 F   0  0  0  0  0  0  0  0  0  0  0  0
    8.1514   -5.8052   25.1998 F   0  0  0  0  0  0  0  0  0  0  0  0
    6.7792   -4.1786   25.6184 F   0  0  0  0  0  0  0  0  0  0  0  0
    6.7982   -5.1018   23.6496 F   0  0  0  0  0  0  0  0  0  0  0  0
  1  2  2  0
  1  4  1  0
  2  8  1  0
  3  5  2  0
  3  9  1  0
  4 11  2  0
  5 14  1  0
  6  8  2  0
  6 11  1  0
  7  9  2  0
  7 22  1  0
  8 20  1  0
  9 21  1  0
 10 12  1  0
 10 13  2  0
 10 19  1  0
 11 27  1  0
 12 16  1  0
 12 23  2  0
 13 17  1  0
 13 24  1  0
 14 22  2  0
 14 24  1  0
 15 19  1  0
 15 25  1  0
 15 26  2  0
 18 20  1  0
 20 25  1  0
 21 28  1  0
 21 29  1  0
 21 30  1  0
 23 24  1  0
M  END
