AUS-ARG-7cfdce8f-6
     RDKit          3D

 21 23  0  0  0  0  0  0  0  0999 V2000
    5.7976    1.3276   19.2710 C   0  0  0  0  0  0  0  0  0  0  0  0
   13.1791   -0.2638   21.9631 C   0  0  0  0  0  0  0  0  0  0  0  0
   13.0375   -0.4013   24.3710 C   0  0  0  0  0  0  0  0  0  0  0  0
    6.2934    0.7877   20.4526 C   0  0  0  0  0  0  0  0  0  0  0  0
   13.9079   -1.4529   21.9380 C   0  0  0  0  0  0  0  0  0  0  0  0
   13.7662   -1.5905   24.3460 C   0  0  0  0  0  0  0  0  0  0  0  0
    6.4214    0.9751   18.0851 C   0  0  0  0  0  0  0  0  0  0  0  0
    7.9351   -0.3657   19.1755 C   0  0  0  0  0  0  0  0  0  0  0  0
   10.4658    3.0391   22.9053 C   0  0  0  0  0  0  0  0  0  0  0  0
   12.7440    0.2620   23.1796 C   0  0  0  0  0  0  0  0  0  0  0  0
   14.2014   -2.1162   23.1294 C   0  0  0  0  0  0  0  0  0  0  0  0
    7.3824   -0.0760   20.4126 C   0  0  0  0  0  0  0  0  0  0  0  0
   10.7551    1.7357   22.5830 C   0  0  0  0  0  0  0  0  0  0  0  0
   11.9932    1.4858   23.2048 C   0  0  0  0  0  0  0  0  0  0  0  0
   14.9794   -3.3882   23.1014 C   0  0  0  0  0  0  0  0  0  0  0  0
    7.9400   -0.6754   21.6699 C   0  0  0  0  0  0  0  0  0  0  0  0
    9.9378    0.8208   21.7671 C   0  0  0  0  0  0  0  0  0  0  0  0
    7.4811    0.1394   18.0066 N   0  0  0  0  0  0  0  0  0  0  0  0
   12.4585    2.5456   23.8714 N   0  0  0  0  0  0  0  0  0  0  0  0
   11.5078    3.4740   23.6704 N   0  0  0  0  0  0  0  0  0  0  0  0
    8.7301    0.2894   22.4728 N   0  0  0  0  0  0  0  0  0  0  0  0
  1  4  2  0
  1  7  1  0
  2  5  2  0
  2 10  1  0
  3  6  1  0
  3 10  2  0
  4 12  1  0
  5 11  1  0
  6 11  2  0
  7 18  2  0
  8 12  2  0
  8 18  1  0
  9 13  2  0
  9 20  1  0
 10 14  1  0
 11 15  1  0
 12 16  1  0
 13 14  1  0
 13 17  1  0
 14 19  2  0
 16 21  1  0
 17 21  1  0
 19 20  1  0
M  CHG  1  21   1
M  END
