AVI-UNI-70b60925-1
     RDKit          3D

 27 29  0  0  1  0  0  0  0  0999 V2000
    8.4503   -4.6114   27.2053 C   0  0  0  0  0  0  0  0  0  0  0  0
    8.6769   -4.6519   25.8296 C   0  0  0  0  0  0  0  0  0  0  0  0
   12.9413    0.1002   23.3378 C   0  0  0  0  0  0  0  0  0  0  0  0
   11.7319    0.3674   23.9792 C   0  0  0  0  0  0  0  0  0  0  0  0
    7.2568   -5.1068   27.7305 C   0  0  0  0  0  0  0  0  0  0  0  0
   11.8428   -1.5461   21.9522 C   0  0  0  0  0  0  0  0  0  0  0  0
    6.5164   -5.6832   25.5041 C   0  0  0  0  0  0  0  0  0  0  0  0
   10.6333   -1.2790   22.5937 C   0  0  0  0  0  0  0  0  0  0  0  0
    7.7100   -5.1878   24.9790 C   0  0  0  0  0  0  0  0  0  0  0  0
   12.9968   -0.8565   22.3242 C   0  0  0  0  0  0  0  0  0  0  0  0
   10.5779   -0.3222   23.6072 C   0  0  0  0  0  0  0  0  0  0  0  0
    6.2898   -5.6427   26.8799 C   0  0  0  0  0  0  0  0  0  0  0  0
    6.7596   -2.1549   19.9350 C   0  0  0  0  0  0  0  0  0  0  0  0
    6.1836   -2.0095   22.3247 C   0  0  0  0  0  0  0  0  0  0  0  0
    8.3508   -1.0629   21.5859 C   0  0  0  0  0  0  0  0  0  0  0  0
    6.3845   -3.3936   22.9306 C   0  0  0  0  0  0  0  0  0  0  0  0
    8.8545   -2.8993   23.3405 C   0  0  0  0  0  0  0  0  0  0  0  0
    9.3831   -2.0419   22.1743 C   0  0  0  0  0  0  0  0  0  0  0  0
    7.9539   -5.2299   23.4993 C   0  0  0  0  0  0  0  0  0  0  0  0
    7.7338   -1.8180   18.8341 C   0  0  0  0  0  0  0  0  0  0  0  0
    7.0895   -1.7149   21.2181 N   0  0  0  0  0  0  0  0  0  0  0  0
    7.8115   -3.8816   22.8381 N   0  0  0  0  0  0  0  0  0  0  0  0
    5.7352   -2.7879   19.6669 O   0  0  0  0  0  0  0  0  0  0  0  0
   14.1771   -1.1166   21.6984 O   0  0  0  0  0  0  0  0  0  0  0  0
    9.4051   -0.0498   24.2450 O   0  0  0  0  0  0  0  0  0  0  0  0
    4.8170   -6.2528   27.5283 Cl  0  0  0  0  0  0  0  0  0  0  0  0
    7.2166   -0.2775   18.1579 Cl  0  0  0  0  0  0  0  0  0  0  0  0
  1  2  2  0
  1  5  1  0
  2  9  1  0
  3  4  2  0
  3 10  1  0
  4 11  1  0
  5 12  2  0
  6  8  1  0
  6 10  2  0
  7  9  2  0
  7 12  1  0
  8 11  2  0
  8 18  1  0
  9 19  1  0
 10 24  1  0
 11 25  1  0
 12 26  1  0
 13 20  1  0
 13 21  1  0
 13 23  2  0
 14 16  1  0
 14 21  1  0
 15 18  1  0
 15 21  1  0
 16 22  1  0
 17 18  1  0
 17 22  1  0
 19 22  1  0
 20 27  1  0
M  CHG  1  22   1
M  END
