AVI-UNI-cf069e49-2
     RDKit          3D

 34 39  0  0  1  0  0  0  0  0999 V2000
    8.3257    6.6630   22.5124 C   0  0  0  0  0  0  0  0  0  0  0  0
    8.8489    5.4132   22.8386 C   0  0  0  0  0  0  0  0  0  0  0  0
   12.6270    4.1582   22.4415 C   0  0  0  0  0  0  0  0  0  0  0  0
    7.8370    7.4701   23.5314 C   0  0  0  0  0  0  0  0  0  0  0  0
    8.9802    4.1956   26.2554 C   0  0  0  0  0  0  0  0  0  0  0  0
   12.5143    5.9391   23.7803 C   0  0  0  0  0  0  0  0  0  0  0  0
    8.8519    5.0398   24.1908 C   0  0  0  0  0  0  0  0  0  0  0  0
    9.2686    3.9116   24.9410 C   0  0  0  0  0  0  0  0  0  0  0  0
   13.0888    5.4847   22.6161 C   0  0  0  0  0  0  0  0  0  0  0  0
   11.8034    3.8965   23.5117 C   0  0  0  0  0  0  0  0  0  0  0  0
    8.3304    5.9460   25.1123 C   0  0  0  0  0  0  0  0  0  0  0  0
   11.6177    1.3755   23.3510 C   0  0  0  0  0  0  0  0  0  0  0  0
    9.8912    2.6615   24.4590 C   0  0  0  0  0  0  0  0  0  0  0  0
   11.0697    2.6421   23.7953 C   0  0  0  0  0  0  0  0  0  0  0  0
   10.9861    0.2123   23.5678 C   0  0  0  0  0  0  0  0  0  0  0  0
    9.1778    1.3601   24.7371 C   0  0  0  0  0  0  0  0  0  0  0  0
    7.0059   -4.5208   25.6872 C   0  0  0  0  0  0  0  0  0  0  0  0
   11.5803   -1.0676   23.0609 C   0  0  0  0  0  0  0  0  0  0  0  0
    7.5757   -3.3794   24.8670 C   0  0  0  0  0  0  0  0  0  0  0  0
    9.8677   -3.9888   25.6283 C   0  0  0  0  0  0  0  0  0  0  0  0
    9.3417   -5.3016   26.1791 C   0  0  0  0  0  0  0  0  0  0  0  0
    9.1332   -1.0830   24.5815 C   0  0  0  0  0  0  0  0  0  0  0  0
    9.0243   -3.5785   24.4223 C   0  0  0  0  0  0  0  0  0  0  0  0
    9.5730   -2.3080   23.7779 C   0  0  0  0  0  0  0  0  0  0  0  0
   11.6971   -3.5449   23.1239 C   0  0  0  0  0  0  0  0  0  0  0  0
    7.8144    7.1619   24.8488 N   0  0  0  0  0  0  0  0  0  0  0  0
    7.9055   -5.3008   26.3784 N   0  0  0  0  0  0  0  0  0  0  0  0
    9.7769    0.1885   24.2464 N   0  0  0  0  0  0  0  0  0  0  0  0
   11.0853   -2.3184   23.7507 N   0  0  0  0  0  0  0  0  0  0  0  0
    8.1241    1.3767   25.3768 O   0  0  0  0  0  0  0  0  0  0  0  0
    5.7870   -4.6753   25.7841 O   0  0  0  0  0  0  0  0  0  0  0  0
   11.7295    4.9770   24.3325 O   0  0  0  0  0  0  0  0  0  0  0  0
    8.4121    5.4240   26.3704 O   0  0  0  0  0  0  0  0  0  0  0  0
   13.9148    6.1910   21.8344 O   0  0  0  0  0  0  0  0  0  0  0  0
  1  2  2  0
  1  4  1  0
  2  7  1  0
  3  9  1  0
  3 10  2  0
  4 26  2  0
  5  8  2  0
  5 33  1  0
  6  9  2  0
  6 32  1  0
  7  8  1  0
  7 11  2  0
  8 13  1  0
  9 34  1  0
 10 14  1  0
 10 32  1  0
 11 26  1  0
 11 33  1  0
 12 14  1  0
 12 15  2  0
 13 14  2  0
 13 16  1  0
 15 18  1  0
 15 28  1  0
 16 28  1  0
 16 30  2  0
 17 19  1  0
 17 27  1  0
 17 31  2  0
 18 29  1  0
 19 23  1  0
 20 21  1  0
 20 23  1  0
 21 27  1  0
 22 24  1  0
 22 28  1  0
 23 24  1  0
 24 29  1  0
 25 29  1  0
M  CHG  1  29   1
M  END
