AVI-UNI-c9bf710f-2
     RDKit          3D

 27 29  0  0  1  0  0  0  0  0999 V2000
   11.1293    5.5692   23.7777 C   0  0  0  0  0  0  0  0  0  0  0  0
    4.2507    1.3293   20.3962 C   0  0  0  0  0  0  0  0  0  0  0  0
    9.9138    5.1953   24.3507 C   0  0  0  0  0  0  0  0  0  0  0  0
    4.9715    1.3740   19.2030 C   0  0  0  0  0  0  0  0  0  0  0  0
   11.4070    3.3327   22.9071 C   0  0  0  0  0  0  0  0  0  0  0  0
    6.1183    0.2499   21.4842 C   0  0  0  0  0  0  0  0  0  0  0  0
   10.1915    2.9587   23.4801 C   0  0  0  0  0  0  0  0  0  0  0  0
    6.8392    0.2945   20.2909 C   0  0  0  0  0  0  0  0  0  0  0  0
   11.8759    4.6379   23.0559 C   0  0  0  0  0  0  0  0  0  0  0  0
    4.8241    0.7673   21.5369 C   0  0  0  0  0  0  0  0  0  0  0  0
    9.4449    3.8901   24.2019 C   0  0  0  0  0  0  0  0  0  0  0  0
    6.2658    0.8566   19.1503 C   0  0  0  0  0  0  0  0  0  0  0  0
    9.3486   -1.1403   25.3469 C   0  0  0  0  0  0  0  0  0  0  0  0
   10.1652   -1.7489   23.0880 C   0  0  0  0  0  0  0  0  0  0  0  0
   10.6681    0.5376   23.9690 C   0  0  0  0  0  0  0  0  0  0  0  0
   10.0593   -1.1863   21.6753 C   0  0  0  0  0  0  0  0  0  0  0  0
    9.4235    1.2543   21.8197 C   0  0  0  0  0  0  0  0  0  0  0  0
    9.6950    1.5288   23.3075 C   0  0  0  0  0  0  0  0  0  0  0  0
    8.2300   -0.2669   20.2524 C   0  0  0  0  0  0  0  0  0  0  0  0
   10.0370   -0.7724   24.1691 N   0  0  0  0  0  0  0  0  0  0  0  0
    8.9459   -0.1641   21.5766 N   0  0  0  0  0  0  0  0  0  0  0  0
    8.8541   -2.2611   25.4869 O   0  0  0  0  0  0  0  0  0  0  0  0
   13.0617    5.0034   22.4966 O   0  0  0  0  0  0  0  0  0  0  0  0
    4.1204    0.7243   22.7011 O   0  0  0  0  0  0  0  0  0  0  0  0
    8.2562    3.5412   24.7692 O   0  0  0  0  0  0  0  0  0  0  0  0
    6.9554    0.9071   17.9763 O   0  0  0  0  0  0  0  0  0  0  0  0
    9.2107    0.0761   26.6075 Cl  0  0  0  0  0  0  0  0  0  0  0  0
  1  3  2  0
  1  9  1  0
  2  4  2  0
  2 10  1  0
  3 11  1  0
  4 12  1  0
  5  7  1  0
  5  9  2  0
  6  8  1  0
  6 10  2  0
  7 11  2  0
  7 18  1  0
  8 12  2  0
  8 19  1  0
  9 23  1  0
 10 24  1  0
 11 25  1  0
 12 26  1  0
 13 20  1  0
 13 22  2  0
 13 27  1  0
 14 16  1  0
 14 20  1  0
 15 18  1  0
 15 20  1  0
 16 21  1  0
 17 18  1  0
 17 21  1  0
 19 21  1  0
M  CHG  1  21   1
M  END
