BAR-COM-5694a99d-3
     RDKit          3D

 23 24  0  0  0  0  0  0  0  0999 V2000
   14.5087   -1.7505   23.3729 C   0  0  0  0  0  0  0  0  0  0  0  0
   14.0852   -1.8216   22.0458 C   0  0  0  0  0  0  0  0  0  0  0  0
    5.7632    1.1125   19.2023 C   0  0  0  0  0  0  0  0  0  0  0  0
   13.6642   -1.2176   24.3468 C   0  0  0  0  0  0  0  0  0  0  0  0
   12.8173   -1.3597   21.6925 C   0  0  0  0  0  0  0  0  0  0  0  0
    6.6512    0.9398   20.2581 C   0  0  0  0  0  0  0  0  0  0  0  0
    6.1689    0.7078   17.9408 C   0  0  0  0  0  0  0  0  0  0  0  0
    8.2102    0.0036   18.7253 C   0  0  0  0  0  0  0  0  0  0  0  0
   12.3963   -0.7557   23.9936 C   0  0  0  0  0  0  0  0  0  0  0  0
    7.9002    0.3756   20.0235 C   0  0  0  0  0  0  0  0  0  0  0  0
   11.9729   -0.8267   22.6665 C   0  0  0  0  0  0  0  0  0  0  0  0
   10.1150   -0.3631   21.0074 C   0  0  0  0  0  0  0  0  0  0  0  0
   11.1422    4.4134   23.5260 C   0  0  0  0  0  0  0  0  0  0  0  0
    9.1566    3.3011   24.5858 C   0  0  0  0  0  0  0  0  0  0  0  0
   11.5095   -0.1874   25.0623 C   0  0  0  0  0  0  0  0  0  0  0  0
   11.3430    2.0379   24.3252 C   0  0  0  0  0  0  0  0  0  0  0  0
   10.4020    3.0894   23.7242 C   0  0  0  0  0  0  0  0  0  0  0  0
    7.3738    0.1558   17.6741 N   0  0  0  0  0  0  0  0  0  0  0  0
    8.8252    0.1874   21.0775 N   0  0  0  0  0  0  0  0  0  0  0  0
   10.7067   -0.3691   22.2928 N   0  0  0  0  0  0  0  0  0  0  0  0
   10.6545   -0.7787   19.9869 O   0  0  0  0  0  0  0  0  0  0  0  0
    9.9590    2.6319   22.4438 O   0  0  0  0  0  0  0  0  0  0  0  0
   10.6633    0.7980   24.4871 O   0  0  0  0  0  0  0  0  0  0  0  0
  1  2  2  0
  1  4  1  0
  2  5  1  0
  3  6  2  0
  3  7  1  0
  4  9  2  0
  5 11  2  0
  6 10  1  0
  7 18  2  0
  8 10  2  0
  8 18  1  0
  9 11  1  0
  9 15  1  0
 10 19  1  0
 11 20  1  0
 12 19  1  0
 12 20  1  0
 12 21  2  0
 13 17  1  0
 14 17  1  0
 15 23  1  0
 16 17  1  0
 16 23  1  0
 17 22  1  0
M  END
