BAR-COM-4e090d3a-22
     RDKit          3D

 22 24  0  0  0  0  0  0  0  0999 V2000
   13.5587   -0.5307   21.9378 C   0  0  0  0  0  0  0  0  0  0  0  0
   12.7746   -1.6336   22.2521 C   0  0  0  0  0  0  0  0  0  0  0  0
   13.1370    0.7416   22.3132 C   0  0  0  0  0  0  0  0  0  0  0  0
   11.5711   -1.4621   22.9407 C   0  0  0  0  0  0  0  0  0  0  0  0
   10.2782    2.3199   24.0787 C   0  0  0  0  0  0  0  0  0  0  0  0
    6.9236    5.1618   22.6969 C   0  0  0  0  0  0  0  0  0  0  0  0
    7.2090    5.7832   21.5040 C   0  0  0  0  0  0  0  0  0  0  0  0
   11.9265    0.9138   23.0059 C   0  0  0  0  0  0  0  0  0  0  0  0
   11.4781    2.1831   23.3957 C   0  0  0  0  0  0  0  0  0  0  0  0
   11.1253   -0.2015   23.3284 C   0  0  0  0  0  0  0  0  0  0  0  0
    9.5634    1.1708   24.3494 C   0  0  0  0  0  0  0  0  0  0  0  0
    8.8324    6.0638   22.9678 C   0  0  0  0  0  0  0  0  0  0  0  0
   11.0593    5.4240   23.9722 C   0  0  0  0  0  0  0  0  0  0  0  0
    7.6778    0.0560   25.2754 C   0  0  0  0  0  0  0  0  0  0  0  0
   12.2543    3.4282   23.1012 C   0  0  0  0  0  0  0  0  0  0  0  0
   10.1522    6.5472   23.5077 C   0  0  0  0  0  0  0  0  0  0  0  0
    7.9379    5.3404   23.6040 N   0  0  0  0  0  0  0  0  0  0  0  0
    9.9604   -0.0718   23.9911 N   0  0  0  0  0  0  0  0  0  0  0  0
    8.4347    6.3570   21.6930 N   0  0  0  0  0  0  0  0  0  0  0  0
   11.3991    4.5723   22.9270 N   0  0  0  0  0  0  0  0  0  0  0  0
   11.4421    5.2976   25.1325 O   0  0  0  0  0  0  0  0  0  0  0  0
    8.3739    1.2706   25.0222 O   0  0  0  0  0  0  0  0  0  0  0  0
  1  2  2  0
  1  3  1  0
  2  4  1  0
  3  8  2  0
  4 10  2  0
  5  9  2  0
  5 11  1  0
  6  7  2  0
  6 17  1  0
  7 19  1  0
  8  9  1  0
  8 10  1  0
  9 15  1  0
 10 18  1  0
 11 18  2  0
 11 22  1  0
 12 16  1  0
 12 17  2  0
 12 19  1  0
 13 16  1  0
 13 20  1  0
 13 21  2  0
 14 22  1  0
 15 20  1  0
M  END
