BAR-COM-4e090d3a-7
     RDKit          3D

 26 28  0  0  1  0  0  0  0  0999 V2000
   14.8670   -2.0027   21.7420 C   0  0  0  0  0  0  0  0  0  0  0  0
   14.2913   -2.1634   23.0023 C   0  0  0  0  0  0  0  0  0  0  0  0
   14.8355   -0.7573   21.1145 C   0  0  0  0  0  0  0  0  0  0  0  0
    8.5785   -3.7559   23.8164 C   0  0  0  0  0  0  0  0  0  0  0  0
   13.6840   -1.0787   23.6350 C   0  0  0  0  0  0  0  0  0  0  0  0
   14.2282    0.3274   21.7472 C   0  0  0  0  0  0  0  0  0  0  0  0
    9.3271   -3.0774   22.8252 C   0  0  0  0  0  0  0  0  0  0  0  0
    8.6408    6.6574   22.2711 C   0  0  0  0  0  0  0  0  0  0  0  0
    8.5799   -2.9383   24.9225 C   0  0  0  0  0  0  0  0  0  0  0  0
    7.9746    6.4915   23.4599 C   0  0  0  0  0  0  0  0  0  0  0  0
   13.6525    0.1667   23.0075 C   0  0  0  0  0  0  0  0  0  0  0  0
    9.7324   -1.8935   23.3962 C   0  0  0  0  0  0  0  0  0  0  0  0
    9.9758    5.7531   23.6212 C   0  0  0  0  0  0  0  0  0  0  0  0
   10.5408   -0.7674   22.8619 C   0  0  0  0  0  0  0  0  0  0  0  0
   10.8908    2.6466   24.0963 C   0  0  0  0  0  0  0  0  0  0  0  0
   12.3558    6.0353   24.4262 C   0  0  0  0  0  0  0  0  0  0  0  0
   12.9954    1.3406   23.6915 C   0  0  0  0  0  0  0  0  0  0  0  0
   11.1394    5.1149   24.3489 C   0  0  0  0  0  0  0  0  0  0  0  0
   11.5051    1.4650   23.3543 C   0  0  0  0  0  0  0  0  0  0  0  0
    9.9227    6.1826   22.3807 N   0  0  0  0  0  0  0  0  0  0  0  0
   10.7611    0.2902   23.7333 N   0  0  0  0  0  0  0  0  0  0  0  0
   11.4979    3.8471   23.7548 N   0  0  0  0  0  0  0  0  0  0  0  0
   10.9454   -0.8161   21.7032 O   0  0  0  0  0  0  0  0  0  0  0  0
    9.9942    2.5217   24.9278 O   0  0  0  0  0  0  0  0  0  0  0  0
    9.2810   -1.8010   24.6746 O   0  0  0  0  0  0  0  0  0  0  0  0
    8.8314    5.9059   24.3422 O   0  0  0  0  0  0  0  0  0  0  0  0
  1  2  2  0
  1  3  1  0
  2  5  1  0
  3  6  2  0
  4  7  1  0
  4  9  2  0
  5 11  2  0
  6 11  1  0
  7 12  2  0
  8 10  2  0
  8 20  1  0
  9 25  1  0
 10 26  1  0
 11 17  1  0
 12 14  1  0
 12 25  1  0
 13 18  1  0
 13 20  2  0
 13 26  1  0
 14 21  1  0
 14 23  2  0
 15 19  1  0
 15 22  1  0
 15 24  2  0
 16 18  1  0
 17 19  1  0
 18 22  1  0
 19 21  1  0
M  END
