BAR-COM-4e090d3a-39
     RDKit          3D

 22 24  0  0  1  0  0  0  0  0999 V2000
   13.2144   -2.1014   22.3498 C   0  0  0  0  0  0  0  0  0  0  0  0
   11.9316   -2.2845   21.8338 C   0  0  0  0  0  0  0  0  0  0  0  0
   13.5480   -0.9028   22.9805 C   0  0  0  0  0  0  0  0  0  0  0  0
   11.3159   -0.0703   22.5790 C   0  0  0  0  0  0  0  0  0  0  0  0
    5.9858    0.6511   19.7123 C   0  0  0  0  0  0  0  0  0  0  0  0
    7.3748   -0.5992   18.3109 C   0  0  0  0  0  0  0  0  0  0  0  0
    6.0588    1.0559   17.4767 C   0  0  0  0  0  0  0  0  0  0  0  0
    6.9147   -0.3621   19.5901 C   0  0  0  0  0  0  0  0  0  0  0  0
   10.9823   -1.2690   21.9484 C   0  0  0  0  0  0  0  0  0  0  0  0
   12.5988    0.1127   23.0951 C   0  0  0  0  0  0  0  0  0  0  0  0
   12.5433    4.4397   23.6085 C   0  0  0  0  0  0  0  0  0  0  0  0
    8.6183   -0.5553   21.4511 C   0  0  0  0  0  0  0  0  0  0  0  0
   11.5627    3.3370   23.1779 C   0  0  0  0  0  0  0  0  0  0  0  0
   12.8210    2.4750   22.9339 C   0  0  0  0  0  0  0  0  0  0  0  0
    7.3960   -1.1569   20.7756 C   0  0  0  0  0  0  0  0  0  0  0  0
    5.5340    1.3831   18.6729 N   0  0  0  0  0  0  0  0  0  0  0  0
    6.9668    0.0931   17.2271 N   0  0  0  0  0  0  0  0  0  0  0  0
   13.6026    3.6174   23.3917 N   0  0  0  0  0  0  0  0  0  0  0  0
    9.6990   -1.4526   21.4323 N   0  0  0  0  0  0  0  0  0  0  0  0
   12.4620    5.5834   23.9929 O   0  0  0  0  0  0  0  0  0  0  0  0
    8.6111    0.5715   21.9364 O   0  0  0  0  0  0  0  0  0  0  0  0
   12.9243    1.2825   23.7103 O   0  0  0  0  0  0  0  0  0  0  0  0
  1  2  2  0
  1  3  1  0
  2  9  1  0
  3 10  2  0
  4  9  2  0
  4 10  1  0
  5  8  2  0
  5 16  1  0
  6  8  1  0
  6 17  2  0
  7 16  2  0
  7 17  1  0
  8 15  1  0
  9 19  1  0
 10 22  1  0
 11 13  1  0
 11 18  1  0
 11 20  2  0
 12 15  1  0
 12 19  1  0
 12 21  2  0
 13 14  1  0
 14 18  1  0
 14 22  1  0
M  END
