BAR-COM-4e090d3a-59
     RDKit          3D

 28 30  0  0  1  0  0  0  0  0999 V2000
   14.1148   -1.7051   23.1148 C   0  0  0  0  0  0  0  0  0  0  0  0
   14.0087   -0.3495   23.4253 C   0  0  0  0  0  0  0  0  0  0  0  0
   12.9677   -2.4495   22.8396 C   0  0  0  0  0  0  0  0  0  0  0  0
   12.7555    0.2619   23.4607 C   0  0  0  0  0  0  0  0  0  0  0  0
   11.7144   -1.8381   22.8750 C   0  0  0  0  0  0  0  0  0  0  0  0
    6.2241    1.1938   18.1198 C   0  0  0  0  0  0  0  0  0  0  0  0
    6.2180    0.6753   20.1417 C   0  0  0  0  0  0  0  0  0  0  0  0
   11.6083   -0.4824   23.1855 C   0  0  0  0  0  0  0  0  0  0  0  0
    8.2770   -1.9827   24.8158 C   0  0  0  0  0  0  0  0  0  0  0  0
    7.8718   -4.8476   23.4358 C   0  0  0  0  0  0  0  0  0  0  0  0
    9.3326    0.0373   20.9141 C   0  0  0  0  0  0  0  0  0  0  0  0
    6.2269   -3.6525   26.5375 C   0  0  0  0  0  0  0  0  0  0  0  0
    7.6996   -3.3437   26.7929 C   0  0  0  0  0  0  0  0  0  0  0  0
    6.2768   -4.6622   25.4017 C   0  0  0  0  0  0  0  0  0  0  0  0
    8.3168   -3.3824   25.3992 C   0  0  0  0  0  0  0  0  0  0  0  0
    6.9354   -5.8691   22.8418 C   0  0  0  0  0  0  0  0  0  0  0  0
    8.3181   -0.7410   20.1039 C   0  0  0  0  0  0  0  0  0  0  0  0
    9.5805    0.1246   24.6093 C   0  0  0  0  0  0  0  0  0  0  0  0
   10.2433    0.1826   23.2241 C   0  0  0  0  0  0  0  0  0  0  0  0
    5.5197    1.3724   19.2758 N   0  0  0  0  0  0  0  0  0  0  0  0
    7.3144    0.4299   18.2159 N   0  0  0  0  0  0  0  0  0  0  0  0
    7.2875    0.1113   19.5189 N   0  0  0  0  0  0  0  0  0  0  0  0
    7.4827   -4.3182   24.6547 N   0  0  0  0  0  0  0  0  0  0  0  0
    9.4090   -1.2333   25.0736 N   0  0  0  0  0  0  0  0  0  0  0  0
    9.3506   -0.4026   22.2165 N   0  0  0  0  0  0  0  0  0  0  0  0
    7.2930   -1.6201   24.1818 O   0  0  0  0  0  0  0  0  0  0  0  0
    8.9016   -4.5259   22.8406 O   0  0  0  0  0  0  0  0  0  0  0  0
   10.0280    0.9346   20.4459 O   0  0  0  0  0  0  0  0  0  0  0  0
  1  2  2  0
  1  3  1  0
  2  4  1  0
  3  5  2  0
  4  8  2  0
  5  8  1  0
  6 20  1  0
  6 21  2  0
  7 20  2  0
  7 22  1  0
  8 19  1  0
  9 15  1  0
  9 24  1  0
  9 26  2  0
 10 16  1  0
 10 23  1  0
 10 27  2  0
 11 17  1  0
 11 25  1  0
 11 28  2  0
 12 13  1  0
 12 14  1  0
 13 15  1  0
 14 23  1  0
 15 23  1  0
 17 22  1  0
 18 19  1  0
 18 24  1  0
 19 25  1  0
 21 22  1  0
M  END
