BAR-COM-4e090d3a-6
     RDKit          3D

 27 30  0  0  1  0  0  0  0  0999 V2000
   10.6972    5.7091   22.9328 C   0  0  0  0  0  0  0  0  0  0  0  0
   11.2420    4.6675   22.1821 C   0  0  0  0  0  0  0  0  0  0  0  0
    9.8366    5.4281   23.9940 C   0  0  0  0  0  0  0  0  0  0  0  0
   13.9017   -2.5122   22.8584 C   0  0  0  0  0  0  0  0  0  0  0  0
   14.6219   -1.8044   23.8235 C   0  0  0  0  0  0  0  0  0  0  0  0
   10.9263    3.3447   22.4925 C   0  0  0  0  0  0  0  0  0  0  0  0
    9.5208    4.1054   24.3044 C   0  0  0  0  0  0  0  0  0  0  0  0
   12.6154   -2.1088   22.4784 C   0  0  0  0  0  0  0  0  0  0  0  0
   14.0855   -0.6706   24.4428 C   0  0  0  0  0  0  0  0  0  0  0  0
    8.1052    0.1462   18.8335 C   0  0  0  0  0  0  0  0  0  0  0  0
   10.0657    3.0637   23.5537 C   0  0  0  0  0  0  0  0  0  0  0  0
   12.0610   -0.9720   23.0905 C   0  0  0  0  0  0  0  0  0  0  0  0
   12.8032   -0.2874   24.0487 C   0  0  0  0  0  0  0  0  0  0  0  0
    7.1494    0.5208   19.7441 C   0  0  0  0  0  0  0  0  0  0  0  0
   10.8269    0.6520   23.7222 C   0  0  0  0  0  0  0  0  0  0  0  0
    8.5432    1.1234   21.7619 C   0  0  0  0  0  0  0  0  0  0  0  0
   12.3093    1.7544   25.4209 C   0  0  0  0  0  0  0  0  0  0  0  0
    4.7264    1.1312   19.4060 C   0  0  0  0  0  0  0  0  0  0  0  0
    7.1843    0.6993   21.2388 C   0  0  0  0  0  0  0  0  0  0  0  0
    9.7189    1.6140   23.8943 C   0  0  0  0  0  0  0  0  0  0  0  0
    7.5638    0.1333   17.5781 N   0  0  0  0  0  0  0  0  0  0  0  0
   10.8364   -0.3738   22.9009 N   0  0  0  0  0  0  0  0  0  0  0  0
    6.2888    0.4927   17.6797 N   0  0  0  0  0  0  0  0  0  0  0  0
   11.9894    0.7465   24.4355 N   0  0  0  0  0  0  0  0  0  0  0  0
    6.0424    0.7247   18.9791 N   0  0  0  0  0  0  0  0  0  0  0  0
    8.5161    1.2201   23.1268 N   0  0  0  0  0  0  0  0  0  0  0  0
    9.5118    1.3380   21.0375 O   0  0  0  0  0  0  0  0  0  0  0  0
  1  2  2  0
  1  3  1  0
  2  6  1  0
  3  7  2  0
  4  5  2  0
  4  8  1  0
  5  9  1  0
  6 11  2  0
  7 11  1  0
  8 12  2  0
  9 13  2  0
 10 14  2  0
 10 21  1  0
 11 20  1  0
 12 13  1  0
 12 22  1  0
 13 24  1  0
 14 19  1  0
 14 25  1  0
 15 20  1  0
 15 22  2  0
 15 24  1  0
 16 19  1  0
 16 26  1  0
 16 27  2  0
 17 24  1  0
 18 25  1  0
 20 26  1  0
 21 23  2  0
 23 25  1  0
M  END
