BAR-COM-4e090d3a-44
     RDKit          3D

 26 28  0  0  1  0  0  0  0  0999 V2000
   12.2593    1.3543   24.2735 C   0  0  0  0  0  0  0  0  0  0  0  0
   11.8409    1.9847   23.1017 C   0  0  0  0  0  0  0  0  0  0  0  0
   11.6307    0.1839   24.6985 C   0  0  0  0  0  0  0  0  0  0  0  0
   10.7938    1.4447   22.3549 C   0  0  0  0  0  0  0  0  0  0  0  0
    4.9893    1.5038   18.5371 C   0  0  0  0  0  0  0  0  0  0  0  0
    3.9233    2.0504   19.2130 C   0  0  0  0  0  0  0  0  0  0  0  0
    4.8366    0.6192   20.5794 C   0  0  0  0  0  0  0  0  0  0  0  0
   10.5835   -0.3560   23.9518 C   0  0  0  0  0  0  0  0  0  0  0  0
    5.5823    0.5741   19.4244 C   0  0  0  0  0  0  0  0  0  0  0  0
   10.1651    0.2744   22.7800 C   0  0  0  0  0  0  0  0  0  0  0  0
    9.9478   -1.5806   24.4241 C   0  0  0  0  0  0  0  0  0  0  0  0
    8.5714    0.2558   20.8203 C   0  0  0  0  0  0  0  0  0  0  0  0
    6.0551   -1.3241   26.0209 C   0  0  0  0  0  0  0  0  0  0  0  0
    8.2825   -0.1736   25.7647 C   0  0  0  0  0  0  0  0  0  0  0  0
    8.2082   -2.6376   25.8506 C   0  0  0  0  0  0  0  0  0  0  0  0
    6.7853   -0.1003   25.4424 C   0  0  0  0  0  0  0  0  0  0  0  0
    6.7040   -2.6354   25.5463 C   0  0  0  0  0  0  0  0  0  0  0  0
    6.1789    1.1950   25.9755 C   0  0  0  0  0  0  0  0  0  0  0  0
    6.0206   -3.8407   26.1870 C   0  0  0  0  0  0  0  0  0  0  0  0
    6.7829   -0.2879   19.1606 C   0  0  0  0  0  0  0  0  0  0  0  0
    8.8476   -1.4449   25.2906 N   0  0  0  0  0  0  0  0  0  0  0  0
    9.1169   -0.2474   22.0168 N   0  0  0  0  0  0  0  0  0  0  0  0
    7.5292   -0.5596   20.3675 N   0  0  0  0  0  0  0  0  0  0  0  0
   10.3748   -2.6786   24.0627 O   0  0  0  0  0  0  0  0  0  0  0  0
    8.9370    1.2687   20.2286 O   0  0  0  0  0  0  0  0  0  0  0  0
    3.8234    1.5167   20.4586 O   0  0  0  0  0  0  0  0  0  0  0  0
  1  2  2  0
  1  3  1  0
  2  4  1  0
  3  8  2  0
  4 10  2  0
  5  6  2  0
  5  9  1  0
  6 26  1  0
  7  9  2  0
  7 26  1  0
  8 10  1  0
  8 11  1  0
  9 20  1  0
 10 22  1  0
 11 21  1  0
 11 24  2  0
 12 22  1  0
 12 23  1  0
 12 25  2  0
 13 16  1  0
 13 17  1  0
 14 16  1  0
 14 21  1  0
 15 17  1  0
 15 21  1  0
 16 18  1  0
 17 19  1  0
 20 23  1  0
M  END
