BAR-COM-21d20d65-4
     RDKit          3D

 23 25  0  0  0  0  0  0  0  0999 V2000
    9.6462   -3.7260   24.5424 C   0  0  0  0  0  0  0  0  0  0  0  0
    4.7564    1.6710   18.7291 C   0  0  0  0  0  0  0  0  0  0  0  0
    9.0285   -4.3863   25.6045 C   0  0  0  0  0  0  0  0  0  0  0  0
    8.9180   -2.8297   23.7601 C   0  0  0  0  0  0  0  0  0  0  0  0
    4.8984    1.1098   19.9933 C   0  0  0  0  0  0  0  0  0  0  0  0
    6.9542   -3.2541   25.1020 C   0  0  0  0  0  0  0  0  0  0  0  0
    5.6319    1.2624   17.7360 C   0  0  0  0  0  0  0  0  0  0  0  0
    6.7218   -0.1713   19.1625 C   0  0  0  0  0  0  0  0  0  0  0  0
    7.6826   -4.1504   25.8843 C   0  0  0  0  0  0  0  0  0  0  0  0
    7.5720   -2.5938   24.0399 C   0  0  0  0  0  0  0  0  0  0  0  0
    5.8975    0.1704   20.2225 C   0  0  0  0  0  0  0  0  0  0  0  0
    7.0190   -1.3723   21.8902 C   0  0  0  0  0  0  0  0  0  0  0  0
    5.7215   -5.8367   24.1300 C   0  0  0  0  0  0  0  0  0  0  0  0
    5.0761   -7.1184   24.5736 C   0  0  0  0  0  0  0  0  0  0  0  0
    5.3084   -6.0093   25.5730 C   0  0  0  0  0  0  0  0  0  0  0  0
    7.0153   -4.8645   27.0325 C   0  0  0  0  0  0  0  0  0  0  0  0
    6.3917   -6.1998   26.5987 C   0  0  0  0  0  0  0  0  0  0  0  0
    4.1129   -5.2386   26.0615 C   0  0  0  0  0  0  0  0  0  0  0  0
    6.6145    0.3524   17.9208 N   0  0  0  0  0  0  0  0  0  0  0  0
    6.8440   -1.6966   23.2577 N   0  0  0  0  0  0  0  0  0  0  0  0
    6.0668   -0.4179   21.4981 N   0  0  0  0  0  0  0  0  0  0  0  0
    7.8784   -1.8580   21.1616 O   0  0  0  0  0  0  0  0  0  0  0  0
    3.1117   -5.2293   25.0504 O   0  0  0  0  0  0  0  0  0  0  0  0
  1  3  2  0
  1  4  1  0
  2  5  2  0
  2  7  1  0
  3  9  1  0
  4 10  2  0
  5 11  1  0
  6  9  2  0
  6 10  1  0
  7 19  2  0
  8 11  2  0
  8 19  1  0
  9 16  1  0
 10 20  1  0
 11 21  1  0
 12 20  1  0
 12 21  1  0
 12 22  2  0
 13 14  1  0
 13 15  1  0
 14 15  1  0
 15 17  1  0
 15 18  1  0
 16 17  1  0
 18 23  1  0
M  END
