BAR-COM-4e090d3a-43
     RDKit          3D

 24 27  0  0  0  0  0  0  0  0999 V2000
   13.8586   -1.6767   21.4183 C   0  0  0  0  0  0  0  0  0  0  0  0
    6.7579    0.3591   18.8665 C   0  0  0  0  0  0  0  0  0  0  0  0
   14.5744   -2.3538   22.4111 C   0  0  0  0  0  0  0  0  0  0  0  0
    6.3590   -0.9164   19.2659 C   0  0  0  0  0  0  0  0  0  0  0  0
   12.8893   -0.7190   21.7489 C   0  0  0  0  0  0  0  0  0  0  0  0
    7.8156    0.9947   19.5168 C   0  0  0  0  0  0  0  0  0  0  0  0
   14.3505   -2.1016   23.7686 C   0  0  0  0  0  0  0  0  0  0  0  0
    7.0177   -1.5563   20.3157 C   0  0  0  0  0  0  0  0  0  0  0  0
   12.6542   -0.4562   23.1064 C   0  0  0  0  0  0  0  0  0  0  0  0
    8.4743    0.3548   20.5667 C   0  0  0  0  0  0  0  0  0  0  0  0
   13.3819   -1.1458   24.0605 C   0  0  0  0  0  0  0  0  0  0  0  0
    8.0754   -0.9207   20.9662 C   0  0  0  0  0  0  0  0  0  0  0  0
   11.8174    0.3806   23.8700 C   0  0  0  0  0  0  0  0  0  0  0  0
    9.5982    1.0499   21.2456 C   0  0  0  0  0  0  0  0  0  0  0  0
    8.1393   -1.4368   25.1531 C   0  0  0  0  0  0  0  0  0  0  0  0
    7.5673   -2.8159   25.3287 C   0  0  0  0  0  0  0  0  0  0  0  0
    8.4794   -2.5225   24.1699 C   0  0  0  0  0  0  0  0  0  0  0  0
   10.8177    1.3475   23.3857 C   0  0  0  0  0  0  0  0  0  0  0  0
    7.9293   -2.4749   22.7604 C   0  0  0  0  0  0  0  0  0  0  0  0
   12.0058    0.2266   25.1841 N   0  0  0  0  0  0  0  0  0  0  0  0
    9.7809    0.7352   22.5811 N   0  0  0  0  0  0  0  0  0  0  0  0
   10.2733    1.8580   20.6134 O   0  0  0  0  0  0  0  0  0  0  0  0
   12.9966   -0.7404   25.3014 O   0  0  0  0  0  0  0  0  0  0  0  0
    8.7079   -1.5631   21.9885 O   0  0  0  0  0  0  0  0  0  0  0  0
  1  3  2  0
  1  5  1  0
  2  4  2  0
  2  6  1  0
  3  7  1  0
  4  8  1  0
  5  9  2  0
  6 10  2  0
  7 11  2  0
  8 12  2  0
  9 11  1  0
  9 13  1  0
 10 12  1  0
 10 14  1  0
 11 23  1  0
 12 24  1  0
 13 18  1  0
 13 20  2  0
 14 21  1  0
 14 22  2  0
 15 16  1  0
 15 17  1  0
 16 17  1  0
 17 19  1  0
 18 21  1  0
 19 24  1  0
 20 23  1  0
M  END
