BAR-COM-4e090d3a-4
     RDKit          3D

 25 27  0  0  1  0  0  0  0  0999 V2000
   14.0814   -1.3361   23.1914 C   0  0  0  0  0  0  0  0  0  0  0  0
   13.2404   -2.0931   22.3757 C   0  0  0  0  0  0  0  0  0  0  0  0
   13.5973   -0.1870   23.8167 C   0  0  0  0  0  0  0  0  0  0  0  0
   11.9154   -1.7010   22.1853 C   0  0  0  0  0  0  0  0  0  0  0  0
    7.6170   -0.1371   18.7749 C   0  0  0  0  0  0  0  0  0  0  0  0
    5.6222    0.8508   19.3407 C   0  0  0  0  0  0  0  0  0  0  0  0
   12.2724    0.2051   23.6262 C   0  0  0  0  0  0  0  0  0  0  0  0
    6.6440    0.0475   19.7984 C   0  0  0  0  0  0  0  0  0  0  0  0
   11.4314   -0.5518   22.8105 C   0  0  0  0  0  0  0  0  0  0  0  0
    9.1207   -0.8153   21.8246 C   0  0  0  0  0  0  0  0  0  0  0  0
   12.9595    3.2524   23.0511 C   0  0  0  0  0  0  0  0  0  0  0  0
   10.6585    3.6422   23.9078 C   0  0  0  0  0  0  0  0  0  0  0  0
   12.7158    4.3798   22.0529 C   0  0  0  0  0  0  0  0  0  0  0  0
   10.5227    4.7511   22.8690 C   0  0  0  0  0  0  0  0  0  0  0  0
   14.0136    5.1099   21.7366 C   0  0  0  0  0  0  0  0  0  0  0  0
    9.6066    5.8562   23.3762 C   0  0  0  0  0  0  0  0  0  0  0  0
    6.7218   -0.5468   21.1749 C   0  0  0  0  0  0  0  0  0  0  0  0
   11.7792    1.4455   24.3113 C   0  0  0  0  0  0  0  0  0  0  0  0
    7.3942    0.4618   17.6074 N   0  0  0  0  0  0  0  0  0  0  0  0
   10.1013   -0.1755   22.6072 N   0  0  0  0  0  0  0  0  0  0  0  0
    7.9079   -0.1210   21.8814 N   0  0  0  0  0  0  0  0  0  0  0  0
   11.6300    2.6132   23.3785 N   0  0  0  0  0  0  0  0  0  0  0  0
    9.2757   -1.8434   21.1699 O   0  0  0  0  0  0  0  0  0  0  0  0
   11.8034    5.3351   22.6056 O   0  0  0  0  0  0  0  0  0  0  0  0
    5.9580    1.2904   17.7197 S   0  0  0  0  0  0  0  0  0  0  0  0
  1  2  2  0
  1  3  1  0
  2  4  1  0
  3  7  2  0
  4  9  2  0
  5  8  1  0
  5 19  2  0
  6  8  2  0
  6 25  1  0
  7  9  1  0
  7 18  1  0
  8 17  1  0
  9 20  1  0
 10 20  1  0
 10 21  1  0
 10 23  2  0
 11 13  1  0
 11 22  1  0
 12 14  1  0
 12 22  1  0
 13 15  1  0
 13 24  1  0
 14 16  1  0
 14 24  1  0
 17 21  1  0
 18 22  1  0
 19 25  1  0
M  CHG  1  22   1
M  END
