BAR-COM-4e090d3a-3
     RDKit          3D

 26 28  0  0  1  0  0  0  0  0999 V2000
   14.3219   -2.0217   22.5867 C   0  0  0  0  0  0  0  0  0  0  0  0
   14.3629   -1.8628   23.9718 C   0  0  0  0  0  0  0  0  0  0  0  0
    7.5746    3.3635   25.7215 C   0  0  0  0  0  0  0  0  0  0  0  0
    8.8436    3.3386   26.2998 C   0  0  0  0  0  0  0  0  0  0  0  0
    4.9793    1.4022   18.1941 C   0  0  0  0  0  0  0  0  0  0  0  0
   13.4952   -1.2050   21.8151 C   0  0  0  0  0  0  0  0  0  0  0  0
   13.5772   -0.8873   24.5855 C   0  0  0  0  0  0  0  0  0  0  0  0
    5.3388    0.9951   19.4741 C   0  0  0  0  0  0  0  0  0  0  0  0
    7.2804    2.5218   24.6487 C   0  0  0  0  0  0  0  0  0  0  0  0
    9.8185    2.4722   25.8054 C   0  0  0  0  0  0  0  0  0  0  0  0
    5.8614    1.1395   17.1584 C   0  0  0  0  0  0  0  0  0  0  0  0
    7.3637    0.1313   18.5743 C   0  0  0  0  0  0  0  0  0  0  0  0
    6.5521    0.3469   19.6764 C   0  0  0  0  0  0  0  0  0  0  0  0
   12.7094   -0.2295   22.4288 C   0  0  0  0  0  0  0  0  0  0  0  0
   12.7504   -0.0706   23.8140 C   0  0  0  0  0  0  0  0  0  0  0  0
    8.2553    1.6554   24.1543 C   0  0  0  0  0  0  0  0  0  0  0  0
    9.5244    1.6305   24.7326 C   0  0  0  0  0  0  0  0  0  0  0  0
    7.0283    1.0587   22.0382 C   0  0  0  0  0  0  0  0  0  0  0  0
   11.8327    0.6343   21.5826 C   0  0  0  0  0  0  0  0  0  0  0  0
   11.9176    0.9665   24.4935 C   0  0  0  0  0  0  0  0  0  0  0  0
    6.9712   -0.1083   21.0550 C   0  0  0  0  0  0  0  0  0  0  0  0
    7.0486    0.5123   17.3160 N   0  0  0  0  0  0  0  0  0  0  0  0
    7.9376    0.8211   23.0785 N   0  0  0  0  0  0  0  0  0  0  0  0
   10.5099    0.7777   24.2558 N   0  0  0  0  0  0  0  0  0  0  0  0
    6.3250    2.0537   21.8885 O   0  0  0  0  0  0  0  0  0  0  0  0
    6.0409   -1.0757   21.5191 O   0  0  0  0  0  0  0  0  0  0  0  0
  1  2  2  0
  1  6  1  0
  2  7  1  0
  3  4  2  0
  3  9  1  0
  4 10  1  0
  5  8  2  0
  5 11  1  0
  6 14  2  0
  7 15  2  0
  8 13  1  0
  9 16  2  0
 10 17  2  0
 11 22  2  0
 12 13  2  0
 12 22  1  0
 13 21  1  0
 14 15  1  0
 14 19  1  0
 15 20  1  0
 16 17  1  0
 16 23  1  0
 17 24  1  0
 18 21  1  0
 18 23  1  0
 18 25  2  0
 20 24  1  0
 21 26  1  0
M  END
