BAR-COM-4e090d3a-38
     RDKit          3D

 25 27  0  0  1  0  0  0  0  0999 V2000
   14.3339   -1.6844   24.3052 C   0  0  0  0  0  0  0  0  0  0  0  0
   14.5184   -2.1234   22.9942 C   0  0  0  0  0  0  0  0  0  0  0  0
   13.2969   -0.8012   24.6056 C   0  0  0  0  0  0  0  0  0  0  0  0
   13.6660   -1.6791   21.9835 C   0  0  0  0  0  0  0  0  0  0  0  0
   12.4445   -0.3569   23.5949 C   0  0  0  0  0  0  0  0  0  0  0  0
    6.1867   -0.3757   18.2613 C   0  0  0  0  0  0  0  0  0  0  0  0
    5.9590   -0.1589   19.5998 C   0  0  0  0  0  0  0  0  0  0  0  0
    8.0889    0.0931   19.0933 C   0  0  0  0  0  0  0  0  0  0  0  0
   12.6290   -0.7959   22.2838 C   0  0  0  0  0  0  0  0  0  0  0  0
   12.1650    3.6861   22.8214 C   0  0  0  0  0  0  0  0  0  0  0  0
   12.3360    2.1456   21.4513 C   0  0  0  0  0  0  0  0  0  0  0  0
    9.4425   -1.1533   21.7696 C   0  0  0  0  0  0  0  0  0  0  0  0
   11.5778    4.6109   23.7973 C   0  0  0  0  0  0  0  0  0  0  0  0
    7.1421   -1.8837   22.4967 C   0  0  0  0  0  0  0  0  0  0  0  0
   12.1943    0.9817   20.4970 C   0  0  0  0  0  0  0  0  0  0  0  0
    7.4822    0.4528   21.5147 C   0  0  0  0  0  0  0  0  0  0  0  0
   11.7003   -0.3114   21.1834 C   0  0  0  0  0  0  0  0  0  0  0  0
    8.0953   -0.6997   22.3342 C   0  0  0  0  0  0  0  0  0  0  0  0
    7.5145   -0.2176   17.9524 N   0  0  0  0  0  0  0  0  0  0  0  0
   11.4335    2.7060   22.2162 N   0  0  0  0  0  0  0  0  0  0  0  0
   13.4522    3.7519   22.4687 N   0  0  0  0  0  0  0  0  0  0  0  0
    7.1868    0.1400   20.1196 N   0  0  0  0  0  0  0  0  0  0  0  0
   10.3623   -0.1181   21.6898 N   0  0  0  0  0  0  0  0  0  0  0  0
    9.6641   -2.3129   21.4267 O   0  0  0  0  0  0  0  0  0  0  0  0
   13.5692    2.7092   21.5411 O   0  0  0  0  0  0  0  0  0  0  0  0
  1  2  2  0
  1  3  1  0
  2  4  1  0
  3  5  2  0
  4  9  2  0
  5  9  1  0
  6  7  2  0
  6 19  1  0
  7 22  1  0
  8 19  2  0
  8 22  1  0
  9 17  1  0
 10 13  1  0
 10 20  1  0
 10 21  2  0
 11 15  1  0
 11 20  2  0
 11 25  1  0
 12 18  1  0
 12 23  1  0
 12 24  2  0
 14 18  1  0
 15 17  1  0
 16 18  1  0
 16 22  1  0
 17 23  1  0
 21 25  1  0
M  END
