BAR-COM-4e090d3a-37
     RDKit          3D

 25 27  0  0  1  0  0  0  0  0999 V2000
   12.6025   -2.3015   22.4225 C   0  0  0  0  0  0  0  0  0  0  0  0
   13.6591   -1.4581   22.7659 C   0  0  0  0  0  0  0  0  0  0  0  0
   11.2867   -1.9011   22.6548 C   0  0  0  0  0  0  0  0  0  0  0  0
   13.3999   -0.2144   23.3417 C   0  0  0  0  0  0  0  0  0  0  0  0
    7.0875    0.6458   18.1433 C   0  0  0  0  0  0  0  0  0  0  0  0
   11.0275   -0.6574   23.2306 C   0  0  0  0  0  0  0  0  0  0  0  0
   12.0841    0.1860   23.5741 C   0  0  0  0  0  0  0  0  0  0  0  0
    6.8245    0.1600   19.3994 C   0  0  0  0  0  0  0  0  0  0  0  0
    9.0604   -0.6619   24.8289 C   0  0  0  0  0  0  0  0  0  0  0  0
    8.1594   -1.8005   26.3025 C   0  0  0  0  0  0  0  0  0  0  0  0
    8.5408   -0.0222   21.2428 C   0  0  0  0  0  0  0  0  0  0  0  0
    7.4951   -2.7927   27.1584 C   0  0  0  0  0  0  0  0  0  0  0  0
    4.8443    0.5415   20.9129 C   0  0  0  0  0  0  0  0  0  0  0  0
   12.9866    2.2011   24.4575 C   0  0  0  0  0  0  0  0  0  0  0  0
    7.5912   -0.7563   20.3158 C   0  0  0  0  0  0  0  0  0  0  0  0
    9.6130   -0.2456   23.4723 C   0  0  0  0  0  0  0  0  0  0  0  0
    6.0601    1.4518   17.7379 N   0  0  0  0  0  0  0  0  0  0  0  0
    8.4722   -1.8760   25.0336 N   0  0  0  0  0  0  0  0  0  0  0  0
    9.1223    0.1408   25.8955 N   0  0  0  0  0  0  0  0  0  0  0  0
    5.1575    1.4838   18.7123 N   0  0  0  0  0  0  0  0  0  0  0  0
    5.6178    0.7087   19.7076 N   0  0  0  0  0  0  0  0  0  0  0  0
    8.7285   -0.7353   22.3996 N   0  0  0  0  0  0  0  0  0  0  0  0
    9.0579    1.0575   20.9674 O   0  0  0  0  0  0  0  0  0  0  0  0
    8.5124   -0.6291   26.8939 O   0  0  0  0  0  0  0  0  0  0  0  0
   11.8483    1.4037   24.1381 O   0  0  0  0  0  0  0  0  0  0  0  0
  1  2  2  0
  1  3  1  0
  2  4  1  0
  3  6  2  0
  4  7  2  0
  5  8  2  0
  5 17  1  0
  6  7  1  0
  6 16  1  0
  7 25  1  0
  8 15  1  0
  8 21  1  0
  9 16  1  0
  9 18  1  0
  9 19  2  0
 10 12  1  0
 10 18  2  0
 10 24  1  0
 11 15  1  0
 11 22  1  0
 11 23  2  0
 13 21  1  0
 14 25  1  0
 16 22  1  0
 17 20  2  0
 19 24  1  0
 20 21  1  0
M  END
