BAR-COM-4e090d3a-1
     RDKit          3D

 34 39  0  0  0  0  0  0  0  0999 V2000
   14.6257   -1.9069   23.9387 C   0  0  0  0  0  0  0  0  0  0  0  0
   14.4411   -1.9849   22.5564 C   0  0  0  0  0  0  0  0  0  0  0  0
    5.5103    1.2974   18.8497 C   0  0  0  0  0  0  0  0  0  0  0  0
    5.7086    0.3104   19.8088 C   0  0  0  0  0  0  0  0  0  0  0  0
   13.8024   -1.0979   24.7320 C   0  0  0  0  0  0  0  0  0  0  0  0
   13.4301   -1.2597   21.9171 C   0  0  0  0  0  0  0  0  0  0  0  0
    6.3547    1.3133   17.7512 C   0  0  0  0  0  0  0  0  0  0  0  0
    7.5204   -0.5159   18.5084 C   0  0  0  0  0  0  0  0  0  0  0  0
    7.9175    2.9025   23.9824 C   0  0  0  0  0  0  0  0  0  0  0  0
    6.7308   -0.6174   19.6424 C   0  0  0  0  0  0  0  0  0  0  0  0
   12.7817   -0.3624   24.1063 C   0  0  0  0  0  0  0  0  0  0  0  0
   12.6224   -0.4607   22.7269 C   0  0  0  0  0  0  0  0  0  0  0  0
    6.9603   -1.6450   20.6127 C   0  0  0  0  0  0  0  0  0  0  0  0
   10.0541    1.8185   23.7325 C   0  0  0  0  0  0  0  0  0  0  0  0
   10.0672    3.1958   23.6620 C   0  0  0  0  0  0  0  0  0  0  0  0
    8.1248   -1.8240   21.3217 C   0  0  0  0  0  0  0  0  0  0  0  0
   11.1364    0.9106   23.6246 C   0  0  0  0  0  0  0  0  0  0  0  0
    6.5990   -3.3440   21.8584 C   0  0  0  0  0  0  0  0  0  0  0  0
    6.1332   -4.4802   22.5833 C   0  0  0  0  0  0  0  0  0  0  0  0
    6.9450   -5.0817   23.4743 C   0  0  0  0  0  0  0  0  0  0  0  0
    8.2951   -4.6003   23.7200 C   0  0  0  0  0  0  0  0  0  0  0  0
    8.7408   -3.5306   23.0414 C   0  0  0  0  0  0  0  0  0  0  0  0
    9.5292    0.2458   21.0296 C   0  0  0  0  0  0  0  0  0  0  0  0
   11.2539    4.0515   23.4489 C   0  0  0  0  0  0  0  0  0  0  0  0
   11.0006    0.6059   21.1210 C   0  0  0  0  0  0  0  0  0  0  0  0
    7.3582    0.4289   17.5551 N   0  0  0  0  0  0  0  0  0  0  0  0
    8.8429    3.8191   23.8047 N   0  0  0  0  0  0  0  0  0  0  0  0
   11.8497    0.4937   24.6466 N   0  0  0  0  0  0  0  0  0  0  0  0
    6.0208   -2.5866   20.9485 N   0  0  0  0  0  0  0  0  0  0  0  0
   11.5631    0.3637   22.4465 N   0  0  0  0  0  0  0  0  0  0  0  0
    7.8967   -2.9139   22.1222 N   0  0  0  0  0  0  0  0  0  0  0  0
    9.3063   -1.1284   21.3058 N   0  0  0  0  0  0  0  0  0  0  0  0
    8.6681    1.0733   20.7497 O   0  0  0  0  0  0  0  0  0  0  0  0
    8.4493    1.2709   23.9895 S   0  0  0  0  0  0  0  0  0  0  0  0
  1  2  2  0
  1  5  1  0
  2  6  1  0
  3  4  2  0
  3  7  1  0
  4 10  1  0
  5 11  2  0
  6 12  2  0
  7 26  2  0
  8 10  2  0
  8 26  1  0
  9 27  2  0
  9 34  1  0
 10 13  1  0
 11 12  1  0
 11 28  1  0
 12 30  1  0
 13 16  2  0
 13 29  1  0
 14 15  2  0
 14 17  1  0
 14 34  1  0
 15 24  1  0
 15 27  1  0
 16 31  1  0
 16 32  1  0
 17 28  2  0
 17 30  1  0
 18 19  1  0
 18 29  2  0
 18 31  1  0
 19 20  2  0
 20 21  1  0
 21 22  2  0
 22 31  1  0
 23 25  1  0
 23 32  1  0
 23 33  2  0
 25 30  1  0
M  END
