BAR-COM-4e090d3a-8
     RDKit          3D

 27 30  0  0  1  0  0  0  0  0999 V2000
   14.8519   -1.6373   24.8068 C   0  0  0  0  0  0  0  0  0  0  0  0
    5.8068   -0.1193   18.7911 C   0  0  0  0  0  0  0  0  0  0  0  0
   13.8031   -0.7421   25.0172 C   0  0  0  0  0  0  0  0  0  0  0  0
   14.8220   -2.5019   23.7127 C   0  0  0  0  0  0  0  0  0  0  0  0
    6.6172   -0.2563   19.9126 C   0  0  0  0  0  0  0  0  0  0  0  0
    6.4165    0.1759   17.5824 C   0  0  0  0  0  0  0  0  0  0  0  0
    8.5051    0.1979   18.5393 C   0  0  0  0  0  0  0  0  0  0  0  0
   12.7243   -0.7117   24.1335 C   0  0  0  0  0  0  0  0  0  0  0  0
    7.9932   -0.0960   19.7928 C   0  0  0  0  0  0  0  0  0  0  0  0
   13.7433   -2.4715   22.8289 C   0  0  0  0  0  0  0  0  0  0  0  0
   12.6944   -1.5763   23.0393 C   0  0  0  0  0  0  0  0  0  0  0  0
   11.6540    0.2290   24.3811 C   0  0  0  0  0  0  0  0  0  0  0  0
   10.2780   -1.7751   22.4431 C   0  0  0  0  0  0  0  0  0  0  0  0
   12.5960    1.9411   21.5556 C   0  0  0  0  0  0  0  0  0  0  0  0
   12.2221    3.2744   22.1315 C   0  0  0  0  0  0  0  0  0  0  0  0
   12.6016    2.1366   23.0563 C   0  0  0  0  0  0  0  0  0  0  0  0
   13.7406   -3.4121   21.6673 C   0  0  0  0  0  0  0  0  0  0  0  0
   13.1326    4.4422   21.9703 C   0  0  0  0  0  0  0  0  0  0  0  0
    8.8996   -0.2389   20.9906 C   0  0  0  0  0  0  0  0  0  0  0  0
    9.3998   -1.6684   21.2060 C   0  0  0  0  0  0  0  0  0  0  0  0
    7.7495    0.3387   17.4271 N   0  0  0  0  0  0  0  0  0  0  0  0
   10.5747    0.0193   25.0989 N   0  0  0  0  0  0  0  0  0  0  0  0
    9.8587    1.1938   25.0447 N   0  0  0  0  0  0  0  0  0  0  0  0
   10.4880    2.1026   24.3097 N   0  0  0  0  0  0  0  0  0  0  0  0
   11.6098    1.4971   23.8959 N   0  0  0  0  0  0  0  0  0  0  0  0
   11.6158   -1.5550   22.1457 N   0  0  0  0  0  0  0  0  0  0  0  0
    9.7768   -2.0019   23.5407 O   0  0  0  0  0  0  0  0  0  0  0  0
  1  3  2  0
  1  4  1  0
  2  5  2  0
  2  6  1  0
  3  8  1  0
  4 10  2  0
  5  9  1  0
  6 21  2  0
  7  9  2  0
  7 21  1  0
  8 11  2  0
  8 12  1  0
  9 19  1  0
 10 11  1  0
 10 17  1  0
 11 26  1  0
 12 22  2  0
 12 25  1  0
 13 20  1  0
 13 26  1  0
 13 27  2  0
 14 15  1  0
 14 16  1  0
 15 16  1  0
 15 18  1  0
 16 25  1  0
 19 20  1  0
 22 23  1  0
 23 24  2  0
 24 25  1  0
M  END
