BAR-COM-4e090d3a-48
     RDKit          3D

 26 28  0  0  0  0  0  0  0  0999 V2000
   14.5692   -1.4288   22.3671 C   0  0  0  0  0  0  0  0  0  0  0  0
    8.8391   -0.2760   25.7082 C   0  0  0  0  0  0  0  0  0  0  0  0
   14.5464   -0.0347   22.3275 C   0  0  0  0  0  0  0  0  0  0  0  0
   13.4443   -2.1329   22.7966 C   0  0  0  0  0  0  0  0  0  0  0  0
    9.9522   -1.0174   25.3121 C   0  0  0  0  0  0  0  0  0  0  0  0
    7.9929   -0.3380   23.4461 C   0  0  0  0  0  0  0  0  0  0  0  0
   12.2737   -0.0487   23.1473 C   0  0  0  0  0  0  0  0  0  0  0  0
   12.9550    5.6718   25.4791 C   0  0  0  0  0  0  0  0  0  0  0  0
    7.8594    0.0636   24.7752 C   0  0  0  0  0  0  0  0  0  0  0  0
    9.1061   -1.0794   23.0500 C   0  0  0  0  0  0  0  0  0  0  0  0
   13.3986    0.6554   22.7176 C   0  0  0  0  0  0  0  0  0  0  0  0
   12.2965   -1.4428   23.1867 C   0  0  0  0  0  0  0  0  0  0  0  0
   10.0857   -1.4191   23.9830 C   0  0  0  0  0  0  0  0  0  0  0  0
   11.9865    5.8755   24.5285 C   0  0  0  0  0  0  0  0  0  0  0  0
   12.3243    2.9204   23.0279 C   0  0  0  0  0  0  0  0  0  0  0  0
    6.6688    0.8550   25.1996 C   0  0  0  0  0  0  0  0  0  0  0  0
    9.2323   -1.5022   21.6235 C   0  0  0  0  0  0  0  0  0  0  0  0
    9.8853    7.2665   24.6145 C   0  0  0  0  0  0  0  0  0  0  0  0
   11.8207    5.3670   23.1257 C   0  0  0  0  0  0  0  0  0  0  0  0
   12.6419    6.3712   26.6114 N   0  0  0  0  0  0  0  0  0  0  0  0
   11.4972    7.0093   26.3935 N   0  0  0  0  0  0  0  0  0  0  0  0
   11.1058    6.7106   25.1442 N   0  0  0  0  0  0  0  0  0  0  0  0
   13.3761    2.0499   22.6777 N   0  0  0  0  0  0  0  0  0  0  0  0
   12.7001    4.2552   22.8461 N   0  0  0  0  0  0  0  0  0  0  0  0
   11.2166    2.5849   23.4402 O   0  0  0  0  0  0  0  0  0  0  0  0
   11.1803   -2.1413   23.6132 O   0  0  0  0  0  0  0  0  0  0  0  0
  1  3  2  0
  1  4  1  0
  2  5  2  0
  2  9  1  0
  3 11  1  0
  4 12  2  0
  5 13  1  0
  6  9  2  0
  6 10  1  0
  7 11  2  0
  7 12  1  0
  8 14  2  0
  8 20  1  0
  9 16  1  0
 10 13  2  0
 10 17  1  0
 11 23  1  0
 12 26  1  0
 13 26  1  0
 14 19  1  0
 14 22  1  0
 15 23  1  0
 15 24  1  0
 15 25  2  0
 18 22  1  0
 19 24  1  0
 20 21  2  0
 21 22  1  0
M  END
