BAR-COM-5694a99d-5
     RDKit          3D

 23 25  0  0  0  0  0  0  0  0999 V2000
   14.2217   -1.8756   23.8811 C   0  0  0  0  0  0  0  0  0  0  0  0
   13.3080   -2.6006   23.1161 C   0  0  0  0  0  0  0  0  0  0  0  0
    5.9248    1.0430   19.0046 C   0  0  0  0  0  0  0  0  0  0  0  0
   14.0139   -0.5157   24.1122 C   0  0  0  0  0  0  0  0  0  0  0  0
   12.1866   -1.9658   22.5821 C   0  0  0  0  0  0  0  0  0  0  0  0
    6.8290    1.0330   20.0608 C   0  0  0  0  0  0  0  0  0  0  0  0
    6.3672    0.6018   17.7679 C   0  0  0  0  0  0  0  0  0  0  0  0
    8.4733    0.1673   18.5764 C   0  0  0  0  0  0  0  0  0  0  0  0
   12.8925    0.1190   23.5782 C   0  0  0  0  0  0  0  0  0  0  0  0
    8.1297    0.5883   19.8509 C   0  0  0  0  0  0  0  0  0  0  0  0
   11.9788   -0.6060   22.8132 C   0  0  0  0  0  0  0  0  0  0  0  0
   10.1546   -0.3106   21.0799 C   0  0  0  0  0  0  0  0  0  0  0  0
   13.9759    4.6196   23.6555 C   0  0  0  0  0  0  0  0  0  0  0  0
   13.2202    4.8464   21.7152 C   0  0  0  0  0  0  0  0  0  0  0  0
   12.8384    3.9163   22.8858 C   0  0  0  0  0  0  0  0  0  0  0  0
   12.6937    1.5899   23.8443 C   0  0  0  0  0  0  0  0  0  0  0  0
   13.0652    2.4340   22.6244 C   0  0  0  0  0  0  0  0  0  0  0  0
    7.6226    0.1626   17.5257 N   0  0  0  0  0  0  0  0  0  0  0  0
    9.0723    0.5667   20.9059 N   0  0  0  0  0  0  0  0  0  0  0  0
   10.8496    0.0118   22.2696 N   0  0  0  0  0  0  0  0  0  0  0  0
   14.5112    5.1016   22.3728 N   0  0  0  0  0  0  0  0  0  0  0  0
   10.4580   -1.2229   20.3178 O   0  0  0  0  0  0  0  0  0  0  0  0
   11.5127    4.1023   23.4238 O   0  0  0  0  0  0  0  0  0  0  0  0
  1  2  2  0
  1  4  1  0
  2  5  1  0
  3  6  2  0
  3  7  1  0
  4  9  2  0
  5 11  2  0
  6 10  1  0
  7 18  2  0
  8 10  2  0
  8 18  1  0
  9 11  1  0
  9 16  1  0
 10 19  1  0
 11 20  1  0
 12 19  1  0
 12 20  1  0
 12 22  2  0
 13 15  1  0
 13 21  1  0
 14 15  1  0
 14 21  1  0
 15 17  1  0
 15 23  1  0
 16 17  1  0
M  CHG  1  21   1
M  END
