BAR-COM-4e090d3a-57
     RDKit          3D

 28 30  0  0  1  0  0  0  0  0999 V2000
   13.6483   -0.9911   21.9617 C   0  0  0  0  0  0  0  0  0  0  0  0
   14.0076   -1.1364   23.3016 C   0  0  0  0  0  0  0  0  0  0  0  0
    5.5609    1.2325   19.0705 C   0  0  0  0  0  0  0  0  0  0  0  0
    6.1676    0.5520   20.1202 C   0  0  0  0  0  0  0  0  0  0  0  0
   12.3074   -1.0740   21.5863 C   0  0  0  0  0  0  0  0  0  0  0  0
   13.0262   -1.3646   24.2661 C   0  0  0  0  0  0  0  0  0  0  0  0
    8.5858    2.3892   23.8712 C   0  0  0  0  0  0  0  0  0  0  0  0
   10.9460    2.9046   23.9021 C   0  0  0  0  0  0  0  0  0  0  0  0
    8.8208    1.2653   24.6632 C   0  0  0  0  0  0  0  0  0  0  0  0
   11.1810    1.7807   24.6941 C   0  0  0  0  0  0  0  0  0  0  0  0
    6.0248    0.9918   17.7873 C   0  0  0  0  0  0  0  0  0  0  0  0
    7.5953   -0.5067   18.5399 C   0  0  0  0  0  0  0  0  0  0  0  0
    7.2051   -0.3360   19.8584 C   0  0  0  0  0  0  0  0  0  0  0  0
   11.3260   -1.3023   22.5508 C   0  0  0  0  0  0  0  0  0  0  0  0
   11.6853   -1.4475   23.8907 C   0  0  0  0  0  0  0  0  0  0  0  0
    9.6484    3.2088   23.4906 C   0  0  0  0  0  0  0  0  0  0  0  0
   10.1184    0.9611   25.0747 C   0  0  0  0  0  0  0  0  0  0  0  0
    9.3677   -0.7411   21.0709 C   0  0  0  0  0  0  0  0  0  0  0  0
    7.8844   -1.0912   20.9772 C   0  0  0  0  0  0  0  0  0  0  0  0
    7.0300    0.1367   17.4939 N   0  0  0  0  0  0  0  0  0  0  0  0
    9.9884   -1.3815   22.1529 N   0  0  0  0  0  0  0  0  0  0  0  0
   10.6972   -1.6823   24.8987 N   0  0  0  0  0  0  0  0  0  0  0  0
    9.8931    0.0286   20.2717 O   0  0  0  0  0  0  0  0  0  0  0  0
    9.1755   -0.7568   26.7735 O   0  0  0  0  0  0  0  0  0  0  0  0
   11.6267   -0.2217   26.8437 O   0  0  0  0  0  0  0  0  0  0  0  0
    7.2417   -0.7692   22.2019 O   0  0  0  0  0  0  0  0  0  0  0  0
    9.4228    4.2876   22.7293 F   0  0  0  0  0  0  0  0  0  0  0  0
   10.4168   -0.4637   26.0815 S   0  0  0  0  0  0  0  0  0  0  0  0
  1  2  2  0
  1  5  1  0
  2  6  1  0
  3  4  2  0
  3 11  1  0
  4 13  1  0
  5 14  2  0
  6 15  2  0
  7  9  2  0
  7 16  1  0
  8 10  1  0
  8 16  2  0
  9 17  1  0
 10 17  2  0
 11 20  2  0
 12 13  2  0
 12 20  1  0
 13 19  1  0
 14 15  1  0
 14 21  1  0
 15 22  1  0
 16 27  1  0
 17 28  1  0
 18 19  1  0
 18 21  1  0
 18 23  2  0
 19 26  1  0
 22 28  1  0
 24 28  2  0
 25 28  2  0
M  END
