BAR-COM-5694a99d-2
     RDKit          3D

 23 24  0  0  0  0  0  0  0  0999 V2000
   13.8815   -1.2503   22.2115 C   0  0  0  0  0  0  0  0  0  0  0  0
   14.2476   -1.2110   23.5568 C   0  0  0  0  0  0  0  0  0  0  0  0
    5.4573    1.1759   19.1819 C   0  0  0  0  0  0  0  0  0  0  0  0
   12.5957   -0.8699   21.8271 C   0  0  0  0  0  0  0  0  0  0  0  0
    6.3191    1.0203   20.2619 C   0  0  0  0  0  0  0  0  0  0  0  0
   13.3278   -0.7914   24.5179 C   0  0  0  0  0  0  0  0  0  0  0  0
    5.9366    0.8651   17.9196 C   0  0  0  0  0  0  0  0  0  0  0  0
    7.9983    0.2814   18.7484 C   0  0  0  0  0  0  0  0  0  0  0  0
    7.6156    0.5650   20.0495 C   0  0  0  0  0  0  0  0  0  0  0  0
   11.6760   -0.4502   22.7881 C   0  0  0  0  0  0  0  0  0  0  0  0
   12.0420   -0.4109   24.1336 C   0  0  0  0  0  0  0  0  0  0  0  0
    8.2098    0.8573   25.3436 C   0  0  0  0  0  0  0  0  0  0  0  0
    9.8460   -0.0495   21.0823 C   0  0  0  0  0  0  0  0  0  0  0  0
    7.4665    2.0536   25.8384 C   0  0  0  0  0  0  0  0  0  0  0  0
    9.3455   -1.2265   26.0852 C   0  0  0  0  0  0  0  0  0  0  0  0
   10.8361   -0.9418   26.1134 C   0  0  0  0  0  0  0  0  0  0  0  0
    7.1894    0.4203   17.6741 N   0  0  0  0  0  0  0  0  0  0  0  0
    8.5156    0.3969   21.1283 N   0  0  0  0  0  0  0  0  0  0  0  0
   10.3920   -0.0730   22.3879 N   0  0  0  0  0  0  0  0  0  0  0  0
    8.5961    0.0230   26.3494 N   0  0  0  0  0  0  0  0  0  0  0  0
    8.4044    0.7216   24.1413 O   0  0  0  0  0  0  0  0  0  0  0  0
   10.4512   -0.3726   20.0652 O   0  0  0  0  0  0  0  0  0  0  0  0
   11.1585   -0.0043   25.0886 O   0  0  0  0  0  0  0  0  0  0  0  0
  1  2  2  0
  1  4  1  0
  2  6  1  0
  3  5  2  0
  3  7  1  0
  4 10  2  0
  5  9  1  0
  6 11  2  0
  7 17  2  0
  8  9  2  0
  8 17  1  0
  9 18  1  0
 10 11  1  0
 10 19  1  0
 11 23  1  0
 12 14  1  0
 12 20  1  0
 12 21  2  0
 13 18  1  0
 13 19  1  0
 13 22  2  0
 15 16  1  0
 15 20  1  0
 16 23  1  0
M  END
