BAR-COM-4e090d3a-63
     RDKit          3D

 26 28  0  0  1  0  0  0  0  0999 V2000
   14.6913   -0.2740   21.8973 C   0  0  0  0  0  0  0  0  0  0  0  0
   13.8437   -1.3168   22.2711 C   0  0  0  0  0  0  0  0  0  0  0  0
   14.3045    1.0493   22.1093 C   0  0  0  0  0  0  0  0  0  0  0  0
    7.9336    4.4047   23.8602 C   0  0  0  0  0  0  0  0  0  0  0  0
   12.2224    0.2871   23.0689 C   0  0  0  0  0  0  0  0  0  0  0  0
    7.0602    4.3450   22.8018 C   0  0  0  0  0  0  0  0  0  0  0  0
   12.6092   -1.0363   22.8569 C   0  0  0  0  0  0  0  0  0  0  0  0
   13.0701    1.3298   22.6951 C   0  0  0  0  0  0  0  0  0  0  0  0
    9.0940    4.9963   23.3260 C   0  0  0  0  0  0  0  0  0  0  0  0
   11.4902    3.1378   23.4799 C   0  0  0  0  0  0  0  0  0  0  0  0
    7.4430   -4.2176   22.1469 C   0  0  0  0  0  0  0  0  0  0  0  0
    6.8002   -3.9177   23.4995 C   0  0  0  0  0  0  0  0  0  0  0  0
    8.5152   -3.1926   21.7963 C   0  0  0  0  0  0  0  0  0  0  0  0
    8.9227   -2.7729   24.2522 C   0  0  0  0  0  0  0  0  0  0  0  0
    7.8489   -3.8058   24.6150 C   0  0  0  0  0  0  0  0  0  0  0  0
    9.5648   -3.0768   22.8986 C   0  0  0  0  0  0  0  0  0  0  0  0
    7.1859   -3.4510   25.9445 C   0  0  0  0  0  0  0  0  0  0  0  0
   10.7196    6.7977   24.0361 C   0  0  0  0  0  0  0  0  0  0  0  0
   11.6977   -2.1584   23.2588 C   0  0  0  0  0  0  0  0  0  0  0  0
   10.3865    5.3072   24.0494 C   0  0  0  0  0  0  0  0  0  0  0  0
    8.9721    5.2913   22.0290 N   0  0  0  0  0  0  0  0  0  0  0  0
    7.7248    4.8833   21.7393 N   0  0  0  0  0  0  0  0  0  0  0  0
   12.6839    2.6536   22.9076 N   0  0  0  0  0  0  0  0  0  0  0  0
   11.4851    4.5359   23.5150 N   0  0  0  0  0  0  0  0  0  0  0  0
   10.5615    2.4522   23.9007 O   0  0  0  0  0  0  0  0  0  0  0  0
   10.4707   -2.0340   22.5543 O   0  0  0  0  0  0  0  0  0  0  0  0
  1  2  2  0
  1  3  1  0
  2  7  1  0
  3  8  2  0
  4  6  2  0
  4  9  1  0
  5  7  2  0
  5  8  1  0
  6 22  1  0
  7 19  1  0
  8 23  1  0
  9 20  1  0
  9 21  2  0
 10 23  1  0
 10 24  1  0
 10 25  2  0
 11 12  1  0
 11 13  1  0
 12 15  1  0
 13 16  1  0
 14 15  1  0
 14 16  1  0
 15 17  1  0
 16 26  1  0
 18 20  1  0
 19 26  1  0
 20 24  1  0
 21 22  1  0
M  END
