BAR-COM-4e090d3a-35
     RDKit          3D

 25 27  0  0  0  0  0  0  0  0999 V2000
   14.3975   -1.3105   22.2293 C   0  0  0  0  0  0  0  0  0  0  0  0
   11.3817    7.1107   25.3997 C   0  0  0  0  0  0  0  0  0  0  0  0
   12.2676    6.1721   24.8824 C   0  0  0  0  0  0  0  0  0  0  0  0
   14.4606    0.0827   22.2554 C   0  0  0  0  0  0  0  0  0  0  0  0
   13.2691   -1.9670   22.7208 C   0  0  0  0  0  0  0  0  0  0  0  0
   12.2669    0.1630   23.2646 C   0  0  0  0  0  0  0  0  0  0  0  0
   10.2482    7.4088   24.6608 C   0  0  0  0  0  0  0  0  0  0  0  0
    7.1784   -0.8001   22.0628 C   0  0  0  0  0  0  0  0  0  0  0  0
    8.6272   -1.9892   21.1440 C   0  0  0  0  0  0  0  0  0  0  0  0
   11.9967    5.5689   23.6593 C   0  0  0  0  0  0  0  0  0  0  0  0
   13.3953    0.8194   22.7731 C   0  0  0  0  0  0  0  0  0  0  0  0
   12.2038   -1.2302   23.2384 C   0  0  0  0  0  0  0  0  0  0  0  0
   10.8356    5.9358   22.9983 C   0  0  0  0  0  0  0  0  0  0  0  0
   12.4958    3.1179   23.2760 C   0  0  0  0  0  0  0  0  0  0  0  0
   12.9684    4.5543   23.1157 C   0  0  0  0  0  0  0  0  0  0  0  0
    9.2636   -3.3402   23.1922 C   0  0  0  0  0  0  0  0  0  0  0  0
   10.7693   -3.1235   23.1224 C   0  0  0  0  0  0  0  0  0  0  0  0
    9.9512    6.8435   23.4692 N   0  0  0  0  0  0  0  0  0  0  0  0
    7.7863   -1.0218   20.8603 N   0  0  0  0  0  0  0  0  0  0  0  0
    7.5903   -1.5694   23.0727 N   0  0  0  0  0  0  0  0  0  0  0  0
    8.5168   -2.3207   22.4584 N   0  0  0  0  0  0  0  0  0  0  0  0
   13.4586    2.2130   22.7987 N   0  0  0  0  0  0  0  0  0  0  0  0
   11.4055    2.8370   23.7632 O   0  0  0  0  0  0  0  0  0  0  0  0
   11.1027   -1.8707   23.7182 O   0  0  0  0  0  0  0  0  0  0  0  0
   10.4001    5.1497   21.3174 Br  0  0  0  0  0  0  0  0  0  0  0  0
  1  4  2  0
  1  5  1  0
  2  3  2  0
  2  7  1  0
  3 10  1  0
  4 11  1  0
  5 12  2  0
  6 11  2  0
  6 12  1  0
  7 18  2  0
  8 19  1  0
  8 20  2  0
  9 19  2  0
  9 21  1  0
 10 13  2  0
 10 15  1  0
 11 22  1  0
 12 24  1  0
 13 18  1  0
 13 25  1  0
 14 15  1  0
 14 22  1  0
 14 23  2  0
 16 17  1  0
 16 21  1  0
 17 24  1  0
 20 21  1  0
M  END
