BAR-COM-4e090d3a-49
     RDKit          3D

 19 20  0  0  0  0  0  0  0  0999 V2000
    9.9006    2.0956   25.9853 C   0  0  0  0  0  0  0  0  0  0  0  0
   13.4898   -1.0000   21.7641 C   0  0  0  0  0  0  0  0  0  0  0  0
   13.8189    0.2247   22.3451 C   0  0  0  0  0  0  0  0  0  0  0  0
   12.2080   -1.5262   21.9248 C   0  0  0  0  0  0  0  0  0  0  0  0
   12.8662    0.9231   23.0869 C   0  0  0  0  0  0  0  0  0  0  0  0
    6.3183   -3.1514   19.9631 C   0  0  0  0  0  0  0  0  0  0  0  0
    7.4076   -1.1296   20.0015 C   0  0  0  0  0  0  0  0  0  0  0  0
   11.2553   -0.8277   22.6666 C   0  0  0  0  0  0  0  0  0  0  0  0
    7.3150   -2.3639   20.6072 C   0  0  0  0  0  0  0  0  0  0  0  0
   11.5844    0.3969   23.2476 C   0  0  0  0  0  0  0  0  0  0  0  0
    9.9231   -1.3950   22.8221 C   0  0  0  0  0  0  0  0  0  0  0  0
   10.9885    1.3632   25.3374 C   0  0  0  0  0  0  0  0  0  0  0  0
    8.1435   -2.8143   21.7754 C   0  0  0  0  0  0  0  0  0  0  0  0
    9.0382    2.6767   26.5000 N   0  0  0  0  0  0  0  0  0  0  0  0
    5.6733   -2.5987   18.9385 N   0  0  0  0  0  0  0  0  0  0  0  0
    9.4517   -2.2000   21.7796 N   0  0  0  0  0  0  0  0  0  0  0  0
    9.2465   -1.1443   23.8340 O   0  0  0  0  0  0  0  0  0  0  0  0
   10.6667    1.0952   23.9743 O   0  0  0  0  0  0  0  0  0  0  0  0
    6.2738   -1.0647   18.7193 S   0  0  0  0  0  0  0  0  0  0  0  0
  1 12  1  0
  1 14  3  0
  2  3  2  0
  2  4  1  0
  3  5  1  0
  4  8  2  0
  5 10  2  0
  6  9  1  0
  6 15  2  0
  7  9  2  0
  7 19  1  0
  8 10  1  0
  8 11  1  0
  9 13  1  0
 10 18  1  0
 11 16  1  0
 11 17  2  0
 12 18  1  0
 13 16  1  0
 15 19  1  0
M  END
