BAR-COM-21d20d65-2
     RDKit          3D

 24 26  0  0  1  0  0  0  0  0999 V2000
   14.8401   -0.7360   21.7980 C   0  0  0  0  0  0  0  0  0  0  0  0
    6.2773   -3.2123   24.2628 C   0  0  0  0  0  0  0  0  0  0  0  0
   14.7544    0.5263   22.3852 C   0  0  0  0  0  0  0  0  0  0  0  0
   13.6860   -1.4953   21.6053 C   0  0  0  0  0  0  0  0  0  0  0  0
    7.5641   -2.8998   23.8390 C   0  0  0  0  0  0  0  0  0  0  0  0
   12.3606    0.2699   22.5872 C   0  0  0  0  0  0  0  0  0  0  0  0
    5.3565   -3.6053   23.3049 C   0  0  0  0  0  0  0  0  0  0  0  0
    6.8936   -3.3919   21.6109 C   0  0  0  0  0  0  0  0  0  0  0  0
   13.5147    1.0293   22.7798 C   0  0  0  0  0  0  0  0  0  0  0  0
   12.4462   -0.9924   21.9999 C   0  0  0  0  0  0  0  0  0  0  0  0
    7.8864   -2.9887   22.4893 C   0  0  0  0  0  0  0  0  0  0  0  0
   10.1013   -1.7614   22.5732 C   0  0  0  0  0  0  0  0  0  0  0  0
   11.7649    6.4838   22.8642 C   0  0  0  0  0  0  0  0  0  0  0  0
   11.7145    5.1617   23.6415 C   0  0  0  0  0  0  0  0  0  0  0  0
   13.0988    4.8608   23.0091 C   0  0  0  0  0  0  0  0  0  0  0  0
   14.3273    5.2152   23.8443 C   0  0  0  0  0  0  0  0  0  0  0  0
   13.4227    2.3940   23.4145 C   0  0  0  0  0  0  0  0  0  0  0  0
   13.2173    3.4856   22.3638 C   0  0  0  0  0  0  0  0  0  0  0  0
    5.6325   -3.7036   21.9852 N   0  0  0  0  0  0  0  0  0  0  0  0
   11.2920   -1.7519   21.8065 N   0  0  0  0  0  0  0  0  0  0  0  0
    9.1871   -2.6770   22.0279 N   0  0  0  0  0  0  0  0  0  0  0  0
   12.8104    5.9099   22.0008 N   0  0  0  0  0  0  0  0  0  0  0  0
    9.9047   -1.0687   23.5666 O   0  0  0  0  0  0  0  0  0  0  0  0
   11.6588    5.2674   25.0743 O   0  0  0  0  0  0  0  0  0  0  0  0
  1  3  2  0
  1  4  1  0
  2  5  2  0
  2  7  1  0
  3  9  1  0
  4 10  2  0
  5 11  1  0
  6  9  2  0
  6 10  1  0
  7 19  2  0
  8 11  2  0
  8 19  1  0
  9 17  1  0
 10 20  1  0
 11 21  1  0
 12 20  1  0
 12 21  1  0
 12 23  2  0
 13 14  1  0
 13 22  1  0
 14 15  1  0
 14 24  1  0
 15 16  1  0
 15 18  1  0
 15 22  1  0
 17 18  1  0
M  CHG  1  22   1
M  END
