BAR-COM-21d20d65-8
     RDKit          3D

 23 24  0  0  0  0  0  0  0  0999 V2000
   14.8247   -0.9655   22.1647 C   0  0  0  0  0  0  0  0  0  0  0  0
   10.0244    7.2839   23.9166 C   0  0  0  0  0  0  0  0  0  0  0  0
   13.8991   -1.9486   22.5147 C   0  0  0  0  0  0  0  0  0  0  0  0
   14.4885    0.3830   22.2836 C   0  0  0  0  0  0  0  0  0  0  0  0
   11.0157    6.3800   23.5512 C   0  0  0  0  0  0  0  0  0  0  0  0
   12.3010   -0.2346   23.1023 C   0  0  0  0  0  0  0  0  0  0  0  0
    8.8177    6.7751   24.3693 C   0  0  0  0  0  0  0  0  0  0  0  0
    9.5334    4.6071   24.1132 C   0  0  0  0  0  0  0  0  0  0  0  0
   12.6373   -1.5831   22.9835 C   0  0  0  0  0  0  0  0  0  0  0  0
   13.2266    0.7485   22.7523 C   0  0  0  0  0  0  0  0  0  0  0  0
   10.7736    5.0142   23.6483 C   0  0  0  0  0  0  0  0  0  0  0  0
    9.4658   -0.6193   21.3529 C   0  0  0  0  0  0  0  0  0  0  0  0
   11.6761    2.6694   23.3220 C   0  0  0  0  0  0  0  0  0  0  0  0
   10.0903   -2.9771   20.8014 C   0  0  0  0  0  0  0  0  0  0  0  0
   11.6363   -2.6470   23.3620 C   0  0  0  0  0  0  0  0  0  0  0  0
   10.1900   -2.2066   23.1490 C   0  0  0  0  0  0  0  0  0  0  0  0
    8.5457    5.4553   24.4773 N   0  0  0  0  0  0  0  0  0  0  0  0
    9.8394   -0.2324   20.0809 N   0  0  0  0  0  0  0  0  0  0  0  0
   12.8909    2.0974   22.8717 N   0  0  0  0  0  0  0  0  0  0  0  0
   11.7626    4.0704   23.2838 N   0  0  0  0  0  0  0  0  0  0  0  0
    9.9002   -1.8905   21.7528 N   0  0  0  0  0  0  0  0  0  0  0  0
    8.8015    0.1368   22.0672 O   0  0  0  0  0  0  0  0  0  0  0  0
   10.6965    2.0288   23.6898 O   0  0  0  0  0  0  0  0  0  0  0  0
  1  3  2  0
  1  4  1  0
  2  5  2  0
  2  7  1  0
  3  9  1  0
  4 10  2  0
  5 11  1  0
  6  9  2  0
  6 10  1  0
  7 17  2  0
  8 11  2  0
  8 17  1  0
  9 15  1  0
 10 19  1  0
 11 20  1  0
 12 18  1  0
 12 21  1  0
 12 22  2  0
 13 19  1  0
 13 20  1  0
 13 23  2  0
 14 21  1  0
 15 16  1  0
 16 21  1  0
M  END
