BAR-COM-21d20d65-6
     RDKit          3D

 24 25  0  0  1  0  0  0  0  0999 V2000
   14.6047   -1.2876   22.1765 C   0  0  0  0  0  0  0  0  0  0  0  0
   11.1532    7.3368   24.9819 C   0  0  0  0  0  0  0  0  0  0  0  0
   13.4651   -2.0917   22.1579 C   0  0  0  0  0  0  0  0  0  0  0  0
   14.5050    0.0553   22.5404 C   0  0  0  0  0  0  0  0  0  0  0  0
   12.0133    6.3223   24.5766 C   0  0  0  0  0  0  0  0  0  0  0  0
   12.1259   -0.2099   22.8668 C   0  0  0  0  0  0  0  0  0  0  0  0
    9.8098    7.0294   25.1257 C   0  0  0  0  0  0  0  0  0  0  0  0
   10.1515    4.8442   24.5041 C   0  0  0  0  0  0  0  0  0  0  0  0
   12.2257   -1.5528   22.5030 C   0  0  0  0  0  0  0  0  0  0  0  0
   13.2656    0.5941   22.8855 C   0  0  0  0  0  0  0  0  0  0  0  0
   11.5108    5.0493   24.3310 C   0  0  0  0  0  0  0  0  0  0  0  0
   12.0136    2.6670   23.6302 C   0  0  0  0  0  0  0  0  0  0  0  0
    6.4049   -0.5920   25.8652 C   0  0  0  0  0  0  0  0  0  0  0  0
    7.9027   -2.8531   22.3075 C   0  0  0  0  0  0  0  0  0  0  0  0
   10.9930   -2.4231   22.4827 C   0  0  0  0  0  0  0  0  0  0  0  0
    7.2377   -0.9753   24.6502 C   0  0  0  0  0  0  0  0  0  0  0  0
    9.9598   -1.9607   23.5215 C   0  0  0  0  0  0  0  0  0  0  0  0
    7.7731   -2.4072   24.7723 C   0  0  0  0  0  0  0  0  0  0  0  0
    8.7028   -2.8540   23.6173 C   0  0  0  0  0  0  0  0  0  0  0  0
    9.2849    5.8048   24.8964 N   0  0  0  0  0  0  0  0  0  0  0  0
   13.1663    1.9372   23.2500 N   0  0  0  0  0  0  0  0  0  0  0  0
   12.3612    3.9968   23.9173 N   0  0  0  0  0  0  0  0  0  0  0  0
   10.8813    2.1994   23.6968 O   0  0  0  0  0  0  0  0  0  0  0  0
    9.1318   -4.1957   23.8659 O   0  0  0  0  0  0  0  0  0  0  0  0
  1  3  2  0
  1  4  1  0
  2  5  2  0
  2  7  1  0
  3  9  1  0
  4 10  2  0
  5 11  1  0
  6  9  2  0
  6 10  1  0
  7 20  2  0
  8 11  2  0
  8 20  1  0
  9 15  1  0
 10 21  1  0
 11 22  1  0
 12 21  1  0
 12 22  1  0
 12 23  2  0
 13 16  1  0
 14 19  1  0
 15 17  1  0
 16 18  1  0
 17 19  1  0
 18 19  1  0
 19 24  1  0
M  END
