BAR-COM-4e090d3a-13
     RDKit          3D

 27 30  0  0  0  0  0  0  0  0999 V2000
   14.8634   -1.3931   24.5216 C   0  0  0  0  0  0  0  0  0  0  0  0
   14.5078   -2.2954   23.5164 C   0  0  0  0  0  0  0  0  0  0  0  0
    7.3866    1.5234   23.6539 C   0  0  0  0  0  0  0  0  0  0  0  0
    8.7039    1.0666   23.6152 C   0  0  0  0  0  0  0  0  0  0  0  0
   13.9065   -0.5597   25.1144 C   0  0  0  0  0  0  0  0  0  0  0  0
   13.1870   -2.3983   23.0675 C   0  0  0  0  0  0  0  0  0  0  0  0
    6.4646    0.9216   24.5104 C   0  0  0  0  0  0  0  0  0  0  0  0
    6.4078    0.0712   20.4369 C   0  0  0  0  0  0  0  0  0  0  0  0
    5.7635    0.7233   19.4048 C   0  0  0  0  0  0  0  0  0  0  0  0
    8.1471   -0.3808   18.8944 C   0  0  0  0  0  0  0  0  0  0  0  0
    9.0993    0.0079   24.4328 C   0  0  0  0  0  0  0  0  0  0  0  0
   12.5748   -0.6496   24.6754 C   0  0  0  0  0  0  0  0  0  0  0  0
   12.2511   -1.5585   23.6720 C   0  0  0  0  0  0  0  0  0  0  0  0
    7.6404   -0.4996   20.1730 C   0  0  0  0  0  0  0  0  0  0  0  0
    6.8600   -0.1371   25.3279 C   0  0  0  0  0  0  0  0  0  0  0  0
    8.1773   -0.5940   25.2892 C   0  0  0  0  0  0  0  0  0  0  0  0
   10.4758   -0.4271   24.3524 C   0  0  0  0  0  0  0  0  0  0  0  0
    9.7399   -1.3036   21.3080 C   0  0  0  0  0  0  0  0  0  0  0  0
   10.0883   -2.1224   22.5372 C   0  0  0  0  0  0  0  0  0  0  0  0
    6.2831    0.8242   18.1630 N   0  0  0  0  0  0  0  0  0  0  0  0
    7.4944    0.2628   17.9036 N   0  0  0  0  0  0  0  0  0  0  0  0
   11.4594    0.0440   25.0857 N   0  0  0  0  0  0  0  0  0  0  0  0
   10.9024   -1.3945   23.4857 N   0  0  0  0  0  0  0  0  0  0  0  0
    8.3586   -1.1836   21.1824 N   0  0  0  0  0  0  0  0  0  0  0  0
   10.5983   -0.8365   20.5667 O   0  0  0  0  0  0  0  0  0  0  0  0
    5.6616   -0.8339   26.3635 Cl  0  0  0  0  0  0  0  0  0  0  0  0
    8.6759   -1.9140   26.3066 Cl  0  0  0  0  0  0  0  0  0  0  0  0
  1  2  2  0
  1  5  1  0
  2  6  1  0
  3  4  2  0
  3  7  1  0
  4 11  1  0
  5 12  2  0
  6 13  2  0
  7 15  2  0
  8  9  2  0
  8 14  1  0
  9 20  1  0
 10 14  2  0
 10 21  1  0
 11 16  2  0
 11 17  1  0
 12 13  1  0
 12 22  1  0
 13 23  1  0
 14 24  1  0
 15 16  1  0
 15 26  1  0
 16 27  1  0
 17 22  2  0
 17 23  1  0
 18 19  1  0
 18 24  1  0
 18 25  2  0
 19 23  1  0
 20 21  2  0
M  END
