BAR-COM-4e090d3a-25
     RDKit          3D

 25 27  0  0  1  0  0  0  0  0999 V2000
    6.0899   -6.2838   21.7742 C   0  0  0  0  0  0  0  0  0  0  0  0
    7.4154   -6.7079   21.8681 C   0  0  0  0  0  0  0  0  0  0  0  0
    5.7453   -4.9843   22.1460 C   0  0  0  0  0  0  0  0  0  0  0  0
    8.3963   -5.8325   22.3339 C   0  0  0  0  0  0  0  0  0  0  0  0
    6.7263   -4.1089   22.6119 C   0  0  0  0  0  0  0  0  0  0  0  0
    7.4942   -1.9829   18.6964 C   0  0  0  0  0  0  0  0  0  0  0  0
    8.0518   -4.5330   22.7058 C   0  0  0  0  0  0  0  0  0  0  0  0
    7.4173   -0.7495   19.3583 C   0  0  0  0  0  0  0  0  0  0  0  0
   11.6485   -3.0111   25.3036 C   0  0  0  0  0  0  0  0  0  0  0  0
    9.2212   -1.7182   21.5745 C   0  0  0  0  0  0  0  0  0  0  0  0
   13.7053   -0.1495   25.3084 C   0  0  0  0  0  0  0  0  0  0  0  0
   13.9149   -1.6683   25.1639 C   0  0  0  0  0  0  0  0  0  0  0  0
   12.1909   -0.4297   25.3028 C   0  0  0  0  0  0  0  0  0  0  0  0
   12.5182   -1.8584   25.8116 C   0  0  0  0  0  0  0  0  0  0  0  0
    8.5251    0.0878   19.9433 C   0  0  0  0  0  0  0  0  0  0  0  0
    8.7938   -0.2713   21.4035 C   0  0  0  0  0  0  0  0  0  0  0  0
    9.3105   -3.6397   24.7369 C   0  0  0  0  0  0  0  0  0  0  0  0
    9.1195   -3.5793   23.2133 C   0  0  0  0  0  0  0  0  0  0  0  0
    6.2709   -2.3809   18.3363 N   0  0  0  0  0  0  0  0  0  0  0  0
    6.1443   -0.3497   19.4247 N   0  0  0  0  0  0  0  0  0  0  0  0
    5.5257   -1.3648   18.8004 N   0  0  0  0  0  0  0  0  0  0  0  0
   10.3027   -2.7028   25.1958 N   0  0  0  0  0  0  0  0  0  0  0  0
    8.8311   -2.2242   22.8059 N   0  0  0  0  0  0  0  0  0  0  0  0
   12.1691   -4.0871   25.0334 O   0  0  0  0  0  0  0  0  0  0  0  0
    9.8373   -2.3451   20.7168 O   0  0  0  0  0  0  0  0  0  0  0  0
  1  2  2  0
  1  3  1  0
  2  4  1  0
  3  5  2  0
  4  7  2  0
  5  7  1  0
  6  8  1  0
  6 19  2  0
  7 18  1  0
  8 15  1  0
  8 20  2  0
  9 14  1  0
  9 22  1  0
  9 24  2  0
 10 16  1  0
 10 23  1  0
 10 25  2  0
 11 12  1  0
 11 13  1  0
 12 14  1  0
 13 14  1  0
 15 16  1  0
 17 18  1  0
 17 22  1  0
 18 23  1  0
 19 21  1  0
 20 21  1  0
M  END
