BAR-COM-21d20d65-1
     RDKit          3D

 24 26  0  0  1  0  0  0  0  0999 V2000
   14.5663   -0.3988   21.9016 C   0  0  0  0  0  0  0  0  0  0  0  0
    9.7099    7.4937   24.7806 C   0  0  0  0  0  0  0  0  0  0  0  0
   13.7305   -1.4436   22.2955 C   0  0  0  0  0  0  0  0  0  0  0  0
   14.1961    0.9227   22.1513 C   0  0  0  0  0  0  0  0  0  0  0  0
   10.6816    6.6613   24.2364 C   0  0  0  0  0  0  0  0  0  0  0  0
   12.1539    0.1544   23.1888 C   0  0  0  0  0  0  0  0  0  0  0  0
    8.5900    6.9022   25.3426 C   0  0  0  0  0  0  0  0  0  0  0  0
    9.3508    4.7899   24.8552 C   0  0  0  0  0  0  0  0  0  0  0  0
   12.5242   -1.1671   22.9391 C   0  0  0  0  0  0  0  0  0  0  0  0
   12.9898    1.1992   22.7949 C   0  0  0  0  0  0  0  0  0  0  0  0
   10.5063    5.2824   24.2702 C   0  0  0  0  0  0  0  0  0  0  0  0
   11.4502    3.0069   23.6785 C   0  0  0  0  0  0  0  0  0  0  0  0
    8.2304    0.6515   22.1481 C   0  0  0  0  0  0  0  0  0  0  0  0
    7.7388   -0.0586   20.9185 C   0  0  0  0  0  0  0  0  0  0  0  0
    8.2338   -0.8571   22.0999 C   0  0  0  0  0  0  0  0  0  0  0  0
   11.6209   -2.2970   23.3647 C   0  0  0  0  0  0  0  0  0  0  0  0
   10.1297   -1.9304   23.3677 C   0  0  0  0  0  0  0  0  0  0  0  0
    9.5698   -1.5799   21.9835 C   0  0  0  0  0  0  0  0  0  0  0  0
    8.3847    5.5670   25.3941 N   0  0  0  0  0  0  0  0  0  0  0  0
   12.6201    2.5211   23.0451 N   0  0  0  0  0  0  0  0  0  0  0  0
   11.4773    4.4100   23.7244 N   0  0  0  0  0  0  0  0  0  0  0  0
    7.1987   -1.5374   22.9067 N   0  0  0  0  0  0  0  0  0  0  0  0
   10.5499    2.2998   24.1198 O   0  0  0  0  0  0  0  0  0  0  0  0
    9.3813   -2.7781   21.2365 O   0  0  0  0  0  0  0  0  0  0  0  0
  1  3  2  0
  1  4  1  0
  2  5  2  0
  2  7  1  0
  3  9  1  0
  4 10  2  0
  5 11  1  0
  6  9  2  0
  6 10  1  0
  7 19  2  0
  8 11  2  0
  8 19  1  0
  9 16  1  0
 10 20  1  0
 11 21  1  0
 12 20  1  0
 12 21  1  0
 12 23  2  0
 13 14  1  0
 13 15  1  0
 14 15  1  0
 15 18  1  0
 15 22  1  0
 16 17  1  0
 17 18  1  0
 18 24  1  0
M  CHG  1  22   1
M  END
