BAR-COM-4e090d3a-33
     RDKit          3D

 27 30  0  0  1  0  0  0  0  0999 V2000
   14.4079   -1.1256   22.9351 C   0  0  0  0  0  0  0  0  0  0  0  0
   14.0099    0.1694   23.2749 C   0  0  0  0  0  0  0  0  0  0  0  0
   13.4631   -2.1313   22.6953 C   0  0  0  0  0  0  0  0  0  0  0  0
   12.6571    0.5069   23.3874 C   0  0  0  0  0  0  0  0  0  0  0  0
   12.9343    4.8007   23.7658 C   0  0  0  0  0  0  0  0  0  0  0  0
   12.3178    5.1296   21.4645 C   0  0  0  0  0  0  0  0  0  0  0  0
   14.2436    4.6513   23.3376 C   0  0  0  0  0  0  0  0  0  0  0  0
   13.6547    4.9657   21.1393 C   0  0  0  0  0  0  0  0  0  0  0  0
   11.9591    5.0442   22.8051 C   0  0  0  0  0  0  0  0  0  0  0  0
   12.0995   -1.8098   22.8040 C   0  0  0  0  0  0  0  0  0  0  0  0
   11.7338   -0.5105   23.1442 C   0  0  0  0  0  0  0  0  0  0  0  0
    9.9647   -1.8050   22.8461 C   0  0  0  0  0  0  0  0  0  0  0  0
    9.7015    1.7667   22.5370 C   0  0  0  0  0  0  0  0  0  0  0  0
    8.2718    5.0375   22.5056 C   0  0  0  0  0  0  0  0  0  0  0  0
    8.7758    6.4412   22.2500 C   0  0  0  0  0  0  0  0  0  0  0  0
   10.5176    5.2142   23.2155 C   0  0  0  0  0  0  0  0  0  0  0  0
    9.5624    4.2501   22.5125 C   0  0  0  0  0  0  0  0  0  0  0  0
    6.1185   -2.8498   23.8818 C   0  0  0  0  0  0  0  0  0  0  0  0
    8.5393   -2.1877   22.7786 C   0  0  0  0  0  0  0  0  0  0  0  0
    9.4894    0.5927   23.4687 C   0  0  0  0  0  0  0  0  0  0  0  0
   14.6302    4.7278   22.0444 N   0  0  0  0  0  0  0  0  0  0  0  0
   10.9873   -2.5995   22.6226 N   0  0  0  0  0  0  0  0  0  0  0  0
   10.3629   -0.5363   23.1638 N   0  0  0  0  0  0  0  0  0  0  0  0
    9.4415    2.9802   23.1691 N   0  0  0  0  0  0  0  0  0  0  0  0
   10.0572    1.6471   21.3676 O   0  0  0  0  0  0  0  0  0  0  0  0
   10.0483    6.5446   22.9049 O   0  0  0  0  0  0  0  0  0  0  0  0
    7.7835   -2.4075   24.4242 S   0  0  0  0  0  0  0  0  0  0  0  0
  1  2  2  0
  1  3  1  0
  2  4  1  0
  3 10  2  0
  4 11  2  0
  5  7  2  0
  5  9  1  0
  6  8  1  0
  6  9  2  0
  7 21  1  0
  8 21  2  0
  9 16  1  0
 10 11  1  0
 10 22  1  0
 11 23  1  0
 12 19  1  0
 12 22  2  0
 12 23  1  0
 13 20  1  0
 13 24  1  0
 13 25  2  0
 14 15  1  0
 14 17  1  0
 15 26  1  0
 16 17  1  0
 16 26  1  0
 17 24  1  0
 18 27  1  0
 19 27  1  0
 20 23  1  0
M  END
