BEN-VAN-5787f7d3-3
     RDKit          3D

 23 25  0  0  0  0  0  0  0  0999 V2000
    7.9259   -0.4563   19.0000 C   0  0  0  0  0  0  0  0  0  0  0  0
    6.3869    0.9046   17.9717 C   0  0  0  0  0  0  0  0  0  0  0  0
    7.3356   -0.2771   20.2407 C   0  0  0  0  0  0  0  0  0  0  0  0
    6.2143    0.5416   20.3158 C   0  0  0  0  0  0  0  0  0  0  0  0
    5.7244    1.1475   19.1641 C   0  0  0  0  0  0  0  0  0  0  0  0
    7.4830   -2.2724   21.8394 C   0  0  0  0  0  0  0  0  0  0  0  0
    8.0044   -2.8717   22.9148 C   0  0  0  0  0  0  0  0  0  0  0  0
    7.9059   -0.9498   21.4227 C   0  0  0  0  0  0  0  0  0  0  0  0
    8.8465   -0.3190   22.1514 C   0  0  0  0  0  0  0  0  0  0  0  0
    9.0477   -2.1791   23.7217 C   0  0  0  0  0  0  0  0  0  0  0  0
   12.0981   -1.7032   22.9341 C   0  0  0  0  0  0  0  0  0  0  0  0
   13.6065   -1.7634   22.8757 C   0  0  0  0  0  0  0  0  0  0  0  0
   14.0387   -0.9380   24.0816 C   0  0  0  0  0  0  0  0  0  0  0  0
   12.9257    0.0777   24.2453 C   0  0  0  0  0  0  0  0  0  0  0  0
    5.5392    0.7670   21.6337 C   0  0  0  0  0  0  0  0  0  0  0  0
   10.4246   -0.1393   23.9940 C   0  0  0  0  0  0  0  0  0  0  0  0
    7.4789    0.1155   17.8595 N   0  0  0  0  0  0  0  0  0  0  0  0
    9.4137   -0.9054   23.2747 N   0  0  0  0  0  0  0  0  0  0  0  0
   11.7655   -0.6251   23.7511 N   0  0  0  0  0  0  0  0  0  0  0  0
    9.5119   -2.7522   24.7061 O   0  0  0  0  0  0  0  0  0  0  0  0
   11.3480   -2.4509   22.3248 O   0  0  0  0  0  0  0  0  0  0  0  0
    9.2495    0.9221   21.7870 F   0  0  0  0  0  0  0  0  0  0  0  0
    4.3434    2.1737   19.1760 Cl  0  0  0  0  0  0  0  0  0  0  0  0
  1  3  2  0
  1 17  1  0
  2  5  1  0
  2 17  2  0
  3  4  1  0
  3  8  1  0
  4  5  2  0
  4 15  1  0
  5 23  1  0
  6  7  2  0
  6  8  1  0
  7 10  1  0
  8  9  2  0
  9 18  1  0
  9 22  1  0
 10 18  1  0
 10 20  2  0
 11 12  1  0
 11 19  1  0
 11 21  2  0
 12 13  1  0
 13 14  1  0
 14 19  1  0
 16 18  1  0
 16 19  1  0
M  END
