BEN-VAN-5787f7d3-6
     RDKit          3D

 27 30  0  0  0  0  0  0  0  0999 V2000
    5.1329    1.3346   19.1361 C   0  0  0  0  0  0  0  0  0  0  0  0
    7.5741   -3.1851   23.5632 C   0  0  0  0  0  0  0  0  0  0  0  0
    9.9193   -3.0893   24.1358 C   0  0  0  0  0  0  0  0  0  0  0  0
    8.6054   -5.0235   24.7436 C   0  0  0  0  0  0  0  0  0  0  0  0
    5.6261    0.9561   17.8978 C   0  0  0  0  0  0  0  0  0  0  0  0
    7.6028    0.2219   18.8098 C   0  0  0  0  0  0  0  0  0  0  0  0
    7.2023    0.5662   20.0908 C   0  0  0  0  0  0  0  0  0  0  0  0
    5.9423    1.1325   20.2484 C   0  0  0  0  0  0  0  0  0  0  0  0
    8.7938   -2.5084   23.5515 C   0  0  0  0  0  0  0  0  0  0  0  0
    7.4799   -4.4426   24.1593 C   0  0  0  0  0  0  0  0  0  0  0  0
    9.8251   -4.3468   24.7319 C   0  0  0  0  0  0  0  0  0  0  0  0
    9.0667    1.3050   21.6883 C   0  0  0  0  0  0  0  0  0  0  0  0
    9.8832    1.0508   22.7130 C   0  0  0  0  0  0  0  0  0  0  0  0
    8.0653   -0.8653   21.8548 C   0  0  0  0  0  0  0  0  0  0  0  0
    8.1082    0.3260   21.2318 C   0  0  0  0  0  0  0  0  0  0  0  0
    9.8146   -0.2528   23.4347 C   0  0  0  0  0  0  0  0  0  0  0  0
    5.5137   -5.5501   25.3097 C   0  0  0  0  0  0  0  0  0  0  0  0
    4.3128   -6.3279   24.8211 C   0  0  0  0  0  0  0  0  0  0  0  0
    4.1585   -5.8689   23.3850 C   0  0  0  0  0  0  0  0  0  0  0  0
    5.5809   -5.5776   22.9547 C   0  0  0  0  0  0  0  0  0  0  0  0
    5.4288    1.5336   21.5932 C   0  0  0  0  0  0  0  0  0  0  0  0
    6.8446    0.4031   17.7053 N   0  0  0  0  0  0  0  0  0  0  0  0
    8.8918   -1.2011   22.9310 N   0  0  0  0  0  0  0  0  0  0  0  0
    6.2326   -5.1342   24.1719 N   0  0  0  0  0  0  0  0  0  0  0  0
   10.5313   -0.3766   24.4279 O   0  0  0  0  0  0  0  0  0  0  0  0
    5.7681   -5.4104   26.4971 O   0  0  0  0  0  0  0  0  0  0  0  0
   11.2138   -5.0636   25.4530 Cl  0  0  0  0  0  0  0  0  0  0  0  0
  1  5  2  0
  1  8  1  0
  2  9  2  0
  2 10  1  0
  3  9  1  0
  3 11  2  0
  4 10  2  0
  4 11  1  0
  5 22  1  0
  6  7  1  0
  6 22  2  0
  7  8  2  0
  7 15  1  0
  8 21  1  0
  9 23  1  0
 10 24  1  0
 11 27  1  0
 12 13  2  0
 12 15  1  0
 13 16  1  0
 14 15  2  0
 14 23  1  0
 16 23  1  0
 16 25  2  0
 17 18  1  0
 17 24  1  0
 17 26  2  0
 18 19  1  0
 19 20  1  0
 20 24  1  0
M  END
