BEN-BAS-2a7c309d-1
     RDKit          3D

 27 29  0  0  0  0  0  0  0  0999 V2000
    7.7513   -4.1954   25.0981 C   0  0  0  0  0  0  0  0  0  0  0  0
    7.6474   -4.0791   23.7120 C   0  0  0  0  0  0  0  0  0  0  0  0
    8.7798   -3.5426   25.7776 C   0  0  0  0  0  0  0  0  0  0  0  0
    8.5720   -3.3100   23.0054 C   0  0  0  0  0  0  0  0  0  0  0  0
    9.7044   -2.7735   25.0710 C   0  0  0  0  0  0  0  0  0  0  0  0
    6.9134    0.4390   20.9473 C   0  0  0  0  0  0  0  0  0  0  0  0
    8.4464   -0.4094   19.3390 C   0  0  0  0  0  0  0  0  0  0  0  0
    6.6828    0.8760   18.6209 C   0  0  0  0  0  0  0  0  0  0  0  0
    9.6005   -2.6572   23.6849 C   0  0  0  0  0  0  0  0  0  0  0  0
    8.0548   -0.3027   20.6638 C   0  0  0  0  0  0  0  0  0  0  0  0
    6.2084    1.0428   19.9120 C   0  0  0  0  0  0  0  0  0  0  0  0
   10.1679   -1.1947   21.7247 C   0  0  0  0  0  0  0  0  0  0  0  0
   14.6256   -0.5247   23.3641 C   0  0  0  0  0  0  0  0  0  0  0  0
   14.3731   -2.0050   23.0925 C   0  0  0  0  0  0  0  0  0  0  0  0
   13.5715    0.0645   24.2972 C   0  0  0  0  0  0  0  0  0  0  0  0
   12.9594   -2.2484   22.5667 C   0  0  0  0  0  0  0  0  0  0  0  0
   12.1571   -0.1759   23.7723 C   0  0  0  0  0  0  0  0  0  0  0  0
   11.9038   -1.6649   23.5125 C   0  0  0  0  0  0  0  0  0  0  0  0
    5.9287    3.9381   21.7778 C   0  0  0  0  0  0  0  0  0  0  0  0
    7.7874    0.1629   18.3066 N   0  0  0  0  0  0  0  0  0  0  0  0
    8.7929   -0.9304   21.6963 N   0  0  0  0  0  0  0  0  0  0  0  0
    5.3974    3.5517   20.4628 N   0  0  0  0  0  0  0  0  0  0  0  0
   10.5704   -1.8502   22.9433 N   0  0  0  0  0  0  0  0  0  0  0  0
   10.9417   -0.8981   20.8130 O   0  0  0  0  0  0  0  0  0  0  0  0
    3.9392    1.9833   19.0310 O   0  0  0  0  0  0  0  0  0  0  0  0
    4.2032    1.5128   21.4873 O   0  0  0  0  0  0  0  0  0  0  0  0
    4.7738    1.9766   20.2277 S   0  0  0  0  0  0  0  0  0  0  0  0
  1  2  2  0
  1  3  1  0
  2  4  1  0
  3  5  2  0
  4  9  2  0
  5  9  1  0
  6 10  2  0
  6 11  1  0
  7 10  1  0
  7 20  2  0
  8 11  2  0
  8 20  1  0
  9 23  1  0
 10 21  1  0
 11 27  1  0
 12 21  1  0
 12 23  1  0
 12 24  2  0
 13 14  1  0
 13 15  1  0
 14 16  1  0
 15 17  1  0
 16 18  1  0
 17 18  1  0
 18 23  1  0
 19 22  1  0
 22 27  1  0
 25 27  2  0
 26 27  2  0
M  END
