BEN-DND-362d364a-3
     RDKit          3D

 33 35  0  0  1  0  0  0  0  0999 V2000
   14.2019   -3.8925   25.2248 C   0  0  0  0  0  0  0  0  0  0  0  0
    4.1102   -5.8563   23.7494 C   0  0  0  0  0  0  0  0  0  0  0  0
    5.3609   -5.9318   23.1365 C   0  0  0  0  0  0  0  0  0  0  0  0
    3.9609   -5.1542   24.9454 C   0  0  0  0  0  0  0  0  0  0  0  0
   12.0486   -2.7496   25.4962 C   0  0  0  0  0  0  0  0  0  0  0  0
    6.3130   -4.6034   24.9157 C   0  0  0  0  0  0  0  0  0  0  0  0
   13.9792   -1.4703   24.9551 C   0  0  0  0  0  0  0  0  0  0  0  0
   13.4117   -2.7050   25.2257 C   0  0  0  0  0  0  0  0  0  0  0  0
   11.3051   -1.5747   25.4881 C   0  0  0  0  0  0  0  0  0  0  0  0
    6.4623   -5.3054   23.7196 C   0  0  0  0  0  0  0  0  0  0  0  0
    5.0623   -4.5278   25.5286 C   0  0  0  0  0  0  0  0  0  0  0  0
   11.9669   -0.3905   25.2059 C   0  0  0  0  0  0  0  0  0  0  0  0
    6.5100   -0.4743   20.2211 C   0  0  0  0  0  0  0  0  0  0  0  0
    7.0501   -2.9364   19.9091 C   0  0  0  0  0  0  0  0  0  0  0  0
    6.8438   -4.0246   20.9538 C   0  0  0  0  0  0  0  0  0  0  0  0
    8.2738   -1.5780   21.5615 C   0  0  0  0  0  0  0  0  0  0  0  0
    8.0813   -2.6658   22.6294 C   0  0  0  0  0  0  0  0  0  0  0  0
    5.4906   -0.5974   19.1167 C   0  0  0  0  0  0  0  0  0  0  0  0
   11.9661    2.2861   23.4510 C   0  0  0  0  0  0  0  0  0  0  0  0
    9.8257   -1.6267   25.7811 C   0  0  0  0  0  0  0  0  0  0  0  0
   11.7950    2.0820   24.9179 C   0  0  0  0  0  0  0  0  0  0  0  0
    8.9652   -1.4901   24.5274 C   0  0  0  0  0  0  0  0  0  0  0  0
   14.8449   -4.8587   25.2241 N   0  0  0  0  0  0  0  0  0  0  0  0
   13.2894   -0.3077   24.9382 N   0  0  0  0  0  0  0  0  0  0  0  0
    7.2176   -1.6302   20.5497 N   0  0  0  0  0  0  0  0  0  0  0  0
    7.9651   -4.0032   21.9443 N   0  0  0  0  0  0  0  0  0  0  0  0
   11.2130    0.8097   25.1960 N   0  0  0  0  0  0  0  0  0  0  0  0
    9.1999   -2.5590   23.5703 N   0  0  0  0  0  0  0  0  0  0  0  0
    6.6686    0.6163   20.7757 O   0  0  0  0  0  0  0  0  0  0  0  0
    9.0513   -5.1898   23.9590 O   0  0  0  0  0  0  0  0  0  0  0  0
    8.0610   -6.5731   22.1006 O   0  0  0  0  0  0  0  0  0  0  0  0
    8.0442   -5.4002   22.9444 S   0  0  0  0  0  0  0  0  0  0  0  0
    4.8779   -3.6631   27.0050 Cl  0  0  0  0  0  0  0  0  0  0  0  0
  1  8  1  0
  1 23  3  0
  2  3  2  0
  2  4  1  0
  3 10  1  0
  4 11  2  0
  5  8  2  0
  5  9  1  0
  6 10  2  0
  6 11  1  0
  7  8  1  0
  7 24  2  0
  9 12  2  0
  9 20  1  0
 10 32  1  0
 11 33  1  0
 12 24  1  0
 12 27  1  0
 13 18  1  0
 13 25  1  0
 13 29  2  0
 14 15  1  0
 14 25  1  0
 15 26  1  0
 16 17  1  0
 16 25  1  0
 17 26  1  0
 17 28  1  0
 19 21  1  0
 20 22  1  0
 21 27  1  0
 22 28  1  0
 26 32  1  0
 30 32  2  0
 31 32  2  0
M  END
