BEN-VAN-c986b20b-6
     RDKit          3D

 27 29  0  0  0  0  0  0  0  0999 V2000
    9.4491   -3.5934   22.9171 C   0  0  0  0  0  0  0  0  0  0  0  0
    9.7433   -1.6252   24.2869 C   0  0  0  0  0  0  0  0  0  0  0  0
    6.5944   -3.5561   26.6940 C   0  0  0  0  0  0  0  0  0  0  0  0
    7.5691   -5.8507   27.6914 C   0  0  0  0  0  0  0  0  0  0  0  0
    8.5072   -3.5173   25.1407 C   0  0  0  0  0  0  0  0  0  0  0  0
    9.9591   -2.3067   23.0891 C   0  0  0  0  0  0  0  0  0  0  0  0
    8.7231   -4.1988   23.9429 C   0  0  0  0  0  0  0  0  0  0  0  0
    9.0173   -2.2305   25.3127 C   0  0  0  0  0  0  0  0  0  0  0  0
    7.7535   -4.1320   26.2152 C   0  0  0  0  0  0  0  0  0  0  0  0
    5.9689   -4.2364   27.7187 C   0  0  0  0  0  0  0  0  0  0  0  0
    6.8410    2.1818   21.1105 C   0  0  0  0  0  0  0  0  0  0  0  0
    9.2815    1.7779   21.1527 C   0  0  0  0  0  0  0  0  0  0  0  0
    7.8384    0.0430   20.1625 C   0  0  0  0  0  0  0  0  0  0  0  0
   10.0031    0.7303   21.9877 C   0  0  0  0  0  0  0  0  0  0  0  0
    8.5399   -1.0318   20.9818 C   0  0  0  0  0  0  0  0  0  0  0  0
    4.7107   -3.6891   28.3047 C   0  0  0  0  0  0  0  0  0  0  0  0
    5.4730    1.6608   20.7487 C   0  0  0  0  0  0  0  0  0  0  0  0
    6.3821   -6.7722   22.9983 C   0  0  0  0  0  0  0  0  0  0  0  0
   10.7397   -1.6557   21.9855 C   0  0  0  0  0  0  0  0  0  0  0  0
    7.3298   -5.6401   22.6635 C   0  0  0  0  0  0  0  0  0  0  0  0
    8.2713   -5.2828   26.6924 N   0  0  0  0  0  0  0  0  0  0  0  0
    6.4301   -5.3907   28.2434 N   0  0  0  0  0  0  0  0  0  0  0  0
    7.9215    1.3470   20.8291 N   0  0  0  0  0  0  0  0  0  0  0  0
    9.9608   -0.5948   21.2599 N   0  0  0  0  0  0  0  0  0  0  0  0
    6.9439    3.2962   21.6297 O   0  0  0  0  0  0  0  0  0  0  0  0
    8.2371   -5.4582   23.7477 O   0  0  0  0  0  0  0  0  0  0  0  0
    8.8194   -1.5611   26.4579 F   0  0  0  0  0  0  0  0  0  0  0  0
  1  6  2  0
  1  7  1  0
  2  6  1  0
  2  8  2  0
  3  9  2  0
  3 10  1  0
  4 21  2  0
  4 22  1  0
  5  7  2  0
  5  8  1  0
  5  9  1  0
  6 19  1  0
  7 26  1  0
  8 27  1  0
  9 21  1  0
 10 16  1  0
 10 22  2  0
 11 17  1  0
 11 23  1  0
 11 25  2  0
 12 14  1  0
 12 23  1  0
 13 15  1  0
 13 23  1  0
 14 24  1  0
 15 24  1  0
 18 20  1  0
 19 24  1  0
 20 26  1  0
M  CHG  1  24   1
M  END
