BEN-DND-362d364a-9
     RDKit          3D

 21 22  0  0  0  0  0  0  0  0999 V2000
    7.3434   -1.1674   23.9993 C   0  0  0  0  0  0  0  0  0  0  0  0
    6.5645   -0.6798   21.5580 C   0  0  0  0  0  0  0  0  0  0  0  0
    9.6502   -1.9177   24.1146 C   0  0  0  0  0  0  0  0  0  0  0  0
    7.4551   -1.0666   22.5983 C   0  0  0  0  0  0  0  0  0  0  0  0
    9.7845   -1.8254   22.7263 C   0  0  0  0  0  0  0  0  0  0  0  0
    8.6706   -1.3973   21.9953 C   0  0  0  0  0  0  0  0  0  0  0  0
    8.4494   -1.5943   24.7433 C   0  0  0  0  0  0  0  0  0  0  0  0
    7.2440   -0.7809   20.3659 C   0  0  0  0  0  0  0  0  0  0  0  0
   14.4987    0.7139   23.3162 C   0  0  0  0  0  0  0  0  0  0  0  0
   11.0846   -2.1798   22.0853 C   0  0  0  0  0  0  0  0  0  0  0  0
   12.2648   -1.3409   22.5900 C   0  0  0  0  0  0  0  0  0  0  0  0
    8.5133   -1.2146   20.6399 N   0  0  0  0  0  0  0  0  0  0  0  0
    6.1491   -1.9932   18.2596 N   0  0  0  0  0  0  0  0  0  0  0  0
   12.0702    0.0666   22.3667 N   0  0  0  0  0  0  0  0  0  0  0  0
    5.6470    0.4875   18.7491 O   0  0  0  0  0  0  0  0  0  0  0  0
    7.9379   -0.1686   17.9312 O   0  0  0  0  0  0  0  0  0  0  0  0
   12.3428    0.9804   24.7761 O   0  0  0  0  0  0  0  0  0  0  0  0
   12.7035    2.5434   22.8310 O   0  0  0  0  0  0  0  0  0  0  0  0
    6.7447   -0.4583   18.7021 S   0  0  0  0  0  0  0  0  0  0  0  0
   12.7978    1.2218   23.4209 S   0  0  0  0  0  0  0  0  0  0  0  0
    8.3211   -1.7201   26.4571 Cl  0  0  0  0  0  0  0  0  0  0  0  0
  1  4  2  0
  1  7  1  0
  2  4  1  0
  2  8  2  0
  3  5  1  0
  3  7  2  0
  4  6  1  0
  5  6  2  0
  5 10  1  0
  6 12  1  0
  7 21  1  0
  8 12  1  0
  8 19  1  0
  9 20  1  0
 10 11  1  0
 11 14  1  0
 13 19  1  0
 14 20  1  0
 15 19  2  0
 16 19  2  0
 17 20  2  0
 18 20  2  0
M  END
