BEN-VAN-ed886787-6
     RDKit          3D

 30 32  0  0  0  0  0  0  0  0999 V2000
    8.1132   -5.0305   26.7116 C   0  0  0  0  0  0  0  0  0  0  0  0
   10.2942    6.2034   21.8426 C   0  0  0  0  0  0  0  0  0  0  0  0
    8.9185    6.0543   21.9789 C   0  0  0  0  0  0  0  0  0  0  0  0
    7.1738   -5.8108   27.3765 C   0  0  0  0  0  0  0  0  0  0  0  0
   10.6283    1.2680   23.9391 C   0  0  0  0  0  0  0  0  0  0  0  0
   12.7985    1.8518   23.0524 C   0  0  0  0  0  0  0  0  0  0  0  0
   11.9268   -0.3798   22.7408 C   0  0  0  0  0  0  0  0  0  0  0  0
    6.5511   -4.7521   24.9399 C   0  0  0  0  0  0  0  0  0  0  0  0
   11.6423    2.2064   23.7474 C   0  0  0  0  0  0  0  0  0  0  0  0
    7.8037   -4.4874   25.4696 C   0  0  0  0  0  0  0  0  0  0  0  0
   10.7706   -0.0252   23.4358 C   0  0  0  0  0  0  0  0  0  0  0  0
   11.1519    5.4037   22.5897 C   0  0  0  0  0  0  0  0  0  0  0  0
   12.9408    0.5587   22.5491 C   0  0  0  0  0  0  0  0  0  0  0  0
   10.5883    4.4772   23.4521 C   0  0  0  0  0  0  0  0  0  0  0  0
    8.4549    5.0985   22.8685 C   0  0  0  0  0  0  0  0  0  0  0  0
    5.9493   -6.0161   26.7615 C   0  0  0  0  0  0  0  0  0  0  0  0
    8.5742   -3.0811   23.5272 C   0  0  0  0  0  0  0  0  0  0  0  0
    4.7189    5.4030   22.5973 C   0  0  0  0  0  0  0  0  0  0  0  0
   11.4903    3.5889   24.2853 C   0  0  0  0  0  0  0  0  0  0  0  0
    9.8250   -2.3153   23.1413 C   0  0  0  0  0  0  0  0  0  0  0  0
    6.1269    5.7570   22.2581 C   0  0  0  0  0  0  0  0  0  0  0  0
    5.6125   -5.5052   25.5560 N   0  0  0  0  0  0  0  0  0  0  0  0
    9.2571    4.3034   23.6113 N   0  0  0  0  0  0  0  0  0  0  0  0
    8.7388   -3.6889   24.7690 N   0  0  0  0  0  0  0  0  0  0  0  0
    9.7447   -0.9737   23.6299 N   0  0  0  0  0  0  0  0  0  0  0  0
    7.0504    4.9605   22.9982 N   0  0  0  0  0  0  0  0  0  0  0  0
    7.5806   -3.1153   22.8083 O   0  0  0  0  0  0  0  0  0  0  0  0
   12.4790    5.5349   22.4730 F   0  0  0  0  0  0  0  0  0  0  0  0
    5.0326   -6.7666   27.3920 F   0  0  0  0  0  0  0  0  0  0  0  0
   14.3671    0.1203   21.6913 Cl  0  0  0  0  0  0  0  0  0  0  0  0
  1  4  2  0
  1 10  1  0
  2  3  2  0
  2 12  1  0
  3 15  1  0
  4 16  1  0
  5  9  2  0
  5 11  1  0
  6  9  1  0
  6 13  2  0
  7 11  2  0
  7 13  1  0
  8 10  2  0
  8 22  1  0
  9 19  1  0
 10 24  1  0
 11 25  1  0
 12 14  2  0
 12 28  1  0
 13 30  1  0
 14 19  1  0
 14 23  1  0
 15 23  2  0
 15 26  1  0
 16 22  2  0
 16 29  1  0
 17 20  1  0
 17 24  1  0
 17 27  2  0
 18 21  1  0
 20 25  1  0
 21 26  1  0
M  END
