BEN-VAN-d8fd1356-29
     RDKit          3D

 25 27  0  0  0  0  0  0  0  0999 V2000
   12.5649    0.3495   23.0826 C   0  0  0  0  0  0  0  0  0  0  0  0
   11.5873    2.9436   23.4780 C   0  0  0  0  0  0  0  0  0  0  0  0
   10.8355    4.0913   23.8556 C   0  0  0  0  0  0  0  0  0  0  0  0
   10.9233    1.8299   23.9964 C   0  0  0  0  0  0  0  0  0  0  0  0
   11.3872    0.5221   23.8155 C   0  0  0  0  0  0  0  0  0  0  0  0
   13.2486    1.4424   22.5535 C   0  0  0  0  0  0  0  0  0  0  0  0
   12.7727    2.7450   22.7426 C   0  0  0  0  0  0  0  0  0  0  0  0
    9.7496    3.6600   24.5822 C   0  0  0  0  0  0  0  0  0  0  0  0
    7.0976   -3.1380   22.2224 C   0  0  0  0  0  0  0  0  0  0  0  0
   10.3160   -1.5677   22.1830 C   0  0  0  0  0  0  0  0  0  0  0  0
   10.0515   -2.8879   24.3163 C   0  0  0  0  0  0  0  0  0  0  0  0
    8.8032   -1.3466   22.1653 C   0  0  0  0  0  0  0  0  0  0  0  0
    8.5437   -2.6377   24.2543 C   0  0  0  0  0  0  0  0  0  0  0  0
   10.8402   -1.7854   23.6040 C   0  0  0  0  0  0  0  0  0  0  0  0
    6.9130   -4.5765   22.6354 C   0  0  0  0  0  0  0  0  0  0  0  0
   11.8957    6.0666   25.9071 C   0  0  0  0  0  0  0  0  0  0  0  0
   11.1294    5.5076   23.5460 C   0  0  0  0  0  0  0  0  0  0  0  0
   12.2529    6.0837   24.4293 C   0  0  0  0  0  0  0  0  0  0  0  0
    9.8114    2.2947   24.6619 N   0  0  0  0  0  0  0  0  0  0  0  0
    8.1091   -2.4275   22.8679 N   0  0  0  0  0  0  0  0  0  0  0  0
    6.3654   -2.6626   21.3506 O   0  0  0  0  0  0  0  0  0  0  0  0
   10.7257   -0.5627   24.3281 O   0  0  0  0  0  0  0  0  0  0  0  0
   14.3746    1.2308   21.8561 F   0  0  0  0  0  0  0  0  0  0  0  0
   13.5864    4.1034   22.1088 Cl  0  0  0  0  0  0  0  0  0  0  0  0
    8.4571    4.4595   25.3307 Cl  0  0  0  0  0  0  0  0  0  0  0  0
  1  5  2  0
  1  6  1  0
  2  3  1  0
  2  4  2  0
  2  7  1  0
  3  8  2  0
  3 17  1  0
  4  5  1  0
  4 19  1  0
  5 22  1  0
  6  7  2  0
  6 23  1  0
  7 24  1  0
  8 19  1  0
  8 25  1  0
  9 15  1  0
  9 20  1  0
  9 21  2  0
 10 12  1  0
 10 14  1  0
 11 13  1  0
 11 14  1  0
 12 20  1  0
 13 20  1  0
 14 22  1  0
 16 18  1  0
 17 18  1  0
M  END
