BEN-VAN-77cef4f8-14
     RDKit          3D

 31 34  0  0  1  0  0  0  0  0999 V2000
    7.5654   -6.1167   26.9145 C   0  0  0  0  0  0  0  0  0  0  0  0
    9.1459   -5.7345   25.0797 C   0  0  0  0  0  0  0  0  0  0  0  0
    7.4967   -5.7340   21.6087 C   0  0  0  0  0  0  0  0  0  0  0  0
    6.7947   -6.7841   22.2004 C   0  0  0  0  0  0  0  0  0  0  0  0
    9.5480   -4.9866   23.9786 C   0  0  0  0  0  0  0  0  0  0  0  0
    5.4924   -4.3823   21.6173 C   0  0  0  0  0  0  0  0  0  0  0  0
    7.3030   -4.2548   25.3462 C   0  0  0  0  0  0  0  0  0  0  0  0
    8.0031   -5.3683   25.7820 C   0  0  0  0  0  0  0  0  0  0  0  0
    6.8451   -4.5365   21.3128 C   0  0  0  0  0  0  0  0  0  0  0  0
    5.4381   -6.6355   22.4899 C   0  0  0  0  0  0  0  0  0  0  0  0
    4.7911   -5.4287   22.2177 C   0  0  0  0  0  0  0  0  0  0  0  0
    8.7786   -3.8903   23.6235 C   0  0  0  0  0  0  0  0  0  0  0  0
    2.7845   -7.4668   28.0804 C   0  0  0  0  0  0  0  0  0  0  0  0
    2.1367   -5.1146   27.3738 C   0  0  0  0  0  0  0  0  0  0  0  0
    2.3922   -6.9090   25.7033 C   0  0  0  0  0  0  0  0  0  0  0  0
    2.8550   -4.1851   26.4048 C   0  0  0  0  0  0  0  0  0  0  0  0
    3.3820   -7.5999   22.9227 C   0  0  0  0  0  0  0  0  0  0  0  0
    3.1161   -5.9051   24.8058 C   0  0  0  0  0  0  0  0  0  0  0  0
    2.8830   -6.2201   23.3348 C   0  0  0  0  0  0  0  0  0  0  0  0
    3.4029   -6.9599   29.3588 C   0  0  0  0  0  0  0  0  0  0  0  0
    9.0286   -1.3263   20.9517 C   0  0  0  0  0  0  0  0  0  0  0  0
    7.5951   -3.4212   20.6655 C   0  0  0  0  0  0  0  0  0  0  0  0
    8.2581   -2.4400   21.6610 C   0  0  0  0  0  0  0  0  0  0  0  0
    7.2092   -6.7258   27.8359 N   0  0  0  0  0  0  0  0  0  0  0  0
    7.6626   -3.5037   24.2812 N   0  0  0  0  0  0  0  0  0  0  0  0
    2.4948   -6.5112   27.1077 N   0  0  0  0  0  0  0  0  0  0  0  0
    9.1889   -3.1611   22.5341 N   0  0  0  0  0  0  0  0  0  0  0  0
    2.5697   -8.6745   27.9498 O   0  0  0  0  0  0  0  0  0  0  0  0
    4.7999   -7.7039   23.0617 O   0  0  0  0  0  0  0  0  0  0  0  0
    3.4749   -5.2003   22.5190 O   0  0  0  0  0  0  0  0  0  0  0  0
    2.6205   -4.5846   25.0540 O   0  0  0  0  0  0  0  0  0  0  0  0
  1  8  1  0
  1 24  3  0
  2  5  2  0
  2  8  1  0
  3  4  2  0
  3  9  1  0
  4 10  1  0
  5 12  1  0
  6  9  2  0
  6 11  1  0
  7  8  2  0
  7 25  1  0
  9 22  1  0
 10 11  2  0
 10 29  1  0
 11 30  1  0
 12 25  2  0
 12 27  1  0
 13 20  1  0
 13 26  1  0
 13 28  2  0
 14 16  1  0
 14 26  1  0
 15 18  1  0
 15 26  1  0
 16 31  1  0
 17 19  1  0
 17 29  1  0
 18 19  1  0
 18 31  1  0
 19 30  1  0
 21 23  1  0
 22 23  1  0
 23 27  1  0
M  END
