BEN-DND-362d364a-10
     RDKit          3D

 23 24  0  0  1  0  0  0  0  0999 V2000
    5.5687    0.6222   19.2537 C   0  0  0  0  0  0  0  0  0  0  0  0
    6.5395    0.7589   20.2397 C   0  0  0  0  0  0  0  0  0  0  0  0
    5.9883    0.3226   17.9676 C   0  0  0  0  0  0  0  0  0  0  0  0
    8.1973    0.2957   18.5986 C   0  0  0  0  0  0  0  0  0  0  0  0
    7.8812    0.5942   19.9142 C   0  0  0  0  0  0  0  0  0  0  0  0
   10.2659    0.5927   20.7220 C   0  0  0  0  0  0  0  0  0  0  0  0
   13.7466   -0.7270   24.1070 C   0  0  0  0  0  0  0  0  0  0  0  0
   13.5832   -0.9128   22.6038 C   0  0  0  0  0  0  0  0  0  0  0  0
   12.6716    0.1947   24.6736 C   0  0  0  0  0  0  0  0  0  0  0  0
   12.1855   -1.3880   22.2393 C   0  0  0  0  0  0  0  0  0  0  0  0
   11.2484   -0.2388   24.3118 C   0  0  0  0  0  0  0  0  0  0  0  0
    6.9573   -3.7855   23.6851 C   0  0  0  0  0  0  0  0  0  0  0  0
   10.9881    0.8152   22.0315 C   0  0  0  0  0  0  0  0  0  0  0  0
   10.7940   -1.4937   25.0564 C   0  0  0  0  0  0  0  0  0  0  0  0
    9.2802   -1.6509   25.0658 C   0  0  0  0  0  0  0  0  0  0  0  0
    7.2822    0.1552   17.6134 N   0  0  0  0  0  0  0  0  0  0  0  0
    8.8918    0.7274   20.8958 N   0  0  0  0  0  0  0  0  0  0  0  0
    8.7325   -1.7694   23.7429 N   0  0  0  0  0  0  0  0  0  0  0  0
   11.1295   -0.4688   22.8113 N   0  0  0  0  0  0  0  0  0  0  0  0
   10.8665    0.3363   19.6837 O   0  0  0  0  0  0  0  0  0  0  0  0
    9.5341   -4.2270   23.5603 O   0  0  0  0  0  0  0  0  0  0  0  0
    8.3768   -3.1732   21.5838 O   0  0  0  0  0  0  0  0  0  0  0  0
    8.5391   -3.3231   23.0172 S   0  0  0  0  0  0  0  0  0  0  0  0
  1  2  2  0
  1  3  1  0
  2  5  1  0
  3 16  2  0
  4  5  2  0
  4 16  1  0
  5 17  1  0
  6 13  1  0
  6 17  1  0
  6 20  2  0
  7  8  1  0
  7  9  1  0
  8 10  1  0
  9 11  1  0
 10 19  1  0
 11 14  1  0
 11 19  1  0
 12 23  1  0
 13 19  1  0
 14 15  1  0
 15 18  1  0
 18 23  1  0
 21 23  2  0
 22 23  2  0
M  CHG  1  19   1
M  END
