BEN-VAN-5787f7d3-2
     RDKit          3D

 28 31  0  0  1  0  0  0  0  0999 V2000
    5.9133    0.6657   19.3135 C   0  0  0  0  0  0  0  0  0  0  0  0
   14.2471   -1.8555   22.5125 C   0  0  0  0  0  0  0  0  0  0  0  0
   13.7816   -1.5137   21.2647 C   0  0  0  0  0  0  0  0  0  0  0  0
    7.9846   -0.1167   20.2526 C   0  0  0  0  0  0  0  0  0  0  0  0
    6.6615    0.2769   20.4191 C   0  0  0  0  0  0  0  0  0  0  0  0
    6.5298    0.6436   18.0729 C   0  0  0  0  0  0  0  0  0  0  0  0
    8.5084   -0.1040   18.9699 C   0  0  0  0  0  0  0  0  0  0  0  0
   12.1633   -1.4991   22.7606 C   0  0  0  0  0  0  0  0  0  0  0  0
    8.8369   -1.9143   21.8568 C   0  0  0  0  0  0  0  0  0  0  0  0
    9.7756   -2.3200   22.7201 C   0  0  0  0  0  0  0  0  0  0  0  0
    9.4922    0.4268   22.0576 C   0  0  0  0  0  0  0  0  0  0  0  0
    8.7900   -0.5309   21.4176 C   0  0  0  0  0  0  0  0  0  0  0  0
    8.0384    2.5719   24.9294 C   0  0  0  0  0  0  0  0  0  0  0  0
    8.2232    4.0622   24.7644 C   0  0  0  0  0  0  0  0  0  0  0  0
    9.3145    4.1664   23.7058 C   0  0  0  0  0  0  0  0  0  0  0  0
   10.1410    2.9126   23.9104 C   0  0  0  0  0  0  0  0  0  0  0  0
   10.7516   -1.3326   23.3059 C   0  0  0  0  0  0  0  0  0  0  0  0
    5.8973    1.7071   22.3314 C   0  0  0  0  0  0  0  0  0  0  0  0
    6.0095    0.2958   21.7640 C   0  0  0  0  0  0  0  0  0  0  0  0
    9.4645    0.5440   24.4561 C   0  0  0  0  0  0  0  0  0  0  0  0
   13.2347   -1.8449   23.4392 N   0  0  0  0  0  0  0  0  0  0  0  0
    7.8127    0.2674   17.8718 N   0  0  0  0  0  0  0  0  0  0  0  0
   12.4452   -1.2888   21.4394 N   0  0  0  0  0  0  0  0  0  0  0  0
    9.1752    1.9607   24.4056 N   0  0  0  0  0  0  0  0  0  0  0  0
   10.2614    0.1304   23.2439 N   0  0  0  0  0  0  0  0  0  0  0  0
    7.0772    2.0458   25.4701 O   0  0  0  0  0  0  0  0  0  0  0  0
    5.6845    1.1069   16.6533 Cl  0  0  0  0  0  0  0  0  0  0  0  0
   10.1305   -0.5649   18.6136 Cl  0  0  0  0  0  0  0  0  0  0  0  0
  1  5  2  0
  1  6  1  0
  2  3  2  0
  2 21  1  0
  3 23  1  0
  4  5  1  0
  4  7  2  0
  4 12  1  0
  5 19  1  0
  6 22  2  0
  6 27  1  0
  7 22  1  0
  7 28  1  0
  8 17  1  0
  8 21  2  0
  8 23  1  0
  9 10  2  0
  9 12  1  0
 10 17  1  0
 11 12  2  0
 11 25  1  0
 13 14  1  0
 13 24  1  0
 13 26  2  0
 14 15  1  0
 15 16  1  0
 16 24  1  0
 17 25  1  0
 18 19  1  0
 20 24  1  0
 20 25  1  0
M  CHG  1  25   1
M  END
