BEN-VAN-77cef4f8-13
     RDKit          3D

 31 34  0  0  1  0  0  0  0  0999 V2000
   13.5272   -1.3628   20.8700 C   0  0  0  0  0  0  0  0  0  0  0  0
   13.9140   -0.0829   22.9250 C   0  0  0  0  0  0  0  0  0  0  0  0
   10.6930   -0.9681   25.1929 C   0  0  0  0  0  0  0  0  0  0  0  0
   10.4446   -2.2013   24.5905 C   0  0  0  0  0  0  0  0  0  0  0  0
   13.4616    0.8243   23.8766 C   0  0  0  0  0  0  0  0  0  0  0  0
    8.3738   -0.3521   24.9004 C   0  0  0  0  0  0  0  0  0  0  0  0
   11.8324    0.1420   21.7967 C   0  0  0  0  0  0  0  0  0  0  0  0
   13.0900   -0.4359   21.8621 C   0  0  0  0  0  0  0  0  0  0  0  0
    9.6578   -0.0467   25.3523 C   0  0  0  0  0  0  0  0  0  0  0  0
    9.1570   -2.5129   24.1532 C   0  0  0  0  0  0  0  0  0  0  0  0
    8.1259   -1.5816   24.2890 C   0  0  0  0  0  0  0  0  0  0  0  0
   12.1874    1.3459   23.7209 C   0  0  0  0  0  0  0  0  0  0  0  0
    6.4049    0.0427   19.1675 C   0  0  0  0  0  0  0  0  0  0  0  0
    6.1975   -2.4666   18.8333 C   0  0  0  0  0  0  0  0  0  0  0  0
    6.1180   -1.4834   21.0921 C   0  0  0  0  0  0  0  0  0  0  0  0
    7.0724   -3.5739   19.4055 C   0  0  0  0  0  0  0  0  0  0  0  0
    7.5915   -4.1078   23.5607 C   0  0  0  0  0  0  0  0  0  0  0  0
    7.0122   -2.6278   21.5699 C   0  0  0  0  0  0  0  0  0  0  0  0
    6.7233   -2.9765   23.0233 C   0  0  0  0  0  0  0  0  0  0  0  0
    7.1074    0.2055   17.8432 C   0  0  0  0  0  0  0  0  0  0  0  0
   10.1503    3.7820   25.6420 C   0  0  0  0  0  0  0  0  0  0  0  0
    9.9239    1.2648   26.0114 C   0  0  0  0  0  0  0  0  0  0  0  0
   10.3435    2.3912   25.0375 C   0  0  0  0  0  0  0  0  0  0  0  0
   13.8829   -2.1170   20.0629 N   0  0  0  0  0  0  0  0  0  0  0  0
   11.3582    1.0269   22.7020 N   0  0  0  0  0  0  0  0  0  0  0  0
    6.2937   -1.2577   19.6571 N   0  0  0  0  0  0  0  0  0  0  0  0
   11.7543    2.2403   24.6693 N   0  0  0  0  0  0  0  0  0  0  0  0
    5.9726    1.0407   19.7495 O   0  0  0  0  0  0  0  0  0  0  0  0
    8.9723   -3.7419   23.5776 O   0  0  0  0  0  0  0  0  0  0  0  0
    6.8515   -1.8048   23.8397 O   0  0  0  0  0  0  0  0  0  0  0  0
    6.7669   -3.7985   20.7823 O   0  0  0  0  0  0  0  0  0  0  0  0
  1  8  1  0
  1 24  3  0
  2  5  2  0
  2  8  1  0
  3  4  2  0
  3  9  1  0
  4 10  1  0
  5 12  1  0
  6  9  2  0
  6 11  1  0
  7  8  2  0
  7 25  1  0
  9 22  1  0
 10 11  2  0
 10 29  1  0
 11 30  1  0
 12 25  2  0
 12 27  1  0
 13 20  1  0
 13 26  1  0
 13 28  2  0
 14 16  1  0
 14 26  1  0
 15 18  1  0
 15 26  1  0
 16 31  1  0
 17 19  1  0
 17 29  1  0
 18 19  1  0
 18 31  1  0
 19 30  1  0
 21 23  1  0
 22 23  1  0
 23 27  1  0
M  END
