BEN-VAN-d8fd1356-18
     RDKit          3D

 21 23  0  0  0  0  0  0  0  0999 V2000
   12.0101    6.6738   24.6269 C   0  0  0  0  0  0  0  0  0  0  0  0
   11.0444   -0.3542   24.6918 C   0  0  0  0  0  0  0  0  0  0  0  0
    9.8570    5.6510   24.3067 C   0  0  0  0  0  0  0  0  0  0  0  0
    9.3632    1.3958   24.6005 C   0  0  0  0  0  0  0  0  0  0  0  0
   12.5765    5.5103   24.1318 C   0  0  0  0  0  0  0  0  0  0  0  0
   11.9053    0.4440   23.9125 C   0  0  0  0  0  0  0  0  0  0  0  0
   10.6238    6.7375   24.7128 C   0  0  0  0  0  0  0  0  0  0  0  0
   13.2215    0.2733   23.3992 C   0  0  0  0  0  0  0  0  0  0  0  0
   11.4641    1.7027   23.4988 C   0  0  0  0  0  0  0  0  0  0  0  0
   10.1999    2.2053   23.8267 C   0  0  0  0  0  0  0  0  0  0  0  0
    9.7769    0.1355   25.0274 C   0  0  0  0  0  0  0  0  0  0  0  0
   10.5198    4.5333   23.8257 C   0  0  0  0  0  0  0  0  0  0  0  0
   13.5476    1.4104   22.6966 C   0  0  0  0  0  0  0  0  0  0  0  0
    9.9619    7.9657   25.2381 C   0  0  0  0  0  0  0  0  0  0  0  0
   14.1452   -1.8021   22.3381 C   0  0  0  0  0  0  0  0  0  0  0  0
   14.0875   -0.9093   23.5817 C   0  0  0  0  0  0  0  0  0  0  0  0
   11.8645    4.4345   23.7275 N   0  0  0  0  0  0  0  0  0  0  0  0
   12.4814    2.2668   22.7626 N   0  0  0  0  0  0  0  0  0  0  0  0
    9.7800    3.4393   23.4173 O   0  0  0  0  0  0  0  0  0  0  0  0
    8.9544   -0.6169   25.7711 F   0  0  0  0  0  0  0  0  0  0  0  0
   14.6966    1.6463   22.0605 F   0  0  0  0  0  0  0  0  0  0  0  0
  1  5  2  0
  1  7  1  0
  2  6  2  0
  2 11  1  0
  3  7  2  0
  3 12  1  0
  4 10  1  0
  4 11  2  0
  5 17  1  0
  6  8  1  0
  6  9  1  0
  7 14  1  0
  8 13  2  0
  8 16  1  0
  9 10  2  0
  9 18  1  0
 10 19  1  0
 11 20  1  0
 12 17  2  0
 12 19  1  0
 13 18  1  0
 13 21  1  0
 15 16  1  0
M  END
