BEN-DND-362d364a-12
     RDKit          3D

 22 23  0  0  1  0  0  0  0  0999 V2000
   14.1524   -0.7557   23.2062 C   0  0  0  0  0  0  0  0  0  0  0  0
   13.6146   -1.9801   22.8099 C   0  0  0  0  0  0  0  0  0  0  0  0
   13.3120    0.3338   23.4354 C   0  0  0  0  0  0  0  0  0  0  0  0
    5.5580    1.0818   18.9929 C   0  0  0  0  0  0  0  0  0  0  0  0
   12.2364   -2.1151   22.6426 C   0  0  0  0  0  0  0  0  0  0  0  0
   11.9338    0.1988   23.2681 C   0  0  0  0  0  0  0  0  0  0  0  0
    6.2251    0.6665   20.1399 C   0  0  0  0  0  0  0  0  0  0  0  0
    6.2125    0.9510   17.7787 C   0  0  0  0  0  0  0  0  0  0  0  0
    8.0754    0.0517   18.7781 C   0  0  0  0  0  0  0  0  0  0  0  0
   11.3960   -1.0257   22.8718 C   0  0  0  0  0  0  0  0  0  0  0  0
    7.5083    0.1405   20.0392 C   0  0  0  0  0  0  0  0  0  0  0  0
    9.4933   -0.8340   21.2460 C   0  0  0  0  0  0  0  0  0  0  0  0
    7.8969   -5.1856   23.8021 C   0  0  0  0  0  0  0  0  0  0  0  0
    9.3901   -2.5735   23.0718 C   0  0  0  0  0  0  0  0  0  0  0  0
    9.8933   -1.1721   22.6893 C   0  0  0  0  0  0  0  0  0  0  0  0
    7.4585    0.4449   17.6412 N   0  0  0  0  0  0  0  0  0  0  0  0
    8.2124   -0.2903   21.1885 N   0  0  0  0  0  0  0  0  0  0  0  0
    7.9396   -2.5407   23.3700 N   0  0  0  0  0  0  0  0  0  0  0  0
   10.2479   -1.0521   20.3022 O   0  0  0  0  0  0  0  0  0  0  0  0
    5.8535   -3.6657   24.4060 O   0  0  0  0  0  0  0  0  0  0  0  0
    7.9713   -3.4619   25.7588 O   0  0  0  0  0  0  0  0  0  0  0  0
    7.3010   -3.6569   24.4875 S   0  0  0  0  0  0  0  0  0  0  0  0
  1  2  2  0
  1  3  1  0
  2  5  1  0
  3  6  2  0
  4  7  2  0
  4  8  1  0
  5 10  2  0
  6 10  1  0
  7 11  1  0
  8 16  2  0
  9 11  2  0
  9 16  1  0
 10 15  1  0
 11 17  1  0
 12 15  1  0
 12 17  1  0
 12 19  2  0
 13 22  1  0
 14 15  1  0
 14 18  1  0
 18 22  1  0
 20 22  2  0
 21 22  2  0
M  END
