BEN-VAN-d8fd1356-23
     RDKit          3D

 24 26  0  0  0  0  0  0  0  0999 V2000
    7.0190   -0.1761   19.5548 C   0  0  0  0  0  0  0  0  0  0  0  0
    4.4556    0.1223   23.3593 C   0  0  0  0  0  0  0  0  0  0  0  0
    4.8985    0.6230   21.2000 C   0  0  0  0  0  0  0  0  0  0  0  0
    6.9795   -0.6347   20.8747 C   0  0  0  0  0  0  0  0  0  0  0  0
    3.9895    0.8296   22.2752 C   0  0  0  0  0  0  0  0  0  0  0  0
    5.9078   -0.2186   21.6726 C   0  0  0  0  0  0  0  0  0  0  0  0
    6.0258    0.6646   19.0562 C   0  0  0  0  0  0  0  0  0  0  0  0
    4.9597    1.0727   19.8660 C   0  0  0  0  0  0  0  0  0  0  0  0
   12.9038    0.4695   23.1826 C   0  0  0  0  0  0  0  0  0  0  0  0
   10.5696    1.0682   22.6220 C   0  0  0  0  0  0  0  0  0  0  0  0
   10.9651   -1.0464   23.8240 C   0  0  0  0  0  0  0  0  0  0  0  0
    9.6769    0.3543   21.6175 C   0  0  0  0  0  0  0  0  0  0  0  0
   10.0762   -1.7924   22.8381 C   0  0  0  0  0  0  0  0  0  0  0  0
    3.0347    3.1453   22.3850 C   0  0  0  0  0  0  0  0  0  0  0  0
   13.6039   -1.5133   21.8849 C   0  0  0  0  0  0  0  0  0  0  0  0
    2.7553    1.6429   22.2823 C   0  0  0  0  0  0  0  0  0  0  0  0
    8.0657   -1.5384   21.3790 C   0  0  0  0  0  0  0  0  0  0  0  0
   13.8703   -0.6861   23.1190 C   0  0  0  0  0  0  0  0  0  0  0  0
    5.6132   -0.5064   22.9862 N   0  0  0  0  0  0  0  0  0  0  0  0
   11.5473    0.1483   23.2034 N   0  0  0  0  0  0  0  0  0  0  0  0
    9.0372   -0.8406   22.2887 N   0  0  0  0  0  0  0  0  0  0  0  0
   13.3429    1.6220   23.2102 O   0  0  0  0  0  0  0  0  0  0  0  0
    6.1025    1.0807   17.7835 F   0  0  0  0  0  0  0  0  0  0  0  0
    3.7301    2.1035   19.2876 Cl  0  0  0  0  0  0  0  0  0  0  0  0
  1  4  2  0
  1  7  1  0
  2  5  2  0
  2 19  1  0
  3  5  1  0
  3  6  2  0
  3  8  1  0
  4  6  1  0
  4 17  1  0
  5 16  1  0
  6 19  1  0
  7  8  2  0
  7 23  1  0
  8 24  1  0
  9 18  1  0
  9 20  1  0
  9 22  2  0
 10 12  1  0
 10 20  1  0
 11 13  1  0
 11 20  1  0
 12 21  1  0
 13 21  1  0
 14 16  1  0
 15 18  1  0
 17 21  1  0
M  CHG  1  21   1
M  END
