BEN-VAN-d8fd1356-13
     RDKit          3D

 23 25  0  0  0  0  0  0  0  0999 V2000
   13.7649    1.9317   22.1373 C   0  0  0  0  0  0  0  0  0  0  0  0
    9.4052   -1.6990   24.4643 C   0  0  0  0  0  0  0  0  0  0  0  0
    9.8892   -2.7513   21.9936 C   0  0  0  0  0  0  0  0  0  0  0  0
   10.8351    3.3368   23.8115 C   0  0  0  0  0  0  0  0  0  0  0  0
   12.6109    2.3292   22.8414 C   0  0  0  0  0  0  0  0  0  0  0  0
    8.4001   -2.4083   23.8161 C   0  0  0  0  0  0  0  0  0  0  0  0
   11.9245    1.3777   23.5989 C   0  0  0  0  0  0  0  0  0  0  0  0
   11.9122    3.5605   22.9852 C   0  0  0  0  0  0  0  0  0  0  0  0
   12.3361    0.0431   23.6879 C   0  0  0  0  0  0  0  0  0  0  0  0
   14.1883    0.6001   22.2170 C   0  0  0  0  0  0  0  0  0  0  0  0
   13.4834   -0.3280   22.9809 C   0  0  0  0  0  0  0  0  0  0  0  0
    8.6387   -2.9477   22.5570 C   0  0  0  0  0  0  0  0  0  0  0  0
   10.6215   -1.5587   23.8156 C   0  0  0  0  0  0  0  0  0  0  0  0
    7.0843   -2.5656   24.5059 C   0  0  0  0  0  0  0  0  0  0  0  0
   13.8211    6.5510   22.0220 C   0  0  0  0  0  0  0  0  0  0  0  0
   13.5600    5.0882   21.9005 C   0  0  0  0  0  0  0  0  0  0  0  0
   10.8903   -2.0683   22.5926 N   0  0  0  0  0  0  0  0  0  0  0  0
   10.8511    2.0174   24.1767 N   0  0  0  0  0  0  0  0  0  0  0  0
   12.2357    4.7432   22.4198 N   0  0  0  0  0  0  0  0  0  0  0  0
   11.6376   -0.8594   24.4395 O   0  0  0  0  0  0  0  0  0  0  0  0
   15.2881    0.2313   21.5430 F   0  0  0  0  0  0  0  0  0  0  0  0
   14.0507   -1.9596   23.0431 Cl  0  0  0  0  0  0  0  0  0  0  0  0
    7.3299   -3.9240   21.6063 Br  0  0  0  0  0  0  0  0  0  0  0  0
  1  5  2  0
  1 10  1  0
  2  6  2  0
  2 13  1  0
  3 12  2  0
  3 17  1  0
  4  8  2  0
  4 18  1  0
  5  7  1  0
  5  8  1  0
  6 12  1  0
  6 14  1  0
  7  9  2  0
  7 18  1  0
  8 19  1  0
  9 11  1  0
  9 20  1  0
 10 11  2  0
 10 21  1  0
 11 22  1  0
 12 23  1  0
 13 17  2  0
 13 20  1  0
 15 16  1  0
 16 19  1  0
M  END
