BEN-VAN-ed886787-9
     RDKit          3D

 30 32  0  0  0  0  0  0  0  0999 V2000
    6.1642   -6.2811   28.4812 C   0  0  0  0  0  0  0  0  0  0  0  0
    6.7491   -5.4721   27.5133 C   0  0  0  0  0  0  0  0  0  0  0  0
   11.8859    1.2304   23.9226 C   0  0  0  0  0  0  0  0  0  0  0  0
   11.2055    2.4410   23.9939 C   0  0  0  0  0  0  0  0  0  0  0  0
    8.1877    0.0998   19.6433 C   0  0  0  0  0  0  0  0  0  0  0  0
    8.4160   -1.4963   21.4425 C   0  0  0  0  0  0  0  0  0  0  0  0
    6.2803   -1.2028   20.3518 C   0  0  0  0  0  0  0  0  0  0  0  0
    5.0485   -7.0196   28.1213 C   0  0  0  0  0  0  0  0  0  0  0  0
    5.0905   -6.2039   25.9740 C   0  0  0  0  0  0  0  0  0  0  0  0
    8.9757   -0.5300   20.6066 C   0  0  0  0  0  0  0  0  0  0  0  0
    6.8400   -0.2366   19.5159 C   0  0  0  0  0  0  0  0  0  0  0  0
    6.2081   -5.4270   26.2333 C   0  0  0  0  0  0  0  0  0  0  0  0
    7.0683   -1.8327   21.3151 C   0  0  0  0  0  0  0  0  0  0  0  0
   11.6407    0.3628   22.8641 C   0  0  0  0  0  0  0  0  0  0  0  0
   10.7130    0.7494   21.9102 C   0  0  0  0  0  0  0  0  0  0  0  0
   10.2975    2.7346   22.9893 C   0  0  0  0  0  0  0  0  0  0  0  0
    6.3545   -4.4646   23.9102 C   0  0  0  0  0  0  0  0  0  0  0  0
    5.3307    1.7028   19.0182 C   0  0  0  0  0  0  0  0  0  0  0  0
    8.9638    6.1039   23.9852 C   0  0  0  0  0  0  0  0  0  0  0  0
   10.4166   -0.1703   20.7427 C   0  0  0  0  0  0  0  0  0  0  0  0
    5.9975    0.4370   18.4859 C   0  0  0  0  0  0  0  0  0  0  0  0
    7.2523   -3.4937   23.1679 C   0  0  0  0  0  0  0  0  0  0  0  0
    9.8219    4.8951   24.1432 C   0  0  0  0  0  0  0  0  0  0  0  0
    4.4946   -7.0018   26.8882 N   0  0  0  0  0  0  0  0  0  0  0  0
   10.0327    1.9171   21.9457 N   0  0  0  0  0  0  0  0  0  0  0  0
    6.7810   -4.6130   25.2273 N   0  0  0  0  0  0  0  0  0  0  0  0
    6.5024   -2.8097   22.1603 N   0  0  0  0  0  0  0  0  0  0  0  0
    9.6101    3.9707   23.0776 N   0  0  0  0  0  0  0  0  0  0  0  0
    5.3925   -5.0058   23.3745 O   0  0  0  0  0  0  0  0  0  0  0  0
   12.2849   -0.8076   22.7804 F   0  0  0  0  0  0  0  0  0  0  0  0
  1  2  2  0
  1  8  1  0
  2 12  1  0
  3  4  2  0
  3 14  1  0
  4 16  1  0
  5 10  2  0
  5 11  1  0
  6 10  1  0
  6 13  2  0
  7 11  2  0
  7 13  1  0
  8 24  2  0
  9 12  2  0
  9 24  1  0
 10 20  1  0
 11 21  1  0
 12 26  1  0
 13 27  1  0
 14 15  2  0
 14 30  1  0
 15 20  1  0
 15 25  1  0
 16 25  2  0
 16 28  1  0
 17 22  1  0
 17 26  1  0
 17 29  2  0
 18 21  1  0
 19 23  1  0
 22 27  1  0
 23 28  1  0
M  END
