BEN-VAN-c986b20b-15
     RDKit          3D

 25 27  0  0  0  0  0  0  0  0999 V2000
   12.1061    1.2895   24.0102 C   0  0  0  0  0  0  0  0  0  0  0  0
   12.2351   -0.0210   23.5505 C   0  0  0  0  0  0  0  0  0  0  0  0
   10.3369    0.3038   22.0916 C   0  0  0  0  0  0  0  0  0  0  0  0
    9.6378    4.9934   25.0305 C   0  0  0  0  0  0  0  0  0  0  0  0
   11.0924    2.1072   23.5107 C   0  0  0  0  0  0  0  0  0  0  0  0
   11.3506   -0.5139   22.5912 C   0  0  0  0  0  0  0  0  0  0  0  0
   11.9751    4.3930   23.8530 C   0  0  0  0  0  0  0  0  0  0  0  0
   10.2078    1.6144   22.5514 C   0  0  0  0  0  0  0  0  0  0  0  0
   10.9623    3.4659   23.9915 C   0  0  0  0  0  0  0  0  0  0  0  0
   11.7082    5.6488   24.3590 C   0  0  0  0  0  0  0  0  0  0  0  0
    7.0601   -3.5331   25.0111 C   0  0  0  0  0  0  0  0  0  0  0  0
    8.0562   -3.4749   22.7471 C   0  0  0  0  0  0  0  0  0  0  0  0
    9.5343   -3.9968   24.6487 C   0  0  0  0  0  0  0  0  0  0  0  0
    9.0501   -2.4449   22.2306 C   0  0  0  0  0  0  0  0  0  0  0  0
   10.5521   -2.9753   24.1594 C   0  0  0  0  0  0  0  0  0  0  0  0
   13.2732    4.0694   23.2001 C   0  0  0  0  0  0  0  0  0  0  0  0
   12.7289    6.7348   24.2668 C   0  0  0  0  0  0  0  0  0  0  0  0
    7.2787   -3.7236   26.4908 C   0  0  0  0  0  0  0  0  0  0  0  0
   11.4886   -1.9238   22.0972 C   0  0  0  0  0  0  0  0  0  0  0  0
    9.7766    3.7330   24.5771 N   0  0  0  0  0  0  0  0  0  0  0  0
   10.5460    5.9850   24.9561 N   0  0  0  0  0  0  0  0  0  0  0  0
    8.1838   -3.6491   24.1940 N   0  0  0  0  0  0  0  0  0  0  0  0
   10.4441   -2.8485   22.6562 N   0  0  0  0  0  0  0  0  0  0  0  0
    5.9249   -3.2860   24.5962 O   0  0  0  0  0  0  0  0  0  0  0  0
    9.2279    2.3879   22.0615 F   0  0  0  0  0  0  0  0  0  0  0  0
  1  2  2  0
  1  5  1  0
  2  6  1  0
  3  6  2  0
  3  8  1  0
  4 20  2  0
  4 21  1  0
  5  8  2  0
  5  9  1  0
  6 19  1  0
  7  9  2  0
  7 10  1  0
  7 16  1  0
  8 25  1  0
  9 20  1  0
 10 17  1  0
 10 21  2  0
 11 18  1  0
 11 22  1  0
 11 24  2  0
 12 14  1  0
 12 22  1  0
 13 15  1  0
 13 22  1  0
 14 23  1  0
 15 23  1  0
 19 23  1  0
M  CHG  1  23   1
M  END
