BEN-VAN-ed886787-15
     RDKit          3D

 29 31  0  0  0  0  0  0  0  0999 V2000
    8.5398    7.8034   23.9922 C   0  0  0  0  0  0  0  0  0  0  0  0
    9.5418    6.8438   23.9004 C   0  0  0  0  0  0  0  0  0  0  0  0
   13.5762    0.9232   22.6536 C   0  0  0  0  0  0  0  0  0  0  0  0
    9.5008   -5.0139   24.1185 C   0  0  0  0  0  0  0  0  0  0  0  0
   14.1335   -0.3356   22.4297 C   0  0  0  0  0  0  0  0  0  0  0  0
    8.8907   -4.4161   23.0213 C   0  0  0  0  0  0  0  0  0  0  0  0
   12.1055   -0.0242   24.3199 C   0  0  0  0  0  0  0  0  0  0  0  0
    7.4851    7.7274   23.0969 C   0  0  0  0  0  0  0  0  0  0  0  0
    8.3635    5.8626   22.0824 C   0  0  0  0  0  0  0  0  0  0  0  0
   12.6628   -1.2831   24.0959 C   0  0  0  0  0  0  0  0  0  0  0  0
   12.5622    1.0790   23.5988 C   0  0  0  0  0  0  0  0  0  0  0  0
    9.4596    5.8514   22.9300 C   0  0  0  0  0  0  0  0  0  0  0  0
   10.5688   -4.3801   24.7439 C   0  0  0  0  0  0  0  0  0  0  0  0
   13.6768   -1.4388   23.1508 C   0  0  0  0  0  0  0  0  0  0  0  0
   10.9854   -3.1595   24.2376 C   0  0  0  0  0  0  0  0  0  0  0  0
    9.3823   -3.1938   22.5922 C   0  0  0  0  0  0  0  0  0  0  0  0
   11.6135    4.7219   23.5849 C   0  0  0  0  0  0  0  0  0  0  0  0
    8.3226   -0.9583   19.7633 C   0  0  0  0  0  0  0  0  0  0  0  0
   12.1467   -2.4397   24.8899 C   0  0  0  0  0  0  0  0  0  0  0  0
   12.4213    3.5244   23.1233 C   0  0  0  0  0  0  0  0  0  0  0  0
    9.1633   -1.3435   20.9327 C   0  0  0  0  0  0  0  0  0  0  0  0
    7.3707    6.7783   22.1410 N   0  0  0  0  0  0  0  0  0  0  0  0
   10.4176   -2.5479   23.1740 N   0  0  0  0  0  0  0  0  0  0  0  0
   10.4639    4.8613   22.8119 N   0  0  0  0  0  0  0  0  0  0  0  0
   11.9996    2.3523   23.8260 N   0  0  0  0  0  0  0  0  0  0  0  0
    8.7518   -2.5988   21.4712 N   0  0  0  0  0  0  0  0  0  0  0  0
   11.9688    5.4277   24.5235 O   0  0  0  0  0  0  0  0  0  0  0  0
   11.1695   -4.9419   25.8001 F   0  0  0  0  0  0  0  0  0  0  0  0
   14.3900   -2.9807   22.8462 Cl  0  0  0  0  0  0  0  0  0  0  0  0
  1  2  2  0
  1  8  1  0
  2 12  1  0
  3  5  2  0
  3 11  1  0
  4  6  2  0
  4 13  1  0
  5 14  1  0
  6 16  1  0
  7 10  1  0
  7 11  2  0
  8 22  2  0
  9 12  2  0
  9 22  1  0
 10 14  2  0
 10 19  1  0
 11 25  1  0
 12 24  1  0
 13 15  2  0
 13 28  1  0
 14 29  1  0
 15 19  1  0
 15 23  1  0
 16 23  2  0
 16 26  1  0
 17 20  1  0
 17 24  1  0
 17 27  2  0
 18 21  1  0
 20 25  1  0
 21 26  1  0
M  END
