BEN-VAN-c986b20b-13
     RDKit          3D

 25 27  0  0  0  0  0  0  0  0999 V2000
    9.2312    1.6869   22.8647 C   0  0  0  0  0  0  0  0  0  0  0  0
    9.2627    0.4395   22.2415 C   0  0  0  0  0  0  0  0  0  0  0  0
    9.5557    3.7462   25.1503 C   0  0  0  0  0  0  0  0  0  0  0  0
   11.1154    5.6636   24.1010 C   0  0  0  0  0  0  0  0  0  0  0  0
   10.3984    2.2257   23.4064 C   0  0  0  0  0  0  0  0  0  0  0  0
   10.4613   -0.2693   22.1600 C   0  0  0  0  0  0  0  0  0  0  0  0
   11.5969    1.5169   23.3249 C   0  0  0  0  0  0  0  0  0  0  0  0
   11.6284    0.2693   22.7017 C   0  0  0  0  0  0  0  0  0  0  0  0
   10.3596    3.5204   24.0515 C   0  0  0  0  0  0  0  0  0  0  0  0
    9.6059    5.0217   25.6747 C   0  0  0  0  0  0  0  0  0  0  0  0
    7.3110   -3.8997   25.4280 C   0  0  0  0  0  0  0  0  0  0  0  0
    7.7621   -3.8622   22.9957 C   0  0  0  0  0  0  0  0  0  0  0  0
    9.6881   -3.7855   24.5312 C   0  0  0  0  0  0  0  0  0  0  0  0
    8.3197   -2.6878   22.2048 C   0  0  0  0  0  0  0  0  0  0  0  0
   10.2760   -2.6103   23.7618 C   0  0  0  0  0  0  0  0  0  0  0  0
    8.7685    5.3626   26.8614 C   0  0  0  0  0  0  0  0  0  0  0  0
    7.8754   -3.8593   26.8257 C   0  0  0  0  0  0  0  0  0  0  0  0
   10.4516   -1.6075   21.4816 C   0  0  0  0  0  0  0  0  0  0  0  0
   11.1549    4.4597   23.4988 N   0  0  0  0  0  0  0  0  0  0  0  0
   10.3775    6.0084   25.1734 N   0  0  0  0  0  0  0  0  0  0  0  0
    8.2297   -3.8320   24.3816 N   0  0  0  0  0  0  0  0  0  0  0  0
    9.8277   -2.6879   22.3195 N   0  0  0  0  0  0  0  0  0  0  0  0
    6.0901   -3.9861   25.2730 O   0  0  0  0  0  0  0  0  0  0  0  0
   12.7193    2.0367   23.8470 F   0  0  0  0  0  0  0  0  0  0  0  0
   13.1264   -0.5855   22.6153 Cl  0  0  0  0  0  0  0  0  0  0  0  0
  1  2  2  0
  1  5  1  0
  2  6  1  0
  3  9  2  0
  3 10  1  0
  4 19  2  0
  4 20  1  0
  5  7  2  0
  5  9  1  0
  6  8  2  0
  6 18  1  0
  7  8  1  0
  7 24  1  0
  8 25  1  0
  9 19  1  0
 10 16  1  0
 10 20  2  0
 11 17  1  0
 11 21  1  0
 11 23  2  0
 12 14  1  0
 12 21  1  0
 13 15  1  0
 13 21  1  0
 14 22  1  0
 15 22  1  0
 18 22  1  0
M  CHG  1  22   1
M  END
