BEN-VAN-ed886787-5
     RDKit          3D

 30 32  0  0  0  0  0  0  0  0999 V2000
    5.0387   -4.6506   25.2302 C   0  0  0  0  0  0  0  0  0  0  0  0
    9.5361    3.1676   23.6384 C   0  0  0  0  0  0  0  0  0  0  0  0
    8.2557    3.0737   23.1046 C   0  0  0  0  0  0  0  0  0  0  0  0
    4.1130   -5.5368   25.7696 C   0  0  0  0  0  0  0  0  0  0  0  0
   10.8231   -1.2964   22.1366 C   0  0  0  0  0  0  0  0  0  0  0  0
   13.1029   -0.5235   22.3422 C   0  0  0  0  0  0  0  0  0  0  0  0
   12.4807   -2.6934   23.2034 C   0  0  0  0  0  0  0  0  0  0  0  0
    6.0635   -6.4827   24.1123 C   0  0  0  0  0  0  0  0  0  0  0  0
   11.7904   -0.3155   21.9181 C   0  0  0  0  0  0  0  0  0  0  0  0
    6.0357   -5.1245   24.3848 C   0  0  0  0  0  0  0  0  0  0  0  0
   11.1682   -2.4853   22.7793 C   0  0  0  0  0  0  0  0  0  0  0  0
   10.5857    2.4815   23.0378 C   0  0  0  0  0  0  0  0  0  0  0  0
   13.4480   -1.7125   22.9848 C   0  0  0  0  0  0  0  0  0  0  0  0
   10.3048    1.7211   21.9141 C   0  0  0  0  0  0  0  0  0  0  0  0
    8.0791    2.2870   21.9778 C   0  0  0  0  0  0  0  0  0  0  0  0
    4.2267   -6.8766   25.4350 C   0  0  0  0  0  0  0  0  0  0  0  0
    8.0399   -4.5711   22.9631 C   0  0  0  0  0  0  0  0  0  0  0  0
    5.0056    1.5176   19.9566 C   0  0  0  0  0  0  0  0  0  0  0  0
   11.4219    0.9567   21.2326 C   0  0  0  0  0  0  0  0  0  0  0  0
    8.8273   -3.3287   22.5941 C   0  0  0  0  0  0  0  0  0  0  0  0
    6.4551    1.4228   20.2921 C   0  0  0  0  0  0  0  0  0  0  0  0
    5.1816   -7.3742   24.6174 N   0  0  0  0  0  0  0  0  0  0  0  0
    9.0741    1.6058   21.3666 N   0  0  0  0  0  0  0  0  0  0  0  0
    6.9916   -4.2468   23.8202 N   0  0  0  0  0  0  0  0  0  0  0  0
   10.1902   -3.4770   23.0015 N   0  0  0  0  0  0  0  0  0  0  0  0
    6.7678    2.1991   21.4473 N   0  0  0  0  0  0  0  0  0  0  0  0
    8.3274   -5.6811   22.5265 O   0  0  0  0  0  0  0  0  0  0  0  0
   11.8245    2.5586   23.5393 F   0  0  0  0  0  0  0  0  0  0  0  0
   14.7085   -1.9123   23.3915 F   0  0  0  0  0  0  0  0  0  0  0  0
    3.3398   -7.7433   25.9477 F   0  0  0  0  0  0  0  0  0  0  0  0
  1  4  2  0
  1 10  1  0
  2  3  2  0
  2 12  1  0
  3 15  1  0
  4 16  1  0
  5  9  2  0
  5 11  1  0
  6  9  1  0
  6 13  2  0
  7 11  2  0
  7 13  1  0
  8 10  2  0
  8 22  1  0
  9 19  1  0
 10 24  1  0
 11 25  1  0
 12 14  2  0
 12 28  1  0
 13 29  1  0
 14 19  1  0
 14 23  1  0
 15 23  2  0
 15 26  1  0
 16 22  2  0
 16 30  1  0
 17 20  1  0
 17 24  1  0
 17 27  2  0
 18 21  1  0
 20 25  1  0
 21 26  1  0
M  END
