BEN-VAN-d2b455e2-9
     RDKit          3D

 29 31  0  0  1  0  0  0  0  0999 V2000
    9.0091    0.4856   24.0622 C   0  0  0  0  0  0  0  0  0  0  0  0
   11.3290   -2.4160   24.4088 C   0  0  0  0  0  0  0  0  0  0  0  0
   11.3367    0.2909   24.7534 C   0  0  0  0  0  0  0  0  0  0  0  0
    7.6964   -5.4508   22.2585 C   0  0  0  0  0  0  0  0  0  0  0  0
    9.6496   -3.9775   22.0050 C   0  0  0  0  0  0  0  0  0  0  0  0
   10.1676   -0.3118   24.3177 C   0  0  0  0  0  0  0  0  0  0  0  0
    7.6495   -4.3767   23.1197 C   0  0  0  0  0  0  0  0  0  0  0  0
   10.1720   -1.6914   24.1446 C   0  0  0  0  0  0  0  0  0  0  0  0
    8.7808   -3.5231   22.9729 C   0  0  0  0  0  0  0  0  0  0  0  0
   12.4461   -1.7191   24.8403 C   0  0  0  0  0  0  0  0  0  0  0  0
    7.1571   -0.1254   18.7519 C   0  0  0  0  0  0  0  0  0  0  0  0
    6.9443   -0.5755   19.9922 C   0  0  0  0  0  0  0  0  0  0  0  0
    6.0931   -1.7740   20.2223 C   0  0  0  0  0  0  0  0  0  0  0  0
    5.2626   -3.1540   22.0894 C   0  0  0  0  0  0  0  0  0  0  0  0
    4.3998   -5.3587   24.1880 C   0  0  0  0  0  0  0  0  0  0  0  0
    5.8440   -5.4160   24.6624 C   0  0  0  0  0  0  0  0  0  0  0  0
    4.0946   -3.8689   24.1540 C   0  0  0  0  0  0  0  0  0  0  0  0
    6.5199   -4.1452   24.1016 C   0  0  0  0  0  0  0  0  0  0  0  0
    5.3692   -3.2461   23.5860 C   0  0  0  0  0  0  0  0  0  0  0  0
   14.6770   -1.5412   27.0568 C   0  0  0  0  0  0  0  0  0  0  0  0
   14.7157   -1.6470   25.5472 C   0  0  0  0  0  0  0  0  0  0  0  0
    8.0685    1.1330   23.8550 N   0  0  0  0  0  0  0  0  0  0  0  0
   12.4799   -0.3796   25.0201 N   0  0  0  0  0  0  0  0  0  0  0  0
    8.9914   -2.3954   23.6922 N   0  0  0  0  0  0  0  0  0  0  0  0
    5.9932   -2.0835   21.5766 N   0  0  0  0  0  0  0  0  0  0  0  0
    5.5610   -2.3897   19.3045 O   0  0  0  0  0  0  0  0  0  0  0  0
    4.6130   -3.9647   21.4344 O   0  0  0  0  0  0  0  0  0  0  0  0
   13.5986   -2.4103   25.1074 O   0  0  0  0  0  0  0  0  0  0  0  0
    9.1002   -5.4274   21.2781 S   0  0  0  0  0  0  0  0  0  0  0  0
  1  6  1  0
  1 22  3  0
  2  8  2  0
  2 10  1  0
  3  6  2  0
  3 23  1  0
  4  7  2  0
  4 29  1  0
  5  9  2  0
  5 29  1  0
  6  8  1  0
  7  9  1  0
  7 18  1  0
  8 24  1  0
  9 24  1  0
 10 23  2  0
 10 28  1  0
 11 12  2  0
 12 13  1  0
 13 25  1  0
 13 26  2  0
 14 19  1  0
 14 25  1  0
 14 27  2  0
 15 16  1  0
 15 17  1  0
 16 18  1  0
 17 19  1  0
 18 19  1  0
 20 21  1  0
 21 28  1  0
M  END
