BEN-BAS-3b12fa42-1
     RDKit          3D

 30 33  0  0  0  0  0  0  0  0999 V2000
    7.1552   -3.8777   26.9018 C   0  0  0  0  0  0  0  0  0  0  0  0
    8.1177   -2.8734   27.0045 C   0  0  0  0  0  0  0  0  0  0  0  0
    6.5124   -4.1060   25.6851 C   0  0  0  0  0  0  0  0  0  0  0  0
    5.4290    1.1342   19.2572 C   0  0  0  0  0  0  0  0  0  0  0  0
    8.4374   -2.0974   25.8904 C   0  0  0  0  0  0  0  0  0  0  0  0
    6.8321   -3.3299   24.5710 C   0  0  0  0  0  0  0  0  0  0  0  0
    5.9201    0.3822   20.3186 C   0  0  0  0  0  0  0  0  0  0  0  0
   12.9361   -2.2408   23.2325 C   0  0  0  0  0  0  0  0  0  0  0  0
   10.5146   -1.8815   23.3693 C   0  0  0  0  0  0  0  0  0  0  0  0
    9.6367    0.3703   23.3505 C   0  0  0  0  0  0  0  0  0  0  0  0
    6.1478    1.1308   18.0726 C   0  0  0  0  0  0  0  0  0  0  0  0
   14.1992   -1.6769   23.1370 C   0  0  0  0  0  0  0  0  0  0  0  0
   13.3508    0.4573   23.1203 C   0  0  0  0  0  0  0  0  0  0  0  0
    7.7422   -0.2777   18.9399 C   0  0  0  0  0  0  0  0  0  0  0  0
   11.8263   -1.3889   23.2731 C   0  0  0  0  0  0  0  0  0  0  0  0
   12.0332    0.0049   23.2155 C   0  0  0  0  0  0  0  0  0  0  0  0
    7.7946   -2.3256   24.6737 C   0  0  0  0  0  0  0  0  0  0  0  0
    7.0983   -0.3401   20.1652 C   0  0  0  0  0  0  0  0  0  0  0  0
    9.4281   -1.0058   23.4076 C   0  0  0  0  0  0  0  0  0  0  0  0
   10.9326    0.8768   23.2549 C   0  0  0  0  0  0  0  0  0  0  0  0
    7.0925   -1.2768   22.5140 C   0  0  0  0  0  0  0  0  0  0  0  0
   10.1311    3.0304   23.8688 C   0  0  0  0  0  0  0  0  0  0  0  0
    7.2958    0.4417   17.8859 N   0  0  0  0  0  0  0  0  0  0  0  0
   14.4355   -0.3489   23.0799 N   0  0  0  0  0  0  0  0  0  0  0  0
    7.6230   -1.1144   21.2274 N   0  0  0  0  0  0  0  0  0  0  0  0
    8.1307   -1.5103   23.5035 N   0  0  0  0  0  0  0  0  0  0  0  0
    5.8922   -1.1981   22.7843 O   0  0  0  0  0  0  0  0  0  0  0  0
   11.0977    2.2304   23.2017 O   0  0  0  0  0  0  0  0  0  0  0  0
   10.7552    4.1647   24.2791 F   0  0  0  0  0  0  0  0  0  0  0  0
    9.1801    3.4130   22.9817 F   0  0  0  0  0  0  0  0  0  0  0  0
  1  2  2  0
  1  3  1  0
  2  5  1  0
  3  6  2  0
  4  7  2  0
  4 11  1  0
  5 17  2  0
  6 17  1  0
  7 18  1  0
  8 12  2  0
  8 15  1  0
  9 15  2  0
  9 19  1  0
 10 19  2  0
 10 20  1  0
 11 23  2  0
 12 24  1  0
 13 16  1  0
 13 24  2  0
 14 18  2  0
 14 23  1  0
 15 16  1  0
 16 20  2  0
 17 26  1  0
 18 25  1  0
 19 26  1  0
 20 28  1  0
 21 25  1  0
 21 26  1  0
 21 27  2  0
 22 28  1  0
 22 29  1  0
 22 30  1  0
M  END
