BEN-DND-362d364a-11
     RDKit          3D

 24 26  0  0  1  0  0  0  0  0999 V2000
    4.8247    1.3454   19.4283 C   0  0  0  0  0  0  0  0  0  0  0  0
    4.9933    0.5094   20.5264 C   0  0  0  0  0  0  0  0  0  0  0  0
    5.6863    1.1878   18.3548 C   0  0  0  0  0  0  0  0  0  0  0  0
    6.8129   -0.5229   19.3952 C   0  0  0  0  0  0  0  0  0  0  0  0
    6.0042   -0.4453   20.5176 C   0  0  0  0  0  0  0  0  0  0  0  0
    7.1629   -2.3073   21.7565 C   0  0  0  0  0  0  0  0  0  0  0  0
    9.2807   -4.2515   25.8052 C   0  0  0  0  0  0  0  0  0  0  0  0
    7.7829   -4.0168   25.9557 C   0  0  0  0  0  0  0  0  0  0  0  0
    9.7356   -3.9382   24.3831 C   0  0  0  0  0  0  0  0  0  0  0  0
    9.6078    1.4567   22.1031 C   0  0  0  0  0  0  0  0  0  0  0  0
    9.2489    2.2979   24.4466 C   0  0  0  0  0  0  0  0  0  0  0  0
    7.3842   -2.6234   25.4672 C   0  0  0  0  0  0  0  0  0  0  0  0
   10.2126    0.1765   22.6580 C   0  0  0  0  0  0  0  0  0  0  0  0
    9.8544    1.0158   24.9962 C   0  0  0  0  0  0  0  0  0  0  0  0
    9.7932    2.6308   23.0597 C   0  0  0  0  0  0  0  0  0  0  0  0
    9.2760   -2.5491   23.9039 C   0  0  0  0  0  0  0  0  0  0  0  0
    7.0231   -3.0000   23.0983 C   0  0  0  0  0  0  0  0  0  0  0  0
   10.0930   -1.4287   24.5631 C   0  0  0  0  0  0  0  0  0  0  0  0
    6.6797    0.2719   18.3098 N   0  0  0  0  0  0  0  0  0  0  0  0
    7.8328   -2.3092   24.1026 N   0  0  0  0  0  0  0  0  0  0  0  0
    6.2006   -1.3102   21.6205 N   0  0  0  0  0  0  0  0  0  0  0  0
    9.6179   -0.1103   24.0170 N   0  0  0  0  0  0  0  0  0  0  0  0
    8.0310   -2.6184   20.9473 O   0  0  0  0  0  0  0  0  0  0  0  0
    9.1090    3.7618   22.5331 O   0  0  0  0  0  0  0  0  0  0  0  0
  1  2  2  0
  1  3  1  0
  2  5  1  0
  3 19  2  0
  4  5  2  0
  4 19  1  0
  5 21  1  0
  6 17  1  0
  6 21  1  0
  6 23  2  0
  7  8  1  0
  7  9  1  0
  8 12  1  0
  9 16  1  0
 10 13  1  0
 10 15  1  0
 11 14  1  0
 11 15  1  0
 12 20  1  0
 13 22  1  0
 14 22  1  0
 15 24  1  0
 16 18  1  0
 16 20  1  0
 17 20  1  0
 18 22  1  0
M  CHG  1  22   1
M  END
