BEN-BAS-26f6b627-1
     RDKit          3D

 24 26  0  0  0  0  0  0  0  0999 V2000
   12.9486   -1.6165   21.7759 C   0  0  0  0  0  0  0  0  0  0  0  0
   12.3854    0.0521   23.4138 C   0  0  0  0  0  0  0  0  0  0  0  0
    7.5885    0.4364   21.0532 C   0  0  0  0  0  0  0  0  0  0  0  0
   13.9192   -2.0726   22.6532 C   0  0  0  0  0  0  0  0  0  0  0  0
   13.3811   -0.4788   24.2179 C   0  0  0  0  0  0  0  0  0  0  0  0
    6.7796    0.6753   18.8294 C   0  0  0  0  0  0  0  0  0  0  0  0
    8.8441   -0.2758   19.1631 C   0  0  0  0  0  0  0  0  0  0  0  0
   12.1714   -0.5334   22.1710 C   0  0  0  0  0  0  0  0  0  0  0  0
    6.5827    0.8548   20.1891 C   0  0  0  0  0  0  0  0  0  0  0  0
    8.7441   -0.1407   20.5384 C   0  0  0  0  0  0  0  0  0  0  0  0
   11.1294   -0.0110   21.2803 C   0  0  0  0  0  0  0  0  0  0  0  0
    5.0520    1.6972   22.0133 C   0  0  0  0  0  0  0  0  0  0  0  0
    8.3293   -1.8115   24.6917 C   0  0  0  0  0  0  0  0  0  0  0  0
    9.7452   -1.4003   24.9852 C   0  0  0  0  0  0  0  0  0  0  0  0
    9.0971   -0.9929   23.6911 C   0  0  0  0  0  0  0  0  0  0  0  0
    3.1645    2.6743   23.3292 C   0  0  0  0  0  0  0  0  0  0  0  0
    9.5411   -1.6014   22.4061 C   0  0  0  0  0  0  0  0  0  0  0  0
   14.1563   -1.5297   23.8684 N   0  0  0  0  0  0  0  0  0  0  0  0
    7.8883    0.1188   18.2922 N   0  0  0  0  0  0  0  0  0  0  0  0
    5.4149    1.4377   20.6745 N   0  0  0  0  0  0  0  0  0  0  0  0
    3.7904    2.2969   22.0829 N   0  0  0  0  0  0  0  0  0  0  0  0
    9.8224   -0.5917   21.4226 N   0  0  0  0  0  0  0  0  0  0  0  0
   11.4113    0.8559   20.4508 O   0  0  0  0  0  0  0  0  0  0  0  0
    5.7302    1.4430   23.0058 O   0  0  0  0  0  0  0  0  0  0  0  0
  1  4  2  0
  1  8  1  0
  2  5  1  0
  2  8  2  0
  3  9  2  0
  3 10  1  0
  4 18  1  0
  5 18  2  0
  6  9  1  0
  6 19  2  0
  7 10  2  0
  7 19  1  0
  8 11  1  0
  9 20  1  0
 10 22  1  0
 11 22  1  0
 11 23  2  0
 12 20  1  0
 12 21  1  0
 12 24  2  0
 13 14  1  0
 13 15  1  0
 14 15  1  0
 15 17  1  0
 16 21  1  0
 17 22  1  0
M  END
