BEN-VAN-ed886787-16
     RDKit          3D

 30 32  0  0  0  0  0  0  0  0999 V2000
    6.0961   -0.3648   26.1582 C   0  0  0  0  0  0  0  0  0  0  0  0
   10.9906    4.7957   23.3071 C   0  0  0  0  0  0  0  0  0  0  0  0
    9.1124   -5.7221   22.6840 C   0  0  0  0  0  0  0  0  0  0  0  0
    5.5113   -1.5538   26.5940 C   0  0  0  0  0  0  0  0  0  0  0  0
    7.8305   -6.0889   22.2896 C   0  0  0  0  0  0  0  0  0  0  0  0
   11.6745    5.9079   22.8290 C   0  0  0  0  0  0  0  0  0  0  0  0
    8.1182   -1.5637   25.6006 C   0  0  0  0  0  0  0  0  0  0  0  0
   12.9027    3.4713   22.8107 C   0  0  0  0  0  0  0  0  0  0  0  0
    7.5334   -2.7527   26.0365 C   0  0  0  0  0  0  0  0  0  0  0  0
    7.3995   -0.3697   25.6614 C   0  0  0  0  0  0  0  0  0  0  0  0
   11.6093    3.5505   23.3013 C   0  0  0  0  0  0  0  0  0  0  0  0
    9.2971   -5.0413   23.8822 C   0  0  0  0  0  0  0  0  0  0  0  0
    6.2300   -2.7477   26.5332 C   0  0  0  0  0  0  0  0  0  0  0  0
    8.1761   -4.7532   24.6438 C   0  0  0  0  0  0  0  0  0  0  0  0
    6.7751   -5.7541   23.1227 C   0  0  0  0  0  0  0  0  0  0  0  0
   12.9651    5.7232   22.3598 C   0  0  0  0  0  0  0  0  0  0  0  0
    9.6491    2.3244   24.3006 C   0  0  0  0  0  0  0  0  0  0  0  0
    3.0809   -6.3635   22.7996 C   0  0  0  0  0  0  0  0  0  0  0  0
    8.3361   -4.0109   25.9537 C   0  0  0  0  0  0  0  0  0  0  0  0
    9.3209    0.8987   24.6997 C   0  0  0  0  0  0  0  0  0  0  0  0
    4.3064   -5.8465   23.4729 C   0  0  0  0  0  0  0  0  0  0  0  0
   13.5990    4.5293   22.3381 N   0  0  0  0  0  0  0  0  0  0  0  0
    6.9153   -5.0933   24.2937 N   0  0  0  0  0  0  0  0  0  0  0  0
   10.9389    2.4005   23.7818 N   0  0  0  0  0  0  0  0  0  0  0  0
    7.9903    0.8324   25.2196 N   0  0  0  0  0  0  0  0  0  0  0  0
    5.4746   -6.1323   22.7056 N   0  0  0  0  0  0  0  0  0  0  0  0
    8.8443    3.2414   24.4303 O   0  0  0  0  0  0  0  0  0  0  0  0
   10.5238   -4.6785   24.2766 F   0  0  0  0  0  0  0  0  0  0  0  0
   13.6375    6.7879   21.8959 F   0  0  0  0  0  0  0  0  0  0  0  0
    5.4736   -4.1989   27.0818 Cl  0  0  0  0  0  0  0  0  0  0  0  0
  1  4  2  0
  1 10  1  0
  2  6  2  0
  2 11  1  0
  3  5  2  0
  3 12  1  0
  4 13  1  0
  5 15  1  0
  6 16  1  0
  7  9  1  0
  7 10  2  0
  8 11  2  0
  8 22  1  0
  9 13  2  0
  9 19  1  0
 10 25  1  0
 11 24  1  0
 12 14  2  0
 12 28  1  0
 13 30  1  0
 14 19  1  0
 14 23  1  0
 15 23  2  0
 15 26  1  0
 16 22  2  0
 16 29  1  0
 17 20  1  0
 17 24  1  0
 17 27  2  0
 18 21  1  0
 20 25  1  0
 21 26  1  0
M  END
