BEN-VAN-d8fd1356-17
     RDKit          3D

 25 28  0  0  0  0  0  0  0  0999 V2000
    4.3548    0.9070   21.2176 C   0  0  0  0  0  0  0  0  0  0  0  0
   10.1588   -2.6280   23.2938 C   0  0  0  0  0  0  0  0  0  0  0  0
    6.7295    0.8529   21.5948 C   0  0  0  0  0  0  0  0  0  0  0  0
    7.9231   -1.7760   23.7096 C   0  0  0  0  0  0  0  0  0  0  0  0
    4.1886    0.7442   22.5835 C   0  0  0  0  0  0  0  0  0  0  0  0
    6.9671    0.6391   18.6303 C   0  0  0  0  0  0  0  0  0  0  0  0
    5.5965    1.7281   17.2916 C   0  0  0  0  0  0  0  0  0  0  0  0
   10.6423   -1.3059   23.2341 C   0  0  0  0  0  0  0  0  0  0  0  0
    5.6527    0.9615   20.7218 C   0  0  0  0  0  0  0  0  0  0  0  0
   11.9245   -0.7280   23.0170 C   0  0  0  0  0  0  0  0  0  0  0  0
    9.7435   -0.2525   23.4155 C   0  0  0  0  0  0  0  0  0  0  0  0
    8.3798   -0.4561   23.6547 C   0  0  0  0  0  0  0  0  0  0  0  0
    8.7971   -2.8467   23.5322 C   0  0  0  0  0  0  0  0  0  0  0  0
    5.8799    1.1295   19.3144 C   0  0  0  0  0  0  0  0  0  0  0  0
    6.4570    0.6927   22.9438 C   0  0  0  0  0  0  0  0  0  0  0  0
   11.7819    0.6394   23.0695 C   0  0  0  0  0  0  0  0  0  0  0  0
   13.6076   -1.4469   21.3032 C   0  0  0  0  0  0  0  0  0  0  0  0
   13.1859   -1.4579   22.7760 C   0  0  0  0  0  0  0  0  0  0  0  0
    5.2099    0.6352   23.4625 N   0  0  0  0  0  0  0  0  0  0  0  0
    5.0303    1.8062   18.4754 N   0  0  0  0  0  0  0  0  0  0  0  0
    6.7713    1.0301   17.3357 N   0  0  0  0  0  0  0  0  0  0  0  0
   10.4629    0.9165   23.3106 N   0  0  0  0  0  0  0  0  0  0  0  0
    7.5103    0.5829   23.8323 O   0  0  0  0  0  0  0  0  0  0  0  0
    8.3310   -4.1016   23.5935 F   0  0  0  0  0  0  0  0  0  0  0  0
   12.7509    1.5434   22.9145 F   0  0  0  0  0  0  0  0  0  0  0  0
  1  5  2  0
  1  9  1  0
  2  8  2  0
  2 13  1  0
  3  9  2  0
  3 15  1  0
  4 12  1  0
  4 13  2  0
  5 19  1  0
  6 14  2  0
  6 21  1  0
  7 20  2  0
  7 21  1  0
  8 10  1  0
  8 11  1  0
  9 14  1  0
 10 16  2  0
 10 18  1  0
 11 12  2  0
 11 22  1  0
 12 23  1  0
 13 24  1  0
 14 20  1  0
 15 19  2  0
 15 23  1  0
 16 22  1  0
 16 25  1  0
 17 18  1  0
M  END
