BEN-VAN-ed886787-14
     RDKit          3D

 29 31  0  0  0  0  0  0  0  0999 V2000
    7.5794    7.1060   23.1254 C   0  0  0  0  0  0  0  0  0  0  0  0
    8.4742    6.0699   22.8823 C   0  0  0  0  0  0  0  0  0  0  0  0
   13.0504    0.9643   22.6191 C   0  0  0  0  0  0  0  0  0  0  0  0
    7.2728   -3.1195   22.2425 C   0  0  0  0  0  0  0  0  0  0  0  0
   13.0340   -0.3008   22.0319 C   0  0  0  0  0  0  0  0  0  0  0  0
    6.5523   -1.9303   22.2346 C   0  0  0  0  0  0  0  0  0  0  0  0
   11.3219    0.2722   24.1587 C   0  0  0  0  0  0  0  0  0  0  0  0
    7.9447    8.0761   24.0449 C   0  0  0  0  0  0  0  0  0  0  0  0
    9.9606    7.0540   24.4565 C   0  0  0  0  0  0  0  0  0  0  0  0
   11.3055   -0.9929   23.5715 C   0  0  0  0  0  0  0  0  0  0  0  0
    9.6897    6.0360   23.5565 C   0  0  0  0  0  0  0  0  0  0  0  0
   12.1944    1.2508   23.6825 C   0  0  0  0  0  0  0  0  0  0  0  0
    8.5209   -3.1656   22.8536 C   0  0  0  0  0  0  0  0  0  0  0  0
   12.1615   -1.2794   22.5081 C   0  0  0  0  0  0  0  0  0  0  0  0
    9.0003   -2.0043   23.4379 C   0  0  0  0  0  0  0  0  0  0  0  0
    7.1197   -0.8243   22.8467 C   0  0  0  0  0  0  0  0  0  0  0  0
   11.8650    4.8285   23.9248 C   0  0  0  0  0  0  0  0  0  0  0  0
    5.8590    2.6920   23.2583 C   0  0  0  0  0  0  0  0  0  0  0  0
   10.3566   -2.0139   24.1110 C   0  0  0  0  0  0  0  0  0  0  0  0
   12.5627    3.5853   23.4174 C   0  0  0  0  0  0  0  0  0  0  0  0
    6.8475    1.5882   23.4224 C   0  0  0  0  0  0  0  0  0  0  0  0
    9.1164    8.0768   24.7191 N   0  0  0  0  0  0  0  0  0  0  0  0
    8.3294   -0.8306   23.4502 N   0  0  0  0  0  0  0  0  0  0  0  0
   10.6205    4.9944   23.3305 N   0  0  0  0  0  0  0  0  0  0  0  0
    6.3744    0.3809   22.8278 N   0  0  0  0  0  0  0  0  0  0  0  0
   12.4063    5.5511   24.7562 O   0  0  0  0  0  0  0  0  0  0  0  0
   12.2111    2.4854   24.2554 O   0  0  0  0  0  0  0  0  0  0  0  0
    9.2294   -4.3013   22.8690 F   0  0  0  0  0  0  0  0  0  0  0  0
   12.1730   -2.8348   21.7599 Cl  0  0  0  0  0  0  0  0  0  0  0  0
  1  2  2  0
  1  8  1  0
  2 11  1  0
  3  5  2  0
  3 12  1  0
  4  6  2  0
  4 13  1  0
  5 14  1  0
  6 16  1  0
  7 10  1  0
  7 12  2  0
  8 22  2  0
  9 11  2  0
  9 22  1  0
 10 14  2  0
 10 19  1  0
 11 24  1  0
 12 27  1  0
 13 15  2  0
 13 28  1  0
 14 29  1  0
 15 19  1  0
 15 23  1  0
 16 23  2  0
 16 25  1  0
 17 20  1  0
 17 24  1  0
 17 26  2  0
 18 21  1  0
 20 27  1  0
 21 25  1  0
M  END
