BEN-DND-031a96cc-4
     RDKit          3D

 21 22  0  0  0  0  0  0  0  0999 V2000
   14.8082   -1.3828   25.9725 C   0  0  0  0  0  0  0  0  0  0  0  0
   14.5327   -2.6446   26.4993 C   0  0  0  0  0  0  0  0  0  0  0  0
   13.9423   -0.8122   25.0396 C   0  0  0  0  0  0  0  0  0  0  0  0
   13.3912   -3.3359   26.0932 C   0  0  0  0  0  0  0  0  0  0  0  0
   12.8009   -1.5035   24.6334 C   0  0  0  0  0  0  0  0  0  0  0  0
   12.5253   -2.7653   25.1602 C   0  0  0  0  0  0  0  0  0  0  0  0
    5.9520   -2.1437   20.7200 C   0  0  0  0  0  0  0  0  0  0  0  0
    5.5121   -3.2367   21.3581 C   0  0  0  0  0  0  0  0  0  0  0  0
    5.7092   -1.9787   19.2636 C   0  0  0  0  0  0  0  0  0  0  0  0
   10.4067   -3.0503   23.8356 C   0  0  0  0  0  0  0  0  0  0  0  0
    8.2347   -3.8399   24.7067 C   0  0  0  0  0  0  0  0  0  0  0  0
    8.7825   -4.0356   22.2480 C   0  0  0  0  0  0  0  0  0  0  0  0
    7.0587   -4.7868   24.5115 C   0  0  0  0  0  0  0  0  0  0  0  0
    7.6036   -4.9821   22.0694 C   0  0  0  0  0  0  0  0  0  0  0  0
    9.3338   -4.0825   23.6727 C   0  0  0  0  0  0  0  0  0  0  0  0
    5.7244   -3.4732   22.8192 C   0  0  0  0  0  0  0  0  0  0  0  0
    6.2283   -0.8015   18.7758 N   0  0  0  0  0  0  0  0  0  0  0  0
   11.3674   -3.4668   24.7484 N   0  0  0  0  0  0  0  0  0  0  0  0
    6.5336   -4.7108   23.0986 N   0  0  0  0  0  0  0  0  0  0  0  0
    5.1124   -2.8045   18.5817 O   0  0  0  0  0  0  0  0  0  0  0  0
   10.3687   -1.9996   23.2035 O   0  0  0  0  0  0  0  0  0  0  0  0
  1  2  2  0
  1  3  1  0
  2  4  1  0
  3  5  2  0
  4  6  2  0
  5  6  1  0
  6 18  1  0
  7  8  2  0
  7  9  1  0
  8 16  1  0
  9 17  1  0
  9 20  2  0
 10 15  1  0
 10 18  1  0
 10 21  2  0
 11 13  1  0
 11 15  1  0
 12 14  1  0
 12 15  1  0
 13 19  1  0
 14 19  1  0
 16 19  1  0
M  CHG  1  19   1
M  END
