BEN-VAN-c986b20b-7
     RDKit          3D

 27 29  0  0  0  0  0  0  0  0999 V2000
   10.6620   -0.6315   23.9722 C   0  0  0  0  0  0  0  0  0  0  0  0
   11.7022   -0.6706   21.7920 C   0  0  0  0  0  0  0  0  0  0  0  0
    8.0023   -3.3685   21.4539 C   0  0  0  0  0  0  0  0  0  0  0  0
    6.1741   -1.6117   20.5700 C   0  0  0  0  0  0  0  0  0  0  0  0
    9.4313   -1.4501   22.0611 C   0  0  0  0  0  0  0  0  0  0  0  0
   11.7657   -0.3847   23.1558 C   0  0  0  0  0  0  0  0  0  0  0  0
    9.4948   -1.1643   23.4249 C   0  0  0  0  0  0  0  0  0  0  0  0
   10.5350   -1.2033   21.2447 C   0  0  0  0  0  0  0  0  0  0  0  0
    8.2048   -2.0047   21.5128 C   0  0  0  0  0  0  0  0  0  0  0  0
    6.7989   -3.7705   20.9112 C   0  0  0  0  0  0  0  0  0  0  0  0
   10.6032    5.0389   24.8926 C   0  0  0  0  0  0  0  0  0  0  0  0
   12.2518    3.3807   25.7010 C   0  0  0  0  0  0  0  0  0  0  0  0
   12.2187    3.9001   23.2922 C   0  0  0  0  0  0  0  0  0  0  0  0
   12.2449    1.8890   25.4004 C   0  0  0  0  0  0  0  0  0  0  0  0
   12.2132    2.4152   22.9551 C   0  0  0  0  0  0  0  0  0  0  0  0
    6.4910   -5.2262   20.8017 C   0  0  0  0  0  0  0  0  0  0  0  0
   10.0156    5.7770   23.7163 C   0  0  0  0  0  0  0  0  0  0  0  0
    7.3261   -2.9808   25.6593 C   0  0  0  0  0  0  0  0  0  0  0  0
   13.0209    0.1883   23.7449 C   0  0  0  0  0  0  0  0  0  0  0  0
    8.6383   -2.3017   25.3298 C   0  0  0  0  0  0  0  0  0  0  0  0
    7.3087   -1.0944   21.0784 N   0  0  0  0  0  0  0  0  0  0  0  0
    5.8583   -2.9160   20.4578 N   0  0  0  0  0  0  0  0  0  0  0  0
   11.6308    4.1387   24.6148 N   0  0  0  0  0  0  0  0  0  0  0  0
   12.9075    1.6530   24.0616 N   0  0  0  0  0  0  0  0  0  0  0  0
   10.1592    5.2554   26.0231 O   0  0  0  0  0  0  0  0  0  0  0  0
    8.4330   -1.3941   24.2500 O   0  0  0  0  0  0  0  0  0  0  0  0
   10.5161   -1.5371   19.5469 Cl  0  0  0  0  0  0  0  0  0  0  0  0
  1  6  2  0
  1  7  1  0
  2  6  1  0
  2  8  2  0
  3  9  2  0
  3 10  1  0
  4 21  2  0
  4 22  1  0
  5  7  2  0
  5  8  1  0
  5  9  1  0
  6 19  1  0
  7 26  1  0
  8 27  1  0
  9 21  1  0
 10 16  1  0
 10 22  2  0
 11 17  1  0
 11 23  1  0
 11 25  2  0
 12 14  1  0
 12 23  1  0
 13 15  1  0
 13 23  1  0
 14 24  1  0
 15 24  1  0
 18 20  1  0
 19 24  1  0
 20 26  1  0
M  CHG  1  24   1
M  END
