BEN-VAN-d8fd1356-6
     RDKit          3D

 27 30  0  0  0  0  0  0  0  0999 V2000
    5.8843   -3.6269   22.6156 C   0  0  0  0  0  0  0  0  0  0  0  0
    8.1543   -3.1366   21.9901 C   0  0  0  0  0  0  0  0  0  0  0  0
   11.6073   -2.1147   22.7166 C   0  0  0  0  0  0  0  0  0  0  0  0
    6.3670   -4.0182   23.8540 C   0  0  0  0  0  0  0  0  0  0  0  0
    6.8462   -0.3876   19.2372 C   0  0  0  0  0  0  0  0  0  0  0  0
    9.0281    0.1287   25.7905 C   0  0  0  0  0  0  0  0  0  0  0  0
    5.7035    0.8523   20.5362 C   0  0  0  0  0  0  0  0  0  0  0  0
   10.7358    0.0138   24.3139 C   0  0  0  0  0  0  0  0  0  0  0  0
    6.8015   -3.1790   21.6715 C   0  0  0  0  0  0  0  0  0  0  0  0
   10.0514    0.8591   25.2316 C   0  0  0  0  0  0  0  0  0  0  0  0
   10.0958   -1.2271   24.3442 C   0  0  0  0  0  0  0  0  0  0  0  0
   10.5082   -2.3089   23.5581 C   0  0  0  0  0  0  0  0  0  0  0  0
   12.2653   -0.8874   22.6657 C   0  0  0  0  0  0  0  0  0  0  0  0
   11.8417    0.1858   23.4579 C   0  0  0  0  0  0  0  0  0  0  0  0
    6.2711   -1.2415   20.1485 C   0  0  0  0  0  0  0  0  0  0  0  0
    8.5354   -3.5497   23.2566 C   0  0  0  0  0  0  0  0  0  0  0  0
   11.8751    3.8733   26.8106 C   0  0  0  0  0  0  0  0  0  0  0  0
    6.3366   -2.7457   20.3230 C   0  0  0  0  0  0  0  0  0  0  0  0
   10.3420    2.2700   25.5621 C   0  0  0  0  0  0  0  0  0  0  0  0
   11.5546    2.4194   26.5018 C   0  0  0  0  0  0  0  0  0  0  0  0
    6.4892    0.9144   19.4842 N   0  0  0  0  0  0  0  0  0  0  0  0
    7.6736   -3.9911   24.2001 N   0  0  0  0  0  0  0  0  0  0  0  0
    9.0632   -1.1284   25.2493 N   0  0  0  0  0  0  0  0  0  0  0  0
    5.5424   -0.4327   20.9744 N   0  0  0  0  0  0  0  0  0  0  0  0
    9.8749   -3.5188   23.5972 O   0  0  0  0  0  0  0  0  0  0  0  0
   13.3138   -0.7439   21.8417 F   0  0  0  0  0  0  0  0  0  0  0  0
   12.6246    1.7008   23.4196 Cl  0  0  0  0  0  0  0  0  0  0  0  0
  1  4  2  0
  1  9  1  0
  2  9  2  0
  2 16  1  0
  3 12  2  0
  3 13  1  0
  4 22  1  0
  5 15  2  0
  5 21  1  0
  6 10  2  0
  6 23  1  0
  7 21  2  0
  7 24  1  0
  8 10  1  0
  8 11  2  0
  8 14  1  0
  9 18  1  0
 10 19  1  0
 11 12  1  0
 11 23  1  0
 12 25  1  0
 13 14  2  0
 13 26  1  0
 14 27  1  0
 15 18  1  0
 15 24  1  0
 16 22  2  0
 16 25  1  0
 17 20  1  0
 19 20  1  0
M  END
