BEN-VAN-77cef4f8-11
     RDKit          3D

 30 32  0  0  1  0  0  0  0  0999 V2000
   11.1488    3.4397   24.5965 C   0  0  0  0  0  0  0  0  0  0  0  0
    9.1239    2.0622   24.4812 C   0  0  0  0  0  0  0  0  0  0  0  0
    8.4131    0.9378   24.8857 C   0  0  0  0  0  0  0  0  0  0  0  0
   10.8418   -1.3974   22.2741 C   0  0  0  0  0  0  0  0  0  0  0  0
   11.5300   -1.9517   24.9202 C   0  0  0  0  0  0  0  0  0  0  0  0
   10.9068    1.3816   25.9006 C   0  0  0  0  0  0  0  0  0  0  0  0
   10.3952    2.2956   24.9936 C   0  0  0  0  0  0  0  0  0  0  0  0
    9.9468   -2.0780   23.0995 C   0  0  0  0  0  0  0  0  0  0  0  0
   10.2909   -2.3552   24.4226 C   0  0  0  0  0  0  0  0  0  0  0  0
   12.0809   -0.9939   22.7717 C   0  0  0  0  0  0  0  0  0  0  0  0
   12.4250   -1.2711   24.0947 C   0  0  0  0  0  0  0  0  0  0  0  0
    9.0134    0.0844   25.7974 C   0  0  0  0  0  0  0  0  0  0  0  0
    6.2622   -0.0539   18.1733 C   0  0  0  0  0  0  0  0  0  0  0  0
    6.6193   -0.5619   19.3547 C   0  0  0  0  0  0  0  0  0  0  0  0
    6.3642   -1.9916   19.6229 C   0  0  0  0  0  0  0  0  0  0  0  0
    7.0135   -4.0737   20.7644 C   0  0  0  0  0  0  0  0  0  0  0  0
    8.4686   -2.1023   21.0623 C   0  0  0  0  0  0  0  0  0  0  0  0
    7.1981   -4.3766   22.2424 C   0  0  0  0  0  0  0  0  0  0  0  0
    8.6091   -2.5062   22.5367 C   0  0  0  0  0  0  0  0  0  0  0  0
    7.9556   -3.0576   27.4659 C   0  0  0  0  0  0  0  0  0  0  0  0
    9.3492   -3.0819   25.3254 C   0  0  0  0  0  0  0  0  0  0  0  0
    8.9332   -2.2827   26.5821 C   0  0  0  0  0  0  0  0  0  0  0  0
   11.7618    4.3706   24.2734 N   0  0  0  0  0  0  0  0  0  0  0  0
   10.2463    0.2780   26.3172 N   0  0  0  0  0  0  0  0  0  0  0  0
    7.2350   -2.6543   20.4842 N   0  0  0  0  0  0  0  0  0  0  0  0
    8.2985   -1.0216   26.1878 N   0  0  0  0  0  0  0  0  0  0  0  0
    5.3988   -2.5142   19.0633 O   0  0  0  0  0  0  0  0  0  0  0  0
    8.4777   -3.9251   22.6846 O   0  0  0  0  0  0  0  0  0  0  0  0
   12.9399   -0.3394   21.9793 F   0  0  0  0  0  0  0  0  0  0  0  0
   13.6156   -0.8850   24.5718 F   0  0  0  0  0  0  0  0  0  0  0  0
  1  7  1  0
  1 23  3  0
  2  3  2  0
  2  7  1  0
  3 12  1  0
  4  8  2  0
  4 10  1  0
  5  9  2  0
  5 11  1  0
  6  7  2  0
  6 24  1  0
  8  9  1  0
  8 19  1  0
  9 21  1  0
 10 11  2  0
 10 29  1  0
 11 30  1  0
 12 24  2  0
 12 26  1  0
 13 14  2  0
 14 15  1  0
 15 25  1  0
 15 27  2  0
 16 18  1  0
 16 25  1  0
 17 19  1  0
 17 25  1  0
 18 28  1  0
 19 28  1  0
 20 22  1  0
 21 22  1  0
 22 26  1  0
M  END
