BEN-VAN-d8fd1356-16
     RDKit          3D

 25 27  0  0  0  0  0  0  0  0999 V2000
    9.6500   -1.8820   22.7447 C   0  0  0  0  0  0  0  0  0  0  0  0
    4.5430    1.7541   21.7540 C   0  0  0  0  0  0  0  0  0  0  0  0
    4.5450    1.6670   19.3505 C   0  0  0  0  0  0  0  0  0  0  0  0
    7.2406   -1.6075   22.8716 C   0  0  0  0  0  0  0  0  0  0  0  0
   10.4441    1.6858   22.7094 C   0  0  0  0  0  0  0  0  0  0  0  0
    9.8009   -0.4810   22.7394 C   0  0  0  0  0  0  0  0  0  0  0  0
    3.9753    2.1149   20.5372 C   0  0  0  0  0  0  0  0  0  0  0  0
   10.9205    0.3954   22.6823 C   0  0  0  0  0  0  0  0  0  0  0  0
    8.6574    0.3184   22.8009 C   0  0  0  0  0  0  0  0  0  0  0  0
    7.3655   -0.2153   22.8677 C   0  0  0  0  0  0  0  0  0  0  0  0
    8.3638   -2.4299   22.8111 C   0  0  0  0  0  0  0  0  0  0  0  0
    5.6712    0.9500   21.7303 C   0  0  0  0  0  0  0  0  0  0  0  0
    5.6731    0.8670   19.4344 C   0  0  0  0  0  0  0  0  0  0  0  0
    2.7606    2.9786   20.5049 C   0  0  0  0  0  0  0  0  0  0  0  0
   14.3514   -0.9094   23.8788 C   0  0  0  0  0  0  0  0  0  0  0  0
   12.3419    0.0022   22.6075 C   0  0  0  0  0  0  0  0  0  0  0  0
   12.8987   -0.4692   23.9659 C   0  0  0  0  0  0  0  0  0  0  0  0
    6.2529    0.4955   20.5978 N   0  0  0  0  0  0  0  0  0  0  0  0
    9.0780    1.6291   22.7812 N   0  0  0  0  0  0  0  0  0  0  0  0
    5.6735   -1.2506   17.8156 N   0  0  0  0  0  0  0  0  0  0  0  0
    6.1987    1.0997   16.8961 O   0  0  0  0  0  0  0  0  0  0  0  0
    7.8770   -0.0442   18.3869 O   0  0  0  0  0  0  0  0  0  0  0  0
    6.2543    0.5777   22.9270 O   0  0  0  0  0  0  0  0  0  0  0  0
    8.2122   -3.7614   22.8169 F   0  0  0  0  0  0  0  0  0  0  0  0
    6.4884    0.2370   18.0369 S   0  0  0  0  0  0  0  0  0  0  0  0
  1  6  2  0
  1 11  1  0
  2  7  2  0
  2 12  1  0
  3  7  1  0
  3 13  2  0
  4 10  1  0
  4 11  2  0
  5  8  2  0
  5 19  1  0
  6  8  1  0
  6  9  1  0
  7 14  1  0
  8 16  1  0
  9 10  2  0
  9 19  1  0
 10 23  1  0
 11 24  1  0
 12 18  2  0
 12 23  1  0
 13 18  1  0
 13 25  1  0
 15 17  1  0
 16 17  1  0
 20 25  1  0
 21 25  2  0
 22 25  2  0
M  END
