BEN-DND-031a96cc-3
     RDKit          3D

 26 29  0  0  1  0  0  0  0  0999 V2000
   10.3498    8.0550   24.7347 C   0  0  0  0  0  0  0  0  0  0  0  0
    9.4354    7.5552   23.8076 C   0  0  0  0  0  0  0  0  0  0  0  0
   11.4493    7.2852   25.1146 C   0  0  0  0  0  0  0  0  0  0  0  0
    7.7608   -3.3963   24.8125 C   0  0  0  0  0  0  0  0  0  0  0  0
    8.9564   -2.9272   24.2799 C   0  0  0  0  0  0  0  0  0  0  0  0
    9.6204    6.2856   23.2603 C   0  0  0  0  0  0  0  0  0  0  0  0
   11.6343    6.0156   24.5673 C   0  0  0  0  0  0  0  0  0  0  0  0
    7.7611   -4.6502   25.4020 C   0  0  0  0  0  0  0  0  0  0  0  0
    9.9953   -4.9549   24.9622 C   0  0  0  0  0  0  0  0  0  0  0  0
   10.0997   -3.7153   24.3520 C   0  0  0  0  0  0  0  0  0  0  0  0
   10.7199    5.5158   23.6402 C   0  0  0  0  0  0  0  0  0  0  0  0
   13.3104   -1.5304   24.0609 C   0  0  0  0  0  0  0  0  0  0  0  0
   11.9378    3.3348   23.3500 C   0  0  0  0  0  0  0  0  0  0  0  0
   13.1483    1.4941   22.1933 C   0  0  0  0  0  0  0  0  0  0  0  0
   10.9020    1.0579   23.3009 C   0  0  0  0  0  0  0  0  0  0  0  0
   13.8184    0.7909   23.3724 C   0  0  0  0  0  0  0  0  0  0  0  0
   11.6415    0.3508   24.4375 C   0  0  0  0  0  0  0  0  0  0  0  0
   11.3866   -3.2449   23.7954 C   0  0  0  0  0  0  0  0  0  0  0  0
   12.3220   -2.4831   24.6850 C   0  0  0  0  0  0  0  0  0  0  0  0
   11.7763    2.0715   22.5556 C   0  0  0  0  0  0  0  0  0  0  0  0
    8.8514   -5.4444   25.4909 N   0  0  0  0  0  0  0  0  0  0  0  0
   12.9180   -0.1958   23.9674 N   0  0  0  0  0  0  0  0  0  0  0  0
   10.9074    4.2278   23.0847 N   0  0  0  0  0  0  0  0  0  0  0  0
   14.3972   -1.9618   23.6673 O   0  0  0  0  0  0  0  0  0  0  0  0
   12.8853    3.4784   24.1158 O   0  0  0  0  0  0  0  0  0  0  0  0
   12.5835   -3.8324   24.3359 O   0  0  0  0  0  0  0  0  0  0  0  0
  1  2  2  0
  1  3  1  0
  2  6  1  0
  3  7  2  0
  4  5  2  0
  4  8  1  0
  5 10  1  0
  6 11  2  0
  7 11  1  0
  8 21  2  0
  9 10  2  0
  9 21  1  0
 10 18  1  0
 11 23  1  0
 12 19  1  0
 12 22  1  0
 12 24  2  0
 13 20  1  0
 13 23  1  0
 13 25  2  0
 14 16  1  0
 14 20  1  0
 15 17  1  0
 15 20  1  0
 16 22  1  0
 17 22  1  0
 18 19  1  0
 18 26  1  0
 19 26  1  0
M  END
