BEN-VAN-ed886787-8
     RDKit          3D

 31 33  0  0  0  0  0  0  0  0999 V2000
    8.2234   -4.3161   22.3288 C   0  0  0  0  0  0  0  0  0  0  0  0
    7.5788    7.0901   22.2079 C   0  0  0  0  0  0  0  0  0  0  0  0
    6.5295    6.2632   21.8226 C   0  0  0  0  0  0  0  0  0  0  0  0
    7.7490   -5.5506   21.8996 C   0  0  0  0  0  0  0  0  0  0  0  0
   11.5510    4.3639   24.0688 C   0  0  0  0  0  0  0  0  0  0  0  0
    9.8884    2.6110   24.0704 C   0  0  0  0  0  0  0  0  0  0  0  0
   12.1488    2.1313   23.3649 C   0  0  0  0  0  0  0  0  0  0  0  0
    6.0702   -3.3995   21.9040 C   0  0  0  0  0  0  0  0  0  0  0  0
   10.2433    3.9395   24.3044 C   0  0  0  0  0  0  0  0  0  0  0  0
   12.5037    3.4598   23.5989 C   0  0  0  0  0  0  0  0  0  0  0  0
    7.3743   -3.2150   22.3340 C   0  0  0  0  0  0  0  0  0  0  0  0
   10.8411    1.7069   23.6006 C   0  0  0  0  0  0  0  0  0  0  0  0
    8.4721    6.6616   23.1835 C   0  0  0  0  0  0  0  0  0  0  0  0
    8.2738    5.4076   23.7386 C   0  0  0  0  0  0  0  0  0  0  0  0
    6.4183    5.0270   22.4384 C   0  0  0  0  0  0  0  0  0  0  0  0
    6.4281   -5.6307   21.4892 C   0  0  0  0  0  0  0  0  0  0  0  0
    9.0998   -1.6090   23.2218 C   0  0  0  0  0  0  0  0  0  0  0  0
   14.1006    4.4169   21.9196 C   0  0  0  0  0  0  0  0  0  0  0  0
    5.8410    1.8525   21.8218 C   0  0  0  0  0  0  0  0  0  0  0  0
    9.2248    4.9062   24.8067 C   0  0  0  0  0  0  0  0  0  0  0  0
   13.9018    3.9137   23.3470 C   0  0  0  0  0  0  0  0  0  0  0  0
    9.1610   -0.1377   23.5842 C   0  0  0  0  0  0  0  0  0  0  0  0
    5.1182    2.9031   22.5941 C   0  0  0  0  0  0  0  0  0  0  0  0
    5.5734   -4.5832   21.4802 N   0  0  0  0  0  0  0  0  0  0  0  0
    7.2664    4.5763   23.3899 N   0  0  0  0  0  0  0  0  0  0  0  0
    7.8281   -1.9458   22.7656 N   0  0  0  0  0  0  0  0  0  0  0  0
   10.4822    0.3636   23.3639 N   0  0  0  0  0  0  0  0  0  0  0  0
    5.3420    4.1970   22.0369 N   0  0  0  0  0  0  0  0  0  0  0  0
   10.0725   -2.3492   23.3267 O   0  0  0  0  0  0  0  0  0  0  0  0
    9.4869    7.4452   23.5683 F   0  0  0  0  0  0  0  0  0  0  0  0
    5.9564   -6.8161   21.0730 F   0  0  0  0  0  0  0  0  0  0  0  0
  1  4  2  0
  1 11  1  0
  2  3  2  0
  2 13  1  0
  3 15  1  0
  4 16  1  0
  5  9  2  0
  5 10  1  0
  6  9  1  0
  6 12  2  0
  7 10  2  0
  7 12  1  0
  8 11  2  0
  8 24  1  0
  9 20  1  0
 10 21  1  0
 11 26  1  0
 12 27  1  0
 13 14  2  0
 13 30  1  0
 14 20  1  0
 14 25  1  0
 15 25  2  0
 15 28  1  0
 16 24  2  0
 16 31  1  0
 17 22  1  0
 17 26  1  0
 17 29  2  0
 18 21  1  0
 19 23  1  0
 22 27  1  0
 23 28  1  0
M  END
