BEN-VAN-d8fd1356-10
     RDKit          3D

 25 28  0  0  0  0  0  0  0  0999 V2000
    5.5762    1.5365   21.4707 C   0  0  0  0  0  0  0  0  0  0  0  0
   12.3329    1.0168   23.6068 C   0  0  0  0  0  0  0  0  0  0  0  0
    7.5886    0.2392   21.6980 C   0  0  0  0  0  0  0  0  0  0  0  0
    9.9883    1.4646   24.0534 C   0  0  0  0  0  0  0  0  0  0  0  0
    5.5028    1.5654   22.8540 C   0  0  0  0  0  0  0  0  0  0  0  0
    7.3102   -0.1484   18.6206 C   0  0  0  0  0  0  0  0  0  0  0  0
   11.9122   -2.5364   22.8597 C   0  0  0  0  0  0  0  0  0  0  0  0
    6.5961    1.3930   17.3381 C   0  0  0  0  0  0  0  0  0  0  0  0
   12.0170   -0.3314   23.3461 C   0  0  0  0  0  0  0  0  0  0  0  0
    6.6420    0.8587   20.8895 C   0  0  0  0  0  0  0  0  0  0  0  0
   12.7790   -1.4741   22.9739 C   0  0  0  0  0  0  0  0  0  0  0  0
   10.6861   -0.7419   23.4483 C   0  0  0  0  0  0  0  0  0  0  0  0
    9.6510    0.1320   23.7994 C   0  0  0  0  0  0  0  0  0  0  0  0
   11.3078    1.9023   23.9592 C   0  0  0  0  0  0  0  0  0  0  0  0
    6.7660    0.8003   19.4539 C   0  0  0  0  0  0  0  0  0  0  0  0
    7.4253    0.3264   23.0711 C   0  0  0  0  0  0  0  0  0  0  0  0
   14.8267   -1.3835   25.2216 C   0  0  0  0  0  0  0  0  0  0  0  0
   14.2375   -1.5228   22.7480 C   0  0  0  0  0  0  0  0  0  0  0  0
   14.9987   -2.1618   23.9268 C   0  0  0  0  0  0  0  0  0  0  0  0
    7.2015    0.2267   17.3048 N   0  0  0  0  0  0  0  0  0  0  0  0
    6.4031    0.9757   23.6721 N   0  0  0  0  0  0  0  0  0  0  0  0
   10.6521   -2.0848   23.1474 N   0  0  0  0  0  0  0  0  0  0  0  0
    6.3130    1.7818   18.6180 N   0  0  0  0  0  0  0  0  0  0  0  0
    8.3525   -0.2819   23.8964 O   0  0  0  0  0  0  0  0  0  0  0  0
   11.6002    3.1862   24.2083 F   0  0  0  0  0  0  0  0  0  0  0  0
  1  5  2  0
  1 10  1  0
  2  9  2  0
  2 14  1  0
  3 10  2  0
  3 16  1  0
  4 13  1  0
  4 14  2  0
  5 21  1  0
  6 15  2  0
  6 20  1  0
  7 11  2  0
  7 22  1  0
  8 20  2  0
  8 23  1  0
  9 11  1  0
  9 12  1  0
 10 15  1  0
 11 18  1  0
 12 13  2  0
 12 22  1  0
 13 24  1  0
 14 25  1  0
 15 23  1  0
 16 21  2  0
 16 24  1  0
 17 19  1  0
 18 19  1  0
M  END
