BEN-VAN-77cef4f8-8
     RDKit          3D

 29 31  0  0  1  0  0  0  0  0999 V2000
   12.4658    4.4151   23.5361 C   0  0  0  0  0  0  0  0  0  0  0  0
   13.2464    2.1429   24.0246 C   0  0  0  0  0  0  0  0  0  0  0  0
   13.3157    0.7978   23.6793 C   0  0  0  0  0  0  0  0  0  0  0  0
    8.2761    0.9237   23.1688 C   0  0  0  0  0  0  0  0  0  0  0  0
   10.4260   -0.4367   24.3133 C   0  0  0  0  0  0  0  0  0  0  0  0
   11.9553    2.5261   22.0643 C   0  0  0  0  0  0  0  0  0  0  0  0
   12.5551    3.0301   23.2071 C   0  0  0  0  0  0  0  0  0  0  0  0
    8.8455   -0.1638   22.5065 C   0  0  0  0  0  0  0  0  0  0  0  0
    9.9204   -0.8440   23.0787 C   0  0  0  0  0  0  0  0  0  0  0  0
    8.7817    1.3311   24.4034 C   0  0  0  0  0  0  0  0  0  0  0  0
    9.8567    0.6509   24.9756 C   0  0  0  0  0  0  0  0  0  0  0  0
   12.6816    0.3937   22.5155 C   0  0  0  0  0  0  0  0  0  0  0  0
    6.1910   -3.1777   19.5834 C   0  0  0  0  0  0  0  0  0  0  0  0
    6.1553   -0.7266   19.2634 C   0  0  0  0  0  0  0  0  0  0  0  0
    7.1497   -1.6085   21.3383 C   0  0  0  0  0  0  0  0  0  0  0  0
    7.3177    0.2510   19.1746 C   0  0  0  0  0  0  0  0  0  0  0  0
    8.2802   -0.5862   21.1682 C   0  0  0  0  0  0  0  0  0  0  0  0
    6.6222   -4.3402   20.4414 C   0  0  0  0  0  0  0  0  0  0  0  0
   12.3308   -2.8643   20.7728 C   0  0  0  0  0  0  0  0  0  0  0  0
   10.5461   -2.0114   22.3889 C   0  0  0  0  0  0  0  0  0  0  0  0
   11.7096   -1.6379   21.4414 C   0  0  0  0  0  0  0  0  0  0  0  0
   12.3931    5.5420   23.8037 N   0  0  0  0  0  0  0  0  0  0  0  0
   12.0009    1.2261   21.6961 N   0  0  0  0  0  0  0  0  0  0  0  0
    6.5327   -1.9062   20.0407 N   0  0  0  0  0  0  0  0  0  0  0  0
   12.7595   -0.9379   22.1874 N   0  0  0  0  0  0  0  0  0  0  0  0
    5.5734   -3.3942   18.5377 O   0  0  0  0  0  0  0  0  0  0  0  0
    7.7998    0.5762   20.4791 O   0  0  0  0  0  0  0  0  0  0  0  0
    8.2343    2.3749   25.0399 F   0  0  0  0  0  0  0  0  0  0  0  0
   10.3431    1.0433   26.1604 F   0  0  0  0  0  0  0  0  0  0  0  0
  1  7  1  0
  1 22  3  0
  2  3  2  0
  2  7  1  0
  3 12  1  0
  4  8  2  0
  4 10  1  0
  5  9  2  0
  5 11  1  0
  6  7  2  0
  6 23  1  0
  8  9  1  0
  8 17  1  0
  9 20  1  0
 10 11  2  0
 10 28  1  0
 11 29  1  0
 12 23  2  0
 12 25  1  0
 13 18  1  0
 13 24  1  0
 13 26  2  0
 14 16  1  0
 14 24  1  0
 15 17  1  0
 15 24  1  0
 16 27  1  0
 17 27  1  0
 19 21  1  0
 20 21  1  0
 21 25  1  0
M  END
