BEN-VAN-d2b455e2-16
     RDKit          3D

 23 25  0  0  1  0  0  0  0  0999 V2000
   12.5701   -1.8948   23.0113 C   0  0  0  0  0  0  0  0  0  0  0  0
   13.3987    3.9597   23.0388 C   0  0  0  0  0  0  0  0  0  0  0  0
   13.7800   -1.7462   22.3697 C   0  0  0  0  0  0  0  0  0  0  0  0
   12.0188   -0.6431   23.4107 C   0  0  0  0  0  0  0  0  0  0  0  0
   12.2849    4.4615   23.6806 C   0  0  0  0  0  0  0  0  0  0  0  0
   12.8285    0.4146   23.0592 C   0  0  0  0  0  0  0  0  0  0  0  0
   11.3648    3.5230   24.1013 C   0  0  0  0  0  0  0  0  0  0  0  0
   12.6388    1.8306   23.2768 C   0  0  0  0  0  0  0  0  0  0  0  0
    8.4047    0.4475   23.7564 C   0  0  0  0  0  0  0  0  0  0  0  0
    9.3393   -2.5694   24.1491 C   0  0  0  0  0  0  0  0  0  0  0  0
   10.2705   -1.7098   25.0051 C   0  0  0  0  0  0  0  0  0  0  0  0
    9.0679   -1.7850   22.8675 C   0  0  0  0  0  0  0  0  0  0  0  0
   10.6909   -0.5115   24.1387 C   0  0  0  0  0  0  0  0  0  0  0  0
    9.5219   -0.3563   23.1531 C   0  0  0  0  0  0  0  0  0  0  0  0
   11.0170    6.5846   23.3484 C   0  0  0  0  0  0  0  0  0  0  0  0
    6.4853    1.9236   23.1914 C   0  0  0  0  0  0  0  0  0  0  0  0
   13.6086    2.6452   22.8192 N   0  0  0  0  0  0  0  0  0  0  0  0
   11.5103    2.1947   23.9151 N   0  0  0  0  0  0  0  0  0  0  0  0
   12.1239    5.8386   23.8770 N   0  0  0  0  0  0  0  0  0  0  0  0
    7.6148    1.0983   22.8280 N   0  0  0  0  0  0  0  0  0  0  0  0
    8.2686    0.4739   24.9740 O   0  0  0  0  0  0  0  0  0  0  0  0
   14.2467   -0.1029   22.2509 S   0  0  0  0  0  0  0  0  0  0  0  0
    9.9132    3.9525   24.9183 Cl  0  0  0  0  0  0  0  0  0  0  0  0
  1  3  2  0
  1  4  1  0
  2  5  2  0
  2 17  1  0
  3 22  1  0
  4  6  2  0
  4 13  1  0
  5  7  1  0
  5 19  1  0
  6  8  1  0
  6 22  1  0
  7 18  2  0
  7 23  1  0
  8 17  2  0
  8 18  1  0
  9 14  1  0
  9 20  1  0
  9 21  2  0
 10 11  1  0
 10 12  1  0
 11 13  1  0
 12 14  1  0
 13 14  1  0
 15 19  1  0
 16 20  1  0
M  END
