BEN-BAS-edf2ae6d-1
     RDKit          3D

 24 26  0  0  1  0  0  0  0  0999 V2000
    6.9938    0.2049   19.7710 C   0  0  0  0  0  0  0  0  0  0  0  0
    8.1116    0.7469   20.4053 C   0  0  0  0  0  0  0  0  0  0  0  0
    6.6171   -1.1134   20.0276 C   0  0  0  0  0  0  0  0  0  0  0  0
   13.4348   -0.1635   21.6506 C   0  0  0  0  0  0  0  0  0  0  0  0
   12.3518    0.0699   22.4906 C   0  0  0  0  0  0  0  0  0  0  0  0
    8.8528   -0.0294   21.2962 C   0  0  0  0  0  0  0  0  0  0  0  0
    7.3582   -1.8897   20.9184 C   0  0  0  0  0  0  0  0  0  0  0  0
   13.7250   -1.4764   21.3160 C   0  0  0  0  0  0  0  0  0  0  0  0
   11.9746   -2.2769   22.5703 C   0  0  0  0  0  0  0  0  0  0  0  0
   11.6025   -1.0016   22.9638 C   0  0  0  0  0  0  0  0  0  0  0  0
    8.4761   -1.3478   21.5528 C   0  0  0  0  0  0  0  0  0  0  0  0
   10.5282    0.3502   24.6992 C   0  0  0  0  0  0  0  0  0  0  0  0
    8.1361   -3.6309   24.7729 C   0  0  0  0  0  0  0  0  0  0  0  0
    9.4393   -2.8368   24.6995 C   0  0  0  0  0  0  0  0  0  0  0  0
    6.9652   -2.7074   25.0747 C   0  0  0  0  0  0  0  0  0  0  0  0
    8.0360   -0.8304   24.0902 C   0  0  0  0  0  0  0  0  0  0  0  0
    9.3003   -1.6312   23.7653 C   0  0  0  0  0  0  0  0  0  0  0  0
   11.9145    0.6509   25.2412 C   0  0  0  0  0  0  0  0  0  0  0  0
   13.0203   -2.5429   21.7558 N   0  0  0  0  0  0  0  0  0  0  0  0
   10.4706   -0.7911   23.8392 N   0  0  0  0  0  0  0  0  0  0  0  0
    9.5673    1.0465   25.0361 O   0  0  0  0  0  0  0  0  0  0  0  0
    6.8790   -1.6731   24.0968 O   0  0  0  0  0  0  0  0  0  0  0  0
    9.2037   -2.1103   22.4253 O   0  0  0  0  0  0  0  0  0  0  0  0
   11.7924    1.3930   26.8504 Cl  0  0  0  0  0  0  0  0  0  0  0  0
  1  2  2  0
  1  3  1  0
  2  6  1  0
  3  7  2  0
  4  5  2  0
  4  8  1  0
  5 10  1  0
  6 11  2  0
  7 11  1  0
  8 19  2  0
  9 10  2  0
  9 19  1  0
 10 20  1  0
 11 23  1  0
 12 18  1  0
 12 20  1  0
 12 21  2  0
 13 14  1  0
 13 15  1  0
 14 17  1  0
 15 22  1  0
 16 17  1  0
 16 22  1  0
 17 20  1  0
 17 23  1  0
 18 24  1  0
M  END
