BEN-VAN-c986b20b-12
     RDKit          3D

 28 30  0  0  0  0  0  0  0  0999 V2000
   10.6449   -0.0799   24.8782 C   0  0  0  0  0  0  0  0  0  0  0  0
   12.2951   -0.3757   23.1386 C   0  0  0  0  0  0  0  0  0  0  0  0
   10.7828    4.0953   23.4061 C   0  0  0  0  0  0  0  0  0  0  0  0
   13.2364    5.0773   23.8809 C   0  0  0  0  0  0  0  0  0  0  0  0
   11.6864    1.8481   23.8607 C   0  0  0  0  0  0  0  0  0  0  0  0
   11.3979   -0.9197   24.0576 C   0  0  0  0  0  0  0  0  0  0  0  0
   10.7891    1.3040   24.7797 C   0  0  0  0  0  0  0  0  0  0  0  0
   12.4393    1.0082   23.0401 C   0  0  0  0  0  0  0  0  0  0  0  0
   11.8463    3.2839   23.7452 C   0  0  0  0  0  0  0  0  0  0  0  0
   11.0625    5.4443   23.3272 C   0  0  0  0  0  0  0  0  0  0  0  0
    7.1505   -5.1924   21.6741 C   0  0  0  0  0  0  0  0  0  0  0  0
    8.2454   -4.7597   23.8501 C   0  0  0  0  0  0  0  0  0  0  0  0
    7.9225   -2.8564   22.3184 C   0  0  0  0  0  0  0  0  0  0  0  0
    9.7014   -4.3704   24.0600 C   0  0  0  0  0  0  0  0  0  0  0  0
    9.3741   -2.4370   22.5069 C   0  0  0  0  0  0  0  0  0  0  0  0
    7.6076   -6.6273   21.7511 C   0  0  0  0  0  0  0  0  0  0  0  0
    9.2296    6.9233   24.1872 C   0  0  0  0  0  0  0  0  0  0  0  0
    7.8318    2.7713   26.2276 C   0  0  0  0  0  0  0  0  0  0  0  0
   11.2423   -2.4082   24.1636 C   0  0  0  0  0  0  0  0  0  0  0  0
    9.9767    6.4006   22.9632 C   0  0  0  0  0  0  0  0  0  0  0  0
    8.7660    1.6033   25.9934 C   0  0  0  0  0  0  0  0  0  0  0  0
   13.0911    3.7430   23.9902 N   0  0  0  0  0  0  0  0  0  0  0  0
   12.2824    5.9718   23.5592 N   0  0  0  0  0  0  0  0  0  0  0  0
    7.7591   -4.2954   22.5509 N   0  0  0  0  0  0  0  0  0  0  0  0
    9.8434   -2.8760   23.8760 N   0  0  0  0  0  0  0  0  0  0  0  0
    6.2772   -4.8807   20.8604 O   0  0  0  0  0  0  0  0  0  0  0  0
   10.0410    2.1011   25.5953 O   0  0  0  0  0  0  0  0  0  0  0  0
   13.3068    1.5144   22.1513 F   0  0  0  0  0  0  0  0  0  0  0  0
  1  6  2  0
  1  7  1  0
  2  6  1  0
  2  8  2  0
  3  9  2  0
  3 10  1  0
  4 22  2  0
  4 23  1  0
  5  7  2  0
  5  8  1  0
  5  9  1  0
  6 19  1  0
  7 27  1  0
  8 28  1  0
  9 22  1  0
 10 20  1  0
 10 23  2  0
 11 16  1  0
 11 24  1  0
 11 26  2  0
 12 14  1  0
 12 24  1  0
 13 15  1  0
 13 24  1  0
 14 25  1  0
 15 25  1  0
 17 20  1  0
 18 21  1  0
 19 25  1  0
 21 27  1  0
M  CHG  1  25   1
M  END
