BEN-VAN-d2b455e2-23
     RDKit          3D

 27 29  0  0  1  0  0  0  0  0999 V2000
    7.5411   -2.8299   23.4451 C   0  0  0  0  0  0  0  0  0  0  0  0
   12.6246   -0.3888   24.4146 C   0  0  0  0  0  0  0  0  0  0  0  0
    8.6348   -1.9268   23.3084 C   0  0  0  0  0  0  0  0  0  0  0  0
   13.6408   -0.9079   23.6385 C   0  0  0  0  0  0  0  0  0  0  0  0
    9.8354   -2.5139   23.6422 C   0  0  0  0  0  0  0  0  0  0  0  0
   13.3025   -1.9985   22.8637 C   0  0  0  0  0  0  0  0  0  0  0  0
    7.9477   -4.0730   23.8780 C   0  0  0  0  0  0  0  0  0  0  0  0
   11.1667   -1.9516   23.6404 C   0  0  0  0  0  0  0  0  0  0  0  0
    7.7466    0.0143   20.5158 C   0  0  0  0  0  0  0  0  0  0  0  0
    7.1046   -0.1635   18.3486 C   0  0  0  0  0  0  0  0  0  0  0  0
    7.5303    1.6510   23.3742 C   0  0  0  0  0  0  0  0  0  0  0  0
    8.2779    0.4917   24.0108 C   0  0  0  0  0  0  0  0  0  0  0  0
    6.5244    0.9561   22.4678 C   0  0  0  0  0  0  0  0  0  0  0  0
    8.4752   -0.4942   22.8490 C   0  0  0  0  0  0  0  0  0  0  0  0
    7.2676   -0.2621   21.9104 C   0  0  0  0  0  0  0  0  0  0  0  0
   15.5033    0.2968   24.7811 C   0  0  0  0  0  0  0  0  0  0  0  0
    6.1771   -0.4657   16.1737 C   0  0  0  0  0  0  0  0  0  0  0  0
   11.3713   -0.8875   24.4401 N   0  0  0  0  0  0  0  0  0  0  0  0
   12.0706   -2.5483   22.8402 N   0  0  0  0  0  0  0  0  0  0  0  0
    6.8097   -0.3542   19.6367 N   0  0  0  0  0  0  0  0  0  0  0  0
   14.9278   -0.3612   23.6408 N   0  0  0  0  0  0  0  0  0  0  0  0
    8.8570    0.5098   20.3298 O   0  0  0  0  0  0  0  0  0  0  0  0
    8.1225    0.3064   17.8463 O   0  0  0  0  0  0  0  0  0  0  0  0
    6.0411   -0.5933   17.5949 O   0  0  0  0  0  0  0  0  0  0  0  0
   14.2381   -2.5604   22.0812 F   0  0  0  0  0  0  0  0  0  0  0  0
    7.1173   -5.0999   24.0862 F   0  0  0  0  0  0  0  0  0  0  0  0
    9.6415   -4.1475   24.1179 S   0  0  0  0  0  0  0  0  0  0  0  0
  1  3  1  0
  1  7  2  0
  2  4  2  0
  2 18  1  0
  3  5  2  0
  3 14  1  0
  4  6  1  0
  4 21  1  0
  5  8  1  0
  5 27  1  0
  6 19  2  0
  6 25  1  0
  7 26  1  0
  7 27  1  0
  8 18  2  0
  8 19  1  0
  9 15  1  0
  9 20  1  0
  9 22  2  0
 10 20  1  0
 10 23  2  0
 10 24  1  0
 11 12  1  0
 11 13  1  0
 12 14  1  0
 13 15  1  0
 14 15  1  0
 16 21  1  0
 17 24  1  0
M  CHG  1  20  -1
M  END
