BEN-VAN-5787f7d3-5
     RDKit          3D

 28 31  0  0  0  0  0  0  0  0999 V2000
   13.3090   -1.3159   23.5297 C   0  0  0  0  0  0  0  0  0  0  0  0
    9.8969    6.3009   24.2492 C   0  0  0  0  0  0  0  0  0  0  0  0
   13.3169    0.0407   23.8543 C   0  0  0  0  0  0  0  0  0  0  0  0
   12.0980   -1.9990   23.4171 C   0  0  0  0  0  0  0  0  0  0  0  0
    9.6020    4.9770   23.8449 C   0  0  0  0  0  0  0  0  0  0  0  0
    6.1257   -3.9932   27.8485 C   0  0  0  0  0  0  0  0  0  0  0  0
   10.9030    0.0310   23.9539 C   0  0  0  0  0  0  0  0  0  0  0  0
    6.5782   -5.2845   28.0668 C   0  0  0  0  0  0  0  0  0  0  0  0
    7.8117   -5.2755   26.1286 C   0  0  0  0  0  0  0  0  0  0  0  0
   11.1526    6.2586   24.8089 C   0  0  0  0  0  0  0  0  0  0  0  0
    7.4168   -3.9839   25.8194 C   0  0  0  0  0  0  0  0  0  0  0  0
   12.1140    0.7141   24.0664 C   0  0  0  0  0  0  0  0  0  0  0  0
    6.5577   -3.3375   26.7011 C   0  0  0  0  0  0  0  0  0  0  0  0
   10.8950   -1.3255   23.6292 C   0  0  0  0  0  0  0  0  0  0  0  0
   10.6987    4.2201   24.1861 C   0  0  0  0  0  0  0  0  0  0  0  0
    7.2175   -3.4396   23.3218 C   0  0  0  0  0  0  0  0  0  0  0  0
    7.6991   -2.8609   22.2198 C   0  0  0  0  0  0  0  0  0  0  0  0
    9.0715   -2.6633   24.6261 C   0  0  0  0  0  0  0  0  0  0  0  0
    7.9108   -3.3417   24.5849 C   0  0  0  0  0  0  0  0  0  0  0  0
    8.9650   -2.0733   22.2657 C   0  0  0  0  0  0  0  0  0  0  0  0
   12.1238    2.1283   24.4047 C   0  0  0  0  0  0  0  0  0  0  0  0
    6.0813   -1.9441   26.4472 C   0  0  0  0  0  0  0  0  0  0  0  0
    7.4130   -5.9449   27.2335 N   0  0  0  0  0  0  0  0  0  0  0  0
    9.6361   -2.0359   23.5118 N   0  0  0  0  0  0  0  0  0  0  0  0
   10.9725    2.8380   24.0293 N   0  0  0  0  0  0  0  0  0  0  0  0
    9.2945   -1.4900   21.2328 O   0  0  0  0  0  0  0  0  0  0  0  0
   13.0994    2.6603   24.9526 O   0  0  0  0  0  0  0  0  0  0  0  0
   11.6484    4.9939   24.7742 O   0  0  0  0  0  0  0  0  0  0  0  0
  1  3  2  0
  1  4  1  0
  2  5  1  0
  2 10  2  0
  3 12  1  0
  4 14  2  0
  5 15  2  0
  6  8  2  0
  6 13  1  0
  7 12  2  0
  7 14  1  0
  8 23  1  0
  9 11  1  0
  9 23  2  0
 10 28  1  0
 11 13  2  0
 11 19  1  0
 12 21  1  0
 13 22  1  0
 14 24  1  0
 15 25  1  0
 15 28  1  0
 16 17  2  0
 16 19  1  0
 17 20  1  0
 18 19  2  0
 18 24  1  0
 20 24  1  0
 20 26  2  0
 21 25  1  0
 21 27  2  0
M  END
