BEN-VAN-ed886787-18
     RDKit          3D

 30 32  0  0  0  0  0  0  0  0999 V2000
    7.5530   -3.4167   26.2791 C   0  0  0  0  0  0  0  0  0  0  0  0
    7.8416   -2.0885   26.5924 C   0  0  0  0  0  0  0  0  0  0  0  0
   10.1671    4.5937   23.4612 C   0  0  0  0  0  0  0  0  0  0  0  0
   13.6468   -1.8527   22.8788 C   0  0  0  0  0  0  0  0  0  0  0  0
    6.9863   -3.7349   25.0449 C   0  0  0  0  0  0  0  0  0  0  0  0
   11.4307    4.5729   22.8710 C   0  0  0  0  0  0  0  0  0  0  0  0
   12.5677   -1.9422   22.0065 C   0  0  0  0  0  0  0  0  0  0  0  0
   10.7151    2.5962   24.7049 C   0  0  0  0  0  0  0  0  0  0  0  0
    6.9966   -1.3966   24.4373 C   0  0  0  0  0  0  0  0  0  0  0  0
   11.9787    2.5753   24.1146 C   0  0  0  0  0  0  0  0  0  0  0  0
    9.8093    3.6054   24.3782 C   0  0  0  0  0  0  0  0  0  0  0  0
    7.5634   -1.0785   25.6715 C   0  0  0  0  0  0  0  0  0  0  0  0
   13.7782   -0.7394   23.7014 C   0  0  0  0  0  0  0  0  0  0  0  0
    6.7081   -2.7249   24.1240 C   0  0  0  0  0  0  0  0  0  0  0  0
   12.3365    3.5637   23.1976 C   0  0  0  0  0  0  0  0  0  0  0  0
   12.8112    0.2491   23.6142 C   0  0  0  0  0  0  0  0  0  0  0  0
   11.6548   -0.9000   21.9954 C   0  0  0  0  0  0  0  0  0  0  0  0
    7.6454    1.3941   25.1983 C   0  0  0  0  0  0  0  0  0  0  0  0
    8.5280   -0.3737   19.9781 C   0  0  0  0  0  0  0  0  0  0  0  0
   12.9208    1.4779   24.4920 C   0  0  0  0  0  0  0  0  0  0  0  0
    8.1006    2.6461   25.9229 C   0  0  0  0  0  0  0  0  0  0  0  0
    9.5551    0.0001   20.9920 C   0  0  0  0  0  0  0  0  0  0  0  0
   11.7491    0.1973   22.7795 N   0  0  0  0  0  0  0  0  0  0  0  0
    7.8558    0.2689   25.9909 N   0  0  0  0  0  0  0  0  0  0  0  0
    8.5319    3.6273   24.9760 N   0  0  0  0  0  0  0  0  0  0  0  0
   10.5622   -1.0046   21.0990 N   0  0  0  0  0  0  0  0  0  0  0  0
    7.1563    1.4309   24.0737 O   0  0  0  0  0  0  0  0  0  0  0  0
   14.8117   -0.6354   24.5457 F   0  0  0  0  0  0  0  0  0  0  0  0
    6.0088   -3.1174   22.6012 Cl  0  0  0  0  0  0  0  0  0  0  0  0
   13.8906    3.5704   22.4468 Cl  0  0  0  0  0  0  0  0  0  0  0  0
  1  2  2  0
  1  5  1  0
  2 12  1  0
  3  6  2  0
  3 11  1  0
  4  7  2  0
  4 13  1  0
  5 14  2  0
  6 15  1  0
  7 17  1  0
  8 10  1  0
  8 11  2  0
  9 12  2  0
  9 14  1  0
 10 15  2  0
 10 20  1  0
 11 25  1  0
 12 24  1  0
 13 16  2  0
 13 28  1  0
 14 29  1  0
 15 30  1  0
 16 20  1  0
 16 23  1  0
 17 23  2  0
 17 26  1  0
 18 21  1  0
 18 24  1  0
 18 27  2  0
 19 22  1  0
 21 25  1  0
 22 26  1  0
M  END
