BEN-VAN-77cef4f8-12
     RDKit          3D

 30 32  0  0  1  0  0  0  0  0999 V2000
    9.8278    4.9218   24.9895 C   0  0  0  0  0  0  0  0  0  0  0  0
   11.6139    3.2509   25.1594 C   0  0  0  0  0  0  0  0  0  0  0  0
    7.7444   -0.0692   24.1836 C   0  0  0  0  0  0  0  0  0  0  0  0
    8.0839    0.3851   25.4579 C   0  0  0  0  0  0  0  0  0  0  0  0
   12.2799    2.1489   24.6347 C   0  0  0  0  0  0  0  0  0  0  0  0
   10.1571    3.2000   23.2801 C   0  0  0  0  0  0  0  0  0  0  0  0
   10.5313    3.7925   24.4754 C   0  0  0  0  0  0  0  0  0  0  0  0
    8.7101   -0.6730   23.3781 C   0  0  0  0  0  0  0  0  0  0  0  0
   10.0152   -0.8223   23.8470 C   0  0  0  0  0  0  0  0  0  0  0  0
    9.3891    0.2357   25.9268 C   0  0  0  0  0  0  0  0  0  0  0  0
   10.3548   -0.3680   25.1214 C   0  0  0  0  0  0  0  0  0  0  0  0
   11.8273    1.6298   23.4324 C   0  0  0  0  0  0  0  0  0  0  0  0
    5.9190   -6.0591   21.1107 C   0  0  0  0  0  0  0  0  0  0  0  0
    6.6899   -4.9717   21.1795 C   0  0  0  0  0  0  0  0  0  0  0  0
    6.4038   -3.8365   20.2792 C   0  0  0  0  0  0  0  0  0  0  0  0
    6.4409   -1.4103   19.8643 C   0  0  0  0  0  0  0  0  0  0  0  0
    7.1977   -2.2061   22.0748 C   0  0  0  0  0  0  0  0  0  0  0  0
    7.5951   -0.4213   19.8757 C   0  0  0  0  0  0  0  0  0  0  0  0
    8.3171   -1.1581   21.9997 C   0  0  0  0  0  0  0  0  0  0  0  0
   12.9187   -1.1807   21.2680 C   0  0  0  0  0  0  0  0  0  0  0  0
   11.0634   -1.4667   23.0001 C   0  0  0  0  0  0  0  0  0  0  0  0
   11.8454   -0.4808   22.1017 C   0  0  0  0  0  0  0  0  0  0  0  0
    9.2554    5.8406   25.4078 N   0  0  0  0  0  0  0  0  0  0  0  0
   10.7795    2.1288   22.7390 N   0  0  0  0  0  0  0  0  0  0  0  0
    6.7192   -2.5572   20.7300 N   0  0  0  0  0  0  0  0  0  0  0  0
   12.4958    0.5417   22.9265 N   0  0  0  0  0  0  0  0  0  0  0  0
    5.8972   -4.0891   19.1848 O   0  0  0  0  0  0  0  0  0  0  0  0
    7.9023   -0.0339   21.2145 O   0  0  0  0  0  0  0  0  0  0  0  0
    9.7151    0.6707   27.1508 F   0  0  0  0  0  0  0  0  0  0  0  0
   11.6059   -0.5075   25.5818 F   0  0  0  0  0  0  0  0  0  0  0  0
  1  7  1  0
  1 23  3  0
  2  5  2  0
  2  7  1  0
  3  4  2  0
  3  8  1  0
  4 10  1  0
  5 12  1  0
  6  7  2  0
  6 24  1  0
  8  9  2  0
  8 19  1  0
  9 11  1  0
  9 21  1  0
 10 11  2  0
 10 29  1  0
 11 30  1  0
 12 24  2  0
 12 26  1  0
 13 14  2  0
 14 15  1  0
 15 25  1  0
 15 27  2  0
 16 18  1  0
 16 25  1  0
 17 19  1  0
 17 25  1  0
 18 28  1  0
 19 28  1  0
 20 22  1  0
 21 22  1  0
 22 26  1  0
M  END
