BEN-VAN-ed886787-7
     RDKit          3D

 30 32  0  0  0  0  0  0  0  0999 V2000
    5.4351   -4.3929   23.6674 C   0  0  0  0  0  0  0  0  0  0  0  0
   11.0183    6.1840   22.8686 C   0  0  0  0  0  0  0  0  0  0  0  0
    9.6298    6.2390   22.9176 C   0  0  0  0  0  0  0  0  0  0  0  0
    4.3798   -5.1403   24.1784 C   0  0  0  0  0  0  0  0  0  0  0  0
   12.7374    1.3359   23.3306 C   0  0  0  0  0  0  0  0  0  0  0  0
   11.5595   -0.6297   22.5653 C   0  0  0  0  0  0  0  0  0  0  0  0
   10.4463    0.9633   24.0006 C   0  0  0  0  0  0  0  0  0  0  0  0
    6.8103   -5.2362   25.4150 C   0  0  0  0  0  0  0  0  0  0  0  0
   12.7158    0.1496   22.5971 C   0  0  0  0  0  0  0  0  0  0  0  0
   11.6027    1.7427   24.0324 C   0  0  0  0  0  0  0  0  0  0  0  0
    6.6767   -4.4363   24.2916 C   0  0  0  0  0  0  0  0  0  0  0  0
   10.4247   -0.2229   23.2670 C   0  0  0  0  0  0  0  0  0  0  0  0
   11.6890    5.1333   23.4845 C   0  0  0  0  0  0  0  0  0  0  0  0
   10.9311    4.1704   24.1313 C   0  0  0  0  0  0  0  0  0  0  0  0
    8.9641    5.2266   23.5896 C   0  0  0  0  0  0  0  0  0  0  0  0
    4.6162   -5.9088   25.3068 C   0  0  0  0  0  0  0  0  0  0  0  0
    7.7879   -2.8459   22.6853 C   0  0  0  0  0  0  0  0  0  0  0  0
   13.9292   -0.2853   21.8468 C   0  0  0  0  0  0  0  0  0  0  0  0
    5.3470    6.1802   23.2285 C   0  0  0  0  0  0  0  0  0  0  0  0
   11.6259    3.0110   24.8167 C   0  0  0  0  0  0  0  0  0  0  0  0
    9.1648   -2.2368   22.5038 C   0  0  0  0  0  0  0  0  0  0  0  0
    6.8129    6.3554   23.0208 C   0  0  0  0  0  0  0  0  0  0  0  0
    5.8084   -5.9762   25.9406 N   0  0  0  0  0  0  0  0  0  0  0  0
    9.5812    4.1901   24.2000 N   0  0  0  0  0  0  0  0  0  0  0  0
    7.7698   -3.6871   23.7946 N   0  0  0  0  0  0  0  0  0  0  0  0
    9.2554   -1.0110   23.2349 N   0  0  0  0  0  0  0  0  0  0  0  0
    7.5494    5.2983   23.6332 N   0  0  0  0  0  0  0  0  0  0  0  0
    6.8541   -2.5870   21.9328 O   0  0  0  0  0  0  0  0  0  0  0  0
   13.0255    5.0653   23.4493 F   0  0  0  0  0  0  0  0  0  0  0  0
    3.6070   -6.6358   25.8107 F   0  0  0  0  0  0  0  0  0  0  0  0
  1  4  2  0
  1 11  1  0
  2  3  2  0
  2 13  1  0
  3 15  1  0
  4 16  1  0
  5  9  2  0
  5 10  1  0
  6  9  1  0
  6 12  2  0
  7 10  2  0
  7 12  1  0
  8 11  2  0
  8 23  1  0
  9 18  1  0
 10 20  1  0
 11 25  1  0
 12 26  1  0
 13 14  2  0
 13 29  1  0
 14 20  1  0
 14 24  1  0
 15 24  2  0
 15 27  1  0
 16 23  2  0
 16 30  1  0
 17 21  1  0
 17 25  1  0
 17 28  2  0
 19 22  1  0
 21 26  1  0
 22 27  1  0
M  END
