BEN-VAN-77cef4f8-1
     RDKit          3D

 28 30  0  0  1  0  0  0  0  0999 V2000
    9.6033    5.6778   23.2391 C   0  0  0  0  0  0  0  0  0  0  0  0
   12.5034   -1.9080   23.3303 C   0  0  0  0  0  0  0  0  0  0  0  0
   10.9083    5.2302   23.0661 C   0  0  0  0  0  0  0  0  0  0  0  0
   13.7181   -1.6414   22.6988 C   0  0  0  0  0  0  0  0  0  0  0  0
   11.8668    0.4096   23.0844 C   0  0  0  0  0  0  0  0  0  0  0  0
    9.3510    6.5536   24.2828 C   0  0  0  0  0  0  0  0  0  0  0  0
   11.5777   -0.8825   23.5231 C   0  0  0  0  0  0  0  0  0  0  0  0
   13.0816    0.6762   22.4529 C   0  0  0  0  0  0  0  0  0  0  0  0
   11.9070    5.6658   23.9299 C   0  0  0  0  0  0  0  0  0  0  0  0
   14.0073   -0.3493   22.2601 C   0  0  0  0  0  0  0  0  0  0  0  0
   11.5517    6.5422   24.9425 C   0  0  0  0  0  0  0  0  0  0  0  0
    6.9718   -2.7406   23.6400 C   0  0  0  0  0  0  0  0  0  0  0  0
    7.5122   -0.5889   24.7302 C   0  0  0  0  0  0  0  0  0  0  0  0
    9.1767   -1.5576   23.1929 C   0  0  0  0  0  0  0  0  0  0  0  0
    8.6522   -0.2475   25.6781 C   0  0  0  0  0  0  0  0  0  0  0  0
   10.2600   -1.1720   24.2079 C   0  0  0  0  0  0  0  0  0  0  0  0
    7.4316   -3.8583   22.7383 C   0  0  0  0  0  0  0  0  0  0  0  0
   15.1750    4.4006   22.5859 C   0  0  0  0  0  0  0  0  0  0  0  0
   13.3887    2.0590   21.9858 C   0  0  0  0  0  0  0  0  0  0  0  0
   13.6594    4.3048   22.7257 C   0  0  0  0  0  0  0  0  0  0  0  0
   10.2950    6.9989   25.1420 N   0  0  0  0  0  0  0  0  0  0  0  0
    7.8803   -1.7077   23.8638 N   0  0  0  0  0  0  0  0  0  0  0  0
   13.2074    5.2208   23.7593 N   0  0  0  0  0  0  0  0  0  0  0  0
    5.8417   -2.7870   24.1325 O   0  0  0  0  0  0  0  0  0  0  0  0
    9.8571   -0.0116   24.9481 O   0  0  0  0  0  0  0  0  0  0  0  0
   13.3713    2.9474   23.0963 O   0  0  0  0  0  0  0  0  0  0  0  0
   15.1779   -0.1025   21.6556 F   0  0  0  0  0  0  0  0  0  0  0  0
   12.6929    7.1549   26.0764 Cl  0  0  0  0  0  0  0  0  0  0  0  0
  1  3  2  0
  1  6  1  0
  2  4  2  0
  2  7  1  0
  3  9  1  0
  4 10  1  0
  5  7  2  0
  5  8  1  0
  6 21  2  0
  7 16  1  0
  8 10  2  0
  8 19  1  0
  9 11  2  0
  9 23  1  0
 10 27  1  0
 11 21  1  0
 11 28  1  0
 12 17  1  0
 12 22  1  0
 12 24  2  0
 13 15  1  0
 13 22  1  0
 14 16  1  0
 14 22  1  0
 15 25  1  0
 16 25  1  0
 18 20  1  0
 19 26  1  0
 20 23  1  0
 20 26  1  0
M  END
