BEN-DND-362d364a-4
     RDKit          3D

 33 36  0  0  1  0  0  0  0  0999 V2000
    7.2349    4.9850   23.5569 C   0  0  0  0  0  0  0  0  0  0  0  0
    6.3287    3.9276   23.6365 C   0  0  0  0  0  0  0  0  0  0  0  0
    8.6020    4.7261   23.4578 C   0  0  0  0  0  0  0  0  0  0  0  0
   10.8262   -0.4393   25.2007 C   0  0  0  0  0  0  0  0  0  0  0  0
   12.9342   -0.3639   23.6661 C   0  0  0  0  0  0  0  0  0  0  0  0
    8.9048   -1.4413   24.1047 C   0  0  0  0  0  0  0  0  0  0  0  0
    8.1566    2.3523   23.5181 C   0  0  0  0  0  0  0  0  0  0  0  0
   11.5875   -0.6418   24.0324 C   0  0  0  0  0  0  0  0  0  0  0  0
    9.6402   -1.6524   22.9348 C   0  0  0  0  0  0  0  0  0  0  0  0
   10.9782   -1.2424   22.9287 C   0  0  0  0  0  0  0  0  0  0  0  0
    6.7896    2.6113   23.6171 C   0  0  0  0  0  0  0  0  0  0  0  0
    9.0628    3.4097   23.4384 C   0  0  0  0  0  0  0  0  0  0  0  0
    9.4866   -0.8443   25.2213 C   0  0  0  0  0  0  0  0  0  0  0  0
   13.1131   -0.7936   22.3714 C   0  0  0  0  0  0  0  0  0  0  0  0
    5.5752    1.4816   17.8873 C   0  0  0  0  0  0  0  0  0  0  0  0
    4.1966    1.8258   19.9925 C   0  0  0  0  0  0  0  0  0  0  0  0
    4.7489    2.2268   21.3536 C   0  0  0  0  0  0  0  0  0  0  0  0
    5.8513    0.0049   19.8543 C   0  0  0  0  0  0  0  0  0  0  0  0
    6.4204    0.3895   21.2286 C   0  0  0  0  0  0  0  0  0  0  0  0
   14.3006   -0.7526   21.4982 C   0  0  0  0  0  0  0  0  0  0  0  0
    4.8289    2.6304   17.2569 C   0  0  0  0  0  0  0  0  0  0  0  0
    8.9783   -2.3025   21.7447 C   0  0  0  0  0  0  0  0  0  0  0  0
    8.0538   -1.3538   20.9856 C   0  0  0  0  0  0  0  0  0  0  0  0
   11.9277   -1.3217   21.9351 N   0  0  0  0  0  0  0  0  0  0  0  0
    5.2241    1.1518   19.1960 N   0  0  0  0  0  0  0  0  0  0  0  0
    5.3277    1.0321   22.0438 N   0  0  0  0  0  0  0  0  0  0  0  0
    6.9896   -0.8236   21.8224 N   0  0  0  0  0  0  0  0  0  0  0  0
    6.4454    0.8985   17.2356 O   0  0  0  0  0  0  0  0  0  0  0  0
    6.3481    0.1205   24.2289 O   0  0  0  0  0  0  0  0  0  0  0  0
    4.4393    1.7605   24.3500 O   0  0  0  0  0  0  0  0  0  0  0  0
    5.6437    1.2736   23.7171 S   0  0  0  0  0  0  0  0  0  0  0  0
   10.7496    3.0907   23.3177 Cl  0  0  0  0  0  0  0  0  0  0  0  0
    8.5480   -0.6010   26.6459 Cl  0  0  0  0  0  0  0  0  0  0  0  0
  1  2  2  0
  1  3  1  0
  2 11  1  0
  3 12  2  0
  4  8  2  0
  4 13  1  0
  5  8  1  0
  5 14  2  0
  6  9  1  0
  6 13  2  0
  7 11  2  0
  7 12  1  0
  8 10  1  0
  9 10  2  0
  9 22  1  0
 10 24  1  0
 11 31  1  0
 12 32  1  0
 13 33  1  0
 14 20  1  0
 14 24  1  0
 15 21  1  0
 15 25  1  0
 15 28  2  0
 16 17  1  0
 16 25  1  0
 17 26  1  0
 18 19  1  0
 18 25  1  0
 19 26  1  0
 19 27  1  0
 22 23  1  0
 23 27  1  0
 26 31  1  0
 29 31  2  0
 30 31  2  0
M  END
