BEN-VAN-ed886787-20
     RDKit          3D

 27 28  0  0  0  0  0  0  0  0999 V2000
    7.5789   -4.6764   23.6705 C   0  0  0  0  0  0  0  0  0  0  0  0
   13.0053   -0.7321   25.9502 C   0  0  0  0  0  0  0  0  0  0  0  0
    8.1940   -4.8492   24.9104 C   0  0  0  0  0  0  0  0  0  0  0  0
   12.4796    0.2775   25.1516 C   0  0  0  0  0  0  0  0  0  0  0  0
    9.6742   -3.9179   22.7369 C   0  0  0  0  0  0  0  0  0  0  0  0
   10.2892   -4.0906   23.9769 C   0  0  0  0  0  0  0  0  0  0  0  0
    8.3190   -4.2108   22.5837 C   0  0  0  0  0  0  0  0  0  0  0  0
   12.7747   -2.0629   25.6203 C   0  0  0  0  0  0  0  0  0  0  0  0
    9.5491   -4.5563   25.0636 C   0  0  0  0  0  0  0  0  0  0  0  0
   12.0180   -2.3293   24.4905 C   0  0  0  0  0  0  0  0  0  0  0  0
   11.7363   -0.0937   24.0427 C   0  0  0  0  0  0  0  0  0  0  0  0
    7.5112    1.4829   18.5430 C   0  0  0  0  0  0  0  0  0  0  0  0
    7.4819    0.4507   19.3916 C   0  0  0  0  0  0  0  0  0  0  0  0
    6.5899   -0.7116   19.1326 C   0  0  0  0  0  0  0  0  0  0  0  0
    5.9880   -2.8786   20.1494 C   0  0  0  0  0  0  0  0  0  0  0  0
   10.7340    3.1977   22.5308 C   0  0  0  0  0  0  0  0  0  0  0  0
   11.7430   -3.7661   24.0998 C   0  0  0  0  0  0  0  0  0  0  0  0
    6.3394   -3.7121   21.3638 C   0  0  0  0  0  0  0  0  0  0  0  0
   11.4090    2.3274   23.5355 C   0  0  0  0  0  0  0  0  0  0  0  0
   11.4910   -1.3756   23.6904 N   0  0  0  0  0  0  0  0  0  0  0  0
   11.2049    0.9467   23.2404 N   0  0  0  0  0  0  0  0  0  0  0  0
    6.7028   -1.6800   20.1272 N   0  0  0  0  0  0  0  0  0  0  0  0
    5.8577   -0.7738   18.1504 O   0  0  0  0  0  0  0  0  0  0  0  0
    5.1714   -3.2419   19.3075 O   0  0  0  0  0  0  0  0  0  0  0  0
    7.7124   -4.0411   21.3616 O   0  0  0  0  0  0  0  0  0  0  0  0
   13.2712   -3.0479   26.3788 F   0  0  0  0  0  0  0  0  0  0  0  0
   10.2769   -4.7873   26.6115 Cl  0  0  0  0  0  0  0  0  0  0  0  0
  1  3  2  0
  1  7  1  0
  2  4  2  0
  2  8  1  0
  3  9  1  0
  4 11  1  0
  5  6  1  0
  5  7  2  0
  6  9  2  0
  6 17  1  0
  7 25  1  0
  8 10  2  0
  8 26  1  0
  9 27  1  0
 10 17  1  0
 10 20  1  0
 11 20  2  0
 11 21  1  0
 12 13  2  0
 13 14  1  0
 14 22  1  0
 14 23  2  0
 15 18  1  0
 15 22  1  0
 15 24  2  0
 16 19  1  0
 18 25  1  0
 19 21  1  0
M  END
