BEN-VAN-5787f7d3-16
     RDKit          3D

 33 36  0  0  0  0  0  0  0  0999 V2000
    9.7938    6.2465   24.1963 C   0  0  0  0  0  0  0  0  0  0  0  0
   10.6775    5.1473   24.3145 C   0  0  0  0  0  0  0  0  0  0  0  0
   10.5178   -0.1113   23.7192 C   0  0  0  0  0  0  0  0  0  0  0  0
   11.8433   -2.0597   23.1867 C   0  0  0  0  0  0  0  0  0  0  0  0
    8.9614   -2.8992   24.5660 C   0  0  0  0  0  0  0  0  0  0  0  0
   12.9165    0.0814   23.5040 C   0  0  0  0  0  0  0  0  0  0  0  0
    5.8917   -4.3545   27.6236 C   0  0  0  0  0  0  0  0  0  0  0  0
    7.5440   -3.2304   22.2580 C   0  0  0  0  0  0  0  0  0  0  0  0
    8.6323    5.7465   23.6553 C   0  0  0  0  0  0  0  0  0  0  0  0
   10.6019   -1.4744   23.4359 C   0  0  0  0  0  0  0  0  0  0  0  0
    9.4014   -2.2814   23.4007 C   0  0  0  0  0  0  0  0  0  0  0  0
    7.2905   -4.3354   25.6673 C   0  0  0  0  0  0  0  0  0  0  0  0
   11.6751    0.6667   23.7532 C   0  0  0  0  0  0  0  0  0  0  0  0
    6.3813   -3.6950   26.5018 C   0  0  0  0  0  0  0  0  0  0  0  0
    8.6849   -2.4451   22.2204 C   0  0  0  0  0  0  0  0  0  0  0  0
   13.0006   -1.2818   23.2207 C   0  0  0  0  0  0  0  0  0  0  0  0
    7.8080   -3.6640   24.4986 C   0  0  0  0  0  0  0  0  0  0  0  0
    6.3392   -5.6434   27.8650 C   0  0  0  0  0  0  0  0  0  0  0  0
    7.6756   -5.6251   25.9963 C   0  0  0  0  0  0  0  0  0  0  0  0
    9.9928    4.0538   23.8374 C   0  0  0  0  0  0  0  0  0  0  0  0
   11.5878    2.0880   24.0493 C   0  0  0  0  0  0  0  0  0  0  0  0
    5.9069   -2.3038   26.2290 C   0  0  0  0  0  0  0  0  0  0  0  0
    8.9278    0.0966   19.6856 C   0  0  0  0  0  0  0  0  0  0  0  0
    8.1499   -0.9581   20.4433 C   0  0  0  0  0  0  0  0  0  0  0  0
    7.0854   -3.8463   23.3706 N   0  0  0  0  0  0  0  0  0  0  0  0
    7.2217   -6.2981   27.0774 N   0  0  0  0  0  0  0  0  0  0  0  0
   10.3681    2.6928   23.7082 N   0  0  0  0  0  0  0  0  0  0  0  0
   12.5417    2.7118   24.5346 O   0  0  0  0  0  0  0  0  0  0  0  0
    8.7453    4.4106   23.4337 O   0  0  0  0  0  0  0  0  0  0  0  0
    9.0687   -1.8649   21.0537 O   0  0  0  0  0  0  0  0  0  0  0  0
    5.8746   -6.2914   28.9444 F   0  0  0  0  0  0  0  0  0  0  0  0
   14.5322   -2.0038   22.9126 Cl  0  0  0  0  0  0  0  0  0  0  0  0
    8.7936   -6.5409   25.0565 Cl  0  0  0  0  0  0  0  0  0  0  0  0
  1  2  1  0
  1  9  2  0
  2 20  2  0
  3 10  2  0
  3 13  1  0
  4 10  1  0
  4 16  2  0
  5 11  2  0
  5 17  1  0
  6 13  2  0
  6 16  1  0
  7 14  2  0
  7 18  1  0
  8 15  2  0
  8 25  1  0
  9 29  1  0
 10 11  1  0
 11 15  1  0
 12 14  1  0
 12 17  1  0
 12 19  2  0
 13 21  1  0
 14 22  1  0
 15 30  1  0
 16 32  1  0
 17 25  2  0
 18 26  2  0
 18 31  1  0
 19 26  1  0
 19 33  1  0
 20 27  1  0
 20 29  1  0
 21 27  1  0
 21 28  2  0
 23 24  1  0
 24 30  1  0
M  END
