BEN-VAN-d2b455e2-7
     RDKit          3D

 22 24  0  0  1  0  0  0  0  0999 V2000
    9.9448   -2.2637   24.2846 C   0  0  0  0  0  0  0  0  0  0  0  0
    5.6073   -1.3785   20.3653 C   0  0  0  0  0  0  0  0  0  0  0  0
    7.1045    0.4053   20.1845 C   0  0  0  0  0  0  0  0  0  0  0  0
    9.1266   -3.3564   24.4695 C   0  0  0  0  0  0  0  0  0  0  0  0
    9.4512   -1.3906   23.2726 C   0  0  0  0  0  0  0  0  0  0  0  0
    5.9407   -0.1918   19.7449 C   0  0  0  0  0  0  0  0  0  0  0  0
    8.2745   -1.8495   22.7223 C   0  0  0  0  0  0  0  0  0  0  0  0
    7.4577   -1.2689   21.6809 C   0  0  0  0  0  0  0  0  0  0  0  0
   10.2095    1.6821   24.6279 C   0  0  0  0  0  0  0  0  0  0  0  0
   12.5438   -0.0629   22.3589 C   0  0  0  0  0  0  0  0  0  0  0  0
   11.1784   -0.2851   21.7236 C   0  0  0  0  0  0  0  0  0  0  0  0
   12.2681    0.9681   23.4385 C   0  0  0  0  0  0  0  0  0  0  0  0
   10.1541   -0.1103   22.8633 C   0  0  0  0  0  0  0  0  0  0  0  0
   10.9390    0.5156   24.0379 C   0  0  0  0  0  0  0  0  0  0  0  0
    5.6817    1.1782   17.6757 C   0  0  0  0  0  0  0  0  0  0  0  0
    8.1325    2.3269   25.8334 C   0  0  0  0  0  0  0  0  0  0  0  0
    6.3456   -1.9477   21.3406 N   0  0  0  0  0  0  0  0  0  0  0  0
    7.8901   -0.1074   21.1542 N   0  0  0  0  0  0  0  0  0  0  0  0
    5.1499    0.3698   18.7380 N   0  0  0  0  0  0  0  0  0  0  0  0
    8.9974    1.3543   25.2048 N   0  0  0  0  0  0  0  0  0  0  0  0
   10.7080    2.7999   24.5674 O   0  0  0  0  0  0  0  0  0  0  0  0
    7.7696   -3.3269   23.4254 S   0  0  0  0  0  0  0  0  0  0  0  0
  1  4  2  0
  1  5  1  0
  2  6  2  0
  2 17  1  0
  3  6  1  0
  3 18  2  0
  4 22  1  0
  5  7  2  0
  5 13  1  0
  6 19  1  0
  7  8  1  0
  7 22  1  0
  8 17  2  0
  8 18  1  0
  9 14  1  0
  9 20  1  0
  9 21  2  0
 10 11  1  0
 10 12  1  0
 11 13  1  0
 12 14  1  0
 13 14  1  0
 15 19  1  0
 16 20  1  0
M  END
