BEN-BAS-ec4a2f8b-1
     RDKit          3D

 24 27  0  0  0  0  0  0  0  0999 V2000
    6.1451    0.2004   19.9662 C   0  0  0  0  0  0  0  0  0  0  0  0
    7.1292    0.0249   20.9327 C   0  0  0  0  0  0  0  0  0  0  0  0
    7.5625   -3.7315   26.2236 C   0  0  0  0  0  0  0  0  0  0  0  0
    6.5403    0.2460   18.6390 C   0  0  0  0  0  0  0  0  0  0  0  0
    8.7513   -0.0391   19.1946 C   0  0  0  0  0  0  0  0  0  0  0  0
    9.8018   -0.7511   23.9570 C   0  0  0  0  0  0  0  0  0  0  0  0
   13.1647    0.1044   22.1923 C   0  0  0  0  0  0  0  0  0  0  0  0
    6.6691   -4.7306   26.5440 C   0  0  0  0  0  0  0  0  0  0  0  0
   13.2001   -1.9965   22.5935 C   0  0  0  0  0  0  0  0  0  0  0  0
    8.4596   -0.0979   20.5479 C   0  0  0  0  0  0  0  0  0  0  0  0
    7.4458   -3.3947   24.8447 C   0  0  0  0  0  0  0  0  0  0  0  0
   11.9711   -0.4696   21.8311 C   0  0  0  0  0  0  0  0  0  0  0  0
    9.1908   -0.9641   22.7536 C   0  0  0  0  0  0  0  0  0  0  0  0
    8.2921   -2.3470   24.2302 C   0  0  0  0  0  0  0  0  0  0  0  0
   10.7964    0.2191   21.2453 C   0  0  0  0  0  0  0  0  0  0  0  0
    7.8226    0.1304   18.2268 N   0  0  0  0  0  0  0  0  0  0  0  0
   11.9999   -1.8160   22.0904 N   0  0  0  0  0  0  0  0  0  0  0  0
    6.5441   -4.0621   24.1287 N   0  0  0  0  0  0  0  0  0  0  0  0
    8.2618   -1.9569   22.9517 N   0  0  0  0  0  0  0  0  0  0  0  0
    9.2259   -1.6200   24.8522 N   0  0  0  0  0  0  0  0  0  0  0  0
    9.4671   -0.2743   21.4931 N   0  0  0  0  0  0  0  0  0  0  0  0
   11.0415    1.1726   20.5047 O   0  0  0  0  0  0  0  0  0  0  0  0
   13.9688   -0.8771   22.6879 O   0  0  0  0  0  0  0  0  0  0  0  0
    5.7893   -5.1482   25.1350 S   0  0  0  0  0  0  0  0  0  0  0  0
  1  2  2  0
  1  4  1  0
  2 10  1  0
  3  8  2  0
  3 11  1  0
  4 16  2  0
  5 10  2  0
  5 16  1  0
  6 13  2  0
  6 20  1  0
  7 12  2  0
  7 23  1  0
  8 24  1  0
  9 17  2  0
  9 23  1  0
 10 21  1  0
 11 14  1  0
 11 18  2  0
 12 15  1  0
 12 17  1  0
 13 19  1  0
 13 21  1  0
 14 19  1  0
 14 20  2  0
 15 21  1  0
 15 22  2  0
 18 24  1  0
M  CHG  1  20   1
M  END
