BEN-VAN-c986b20b-18
     RDKit          3D

 29 31  0  0  0  0  0  0  0  0999 V2000
    9.5100   -2.6189   24.8237 C   0  0  0  0  0  0  0  0  0  0  0  0
   10.5567   -1.7042   24.9394 C   0  0  0  0  0  0  0  0  0  0  0  0
   10.7207   -1.5872   22.5318 C   0  0  0  0  0  0  0  0  0  0  0  0
    6.7362   -3.6926   23.9715 C   0  0  0  0  0  0  0  0  0  0  0  0
    7.2767   -5.9943   22.6987 C   0  0  0  0  0  0  0  0  0  0  0  0
    9.0687   -3.0178   23.5620 C   0  0  0  0  0  0  0  0  0  0  0  0
   11.1620   -1.1884   23.7935 C   0  0  0  0  0  0  0  0  0  0  0  0
    9.6740   -2.5019   22.4161 C   0  0  0  0  0  0  0  0  0  0  0  0
    7.9828   -3.9675   23.4474 C   0  0  0  0  0  0  0  0  0  0  0  0
    5.7855   -4.6778   23.7987 C   0  0  0  0  0  0  0  0  0  0  0  0
   12.2260    5.2891   23.2104 C   0  0  0  0  0  0  0  0  0  0  0  0
   12.8832    3.1422   22.1711 C   0  0  0  0  0  0  0  0  0  0  0  0
   10.7262    3.2405   23.3589 C   0  0  0  0  0  0  0  0  0  0  0  0
   13.2551    1.8648   22.9097 C   0  0  0  0  0  0  0  0  0  0  0  0
   11.0650    1.9627   24.1145 C   0  0  0  0  0  0  0  0  0  0  0  0
    4.4083   -4.4731   24.3348 C   0  0  0  0  0  0  0  0  0  0  0  0
   12.2885   -0.2052   23.9177 C   0  0  0  0  0  0  0  0  0  0  0  0
   11.2096    6.0470   24.0266 C   0  0  0  0  0  0  0  0  0  0  0  0
    8.9552    6.7269   24.0756 C   0  0  0  0  0  0  0  0  0  0  0  0
    8.2891   -5.1124   22.8026 N   0  0  0  0  0  0  0  0  0  0  0  0
    6.0221   -5.8451   23.1648 N   0  0  0  0  0  0  0  0  0  0  0  0
   11.9456    3.9478   22.9534 N   0  0  0  0  0  0  0  0  0  0  0  0
   11.9904    1.1170   23.2685 N   0  0  0  0  0  0  0  0  0  0  0  0
   13.2390    5.8725   22.8162 O   0  0  0  0  0  0  0  0  0  0  0  0
    9.9640    6.0286   23.3605 O   0  0  0  0  0  0  0  0  0  0  0  0
    9.2612   -2.8756   21.1960 F   0  0  0  0  0  0  0  0  0  0  0  0
    7.7959    6.6698   23.3856 F   0  0  0  0  0  0  0  0  0  0  0  0
    8.7596    6.1670   25.2879 F   0  0  0  0  0  0  0  0  0  0  0  0
    9.2961    8.0231   24.2331 F   0  0  0  0  0  0  0  0  0  0  0  0
  1  2  2  0
  1  6  1  0
  2  7  1  0
  3  7  2  0
  3  8  1  0
  4  9  2  0
  4 10  1  0
  5 20  2  0
  5 21  1  0
  6  8  2  0
  6  9  1  0
  7 17  1  0
  8 26  1  0
  9 20  1  0
 10 16  1  0
 10 21  2  0
 11 18  1  0
 11 22  1  0
 11 24  2  0
 12 14  1  0
 12 22  1  0
 13 15  1  0
 13 22  1  0
 14 23  1  0
 15 23  1  0
 17 23  1  0
 18 25  1  0
 19 25  1  0
 19 27  1  0
 19 28  1  0
 19 29  1  0
M  CHG  1  23   1
M  END
