BEN-VAN-d2b455e2-14
     RDKit          3D

 30 32  0  0  1  0  0  0  0  0999 V2000
    8.9452    0.5245   24.7342 C   0  0  0  0  0  0  0  0  0  0  0  0
   11.4978   -2.1833   24.4632 C   0  0  0  0  0  0  0  0  0  0  0  0
   11.2818    0.3684   25.4054 C   0  0  0  0  0  0  0  0  0  0  0  0
    8.1071   -4.9442   21.6444 C   0  0  0  0  0  0  0  0  0  0  0  0
   10.1662   -0.2134   24.8251 C   0  0  0  0  0  0  0  0  0  0  0  0
    7.9858   -4.0901   22.7184 C   0  0  0  0  0  0  0  0  0  0  0  0
   10.2846   -1.5139   24.3475 C   0  0  0  0  0  0  0  0  0  0  0  0
    9.0491   -3.1432   22.7719 C   0  0  0  0  0  0  0  0  0  0  0  0
   12.5538   -1.5132   25.0594 C   0  0  0  0  0  0  0  0  0  0  0  0
    9.9429   -3.3098   21.7368 C   0  0  0  0  0  0  0  0  0  0  0  0
    6.2184    0.0868   19.6544 C   0  0  0  0  0  0  0  0  0  0  0  0
    6.4172   -1.1625   19.2230 C   0  0  0  0  0  0  0  0  0  0  0  0
    5.6251   -2.2886   19.7872 C   0  0  0  0  0  0  0  0  0  0  0  0
    5.2019   -3.3822   21.9563 C   0  0  0  0  0  0  0  0  0  0  0  0
    4.9628   -5.1972   24.7803 C   0  0  0  0  0  0  0  0  0  0  0  0
    6.2057   -5.5324   23.9672 C   0  0  0  0  0  0  0  0  0  0  0  0
    4.5088   -3.8176   24.2998 C   0  0  0  0  0  0  0  0  0  0  0  0
    6.8493   -4.1636   23.7147 C   0  0  0  0  0  0  0  0  0  0  0  0
    5.6256   -3.2824   23.3958 C   0  0  0  0  0  0  0  0  0  0  0  0
   14.8800   -1.6964   27.2502 C   0  0  0  0  0  0  0  0  0  0  0  0
   14.9451   -1.6282   25.7624 C   0  0  0  0  0  0  0  0  0  0  0  0
    7.9540    1.1236   24.6605 N   0  0  0  0  0  0  0  0  0  0  0  0
   12.4768   -0.2501   25.5353 N   0  0  0  0  0  0  0  0  0  0  0  0
    9.1661   -2.1910   23.7295 N   0  0  0  0  0  0  0  0  0  0  0  0
   13.7843   -2.2076   25.1693 N   0  0  0  0  0  0  0  0  0  0  0  0
    5.8147   -2.4152   21.1612 N   0  0  0  0  0  0  0  0  0  0  0  0
    4.9040   -2.9986   19.0940 O   0  0  0  0  0  0  0  0  0  0  0  0
    4.4206   -4.2468   21.5687 O   0  0  0  0  0  0  0  0  0  0  0  0
    9.4986   -4.6033   20.7064 S   0  0  0  0  0  0  0  0  0  0  0  0
   11.3663   -2.4117   21.3941 Cl  0  0  0  0  0  0  0  0  0  0  0  0
  1  5  1  0
  1 22  3  0
  2  7  2  0
  2  9  1  0
  3  5  2  0
  3 23  1  0
  4  6  2  0
  4 29  1  0
  5  7  1  0
  6  8  1  0
  6 18  1  0
  7 24  1  0
  8 10  2  0
  8 24  1  0
  9 23  2  0
  9 25  1  0
 10 29  1  0
 10 30  1  0
 11 12  2  0
 12 13  1  0
 13 26  1  0
 13 27  2  0
 14 19  1  0
 14 26  1  0
 14 28  2  0
 15 16  1  0
 15 17  1  0
 16 18  1  0
 17 19  1  0
 18 19  1  0
 20 21  1  0
 21 25  1  0
M  END
