BEN-DND-362d364a-5
     RDKit          3D

 31 33  0  0  1  0  0  0  0  0999 V2000
    5.2575   -6.1967   26.1043 C   0  0  0  0  0  0  0  0  0  0  0  0
    6.6253   -6.1919   26.3774 C   0  0  0  0  0  0  0  0  0  0  0  0
    4.7567   -5.4514   25.0369 C   0  0  0  0  0  0  0  0  0  0  0  0
   12.2686    2.0345   22.9383 C   0  0  0  0  0  0  0  0  0  0  0  0
    7.4924   -5.4416   25.5831 C   0  0  0  0  0  0  0  0  0  0  0  0
    5.6238   -4.7011   24.2425 C   0  0  0  0  0  0  0  0  0  0  0  0
   11.3260    1.2604   23.6148 C   0  0  0  0  0  0  0  0  0  0  0  0
   12.0979    3.4156   22.8427 C   0  0  0  0  0  0  0  0  0  0  0  0
   10.0416    3.2484   24.1000 C   0  0  0  0  0  0  0  0  0  0  0  0
    6.9917   -4.6963   24.5156 C   0  0  0  0  0  0  0  0  0  0  0  0
   10.2124    1.8673   24.1956 C   0  0  0  0  0  0  0  0  0  0  0  0
   10.9843    4.0225   23.4235 C   0  0  0  0  0  0  0  0  0  0  0  0
    6.4094    0.3535   19.8633 C   0  0  0  0  0  0  0  0  0  0  0  0
   10.3453   -2.0479   23.0729 C   0  0  0  0  0  0  0  0  0  0  0  0
    6.1881    1.3025   22.2090 C   0  0  0  0  0  0  0  0  0  0  0  0
    7.3471    1.7218   23.1032 C   0  0  0  0  0  0  0  0  0  0  0  0
    7.2666   -0.8796   21.8301 C   0  0  0  0  0  0  0  0  0  0  0  0
    8.4394   -0.4786   22.7328 C   0  0  0  0  0  0  0  0  0  0  0  0
    5.6737    1.5637   19.3454 C   0  0  0  0  0  0  0  0  0  0  0  0
   11.0518   -2.8122   24.1644 C   0  0  0  0  0  0  0  0  0  0  0  0
    7.9291   -3.8843   23.6560 C   0  0  0  0  0  0  0  0  0  0  0  0
    8.1249   -2.4599   24.1696 C   0  0  0  0  0  0  0  0  0  0  0  0
    6.6221    0.2938   21.2401 N   0  0  0  0  0  0  0  0  0  0  0  0
    7.9571    0.5185   23.7519 N   0  0  0  0  0  0  0  0  0  0  0  0
    9.0164   -1.6704   23.3134 N   0  0  0  0  0  0  0  0  0  0  0  0
    6.7851   -0.5099   19.0662 O   0  0  0  0  0  0  0  0  0  0  0  0
   10.9518   -1.7889   22.0300 O   0  0  0  0  0  0  0  0  0  0  0  0
    9.6688   -0.3284   25.4827 O   0  0  0  0  0  0  0  0  0  0  0  0
    8.3263    1.7429   25.9877 O   0  0  0  0  0  0  0  0  0  0  0  0
    9.0203    0.8886   25.0518 S   0  0  0  0  0  0  0  0  0  0  0  0
   10.7733    5.7263   23.3040 Cl  0  0  0  0  0  0  0  0  0  0  0  0
  1  2  2  0
  1  3  1  0
  2  5  1  0
  3  6  2  0
  4  7  2  0
  4  8  1  0
  5 10  2  0
  6 10  1  0
  7 11  1  0
  8 12  2  0
  9 11  2  0
  9 12  1  0
 10 21  1  0
 11 30  1  0
 12 31  1  0
 13 19  1  0
 13 23  1  0
 13 26  2  0
 14 20  1  0
 14 25  1  0
 14 27  2  0
 15 16  1  0
 15 23  1  0
 16 24  1  0
 17 18  1  0
 17 23  1  0
 18 24  1  0
 18 25  1  0
 21 22  1  0
 22 25  1  0
 24 30  1  0
 28 30  2  0
 29 30  2  0
M  END
