BEN-VAN-d8fd1356-4
     RDKit          3D

 22 24  0  0  0  0  0  0  0  0999 V2000
   11.8824    0.1023   23.6295 C   0  0  0  0  0  0  0  0  0  0  0  0
   11.1050   -1.6768   22.2100 C   0  0  0  0  0  0  0  0  0  0  0  0
    8.0370   -0.6886   19.7507 C   0  0  0  0  0  0  0  0  0  0  0  0
   10.5668    0.5259   23.7280 C   0  0  0  0  0  0  0  0  0  0  0  0
    5.1134   -0.0087   23.2327 C   0  0  0  0  0  0  0  0  0  0  0  0
    5.7794    0.2834   21.0924 C   0  0  0  0  0  0  0  0  0  0  0  0
   12.1481   -1.0208   22.8541 C   0  0  0  0  0  0  0  0  0  0  0  0
    4.7721    0.5992   22.0466 C   0  0  0  0  0  0  0  0  0  0  0  0
    6.7194   -0.5213   21.7400 C   0  0  0  0  0  0  0  0  0  0  0  0
    7.8567   -1.0216   21.0962 C   0  0  0  0  0  0  0  0  0  0  0  0
    7.1156    0.1124   19.0790 C   0  0  0  0  0  0  0  0  0  0  0  0
    5.9824    0.6059   19.7359 C   0  0  0  0  0  0  0  0  0  0  0  0
    9.8242   -1.1736   22.3722 C   0  0  0  0  0  0  0  0  0  0  0  0
   13.5458   -1.5200   22.7138 C   0  0  0  0  0  0  0  0  0  0  0  0
    4.4661    3.4130   23.1569 C   0  0  0  0  0  0  0  0  0  0  0  0
    3.5601    1.4229   21.8537 C   0  0  0  0  0  0  0  0  0  0  0  0
    3.8671    2.9333   21.8443 C   0  0  0  0  0  0  0  0  0  0  0  0
    9.5272   -0.0853   23.1171 N   0  0  0  0  0  0  0  0  0  0  0  0
    6.2895   -0.6820   23.0379 N   0  0  0  0  0  0  0  0  0  0  0  0
    8.7701   -1.8070   21.7406 O   0  0  0  0  0  0  0  0  0  0  0  0
    7.3260    0.4049   17.7870 F   0  0  0  0  0  0  0  0  0  0  0  0
    4.8355    1.5886   18.9433 Cl  0  0  0  0  0  0  0  0  0  0  0  0
  1  4  2  0
  1  7  1  0
  2  7  2  0
  2 13  1  0
  3 10  2  0
  3 11  1  0
  4 18  1  0
  5  8  2  0
  5 19  1  0
  6  8  1  0
  6  9  2  0
  6 12  1  0
  7 14  1  0
  8 16  1  0
  9 10  1  0
  9 19  1  0
 10 20  1  0
 11 12  2  0
 11 21  1  0
 12 22  1  0
 13 18  2  0
 13 20  1  0
 15 17  1  0
 16 17  1  0
M  END
