BEN-VAN-d2b455e2-4
     RDKit          3D

 26 28  0  0  1  0  0  0  0  0999 V2000
    8.7488   -1.9806   26.6090 C   0  0  0  0  0  0  0  0  0  0  0  0
    7.1033   -0.6377   25.6368 C   0  0  0  0  0  0  0  0  0  0  0  0
    4.7237   -6.0105   25.0509 C   0  0  0  0  0  0  0  0  0  0  0  0
    6.3680   -4.8014   23.9389 C   0  0  0  0  0  0  0  0  0  0  0  0
    8.2874   -0.7078   26.3420 C   0  0  0  0  0  0  0  0  0  0  0  0
    5.4800   -5.9151   23.9035 C   0  0  0  0  0  0  0  0  0  0  0  0
    6.2564   -4.0878   25.1120 C   0  0  0  0  0  0  0  0  0  0  0  0
    6.9673   -2.9048   25.5418 C   0  0  0  0  0  0  0  0  0  0  0  0
    7.0732    0.4980   18.6147 C   0  0  0  0  0  0  0  0  0  0  0  0
    5.9341   -0.2011   18.6161 C   0  0  0  0  0  0  0  0  0  0  0  0
    5.9381   -1.6460   18.9709 C   0  0  0  0  0  0  0  0  0  0  0  0
    6.5375   -3.1114   20.8614 C   0  0  0  0  0  0  0  0  0  0  0  0
    9.4821   -3.5280   22.2938 C   0  0  0  0  0  0  0  0  0  0  0  0
    8.7976   -4.4842   23.2557 C   0  0  0  0  0  0  0  0  0  0  0  0
    8.4988   -2.3700   22.2010 C   0  0  0  0  0  0  0  0  0  0  0  0
    7.3239   -4.4405   22.8230 C   0  0  0  0  0  0  0  0  0  0  0  0
    7.1130   -3.0216   22.2439 C   0  0  0  0  0  0  0  0  0  0  0  0
    8.9390    1.6821   26.0424 C   0  0  0  0  0  0  0  0  0  0  0  0
    8.1118   -3.1053   26.2224 N   0  0  0  0  0  0  0  0  0  0  0  0
    6.4142   -1.7200   25.2193 N   0  0  0  0  0  0  0  0  0  0  0  0
    8.9756    0.4361   26.7573 N   0  0  0  0  0  0  0  0  0  0  0  0
    6.4191   -1.8593   20.2606 N   0  0  0  0  0  0  0  0  0  0  0  0
    5.5571   -2.5157   18.1943 O   0  0  0  0  0  0  0  0  0  0  0  0
    6.2408   -4.1883   20.3510 O   0  0  0  0  0  0  0  0  0  0  0  0
    5.0852   -4.7608   26.1644 S   0  0  0  0  0  0  0  0  0  0  0  0
    5.3710   -7.0044   22.5872 Cl  0  0  0  0  0  0  0  0  0  0  0  0
  1  5  2  0
  1 19  1  0
  2  5  1  0
  2 20  2  0
  3  6  2  0
  3 25  1  0
  4  6  1  0
  4  7  2  0
  4 16  1  0
  5 21  1  0
  6 26  1  0
  7  8  1  0
  7 25  1  0
  8 19  2  0
  8 20  1  0
  9 10  2  0
 10 11  1  0
 11 22  1  0
 11 23  2  0
 12 17  1  0
 12 22  1  0
 12 24  2  0
 13 14  1  0
 13 15  1  0
 14 16  1  0
 15 17  1  0
 16 17  1  0
 18 21  1  0
M  END
