BEN-VAN-3ef6186a-2
     RDKit          3D

 28 31  0  0  0  0  0  0  0  0999 V2000
    6.3119    1.9142   21.5083 C   0  0  0  0  0  0  0  0  0  0  0  0
   12.5755    1.1920   23.5863 C   0  0  0  0  0  0  0  0  0  0  0  0
    7.6218   -0.0982   21.6456 C   0  0  0  0  0  0  0  0  0  0  0  0
   11.5548   -2.4173   22.9033 C   0  0  0  0  0  0  0  0  0  0  0  0
    6.4260    2.0183   22.8852 C   0  0  0  0  0  0  0  0  0  0  0  0
    7.6951    0.1128   18.5401 C   0  0  0  0  0  0  0  0  0  0  0  0
    6.0331    0.8055   17.4051 C   0  0  0  0  0  0  0  0  0  0  0  0
   11.9697   -0.0798   23.3854 C   0  0  0  0  0  0  0  0  0  0  0  0
    6.9240    0.8329   20.8844 C   0  0  0  0  0  0  0  0  0  0  0  0
   10.6052    0.0712   23.6414 C   0  0  0  0  0  0  0  0  0  0  0  0
   12.4528   -1.3489   23.0092 C   0  0  0  0  0  0  0  0  0  0  0  0
   10.1980   -2.2371   23.1648 C   0  0  0  0  0  0  0  0  0  0  0  0
    9.6959   -0.9876   23.5396 C   0  0  0  0  0  0  0  0  0  0  0  0
    6.8371    0.6792   19.4530 C   0  0  0  0  0  0  0  0  0  0  0  0
    7.6774    0.0961   23.0164 C   0  0  0  0  0  0  0  0  0  0  0  0
   11.5855    2.0742   23.9532 C   0  0  0  0  0  0  0  0  0  0  0  0
   14.5755   -2.5307   23.5164 C   0  0  0  0  0  0  0  0  0  0  0  0
   14.4806   -0.8514   21.6673 C   0  0  0  0  0  0  0  0  0  0  0  0
    9.1546   -4.0952   24.2207 C   0  0  0  0  0  0  0  0  0  0  0  0
   10.4979    4.4331   23.0781 C   0  0  0  0  0  0  0  0  0  0  0  0
    7.1890    0.1949   17.2670 N   0  0  0  0  0  0  0  0  0  0  0  0
    7.0954    1.1339   23.6581 N   0  0  0  0  0  0  0  0  0  0  0  0
    5.7773    1.1190   18.7110 N   0  0  0  0  0  0  0  0  0  0  0  0
   10.4007    1.3888   23.9840 N   0  0  0  0  0  0  0  0  0  0  0  0
   13.8190   -1.5706   22.7377 N   0  0  0  0  0  0  0  0  0  0  0  0
    8.3643   -0.8162   23.7952 O   0  0  0  0  0  0  0  0  0  0  0  0
    9.3545   -3.3041   23.0523 O   0  0  0  0  0  0  0  0  0  0  0  0
   11.6121    3.7545   24.3423 S   0  0  0  0  0  0  0  0  0  0  0  0
  1  5  2  0
  1  9  1  0
  2  8  1  0
  2 16  2  0
  3  9  2  0
  3 15  1  0
  4 11  2  0
  4 12  1  0
  5 22  1  0
  6 14  2  0
  6 21  1  0
  7 21  2  0
  7 23  1  0
  8 10  2  0
  8 11  1  0
  9 14  1  0
 10 13  1  0
 10 24  1  0
 11 25  1  0
 12 13  2  0
 12 27  1  0
 13 26  1  0
 14 23  1  0
 15 22  2  0
 15 26  1  0
 16 24  1  0
 16 28  1  0
 17 25  1  0
 18 25  1  0
 19 27  1  0
 20 28  1  0
M  END
