BEN-DND-031a96cc-7
     RDKit          3D

 27 29  0  0  0  0  0  0  0  0999 V2000
    9.6910    5.4436   25.2456 C   0  0  0  0  0  0  0  0  0  0  0  0
   10.5183    5.2781   24.1348 C   0  0  0  0  0  0  0  0  0  0  0  0
    8.6557    4.5399   25.4850 C   0  0  0  0  0  0  0  0  0  0  0  0
    5.5506    1.2627   19.0570 C   0  0  0  0  0  0  0  0  0  0  0  0
    6.2103    1.0956   20.2695 C   0  0  0  0  0  0  0  0  0  0  0  0
   10.3102    4.2091   23.2633 C   0  0  0  0  0  0  0  0  0  0  0  0
    8.4477    3.4708   24.6135 C   0  0  0  0  0  0  0  0  0  0  0  0
    6.1450    0.7435   17.9182 C   0  0  0  0  0  0  0  0  0  0  0  0
    7.9375   -0.0580   19.1110 C   0  0  0  0  0  0  0  0  0  0  0  0
    7.4272    0.4239   20.3056 C   0  0  0  0  0  0  0  0  0  0  0  0
    9.2749    3.3054   23.5026 C   0  0  0  0  0  0  0  0  0  0  0  0
    8.9439   -0.8409   21.7799 C   0  0  0  0  0  0  0  0  0  0  0  0
    8.1513    0.2309   21.5747 C   0  0  0  0  0  0  0  0  0  0  0  0
    8.0781    1.2430   22.6965 C   0  0  0  0  0  0  0  0  0  0  0  0
   14.5422   -1.7379   23.9384 C   0  0  0  0  0  0  0  0  0  0  0  0
   13.3889   -0.7533   21.9550 C   0  0  0  0  0  0  0  0  0  0  0  0
   13.0647    0.2494   24.2556 C   0  0  0  0  0  0  0  0  0  0  0  0
   12.0297   -1.4320   22.0738 C   0  0  0  0  0  0  0  0  0  0  0  0
   11.7089   -0.4399   24.3503 C   0  0  0  0  0  0  0  0  0  0  0  0
   14.0313   -0.4701   23.3137 C   0  0  0  0  0  0  0  0  0  0  0  0
    9.7359   -1.1656   23.0115 C   0  0  0  0  0  0  0  0  0  0  0  0
    7.3257    0.0850   17.9139 N   0  0  0  0  0  0  0  0  0  0  0  0
   15.1589   -1.5484   25.1525 N   0  0  0  0  0  0  0  0  0  0  0  0
    9.0639    2.2193   22.6172 N   0  0  0  0  0  0  0  0  0  0  0  0
   11.1329   -0.6102   22.9663 N   0  0  0  0  0  0  0  0  0  0  0  0
    7.2062    1.1538   23.5567 O   0  0  0  0  0  0  0  0  0  0  0  0
   14.3959   -2.8342   23.4035 O   0  0  0  0  0  0  0  0  0  0  0  0
  1  2  2  0
  1  3  1  0
  2  6  1  0
  3  7  2  0
  4  5  2  0
  4  8  1  0
  5 10  1  0
  6 11  2  0
  7 11  1  0
  8 22  2  0
  9 10  2  0
  9 22  1  0
 10 13  1  0
 11 24  1  0
 12 13  2  0
 12 21  1  0
 13 14  1  0
 14 24  1  0
 14 26  2  0
 15 20  1  0
 15 23  1  0
 15 27  2  0
 16 18  1  0
 16 20  1  0
 17 19  1  0
 17 20  1  0
 18 25  1  0
 19 25  1  0
 21 25  1  0
M  CHG  1  25   1
M  END
