BEN-VAN-d2b455e2-10
     RDKit          3D

 31 33  0  0  1  0  0  0  0  0999 V2000
    9.5975   -0.0936   24.9013 C   0  0  0  0  0  0  0  0  0  0  0  0
   12.1432   -2.8129   25.1164 C   0  0  0  0  0  0  0  0  0  0  0  0
   11.9582   -0.1180   25.5020 C   0  0  0  0  0  0  0  0  0  0  0  0
    8.3005   -5.1639   22.0355 C   0  0  0  0  0  0  0  0  0  0  0  0
   10.4166   -3.9631   22.3956 C   0  0  0  0  0  0  0  0  0  0  0  0
   10.8225   -0.8029   25.1010 C   0  0  0  0  0  0  0  0  0  0  0  0
    8.2929   -4.4427   23.2092 C   0  0  0  0  0  0  0  0  0  0  0  0
   10.9251   -2.1759   24.9067 C   0  0  0  0  0  0  0  0  0  0  0  0
    9.5187   -3.7469   23.4178 C   0  0  0  0  0  0  0  0  0  0  0  0
   13.2198   -2.0379   25.5165 C   0  0  0  0  0  0  0  0  0  0  0  0
    7.6037   -0.4061   18.8288 C   0  0  0  0  0  0  0  0  0  0  0  0
    7.5305   -0.8471   20.0883 C   0  0  0  0  0  0  0  0  0  0  0  0
    6.5006   -1.8483   20.4766 C   0  0  0  0  0  0  0  0  0  0  0  0
    5.7512   -3.0917   22.4698 C   0  0  0  0  0  0  0  0  0  0  0  0
    5.0028   -5.1542   25.0218 C   0  0  0  0  0  0  0  0  0  0  0  0
    6.1962   -5.6334   24.2065 C   0  0  0  0  0  0  0  0  0  0  0  0
    4.8595   -3.6623   24.7150 C   0  0  0  0  0  0  0  0  0  0  0  0
    7.1123   -4.4047   24.1550 C   0  0  0  0  0  0  0  0  0  0  0  0
    6.1078   -3.2593   23.9211 C   0  0  0  0  0  0  0  0  0  0  0  0
   18.0523   -4.7307   25.5359 C   0  0  0  0  0  0  0  0  0  0  0  0
   15.6363   -2.0158   26.1375 C   0  0  0  0  0  0  0  0  0  0  0  0
   16.8555   -2.7084   25.5565 C   0  0  0  0  0  0  0  0  0  0  0  0
    8.6031    0.4822   24.7392 N   0  0  0  0  0  0  0  0  0  0  0  0
   13.1585   -0.7022   25.7156 N   0  0  0  0  0  0  0  0  0  0  0  0
    9.7846   -2.9624   24.4889 N   0  0  0  0  0  0  0  0  0  0  0  0
   14.4549   -2.7008   25.7252 N   0  0  0  0  0  0  0  0  0  0  0  0
    6.5865   -2.1798   21.8266 N   0  0  0  0  0  0  0  0  0  0  0  0
    5.6910   -2.3046   19.6759 O   0  0  0  0  0  0  0  0  0  0  0  0
    4.8354   -3.7236   21.9497 O   0  0  0  0  0  0  0  0  0  0  0  0
   16.9206   -4.0410   26.0483 O   0  0  0  0  0  0  0  0  0  0  0  0
    9.7811   -5.0008   21.1908 S   0  0  0  0  0  0  0  0  0  0  0  0
  1  6  1  0
  1 23  3  0
  2  8  2  0
  2 10  1  0
  3  6  2  0
  3 24  1  0
  4  7  2  0
  4 31  1  0
  5  9  2  0
  5 31  1  0
  6  8  1  0
  7  9  1  0
  7 18  1  0
  8 25  1  0
  9 25  1  0
 10 24  2  0
 10 26  1  0
 11 12  2  0
 12 13  1  0
 13 27  1  0
 13 28  2  0
 14 19  1  0
 14 27  1  0
 14 29  2  0
 15 16  1  0
 15 17  1  0
 16 18  1  0
 17 19  1  0
 18 19  1  0
 20 30  1  0
 21 22  1  0
 21 26  1  0
 22 30  1  0
M  END
