BEN-VAN-d8fd1356-24
     RDKit          3D

 24 26  0  0  0  0  0  0  0  0999 V2000
   14.0052    0.9030   22.3373 C   0  0  0  0  0  0  0  0  0  0  0  0
   13.2975   -1.2598   23.1850 C   0  0  0  0  0  0  0  0  0  0  0  0
   11.2863    2.8200   23.8516 C   0  0  0  0  0  0  0  0  0  0  0  0
   12.9051    1.5052   22.9797 C   0  0  0  0  0  0  0  0  0  0  0  0
   12.1993   -0.6846   23.8308 C   0  0  0  0  0  0  0  0  0  0  0  0
   12.4239    2.8408   23.0781 C   0  0  0  0  0  0  0  0  0  0  0  0
   12.0294    0.6992   23.7101 C   0  0  0  0  0  0  0  0  0  0  0  0
   14.1878   -0.4801   22.4493 C   0  0  0  0  0  0  0  0  0  0  0  0
    6.6951   -3.1915   21.9375 C   0  0  0  0  0  0  0  0  0  0  0  0
    7.5897   -2.5069   24.1402 C   0  0  0  0  0  0  0  0  0  0  0  0
    8.3518   -1.2734   22.1476 C   0  0  0  0  0  0  0  0  0  0  0  0
    9.0264   -2.6691   24.6146 C   0  0  0  0  0  0  0  0  0  0  0  0
    9.8009   -1.4155   22.5932 C   0  0  0  0  0  0  0  0  0  0  0  0
    6.4423   -4.5714   22.4905 C   0  0  0  0  0  0  0  0  0  0  0  0
   11.2609   -1.5544   24.6143 C   0  0  0  0  0  0  0  0  0  0  0  0
   13.0288    4.0405   22.4648 C   0  0  0  0  0  0  0  0  0  0  0  0
   11.0565    1.5239   24.2283 N   0  0  0  0  0  0  0  0  0  0  0  0
    7.5295   -2.3623   22.6857 N   0  0  0  0  0  0  0  0  0  0  0  0
    9.8488   -1.5079   24.1020 N   0  0  0  0  0  0  0  0  0  0  0  0
    6.1641   -2.8616   20.8739 O   0  0  0  0  0  0  0  0  0  0  0  0
   15.2317   -1.0603   21.8414 F   0  0  0  0  0  0  0  0  0  0  0  0
   12.3529    5.2058   22.7243 F   0  0  0  0  0  0  0  0  0  0  0  0
   14.3142    4.2917   22.8726 F   0  0  0  0  0  0  0  0  0  0  0  0
   13.0994    3.9704   21.0979 F   0  0  0  0  0  0  0  0  0  0  0  0
  1  4  2  0
  1  8  1  0
  2  5  1  0
  2  8  2  0
  3  6  2  0
  3 17  1  0
  4  6  1  0
  4  7  1  0
  5  7  2  0
  5 15  1  0
  6 16  1  0
  7 17  1  0
  8 21  1  0
  9 14  1  0
  9 18  1  0
  9 20  2  0
 10 12  1  0
 10 18  1  0
 11 13  1  0
 11 18  1  0
 12 19  1  0
 13 19  1  0
 15 19  1  0
 16 22  1  0
 16 23  1  0
 16 24  1  0
M  CHG  1  19   1
M  END
