BEN-VAN-d2b455e2-17
     RDKit          3D

 23 25  0  0  1  0  0  0  0  0999 V2000
   10.4088   -2.5696   24.4739 C   0  0  0  0  0  0  0  0  0  0  0  0
    8.4229   -1.1254   19.3058 C   0  0  0  0  0  0  0  0  0  0  0  0
    9.3042   -3.3284   24.7925 C   0  0  0  0  0  0  0  0  0  0  0  0
   10.2101   -1.8069   23.2869 C   0  0  0  0  0  0  0  0  0  0  0  0
    7.2662   -0.3742   19.3515 C   0  0  0  0  0  0  0  0  0  0  0  0
    8.9610   -2.0122   22.7433 C   0  0  0  0  0  0  0  0  0  0  0  0
    6.7128   -0.2059   20.6043 C   0  0  0  0  0  0  0  0  0  0  0  0
    8.3683   -1.4385   21.5566 C   0  0  0  0  0  0  0  0  0  0  0  0
   10.7154    1.4979   22.2013 C   0  0  0  0  0  0  0  0  0  0  0  0
   13.5187   -0.0922   22.9149 C   0  0  0  0  0  0  0  0  0  0  0  0
   12.6955   -1.3680   22.9703 C   0  0  0  0  0  0  0  0  0  0  0  0
   12.6476    0.9123   23.6555 C   0  0  0  0  0  0  0  0  0  0  0  0
   11.2607   -0.8853   22.7073 C   0  0  0  0  0  0  0  0  0  0  0  0
   11.2103    0.5582   23.2610 C   0  0  0  0  0  0  0  0  0  0  0  0
    5.9361    1.3976   18.2038 C   0  0  0  0  0  0  0  0  0  0  0  0
   10.2679    3.8959   21.7198 C   0  0  0  0  0  0  0  0  0  0  0  0
    9.0035   -1.6745   20.3928 N   0  0  0  0  0  0  0  0  0  0  0  0
    7.2392   -0.7260   21.7325 N   0  0  0  0  0  0  0  0  0  0  0  0
    6.6957    0.1781   18.2004 N   0  0  0  0  0  0  0  0  0  0  0  0
   10.7051    2.8249   22.5863 N   0  0  0  0  0  0  0  0  0  0  0  0
   10.3694    1.0531   21.1131 O   0  0  0  0  0  0  0  0  0  0  0  0
    5.5855    0.5129   20.7303 F   0  0  0  0  0  0  0  0  0  0  0  0
    8.0341   -3.1201   23.6629 S   0  0  0  0  0  0  0  0  0  0  0  0
  1  3  2  0
  1  4  1  0
  2  5  2  0
  2 17  1  0
  3 23  1  0
  4  6  2  0
  4 13  1  0
  5  7  1  0
  5 19  1  0
  6  8  1  0
  6 23  1  0
  7 18  2  0
  7 22  1  0
  8 17  2  0
  8 18  1  0
  9 14  1  0
  9 20  1  0
  9 21  2  0
 10 11  1  0
 10 12  1  0
 11 13  1  0
 12 14  1  0
 13 14  1  0
 15 19  1  0
 16 20  1  0
M  END
