BEN-VAN-5787f7d3-4
     RDKit          3D

 28 31  0  0  0  0  0  0  0  0999 V2000
   13.4739   -1.6855   23.6401 C   0  0  0  0  0  0  0  0  0  0  0  0
   13.9667    6.4352   22.6100 C   0  0  0  0  0  0  0  0  0  0  0  0
   12.1755   -2.0858   23.3247 C   0  0  0  0  0  0  0  0  0  0  0  0
   13.8480   -0.3501   23.4898 C   0  0  0  0  0  0  0  0  0  0  0  0
   12.9882    5.6149   23.2207 C   0  0  0  0  0  0  0  0  0  0  0  0
    5.4806    0.9905   19.3576 C   0  0  0  0  0  0  0  0  0  0  0  0
   11.6252    0.1845   22.7085 C   0  0  0  0  0  0  0  0  0  0  0  0
    6.0854    0.9625   18.1113 C   0  0  0  0  0  0  0  0  0  0  0  0
    7.7671   -0.4125   18.8590 C   0  0  0  0  0  0  0  0  0  0  0  0
   14.6988    5.6096   21.7888 C   0  0  0  0  0  0  0  0  0  0  0  0
    7.2413   -0.4488   20.1404 C   0  0  0  0  0  0  0  0  0  0  0  0
    6.0759    0.2687   20.3861 C   0  0  0  0  0  0  0  0  0  0  0  0
   11.2512   -1.1509   22.8589 C   0  0  0  0  0  0  0  0  0  0  0  0
   12.9236    0.5849   23.0240 C   0  0  0  0  0  0  0  0  0  0  0  0
   13.1920    4.3466   22.7290 C   0  0  0  0  0  0  0  0  0  0  0  0
    7.2812   -2.3262   21.8862 C   0  0  0  0  0  0  0  0  0  0  0  0
    7.9174   -3.0065   22.8421 C   0  0  0  0  0  0  0  0  0  0  0  0
    9.1766   -0.9022   21.5386 C   0  0  0  0  0  0  0  0  0  0  0  0
    7.9207   -1.2344   21.1900 C   0  0  0  0  0  0  0  0  0  0  0  0
    9.3241   -2.6702   23.2069 C   0  0  0  0  0  0  0  0  0  0  0  0
   12.4969    3.0743   22.9892 C   0  0  0  0  0  0  0  0  0  0  0  0
    5.4393    0.2856   21.7379 C   0  0  0  0  0  0  0  0  0  0  0  0
    7.2173    0.2772   17.8345 N   0  0  0  0  0  0  0  0  0  0  0  0
    9.9011   -1.5678   22.5317 N   0  0  0  0  0  0  0  0  0  0  0  0
   13.2983    1.9204   22.8739 N   0  0  0  0  0  0  0  0  0  0  0  0
    9.8755   -3.4027   24.0285 O   0  0  0  0  0  0  0  0  0  0  0  0
   11.2963    3.0515   23.2517 O   0  0  0  0  0  0  0  0  0  0  0  0
   14.2329    4.3348   21.8555 O   0  0  0  0  0  0  0  0  0  0  0  0
  1  3  2  0
  1  4  1  0
  2  5  1  0
  2 10  2  0
  3 13  1  0
  4 14  2  0
  5 15  2  0
  6  8  2  0
  6 12  1  0
  7 13  2  0
  7 14  1  0
  8 23  1  0
  9 11  1  0
  9 23  2  0
 10 28  1  0
 11 12  2  0
 11 19  1  0
 12 22  1  0
 13 24  1  0
 14 25  1  0
 15 21  1  0
 15 28  1  0
 16 17  2  0
 16 19  1  0
 17 20  1  0
 18 19  2  0
 18 24  1  0
 20 24  1  0
 20 26  2  0
 21 25  1  0
 21 27  2  0
M  END
