BEN-DND-362d364a-1
     RDKit          3D

 28 30  0  0  1  0  0  0  0  0999 V2000
   13.0811    1.7443   23.2976 C   0  0  0  0  0  0  0  0  0  0  0  0
   13.3579    0.6318   24.0922 C   0  0  0  0  0  0  0  0  0  0  0  0
   11.8204    2.3393   23.3455 C   0  0  0  0  0  0  0  0  0  0  0  0
    5.9084    0.4865   17.6408 C   0  0  0  0  0  0  0  0  0  0  0  0
   12.3740    0.1143   24.9346 C   0  0  0  0  0  0  0  0  0  0  0  0
   10.8365    1.8218   24.1879 C   0  0  0  0  0  0  0  0  0  0  0  0
    6.9468    0.1629   18.5140 C   0  0  0  0  0  0  0  0  0  0  0  0
    4.7824    1.1594   18.1151 C   0  0  0  0  0  0  0  0  0  0  0  0
    5.7331    1.1848   20.3360 C   0  0  0  0  0  0  0  0  0  0  0  0
   11.1132    0.7093   24.9825 C   0  0  0  0  0  0  0  0  0  0  0  0
    6.8592    0.5120   19.8616 C   0  0  0  0  0  0  0  0  0  0  0  0
    4.6947    1.5085   19.4627 C   0  0  0  0  0  0  0  0  0  0  0  0
    6.6816   -4.8207   23.7165 C   0  0  0  0  0  0  0  0  0  0  0  0
    5.9868   -3.1441   21.9396 C   0  0  0  0  0  0  0  0  0  0  0  0
    6.9378   -2.2947   21.1076 C   0  0  0  0  0  0  0  0  0  0  0  0
    7.1196   -2.4010   23.9982 C   0  0  0  0  0  0  0  0  0  0  0  0
    8.0864   -1.5332   23.1779 C   0  0  0  0  0  0  0  0  0  0  0  0
    6.0665   -5.9100   22.8745 C   0  0  0  0  0  0  0  0  0  0  0  0
   10.0483    0.1498   25.8935 C   0  0  0  0  0  0  0  0  0  0  0  0
    9.1894   -0.9178   25.2202 C   0  0  0  0  0  0  0  0  0  0  0  0
    6.6095   -3.5236   23.2096 N   0  0  0  0  0  0  0  0  0  0  0  0
    7.4002   -1.1147   21.9030 N   0  0  0  0  0  0  0  0  0  0  0  0
    8.5112   -0.4217   24.0337 N   0  0  0  0  0  0  0  0  0  0  0  0
    7.2120   -5.1164   24.7904 O   0  0  0  0  0  0  0  0  0  0  0  0
    9.2317   -0.5049   20.1940 O   0  0  0  0  0  0  0  0  0  0  0  0
    8.4215    1.2489   21.8111 O   0  0  0  0  0  0  0  0  0  0  0  0
    8.1726    0.1034   20.9662 S   0  0  0  0  0  0  0  0  0  0  0  0
    3.3046    2.3373   20.0478 Cl  0  0  0  0  0  0  0  0  0  0  0  0
  1  2  2  0
  1  3  1  0
  2  5  1  0
  3  6  2  0
  4  7  2  0
  4  8  1  0
  5 10  2  0
  6 10  1  0
  7 11  1  0
  8 12  2  0
  9 11  2  0
  9 12  1  0
 10 19  1  0
 11 27  1  0
 12 28  1  0
 13 18  1  0
 13 21  1  0
 13 24  2  0
 14 15  1  0
 14 21  1  0
 15 22  1  0
 16 17  1  0
 16 21  1  0
 17 22  1  0
 17 23  1  0
 19 20  1  0
 20 23  1  0
 22 27  1  0
 25 27  2  0
 26 27  2  0
M  END
