BEN-DND-362d364a-2
     RDKit          3D

 30 32  0  0  1  0  0  0  0  0999 V2000
    5.1208    0.9485   17.6714 C   0  0  0  0  0  0  0  0  0  0  0  0
   12.1246    2.4612   22.7655 C   0  0  0  0  0  0  0  0  0  0  0  0
   11.8251    1.2273   23.3321 C   0  0  0  0  0  0  0  0  0  0  0  0
    6.3093    0.5810   18.3024 C   0  0  0  0  0  0  0  0  0  0  0  0
    4.0559    1.4440   18.4239 C   0  0  0  0  0  0  0  0  0  0  0  0
    5.3680    1.2044   20.4384 C   0  0  0  0  0  0  0  0  0  0  0  0
   11.4853    3.5805   23.2736 C   0  0  0  0  0  0  0  0  0  0  0  0
   10.9083    1.1515   24.3748 C   0  0  0  0  0  0  0  0  0  0  0  0
    6.4328    0.7089   19.6859 C   0  0  0  0  0  0  0  0  0  0  0  0
    4.1795    1.5719   19.8074 C   0  0  0  0  0  0  0  0  0  0  0  0
   10.3236    2.3294   24.8110 C   0  0  0  0  0  0  0  0  0  0  0  0
    7.2143   -5.1521   22.5784 C   0  0  0  0  0  0  0  0  0  0  0  0
    6.1340   -3.2843   21.2385 C   0  0  0  0  0  0  0  0  0  0  0  0
    6.8802   -2.2404   20.4190 C   0  0  0  0  0  0  0  0  0  0  0  0
    7.5571   -2.7773   23.1855 C   0  0  0  0  0  0  0  0  0  0  0  0
    8.3197   -1.7157   22.3780 C   0  0  0  0  0  0  0  0  0  0  0  0
    6.5271   -6.1453   21.6755 C   0  0  0  0  0  0  0  0  0  0  0  0
    8.3062    3.1751   26.0112 C   0  0  0  0  0  0  0  0  0  0  0  0
   10.5863   -0.1896   24.9870 C   0  0  0  0  0  0  0  0  0  0  0  0
   10.0353   -1.1899   23.9738 C   0  0  0  0  0  0  0  0  0  0  0  0
   10.5893    3.5463   24.2853 N   0  0  0  0  0  0  0  0  0  0  0  0
    6.9841   -3.8027   22.3123 N   0  0  0  0  0  0  0  0  0  0  0  0
    7.4041   -1.1634   21.3159 N   0  0  0  0  0  0  0  0  0  0  0  0
    9.3894    2.2570   25.8741 N   0  0  0  0  0  0  0  0  0  0  0  0
    8.8209   -0.7186   23.3282 N   0  0  0  0  0  0  0  0  0  0  0  0
    7.9356   -5.5653   23.4901 O   0  0  0  0  0  0  0  0  0  0  0  0
    8.8807   -0.1466   19.4632 O   0  0  0  0  0  0  0  0  0  0  0  0
    8.2602    1.2625   21.4575 O   0  0  0  0  0  0  0  0  0  0  0  0
    7.9360    0.2449   20.4841 S   0  0  0  0  0  0  0  0  0  0  0  0
    2.8649    2.1819   20.7355 Cl  0  0  0  0  0  0  0  0  0  0  0  0
  1  4  2  0
  1  5  1  0
  2  3  2  0
  2  7  1  0
  3  8  1  0
  4  9  1  0
  5 10  2  0
  6  9  2  0
  6 10  1  0
  7 21  2  0
  8 11  2  0
  8 19  1  0
  9 29  1  0
 10 30  1  0
 11 21  1  0
 11 24  1  0
 12 17  1  0
 12 22  1  0
 12 26  2  0
 13 14  1  0
 13 22  1  0
 14 23  1  0
 15 16  1  0
 15 22  1  0
 16 23  1  0
 16 25  1  0
 18 24  1  0
 19 20  1  0
 20 25  1  0
 23 29  1  0
 27 29  2  0
 28 29  2  0
M  END
