BEN-BAS-e0d85f98-1
     RDKit          3D

 30 33  0  0  0  0  0  0  0  0999 V2000
   13.5536    0.7430   22.8843 C   0  0  0  0  0  0  0  0  0  0  0  0
    5.3896    0.7414   18.7938 C   0  0  0  0  0  0  0  0  0  0  0  0
    8.8050   -3.0494   24.6521 C   0  0  0  0  0  0  0  0  0  0  0  0
   14.2464   -0.3542   23.3959 C   0  0  0  0  0  0  0  0  0  0  0  0
   12.2335    0.5973   22.4577 C   0  0  0  0  0  0  0  0  0  0  0  0
    6.1789    0.5862   19.9279 C   0  0  0  0  0  0  0  0  0  0  0  0
    9.6174   -2.0954   24.0398 C   0  0  0  0  0  0  0  0  0  0  0  0
    6.5215   -3.9543   21.8771 C   0  0  0  0  0  0  0  0  0  0  0  0
    8.3835   -2.3624   21.9788 C   0  0  0  0  0  0  0  0  0  0  0  0
   12.2991   -1.7429   23.0544 C   0  0  0  0  0  0  0  0  0  0  0  0
    6.0094    0.6661   17.5569 C   0  0  0  0  0  0  0  0  0  0  0  0
    5.7481   -4.8944   22.5408 C   0  0  0  0  0  0  0  0  0  0  0  0
    6.9295   -4.6302   24.4926 C   0  0  0  0  0  0  0  0  0  0  0  0
    8.0680    0.3049   18.5107 C   0  0  0  0  0  0  0  0  0  0  0  0
    7.7720   -3.6694   23.9298 C   0  0  0  0  0  0  0  0  0  0  0  0
    7.5559   -3.3251   22.5794 C   0  0  0  0  0  0  0  0  0  0  0  0
   13.6192   -1.5972   23.4809 C   0  0  0  0  0  0  0  0  0  0  0  0
    9.4072   -1.7527   22.7062 C   0  0  0  0  0  0  0  0  0  0  0  0
   11.6063   -0.6457   22.5428 C   0  0  0  0  0  0  0  0  0  0  0  0
    7.5447    0.3635   19.7923 C   0  0  0  0  0  0  0  0  0  0  0  0
    9.7559   -0.0270   20.9553 C   0  0  0  0  0  0  0  0  0  0  0  0
   14.8218   -2.5129   25.4961 C   0  0  0  0  0  0  0  0  0  0  0  0
   15.6343   -3.0792   23.1820 C   0  0  0  0  0  0  0  0  0  0  0  0
   13.5555   -4.1112   24.0736 C   0  0  0  0  0  0  0  0  0  0  0  0
   14.3603   -2.7698   24.0280 C   0  0  0  0  0  0  0  0  0  0  0  0
    7.3330    0.4511   17.3855 N   0  0  0  0  0  0  0  0  0  0  0  0
    5.9254   -5.2489   23.8313 N   0  0  0  0  0  0  0  0  0  0  0  0
    8.3739    0.2019   20.9279 N   0  0  0  0  0  0  0  0  0  0  0  0
   10.2218   -0.7980   22.0960 N   0  0  0  0  0  0  0  0  0  0  0  0
   10.5354    0.3282   20.0685 O   0  0  0  0  0  0  0  0  0  0  0  0
  1  4  2  0
  1  5  1  0
  2  6  2  0
  2 11  1  0
  3  7  2  0
  3 15  1  0
  4 17  1  0
  5 19  2  0
  6 20  1  0
  7 18  1  0
  8 12  1  0
  8 16  2  0
  9 16  1  0
  9 18  2  0
 10 17  2  0
 10 19  1  0
 11 26  2  0
 12 27  2  0
 13 15  2  0
 13 27  1  0
 14 20  2  0
 14 26  1  0
 15 16  1  0
 17 25  1  0
 18 29  1  0
 19 29  1  0
 20 28  1  0
 21 28  1  0
 21 29  1  0
 21 30  2  0
 22 25  1  0
 23 25  1  0
 24 25  1  0
M  END
