BER-UNK-c44c38d5-1
     RDKit          3D

 29 33  0  0  0  0  0  0  0  0999 V2000
    5.6968   -3.8480   23.8192 C   0  0  0  0  0  0  0  0  0  0  0  0
    5.0141   -2.9478   24.6360 C   0  0  0  0  0  0  0  0  0  0  0  0
   14.2437    4.4900   22.1888 C   0  0  0  0  0  0  0  0  0  0  0  0
   13.2977    5.3760   22.6893 C   0  0  0  0  0  0  0  0  0  0  0  0
    6.9549   -3.5179   23.3111 C   0  0  0  0  0  0  0  0  0  0  0  0
   14.0143    3.1133   22.2485 C   0  0  0  0  0  0  0  0  0  0  0  0
    5.5872   -1.7159   24.9453 C   0  0  0  0  0  0  0  0  0  0  0  0
   12.1208    4.8849   23.2467 C   0  0  0  0  0  0  0  0  0  0  0  0
    7.5405   -2.2846   23.6141 C   0  0  0  0  0  0  0  0  0  0  0  0
   11.8812    3.5047   23.3077 C   0  0  0  0  0  0  0  0  0  0  0  0
   12.8340    2.5938   22.8133 C   0  0  0  0  0  0  0  0  0  0  0  0
    6.8442   -1.3910   24.4333 C   0  0  0  0  0  0  0  0  0  0  0  0
    9.1011    1.3830   24.4149 C   0  0  0  0  0  0  0  0  0  0  0  0
   10.6792   -0.4411   22.8932 C   0  0  0  0  0  0  0  0  0  0  0  0
   11.2463    0.7579   23.1563 C   0  0  0  0  0  0  0  0  0  0  0  0
    8.5917    0.1694   24.2195 C   0  0  0  0  0  0  0  0  0  0  0  0
   10.3831    1.8035   23.8159 C   0  0  0  0  0  0  0  0  0  0  0  0
    9.3154   -0.8182   23.3874 C   0  0  0  0  0  0  0  0  0  0  0  0
   11.1489    5.8421   23.7625 C   0  0  0  0  0  0  0  0  0  0  0  0
   11.3970   -1.4132   22.0428 C   0  0  0  0  0  0  0  0  0  0  0  0
   13.7289    0.3297   22.8858 C   0  0  0  0  0  0  0  0  0  0  0  0
    8.8094   -1.9804   23.0983 N   0  0  0  0  0  0  0  0  0  0  0  0
   10.6859    3.0655   23.8949 N   0  0  0  0  0  0  0  0  0  0  0  0
   12.5507    1.2027   22.8881 N   0  0  0  0  0  0  0  0  0  0  0  0
   10.1777    6.3095   22.8847 N   0  0  0  0  0  0  0  0  0  0  0  0
   11.1029   -1.2785   20.7113 N   0  0  0  0  0  0  0  0  0  0  0  0
   11.1966    6.2387   24.9379 O   0  0  0  0  0  0  0  0  0  0  0  0
   12.1641   -2.2333   22.5263 O   0  0  0  0  0  0  0  0  0  0  0  0
    7.3613   -0.1631   24.7638 O   0  0  0  0  0  0  0  0  0  0  0  0
  1  2  2  0
  1  5  1  0
  2  7  1  0
  3  4  2  0
  3  6  1  0
  4  8  1  0
  5  9  2  0
  6 11  2  0
  7 12  2  0
  8 10  2  0
  8 19  1  0
  9 12  1  0
  9 22  1  0
 10 11  1  0
 10 23  1  0
 11 24  1  0
 12 29  1  0
 13 16  2  0
 13 17  1  0
 14 15  2  0
 14 18  1  0
 14 20  1  0
 15 17  1  0
 15 24  1  0
 16 18  1  0
 16 29  1  0
 17 23  2  0
 18 22  2  0
 19 25  1  0
 19 27  2  0
 20 26  1  0
 20 28  2  0
 21 24  1  0
M  END
