BET-COM-8a5969bb-2
     RDKit          3D

 14 13  0  0  1  0  0  0  0  0999 V2000
    9.3191   -2.2518   21.7167 C   0  0  0  0  0  0  0  0  0  0  0  0
   11.8981   -2.7323   24.2836 C   0  0  0  0  0  0  0  0  0  0  0  0
    9.1438   -2.6466   22.9891 C   0  0  0  0  0  0  0  0  0  0  0  0
   12.2751   -1.5870   24.8833 C   0  0  0  0  0  0  0  0  0  0  0  0
    7.1807   -5.1269   22.1739 C   0  0  0  0  0  0  0  0  0  0  0  0
    8.2987   -1.8315   23.9291 C   0  0  0  0  0  0  0  0  0  0  0  0
   13.4041   -0.6996   24.4424 C   0  0  0  0  0  0  0  0  0  0  0  0
   11.5480   -1.0968   26.1080 C   0  0  0  0  0  0  0  0  0  0  0  0
    6.3664   -6.2086   21.5312 C   0  0  0  0  0  0  0  0  0  0  0  0
   10.7821   -3.6669   24.6690 C   0  0  0  0  0  0  0  0  0  0  0  0
    8.7514   -4.9736   23.9326 C   0  0  0  0  0  0  0  0  0  0  0  0
    9.7957   -3.9277   23.5075 C   0  0  0  0  0  0  0  0  0  0  0  0
    6.8904   -3.9387   22.1395 O   0  0  0  0  0  0  0  0  0  0  0  0
    8.2736   -5.6714   22.7889 O   0  0  0  0  0  0  0  0  0  0  0  0
  1  3  2  0
  2  4  2  3
  2 10  1  0
  3  6  1  0
  3 12  1  0
  4  7  1  0
  4  8  1  0
  5  9  1  0
  5 13  2  0
  5 14  1  0
 10 12  1  0
 11 12  1  0
 11 14  1  0
M  END
