BOG-INS-0b2b845a-1
     RDKit          3D

 32 35  0  0  0  0  0  0  0  0999 V2000
   13.5661    0.0391   22.3709 C   0  0  0  0  0  0  0  0  0  0  0  0
   13.2549    1.1156   23.1965 C   0  0  0  0  0  0  0  0  0  0  0  0
   12.7061   -1.0505   22.3113 C   0  0  0  0  0  0  0  0  0  0  0  0
   11.7418    2.1747   24.8060 C   0  0  0  0  0  0  0  0  0  0  0  0
   12.0795    1.1045   23.9666 C   0  0  0  0  0  0  0  0  0  0  0  0
   10.5739    2.1335   25.5539 C   0  0  0  0  0  0  0  0  0  0  0  0
   11.5376   -1.0612   23.0769 C   0  0  0  0  0  0  0  0  0  0  0  0
   11.2018    0.0015   23.9111 C   0  0  0  0  0  0  0  0  0  0  0  0
    9.7784    1.0122   25.4336 C   0  0  0  0  0  0  0  0  0  0  0  0
   10.2377    3.2541   26.4209 C   0  0  0  0  0  0  0  0  0  0  0  0
    6.1402   -2.4016   19.7530 C   0  0  0  0  0  0  0  0  0  0  0  0
    7.3284    1.4590   25.6615 C   0  0  0  0  0  0  0  0  0  0  0  0
    8.4685    0.0112   27.2903 C   0  0  0  0  0  0  0  0  0  0  0  0
    6.9577   -2.7141   22.0671 C   0  0  0  0  0  0  0  0  0  0  0  0
    7.8719   -0.8351   20.7607 C   0  0  0  0  0  0  0  0  0  0  0  0
    6.4822    0.2936   25.1629 C   0  0  0  0  0  0  0  0  0  0  0  0
    7.6438   -1.1889   26.8297 C   0  0  0  0  0  0  0  0  0  0  0  0
    8.3607   -3.1415   22.4728 C   0  0  0  0  0  0  0  0  0  0  0  0
    9.2895   -1.2334   21.1485 C   0  0  0  0  0  0  0  0  0  0  0  0
    9.7657    5.7119   26.5366 C   0  0  0  0  0  0  0  0  0  0  0  0
    5.4211   -1.8472   25.8963 C   0  0  0  0  0  0  0  0  0  0  0  0
   10.6417   -2.2608   22.9791 C   0  0  0  0  0  0  0  0  0  0  0  0
    6.2220   -1.6092   18.4727 C   0  0  0  0  0  0  0  0  0  0  0  0
   10.0677   -0.0412   24.6357 N   0  0  0  0  0  0  0  0  0  0  0  0
    8.6036    0.9549   26.1760 N   0  0  0  0  0  0  0  0  0  0  0  0
    6.9749   -1.9952   20.7931 N   0  0  0  0  0  0  0  0  0  0  0  0
   10.0764    4.5020   25.8097 N   0  0  0  0  0  0  0  0  0  0  0  0
    6.3123   -0.7037   26.2925 N   0  0  0  0  0  0  0  0  0  0  0  0
    9.2599   -1.9256   22.4928 N   0  0  0  0  0  0  0  0  0  0  0  0
   10.1251    3.0891   27.6476 O   0  0  0  0  0  0  0  0  0  0  0  0
    5.3595   -3.3542   19.8236 O   0  0  0  0  0  0  0  0  0  0  0  0
    5.0179   -0.3312   18.5935 Cl  0  0  0  0  0  0  0  0  0  0  0  0
  1  2  2  0
  1  3  1  0
  2  5  1  0
  3  7  2  0
  4  5  2  0
  4  6  1  0
  5  8  1  0
  6  9  2  0
  6 10  1  0
  7  8  1  0
  7 22  1  0
  8 24  2  0
  9 24  1  0
  9 25  1  0
 10 27  1  0
 10 30  2  0
 11 23  1  0
 11 26  1  0
 11 31  2  0
 12 16  1  0
 12 25  1  0
 13 17  1  0
 13 25  1  0
 14 18  1  0
 14 26  1  0
 15 19  1  0
 15 26  1  0
 16 28  1  0
 17 28  1  0
 18 29  1  0
 19 29  1  0
 20 27  1  0
 21 28  1  0
 22 29  1  0
 23 32  1  0
M  CHG  2  28   1  29   1
M  END
