BOG-INS-6c21c533-1
     RDKit          3D

 34 39  0  0  1  0  0  0  0  0999 V2000
   11.0077   -2.7684   24.2007 C   0  0  0  0  0  0  0  0  0  0  0  0
   10.0480   -3.1883   23.6125 C   0  0  0  0  0  0  0  0  0  0  0  0
   12.6932   -3.0231   25.9414 C   0  0  0  0  0  0  0  0  0  0  0  0
   13.8075   -2.5529   26.6362 C   0  0  0  0  0  0  0  0  0  0  0  0
    8.3730   -4.9942   22.9964 C   0  0  0  0  0  0  0  0  0  0  0  0
   13.8361   -0.5737   25.2508 C   0  0  0  0  0  0  0  0  0  0  0  0
   12.1503   -2.2686   24.9012 C   0  0  0  0  0  0  0  0  0  0  0  0
    8.9099   -3.6861   22.9152 C   0  0  0  0  0  0  0  0  0  0  0  0
   12.7218   -1.0439   24.5560 C   0  0  0  0  0  0  0  0  0  0  0  0
   14.3790   -1.3282   26.2909 C   0  0  0  0  0  0  0  0  0  0  0  0
    8.1267   -2.9734   22.0325 C   0  0  0  0  0  0  0  0  0  0  0  0
    7.2771   -5.0492   22.1625 C   0  0  0  0  0  0  0  0  0  0  0  0
    8.1464   -1.6357   21.5377 C   0  0  0  0  0  0  0  0  0  0  0  0
    7.2089   -1.2382   20.6557 C   0  0  0  0  0  0  0  0  0  0  0  0
    6.1468   -3.4104   20.6562 C   0  0  0  0  0  0  0  0  0  0  0  0
    6.1780   -2.1499   20.1998 C   0  0  0  0  0  0  0  0  0  0  0  0
    2.3705   -6.4241   26.0472 C   0  0  0  0  0  0  0  0  0  0  0  0
    7.0501   -7.5442   21.4001 C   0  0  0  0  0  0  0  0  0  0  0  0
    6.1392   -6.7428   20.5214 C   0  0  0  0  0  0  0  0  0  0  0  0
    2.8302   -5.7073   22.6880 C   0  0  0  0  0  0  0  0  0  0  0  0
    4.6030   -7.0778   25.2343 C   0  0  0  0  0  0  0  0  0  0  0  0
    5.7675   -6.6792   24.3359 C   0  0  0  0  0  0  0  0  0  0  0  0
    3.3365   -5.2897   24.0432 C   0  0  0  0  0  0  0  0  0  0  0  0
    4.2830   -5.3750   22.8693 C   0  0  0  0  0  0  0  0  0  0  0  0
    6.3914   -6.2940   21.9463 C   0  0  0  0  0  0  0  0  0  0  0  0
    1.1780   -5.5123   25.8878 C   0  0  0  0  0  0  0  0  0  0  0  0
    7.1200   -3.8170   21.5697 N   0  0  0  0  0  0  0  0  0  0  0  0
    3.4131   -6.2297   25.1371 N   0  0  0  0  0  0  0  0  0  0  0  0
    5.2683   -6.4937   22.9294 N   0  0  0  0  0  0  0  0  0  0  0  0
    2.3831   -7.2737   26.9405 O   0  0  0  0  0  0  0  0  0  0  0  0
   12.2117   -0.2866   23.5430 O   0  0  0  0  0  0  0  0  0  0  0  0
   15.4484   -0.8759   26.9587 F   0  0  0  0  0  0  0  0  0  0  0  0
    5.2623   -1.7051   19.3172 F   0  0  0  0  0  0  0  0  0  0  0  0
    1.4749   -4.1139   26.9136 Cl  0  0  0  0  0  0  0  0  0  0  0  0
  1  2  3  0
  1  7  1  0
  2  8  1  0
  3  4  2  0
  3  7  1  0
  4 10  1  0
  5  8  1  0
  5 12  2  0
  6  9  1  0
  6 10  2  0
  7  9  2  0
  8 11  2  0
  9 31  1  0
 10 32  1  0
 11 13  1  0
 11 27  1  0
 12 25  1  0
 12 27  1  0
 13 14  2  0
 14 16  1  0
 15 16  2  0
 15 27  1  0
 16 33  1  0
 17 26  1  0
 17 28  1  0
 17 30  2  0
 18 19  1  0
 18 25  1  0
 19 25  1  0
 20 23  1  0
 20 24  1  0
 21 22  1  0
 21 28  1  0
 22 29  1  0
 23 24  1  0
 23 28  1  0
 24 29  1  0
 25 29  1  0
 26 34  1  0
M  CHG  1  29   1
M  END
