BOG-INS-16021dc0-1
     RDKit          3D

 34 37  0  0  1  0  0  0  0  0999 V2000
   12.2717    0.9640   23.4413 C   0  0  0  0  0  0  0  0  0  0  0  0
    7.8092   -3.6959   23.2745 C   0  0  0  0  0  0  0  0  0  0  0  0
   13.3658    0.5448   22.6845 C   0  0  0  0  0  0  0  0  0  0  0  0
    8.8665   -3.7503   24.1881 C   0  0  0  0  0  0  0  0  0  0  0  0
   12.2132   -1.5121   22.1575 C   0  0  0  0  0  0  0  0  0  0  0  0
   11.1190   -1.0929   22.9143 C   0  0  0  0  0  0  0  0  0  0  0  0
    9.9611   -1.9644   23.0181 C   0  0  0  0  0  0  0  0  0  0  0  0
   11.1483    0.1452   23.5562 C   0  0  0  0  0  0  0  0  0  0  0  0
    8.8957   -1.8964   22.1022 C   0  0  0  0  0  0  0  0  0  0  0  0
    7.7962   -2.7810   22.2025 C   0  0  0  0  0  0  0  0  0  0  0  0
   13.3366   -0.6933   22.0426 C   0  0  0  0  0  0  0  0  0  0  0  0
    9.9447   -2.8866   24.0580 C   0  0  0  0  0  0  0  0  0  0  0  0
    6.7771    0.3040   21.1107 C   0  0  0  0  0  0  0  0  0  0  0  0
    8.6000    3.6712   25.9550 C   0  0  0  0  0  0  0  0  0  0  0  0
    8.9817   -0.8753   20.9915 C   0  0  0  0  0  0  0  0  0  0  0  0
    8.8030    1.3867   26.8773 C   0  0  0  0  0  0  0  0  0  0  0  0
   10.2692    2.0105   24.9976 C   0  0  0  0  0  0  0  0  0  0  0  0
    6.9120   -1.9461   20.0578 C   0  0  0  0  0  0  0  0  0  0  0  0
    8.5723    0.0469   26.1944 C   0  0  0  0  0  0  0  0  0  0  0  0
    9.9811    0.6339   24.3856 C   0  0  0  0  0  0  0  0  0  0  0  0
    7.6397   -0.6312   20.3099 C   0  0  0  0  0  0  0  0  0  0  0  0
    4.4516    0.5844   20.1996 C   0  0  0  0  0  0  0  0  0  0  0  0
    5.6308   -3.6556   21.3548 C   0  0  0  0  0  0  0  0  0  0  0  0
    9.0404    4.6612   24.9064 C   0  0  0  0  0  0  0  0  0  0  0  0
    5.8324    1.2029   20.3319 C   0  0  0  0  0  0  0  0  0  0  0  0
    6.7435   -2.7183   21.2894 N   0  0  0  0  0  0  0  0  0  0  0  0
    9.1805    2.4053   25.8986 N   0  0  0  0  0  0  0  0  0  0  0  0
    5.6898    2.5199   21.0168 N   0  0  0  0  0  0  0  0  0  0  0  0
    6.8373    0.3175   22.3405 O   0  0  0  0  0  0  0  0  0  0  0  0
    7.7634    4.0120   26.7950 O   0  0  0  0  0  0  0  0  0  0  0  0
    9.7135   -0.3234   25.4194 O   0  0  0  0  0  0  0  0  0  0  0  0
   14.3875   -1.0958   21.3160 F   0  0  0  0  0  0  0  0  0  0  0  0
   10.9542   -2.9578   24.9380 F   0  0  0  0  0  0  0  0  0  0  0  0
    7.9696    4.4434   23.5266 Cl  0  0  0  0  0  0  0  0  0  0  0  0
  1  3  2  0
  1  8  1  0
  2  4  2  0
  2 10  1  0
  3 11  1  0
  4 12  1  0
  5  6  1  0
  5 11  2  0
  6  7  1  0
  6  8  2  0
  7  9  1  0
  7 12  2  0
  8 20  1  0
  9 10  2  0
  9 15  1  0
 10 26  1  0
 11 32  1  0
 12 33  1  0
 13 21  1  0
 13 25  1  0
 13 29  2  0
 14 24  1  0
 14 27  1  0
 14 30  2  0
 15 21  1  0
 16 19  1  0
 16 27  1  0
 17 20  1  0
 17 27  1  0
 18 21  1  0
 18 26  1  0
 19 31  1  0
 20 31  1  0
 22 25  1  0
 23 26  1  0
 24 34  1  0
 25 28  1  0
M  CHG  1  28   1
M  END
