BOG-INS-da52c1c2-1
     RDKit          3D

 31 34  0  0  1  0  0  0  0  0999 V2000
    9.9901   -3.3138   24.3048 C   0  0  0  0  0  0  0  0  0  0  0  0
    8.5283   -4.4462   25.8789 C   0  0  0  0  0  0  0  0  0  0  0  0
   10.2715   -0.1711   23.3131 C   0  0  0  0  0  0  0  0  0  0  0  0
   12.0811   -0.8304   21.8545 C   0  0  0  0  0  0  0  0  0  0  0  0
   12.4978    0.6906   23.6848 C   0  0  0  0  0  0  0  0  0  0  0  0
    8.8820   -3.0580   23.4728 C   0  0  0  0  0  0  0  0  0  0  0  0
    7.4144   -4.2040   25.0699 C   0  0  0  0  0  0  0  0  0  0  0  0
   10.7358   -0.8979   22.2168 C   0  0  0  0  0  0  0  0  0  0  0  0
    8.7120   -2.4009   22.2221 C   0  0  0  0  0  0  0  0  0  0  0  0
    7.6222   -3.5081   23.8738 C   0  0  0  0  0  0  0  0  0  0  0  0
   11.1525    0.6232   24.0471 C   0  0  0  0  0  0  0  0  0  0  0  0
    9.7972   -4.0088   25.5042 C   0  0  0  0  0  0  0  0  0  0  0  0
   12.9621   -0.0362   22.5885 C   0  0  0  0  0  0  0  0  0  0  0  0
    7.3774   -2.4639   21.8940 C   0  0  0  0  0  0  0  0  0  0  0  0
    4.0379   -4.7276   28.6134 C   0  0  0  0  0  0  0  0  0  0  0  0
    4.1402   -6.3389   26.6705 C   0  0  0  0  0  0  0  0  0  0  0  0
    5.9657   -4.7095   27.0622 C   0  0  0  0  0  0  0  0  0  0  0  0
    5.2249   -6.9508   25.7970 C   0  0  0  0  0  0  0  0  0  0  0  0
    6.0633   -4.7048   25.5318 C   0  0  0  0  0  0  0  0  0  0  0  0
    5.3036   -3.3983   22.9060 C   0  0  0  0  0  0  0  0  0  0  0  0
    9.7753   -1.7645   21.4168 C   0  0  0  0  0  0  0  0  0  0  0  0
    2.7172   -5.3595   28.9791 C   0  0  0  0  0  0  0  0  0  0  0  0
    6.7281   -3.1333   22.8964 N   0  0  0  0  0  0  0  0  0  0  0  0
    4.6758   -5.2491   27.4891 N   0  0  0  0  0  0  0  0  0  0  0  0
    4.4887   -3.8101   29.3027 O   0  0  0  0  0  0  0  0  0  0  0  0
    5.8241   -5.9865   24.9346 O   0  0  0  0  0  0  0  0  0  0  0  0
   10.7001    1.3321   25.1173 O   0  0  0  0  0  0  0  0  0  0  0  0
    6.7200   -2.0021   20.8374 O   0  0  0  0  0  0  0  0  0  0  0  0
   10.8466   -4.2570   26.2998 F   0  0  0  0  0  0  0  0  0  0  0  0
   14.2541    0.0287   22.2407 F   0  0  0  0  0  0  0  0  0  0  0  0
    3.0833   -6.7098   30.0471 Cl  0  0  0  0  0  0  0  0  0  0  0  0
  1  6  2  0
  1 12  1  0
  2  7  1  0
  2 12  2  0
  3  8  2  0
  3 11  1  0
  4  8  1  0
  4 13  2  0
  5 11  2  0
  5 13  1  0
  6  9  1  0
  6 10  1  0
  7 10  2  0
  7 19  1  0
  8 21  1  0
  9 14  2  0
  9 21  1  0
 10 23  1  0
 11 27  1  0
 12 29  1  0
 13 30  1  0
 14 23  1  0
 14 28  1  0
 15 22  1  0
 15 24  1  0
 15 25  2  0
 16 18  1  0
 16 24  1  0
 17 19  1  0
 17 24  1  0
 18 26  1  0
 19 26  1  0
 20 23  1  0
 22 31  1  0
M  END
