BOG-INS-15b226b5-1
     RDKit          3D

 27 31  0  0  1  0  0  0  0  0999 V2000
   13.6909   -1.3608   22.2139 C   0  0  0  0  0  0  0  0  0  0  0  0
   13.7707   -0.0062   22.5237 C   0  0  0  0  0  0  0  0  0  0  0  0
   12.5308   -2.0651   22.5112 C   0  0  0  0  0  0  0  0  0  0  0  0
   12.7406    2.0115   23.4561 C   0  0  0  0  0  0  0  0  0  0  0  0
   10.5422    1.8538   24.3176 C   0  0  0  0  0  0  0  0  0  0  0  0
   12.6872    0.6488   23.1334 C   0  0  0  0  0  0  0  0  0  0  0  0
   11.6539    2.6293   24.0579 C   0  0  0  0  0  0  0  0  0  0  0  0
   11.4537   -1.4137   23.1174 C   0  0  0  0  0  0  0  0  0  0  0  0
   11.5063   -0.0600   23.4383 C   0  0  0  0  0  0  0  0  0  0  0  0
    6.6703   -2.5065   19.5248 C   0  0  0  0  0  0  0  0  0  0  0  0
    7.6150    0.7303   20.9693 C   0  0  0  0  0  0  0  0  0  0  0  0
    8.1532    0.4291   19.6116 C   0  0  0  0  0  0  0  0  0  0  0  0
   12.6116    5.0399   23.6782 C   0  0  0  0  0  0  0  0  0  0  0  0
    6.6572   -2.1533   21.9753 C   0  0  0  0  0  0  0  0  0  0  0  0
    7.8732   -2.7196   22.7112 C   0  0  0  0  0  0  0  0  0  0  0  0
    9.3100   -1.1639   21.3324 C   0  0  0  0  0  0  0  0  0  0  0  0
   11.6865    4.0972   24.4157 C   0  0  0  0  0  0  0  0  0  0  0  0
   11.1334    5.1231   23.4503 C   0  0  0  0  0  0  0  0  0  0  0  0
    8.0591   -0.6877   20.6297 C   0  0  0  0  0  0  0  0  0  0  0  0
   10.2231   -2.2172   23.4185 C   0  0  0  0  0  0  0  0  0  0  0  0
    7.5856   -2.4957   18.3273 C   0  0  0  0  0  0  0  0  0  0  0  0
   10.4500    0.5369   24.0223 N   0  0  0  0  0  0  0  0  0  0  0  0
    7.0436   -1.7308   20.6223 N   0  0  0  0  0  0  0  0  0  0  0  0
    8.9972   -1.6983   22.7244 N   0  0  0  0  0  0  0  0  0  0  0  0
   10.4175    6.2712   24.0204 N   0  0  0  0  0  0  0  0  0  0  0  0
    5.6465   -3.1954   19.4883 O   0  0  0  0  0  0  0  0  0  0  0  0
    7.4461   -4.0794   17.5716 Cl  0  0  0  0  0  0  0  0  0  0  0  0
  1  2  2  0
  1  3  1  0
  2  6  1  0
  3  8  2  0
  4  6  2  0
  4  7  1  0
  5  7  2  0
  5 22  1  0
  6  9  1  0
  7 17  1  0
  8  9  1  0
  8 20  1  0
  9 22  2  0
 10 21  1  0
 10 23  1  0
 10 26  2  0
 11 12  1  0
 11 19  1  0
 12 19  1  0
 13 17  1  0
 13 18  1  0
 14 15  1  0
 14 23  1  0
 15 24  1  0
 16 19  1  0
 16 24  1  0
 17 18  1  0
 18 25  1  0
 19 23  1  0
 20 24  1  0
 21 27  1  0
M  CHG  2  24   1  25   1
M  END
