BOG-INS-29936cf2-1
     RDKit          3D

 33 38  0  0  1  0  0  0  0  0999 V2000
   10.7575   -2.8414   24.2822 C   0  0  0  0  0  0  0  0  0  0  0  0
    9.7771   -3.1804   23.6763 C   0  0  0  0  0  0  0  0  0  0  0  0
   12.4103   -3.2569   26.0232 C   0  0  0  0  0  0  0  0  0  0  0  0
   13.5476   -2.8810   26.7380 C   0  0  0  0  0  0  0  0  0  0  0  0
    8.2297   -3.1541   21.6641 C   0  0  0  0  0  0  0  0  0  0  0  0
   13.7141   -0.8671   25.4138 C   0  0  0  0  0  0  0  0  0  0  0  0
   11.9249   -2.4380   25.0037 C   0  0  0  0  0  0  0  0  0  0  0  0
    8.6147   -3.5826   22.9579 C   0  0  0  0  0  0  0  0  0  0  0  0
   12.5768   -1.2430   24.6990 C   0  0  0  0  0  0  0  0  0  0  0  0
   14.1995   -1.6861   26.4333 C   0  0  0  0  0  0  0  0  0  0  0  0
    7.6541   -4.4662   23.4015 C   0  0  0  0  0  0  0  0  0  0  0  0
    7.0457   -3.7856   21.3496 C   0  0  0  0  0  0  0  0  0  0  0  0
    7.4708   -5.2238   24.5946 C   0  0  0  0  0  0  0  0  0  0  0  0
    6.3899   -6.0181   24.7183 C   0  0  0  0  0  0  0  0  0  0  0  0
    5.3992   -6.1234   23.6596 C   0  0  0  0  0  0  0  0  0  0  0  0
    5.5675   -5.4116   22.5333 C   0  0  0  0  0  0  0  0  0  0  0  0
    4.6939    1.8968   19.5227 C   0  0  0  0  0  0  0  0  0  0  0  0
    5.4492   -4.7735   19.5239 C   0  0  0  0  0  0  0  0  0  0  0  0
    6.7239   -4.4085   18.8267 C   0  0  0  0  0  0  0  0  0  0  0  0
    6.4537   -0.6057   17.8947 C   0  0  0  0  0  0  0  0  0  0  0  0
    4.4179   -0.3066   20.5912 C   0  0  0  0  0  0  0  0  0  0  0  0
    5.1251   -1.5983   20.9830 C   0  0  0  0  0  0  0  0  0  0  0  0
    6.4405    0.1410   19.2023 C   0  0  0  0  0  0  0  0  0  0  0  0
    6.7677   -1.3331   19.1699 C   0  0  0  0  0  0  0  0  0  0  0  0
    6.2703   -3.6044   20.0280 C   0  0  0  0  0  0  0  0  0  0  0  0
    5.5623    2.7995   18.6803 C   0  0  0  0  0  0  0  0  0  0  0  0
    6.6878   -4.5896   22.4079 N   0  0  0  0  0  0  0  0  0  0  0  0
    5.2065    0.6219   19.7784 N   0  0  0  0  0  0  0  0  0  0  0  0
    5.7265   -2.2267   19.7561 N   0  0  0  0  0  0  0  0  0  0  0  0
    3.6065    2.3003   19.9407 O   0  0  0  0  0  0  0  0  0  0  0  0
   12.1241   -0.4242   23.7068 O   0  0  0  0  0  0  0  0  0  0  0  0
   15.2910   -1.3243   27.1203 F   0  0  0  0  0  0  0  0  0  0  0  0
    6.5749    3.7068   19.7972 Cl  0  0  0  0  0  0  0  0  0  0  0  0
  1  2  3  0
  1  7  1  0
  2  8  1  0
  3  4  2  0
  3  7  1  0
  4 10  1  0
  5  8  1  0
  5 12  2  0
  6  9  1  0
  6 10  2  0
  7  9  2  0
  8 11  2  0
  9 31  1  0
 10 32  1  0
 11 13  1  0
 11 27  1  0
 12 25  1  0
 12 27  1  0
 13 14  2  0
 14 15  1  0
 15 16  2  0
 16 27  1  0
 17 26  1  0
 17 28  1  0
 17 30  2  0
 18 19  1  0
 18 25  1  0
 19 25  1  0
 20 23  1  0
 20 24  1  0
 21 22  1  0
 21 28  1  0
 22 29  1  0
 23 24  1  0
 23 28  1  0
 24 29  1  0
 25 29  1  0
 26 33  1  0
M  CHG  1  29   1
M  END
