BOG-INS-d6bb07dc-1
     RDKit          3D

 29 32  0  0  1  0  0  0  0  0999 V2000
   12.2553   -0.0201   23.7588 C   0  0  0  0  0  0  0  0  0  0  0  0
   11.4295   -1.2901   21.8544 C   0  0  0  0  0  0  0  0  0  0  0  0
   11.3689    3.0362   24.0353 C   0  0  0  0  0  0  0  0  0  0  0  0
    9.3209    3.3361   25.2812 C   0  0  0  0  0  0  0  0  0  0  0  0
    9.7116    4.6199   23.2722 C   0  0  0  0  0  0  0  0  0  0  0  0
   11.0191   -0.1817   24.3648 C   0  0  0  0  0  0  0  0  0  0  0  0
   10.1908   -1.4620   22.4744 C   0  0  0  0  0  0  0  0  0  0  0  0
    9.9980   -0.8979   23.7248 C   0  0  0  0  0  0  0  0  0  0  0  0
   10.5560    2.7082   25.1203 C   0  0  0  0  0  0  0  0  0  0  0  0
   10.9468    3.9920   23.1113 C   0  0  0  0  0  0  0  0  0  0  0  0
   12.4543   -0.5745   22.4920 C   0  0  0  0  0  0  0  0  0  0  0  0
    8.8987    4.2919   24.3572 C   0  0  0  0  0  0  0  0  0  0  0  0
    6.6242   -2.0157   19.0607 C   0  0  0  0  0  0  0  0  0  0  0  0
    8.7773   -0.9796   24.5866 C   0  0  0  0  0  0  0  0  0  0  0  0
    9.0359    0.1699   25.5709 C   0  0  0  0  0  0  0  0  0  0  0  0
    6.3495   -2.8973   21.3538 C   0  0  0  0  0  0  0  0  0  0  0  0
    8.2100   -1.3385   20.9282 C   0  0  0  0  0  0  0  0  0  0  0  0
    7.3054   -3.7414   22.1835 C   0  0  0  0  0  0  0  0  0  0  0  0
   10.5679    0.2749   25.7249 C   0  0  0  0  0  0  0  0  0  0  0  0
    9.0987   -2.2494   21.7843 C   0  0  0  0  0  0  0  0  0  0  0  0
   11.0116    1.6756   26.1178 C   0  0  0  0  0  0  0  0  0  0  0  0
    7.4431   -1.1772   18.1121 C   0  0  0  0  0  0  0  0  0  0  0  0
    7.0849   -2.0998   20.3734 N   0  0  0  0  0  0  0  0  0  0  0  0
    5.6091   -2.5809   18.6461 O   0  0  0  0  0  0  0  0  0  0  0  0
    8.3117   -2.9203   22.7779 O   0  0  0  0  0  0  0  0  0  0  0  0
   11.7393    4.3120   22.0520 O   0  0  0  0  0  0  0  0  0  0  0  0
   13.6389   -0.4295   21.8827 F   0  0  0  0  0  0  0  0  0  0  0  0
    7.7126    4.8950   24.5116 F   0  0  0  0  0  0  0  0  0  0  0  0
    6.6566   -1.2806   16.5409 Cl  0  0  0  0  0  0  0  0  0  0  0  0
  1  6  2  0
  1 11  1  0
  2  7  1  0
  2 11  2  0
  3  9  2  0
  3 10  1  0
  4  9  1  0
  4 12  2  0
  5 10  2  0
  5 12  1  0
  6  8  1  0
  6 19  1  0
  7  8  2  0
  7 20  1  0
  8 14  1  0
  9 21  1  0
 10 26  1  0
 11 27  1  0
 12 28  1  0
 13 22  1  0
 13 23  1  0
 13 24  2  0
 14 15  1  0
 15 19  1  0
 16 18  1  0
 16 23  1  0
 17 20  1  0
 17 23  1  0
 18 25  1  0
 19 21  1  0
 20 25  1  0
 22 29  1  0
M  END
