BOG-INS-01af3fef-1
     RDKit          3D

 33 37  0  0  1  0  0  0  0  0999 V2000
   12.7901   -1.9330   21.8933 C   0  0  0  0  0  0  0  0  0  0  0  0
   13.4133   -0.7084   22.1153 C   0  0  0  0  0  0  0  0  0  0  0  0
   11.5092   -2.1500   22.3858 C   0  0  0  0  0  0  0  0  0  0  0  0
   13.3587    1.5469   23.0704 C   0  0  0  0  0  0  0  0  0  0  0  0
   12.7548    0.3048   22.8325 C   0  0  0  0  0  0  0  0  0  0  0  0
   12.6821    2.5269   23.7823 C   0  0  0  0  0  0  0  0  0  0  0  0
   10.8548   -1.1424   23.0989 C   0  0  0  0  0  0  0  0  0  0  0  0
   11.4543    0.0915   23.3357 C   0  0  0  0  0  0  0  0  0  0  0  0
   11.4135    2.2258   24.2347 C   0  0  0  0  0  0  0  0  0  0  0  0
    6.1610   -1.3478   19.3838 C   0  0  0  0  0  0  0  0  0  0  0  0
   13.8845    4.6751   22.8814 C   0  0  0  0  0  0  0  0  0  0  0  0
    9.4366    3.7351   24.4956 C   0  0  0  0  0  0  0  0  0  0  0  0
   10.9895    3.4111   26.3750 C   0  0  0  0  0  0  0  0  0  0  0  0
    6.7223    0.0627   21.4184 C   0  0  0  0  0  0  0  0  0  0  0  0
    8.3038    3.0710   25.2693 C   0  0  0  0  0  0  0  0  0  0  0  0
    9.8884    2.7411   27.1943 C   0  0  0  0  0  0  0  0  0  0  0  0
    8.0765    0.0165   22.1214 C   0  0  0  0  0  0  0  0  0  0  0  0
    7.2062   -2.2051   22.8917 C   0  0  0  0  0  0  0  0  0  0  0  0
   13.3417    3.8627   24.0362 C   0  0  0  0  0  0  0  0  0  0  0  0
   12.6556    5.1394   23.6011 C   0  0  0  0  0  0  0  0  0  0  0  0
    6.3632   -2.3884   21.6230 C   0  0  0  0  0  0  0  0  0  0  0  0
    4.9241   -2.7528   21.9873 C   0  0  0  0  0  0  0  0  0  0  0  0
    7.4194    2.7128   27.5793 C   0  0  0  0  0  0  0  0  0  0  0  0
    9.4736   -1.4253   23.6121 C   0  0  0  0  0  0  0  0  0  0  0  0
    6.2228   -0.0961   18.5459 C   0  0  0  0  0  0  0  0  0  0  0  0
   10.7952    1.0407   24.0268 N   0  0  0  0  0  0  0  0  0  0  0  0
   10.7216    3.1983   24.9490 N   0  0  0  0  0  0  0  0  0  0  0  0
    6.4111   -1.2022   20.7496 N   0  0  0  0  0  0  0  0  0  0  0  0
    8.5410    3.2764   26.7529 N   0  0  0  0  0  0  0  0  0  0  0  0
    8.4282   -1.3965   22.5347 N   0  0  0  0  0  0  0  0  0  0  0  0
   12.7794    6.3077   24.4817 N   0  0  0  0  0  0  0  0  0  0  0  0
    5.9005   -2.4258   18.8428 O   0  0  0  0  0  0  0  0  0  0  0  0
    7.8944    0.0783   18.0228 Cl  0  0  0  0  0  0  0  0  0  0  0  0
  1  2  2  0
  1  3  1  0
  2  5  1  0
  3  7  2  0
  4  5  2  0
  4  6  1  0
  5  8  1  0
  6  9  2  0
  6 19  1  0
  7  8  1  0
  7 24  1  0
  8 26  2  0
  9 26  1  0
  9 27  1  0
 10 25  1  0
 10 28  1  0
 10 32  2  0
 11 19  1  0
 11 20  1  0
 12 15  1  0
 12 27  1  0
 13 16  1  0
 13 27  1  0
 14 17  1  0
 14 28  1  0
 15 29  1  0
 16 29  1  0
 17 30  1  0
 18 21  1  0
 18 30  1  0
 19 20  1  0
 20 31  1  0
 21 22  1  0
 21 28  1  0
 23 29  1  0
 24 30  1  0
 25 33  1  0
M  CHG  3  29   1  30   1  31   1
M  END
