BOG-INS-bdba9cfb-1
     RDKit          3D

 31 34  0  0  0  0  0  0  0  0999 V2000
   13.8795   -1.0522   21.7108 C   0  0  0  0  0  0  0  0  0  0  0  0
   13.8753    0.1700   22.3768 C   0  0  0  0  0  0  0  0  0  0  0  0
   12.7635   -1.8766   21.7834 C   0  0  0  0  0  0  0  0  0  0  0  0
   12.7207    1.7963   23.7993 C   0  0  0  0  0  0  0  0  0  0  0  0
   12.7517    0.5714   23.1192 C   0  0  0  0  0  0  0  0  0  0  0  0
   11.5960    2.1639   24.5239 C   0  0  0  0  0  0  0  0  0  0  0  0
   11.6465   -1.4773   22.5215 C   0  0  0  0  0  0  0  0  0  0  0  0
   11.6152   -0.2606   23.1975 C   0  0  0  0  0  0  0  0  0  0  0  0
   10.5329    1.2840   24.5420 C   0  0  0  0  0  0  0  0  0  0  0  0
   11.5800    3.4403   25.2246 C   0  0  0  0  0  0  0  0  0  0  0  0
    6.0287   -1.7979   19.3100 C   0  0  0  0  0  0  0  0  0  0  0  0
    6.7767   -1.9962   21.6600 C   0  0  0  0  0  0  0  0  0  0  0  0
    8.1273   -0.6170   20.1281 C   0  0  0  0  0  0  0  0  0  0  0  0
    8.6168    2.8394   24.9671 C   0  0  0  0  0  0  0  0  0  0  0  0
    8.6627    0.6356   26.0413 C   0  0  0  0  0  0  0  0  0  0  0  0
    8.0259   -2.7164   22.1460 C   0  0  0  0  0  0  0  0  0  0  0  0
    9.3980   -1.3157   20.5927 C   0  0  0  0  0  0  0  0  0  0  0  0
    7.3420    2.4236   24.2409 C   0  0  0  0  0  0  0  0  0  0  0  0
    7.3761    0.2976   25.2868 C   0  0  0  0  0  0  0  0  0  0  0  0
   11.7695    5.9282   24.9970 C   0  0  0  0  0  0  0  0  0  0  0  0
   10.4665   -2.4026   22.5706 C   0  0  0  0  0  0  0  0  0  0  0  0
    5.8435   -0.7793   18.2137 C   0  0  0  0  0  0  0  0  0  0  0  0
   10.5224    0.0934   23.8999 N   0  0  0  0  0  0  0  0  0  0  0  0
    9.3988    1.6369   25.2623 N   0  0  0  0  0  0  0  0  0  0  0  0
    6.9588   -1.4867   20.3008 N   0  0  0  0  0  0  0  0  0  0  0  0
   11.7400    4.5920   24.4468 N   0  0  0  0  0  0  0  0  0  0  0  0
    9.2121   -1.7869   22.0177 N   0  0  0  0  0  0  0  0  0  0  0  0
   11.4498    3.4786   26.4600 O   0  0  0  0  0  0  0  0  0  0  0  0
    5.3677   -2.8392   19.2834 O   0  0  0  0  0  0  0  0  0  0  0  0
    6.6115    1.4823   25.0365 O   0  0  0  0  0  0  0  0  0  0  0  0
    5.2750    0.6958   18.9875 Cl  0  0  0  0  0  0  0  0  0  0  0  0
  1  2  2  0
  1  3  1  0
  2  5  1  0
  3  7  2  0
  4  5  2  0
  4  6  1  0
  5  8  1  0
  6  9  2  0
  6 10  1  0
  7  8  1  0
  7 21  1  0
  8 23  2  0
  9 23  1  0
  9 24  1  0
 10 26  1  0
 10 28  2  0
 11 22  1  0
 11 25  1  0
 11 29  2  0
 12 16  1  0
 12 25  1  0
 13 17  1  0
 13 25  1  0
 14 18  1  0
 14 24  1  0
 15 19  1  0
 15 24  1  0
 16 27  1  0
 17 27  1  0
 18 30  1  0
 19 30  1  0
 20 26  1  0
 21 27  1  0
 22 31  1  0
M  CHG  1  27   1
M  END
