BRU-LEF-cf996d6c-1
     RDKit          3D

 19 20  0  0  1  0  0  0  0  0999 V2000
   10.3156   -2.0808   24.2346 C   0  0  0  0  0  0  0  0  0  0  0  0
    6.4625   -4.6777   22.1204 C   0  0  0  0  0  0  0  0  0  0  0  0
   13.9684   -1.3626   26.1996 C   0  0  0  0  0  0  0  0  0  0  0  0
   12.9279   -0.2834   25.9050 C   0  0  0  0  0  0  0  0  0  0  0  0
   13.7453   -2.5912   25.3190 C   0  0  0  0  0  0  0  0  0  0  0  0
    9.3801   -4.3844   24.1363 C   0  0  0  0  0  0  0  0  0  0  0  0
    9.6779   -3.0265   22.0078 C   0  0  0  0  0  0  0  0  0  0  0  0
   11.5106   -0.8395   26.0104 C   0  0  0  0  0  0  0  0  0  0  0  0
   12.3115   -3.1042   25.4343 C   0  0  0  0  0  0  0  0  0  0  0  0
    7.8820   -4.0948   24.0610 C   0  0  0  0  0  0  0  0  0  0  0  0
    8.1664   -2.7948   21.9883 C   0  0  0  0  0  0  0  0  0  0  0  0
   10.2200   -3.3302   23.4082 C   0  0  0  0  0  0  0  0  0  0  0  0
    5.2640   -6.8396   21.9139 C   0  0  0  0  0  0  0  0  0  0  0  0
    6.3424   -6.0832   22.6534 C   0  0  0  0  0  0  0  0  0  0  0  0
   11.3500   -2.0268   25.1681 N   0  0  0  0  0  0  0  0  0  0  0  0
    7.4640   -3.8825   22.6759 N   0  0  0  0  0  0  0  0  0  0  0  0
    9.4963   -1.1759   24.0558 O   0  0  0  0  0  0  0  0  0  0  0  0
    5.6874   -4.2993   21.2383 O   0  0  0  0  0  0  0  0  0  0  0  0
    7.9283   -6.8361   22.4184 Cl  0  0  0  0  0  0  0  0  0  0  0  0
  1 12  1  0
  1 15  1  0
  1 17  2  0
  2 14  1  0
  2 16  1  0
  2 18  2  0
  3  4  1  0
  3  5  1  0
  4  8  1  0
  5  9  1  0
  6 10  1  0
  6 12  1  0
  7 11  1  0
  7 12  1  0
  8 15  1  0
  9 15  1  0
 10 16  1  0
 11 16  1  0
 13 14  1  0
 14 19  1  0
M  END
