CAR-INS-33b3c115-3
     RDKit          3D

 27 30  0  0  0  0  0  0  0  0999 V2000
   14.4143   -1.9480   22.5029 C   0  0  0  0  0  0  0  0  0  0  0  0
   13.4881   -1.4792   21.5713 C   0  0  0  0  0  0  0  0  0  0  0  0
   14.4021   -1.4546   23.8076 C   0  0  0  0  0  0  0  0  0  0  0  0
   12.5497   -0.5170   21.9443 C   0  0  0  0  0  0  0  0  0  0  0  0
   13.4637   -0.4924   24.1806 C   0  0  0  0  0  0  0  0  0  0  0  0
    6.8919   -0.3506   19.7317 C   0  0  0  0  0  0  0  0  0  0  0  0
    7.4172   -0.6239   18.4757 C   0  0  0  0  0  0  0  0  0  0  0  0
    6.1856    1.0328   17.3960 C   0  0  0  0  0  0  0  0  0  0  0  0
    4.4261    2.2803   20.2919 C   0  0  0  0  0  0  0  0  0  0  0  0
    5.9530    0.6887   19.7964 C   0  0  0  0  0  0  0  0  0  0  0  0
   12.5374   -0.0236   23.2489 C   0  0  0  0  0  0  0  0  0  0  0  0
    5.1926    1.2794   20.8439 C   0  0  0  0  0  0  0  0  0  0  0  0
    5.6183    1.3617   18.6201 C   0  0  0  0  0  0  0  0  0  0  0  0
    5.1866    0.9235   22.2825 C   0  0  0  0  0  0  0  0  0  0  0  0
   11.5472    0.9918   23.6424 C   0  0  0  0  0  0  0  0  0  0  0  0
    6.0580   -0.1743   22.7508 C   0  0  0  0  0  0  0  0  0  0  0  0
    9.1886    1.6582   23.9171 C   0  0  0  0  0  0  0  0  0  0  0  0
    9.6882   -0.6537   23.1268 C   0  0  0  0  0  0  0  0  0  0  0  0
    7.9091    1.5233   23.0984 C   0  0  0  0  0  0  0  0  0  0  0  0
    8.2577   -0.8938   23.5968 C   0  0  0  0  0  0  0  0  0  0  0  0
    7.0916    0.0293   17.3366 N   0  0  0  0  0  0  0  0  0  0  0  0
    4.6902    2.3219   18.9488 N   0  0  0  0  0  0  0  0  0  0  0  0
   10.1915    0.6655   23.5333 N   0  0  0  0  0  0  0  0  0  0  0  0
    7.3571    0.1613   23.1276 N   0  0  0  0  0  0  0  0  0  0  0  0
    4.4872    1.5394   23.0793 O   0  0  0  0  0  0  0  0  0  0  0  0
   11.9898    2.0674   24.0428 O   0  0  0  0  0  0  0  0  0  0  0  0
    5.5918   -1.3139   22.7738 O   0  0  0  0  0  0  0  0  0  0  0  0
  1  2  2  0
  1  3  1  0
  2  4  1  0
  3  5  2  0
  4 11  2  0
  5 11  1  0
  6  7  2  0
  6 10  1  0
  7 21  1  0
  8 13  1  0
  8 21  2  0
  9 12  2  0
  9 22  1  0
 10 12  1  0
 10 13  2  0
 11 15  1  0
 12 14  1  0
 13 22  1  0
 14 16  1  0
 14 25  2  0
 15 23  1  0
 15 26  2  0
 16 24  1  0
 16 27  2  0
 17 19  1  0
 17 23  1  0
 18 20  1  0
 18 23  1  0
 19 24  1  0
 20 24  1  0
M  END
