CAR-INS-33b3c115-2
     RDKit          3D

 28 31  0  0  0  0  0  0  0  0999 V2000
   10.7361    6.4695   25.9296 C   0  0  0  0  0  0  0  0  0  0  0  0
   11.7661    5.7171   25.3652 C   0  0  0  0  0  0  0  0  0  0  0  0
    9.6304    6.8275   25.1582 C   0  0  0  0  0  0  0  0  0  0  0  0
    8.6580   -3.2632   24.1731 C   0  0  0  0  0  0  0  0  0  0  0  0
   10.5848    5.6806   23.2580 C   0  0  0  0  0  0  0  0  0  0  0  0
    7.3679   -3.7335   24.3798 C   0  0  0  0  0  0  0  0  0  0  0  0
    6.4393   -2.4976   22.6370 C   0  0  0  0  0  0  0  0  0  0  0  0
    9.4725   -0.8787   21.5337 C   0  0  0  0  0  0  0  0  0  0  0  0
    8.8221   -2.3504   23.1216 C   0  0  0  0  0  0  0  0  0  0  0  0
   11.6905    5.3226   24.0294 C   0  0  0  0  0  0  0  0  0  0  0  0
    9.9325   -1.6440   22.5810 C   0  0  0  0  0  0  0  0  0  0  0  0
    7.7025   -1.9852   22.3721 C   0  0  0  0  0  0  0  0  0  0  0  0
    9.5548    6.4331   23.8224 C   0  0  0  0  0  0  0  0  0  0  0  0
   11.3464   -1.6857   23.0233 C   0  0  0  0  0  0  0  0  0  0  0  0
   12.7754    4.5311   23.4360 C   0  0  0  0  0  0  0  0  0  0  0  0
   12.3424   -0.8618   22.3095 C   0  0  0  0  0  0  0  0  0  0  0  0
   11.3840    2.4888   23.5232 C   0  0  0  0  0  0  0  0  0  0  0  0
   13.0944    2.6330   21.7633 C   0  0  0  0  0  0  0  0  0  0  0  0
   11.8655    1.0860   23.8932 C   0  0  0  0  0  0  0  0  0  0  0  0
   13.6073    1.2480   22.1392 C   0  0  0  0  0  0  0  0  0  0  0  0
    6.2838   -3.3786   23.6524 N   0  0  0  0  0  0  0  0  0  0  0  0
    8.1249   -1.0917   21.4158 N   0  0  0  0  0  0  0  0  0  0  0  0
   12.4655    3.2695   22.9265 N   0  0  0  0  0  0  0  0  0  0  0  0
   12.5520    0.4389   22.7617 N   0  0  0  0  0  0  0  0  0  0  0  0
   11.6860   -2.3755   23.9782 O   0  0  0  0  0  0  0  0  0  0  0  0
   13.8884    5.0546   23.4256 O   0  0  0  0  0  0  0  0  0  0  0  0
   12.9325   -1.3776   21.3585 O   0  0  0  0  0  0  0  0  0  0  0  0
    8.1899    6.8747   22.8712 Cl  0  0  0  0  0  0  0  0  0  0  0  0
  1  2  2  0
  1  3  1  0
  2 10  1  0
  3 13  2  0
  4  6  2  0
  4  9  1  0
  5 10  2  0
  5 13  1  0
  6 21  1  0
  7 12  1  0
  7 21  2  0
  8 11  2  0
  8 22  1  0
  9 11  1  0
  9 12  2  0
 10 15  1  0
 11 14  1  0
 12 22  1  0
 13 28  1  0
 14 16  1  0
 14 25  2  0
 15 23  1  0
 15 26  2  0
 16 24  1  0
 16 27  2  0
 17 19  1  0
 17 23  1  0
 18 20  1  0
 18 23  1  0
 19 24  1  0
 20 24  1  0
M  END
