CAS-DEP-167c18e3-3
     RDKit          3D

 19 21  0  0  0  0  0  0  0  0999 V2000
   10.2999   -2.2961   22.7604 C   0  0  0  0  0  0  0  0  0  0  0  0
    9.5032   -1.4163   23.4930 C   0  0  0  0  0  0  0  0  0  0  0  0
   11.6874   -2.1524   22.7689 C   0  0  0  0  0  0  0  0  0  0  0  0
   14.1694    4.8834   21.9659 C   0  0  0  0  0  0  0  0  0  0  0  0
   13.1944    5.8228   22.3174 C   0  0  0  0  0  0  0  0  0  0  0  0
   11.4812   -0.2490   24.2426 C   0  0  0  0  0  0  0  0  0  0  0  0
   11.7170    4.0817   23.1624 C   0  0  0  0  0  0  0  0  0  0  0  0
   10.0938   -0.3928   24.2340 C   0  0  0  0  0  0  0  0  0  0  0  0
   12.2780   -1.1289   23.5100 C   0  0  0  0  0  0  0  0  0  0  0  0
   12.6853    3.1244   22.8156 C   0  0  0  0  0  0  0  0  0  0  0  0
   13.8767    3.5453   22.2313 C   0  0  0  0  0  0  0  0  0  0  0  0
   11.9893    5.4313   22.9051 C   0  0  0  0  0  0  0  0  0  0  0  0
   13.8187    1.3471   22.4748 C   0  0  0  0  0  0  0  0  0  0  0  0
    9.2412    0.5466   25.0183 C   0  0  0  0  0  0  0  0  0  0  0  0
   13.7792   -0.9731   23.5186 C   0  0  0  0  0  0  0  0  0  0  0  0
   14.2969   -0.0453   22.3920 C   0  0  0  0  0  0  0  0  0  0  0  0
   12.6675    1.7560   22.9590 N   0  0  0  0  0  0  0  0  0  0  0  0
   14.5823    2.3878   22.0242 N   0  0  0  0  0  0  0  0  0  0  0  0
   10.8179    6.6252   23.3211 Cl  0  0  0  0  0  0  0  0  0  0  0  0
  1  2  2  0
  1  3  1  0
  2  8  1  0
  3  9  2  0
  4  5  2  0
  4 11  1  0
  5 12  1  0
  6  8  2  0
  6  9  1  0
  7 10  1  0
  7 12  2  0
  8 14  1  0
  9 15  1  0
 10 11  2  0
 10 17  1  0
 11 18  1  0
 12 19  1  0
 13 16  1  0
 13 17  2  0
 13 18  1  0
 15 16  1  0
M  END
