CAS-DEP-e179b1f5-3
     RDKit          3D

 23 25  0  0  0  0  0  0  0  0999 V2000
    8.9900   -2.5060   24.8758 C   0  0  0  0  0  0  0  0  0  0  0  0
    9.3218   -2.0871   23.5874 C   0  0  0  0  0  0  0  0  0  0  0  0
    9.2434   -1.6743   25.9666 C   0  0  0  0  0  0  0  0  0  0  0  0
   13.4558    4.5946   22.8794 C   0  0  0  0  0  0  0  0  0  0  0  0
    9.9070   -0.8364   23.3897 C   0  0  0  0  0  0  0  0  0  0  0  0
    9.8286   -0.4237   25.7689 C   0  0  0  0  0  0  0  0  0  0  0  0
   12.8572    5.7273   23.4311 C   0  0  0  0  0  0  0  0  0  0  0  0
   10.8249    4.4739   23.7994 C   0  0  0  0  0  0  0  0  0  0  0  0
   11.4234    3.3412   23.2477 C   0  0  0  0  0  0  0  0  0  0  0  0
   12.7388    3.4015   22.7877 C   0  0  0  0  0  0  0  0  0  0  0  0
   10.1604   -0.0047   24.4805 C   0  0  0  0  0  0  0  0  0  0  0  0
   11.5418    5.6669   23.8911 C   0  0  0  0  0  0  0  0  0  0  0  0
   14.2731   -1.1099   23.6571 C   0  0  0  0  0  0  0  0  0  0  0  0
   14.1906   -2.1817   22.8672 C   0  0  0  0  0  0  0  0  0  0  0  0
   13.8793    0.0216   22.8131 C   0  0  0  0  0  0  0  0  0  0  0  0
   10.6519    2.1083   23.1624 C   0  0  0  0  0  0  0  0  0  0  0  0
   13.7519   -1.9098   21.4642 C   0  0  0  0  0  0  0  0  0  0  0  0
   13.5359   -0.4029   21.4161 C   0  0  0  0  0  0  0  0  0  0  0  0
   13.4087    2.1964   22.1892 C   0  0  0  0  0  0  0  0  0  0  0  0
   13.8290    1.2464   23.2105 N   0  0  0  0  0  0  0  0  0  0  0  0
   10.7551    1.2664   24.2793 N   0  0  0  0  0  0  0  0  0  0  0  0
    9.9889    1.8263   22.1562 O   0  0  0  0  0  0  0  0  0  0  0  0
   10.8034    7.0652   24.5712 Cl  0  0  0  0  0  0  0  0  0  0  0  0
  1  2  2  0
  1  3  1  0
  2  5  1  0
  3  6  2  0
  4  7  2  0
  4 10  1  0
  5 11  2  0
  6 11  1  0
  7 12  1  0
  8  9  1  0
  8 12  2  0
  9 10  2  0
  9 16  1  0
 10 19  1  0
 11 21  1  0
 12 23  1  0
 13 14  2  0
 13 15  1  0
 14 17  1  0
 15 18  1  0
 15 20  2  0
 16 21  1  0
 16 22  2  0
 17 18  1  0
 19 20  1  0
M  END
