CAS-DEP-751a2458-1
     RDKit          3D

 18 20  0  0  0  0  0  0  0  0999 V2000
   13.8813   -1.8714   26.2785 C   0  0  0  0  0  0  0  0  0  0  0  0
    8.8032   -5.3343   23.9184 C   0  0  0  0  0  0  0  0  0  0  0  0
   13.2593   -0.6486   26.0160 C   0  0  0  0  0  0  0  0  0  0  0  0
   13.3045   -3.0803   25.8757 C   0  0  0  0  0  0  0  0  0  0  0  0
    7.7728   -6.0507   23.3096 C   0  0  0  0  0  0  0  0  0  0  0  0
    7.3593   -4.1921   21.8224 C   0  0  0  0  0  0  0  0  0  0  0  0
    9.1117   -4.0468   23.4793 C   0  0  0  0  0  0  0  0  0  0  0  0
   12.0346   -0.5928   25.3388 C   0  0  0  0  0  0  0  0  0  0  0  0
   11.4409   -1.7978   24.9266 C   0  0  0  0  0  0  0  0  0  0  0  0
   12.0848   -3.0006   25.2028 C   0  0  0  0  0  0  0  0  0  0  0  0
    7.0508   -5.4796   22.2616 C   0  0  0  0  0  0  0  0  0  0  0  0
    8.3898   -3.4757   22.4313 C   0  0  0  0  0  0  0  0  0  0  0  0
   10.1811   -3.3229   24.1226 C   0  0  0  0  0  0  0  0  0  0  0  0
   11.4084    0.7391   25.0830 C   0  0  0  0  0  0  0  0  0  0  0  0
   10.2601   -2.0178   24.2553 N   0  0  0  0  0  0  0  0  0  0  0  0
   11.2566   -3.9590   24.6773 N   0  0  0  0  0  0  0  0  0  0  0  0
    6.0454   -6.1788   21.6677 O   0  0  0  0  0  0  0  0  0  0  0  0
    8.6698   -2.2190   21.9817 O   0  0  0  0  0  0  0  0  0  0  0  0
  1  3  2  0
  1  4  1  0
  2  5  2  0
  2  7  1  0
  3  8  1  0
  4 10  2  0
  5 11  1  0
  6 11  2  0
  6 12  1  0
  7 12  2  0
  7 13  1  0
  8  9  2  0
  8 14  1  0
  9 10  1  0
  9 15  1  0
 10 16  1  0
 11 17  1  0
 12 18  1  0
 13 15  2  0
 13 16  1  0
M  END
