CAS-DEP-751a2458-5
     RDKit          3D

 17 18  0  0  0  0  0  0  0  0999 V2000
   13.8029   -1.2789   22.1970 C   0  0  0  0  0  0  0  0  0  0  0  0
   12.8563   -1.0452   21.1995 C   0  0  0  0  0  0  0  0  0  0  0  0
   11.2626   -0.3467   22.8756 C   0  0  0  0  0  0  0  0  0  0  0  0
    6.3723    1.0719   19.9847 C   0  0  0  0  0  0  0  0  0  0  0  0
    6.8230    0.7257   17.8606 C   0  0  0  0  0  0  0  0  0  0  0  0
   13.4793   -1.0465   23.5338 C   0  0  0  0  0  0  0  0  0  0  0  0
   12.2092   -0.5804   23.8731 C   0  0  0  0  0  0  0  0  0  0  0  0
   11.5862   -0.5791   21.5388 C   0  0  0  0  0  0  0  0  0  0  0  0
    7.3886    0.6442   19.1095 C   0  0  0  0  0  0  0  0  0  0  0  0
    9.3100    0.1249   20.6773 C   0  0  0  0  0  0  0  0  0  0  0  0
   14.5092   -1.3047   24.5842 C   0  0  0  0  0  0  0  0  0  0  0  0
   11.8411   -0.3226   25.2974 C   0  0  0  0  0  0  0  0  0  0  0  0
    5.2464    1.4010   19.3459 N   0  0  0  0  0  0  0  0  0  0  0  0
    5.5519    1.1800   18.0560 N   0  0  0  0  0  0  0  0  0  0  0  0
   10.6397   -0.3434   20.5413 N   0  0  0  0  0  0  0  0  0  0  0  0
    8.7036    0.2202   19.4145 N   0  0  0  0  0  0  0  0  0  0  0  0
    8.7736    0.4043   21.7448 O   0  0  0  0  0  0  0  0  0  0  0  0
  1  2  2  0
  1  6  1  0
  2  8  1  0
  3  7  1  0
  3  8  2  0
  4  9  1  0
  4 13  2  0
  5  9  2  0
  5 14  1  0
  6  7  2  0
  6 11  1  0
  7 12  1  0
  8 15  1  0
  9 16  1  0
 10 15  1  0
 10 16  1  0
 10 17  2  0
 13 14  1  0
M  END
