CAT-CEN-91a3f3b0-1
     RDKit          3D

 30 33  0  0  0  0  0  0  0  0999 V2000
    7.7813   -5.2125   27.0450 C   0  0  0  0  0  0  0  0  0  0  0  0
    5.6784   -1.0883   21.4623 C   0  0  0  0  0  0  0  0  0  0  0  0
    6.4105   -5.0690   27.2281 C   0  0  0  0  0  0  0  0  0  0  0  0
    5.9042    0.0430   20.6862 C   0  0  0  0  0  0  0  0  0  0  0  0
    8.5493   -4.1083   26.6925 C   0  0  0  0  0  0  0  0  0  0  0  0
    6.2223   -1.1684   22.7395 C   0  0  0  0  0  0  0  0  0  0  0  0
    5.8604   -3.8102   27.0481 C   0  0  0  0  0  0  0  0  0  0  0  0
    6.6747    1.0586   21.2290 C   0  0  0  0  0  0  0  0  0  0  0  0
    7.9034   -2.8925   26.5362 C   0  0  0  0  0  0  0  0  0  0  0  0
    6.9787   -0.0986   23.1903 C   0  0  0  0  0  0  0  0  0  0  0  0
    9.5349   -2.9998   23.1774 C   0  0  0  0  0  0  0  0  0  0  0  0
    9.2235   -1.7964   23.7530 C   0  0  0  0  0  0  0  0  0  0  0  0
   10.4067   -2.3572   22.1867 C   0  0  0  0  0  0  0  0  0  0  0  0
   10.0727   -1.0661   22.8045 C   0  0  0  0  0  0  0  0  0  0  0  0
    5.9944   -6.8369   23.5860 C   0  0  0  0  0  0  0  0  0  0  0  0
    6.0446   -5.3083   21.7067 C   0  0  0  0  0  0  0  0  0  0  0  0
    4.6280   -6.3149   24.0138 C   0  0  0  0  0  0  0  0  0  0  0  0
    4.6797   -4.7470   22.0868 C   0  0  0  0  0  0  0  0  0  0  0  0
    8.7014   -1.6790   26.1557 C   0  0  0  0  0  0  0  0  0  0  0  0
    7.5815   -0.1509   24.5643 C   0  0  0  0  0  0  0  0  0  0  0  0
    8.0877   -6.2972   22.5189 C   0  0  0  0  0  0  0  0  0  0  0  0
    9.0564   -5.1735   22.1909 C   0  0  0  0  0  0  0  0  0  0  0  0
    6.5740   -2.7143   26.7056 N   0  0  0  0  0  0  0  0  0  0  0  0
    7.2197    1.0168   22.4655 N   0  0  0  0  0  0  0  0  0  0  0  0
    6.7660   -5.7949   22.8923 N   0  0  0  0  0  0  0  0  0  0  0  0
    9.2660   -4.2984   23.3123 N   0  0  0  0  0  0  0  0  0  0  0  0
    8.5068   -1.3095   24.7241 N   0  0  0  0  0  0  0  0  0  0  0  0
    3.9080   -5.7970   22.8138 N   0  0  0  0  0  0  0  0  0  0  0  0
   11.1195   -2.6213   21.2539 O   0  0  0  0  0  0  0  0  0  0  0  0
   10.4284    0.0509   22.5325 O   0  0  0  0  0  0  0  0  0  0  0  0
  1  3  2  0
  1  5  1  0
  2  4  2  0
  2  6  1  0
  3  7  1  0
  4  8  1  0
  5  9  2  0
  6 10  2  0
  7 23  2  0
  8 24  2  0
  9 19  1  0
  9 23  1  0
 10 20  1  0
 10 24  1  0
 11 12  2  0
 11 13  1  0
 11 26  1  0
 12 14  1  0
 12 27  1  0
 13 14  1  0
 13 29  2  0
 14 30  2  0
 15 17  1  0
 15 25  1  0
 16 18  1  0
 16 25  1  0
 17 28  1  0
 18 28  1  0
 19 27  1  0
 20 27  1  0
 21 22  1  0
 21 25  1  0
 22 26  1  0
M  CHG  1  28   1
M  END
