CHA-KIN-87c379ac-1
     RDKit          3D

 40 41  0  0  1  0  0  0  0  0999 V2000
    9.5892    7.1950   24.4180 C   0  0  0  0  0  0  0  0  0  0  0  0
   10.8882    6.6891   24.3718 C   0  0  0  0  0  0  0  0  0  0  0  0
    8.5559    6.5246   23.7634 C   0  0  0  0  0  0  0  0  0  0  0  0
   13.3203   -0.1636   22.0877 C   0  0  0  0  0  0  0  0  0  0  0  0
   12.1838   -2.1498   22.8624 C   0  0  0  0  0  0  0  0  0  0  0  0
   14.3435   -0.3898   23.0084 C   0  0  0  0  0  0  0  0  0  0  0  0
   13.2070   -2.3761   23.7831 C   0  0  0  0  0  0  0  0  0  0  0  0
   12.2405   -1.0435   22.0148 C   0  0  0  0  0  0  0  0  0  0  0  0
   11.1540    5.5127   23.6710 C   0  0  0  0  0  0  0  0  0  0  0  0
    8.8217    5.3482   23.0625 C   0  0  0  0  0  0  0  0  0  0  0  0
   10.1208    4.8423   23.0163 C   0  0  0  0  0  0  0  0  0  0  0  0
   14.2868   -1.4961   23.8560 C   0  0  0  0  0  0  0  0  0  0  0  0
    4.4989    1.9659   21.0346 C   0  0  0  0  0  0  0  0  0  0  0  0
    8.7546   -0.0471   20.7064 C   0  0  0  0  0  0  0  0  0  0  0  0
    6.5958   -2.5506   26.9862 C   0  0  0  0  0  0  0  0  0  0  0  0
    9.8502    2.3793   22.5250 C   0  0  0  0  0  0  0  0  0  0  0  0
   12.5559    4.9956   23.6397 C   0  0  0  0  0  0  0  0  0  0  0  0
   11.1335   -0.7991   21.0181 C   0  0  0  0  0  0  0  0  0  0  0  0
    7.6934    4.6530   22.3719 C   0  0  0  0  0  0  0  0  0  0  0  0
    5.6792    1.1118   20.6106 C   0  0  0  0  0  0  0  0  0  0  0  0
    5.4279   -0.3914   20.7405 C   0  0  0  0  0  0  0  0  0  0  0  0
    6.6007   -1.2549   20.2812 C   0  0  0  0  0  0  0  0  0  0  0  0
    7.9552   -1.8589   22.2452 C   0  0  0  0  0  0  0  0  0  0  0  0
    7.3120   -1.1952   23.4482 C   0  0  0  0  0  0  0  0  0  0  0  0
    7.7401   -0.3165   26.2936 C   0  0  0  0  0  0  0  0  0  0  0  0
   10.0024    0.0683   21.5843 C   0  0  0  0  0  0  0  0  0  0  0  0
    6.8707   -1.5090   25.8865 C   0  0  0  0  0  0  0  0  0  0  0  0
    4.7549    3.3144   20.9066 N   0  0  0  0  0  0  0  0  0  0  0  0
   10.3902    3.6496   22.3053 N   0  0  0  0  0  0  0  0  0  0  0  0
   10.3737    1.4653   21.6056 N   0  0  0  0  0  0  0  0  0  0  0  0
    7.8083   -1.0141   21.0626 N   0  0  0  0  0  0  0  0  0  0  0  0
    7.4211   -2.0859   24.6299 N   0  0  0  0  0  0  0  0  0  0  0  0
    6.6127   -2.1021   28.1681 O   0  0  0  0  0  0  0  0  0  0  0  0
    3.4433    1.5120   21.4663 O   0  0  0  0  0  0  0  0  0  0  0  0
    8.6361    0.6708   19.7072 O   0  0  0  0  0  0  0  0  0  0  0  0
    6.4111   -3.7348   26.5873 O   0  0  0  0  0  0  0  0  0  0  0  0
    9.0327    2.0703   23.3887 O   0  0  0  0  0  0  0  0  0  0  0  0
   15.2859   -1.7175   24.7534 O   0  0  0  0  0  0  0  0  0  0  0  0
    6.8909    3.9872   23.3377 O   0  0  0  0  0  0  0  0  0  0  0  0
    9.5231   -0.6941   26.3300 S   0  0  0  0  0  0  0  0  0  0  0  0
  1  2  2  0
  1  3  1  0
  2  9  1  0
  3 10  2  0
  4  6  2  0
  4  8  1  0
  5  7  1  0
  5  8  2  0
  6 12  1  0
  7 12  2  0
  8 18  1  0
  9 11  2  0
  9 17  1  0
 10 11  1  0
 10 19  1  0
 11 29  1  0
 12 38  1  0
 13 20  1  0
 13 28  1  0
 13 34  2  0
 14 26  1  0
 14 31  1  0
 14 35  2  0
 15 27  1  0
 15 33  1  0
 15 36  2  0
 16 29  1  0
 16 30  1  0
 16 37  2  0
 18 26  1  0
 19 39  1  0
 20 21  1  0
 21 22  1  0
 22 31  1  0
 23 24  1  0
 23 31  1  0
 24 32  1  0
 25 27  1  0
 25 40  1  0
 26 30  1  0
 27 32  1  0
M  CHG  2  32   1  33  -1
M  END
