CHA-KIN-f512e507-3
     RDKit          3D

 27 28  0  0  0  0  0  0  0  0999 V2000
    5.6788    0.8076   19.0885 C   0  0  0  0  0  0  0  0  0  0  0  0
    6.4178    0.4516   17.9719 C   0  0  0  0  0  0  0  0  0  0  0  0
    8.3310    0.1792   19.2144 C   0  0  0  0  0  0  0  0  0  0  0  0
    6.3302    0.8413   20.3164 C   0  0  0  0  0  0  0  0  0  0  0  0
    7.6816    0.5226   20.3892 C   0  0  0  0  0  0  0  0  0  0  0  0
    9.7385    0.2450   21.8276 C   0  0  0  0  0  0  0  0  0  0  0  0
   14.2526   -0.9703   22.8651 C   0  0  0  0  0  0  0  0  0  0  0  0
   13.3275   -2.1838   22.8900 C   0  0  0  0  0  0  0  0  0  0  0  0
   13.7486    0.1409   23.7817 C   0  0  0  0  0  0  0  0  0  0  0  0
   11.8851   -1.7996   22.5650 C   0  0  0  0  0  0  0  0  0  0  0  0
   12.3068    0.5282   23.4572 C   0  0  0  0  0  0  0  0  0  0  0  0
   11.3793   -0.6913   23.4952 C   0  0  0  0  0  0  0  0  0  0  0  0
    5.5577    1.2223   21.5366 C   0  0  0  0  0  0  0  0  0  0  0  0
    6.2159   -6.9154   24.5298 C   0  0  0  0  0  0  0  0  0  0  0  0
    7.2663   -2.1027   25.0742 C   0  0  0  0  0  0  0  0  0  0  0  0
    8.3424   -1.8753   24.0069 C   0  0  0  0  0  0  0  0  0  0  0  0
    6.6095   -3.4747   24.9587 C   0  0  0  0  0  0  0  0  0  0  0  0
    8.9797   -0.4958   24.1191 C   0  0  0  0  0  0  0  0  0  0  0  0
    7.7318    0.1354   18.0033 N   0  0  0  0  0  0  0  0  0  0  0  0
    8.3897    0.5420   21.6165 N   0  0  0  0  0  0  0  0  0  0  0  0
    5.6389   -6.2781   23.3303 N   0  0  0  0  0  0  0  0  0  0  0  0
    5.9480   -3.6612   23.6971 N   0  0  0  0  0  0  0  0  0  0  0  0
   10.0256   -0.2981   23.1090 N   0  0  0  0  0  0  0  0  0  0  0  0
   10.6251    0.4069   20.9864 O   0  0  0  0  0  0  0  0  0  0  0  0
    7.8941   -5.1404   22.7991 O   0  0  0  0  0  0  0  0  0  0  0  0
    5.9069   -4.6918   21.3263 O   0  0  0  0  0  0  0  0  0  0  0  0
    6.4654   -4.9395   22.6427 S   0  0  0  0  0  0  0  0  0  0  0  0
  1  2  2  0
  1  4  1  0
  2 19  1  0
  3  5  1  0
  3 19  2  0
  4  5  2  0
  4 13  1  0
  5 20  1  0
  6 20  1  0
  6 23  1  0
  6 24  2  0
  7  8  1  0
  7  9  1  0
  8 10  1  0
  9 11  1  0
 10 12  1  0
 11 12  1  0
 12 23  1  0
 14 21  1  0
 15 16  1  0
 15 17  1  0
 16 18  1  0
 17 22  1  0
 18 23  1  0
 21 27  1  0
 22 27  1  0
 25 27  2  0
 26 27  2  0
M  END
