CHA-KIN-cd2ef30b-2
     RDKit          3D

 30 32  0  0  0  0  0  0  0  0999 V2000
    5.6678    0.7551   19.0850 C   0  0  0  0  0  0  0  0  0  0  0  0
    3.3539   -5.3858   23.6830 C   0  0  0  0  0  0  0  0  0  0  0  0
    6.3691    0.6887   17.8918 C   0  0  0  0  0  0  0  0  0  0  0  0
    2.7644   -6.6640   23.7023 C   0  0  0  0  0  0  0  0  0  0  0  0
    8.3820    0.4958   18.9822 C   0  0  0  0  0  0  0  0  0  0  0  0
    6.3917    0.6855   20.2701 C   0  0  0  0  0  0  0  0  0  0  0  0
    7.7751    0.5534   20.2264 C   0  0  0  0  0  0  0  0  0  0  0  0
    4.1745   -5.3695   24.7844 C   0  0  0  0  0  0  0  0  0  0  0  0
    9.9443    0.3447   21.5023 C   0  0  0  0  0  0  0  0  0  0  0  0
   14.6396   -0.3697   22.1141 C   0  0  0  0  0  0  0  0  0  0  0  0
   13.8866   -1.6901   21.9791 C   0  0  0  0  0  0  0  0  0  0  0  0
   14.0576    0.4997   23.2250 C   0  0  0  0  0  0  0  0  0  0  0  0
   12.3872   -1.4670   21.7895 C   0  0  0  0  0  0  0  0  0  0  0  0
   12.5585    0.7259   23.0362 C   0  0  0  0  0  0  0  0  0  0  0  0
   11.8047   -0.6029   22.9134 C   0  0  0  0  0  0  0  0  0  0  0  0
    5.6612    0.7552   21.5709 C   0  0  0  0  0  0  0  0  0  0  0  0
    5.0831   -4.3125   25.3424 C   0  0  0  0  0  0  0  0  0  0  0  0
    8.9793   -2.2704   23.3791 C   0  0  0  0  0  0  0  0  0  0  0  0
    9.4486   -0.8497   23.6710 C   0  0  0  0  0  0  0  0  0  0  0  0
    8.0232   -2.7970   24.4408 C   0  0  0  0  0  0  0  0  0  0  0  0
    7.7123    0.5604   17.8096 N   0  0  0  0  0  0  0  0  0  0  0  0
    3.1756   -7.4060   24.7339 N   0  0  0  0  0  0  0  0  0  0  0  0
    4.0324   -6.5915   25.3732 N   0  0  0  0  0  0  0  0  0  0  0  0
    8.5569    0.4778   21.4060 N   0  0  0  0  0  0  0  0  0  0  0  0
    6.4835   -4.7676   25.4081 N   0  0  0  0  0  0  0  0  0  0  0  0
   10.3877   -0.3487   22.6608 N   0  0  0  0  0  0  0  0  0  0  0  0
   10.7422    0.7615   20.6598 O   0  0  0  0  0  0  0  0  0  0  0  0
    6.7489   -4.4435   22.8548 O   0  0  0  0  0  0  0  0  0  0  0  0
    8.6894   -5.3088   24.2122 O   0  0  0  0  0  0  0  0  0  0  0  0
    7.5212   -4.4519   24.0865 S   0  0  0  0  0  0  0  0  0  0  0  0
  1  3  2  0
  1  6  1  0
  2  4  1  0
  2  8  2  0
  3 21  1  0
  4 22  2  0
  5  7  1  0
  5 21  2  0
  6  7  2  0
  6 16  1  0
  7 24  1  0
  8 17  1  0
  8 23  1  0
  9 24  1  0
  9 26  1  0
  9 27  2  0
 10 11  1  0
 10 12  1  0
 11 13  1  0
 12 14  1  0
 13 15  1  0
 14 15  1  0
 15 26  1  0
 17 25  1  0
 18 19  1  0
 18 20  1  0
 19 26  1  0
 20 30  1  0
 22 23  1  0
 25 30  1  0
 28 30  2  0
 29 30  2  0
M  END
