CHA-KIN-87c379ac-2
     RDKit          3D

 43 45  0  0  1  0  0  0  0  0999 V2000
   14.4765    0.6501   24.1253 C   0  0  0  0  0  0  0  0  0  0  0  0
   14.2594   -0.7141   23.9325 C   0  0  0  0  0  0  0  0  0  0  0  0
   13.5516    1.5781   23.6466 C   0  0  0  0  0  0  0  0  0  0  0  0
    7.5365   -5.5480   23.2225 C   0  0  0  0  0  0  0  0  0  0  0  0
    5.9663   -5.2579   21.4094 C   0  0  0  0  0  0  0  0  0  0  0  0
    6.6694   -6.4575   23.8279 C   0  0  0  0  0  0  0  0  0  0  0  0
    5.0992   -6.1674   22.0148 C   0  0  0  0  0  0  0  0  0  0  0  0
    7.1850   -4.9482   22.0132 C   0  0  0  0  0  0  0  0  0  0  0  0
   13.1174   -1.1505   23.2608 C   0  0  0  0  0  0  0  0  0  0  0  0
   12.4096    1.1418   22.9749 C   0  0  0  0  0  0  0  0  0  0  0  0
   12.1925   -0.2225   22.7820 C   0  0  0  0  0  0  0  0  0  0  0  0
    5.4508   -6.7672   23.2241 C   0  0  0  0  0  0  0  0  0  0  0  0
    8.6987    0.2478   27.3808 C   0  0  0  0  0  0  0  0  0  0  0  0
    3.0839    2.1874   20.3298 C   0  0  0  0  0  0  0  0  0  0  0  0
    6.7487   -1.8937   20.9775 C   0  0  0  0  0  0  0  0  0  0  0  0
   10.0215   -1.4984   22.5826 C   0  0  0  0  0  0  0  0  0  0  0  0
    5.1584   -0.3369   27.6818 C   0  0  0  0  0  0  0  0  0  0  0  0
    6.5597   -0.7432   28.1248 C   0  0  0  0  0  0  0  0  0  0  0  0
    4.7900   -0.9509   26.3379 C   0  0  0  0  0  0  0  0  0  0  0  0
    7.2285   -1.0437   25.7691 C   0  0  0  0  0  0  0  0  0  0  0  0
   12.9126   -2.6186   23.0696 C   0  0  0  0  0  0  0  0  0  0  0  0
    8.1235   -3.9644   21.3575 C   0  0  0  0  0  0  0  0  0  0  0  0
   11.4374    2.1604   22.4743 C   0  0  0  0  0  0  0  0  0  0  0  0
    9.6606    0.4912   26.2451 C   0  0  0  0  0  0  0  0  0  0  0  0
    4.1478    1.6849   19.3716 C   0  0  0  0  0  0  0  0  0  0  0  0
    5.3106    0.9720   20.0638 C   0  0  0  0  0  0  0  0  0  0  0  0
    4.8864   -0.2384   20.8928 C   0  0  0  0  0  0  0  0  0  0  0  0
    6.2941   -0.3413   22.9089 C   0  0  0  0  0  0  0  0  0  0  0  0
    5.5142   -1.1152   23.9549 C   0  0  0  0  0  0  0  0  0  0  0  0
    7.8764   -2.5175   21.8024 C   0  0  0  0  0  0  0  0  0  0  0  0
    7.5416   -0.4688   27.0761 N   0  0  0  0  0  0  0  0  0  0  0  0
    3.5852    3.0905   21.2428 N   0  0  0  0  0  0  0  0  0  0  0  0
   11.0346   -0.6649   22.1006 N   0  0  0  0  0  0  0  0  0  0  0  0
    9.0498   -1.6984   21.5974 N   0  0  0  0  0  0  0  0  0  0  0  0
    6.0077   -0.8737   21.5580 N   0  0  0  0  0  0  0  0  0  0  0  0
    5.8544   -0.6009   25.3249 N   0  0  0  0  0  0  0  0  0  0  0  0
    8.9684    0.6832   28.5032 O   0  0  0  0  0  0  0  0  0  0  0  0
    1.9142    1.8159   20.3127 O   0  0  0  0  0  0  0  0  0  0  0  0
    6.4986   -2.3291   19.8481 O   0  0  0  0  0  0  0  0  0  0  0  0
    9.9574   -2.0015   23.7017 O   0  0  0  0  0  0  0  0  0  0  0  0
    4.6054   -7.6556   23.8145 O   0  0  0  0  0  0  0  0  0  0  0  0
   10.1706    1.9371   23.0790 O   0  0  0  0  0  0  0  0  0  0  0  0
   10.9905    1.4362   26.9053 Cl  0  0  0  0  0  0  0  0  0  0  0  0
  1  2  2  0
  1  3  1  0
  2  9  1  0
  3 10  2  0
  4  6  2  0
  4  8  1  0
  5  7  1  0
  5  8  2  0
  6 12  1  0
  7 12  2  0
  8 22  1  0
  9 11  2  0
  9 21  1  0
 10 11  1  0
 10 23  1  0
 11 33  1  0
 12 41  1  0
 13 24  1  0
 13 31  1  0
 13 37  2  0
 14 25  1  0
 14 32  1  0
 14 38  2  0
 15 30  1  0
 15 35  1  0
 15 39  2  0
 16 33  1  0
 16 34  1  0
 16 40  2  0
 17 18  1  0
 17 19  1  0
 18 31  1  0
 19 36  1  0
 20 31  1  0
 20 36  1  0
 22 30  1  0
 23 42  1  0
 24 43  1  0
 25 26  1  0
 26 27  1  0
 27 35  1  0
 28 29  1  0
 28 35  1  0
 29 36  1  0
 30 34  1  0
M  CHG  1  36   1
M  END
