CHA-MCP-85291e1d-6
     RDKit          3D

 23 24  0  0  0  0  0  0  0  0999 V2000
    4.9991   -3.6960   23.5414 C   0  0  0  0  0  0  0  0  0  0  0  0
   13.8814   -1.2505   23.5472 C   0  0  0  0  0  0  0  0  0  0  0  0
    6.0094   -3.2546   22.6871 C   0  0  0  0  0  0  0  0  0  0  0  0
    5.2730   -4.6716   24.5001 C   0  0  0  0  0  0  0  0  0  0  0  0
   12.8569   -2.0785   23.0886 C   0  0  0  0  0  0  0  0  0  0  0  0
   13.5989    0.0597   23.9339 C   0  0  0  0  0  0  0  0  0  0  0  0
    7.5677   -4.7643   23.7500 C   0  0  0  0  0  0  0  0  0  0  0  0
   11.2675   -0.2863   23.4033 C   0  0  0  0  0  0  0  0  0  0  0  0
    7.2938   -3.7887   22.7914 C   0  0  0  0  0  0  0  0  0  0  0  0
    6.5573   -5.2057   24.6043 C   0  0  0  0  0  0  0  0  0  0  0  0
   11.5499   -1.5964   23.0166 C   0  0  0  0  0  0  0  0  0  0  0  0
   12.2920    0.5417   23.8619 C   0  0  0  0  0  0  0  0  0  0  0  0
    9.1609   -2.1225   22.4161 C   0  0  0  0  0  0  0  0  0  0  0  0
   10.6589    2.2480   24.1399 C   0  0  0  0  0  0  0  0  0  0  0  0
    8.3739   -3.3151   21.8786 C   0  0  0  0  0  0  0  0  0  0  0  0
    6.8499   -6.2494   25.6290 C   0  0  0  0  0  0  0  0  0  0  0  0
    8.0052   -6.8390   27.9460 N   0  0  0  0  0  0  0  0  0  0  0  0
   10.5107   -2.4370   22.5515 N   0  0  0  0  0  0  0  0  0  0  0  0
    8.6172   -1.0541   22.6770 O   0  0  0  0  0  0  0  0  0  0  0  0
    9.0844   -5.1159   26.3703 O   0  0  0  0  0  0  0  0  0  0  0  0
    6.9505   -4.5206   27.5858 O   0  0  0  0  0  0  0  0  0  0  0  0
   12.0164    1.8203   24.2390 O   0  0  0  0  0  0  0  0  0  0  0  0
    7.7926   -5.4970   26.9158 S   0  0  0  0  0  0  0  0  0  0  0  0
  1  3  2  0
  1  4  1  0
  2  5  2  0
  2  6  1  0
  3  9  1  0
  4 10  2  0
  5 11  1  0
  6 12  2  0
  7  9  2  0
  7 10  1  0
  8 11  2  0
  8 12  1  0
  9 15  1  0
 10 16  1  0
 11 18  1  0
 12 22  1  0
 13 15  1  0
 13 18  1  0
 13 19  2  0
 14 22  1  0
 16 23  1  0
 17 23  1  0
 20 23  2  0
 21 23  2  0
M  END
