CHA-KIN-6a7389f6-1
     RDKit          3D

 19 20  0  0  1  0  0  0  0  0999 V2000
   13.7834   -1.6055   22.4744 C   0  0  0  0  0  0  0  0  0  0  0  0
   13.2626   -1.3020   23.7322 C   0  0  0  0  0  0  0  0  0  0  0  0
   13.2974   -0.9519   21.3420 C   0  0  0  0  0  0  0  0  0  0  0  0
   12.2557   -0.3449   23.8577 C   0  0  0  0  0  0  0  0  0  0  0  0
   12.2905    0.0051   21.4675 C   0  0  0  0  0  0  0  0  0  0  0  0
    6.7330    0.6653   20.2711 C   0  0  0  0  0  0  0  0  0  0  0  0
    8.4830   -0.0309   18.8188 C   0  0  0  0  0  0  0  0  0  0  0  0
    6.4232    0.4514   17.9228 C   0  0  0  0  0  0  0  0  0  0  0  0
   11.7696    0.3087   22.7254 C   0  0  0  0  0  0  0  0  0  0  0  0
    8.0525    0.2604   20.1031 C   0  0  0  0  0  0  0  0  0  0  0  0
    5.8961    0.7651   19.1652 C   0  0  0  0  0  0  0  0  0  0  0  0
    8.9861    0.1432   21.2821 C   0  0  0  0  0  0  0  0  0  0  0  0
    4.4804    1.1973   19.3115 C   0  0  0  0  0  0  0  0  0  0  0  0
    9.7659    1.4282   21.6060 C   0  0  0  0  0  0  0  0  0  0  0  0
   11.2465    2.7497   23.1551 C   0  0  0  0  0  0  0  0  0  0  0  0
   10.6711    1.3525   22.8615 C   0  0  0  0  0  0  0  0  0  0  0  0
    7.6996    0.0544   17.7204 N   0  0  0  0  0  0  0  0  0  0  0  0
   12.1981    3.1532   22.0878 N   0  0  0  0  0  0  0  0  0  0  0  0
    4.3426    2.5393   18.8568 O   0  0  0  0  0  0  0  0  0  0  0  0
  1  2  2  0
  1  3  1  0
  2  4  1  0
  3  5  2  0
  4  9  2  0
  5  9  1  0
  6 10  2  0
  6 11  1  0
  7 10  1  0
  7 17  2  0
  8 11  2  0
  8 17  1  0
  9 16  1  0
 10 12  1  0
 11 13  1  0
 12 14  1  0
 13 19  1  0
 14 16  1  0
 15 16  1  0
 15 18  1  0
M  CHG  1  18   1
M  END
