CHA-MCP-85291e1d-2
     RDKit          3D

 20 21  0  0  0  0  0  0  0  0999 V2000
    7.1267   -1.4459   25.1846 C   0  0  0  0  0  0  0  0  0  0  0  0
    5.0293    0.9603   19.0327 C   0  0  0  0  0  0  0  0  0  0  0  0
    7.8442   -0.5863   24.3528 C   0  0  0  0  0  0  0  0  0  0  0  0
    5.7899    0.8350   20.1899 C   0  0  0  0  0  0  0  0  0  0  0  0
    7.5322   -2.7722   25.3334 C   0  0  0  0  0  0  0  0  0  0  0  0
    9.3727   -2.3794   23.8184 C   0  0  0  0  0  0  0  0  0  0  0  0
    5.6349    0.6609   17.8230 C   0  0  0  0  0  0  0  0  0  0  0  0
    7.6264    0.1447   18.8457 C   0  0  0  0  0  0  0  0  0  0  0  0
    8.9672   -1.0530   23.6697 C   0  0  0  0  0  0  0  0  0  0  0  0
    7.1141    0.4201   20.1033 C   0  0  0  0  0  0  0  0  0  0  0  0
    8.6552   -3.2389   24.6502 C   0  0  0  0  0  0  0  0  0  0  0  0
    9.2446   -0.1188   21.3344 C   0  0  0  0  0  0  0  0  0  0  0  0
    9.7338   -0.1333   22.7804 C   0  0  0  0  0  0  0  0  0  0  0  0
    6.9184    0.2548   17.6992 N   0  0  0  0  0  0  0  0  0  0  0  0
    7.9774   -5.4815   25.9216 N   0  0  0  0  0  0  0  0  0  0  0  0
    7.9133    0.2835   21.2633 N   0  0  0  0  0  0  0  0  0  0  0  0
    9.9766   -0.4330   20.4013 O   0  0  0  0  0  0  0  0  0  0  0  0
    8.9982   -5.5754   23.5563 O   0  0  0  0  0  0  0  0  0  0  0  0
   10.4558   -4.9168   25.5028 O   0  0  0  0  0  0  0  0  0  0  0  0
    9.1614   -4.8994   24.8358 S   0  0  0  0  0  0  0  0  0  0  0  0
  1  3  2  0
  1  5  1  0
  2  4  2  0
  2  7  1  0
  3  9  1  0
  4 10  1  0
  5 11  2  0
  6  9  2  0
  6 11  1  0
  7 14  2  0
  8 10  2  0
  8 14  1  0
  9 13  1  0
 10 16  1  0
 11 20  1  0
 12 13  1  0
 12 16  1  0
 12 17  2  0
 15 20  1  0
 18 20  2  0
 19 20  2  0
M  END
