CHA-KIN-f512e507-2
     RDKit          3D

 26 27  0  0  0  0  0  0  0  0999 V2000
    5.6018    0.8956   19.4010 C   0  0  0  0  0  0  0  0  0  0  0  0
    6.2473    0.5958   18.2122 C   0  0  0  0  0  0  0  0  0  0  0  0
    8.2479    0.2404   19.2843 C   0  0  0  0  0  0  0  0  0  0  0  0
    6.3472    0.8566   20.5741 C   0  0  0  0  0  0  0  0  0  0  0  0
    7.6963    0.5238   20.5233 C   0  0  0  0  0  0  0  0  0  0  0  0
    9.8553    0.1514   21.7788 C   0  0  0  0  0  0  0  0  0  0  0  0
   14.4215   -1.1545   22.3918 C   0  0  0  0  0  0  0  0  0  0  0  0
   13.4866   -2.3602   22.4232 C   0  0  0  0  0  0  0  0  0  0  0  0
   14.0039   -0.0915   23.4039 C   0  0  0  0  0  0  0  0  0  0  0  0
   12.0279   -1.9475   22.2337 C   0  0  0  0  0  0  0  0  0  0  0  0
   12.5461    0.3243   23.2150 C   0  0  0  0  0  0  0  0  0  0  0  0
   11.6096   -0.8881   23.2593 C   0  0  0  0  0  0  0  0  0  0  0  0
    5.6768    1.1759   21.8700 C   0  0  0  0  0  0  0  0  0  0  0  0
    7.6152   -2.3519   25.0772 C   0  0  0  0  0  0  0  0  0  0  0  0
    8.6076   -2.0746   23.9427 C   0  0  0  0  0  0  0  0  0  0  0  0
    6.9349   -3.7103   24.9393 C   0  0  0  0  0  0  0  0  0  0  0  0
    9.2684   -0.7084   24.0792 C   0  0  0  0  0  0  0  0  0  0  0  0
    7.5558    0.2681   18.1233 N   0  0  0  0  0  0  0  0  0  0  0  0
    5.4591   -6.3004   24.3027 N   0  0  0  0  0  0  0  0  0  0  0  0
    8.4979    0.4701   21.6906 N   0  0  0  0  0  0  0  0  0  0  0  0
    6.1749   -3.8220   23.7252 N   0  0  0  0  0  0  0  0  0  0  0  0
   10.2348   -0.4637   23.0024 N   0  0  0  0  0  0  0  0  0  0  0  0
   10.6757    0.3523   20.8807 O   0  0  0  0  0  0  0  0  0  0  0  0
    4.9355   -5.3118   21.9901 O   0  0  0  0  0  0  0  0  0  0  0  0
    7.3242   -5.8447   22.5853 O   0  0  0  0  0  0  0  0  0  0  0  0
    6.0068   -5.3728   22.9665 S   0  0  0  0  0  0  0  0  0  0  0  0
  1  2  2  0
  1  4  1  0
  2 18  1  0
  3  5  1  0
  3 18  2  0
  4  5  2  0
  4 13  1  0
  5 20  1  0
  6 20  1  0
  6 22  1  0
  6 23  2  0
  7  8  1  0
  7  9  1  0
  8 10  1  0
  9 11  1  0
 10 12  1  0
 11 12  1  0
 12 22  1  0
 14 15  1  0
 14 16  1  0
 15 17  1  0
 16 21  1  0
 17 22  1  0
 19 26  1  0
 21 26  1  0
 24 26  2  0
 25 26  2  0
M  END
