CHA-MCP-85291e1d-4
     RDKit          3D

 21 22  0  0  0  0  0  0  0  0999 V2000
   11.0284    0.2683   23.4892 C   0  0  0  0  0  0  0  0  0  0  0  0
    5.5087    1.3440   18.8891 C   0  0  0  0  0  0  0  0  0  0  0  0
   10.0382   -0.7137   23.5161 C   0  0  0  0  0  0  0  0  0  0  0  0
    5.7551    0.6612   20.0751 C   0  0  0  0  0  0  0  0  0  0  0  0
   12.3504   -0.0816   23.2143 C   0  0  0  0  0  0  0  0  0  0  0  0
   11.6920   -2.3956   22.9932 C   0  0  0  0  0  0  0  0  0  0  0  0
    6.2387    0.9818   17.7686 C   0  0  0  0  0  0  0  0  0  0  0  0
    7.3866   -0.6351   18.9288 C   0  0  0  0  0  0  0  0  0  0  0  0
   10.3700   -2.0457   23.2681 C   0  0  0  0  0  0  0  0  0  0  0  0
    6.7105   -0.3485   20.1038 C   0  0  0  0  0  0  0  0  0  0  0  0
   12.6822   -1.4136   22.9663 C   0  0  0  0  0  0  0  0  0  0  0  0
    7.9165   -2.0635   21.4595 C   0  0  0  0  0  0  0  0  0  0  0  0
    9.3106   -3.0951   23.2970 C   0  0  0  0  0  0  0  0  0  0  0  0
    7.9189   -2.5886   22.8869 C   0  0  0  0  0  0  0  0  0  0  0  0
    7.1747    0.0064   17.7578 N   0  0  0  0  0  0  0  0  0  0  0  0
   14.9226   -2.1686   24.1972 N   0  0  0  0  0  0  0  0  0  0  0  0
    6.9805   -1.0530   21.2827 N   0  0  0  0  0  0  0  0  0  0  0  0
    8.7036   -2.5149   20.6323 O   0  0  0  0  0  0  0  0  0  0  0  0
   14.3363   -3.0930   21.8632 O   0  0  0  0  0  0  0  0  0  0  0  0
   15.0255   -0.6809   22.0965 O   0  0  0  0  0  0  0  0  0  0  0  0
   14.3372   -1.8510   22.6237 S   0  0  0  0  0  0  0  0  0  0  0  0
  1  3  2  0
  1  5  1  0
  2  4  2  0
  2  7  1  0
  3  9  1  0
  4 10  1  0
  5 11  2  0
  6  9  2  0
  6 11  1  0
  7 15  2  0
  8 10  2  0
  8 15  1  0
  9 13  1  0
 10 17  1  0
 11 21  1  0
 12 14  1  0
 12 17  1  0
 12 18  2  0
 13 14  1  0
 16 21  1  0
 19 21  2  0
 20 21  2  0
M  END
