CHA-MCP-85291e1d-7
     RDKit          3D

 23 24  0  0  0  0  0  0  0  0999 V2000
    9.4972   -4.2115   26.5700 C   0  0  0  0  0  0  0  0  0  0  0  0
    4.9939    1.0676   19.6825 C   0  0  0  0  0  0  0  0  0  0  0  0
    9.8758   -3.7313   25.3163 C   0  0  0  0  0  0  0  0  0  0  0  0
    8.1591   -4.5095   26.8277 C   0  0  0  0  0  0  0  0  0  0  0  0
    5.8941    0.9043   20.7296 C   0  0  0  0  0  0  0  0  0  0  0  0
    7.5783   -3.8470   24.5781 C   0  0  0  0  0  0  0  0  0  0  0  0
    5.4383    0.8004   18.3976 C   0  0  0  0  0  0  0  0  0  0  0  0
    7.5386    0.2434   19.1438 C   0  0  0  0  0  0  0  0  0  0  0  0
    8.9164   -3.5491   24.3204 C   0  0  0  0  0  0  0  0  0  0  0  0
    7.1997   -4.3273   25.8318 C   0  0  0  0  0  0  0  0  0  0  0  0
    7.1927    0.4847   20.4636 C   0  0  0  0  0  0  0  0  0  0  0  0
    4.6668   -6.2513   23.4047 C   0  0  0  0  0  0  0  0  0  0  0  0
    9.2829   -1.5196   22.8629 C   0  0  0  0  0  0  0  0  0  0  0  0
    5.1236   -6.6527   22.0415 C   0  0  0  0  0  0  0  0  0  0  0  0
    9.3222   -3.0370   22.9798 C   0  0  0  0  0  0  0  0  0  0  0  0
    5.7688   -4.6453   26.1078 C   0  0  0  0  0  0  0  0  0  0  0  0
    8.1878    0.2984   21.5723 C   0  0  0  0  0  0  0  0  0  0  0  0
    5.3885   -6.0942   25.7790 C   0  0  0  0  0  0  0  0  0  0  0  0
    6.6920    0.3910   18.1002 N   0  0  0  0  0  0  0  0  0  0  0  0
    8.4057   -1.0969   21.8742 N   0  0  0  0  0  0  0  0  0  0  0  0
    5.6192   -6.4197   24.3970 N   0  0  0  0  0  0  0  0  0  0  0  0
    3.5315   -5.8161   23.5577 O   0  0  0  0  0  0  0  0  0  0  0  0
    9.9546   -0.7761   23.5734 O   0  0  0  0  0  0  0  0  0  0  0  0
  1  3  2  0
  1  4  1  0
  2  5  2  0
  2  7  1  0
  3  9  1  0
  4 10  2  0
  5 11  1  0
  6  9  2  0
  6 10  1  0
  7 19  2  0
  8 11  2  0
  8 19  1  0
  9 15  1  0
 10 16  1  0
 11 17  1  0
 12 14  1  0
 12 21  1  0
 12 22  2  0
 13 15  1  0
 13 20  1  0
 13 23  2  0
 16 18  1  0
 17 20  1  0
 18 21  1  0
M  END
