CHA-KIN-7308df58-1
     RDKit          3D

 38 39  0  0  1  0  0  0  0  0999 V2000
    8.0913    7.1174   23.4888 C   0  0  0  0  0  0  0  0  0  0  0  0
    8.1307    6.3531   22.3227 C   0  0  0  0  0  0  0  0  0  0  0  0
    7.5514    6.5798   24.6573 C   0  0  0  0  0  0  0  0  0  0  0  0
    5.1240    0.6474   20.4046 C   0  0  0  0  0  0  0  0  0  0  0  0
    7.0430   -0.6595   19.7363 C   0  0  0  0  0  0  0  0  0  0  0  0
    5.1774    1.3433   19.1969 C   0  0  0  0  0  0  0  0  0  0  0  0
    7.0963    0.0364   18.5286 C   0  0  0  0  0  0  0  0  0  0  0  0
    6.0569   -0.3540   20.6743 C   0  0  0  0  0  0  0  0  0  0  0  0
    7.6301    5.0511   22.3249 C   0  0  0  0  0  0  0  0  0  0  0  0
    7.0509    5.2778   24.6595 C   0  0  0  0  0  0  0  0  0  0  0  0
    7.0902    4.5135   23.4933 C   0  0  0  0  0  0  0  0  0  0  0  0
    6.1635    1.0378   18.2589 C   0  0  0  0  0  0  0  0  0  0  0  0
    5.6857   -6.4073   26.7168 C   0  0  0  0  0  0  0  0  0  0  0  0
    6.6581   -1.2044   24.4054 C   0  0  0  0  0  0  0  0  0  0  0  0
    7.2686    2.0097   23.2106 C   0  0  0  0  0  0  0  0  0  0  0  0
    7.6862    4.2571   21.0600 C   0  0  0  0  0  0  0  0  0  0  0  0
    5.9990   -1.1076   21.9810 C   0  0  0  0  0  0  0  0  0  0  0  0
    6.4793    4.7302   25.9271 C   0  0  0  0  0  0  0  0  0  0  0  0
    6.5388   -5.1702   26.9274 C   0  0  0  0  0  0  0  0  0  0  0  0
    6.6735   -4.2971   25.6787 C   0  0  0  0  0  0  0  0  0  0  0  0
    7.5021   -3.0330   25.8963 C   0  0  0  0  0  0  0  0  0  0  0  0
    9.9473   -1.6995   24.1726 C   0  0  0  0  0  0  0  0  0  0  0  0
    8.7147   -2.5143   23.8185 C   0  0  0  0  0  0  0  0  0  0  0  0
    6.8332   -0.4488   23.0865 C   0  0  0  0  0  0  0  0  0  0  0  0
    5.5827   -7.1734   27.8583 N   0  0  0  0  0  0  0  0  0  0  0  0
   12.5635   -0.1704   24.4931 N   0  0  0  0  0  0  0  0  0  0  0  0
    6.5822    3.1934   23.4957 N   0  0  0  0  0  0  0  0  0  0  0  0
    6.4088    0.9129   23.3226 N   0  0  0  0  0  0  0  0  0  0  0  0
   11.0540   -1.9817   23.2983 N   0  0  0  0  0  0  0  0  0  0  0  0
    7.5868   -2.2098   24.6955 N   0  0  0  0  0  0  0  0  0  0  0  0
    5.1650   -6.7079   25.6467 O   0  0  0  0  0  0  0  0  0  0  0  0
    5.7019   -0.9418   25.1432 O   0  0  0  0  0  0  0  0  0  0  0  0
    8.4536    1.9060   22.9031 O   0  0  0  0  0  0  0  0  0  0  0  0
   13.3694   -1.3011   22.3317 O   0  0  0  0  0  0  0  0  0  0  0  0
   11.4609    0.3390   22.2214 O   0  0  0  0  0  0  0  0  0  0  0  0
    6.2145    1.7160   17.0800 O   0  0  0  0  0  0  0  0  0  0  0  0
    7.2124    3.5749   26.3119 O   0  0  0  0  0  0  0  0  0  0  0  0
   12.1755   -0.7169   22.9130 S   0  0  0  0  0  0  0  0  0  0  0  0
  1  2  2  0
  1  3  1  0
  2  9  1  0
  3 10  2  0
  4  6  2  0
  4  8  1  0
  5  7  1  0
  5  8  2  0
  6 12  1  0
  7 12  2  0
  8 17  1  0
  9 11  2  0
  9 16  1  0
 10 11  1  0
 10 18  1  0
 11 27  1  0
 12 36  1  0
 13 19  1  0
 13 25  1  0
 13 31  2  0
 14 24  1  0
 14 30  1  0
 14 32  2  0
 15 27  1  0
 15 28  1  0
 15 33  2  0
 17 24  1  0
 18 37  1  0
 19 20  1  0
 20 21  1  0
 21 30  1  0
 22 23  1  0
 22 29  1  0
 23 30  1  0
 24 28  1  0
 26 38  1  0
 29 38  1  0
 34 38  2  0
 35 38  2  0
M  END
