CHA-KIN-bfe9b535-1
     RDKit          3D

 34 36  0  0  1  0  0  0  0  0999 V2000
    4.0317    2.1185   21.3827 C   0  0  0  0  0  0  0  0  0  0  0  0
    4.1546    1.7210   20.0513 C   0  0  0  0  0  0  0  0  0  0  0  0
    4.8707    1.5722   22.3540 C   0  0  0  0  0  0  0  0  0  0  0  0
    5.1163    0.7770   19.6912 C   0  0  0  0  0  0  0  0  0  0  0  0
    5.8324    0.6282   21.9939 C   0  0  0  0  0  0  0  0  0  0  0  0
   13.4871   -0.7276   22.6951 C   0  0  0  0  0  0  0  0  0  0  0  0
   11.9272   -2.5057   23.1872 C   0  0  0  0  0  0  0  0  0  0  0  0
   14.3190   -1.1731   23.7223 C   0  0  0  0  0  0  0  0  0  0  0  0
   12.7592   -2.9513   24.2143 C   0  0  0  0  0  0  0  0  0  0  0  0
   11.8364    5.9356   23.3172 C   0  0  0  0  0  0  0  0  0  0  0  0
   11.4422    6.9466   24.1658 C   0  0  0  0  0  0  0  0  0  0  0  0
   10.0561    4.9312   24.4235 C   0  0  0  0  0  0  0  0  0  0  0  0
   12.2911   -1.3939   22.4276 C   0  0  0  0  0  0  0  0  0  0  0  0
    5.9552    0.2306   20.6625 C   0  0  0  0  0  0  0  0  0  0  0  0
   11.0334    4.7681   23.4663 C   0  0  0  0  0  0  0  0  0  0  0  0
   13.9551   -2.2850   24.4819 C   0  0  0  0  0  0  0  0  0  0  0  0
    9.2163    0.2253   20.7916 C   0  0  0  0  0  0  0  0  0  0  0  0
   10.4528    2.3950   22.8244 C   0  0  0  0  0  0  0  0  0  0  0  0
   11.3912   -0.9123   21.3159 C   0  0  0  0  0  0  0  0  0  0  0  0
    6.4863   -2.2434   20.3384 C   0  0  0  0  0  0  0  0  0  0  0  0
    7.0025   -0.7975   20.2712 C   0  0  0  0  0  0  0  0  0  0  0  0
   10.3628    0.1206   21.7910 C   0  0  0  0  0  0  0  0  0  0  0  0
    5.4194   -5.0462   20.8820 N   0  0  0  0  0  0  0  0  0  0  0  0
   11.2009    3.5719   22.7304 N   0  0  0  0  0  0  0  0  0  0  0  0
    8.1873   -0.6581   21.0869 N   0  0  0  0  0  0  0  0  0  0  0  0
   10.9344    1.4370   21.9235 N   0  0  0  0  0  0  0  0  0  0  0  0
    6.0181   -2.5905   21.6548 N   0  0  0  0  0  0  0  0  0  0  0  0
    9.2416    0.9789   19.8209 O   0  0  0  0  0  0  0  0  0  0  0  0
    9.5022    2.1893   23.5753 O   0  0  0  0  0  0  0  0  0  0  0  0
    7.5586   -4.6017   22.2333 O   0  0  0  0  0  0  0  0  0  0  0  0
    5.3218   -4.3993   23.3734 O   0  0  0  0  0  0  0  0  0  0  0  0
   14.7676   -2.7203   25.4832 O   0  0  0  0  0  0  0  0  0  0  0  0
   10.1091    6.4868   25.1372 S   0  0  0  0  0  0  0  0  0  0  0  0
    6.1566   -4.2300   22.1996 S   0  0  0  0  0  0  0  0  0  0  0  0
  1  2  2  0
  1  3  1  0
  2  4  1  0
  3  5  2  0
  4 14  2  0
  5 14  1  0
  6  8  2  0
  6 13  1  0
  7  9  1  0
  7 13  2  0
  8 16  1  0
  9 16  2  0
 10 11  2  0
 10 15  1  0
 11 33  1  0
 12 15  2  0
 12 33  1  0
 13 19  1  0
 14 21  1  0
 15 24  1  0
 16 32  1  0
 17 22  1  0
 17 25  1  0
 17 28  2  0
 18 24  1  0
 18 26  1  0
 18 29  2  0
 19 22  1  0
 20 21  1  0
 20 27  1  0
 21 25  1  0
 22 26  1  0
 23 34  1  0
 27 34  1  0
 30 34  2  0
 31 34  2  0
M  END
