CHA-KIN-bfe9b535-4
     RDKit          3D

 36 38  0  0  1  0  0  0  0  0999 V2000
    4.2702    2.7395   21.4245 C   0  0  0  0  0  0  0  0  0  0  0  0
    4.3559    2.2796   20.1105 C   0  0  0  0  0  0  0  0  0  0  0  0
    5.0369    2.1411   22.4244 C   0  0  0  0  0  0  0  0  0  0  0  0
    5.2082    1.2210   19.7963 C   0  0  0  0  0  0  0  0  0  0  0  0
    5.8891    1.0825   22.1102 C   0  0  0  0  0  0  0  0  0  0  0  0
   13.3398   -1.0901   22.9415 C   0  0  0  0  0  0  0  0  0  0  0  0
   11.5880   -2.6629   23.4842 C   0  0  0  0  0  0  0  0  0  0  0  0
   14.1105   -1.5855   23.9933 C   0  0  0  0  0  0  0  0  0  0  0  0
   12.3587   -3.1583   24.5360 C   0  0  0  0  0  0  0  0  0  0  0  0
   12.0021    6.7019   24.1630 C   0  0  0  0  0  0  0  0  0  0  0  0
   12.0785   -1.6288   22.6870 C   0  0  0  0  0  0  0  0  0  0  0  0
    5.9748    0.6225   20.7962 C   0  0  0  0  0  0  0  0  0  0  0  0
   13.6199   -2.6196   24.7905 C   0  0  0  0  0  0  0  0  0  0  0  0
   12.4281    5.7236   23.2982 C   0  0  0  0  0  0  0  0  0  0  0  0
   11.5112    4.6707   23.4787 C   0  0  0  0  0  0  0  0  0  0  0  0
    9.2141    0.2586   20.9592 C   0  0  0  0  0  0  0  0  0  0  0  0
   10.6730    2.3540   22.9212 C   0  0  0  0  0  0  0  0  0  0  0  0
   10.0989    6.8598   25.7856 C   0  0  0  0  0  0  0  0  0  0  0  0
   11.2448   -1.0933   21.5486 C   0  0  0  0  0  0  0  0  0  0  0  0
    6.2280   -1.9060   20.5713 C   0  0  0  0  0  0  0  0  0  0  0  0
    6.9029   -0.5304   20.4549 C   0  0  0  0  0  0  0  0  0  0  0  0
   10.3356    0.0655   21.9736 C   0  0  0  0  0  0  0  0  0  0  0  0
   10.5737    4.9534   24.3871 N   0  0  0  0  0  0  0  0  0  0  0  0
   10.8992    6.1951   24.7850 N   0  0  0  0  0  0  0  0  0  0  0  0
    7.2935   -3.9435   23.0228 N   0  0  0  0  0  0  0  0  0  0  0  0
   11.5485    3.4356   22.7905 N   0  0  0  0  0  0  0  0  0  0  0  0
    8.0910   -0.4925   21.2770 N   0  0  0  0  0  0  0  0  0  0  0  0
   11.0500    1.3141   22.0622 N   0  0  0  0  0  0  0  0  0  0  0  0
    5.7159   -2.1476   21.8950 N   0  0  0  0  0  0  0  0  0  0  0  0
    9.3293    0.9665   19.9609 O   0  0  0  0  0  0  0  0  0  0  0  0
    9.7008    2.2848   23.6694 O   0  0  0  0  0  0  0  0  0  0  0  0
    4.8114   -3.8134   23.6725 O   0  0  0  0  0  0  0  0  0  0  0  0
    5.4397   -4.6732   21.3899 O   0  0  0  0  0  0  0  0  0  0  0  0
   14.3726   -3.1037   25.8160 O   0  0  0  0  0  0  0  0  0  0  0  0
    5.6673   -3.7702   22.5019 S   0  0  0  0  0  0  0  0  0  0  0  0
   13.7558    5.7705   22.2492 Cl  0  0  0  0  0  0  0  0  0  0  0  0
  1  2  2  0
  1  3  1  0
  2  4  1  0
  3  5  2  0
  4 12  2  0
  5 12  1  0
  6  8  2  0
  6 11  1  0
  7  9  1  0
  7 11  2  0
  8 13  1  0
  9 13  2  0
 10 14  2  0
 10 24  1  0
 11 19  1  0
 12 21  1  0
 13 34  1  0
 14 15  1  0
 14 36  1  0
 15 23  2  0
 15 26  1  0
 16 22  1  0
 16 27  1  0
 16 30  2  0
 17 26  1  0
 17 28  1  0
 17 31  2  0
 18 24  1  0
 19 22  1  0
 20 21  1  0
 20 29  1  0
 21 27  1  0
 22 28  1  0
 23 24  1  0
 25 35  1  0
 29 35  1  0
 32 35  2  0
 33 35  2  0
M  END
