CHR-SOS-b301fc01-5
     RDKit          3D

 24 26  0  0  0  0  0  0  0  0999 V2000
    9.2078   -2.8093   22.8717 C   0  0  0  0  0  0  0  0  0  0  0  0
   10.2414   -2.1985   22.8346 C   0  0  0  0  0  0  0  0  0  0  0  0
    5.9479   -0.1384   19.3893 C   0  0  0  0  0  0  0  0  0  0  0  0
    6.8847   -0.1454   20.4168 C   0  0  0  0  0  0  0  0  0  0  0  0
    7.4866   -4.0368   24.1101 C   0  0  0  0  0  0  0  0  0  0  0  0
    6.4139   -0.0492   18.0874 C   0  0  0  0  0  0  0  0  0  0  0  0
    6.2915   -4.7270   24.0791 C   0  0  0  0  0  0  0  0  0  0  0  0
    7.2377   -3.7567   21.7717 C   0  0  0  0  0  0  0  0  0  0  0  0
    8.6030    0.0215   18.7810 C   0  0  0  0  0  0  0  0  0  0  0  0
    7.9758   -3.5349   22.9169 C   0  0  0  0  0  0  0  0  0  0  0  0
    8.2396   -0.0641   20.1153 C   0  0  0  0  0  0  0  0  0  0  0  0
   10.5987    0.0062   20.9937 C   0  0  0  0  0  0  0  0  0  0  0  0
   14.5236   -1.5265   23.2109 C   0  0  0  0  0  0  0  0  0  0  0  0
   13.6156   -0.8214   24.2122 C   0  0  0  0  0  0  0  0  0  0  0  0
   13.9343   -1.5045   21.8051 C   0  0  0  0  0  0  0  0  0  0  0  0
   12.1987   -1.3994   24.1953 C   0  0  0  0  0  0  0  0  0  0  0  0
   12.5192   -2.0862   21.7761 C   0  0  0  0  0  0  0  0  0  0  0  0
   11.5646   -1.4154   22.7875 C   0  0  0  0  0  0  0  0  0  0  0  0
   11.2612   -0.0310   22.3544 C   0  0  0  0  0  0  0  0  0  0  0  0
    7.7220    0.0313   17.7556 N   0  0  0  0  0  0  0  0  0  0  0  0
    5.5903   -4.9291   22.9435 N   0  0  0  0  0  0  0  0  0  0  0  0
    6.0713   -4.4361   21.7707 N   0  0  0  0  0  0  0  0  0  0  0  0
    9.2164   -0.0688   21.1393 N   0  0  0  0  0  0  0  0  0  0  0  0
   11.2349    0.0911   19.9485 O   0  0  0  0  0  0  0  0  0  0  0  0
  1  2  3  0
  1 10  1  0
  2 18  1  0
  3  4  2  0
  3  6  1  0
  4 11  1  0
  5  7  2  0
  5 10  1  0
  6 20  2  0
  7 21  1  0
  8 10  2  0
  8 22  1  0
  9 11  2  0
  9 20  1  0
 11 23  1  0
 12 19  1  0
 12 23  1  0
 12 24  2  0
 13 14  1  0
 13 15  1  0
 14 16  1  0
 15 17  1  0
 16 18  1  0
 17 18  1  0
 18 19  1  0
 21 22  2  0
M  END
