CHR-SOS-70e4c98a-5
     RDKit          3D

 26 28  0  0  0  0  0  0  0  0999 V2000
    5.7931    1.2628   18.9938 C   0  0  0  0  0  0  0  0  0  0  0  0
    6.4915    0.9479   20.1541 C   0  0  0  0  0  0  0  0  0  0  0  0
   10.1336    2.0987   23.2375 C   0  0  0  0  0  0  0  0  0  0  0  0
   12.4266    2.6962   22.7665 C   0  0  0  0  0  0  0  0  0  0  0  0
    9.9284    3.3478   23.8233 C   0  0  0  0  0  0  0  0  0  0  0  0
   12.2214    3.9454   23.3523 C   0  0  0  0  0  0  0  0  0  0  0  0
    6.2611    0.7484   17.7954 C   0  0  0  0  0  0  0  0  0  0  0  0
    8.0066   -0.3247   18.8345 C   0  0  0  0  0  0  0  0  0  0  0  0
    7.6206    0.1396   20.0816 C   0  0  0  0  0  0  0  0  0  0  0  0
   11.3827    1.7729   22.7091 C   0  0  0  0  0  0  0  0  0  0  0  0
   10.9723    4.2712   23.8806 C   0  0  0  0  0  0  0  0  0  0  0  0
    9.4934   -0.9904   21.3296 C   0  0  0  0  0  0  0  0  0  0  0  0
   13.2300   -0.2117   24.4651 C   0  0  0  0  0  0  0  0  0  0  0  0
   13.7036   -1.1266   23.3348 C   0  0  0  0  0  0  0  0  0  0  0  0
   11.7030   -0.2329   24.4177 C   0  0  0  0  0  0  0  0  0  0  0  0
   12.4413   -1.6381   22.6409 C   0  0  0  0  0  0  0  0  0  0  0  0
   11.3799   -0.5911   22.9689 C   0  0  0  0  0  0  0  0  0  0  0  0
   10.1705    6.8679   23.2737 C   0  0  0  0  0  0  0  0  0  0  0  0
    9.9600   -1.0980   22.7728 C   0  0  0  0  0  0  0  0  0  0  0  0
    7.3537   -0.0400   17.6854 N   0  0  0  0  0  0  0  0  0  0  0  0
    8.3521   -0.1980   21.2450 N   0  0  0  0  0  0  0  0  0  0  0  0
   10.0839   -1.5478   20.4103 O   0  0  0  0  0  0  0  0  0  0  0  0
    9.6156    5.7109   25.5602 O   0  0  0  0  0  0  0  0  0  0  0  0
   11.9977    6.3617   25.0623 O   0  0  0  0  0  0  0  0  0  0  0  0
   11.5839    0.5479   22.1341 O   0  0  0  0  0  0  0  0  0  0  0  0
   10.7158    5.8347   24.6148 S   0  0  0  0  0  0  0  0  0  0  0  0
  1  2  2  0
  1  7  1  0
  2  9  1  0
  3  5  2  0
  3 10  1  0
  4  6  1  0
  4 10  2  0
  5 11  1  0
  6 11  2  0
  7 20  2  0
  8  9  2  0
  8 20  1  0
  9 21  1  0
 10 25  1  0
 11 26  1  0
 12 19  1  0
 12 21  1  0
 12 22  2  0
 13 14  1  0
 13 15  1  0
 14 16  1  0
 15 17  1  0
 16 17  1  0
 17 19  1  0
 17 25  1  0
 18 26  1  0
 23 26  2  0
 24 26  2  0
M  END
