CHR-SOS-f7373dd1-2
     RDKit          3D

 22 24  0  0  0  0  0  0  0  0999 V2000
    9.5863   -1.7556   25.3526 C   0  0  0  0  0  0  0  0  0  0  0  0
    5.9549    1.0208   19.2978 C   0  0  0  0  0  0  0  0  0  0  0  0
   10.5701   -0.9557   24.7822 C   0  0  0  0  0  0  0  0  0  0  0  0
    6.9115    1.1588   20.2975 C   0  0  0  0  0  0  0  0  0  0  0  0
    8.9701   -2.6995   24.5470 C   0  0  0  0  0  0  0  0  0  0  0  0
    6.3782    0.5929   18.0498 C   0  0  0  0  0  0  0  0  0  0  0  0
   10.2280   -2.0941   22.7223 C   0  0  0  0  0  0  0  0  0  0  0  0
    8.5640    0.4475   18.7421 C   0  0  0  0  0  0  0  0  0  0  0  0
   10.9030   -1.1217   23.4424 C   0  0  0  0  0  0  0  0  0  0  0  0
    8.2432    0.8688   20.0225 C   0  0  0  0  0  0  0  0  0  0  0  0
   10.6027    0.7487   20.8944 C   0  0  0  0  0  0  0  0  0  0  0  0
   14.6503   -1.6676   23.0646 C   0  0  0  0  0  0  0  0  0  0  0  0
   14.0322   -0.9052   24.2305 C   0  0  0  0  0  0  0  0  0  0  0  0
   13.5932   -2.1397   22.0735 C   0  0  0  0  0  0  0  0  0  0  0  0
   13.1196    0.2272   23.7495 C   0  0  0  0  0  0  0  0  0  0  0  0
   12.7156   -0.9790   21.6021 C   0  0  0  0  0  0  0  0  0  0  0  0
   12.0006   -0.2425   22.7736 C   0  0  0  0  0  0  0  0  0  0  0  0
   11.3032    1.0191   22.2113 C   0  0  0  0  0  0  0  0  0  0  0  0
    9.2666   -2.8901   23.2418 N   0  0  0  0  0  0  0  0  0  0  0  0
    7.6627    0.3017   17.7451 N   0  0  0  0  0  0  0  0  0  0  0  0
    9.2393    0.9999   21.0192 N   0  0  0  0  0  0  0  0  0  0  0  0
   11.2019    0.3656   19.8951 O   0  0  0  0  0  0  0  0  0  0  0  0
  1  3  2  0
  1  5  1  0
  2  4  2  0
  2  6  1  0
  3  9  1  0
  4 10  1  0
  5 19  2  0
  6 20  2  0
  7  9  2  0
  7 19  1  0
  8 10  2  0
  8 20  1  0
  9 17  1  0
 10 21  1  0
 11 18  1  0
 11 21  1  0
 11 22  2  0
 12 13  1  0
 12 14  1  0
 13 15  1  0
 14 16  1  0
 15 17  1  0
 16 17  1  0
 17 18  1  0
M  END
