CHR-GRO-516f90f3-1
     RDKit          3D

 23 25  0  0  0  0  0  0  0  0999 V2000
   11.3282    3.5621   24.2860 C   0  0  0  0  0  0  0  0  0  0  0  0
    8.5241   -4.8250   24.2943 C   0  0  0  0  0  0  0  0  0  0  0  0
   11.2266    2.4250   25.0874 C   0  0  0  0  0  0  0  0  0  0  0  0
   11.6945    3.4401   22.9456 C   0  0  0  0  0  0  0  0  0  0  0  0
    7.3873   -4.8012   23.4749 C   0  0  0  0  0  0  0  0  0  0  0  0
    9.5347   -3.8793   24.1275 C   0  0  0  0  0  0  0  0  0  0  0  0
   11.4915    1.1660   24.5486 C   0  0  0  0  0  0  0  0  0  0  0  0
   11.9594    2.1811   22.4067 C   0  0  0  0  0  0  0  0  0  0  0  0
    7.2417   -3.8322   22.4754 C   0  0  0  0  0  0  0  0  0  0  0  0
    9.3799   -2.9244   23.1343 C   0  0  0  0  0  0  0  0  0  0  0  0
   11.8579    1.0440   23.2082 C   0  0  0  0  0  0  0  0  0  0  0  0
    8.2484   -2.8903   22.3087 C   0  0  0  0  0  0  0  0  0  0  0  0
   10.2323   -1.8264   22.7157 C   0  0  0  0  0  0  0  0  0  0  0  0
    9.5672   -1.1095   21.5851 C   0  0  0  0  0  0  0  0  0  0  0  0
   11.4178   -1.4615   23.2097 C   0  0  0  0  0  0  0  0  0  0  0  0
   12.1396   -0.2945   22.6354 C   0  0  0  0  0  0  0  0  0  0  0  0
    7.3418   -1.5352   20.4157 C   0  0  0  0  0  0  0  0  0  0  0  0
    7.6251   -0.3559   19.5171 C   0  0  0  0  0  0  0  0  0  0  0  0
    8.3380   -1.8106   21.3717 N   0  0  0  0  0  0  0  0  0  0  0  0
   10.0314   -0.1390   21.0115 O   0  0  0  0  0  0  0  0  0  0  0  0
   12.9270   -0.4037   21.7019 O   0  0  0  0  0  0  0  0  0  0  0  0
    6.2935   -2.1622   20.2608 O   0  0  0  0  0  0  0  0  0  0  0  0
    6.2704   -0.2386   18.4003 Cl  0  0  0  0  0  0  0  0  0  0  0  0
  1  3  2  0
  1  4  1  0
  2  5  2  0
  2  6  1  0
  3  7  1  0
  4  8  2  0
  5  9  1  0
  6 10  2  0
  7 11  2  0
  8 11  1  0
  9 12  2  0
 10 12  1  0
 10 13  1  0
 11 16  1  0
 12 19  1  0
 13 14  1  0
 13 15  2  0
 14 19  1  0
 14 20  2  0
 15 16  1  0
 16 21  2  0
 17 18  1  0
 17 19  1  0
 17 22  2  0
 18 23  1  0
M  END
