CHR-SOS-70e4c98a-1
     RDKit          3D

 23 25  0  0  0  0  0  0  0  0999 V2000
    7.8003   -3.2745   25.7173 C   0  0  0  0  0  0  0  0  0  0  0  0
    7.5152   -2.0938   25.0315 C   0  0  0  0  0  0  0  0  0  0  0  0
    8.8321   -4.1043   25.2784 C   0  0  0  0  0  0  0  0  0  0  0  0
    5.7693    0.8242   19.1102 C   0  0  0  0  0  0  0  0  0  0  0  0
    6.6055    0.6334   20.2046 C   0  0  0  0  0  0  0  0  0  0  0  0
    8.2618   -1.7429   23.9067 C   0  0  0  0  0  0  0  0  0  0  0  0
    9.5787   -3.7534   24.1537 C   0  0  0  0  0  0  0  0  0  0  0  0
    6.3190    0.6994   17.8445 C   0  0  0  0  0  0  0  0  0  0  0  0
    8.3990    0.2250   18.6970 C   0  0  0  0  0  0  0  0  0  0  0  0
    7.9468    0.3279   20.0027 C   0  0  0  0  0  0  0  0  0  0  0  0
    9.2936   -2.5727   23.4678 C   0  0  0  0  0  0  0  0  0  0  0  0
   10.1899    0.3830   21.1462 C   0  0  0  0  0  0  0  0  0  0  0  0
   14.1153   -1.5078   23.1618 C   0  0  0  0  0  0  0  0  0  0  0  0
   13.1135   -1.1573   24.2584 C   0  0  0  0  0  0  0  0  0  0  0  0
   13.5949   -1.1447   21.7739 C   0  0  0  0  0  0  0  0  0  0  0  0
   11.7448   -1.7784   23.9891 C   0  0  0  0  0  0  0  0  0  0  0  0
   12.2262   -1.7664   21.5064 C   0  0  0  0  0  0  0  0  0  0  0  0
   11.1927   -1.4358   22.5957 C   0  0  0  0  0  0  0  0  0  0  0  0
   10.7384    0.0249   22.5145 C   0  0  0  0  0  0  0  0  0  0  0  0
    7.6169    0.4036   17.6088 N   0  0  0  0  0  0  0  0  0  0  0  0
    8.8223    0.1284   21.0965 N   0  0  0  0  0  0  0  0  0  0  0  0
   10.8981    0.8300   20.2500 O   0  0  0  0  0  0  0  0  0  0  0  0
   10.0242   -2.2303   22.3651 O   0  0  0  0  0  0  0  0  0  0  0  0
  1  2  2  0
  1  3  1  0
  2  6  1  0
  3  7  2  0
  4  5  2  0
  4  8  1  0
  5 10  1  0
  6 11  2  0
  7 11  1  0
  8 20  2  0
  9 10  2  0
  9 20  1  0
 10 21  1  0
 11 23  1  0
 12 19  1  0
 12 21  1  0
 12 22  2  0
 13 14  1  0
 13 15  1  0
 14 16  1  0
 15 17  1  0
 16 18  1  0
 17 18  1  0
 18 19  1  0
 18 23  1  0
M  END
