CHR-SOS-363cfb78-4
     RDKit          3D

 29 31  0  0  0  0  0  0  0  0999 V2000
    5.8900   -5.7815   21.2742 C   0  0  0  0  0  0  0  0  0  0  0  0
   12.7907    1.0515   24.3343 C   0  0  0  0  0  0  0  0  0  0  0  0
   11.6336    0.3928   24.7349 C   0  0  0  0  0  0  0  0  0  0  0  0
    5.9008   -2.1355   21.7051 C   0  0  0  0  0  0  0  0  0  0  0  0
    7.7472   -1.9232   20.1614 C   0  0  0  0  0  0  0  0  0  0  0  0
    5.2882   -1.0246   21.1252 C   0  0  0  0  0  0  0  0  0  0  0  0
    7.1346   -0.8123   19.5815 C   0  0  0  0  0  0  0  0  0  0  0  0
   13.4262    0.6061   23.1864 C   0  0  0  0  0  0  0  0  0  0  0  0
    5.5489   -5.9071   23.6860 C   0  0  0  0  0  0  0  0  0  0  0  0
   11.8627   -1.0440   22.8536 C   0  0  0  0  0  0  0  0  0  0  0  0
    6.6391   -4.5284   25.1655 C   0  0  0  0  0  0  0  0  0  0  0  0
    6.1744   -5.3223   22.5967 C   0  0  0  0  0  0  0  0  0  0  0  0
   11.1541   -0.6761   23.9860 C   0  0  0  0  0  0  0  0  0  0  0  0
    7.3159   -3.8793   24.1455 C   0  0  0  0  0  0  0  0  0  0  0  0
    7.1304   -2.5847   21.2232 C   0  0  0  0  0  0  0  0  0  0  0  0
    7.0734   -4.2898   22.8394 C   0  0  0  0  0  0  0  0  0  0  0  0
    5.9051   -0.3630   20.0634 C   0  0  0  0  0  0  0  0  0  0  0  0
    9.3694   -2.4556   23.7266 C   0  0  0  0  0  0  0  0  0  0  0  0
    5.6591   -6.1545   20.1998 N   0  0  0  0  0  0  0  0  0  0  0  0
   12.9904   -0.4284   22.4331 N   0  0  0  0  0  0  0  0  0  0  0  0
    5.7588   -5.5354   24.9687 N   0  0  0  0  0  0  0  0  0  0  0  0
    5.7890    2.2904   20.2884 N   0  0  0  0  0  0  0  0  0  0  0  0
    9.9795   -1.3660   24.3686 N   0  0  0  0  0  0  0  0  0  0  0  0
    8.2086   -2.8482   24.4374 N   0  0  0  0  0  0  0  0  0  0  0  0
    9.7757   -2.9934   22.7015 O   0  0  0  0  0  0  0  0  0  0  0  0
    5.6314    1.1650   17.9745 O   0  0  0  0  0  0  0  0  0  0  0  0
    3.7059    0.9479   19.5847 O   0  0  0  0  0  0  0  0  0  0  0  0
    7.7280   -3.6691   21.7888 O   0  0  0  0  0  0  0  0  0  0  0  0
    5.1387    1.0283   19.3379 S   0  0  0  0  0  0  0  0  0  0  0  0
  1 12  1  0
  1 19  3  0
  2  3  2  0
  2  8  1  0
  3 13  1  0
  4  6  2  0
  4 15  1  0
  5  7  1  0
  5 15  2  0
  6 17  1  0
  7 17  2  0
  8 20  2  0
  9 12  2  0
  9 21  1  0
 10 13  2  0
 10 20  1  0
 11 14  1  0
 11 21  2  0
 12 16  1  0
 13 23  1  0
 14 16  2  0
 14 24  1  0
 15 28  1  0
 16 28  1  0
 17 29  1  0
 18 23  1  0
 18 24  1  0
 18 25  2  0
 22 29  1  0
 26 29  2  0
 27 29  2  0
M  END
