CHR-GRO-51f79798-3
     RDKit          3D

 25 28  0  0  0  0  0  0  0  0999 V2000
    5.9308   -0.3511   20.0825 C   0  0  0  0  0  0  0  0  0  0  0  0
    8.2437   -0.0795   19.4389 C   0  0  0  0  0  0  0  0  0  0  0  0
    5.5281    0.2371   18.8836 C   0  0  0  0  0  0  0  0  0  0  0  0
    7.8410    0.5087   18.2400 C   0  0  0  0  0  0  0  0  0  0  0  0
    8.0557   -2.4950   23.2295 C   0  0  0  0  0  0  0  0  0  0  0  0
    7.2886   -0.5094   20.3602 C   0  0  0  0  0  0  0  0  0  0  0  0
    6.4832    0.6670   17.9623 C   0  0  0  0  0  0  0  0  0  0  0  0
    8.6286   -1.1984   23.4189 C   0  0  0  0  0  0  0  0  0  0  0  0
    7.3981   -2.3601   22.0135 C   0  0  0  0  0  0  0  0  0  0  0  0
    5.9962   -4.3295   21.5316 C   0  0  0  0  0  0  0  0  0  0  0  0
    5.9674   -4.7596   22.9694 C   0  0  0  0  0  0  0  0  0  0  0  0
    9.3139   -4.5202   26.8900 C   0  0  0  0  0  0  0  0  0  0  0  0
    7.8159   -4.3640   26.6586 C   0  0  0  0  0  0  0  0  0  0  0  0
   10.0523   -4.8809   25.6069 C   0  0  0  0  0  0  0  0  0  0  0  0
    7.5188   -3.3570   25.5446 C   0  0  0  0  0  0  0  0  0  0  0  0
    9.7516   -3.8856   24.4807 C   0  0  0  0  0  0  0  0  0  0  0  0
    8.2327   -3.6582   24.1973 C   0  0  0  0  0  0  0  0  0  0  0  0
    9.3947   -0.6675   24.5652 C   0  0  0  0  0  0  0  0  0  0  0  0
    4.6874    1.3710   16.5711 C   0  0  0  0  0  0  0  0  0  0  0  0
    8.4077   -0.3577   22.4118 N   0  0  0  0  0  0  0  0  0  0  0  0
    7.6928   -1.0998   21.5632 N   0  0  0  0  0  0  0  0  0  0  0  0
    6.6050   -3.1440   21.2041 N   0  0  0  0  0  0  0  0  0  0  0  0
    5.4134   -5.0048   20.6768 O   0  0  0  0  0  0  0  0  0  0  0  0
    6.0910    1.2403   16.7919 O   0  0  0  0  0  0  0  0  0  0  0  0
    7.6184   -5.2524   23.4781 S   0  0  0  0  0  0  0  0  0  0  0  0
  1  3  2  0
  1  6  1  0
  2  4  1  0
  2  6  2  0
  3  7  1  0
  4  7  2  0
  5  8  1  0
  5  9  2  0
  5 17  1  0
  6 21  1  0
  7 24  1  0
  8 18  1  0
  8 20  2  0
  9 21  1  0
  9 22  1  0
 10 11  1  0
 10 22  1  0
 10 23  2  0
 11 25  1  0
 12 13  1  0
 12 14  1  0
 13 15  1  0
 14 16  1  0
 15 17  1  0
 16 17  1  0
 17 25  1  0
 19 24  1  0
 20 21  1  0
M  END
