CHR-SOS-e960e883-6
     RDKit          3D

 25 27  0  0  0  0  0  0  0  0999 V2000
   11.6147    0.5475   21.7288 C   0  0  0  0  0  0  0  0  0  0  0  0
   10.4154    0.2430   22.3725 C   0  0  0  0  0  0  0  0  0  0  0  0
   12.7740   -0.1624   22.0417 C   0  0  0  0  0  0  0  0  0  0  0  0
    5.7399    1.5264   18.7858 C   0  0  0  0  0  0  0  0  0  0  0  0
   11.5345   -1.4812   23.6421 C   0  0  0  0  0  0  0  0  0  0  0  0
    6.5900    1.1883   17.7451 C   0  0  0  0  0  0  0  0  0  0  0  0
    7.7797   -0.2634   19.0700 C   0  0  0  0  0  0  0  0  0  0  0  0
   10.3752   -0.7713   23.3292 C   0  0  0  0  0  0  0  0  0  0  0  0
    5.9482    0.9199   20.0195 C   0  0  0  0  0  0  0  0  0  0  0  0
    6.9855    0.0068   20.1728 C   0  0  0  0  0  0  0  0  0  0  0  0
   12.7339   -1.1767   22.9984 C   0  0  0  0  0  0  0  0  0  0  0  0
    8.2358   -1.5642   21.6928 C   0  0  0  0  0  0  0  0  0  0  0  0
    7.8651   -0.8255   25.8954 C   0  0  0  0  0  0  0  0  0  0  0  0
    9.0960   -1.6743   25.5323 C   0  0  0  0  0  0  0  0  0  0  0  0
    8.2025    0.0767   24.6955 C   0  0  0  0  0  0  0  0  0  0  0  0
    8.9974   -1.1205   24.0691 C   0  0  0  0  0  0  0  0  0  0  0  0
    5.0470    1.2664   21.1590 C   0  0  0  0  0  0  0  0  0  0  0  0
    8.1440   -1.9987   23.1428 C   0  0  0  0  0  0  0  0  0  0  0  0
    7.6082    0.3059   17.8559 N   0  0  0  0  0  0  0  0  0  0  0  0
   14.8172   -1.1168   24.6600 N   0  0  0  0  0  0  0  0  0  0  0  0
    7.2377   -0.6369   21.4076 N   0  0  0  0  0  0  0  0  0  0  0  0
    9.0889   -2.0008   20.9271 O   0  0  0  0  0  0  0  0  0  0  0  0
   13.7969   -3.3659   23.9208 O   0  0  0  0  0  0  0  0  0  0  0  0
   15.0925   -1.9923   22.2528 O   0  0  0  0  0  0  0  0  0  0  0  0
   14.1842   -2.0668   23.3886 S   0  0  0  0  0  0  0  0  0  0  0  0
  1  2  2  0
  1  3  1  0
  2  8  1  0
  3 11  2  0
  4  6  2  0
  4  9  1  0
  5  8  2  0
  5 11  1  0
  6 19  1  0
  7 10  1  0
  7 19  2  0
  8 16  1  0
  9 10  2  0
  9 17  1  0
 10 21  1  0
 11 25  1  0
 12 18  1  0
 12 21  1  0
 12 22  2  0
 13 14  1  0
 13 15  1  0
 14 16  1  0
 15 16  1  0
 16 18  1  0
 20 25  1  0
 23 25  2  0
 24 25  2  0
M  END
