CHR-SOS-363cfb78-6
     RDKit          3D

 30 32  0  0  0  0  0  0  0  0999 V2000
    8.6718   -6.2250   26.7308 C   0  0  0  0  0  0  0  0  0  0  0  0
    8.7200   -0.8718   26.3836 C   0  0  0  0  0  0  0  0  0  0  0  0
    8.6218   -2.2429   26.1470 C   0  0  0  0  0  0  0  0  0  0  0  0
    9.5135   -0.0764   25.5568 C   0  0  0  0  0  0  0  0  0  0  0  0
    6.5331    0.4275   18.4254 C   0  0  0  0  0  0  0  0  0  0  0  0
   10.1105   -2.0234   24.2568 C   0  0  0  0  0  0  0  0  0  0  0  0
    6.1330   -0.4908   17.4681 C   0  0  0  0  0  0  0  0  0  0  0  0
    6.4086   -6.2782   25.8233 C   0  0  0  0  0  0  0  0  0  0  0  0
    6.3813   -2.2508   18.9238 C   0  0  0  0  0  0  0  0  0  0  0  0
    5.7232   -4.8965   24.1206 C   0  0  0  0  0  0  0  0  0  0  0  0
    7.6858   -5.7411   25.8175 C   0  0  0  0  0  0  0  0  0  0  0  0
    6.8677   -0.0515   19.6871 C   0  0  0  0  0  0  0  0  0  0  0  0
    6.7932   -1.4149   19.9492 C   0  0  0  0  0  0  0  0  0  0  0  0
    6.9682   -4.2945   24.0352 C   0  0  0  0  0  0  0  0  0  0  0  0
    9.3171   -2.8187   25.0836 C   0  0  0  0  0  0  0  0  0  0  0  0
    7.9628   -4.7307   24.9034 C   0  0  0  0  0  0  0  0  0  0  0  0
   10.2087   -0.6522   24.4934 C   0  0  0  0  0  0  0  0  0  0  0  0
    6.5987   -3.0989   21.8322 C   0  0  0  0  0  0  0  0  0  0  0  0
    7.3029    0.9164   20.7380 C   0  0  0  0  0  0  0  0  0  0  0  0
    9.4729   -6.6181   27.4729 N   0  0  0  0  0  0  0  0  0  0  0  0
    6.0482   -1.8224   17.6856 N   0  0  0  0  0  0  0  0  0  0  0  0
    5.4166   -5.8806   24.9954 N   0  0  0  0  0  0  0  0  0  0  0  0
   12.7014    0.2647   24.2686 N   0  0  0  0  0  0  0  0  0  0  0  0
    7.1227   -1.9509   21.2166 N   0  0  0  0  0  0  0  0  0  0  0  0
    7.1995   -3.2845   23.1016 N   0  0  0  0  0  0  0  0  0  0  0  0
    5.7465   -3.8371   21.3484 O   0  0  0  0  0  0  0  0  0  0  0  0
   11.3271   -0.3193   22.1671 O   0  0  0  0  0  0  0  0  0  0  0  0
   10.7058    1.7125   23.5212 O   0  0  0  0  0  0  0  0  0  0  0  0
    9.2220   -4.1569   24.8532 O   0  0  0  0  0  0  0  0  0  0  0  0
   11.1999    0.3442   23.4570 S   0  0  0  0  0  0  0  0  0  0  0  0
  1 11  1  0
  1 20  3  0
  2  3  2  0
  2  4  1  0
  3 15  1  0
  4 17  2  0
  5  7  2  0
  5 12  1  0
  6 15  2  0
  6 17  1  0
  7 21  1  0
  8 11  2  0
  8 22  1  0
  9 13  1  0
  9 21  2  0
 10 14  1  0
 10 22  2  0
 11 16  1  0
 12 13  2  0
 12 19  1  0
 13 24  1  0
 14 16  2  0
 14 25  1  0
 15 29  1  0
 16 29  1  0
 17 30  1  0
 18 24  1  0
 18 25  1  0
 18 26  2  0
 23 30  1  0
 27 30  2  0
 28 30  2  0
M  END
