CHR-SOS-6c45c019-7
     RDKit          3D

 23 25  0  0  0  0  0  0  0  0999 V2000
   10.6184   -2.2419   23.3324 C   0  0  0  0  0  0  0  0  0  0  0  0
    9.4832   -2.6340   23.3143 C   0  0  0  0  0  0  0  0  0  0  0  0
   14.3163   -2.1274   23.5316 C   0  0  0  0  0  0  0  0  0  0  0  0
   14.5018   -0.7572   23.3846 C   0  0  0  0  0  0  0  0  0  0  0  0
   13.0297   -2.6545   23.5181 C   0  0  0  0  0  0  0  0  0  0  0  0
    5.1451    1.6926   18.5569 C   0  0  0  0  0  0  0  0  0  0  0  0
   13.3769    0.0365   23.2282 C   0  0  0  0  0  0  0  0  0  0  0  0
    6.0466    1.4037   17.5452 C   0  0  0  0  0  0  0  0  0  0  0  0
    7.1396   -0.1477   18.8401 C   0  0  0  0  0  0  0  0  0  0  0  0
   11.9707   -1.7758   23.3560 C   0  0  0  0  0  0  0  0  0  0  0  0
    5.2757    1.0081   19.7601 C   0  0  0  0  0  0  0  0  0  0  0  0
    6.2895    0.0688   19.9126 C   0  0  0  0  0  0  0  0  0  0  0  0
    7.4318   -1.6187   21.4053 C   0  0  0  0  0  0  0  0  0  0  0  0
    6.8812   -4.7837   23.8228 C   0  0  0  0  0  0  0  0  0  0  0  0
    7.9044   -4.5239   22.6992 C   0  0  0  0  0  0  0  0  0  0  0  0
    7.5818   -3.6757   24.6343 C   0  0  0  0  0  0  0  0  0  0  0  0
    8.1189   -3.1058   23.2936 C   0  0  0  0  0  0  0  0  0  0  0  0
    4.3178    1.3003   20.8681 C   0  0  0  0  0  0  0  0  0  0  0  0
    7.0440    0.4979   17.6562 N   0  0  0  0  0  0  0  0  0  0  0  0
   12.1116   -0.4392   23.2101 N   0  0  0  0  0  0  0  0  0  0  0  0
    6.4632   -0.6534   21.1163 N   0  0  0  0  0  0  0  0  0  0  0  0
    7.2538   -2.0843   22.7011 N   0  0  0  0  0  0  0  0  0  0  0  0
    8.3175   -2.0161   20.6522 O   0  0  0  0  0  0  0  0  0  0  0  0
  1  2  3  0
  1 10  1  0
  2 17  1  0
  3  4  2  0
  3  5  1  0
  4  7  1  0
  5 10  2  0
  6  8  2  0
  6 11  1  0
  7 20  2  0
  8 19  1  0
  9 12  1  0
  9 19  2  0
 10 20  1  0
 11 12  2  0
 11 18  1  0
 12 21  1  0
 13 21  1  0
 13 22  1  0
 13 23  2  0
 14 15  1  0
 14 16  1  0
 15 17  1  0
 16 17  1  0
 17 22  1  0
M  END
