CHR-SOS-70e4c98a-7
     RDKit          3D

 24 26  0  0  0  0  0  0  0  0999 V2000
   11.4483    1.7512   22.1403 C   0  0  0  0  0  0  0  0  0  0  0  0
    5.9883    1.1287   19.2972 C   0  0  0  0  0  0  0  0  0  0  0  0
    6.5509    0.5869   20.4475 C   0  0  0  0  0  0  0  0  0  0  0  0
   10.4594    1.6156   23.1147 C   0  0  0  0  0  0  0  0  0  0  0  0
   12.5581    0.9062   22.1506 C   0  0  0  0  0  0  0  0  0  0  0  0
   11.6902   -0.2098   24.1098 C   0  0  0  0  0  0  0  0  0  0  0  0
    6.5765    0.8216   18.0809 C   0  0  0  0  0  0  0  0  0  0  0  0
    8.1817   -0.4802   19.0843 C   0  0  0  0  0  0  0  0  0  0  0  0
    7.6688   -0.2339   20.3477 C   0  0  0  0  0  0  0  0  0  0  0  0
   10.5804    0.6352   24.0994 C   0  0  0  0  0  0  0  0  0  0  0  0
   12.6790   -0.0742   23.1353 C   0  0  0  0  0  0  0  0  0  0  0  0
    7.8640   -0.6443   22.8247 C   0  0  0  0  0  0  0  0  0  0  0  0
    7.8824   -0.9083   26.1624 C   0  0  0  0  0  0  0  0  0  0  0  0
    9.2055   -1.6011   26.3353 C   0  0  0  0  0  0  0  0  0  0  0  0
    8.9474   -0.7687   25.1086 C   0  0  0  0  0  0  0  0  0  0  0  0
    8.7739   -1.4231   23.7802 C   0  0  0  0  0  0  0  0  0  0  0  0
    7.6626    0.0283   17.9443 N   0  0  0  0  0  0  0  0  0  0  0  0
   13.5052   -2.4167   22.1682 N   0  0  0  0  0  0  0  0  0  0  0  0
    8.2637   -0.7996   21.5004 N   0  0  0  0  0  0  0  0  0  0  0  0
    6.9181    0.0132   23.2458 O   0  0  0  0  0  0  0  0  0  0  0  0
   15.1619   -0.4631   22.4589 O   0  0  0  0  0  0  0  0  0  0  0  0
   14.2599   -1.6291   24.5021 O   0  0  0  0  0  0  0  0  0  0  0  0
    9.6144    0.5032   25.0525 O   0  0  0  0  0  0  0  0  0  0  0  0
   14.0674   -1.1336   23.1464 S   0  0  0  0  0  0  0  0  0  0  0  0
  1  4  2  0
  1  5  1  0
  2  3  2  0
  2  7  1  0
  3  9  1  0
  4 10  1  0
  5 11  2  0
  6 10  2  0
  6 11  1  0
  7 17  2  0
  8  9  2  0
  8 17  1  0
  9 19  1  0
 10 23  1  0
 11 24  1  0
 12 16  1  0
 12 19  1  0
 12 20  2  0
 13 14  1  0
 13 15  1  0
 14 15  1  0
 15 16  1  0
 15 23  1  0
 18 24  1  0
 21 24  2  0
 22 24  2  0
M  END
