CHR-SOS-7098f804-13
     RDKit          3D

 23 25  0  0  0  0  0  0  0  0999 V2000
    6.6557   -4.8532   27.1360 C   0  0  0  0  0  0  0  0  0  0  0  0
    6.1721   -3.5448   27.1430 C   0  0  0  0  0  0  0  0  0  0  0  0
    7.7767   -5.1783   26.3722 C   0  0  0  0  0  0  0  0  0  0  0  0
    4.5112    1.0401   18.8086 C   0  0  0  0  0  0  0  0  0  0  0  0
    6.8095   -2.5616   26.3863 C   0  0  0  0  0  0  0  0  0  0  0  0
    8.4141   -4.1951   25.6155 C   0  0  0  0  0  0  0  0  0  0  0  0
    5.1438    0.7482   20.0119 C   0  0  0  0  0  0  0  0  0  0  0  0
    9.6225   -1.1273   25.4176 C   0  0  0  0  0  0  0  0  0  0  0  0
    9.8913    0.1110   23.3606 C   0  0  0  0  0  0  0  0  0  0  0  0
    5.2514    0.9272   17.6427 C   0  0  0  0  0  0  0  0  0  0  0  0
    7.1303    0.2753   18.7927 C   0  0  0  0  0  0  0  0  0  0  0  0
    7.9305   -2.8867   25.6225 C   0  0  0  0  0  0  0  0  0  0  0  0
    8.5915   -1.8666   24.8379 C   0  0  0  0  0  0  0  0  0  0  0  0
    8.8603   -0.6283   22.7808 C   0  0  0  0  0  0  0  0  0  0  0  0
    6.4783    0.3579   20.0125 C   0  0  0  0  0  0  0  0  0  0  0  0
    8.2104   -1.6171   23.5195 C   0  0  0  0  0  0  0  0  0  0  0  0
   10.2723   -0.1384   24.6790 C   0  0  0  0  0  0  0  0  0  0  0  0
    8.4812   -0.3509   21.4020 C   0  0  0  0  0  0  0  0  0  0  0  0
    6.5492    0.5510   17.6036 N   0  0  0  0  0  0  0  0  0  0  0  0
    7.1504    0.0541   21.2233 N   0  0  0  0  0  0  0  0  0  0  0  0
    9.2782   -0.5012   20.4671 O   0  0  0  0  0  0  0  0  0  0  0  0
    7.2012   -2.3356   22.9448 O   0  0  0  0  0  0  0  0  0  0  0  0
   11.5408    0.7775   25.3964 Cl  0  0  0  0  0  0  0  0  0  0  0  0
  1  2  2  0
  1  3  1  0
  2  5  1  0
  3  6  2  0
  4  7  2  0
  4 10  1  0
  5 12  2  0
  6 12  1  0
  7 15  1  0
  8 13  2  0
  8 17  1  0
  9 14  1  0
  9 17  2  0
 10 19  2  0
 11 15  2  0
 11 19  1  0
 12 13  1  0
 13 16  1  0
 14 16  2  0
 14 18  1  0
 15 20  1  0
 16 22  1  0
 17 23  1  0
 18 20  1  0
 18 21  2  0
M  END
