CHR-SOS-6c45c019-3
     RDKit          3D

 25 27  0  0  0  0  0  0  0  0999 V2000
   11.4680   -1.7455   23.5079 C   0  0  0  0  0  0  0  0  0  0  0  0
   10.3568   -2.1561   23.7061 C   0  0  0  0  0  0  0  0  0  0  0  0
    5.4313    1.4265   18.9569 C   0  0  0  0  0  0  0  0  0  0  0  0
    6.2052    0.9824   17.8969 C   0  0  0  0  0  0  0  0  0  0  0  0
   13.5318   -0.6353   24.2583 C   0  0  0  0  0  0  0  0  0  0  0  0
   13.4086   -1.3676   22.0436 C   0  0  0  0  0  0  0  0  0  0  0  0
    7.4576   -0.3751   19.2633 C   0  0  0  0  0  0  0  0  0  0  0  0
   15.2730   -0.3312   22.8291 C   0  0  0  0  0  0  0  0  0  0  0  0
   12.7907   -1.2542   23.2722 C   0  0  0  0  0  0  0  0  0  0  0  0
    5.7115    0.9239   20.2227 C   0  0  0  0  0  0  0  0  0  0  0  0
    6.7425    0.0055   20.3874 C   0  0  0  0  0  0  0  0  0  0  0  0
    8.0687   -1.4582   21.9620 C   0  0  0  0  0  0  0  0  0  0  0  0
    7.3389   -4.8134   25.1982 C   0  0  0  0  0  0  0  0  0  0  0  0
    7.5261   -4.7422   23.6870 C   0  0  0  0  0  0  0  0  0  0  0  0
    7.4384   -3.4354   25.8423 C   0  0  0  0  0  0  0  0  0  0  0  0
    8.8415   -4.0565   23.3150 C   0  0  0  0  0  0  0  0  0  0  0  0
    8.7431   -2.7276   25.4718 C   0  0  0  0  0  0  0  0  0  0  0  0
    8.9893   -2.6604   23.9503 C   0  0  0  0  0  0  0  0  0  0  0  0
    4.8933    1.3858   21.3836 C   0  0  0  0  0  0  0  0  0  0  0  0
    7.2147    0.0914   18.0178 N   0  0  0  0  0  0  0  0  0  0  0  0
   14.7805   -0.1602   24.0707 N   0  0  0  0  0  0  0  0  0  0  0  0
   14.6534   -0.9155   21.7859 N   0  0  0  0  0  0  0  0  0  0  0  0
    7.0658   -0.5347   21.6540 N   0  0  0  0  0  0  0  0  0  0  0  0
    8.0597   -1.7345   23.3288 N   0  0  0  0  0  0  0  0  0  0  0  0
    8.8590   -1.9715   21.1736 O   0  0  0  0  0  0  0  0  0  0  0  0
  1  2  3  0
  1  9  1  0
  2 18  1  0
  3  4  2  0
  3 10  1  0
  4 20  1  0
  5  9  2  0
  5 21  1  0
  6  9  1  0
  6 22  2  0
  7 11  1  0
  7 20  2  0
  8 21  2  0
  8 22  1  0
 10 11  2  0
 10 19  1  0
 11 23  1  0
 12 23  1  0
 12 24  1  0
 12 25  2  0
 13 14  1  0
 13 15  1  0
 14 16  1  0
 15 17  1  0
 16 18  1  0
 17 18  1  0
 18 24  1  0
M  END
