CHR-SOS-7098f804-19
     RDKit          3D

 27 29  0  0  0  0  0  0  0  0999 V2000
    5.6907    0.9394   18.9037 C   0  0  0  0  0  0  0  0  0  0  0  0
    6.4705    0.6847   20.0263 C   0  0  0  0  0  0  0  0  0  0  0  0
    8.7750   -3.7119   24.7507 C   0  0  0  0  0  0  0  0  0  0  0  0
    7.1100   -2.3837   25.8912 C   0  0  0  0  0  0  0  0  0  0  0  0
    7.8189   -4.6963   24.5011 C   0  0  0  0  0  0  0  0  0  0  0  0
    6.1538   -3.3681   25.6415 C   0  0  0  0  0  0  0  0  0  0  0  0
    9.6622   -0.9958   23.3967 C   0  0  0  0  0  0  0  0  0  0  0  0
   11.8732   -0.4836   22.5686 C   0  0  0  0  0  0  0  0  0  0  0  0
   11.5597   -1.0746   24.8901 C   0  0  0  0  0  0  0  0  0  0  0  0
    6.2749    0.7773   17.6578 C   0  0  0  0  0  0  0  0  0  0  0  0
    8.2822    0.1486   18.5818 C   0  0  0  0  0  0  0  0  0  0  0  0
   10.5037   -0.6280   22.3468 C   0  0  0  0  0  0  0  0  0  0  0  0
    7.7921    0.2814   19.8709 C   0  0  0  0  0  0  0  0  0  0  0  0
    8.4206   -2.5556   25.4458 C   0  0  0  0  0  0  0  0  0  0  0  0
   10.1902   -1.2190   24.6683 C   0  0  0  0  0  0  0  0  0  0  0  0
    6.5083   -4.5244   24.9464 C   0  0  0  0  0  0  0  0  0  0  0  0
   12.4013   -0.7069   23.8402 C   0  0  0  0  0  0  0  0  0  0  0  0
    9.9535   -0.3971   21.0204 C   0  0  0  0  0  0  0  0  0  0  0  0
    7.5551    0.3871   17.4672 N   0  0  0  0  0  0  0  0  0  0  0  0
    5.4823   -6.7354   26.0250 N   0  0  0  0  0  0  0  0  0  0  0  0
    8.6120    0.0147   20.9964 N   0  0  0  0  0  0  0  0  0  0  0  0
   10.6226   -0.5885   19.9956 O   0  0  0  0  0  0  0  0  0  0  0  0
    3.9950   -5.1349   24.6569 O   0  0  0  0  0  0  0  0  0  0  0  0
    5.7297   -6.5236   23.4695 O   0  0  0  0  0  0  0  0  0  0  0  0
    9.3697   -1.5781   25.6933 O   0  0  0  0  0  0  0  0  0  0  0  0
    5.3113   -5.7571   24.6348 S   0  0  0  0  0  0  0  0  0  0  0  0
   14.0905   -0.5274   24.1148 Cl  0  0  0  0  0  0  0  0  0  0  0  0
  1  2  2  0
  1 10  1  0
  2 13  1  0
  3  5  2  0
  3 14  1  0
  4  6  1  0
  4 14  2  0
  5 16  1  0
  6 16  2  0
  7 12  2  0
  7 15  1  0
  8 12  1  0
  8 17  2  0
  9 15  2  0
  9 17  1  0
 10 19  2  0
 11 13  2  0
 11 19  1  0
 12 18  1  0
 13 21  1  0
 14 25  1  0
 15 25  1  0
 16 26  1  0
 17 27  1  0
 18 21  1  0
 18 22  2  0
 20 26  1  0
 23 26  2  0
 24 26  2  0
M  END
