CHR-SOS-54d5cf3e-8
     RDKit          3D

 24 26  0  0  0  0  0  0  0  0999 V2000
   10.4386   -2.1450   23.2632 C   0  0  0  0  0  0  0  0  0  0  0  0
   11.3256   -1.3550   23.0850 C   0  0  0  0  0  0  0  0  0  0  0  0
    6.3389   -0.3648   20.0156 C   0  0  0  0  0  0  0  0  0  0  0  0
    7.3541   -0.1256   20.9350 C   0  0  0  0  0  0  0  0  0  0  0  0
    8.7132   -3.4004   24.6723 C   0  0  0  0  0  0  0  0  0  0  0  0
    6.6510   -0.2810   18.6683 C   0  0  0  0  0  0  0  0  0  0  0  0
    8.8420    0.2447   19.1170 C   0  0  0  0  0  0  0  0  0  0  0  0
    9.3834   -3.0875   23.4744 C   0  0  0  0  0  0  0  0  0  0  0  0
    8.6325    0.1857   20.4853 C   0  0  0  0  0  0  0  0  0  0  0  0
    7.8012   -4.3629   24.3142 C   0  0  0  0  0  0  0  0  0  0  0  0
   11.0074    0.7556   21.0992 C   0  0  0  0  0  0  0  0  0  0  0  0
   14.9571   -1.8093   23.5528 C   0  0  0  0  0  0  0  0  0  0  0  0
   14.0060   -1.3330   24.6449 C   0  0  0  0  0  0  0  0  0  0  0  0
   14.2168   -2.1105   22.2546 C   0  0  0  0  0  0  0  0  0  0  0  0
   13.1767   -0.1309   24.1875 C   0  0  0  0  0  0  0  0  0  0  0  0
   13.3884   -0.9124   21.7851 C   0  0  0  0  0  0  0  0  0  0  0  0
   12.4206   -0.3811   22.8647 C   0  0  0  0  0  0  0  0  0  0  0  0
    6.7977   -5.1046   25.0948 C   0  0  0  0  0  0  0  0  0  0  0  0
   11.7929    0.9372   22.3805 C   0  0  0  0  0  0  0  0  0  0  0  0
    7.8808    0.0186   18.1936 N   0  0  0  0  0  0  0  0  0  0  0  0
    8.9354   -3.7942   22.4333 N   0  0  0  0  0  0  0  0  0  0  0  0
    7.9740   -4.5606   22.9759 N   0  0  0  0  0  0  0  0  0  0  0  0
    9.6861    0.4345   21.3968 N   0  0  0  0  0  0  0  0  0  0  0  0
   11.5114    0.8848   19.9884 O   0  0  0  0  0  0  0  0  0  0  0  0
  1  2  3  0
  1  8  1  0
  2 17  1  0
  3  4  2  0
  3  6  1  0
  4  9  1  0
  5  8  1  0
  5 10  2  0
  6 20  2  0
  7  9  2  0
  7 20  1  0
  8 21  2  0
  9 23  1  0
 10 18  1  0
 10 22  1  0
 11 19  1  0
 11 23  1  0
 11 24  2  0
 12 13  1  0
 12 14  1  0
 13 15  1  0
 14 16  1  0
 15 17  1  0
 16 17  1  0
 17 19  1  0
 21 22  1  0
M  END
