CHR-SOS-7098f804-16
     RDKit          3D

 23 25  0  0  0  0  0  0  0  0999 V2000
   14.7503   -1.6328   23.0470 C   0  0  0  0  0  0  0  0  0  0  0  0
   13.8330   -1.7651   22.0046 C   0  0  0  0  0  0  0  0  0  0  0  0
   14.4214   -0.8799   24.1742 C   0  0  0  0  0  0  0  0  0  0  0  0
    5.3319    1.5287   18.7013 C   0  0  0  0  0  0  0  0  0  0  0  0
    5.7675    1.1421   19.9638 C   0  0  0  0  0  0  0  0  0  0  0  0
   12.5868   -1.1443   22.0893 C   0  0  0  0  0  0  0  0  0  0  0  0
   13.1752   -0.2591   24.2589 C   0  0  0  0  0  0  0  0  0  0  0  0
   10.1230   -0.9129   25.1840 C   0  0  0  0  0  0  0  0  0  0  0  0
    9.0878   -1.6331   25.7798 C   0  0  0  0  0  0  0  0  0  0  0  0
    7.8077   -1.4841   23.7362 C   0  0  0  0  0  0  0  0  0  0  0  0
    6.0649    1.1052   17.6044 C   0  0  0  0  0  0  0  0  0  0  0  0
    7.5692   -0.0163   18.9302 C   0  0  0  0  0  0  0  0  0  0  0  0
    8.8430   -0.7637   23.1403 C   0  0  0  0  0  0  0  0  0  0  0  0
    6.9068    0.3549   20.0892 C   0  0  0  0  0  0  0  0  0  0  0  0
   12.2578   -0.3913   23.2165 C   0  0  0  0  0  0  0  0  0  0  0  0
   10.0006   -0.4781   23.8642 C   0  0  0  0  0  0  0  0  0  0  0  0
    7.9301   -1.9188   25.0560 C   0  0  0  0  0  0  0  0  0  0  0  0
    8.6943   -0.3170   21.7622 C   0  0  0  0  0  0  0  0  0  0  0  0
    7.1763    0.3399   17.6866 N   0  0  0  0  0  0  0  0  0  0  0  0
    7.3755   -0.0549   21.3629 N   0  0  0  0  0  0  0  0  0  0  0  0
    9.6675   -0.2158   21.0039 O   0  0  0  0  0  0  0  0  0  0  0  0
   11.0222    0.2262   23.3004 O   0  0  0  0  0  0  0  0  0  0  0  0
    6.6537   -2.8093   25.7905 Cl  0  0  0  0  0  0  0  0  0  0  0  0
  1  2  2  0
  1  3  1  0
  2  6  1  0
  3  7  2  0
  4  5  2  0
  4 11  1  0
  5 14  1  0
  6 15  2  0
  7 15  1  0
  8  9  2  0
  8 16  1  0
  9 17  1  0
 10 13  1  0
 10 17  2  0
 11 19  2  0
 12 14  2  0
 12 19  1  0
 13 16  2  0
 13 18  1  0
 14 20  1  0
 15 22  1  0
 16 22  1  0
 17 23  1  0
 18 20  1  0
 18 21  2  0
M  END
