CHR-SOS-363cfb78-3
     RDKit          3D

 25 27  0  0  0  0  0  0  0  0999 V2000
    6.0449   -3.5796   19.7001 C   0  0  0  0  0  0  0  0  0  0  0  0
    5.3449    1.0170   19.2825 C   0  0  0  0  0  0  0  0  0  0  0  0
    5.2761    0.6177   20.6172 C   0  0  0  0  0  0  0  0  0  0  0  0
    6.3100    0.4669   18.4388 C   0  0  0  0  0  0  0  0  0  0  0  0
   13.4599    1.0950   21.9246 C   0  0  0  0  0  0  0  0  0  0  0  0
   12.3530    0.2797   22.1326 C   0  0  0  0  0  0  0  0  0  0  0  0
    6.1723   -0.3316   21.1083 C   0  0  0  0  0  0  0  0  0  0  0  0
    7.2062   -0.4825   18.9299 C   0  0  0  0  0  0  0  0  0  0  0  0
   14.0116    1.7326   23.0241 C   0  0  0  0  0  0  0  0  0  0  0  0
    6.0740   -4.6928   21.8701 C   0  0  0  0  0  0  0  0  0  0  0  0
   12.4632    0.8097   24.4485 C   0  0  0  0  0  0  0  0  0  0  0  0
    7.4263   -4.0078   23.5965 C   0  0  0  0  0  0  0  0  0  0  0  0
    6.5450   -3.6938   21.0333 C   0  0  0  0  0  0  0  0  0  0  0  0
   11.8389    0.1290   23.4157 C   0  0  0  0  0  0  0  0  0  0  0  0
    7.9608   -2.9769   22.8405 C   0  0  0  0  0  0  0  0  0  0  0  0
    7.1374   -0.8818   20.2646 C   0  0  0  0  0  0  0  0  0  0  0  0
    7.5063   -2.8237   21.5355 C   0  0  0  0  0  0  0  0  0  0  0  0
    9.9742   -1.4430   22.7296 C   0  0  0  0  0  0  0  0  0  0  0  0
    5.6387   -3.4869   18.6170 N   0  0  0  0  0  0  0  0  0  0  0  0
   13.5401    1.6105   24.2852 N   0  0  0  0  0  0  0  0  0  0  0  0
    6.4914   -4.8728   23.1433 N   0  0  0  0  0  0  0  0  0  0  0  0
   10.7135   -0.6936   23.6586 N   0  0  0  0  0  0  0  0  0  0  0  0
    8.9232   -2.1285   23.3872 N   0  0  0  0  0  0  0  0  0  0  0  0
   10.1992   -1.5007   21.5249 O   0  0  0  0  0  0  0  0  0  0  0  0
    8.0131   -1.8069   20.7437 O   0  0  0  0  0  0  0  0  0  0  0  0
  1 13  1  0
  1 19  3  0
  2  3  2  0
  2  4  1  0
  3  7  1  0
  4  8  2  0
  5  6  2  0
  5  9  1  0
  6 14  1  0
  7 16  2  0
  8 16  1  0
  9 20  2  0
 10 13  2  0
 10 21  1  0
 11 14  2  0
 11 20  1  0
 12 15  1  0
 12 21  2  0
 13 17  1  0
 14 22  1  0
 15 17  2  0
 15 23  1  0
 16 25  1  0
 17 25  1  0
 18 22  1  0
 18 23  1  0
 18 24  2  0
M  END
