CHR-SOS-6c45c019-16
     RDKit          3D

 22 24  0  0  0  0  0  0  0  0999 V2000
   12.4070    0.3540   23.6798 C   0  0  0  0  0  0  0  0  0  0  0  0
   11.6869    1.3147   23.6451 C   0  0  0  0  0  0  0  0  0  0  0  0
    5.4892    0.5698   18.8889 C   0  0  0  0  0  0  0  0  0  0  0  0
    6.3690    0.2575   17.8650 C   0  0  0  0  0  0  0  0  0  0  0  0
    8.1959    0.7925   19.1512 C   0  0  0  0  0  0  0  0  0  0  0  0
   13.1516   -1.9553   23.0031 C   0  0  0  0  0  0  0  0  0  0  0  0
   14.9100   -1.9965   24.3309 C   0  0  0  0  0  0  0  0  0  0  0  0
   13.2664   -0.7889   23.7220 C   0  0  0  0  0  0  0  0  0  0  0  0
    6.0234    1.0138   20.0933 C   0  0  0  0  0  0  0  0  0  0  0  0
    7.4017    1.1302   20.2352 C   0  0  0  0  0  0  0  0  0  0  0  0
    9.3529    1.7400   21.7189 C   0  0  0  0  0  0  0  0  0  0  0  0
   11.4795    3.8121   23.3807 C   0  0  0  0  0  0  0  0  0  0  0  0
   10.9483    3.4627   24.7364 C   0  0  0  0  0  0  0  0  0  0  0  0
   10.8254    2.4655   23.6042 C   0  0  0  0  0  0  0  0  0  0  0  0
    5.0979    1.3581   21.2138 C   0  0  0  0  0  0  0  0  0  0  0  0
   14.5355   -4.0441   22.9352 C   0  0  0  0  0  0  0  0  0  0  0  0
    7.7134    0.3578   17.9655 N   0  0  0  0  0  0  0  0  0  0  0  0
   14.3632   -0.8207   24.5464 N   0  0  0  0  0  0  0  0  0  0  0  0
   14.2117   -2.7189   23.4036 N   0  0  0  0  0  0  0  0  0  0  0  0
    7.9932    1.5766   21.4399 N   0  0  0  0  0  0  0  0  0  0  0  0
    9.5441    2.2054   23.0350 N   0  0  0  0  0  0  0  0  0  0  0  0
   10.2891    1.5211   20.9539 O   0  0  0  0  0  0  0  0  0  0  0  0
  1  2  3  0
  1  8  1  0
  2 14  1  0
  3  4  2  0
  3  9  1  0
  4 17  1  0
  5 10  1  0
  5 17  2  0
  6  8  2  0
  6 19  1  0
  7 18  2  0
  7 19  1  0
  8 18  1  0
  9 10  2  0
  9 15  1  0
 10 20  1  0
 11 20  1  0
 11 21  1  0
 11 22  2  0
 12 13  1  0
 12 14  1  0
 13 14  1  0
 14 21  1  0
 16 19  1  0
M  END
