CHR-SOS-54d5cf3e-5
     RDKit          3D

 25 27  0  0  0  0  0  0  0  0999 V2000
    9.2534   -2.1772   24.4993 C   0  0  0  0  0  0  0  0  0  0  0  0
   10.1757   -1.5942   23.9971 C   0  0  0  0  0  0  0  0  0  0  0  0
    6.0558    0.2667   19.7120 C   0  0  0  0  0  0  0  0  0  0  0  0
    7.1135    0.3422   20.6113 C   0  0  0  0  0  0  0  0  0  0  0  0
    8.1210   -3.1269   26.4540 C   0  0  0  0  0  0  0  0  0  0  0  0
    6.3561    0.0898   18.3709 C   0  0  0  0  0  0  0  0  0  0  0  0
    7.0061   -3.8030   26.9060 C   0  0  0  0  0  0  0  0  0  0  0  0
    8.6151    0.0642   18.7881 C   0  0  0  0  0  0  0  0  0  0  0  0
    8.1545   -2.8697   25.0987 C   0  0  0  0  0  0  0  0  0  0  0  0
    8.4207    0.2400   20.1487 C   0  0  0  0  0  0  0  0  0  0  0  0
    6.1456   -3.8917   24.8039 C   0  0  0  0  0  0  0  0  0  0  0  0
    9.4795    0.4861   22.4203 C   0  0  0  0  0  0  0  0  0  0  0  0
   14.2325   -0.9907   22.5451 C   0  0  0  0  0  0  0  0  0  0  0  0
   13.8033   -0.1912   23.7702 C   0  0  0  0  0  0  0  0  0  0  0  0
   13.1218   -1.0630   21.5035 C   0  0  0  0  0  0  0  0  0  0  0  0
   12.5087   -0.7372   24.3766 C   0  0  0  0  0  0  0  0  0  0  0  0
   11.8238   -1.6136   22.0985 C   0  0  0  0  0  0  0  0  0  0  0  0
   11.3565   -0.8465   23.3544 C   0  0  0  0  0  0  0  0  0  0  0  0
   10.8881    0.5072   22.9745 C   0  0  0  0  0  0  0  0  0  0  0  0
    7.6130   -0.0137   17.8841 N   0  0  0  0  0  0  0  0  0  0  0  0
    5.9957   -4.2018   26.1058 N   0  0  0  0  0  0  0  0  0  0  0  0
    7.1806   -3.2392   24.2412 N   0  0  0  0  0  0  0  0  0  0  0  0
    5.1068   -4.2940   23.9361 N   0  0  0  0  0  0  0  0  0  0  0  0
    9.5178    0.3134   21.0396 N   0  0  0  0  0  0  0  0  0  0  0  0
    8.4860    0.6075   23.1293 O   0  0  0  0  0  0  0  0  0  0  0  0
  1  2  3  0
  1  9  1  0
  2 18  1  0
  3  4  2  0
  3  6  1  0
  4 10  1  0
  5  7  2  0
  5  9  1  0
  6 20  2  0
  7 21  1  0
  8 10  2  0
  8 20  1  0
  9 22  2  0
 10 24  1  0
 11 21  2  0
 11 22  1  0
 11 23  1  0
 12 19  1  0
 12 24  1  0
 12 25  2  0
 13 14  1  0
 13 15  1  0
 14 16  1  0
 15 17  1  0
 16 18  1  0
 17 18  1  0
 18 19  1  0
M  END
