CHR-SOS-70e4c98a-11
     RDKit          3D

 24 26  0  0  0  0  0  0  0  0999 V2000
    6.1024   -0.2483   19.8067 C   0  0  0  0  0  0  0  0  0  0  0  0
    6.9346    0.0357   20.8838 C   0  0  0  0  0  0  0  0  0  0  0  0
   10.9433   -2.0629   22.6165 C   0  0  0  0  0  0  0  0  0  0  0  0
    9.7376   -1.5295   24.6410 C   0  0  0  0  0  0  0  0  0  0  0  0
    9.9021   -2.9007   22.2171 C   0  0  0  0  0  0  0  0  0  0  0  0
    8.6963   -2.3673   24.2416 C   0  0  0  0  0  0  0  0  0  0  0  0
    6.6125   -0.0764   18.5300 C   0  0  0  0  0  0  0  0  0  0  0  0
    8.6480    0.6158   19.3398 C   0  0  0  0  0  0  0  0  0  0  0  0
    8.2332    0.4766   20.6545 C   0  0  0  0  0  0  0  0  0  0  0  0
   10.8611   -1.3773   23.8285 C   0  0  0  0  0  0  0  0  0  0  0  0
    8.7786   -3.0529   23.0296 C   0  0  0  0  0  0  0  0  0  0  0  0
   10.4196    1.2211   21.6581 C   0  0  0  0  0  0  0  0  0  0  0  0
   13.2040    0.2642   22.2717 C   0  0  0  0  0  0  0  0  0  0  0  0
   13.5666    1.1178   23.4551 C   0  0  0  0  0  0  0  0  0  0  0  0
   12.1822    0.5393   23.3415 C   0  0  0  0  0  0  0  0  0  0  0  0
   11.0192    1.4266   23.0530 C   0  0  0  0  0  0  0  0  0  0  0  0
    7.8684    0.3498   18.2678 N   0  0  0  0  0  0  0  0  0  0  0  0
    6.4941   -3.0097   21.6571 N   0  0  0  0  0  0  0  0  0  0  0  0
    9.1034    0.7737   21.7302 N   0  0  0  0  0  0  0  0  0  0  0  0
   11.0771    1.4439   20.6469 O   0  0  0  0  0  0  0  0  0  0  0  0
    8.0116   -5.0930   21.6073 O   0  0  0  0  0  0  0  0  0  0  0  0
    6.7507   -4.5363   23.7164 O   0  0  0  0  0  0  0  0  0  0  0  0
   11.8787   -0.5580   24.2188 O   0  0  0  0  0  0  0  0  0  0  0  0
    7.4754   -4.1024   22.5302 S   0  0  0  0  0  0  0  0  0  0  0  0
  1  2  2  0
  1  7  1  0
  2  9  1  0
  3  5  2  0
  3 10  1  0
  4  6  1  0
  4 10  2  0
  5 11  1  0
  6 11  2  0
  7 17  2  0
  8  9  2  0
  8 17  1  0
  9 19  1  0
 10 23  1  0
 11 24  1  0
 12 16  1  0
 12 19  1  0
 12 20  2  0
 13 14  1  0
 13 15  1  0
 14 15  1  0
 15 16  1  0
 15 23  1  0
 18 24  1  0
 21 24  2  0
 22 24  2  0
M  END
