CHR-SOS-70e4c98a-12
     RDKit          3D

 27 29  0  0  0  0  0  0  0  0999 V2000
    5.6440   -1.6790   26.6969 C   0  0  0  0  0  0  0  0  0  0  0  0
    4.8986    1.2127   18.8867 C   0  0  0  0  0  0  0  0  0  0  0  0
    5.3166    0.7605   20.1334 C   0  0  0  0  0  0  0  0  0  0  0  0
    6.6915   -0.8432   26.3100 C   0  0  0  0  0  0  0  0  0  0  0  0
    5.7941   -3.0640   26.6260 C   0  0  0  0  0  0  0  0  0  0  0  0
    8.0393   -2.7773   25.7811 C   0  0  0  0  0  0  0  0  0  0  0  0
    5.7491    1.0232   17.8095 C   0  0  0  0  0  0  0  0  0  0  0  0
    7.3312   -0.0002   19.1240 C   0  0  0  0  0  0  0  0  0  0  0  0
    6.5549    0.1415   20.2629 C   0  0  0  0  0  0  0  0  0  0  0  0
    7.8891   -1.3923   25.8521 C   0  0  0  0  0  0  0  0  0  0  0  0
    6.9918   -3.6131   26.1680 C   0  0  0  0  0  0  0  0  0  0  0  0
    8.2138   -0.9632   21.8022 C   0  0  0  0  0  0  0  0  0  0  0  0
   10.2401    2.4882   24.2397 C   0  0  0  0  0  0  0  0  0  0  0  0
    8.7952    2.2926   24.6871 C   0  0  0  0  0  0  0  0  0  0  0  0
   11.0545    1.2077   24.3933 C   0  0  0  0  0  0  0  0  0  0  0  0
    8.1335    1.1200   23.9608 C   0  0  0  0  0  0  0  0  0  0  0  0
   10.4002    0.0334   23.6639 C   0  0  0  0  0  0  0  0  0  0  0  0
    8.9406   -0.1803   24.0967 C   0  0  0  0  0  0  0  0  0  0  0  0
    8.2921   -1.2991   23.2795 C   0  0  0  0  0  0  0  0  0  0  0  0
    6.9590    0.4263   17.8963 N   0  0  0  0  0  0  0  0  0  0  0  0
    7.8090   -5.6835   27.6344 N   0  0  0  0  0  0  0  0  0  0  0  0
    7.0077   -0.3288   21.5184 N   0  0  0  0  0  0  0  0  0  0  0  0
    9.1158   -1.2356   21.0170 O   0  0  0  0  0  0  0  0  0  0  0  0
    5.8585   -5.9476   25.9697 O   0  0  0  0  0  0  0  0  0  0  0  0
    8.2002   -5.6523   25.0883 O   0  0  0  0  0  0  0  0  0  0  0  0
    8.9149   -0.5736   25.4721 O   0  0  0  0  0  0  0  0  0  0  0  0
    7.1803   -5.3471   26.0817 S   0  0  0  0  0  0  0  0  0  0  0  0
  1  4  2  0
  1  5  1  0
  2  3  2  0
  2  7  1  0
  3  9  1  0
  4 10  1  0
  5 11  2  0
  6 10  2  0
  6 11  1  0
  7 20  2  0
  8  9  2  0
  8 20  1  0
  9 22  1  0
 10 26  1  0
 11 27  1  0
 12 19  1  0
 12 22  1  0
 12 23  2  0
 13 14  1  0
 13 15  1  0
 14 16  1  0
 15 17  1  0
 16 18  1  0
 17 18  1  0
 18 19  1  0
 18 26  1  0
 21 27  1  0
 24 27  2  0
 25 27  2  0
M  END
