CHR-SOS-6c45c019-12
     RDKit          3D

 22 24  0  0  0  0  0  0  0  0999 V2000
   11.6696   -2.0694   23.0964 C   0  0  0  0  0  0  0  0  0  0  0  0
   10.5301   -2.4271   23.2244 C   0  0  0  0  0  0  0  0  0  0  0  0
    5.4075    1.2965   18.5894 C   0  0  0  0  0  0  0  0  0  0  0  0
    6.1885    0.9284   17.5058 C   0  0  0  0  0  0  0  0  0  0  0  0
   13.8736   -1.4894   24.0240 C   0  0  0  0  0  0  0  0  0  0  0  0
   13.5764   -1.3649   21.7105 C   0  0  0  0  0  0  0  0  0  0  0  0
    7.5048   -0.4357   18.8039 C   0  0  0  0  0  0  0  0  0  0  0  0
   15.5757   -0.8484   22.6607 C   0  0  0  0  0  0  0  0  0  0  0  0
   13.0274   -1.6454   22.9451 C   0  0  0  0  0  0  0  0  0  0  0  0
    5.7183    0.7520   19.8305 C   0  0  0  0  0  0  0  0  0  0  0  0
    6.7855   -0.1314   19.9484 C   0  0  0  0  0  0  0  0  0  0  0  0
    8.1815   -1.6075   21.4493 C   0  0  0  0  0  0  0  0  0  0  0  0
    8.8173   -3.6143   24.6409 C   0  0  0  0  0  0  0  0  0  0  0  0
    8.9004   -4.3458   23.3371 C   0  0  0  0  0  0  0  0  0  0  0  0
    9.1662   -2.8562   23.3781 C   0  0  0  0  0  0  0  0  0  0  0  0
    4.8931    1.1320   21.0160 C   0  0  0  0  0  0  0  0  0  0  0  0
    7.2329    0.0733   17.5813 N   0  0  0  0  0  0  0  0  0  0  0  0
   15.1582   -1.0911   23.9177 N   0  0  0  0  0  0  0  0  0  0  0  0
   14.8516   -0.9624   21.5310 N   0  0  0  0  0  0  0  0  0  0  0  0
    7.1408   -0.7117   21.1883 N   0  0  0  0  0  0  0  0  0  0  0  0
    8.2131   -1.9582   22.8136 N   0  0  0  0  0  0  0  0  0  0  0  0
    8.9841   -2.0556   20.6340 O   0  0  0  0  0  0  0  0  0  0  0  0
  1  2  3  0
  1  9  1  0
  2 15  1  0
  3  4  2  0
  3 10  1  0
  4 17  1  0
  5  9  2  0
  5 18  1  0
  6  9  1  0
  6 19  2  0
  7 11  1  0
  7 17  2  0
  8 18  2  0
  8 19  1  0
 10 11  2  0
 10 16  1  0
 11 20  1  0
 12 20  1  0
 12 21  1  0
 12 22  2  0
 13 14  1  0
 13 15  1  0
 14 15  1  0
 15 21  1  0
M  END
