CHR-SOS-1f323c23-11
     RDKit          3D

 25 27  0  0  0  0  0  0  0  0999 V2000
   13.7515   -1.5461   23.9122 C   0  0  0  0  0  0  0  0  0  0  0  0
   12.8090   -2.4511   23.4243 C   0  0  0  0  0  0  0  0  0  0  0  0
   13.4577   -0.1828   23.9448 C   0  0  0  0  0  0  0  0  0  0  0  0
    5.4347    1.4942   18.8061 C   0  0  0  0  0  0  0  0  0  0  0  0
   11.2789   -0.6298   23.0014 C   0  0  0  0  0  0  0  0  0  0  0  0
    6.1184    1.1366   17.6553 C   0  0  0  0  0  0  0  0  0  0  0  0
    7.4805   -0.3112   18.8071 C   0  0  0  0  0  0  0  0  0  0  0  0
    5.8191    0.8997   20.0028 C   0  0  0  0  0  0  0  0  0  0  0  0
    6.8607   -0.0213   20.0120 C   0  0  0  0  0  0  0  0  0  0  0  0
   11.5727   -1.9930   22.9689 C   0  0  0  0  0  0  0  0  0  0  0  0
   12.2215    0.2753   23.4894 C   0  0  0  0  0  0  0  0  0  0  0  0
    8.3137   -1.5903   21.3565 C   0  0  0  0  0  0  0  0  0  0  0  0
    9.4686   -3.3080   24.6234 C   0  0  0  0  0  0  0  0  0  0  0  0
    8.9737   -4.3059   23.6199 C   0  0  0  0  0  0  0  0  0  0  0  0
    9.3970   -2.9328   23.1657 C   0  0  0  0  0  0  0  0  0  0  0  0
    5.0995    1.2672   21.2589 C   0  0  0  0  0  0  0  0  0  0  0  0
    7.1351    0.2461   17.6248 N   0  0  0  0  0  0  0  0  0  0  0  0
   13.2967    2.6093   24.1971 N   0  0  0  0  0  0  0  0  0  0  0  0
    7.2882   -0.6531   21.2030 N   0  0  0  0  0  0  0  0  0  0  0  0
    8.4397   -1.9900   22.7050 N   0  0  0  0  0  0  0  0  0  0  0  0
    9.0363   -2.0373   20.4690 O   0  0  0  0  0  0  0  0  0  0  0  0
   11.7203    2.4577   22.1631 O   0  0  0  0  0  0  0  0  0  0  0  0
   10.7697    2.1968   24.4817 O   0  0  0  0  0  0  0  0  0  0  0  0
   10.6532   -2.8761   22.4918 O   0  0  0  0  0  0  0  0  0  0  0  0
   11.8531    1.9818   23.5328 S   0  0  0  0  0  0  0  0  0  0  0  0
  1  2  2  0
  1  3  1  0
  2 10  1  0
  3 11  2  0
  4  6  2  0
  4  8  1  0
  5 10  2  0
  5 11  1  0
  6 17  1  0
  7  9  1  0
  7 17  2  0
  8  9  2  0
  8 16  1  0
  9 19  1  0
 10 24  1  0
 11 25  1  0
 12 19  1  0
 12 20  1  0
 12 21  2  0
 13 14  1  0
 13 15  1  0
 14 15  1  0
 15 20  1  0
 15 24  1  0
 18 25  1  0
 22 25  2  0
 23 25  2  0
M  END
