CHR-SOS-6c45c019-6
     RDKit          3D

 24 26  0  0  0  0  0  0  0  0999 V2000
   10.9039   -2.3617   23.4794 C   0  0  0  0  0  0  0  0  0  0  0  0
    9.7470   -2.6826   23.5155 C   0  0  0  0  0  0  0  0  0  0  0  0
    5.5781    1.5721   18.5502 C   0  0  0  0  0  0  0  0  0  0  0  0
    6.4342    1.1521   17.5449 C   0  0  0  0  0  0  0  0  0  0  0  0
   13.2534   -2.7969   22.8919 C   0  0  0  0  0  0  0  0  0  0  0  0
   12.7280   -0.7761   23.9391 C   0  0  0  0  0  0  0  0  0  0  0  0
    7.4510   -0.3762   18.9264 C   0  0  0  0  0  0  0  0  0  0  0  0
   14.8699   -1.2684   23.3585 C   0  0  0  0  0  0  0  0  0  0  0  0
   12.2824   -1.9817   23.4369 C   0  0  0  0  0  0  0  0  0  0  0  0
    5.6908    0.9659   19.7964 C   0  0  0  0  0  0  0  0  0  0  0  0
    6.6427   -0.0277   19.9965 C   0  0  0  0  0  0  0  0  0  0  0  0
    7.7041   -1.6811   21.5840 C   0  0  0  0  0  0  0  0  0  0  0  0
    6.7875   -4.9409   23.5038 C   0  0  0  0  0  0  0  0  0  0  0  0
    6.6315   -4.2263   24.8459 C   0  0  0  0  0  0  0  0  0  0  0  0
    8.1026   -4.4417   22.9076 C   0  0  0  0  0  0  0  0  0  0  0  0
    7.8578   -3.3269   24.9934 C   0  0  0  0  0  0  0  0  0  0  0  0
    8.3338   -3.0757   23.5599 C   0  0  0  0  0  0  0  0  0  0  0  0
    4.7809    1.3996   20.8985 C   0  0  0  0  0  0  0  0  0  0  0  0
    7.3711    0.1902   17.7015 N   0  0  0  0  0  0  0  0  0  0  0  0
   14.5613   -2.4705   22.8359 N   0  0  0  0  0  0  0  0  0  0  0  0
   14.0193   -0.3859   23.9165 N   0  0  0  0  0  0  0  0  0  0  0  0
    6.7959   -0.6743   21.2451 N   0  0  0  0  0  0  0  0  0  0  0  0
    7.5348   -2.0533   22.9199 N   0  0  0  0  0  0  0  0  0  0  0  0
    8.5433   -2.1898   20.8447 O   0  0  0  0  0  0  0  0  0  0  0  0
  1  2  3  0
  1  9  1  0
  2 17  1  0
  3  4  2  0
  3 10  1  0
  4 19  1  0
  5  9  2  0
  5 20  1  0
  6  9  1  0
  6 21  2  0
  7 11  1  0
  7 19  2  0
  8 20  2  0
  8 21  1  0
 10 11  2  0
 10 18  1  0
 11 22  1  0
 12 22  1  0
 12 23  1  0
 12 24  2  0
 13 14  1  0
 13 15  1  0
 14 16  1  0
 15 17  1  0
 16 17  1  0
 17 23  1  0
M  END
