CHR-SOS-e960e883-3
     RDKit          3D

 24 26  0  0  0  0  0  0  0  0999 V2000
   11.5426    1.7294   22.4267 C   0  0  0  0  0  0  0  0  0  0  0  0
    5.3970    1.2228   19.0420 C   0  0  0  0  0  0  0  0  0  0  0  0
   10.4073    1.2898   23.1076 C   0  0  0  0  0  0  0  0  0  0  0  0
    5.7180    0.7385   20.3053 C   0  0  0  0  0  0  0  0  0  0  0  0
   12.6403    0.8812   22.2806 C   0  0  0  0  0  0  0  0  0  0  0  0
   11.4675   -0.8461   23.4963 C   0  0  0  0  0  0  0  0  0  0  0  0
    6.2742    0.9563   18.0031 C   0  0  0  0  0  0  0  0  0  0  0  0
    7.7001   -0.1997   19.3847 C   0  0  0  0  0  0  0  0  0  0  0  0
   10.3698    0.0021   23.6424 C   0  0  0  0  0  0  0  0  0  0  0  0
    6.8899    0.0128   20.4884 C   0  0  0  0  0  0  0  0  0  0  0  0
   12.6028   -0.4065   22.8154 C   0  0  0  0  0  0  0  0  0  0  0  0
    8.3751   -1.2303   22.0980 C   0  0  0  0  0  0  0  0  0  0  0  0
    7.9074   -0.2554   26.2424 C   0  0  0  0  0  0  0  0  0  0  0  0
    9.2546   -0.9265   25.9227 C   0  0  0  0  0  0  0  0  0  0  0  0
    8.0959    0.5989   24.9765 C   0  0  0  0  0  0  0  0  0  0  0  0
    9.0658   -0.5024   24.4253 C   0  0  0  0  0  0  0  0  0  0  0  0
    8.3570   -1.5674   23.5764 C   0  0  0  0  0  0  0  0  0  0  0  0
    7.4216    0.2550   18.1424 N   0  0  0  0  0  0  0  0  0  0  0  0
   14.8730   -1.0887   24.0342 N   0  0  0  0  0  0  0  0  0  0  0  0
    7.2435   -0.4926   21.7621 N   0  0  0  0  0  0  0  0  0  0  0  0
    9.2833   -1.5833   21.3529 O   0  0  0  0  0  0  0  0  0  0  0  0
   13.5087   -2.8448   22.7302 O   0  0  0  0  0  0  0  0  0  0  0  0
   14.7345   -1.0456   21.4621 O   0  0  0  0  0  0  0  0  0  0  0  0
   13.9757   -1.4690   22.6307 S   0  0  0  0  0  0  0  0  0  0  0  0
  1  3  2  0
  1  5  1  0
  2  4  2  0
  2  7  1  0
  3  9  1  0
  4 10  1  0
  5 11  2  0
  6  9  2  0
  6 11  1  0
  7 18  2  0
  8 10  2  0
  8 18  1  0
  9 16  1  0
 10 20  1  0
 11 24  1  0
 12 17  1  0
 12 20  1  0
 12 21  2  0
 13 14  1  0
 13 15  1  0
 14 16  1  0
 15 16  1  0
 16 17  1  0
 19 24  1  0
 22 24  2  0
 23 24  2  0
M  END
