CHR-SOS-1f323c23-2
     RDKit          3D

 28 30  0  0  0  0  0  0  0  0999 V2000
    6.1829   -4.2388   23.1737 C   0  0  0  0  0  0  0  0  0  0  0  0
    7.2713   -3.4248   22.8598 C   0  0  0  0  0  0  0  0  0  0  0  0
    6.1373   -4.8995   24.4014 C   0  0  0  0  0  0  0  0  0  0  0  0
    4.6591    1.1053   18.5375 C   0  0  0  0  0  0  0  0  0  0  0  0
    8.2684   -3.9323   25.0012 C   0  0  0  0  0  0  0  0  0  0  0  0
    5.4905    0.6997   17.5060 C   0  0  0  0  0  0  0  0  0  0  0  0
    7.0860   -0.0634   18.9725 C   0  0  0  0  0  0  0  0  0  0  0  0
    5.0938    0.9014   19.8424 C   0  0  0  0  0  0  0  0  0  0  0  0
    6.3294    0.3066   20.0727 C   0  0  0  0  0  0  0  0  0  0  0  0
    8.3140   -3.2716   23.7735 C   0  0  0  0  0  0  0  0  0  0  0  0
    7.1800   -4.7462   25.3151 C   0  0  0  0  0  0  0  0  0  0  0  0
    8.0292   -0.5058   21.7553 C   0  0  0  0  0  0  0  0  0  0  0  0
   10.4647    1.1176   25.4208 C   0  0  0  0  0  0  0  0  0  0  0  0
    9.1813    0.4246   25.8718 C   0  0  0  0  0  0  0  0  0  0  0  0
   10.6511    1.0448   23.9073 C   0  0  0  0  0  0  0  0  0  0  0  0
    9.1087   -1.0116   25.3577 C   0  0  0  0  0  0  0  0  0  0  0  0
   10.5729   -0.3939   23.4010 C   0  0  0  0  0  0  0  0  0  0  0  0
    9.2839   -1.1021   23.8356 C   0  0  0  0  0  0  0  0  0  0  0  0
    4.2178    1.3296   20.9737 C   0  0  0  0  0  0  0  0  0  0  0  0
    6.6971    0.1185   17.6905 N   0  0  0  0  0  0  0  0  0  0  0  0
    5.6301   -6.3953   26.7233 N   0  0  0  0  0  0  0  0  0  0  0  0
    6.8154    0.0776   21.3810 N   0  0  0  0  0  0  0  0  0  0  0  0
    8.1366   -0.5520   23.1497 N   0  0  0  0  0  0  0  0  0  0  0  0
    8.9019   -0.9290   21.0011 O   0  0  0  0  0  0  0  0  0  0  0  0
    8.1979   -6.5512   26.8897 O   0  0  0  0  0  0  0  0  0  0  0  0
    7.0141   -4.5744   27.9088 O   0  0  0  0  0  0  0  0  0  0  0  0
    9.3826   -2.4736   23.4651 O   0  0  0  0  0  0  0  0  0  0  0  0
    7.1213   -5.5715   26.8530 S   0  0  0  0  0  0  0  0  0  0  0  0
  1  2  2  0
  1  3  1  0
  2 10  1  0
  3 11  2  0
  4  6  2  0
  4  8  1  0
  5 10  2  0
  5 11  1  0
  6 20  1  0
  7  9  1  0
  7 20  2  0
  8  9  2  0
  8 19  1  0
  9 22  1  0
 10 27  1  0
 11 28  1  0
 12 22  1  0
 12 23  1  0
 12 24  2  0
 13 14  1  0
 13 15  1  0
 14 16  1  0
 15 17  1  0
 16 18  1  0
 17 18  1  0
 18 23  1  0
 18 27  1  0
 21 28  1  0
 25 28  2  0
 26 28  2  0
M  END
