CHR-SOS-59746812-2
     RDKit          3D

 22 24  0  0  0  0  0  0  0  0999 V2000
   14.3043   -1.5555   23.9845 C   0  0  0  0  0  0  0  0  0  0  0  0
    5.3498    0.7891   18.7945 C   0  0  0  0  0  0  0  0  0  0  0  0
   13.3281   -0.5793   24.1501 C   0  0  0  0  0  0  0  0  0  0  0  0
    5.9462    0.3825   19.9829 C   0  0  0  0  0  0  0  0  0  0  0  0
   14.3370   -2.2424   22.7817 C   0  0  0  0  0  0  0  0  0  0  0  0
    6.1215    0.7752   17.6438 C   0  0  0  0  0  0  0  0  0  0  0  0
   12.5441   -1.0653   21.9580 C   0  0  0  0  0  0  0  0  0  0  0  0
    7.9624    0.0023   18.7803 C   0  0  0  0  0  0  0  0  0  0  0  0
   12.4273   -0.3234   23.1224 C   0  0  0  0  0  0  0  0  0  0  0  0
    7.2771   -0.0198   19.9843 C   0  0  0  0  0  0  0  0  0  0  0  0
    9.2586   -0.3223   21.5089 C   0  0  0  0  0  0  0  0  0  0  0  0
    8.9466   -0.4625   25.9248 C   0  0  0  0  0  0  0  0  0  0  0  0
    8.1319    0.6300   25.2326 C   0  0  0  0  0  0  0  0  0  0  0  0
   10.3156   -0.4660   25.2485 C   0  0  0  0  0  0  0  0  0  0  0  0
    9.0477    1.2363   24.1719 C   0  0  0  0  0  0  0  0  0  0  0  0
   10.0760    0.1405   23.8591 C   0  0  0  0  0  0  0  0  0  0  0  0
   11.3613    0.7256   23.2704 C   0  0  0  0  0  0  0  0  0  0  0  0
    9.5020   -0.9023   22.8862 C   0  0  0  0  0  0  0  0  0  0  0  0
   13.4790   -2.0217   21.7605 N   0  0  0  0  0  0  0  0  0  0  0  0
    7.4170    0.3909   17.6059 N   0  0  0  0  0  0  0  0  0  0  0  0
    7.9115   -0.4386   21.1780 N   0  0  0  0  0  0  0  0  0  0  0  0
   10.1541    0.1665   20.8280 O   0  0  0  0  0  0  0  0  0  0  0  0
  1  3  2  0
  1  5  1  0
  2  4  2  0
  2  6  1  0
  3  9  1  0
  4 10  1  0
  5 19  2  0
  6 20  2  0
  7  9  2  0
  7 19  1  0
  8 10  2  0
  8 20  1  0
  9 17  1  0
 10 21  1  0
 11 18  1  0
 11 21  1  0
 11 22  2  0
 12 13  1  0
 12 14  1  0
 13 15  1  0
 14 16  1  0
 15 16  1  0
 16 17  1  0
 16 18  1  0
M  END
