CHR-SOS-363cfb78-8
     RDKit          3D

 30 32  0  0  0  0  0  0  0  0999 V2000
    9.9573   -5.2973   26.3740 C   0  0  0  0  0  0  0  0  0  0  0  0
   10.2136   -1.5557   24.9125 C   0  0  0  0  0  0  0  0  0  0  0  0
   10.9612   -1.9799   22.6546 C   0  0  0  0  0  0  0  0  0  0  0  0
   10.5606   -0.2118   24.7750 C   0  0  0  0  0  0  0  0  0  0  0  0
   11.3081   -0.6359   22.5170 C   0  0  0  0  0  0  0  0  0  0  0  0
    5.9153    0.0498   17.8370 C   0  0  0  0  0  0  0  0  0  0  0  0
    5.0924   -0.9266   17.2991 C   0  0  0  0  0  0  0  0  0  0  0  0
    7.5325   -5.0595   26.2625 C   0  0  0  0  0  0  0  0  0  0  0  0
    5.6078   -2.4108   18.9753 C   0  0  0  0  0  0  0  0  0  0  0  0
    6.4768   -3.8968   24.5857 C   0  0  0  0  0  0  0  0  0  0  0  0
    8.7843   -4.7980   25.7294 C   0  0  0  0  0  0  0  0  0  0  0  0
    6.6060   -0.2523   19.0053 C   0  0  0  0  0  0  0  0  0  0  0  0
    6.4549   -1.5040   19.5917 C   0  0  0  0  0  0  0  0  0  0  0  0
    7.6793   -3.5806   23.9741 C   0  0  0  0  0  0  0  0  0  0  0  0
   10.4139   -2.4398   23.8524 C   0  0  0  0  0  0  0  0  0  0  0  0
    8.8505   -4.0437   24.5633 C   0  0  0  0  0  0  0  0  0  0  0  0
   11.1078    0.2482   23.5773 C   0  0  0  0  0  0  0  0  0  0  0  0
    6.7184   -2.7499   21.7819 C   0  0  0  0  0  0  0  0  0  0  0  0
    7.5005    0.7816   19.6066 C   0  0  0  0  0  0  0  0  0  0  0  0
   10.9103   -5.7028   26.8977 N   0  0  0  0  0  0  0  0  0  0  0  0
    4.9203   -2.1535   17.8401 N   0  0  0  0  0  0  0  0  0  0  0  0
    6.3729   -4.6269   25.7188 N   0  0  0  0  0  0  0  0  0  0  0  0
   11.1057    2.5384   24.9410 N   0  0  0  0  0  0  0  0  0  0  0  0
    7.1357   -1.8589   20.7802 N   0  0  0  0  0  0  0  0  0  0  0  0
    7.6962   -2.8211   22.8045 N   0  0  0  0  0  0  0  0  0  0  0  0
    5.6643   -3.3777   21.7789 O   0  0  0  0  0  0  0  0  0  0  0  0
   12.9893    2.0181   23.2596 O   0  0  0  0  0  0  0  0  0  0  0  0
   10.6771    2.5317   22.4007 O   0  0  0  0  0  0  0  0  0  0  0  0
   10.0749   -3.7513   23.9863 O   0  0  0  0  0  0  0  0  0  0  0  0
   11.5431    1.9306   23.4053 S   0  0  0  0  0  0  0  0  0  0  0  0
  1 11  1  0
  1 20  3  0
  2  4  2  0
  2 15  1  0
  3  5  1  0
  3 15  2  0
  4 17  1  0
  5 17  2  0
  6  7  2  0
  6 12  1  0
  7 21  1  0
  8 11  2  0
  8 22  1  0
  9 13  1  0
  9 21  2  0
 10 14  1  0
 10 22  2  0
 11 16  1  0
 12 13  2  0
 12 19  1  0
 13 24  1  0
 14 16  2  0
 14 25  1  0
 15 29  1  0
 16 29  1  0
 17 30  1  0
 18 24  1  0
 18 25  1  0
 18 26  2  0
 23 30  1  0
 27 30  2  0
 28 30  2  0
M  END
