CHR-SOS-7098f804-10
     RDKit          3D

 18 19  0  0  0  0  0  0  0  0999 V2000
   12.6591    1.4431   23.4465 C   0  0  0  0  0  0  0  0  0  0  0  0
   13.4803    0.3480   23.7150 C   0  0  0  0  0  0  0  0  0  0  0  0
    6.0317    0.4163   19.3246 C   0  0  0  0  0  0  0  0  0  0  0  0
   12.5755   -0.8018   21.7924 C   0  0  0  0  0  0  0  0  0  0  0  0
    6.3479    0.2215   17.9898 C   0  0  0  0  0  0  0  0  0  0  0  0
    8.5986    0.1361   18.4429 C   0  0  0  0  0  0  0  0  0  0  0  0
   11.7543    0.2933   21.5239 C   0  0  0  0  0  0  0  0  0  0  0  0
    8.3879    0.3271   19.7990 C   0  0  0  0  0  0  0  0  0  0  0  0
   11.7961    1.4157   22.3510 C   0  0  0  0  0  0  0  0  0  0  0  0
   13.4385   -0.7744   22.8879 C   0  0  0  0  0  0  0  0  0  0  0  0
    7.0769    0.4689   20.2401 C   0  0  0  0  0  0  0  0  0  0  0  0
   10.8587    0.2437   20.3766 C   0  0  0  0  0  0  0  0  0  0  0  0
    7.6089    0.0795   17.5237 N   0  0  0  0  0  0  0  0  0  0  0  0
    9.4958    0.3714   20.6824 N   0  0  0  0  0  0  0  0  0  0  0  0
   11.2844    0.0659   19.2279 O   0  0  0  0  0  0  0  0  0  0  0  0
   11.0000    2.4947   22.1066 O   0  0  0  0  0  0  0  0  0  0  0  0
   14.4533   -2.1247   23.2180 Cl  0  0  0  0  0  0  0  0  0  0  0  0
    6.7063    0.7107   21.9084 Cl  0  0  0  0  0  0  0  0  0  0  0  0
  1  2  2  0
  1  9  1  0
  2 10  1  0
  3  5  2  0
  3 11  1  0
  4  7  1  0
  4 10  2  0
  5 13  1  0
  6  8  1  0
  6 13  2  0
  7  9  2  0
  7 12  1  0
  8 11  2  0
  8 14  1  0
  9 16  1  0
 10 17  1  0
 11 18  1  0
 12 14  1  0
 12 15  2  0
M  END
