CHR-SOS-7098f804-5
     RDKit          3D

 19 20  0  0  0  0  0  0  0  0999 V2000
   13.0404    0.2352   24.2976 C   0  0  0  0  0  0  0  0  0  0  0  0
   13.6664   -0.7865   23.5835 C   0  0  0  0  0  0  0  0  0  0  0  0
   11.7245    0.5893   23.9996 C   0  0  0  0  0  0  0  0  0  0  0  0
    7.2579    1.4952   21.2457 C   0  0  0  0  0  0  0  0  0  0  0  0
    7.5587   -0.3212   19.6814 C   0  0  0  0  0  0  0  0  0  0  0  0
    6.0317    1.8007   20.6553 C   0  0  0  0  0  0  0  0  0  0  0  0
    6.3324   -0.0159   19.0910 C   0  0  0  0  0  0  0  0  0  0  0  0
   12.9766   -1.4540   22.5714 C   0  0  0  0  0  0  0  0  0  0  0  0
   11.0347   -0.0781   22.9875 C   0  0  0  0  0  0  0  0  0  0  0  0
    8.0215    0.4343   20.7587 C   0  0  0  0  0  0  0  0  0  0  0  0
    5.5689    1.0451   19.5779 C   0  0  0  0  0  0  0  0  0  0  0  0
   11.6608   -1.0998   22.2734 C   0  0  0  0  0  0  0  0  0  0  0  0
    9.6618    0.3074   22.6924 C   0  0  0  0  0  0  0  0  0  0  0  0
    9.2679    0.1240   21.3587 N   0  0  0  0  0  0  0  0  0  0  0  0
    4.3205    1.3559   18.9770 N   0  0  0  0  0  0  0  0  0  0  0  0
    8.9230    0.7923   23.5592 O   0  0  0  0  0  0  0  0  0  0  0  0
    3.6492    2.3143   19.4304 O   0  0  0  0  0  0  0  0  0  0  0  0
    3.9227    0.6640   18.0087 O   0  0  0  0  0  0  0  0  0  0  0  0
   11.0028   -1.7650   21.2823 O   0  0  0  0  0  0  0  0  0  0  0  0
  1  2  2  0
  1  3  1  0
  2  8  1  0
  3  9  2  0
  4  6  2  0
  4 10  1  0
  5  7  1  0
  5 10  2  0
  6 11  1  0
  7 11  2  0
  8 12  2  0
  9 12  1  0
  9 13  1  0
 10 14  1  0
 11 15  1  0
 12 19  1  0
 13 14  1  0
 13 16  2  0
 15 17  1  0
 15 18  2  0
M  CHG  2  15   1  17  -1
M  END
