CHR-SOS-59746812-5
     RDKit          3D

 23 25  0  0  0  0  0  0  0  0999 V2000
   15.0605   -2.0084   23.1804 C   0  0  0  0  0  0  0  0  0  0  0  0
   14.6657   -1.2954   24.3124 C   0  0  0  0  0  0  0  0  0  0  0  0
   14.2253   -2.0638   22.0645 C   0  0  0  0  0  0  0  0  0  0  0  0
    5.2717    1.1509   18.5722 C   0  0  0  0  0  0  0  0  0  0  0  0
   13.4356   -0.6380   24.3286 C   0  0  0  0  0  0  0  0  0  0  0  0
   12.9952   -1.4063   22.0808 C   0  0  0  0  0  0  0  0  0  0  0  0
    5.7233    0.9610   19.8734 C   0  0  0  0  0  0  0  0  0  0  0  0
    6.1178    0.7963   17.5338 C   0  0  0  0  0  0  0  0  0  0  0  0
    7.7583    0.1071   18.9870 C   0  0  0  0  0  0  0  0  0  0  0  0
   12.6003   -0.6934   23.2128 C   0  0  0  0  0  0  0  0  0  0  0  0
    6.9892    0.4297   20.0935 C   0  0  0  0  0  0  0  0  0  0  0  0
    8.7126   -0.2934   21.7814 C   0  0  0  0  0  0  0  0  0  0  0  0
    9.5620   -3.3717   25.3543 C   0  0  0  0  0  0  0  0  0  0  0  0
    9.3135   -1.9843   25.9354 C   0  0  0  0  0  0  0  0  0  0  0  0
    9.4589   -3.3775   23.8332 C   0  0  0  0  0  0  0  0  0  0  0  0
   10.2308   -0.9356   25.3064 C   0  0  0  0  0  0  0  0  0  0  0  0
   10.3765   -2.3313   23.2007 C   0  0  0  0  0  0  0  0  0  0  0  0
   10.1634   -0.9071   23.7624 C   0  0  0  0  0  0  0  0  0  0  0  0
   11.2780    0.0128   23.2297 C   0  0  0  0  0  0  0  0  0  0  0  0
    8.8124   -0.3357   23.2903 C   0  0  0  0  0  0  0  0  0  0  0  0
    7.3539    0.2774   17.7083 N   0  0  0  0  0  0  0  0  0  0  0  0
    7.4764    0.2250   21.4063 N   0  0  0  0  0  0  0  0  0  0  0  0
    9.6170   -0.6720   21.0444 O   0  0  0  0  0  0  0  0  0  0  0  0
  1  2  2  0
  1  3  1  0
  2  5  1  0
  3  6  2  0
  4  7  2  0
  4  8  1  0
  5 10  2  0
  6 10  1  0
  7 11  1  0
  8 21  2  0
  9 11  2  0
  9 21  1  0
 10 19  1  0
 11 22  1  0
 12 20  1  0
 12 22  1  0
 12 23  2  0
 13 14  1  0
 13 15  1  0
 14 16  1  0
 15 17  1  0
 16 18  1  0
 17 18  1  0
 18 19  1  0
 18 20  1  0
M  END
