CHR-SOS-70e4c98a-9
     RDKit          3D

 25 27  0  0  0  0  0  0  0  0999 V2000
   11.1042    1.6312   21.9903 C   0  0  0  0  0  0  0  0  0  0  0  0
    5.9282    1.2135   19.1765 C   0  0  0  0  0  0  0  0  0  0  0  0
    6.4382    0.6362   20.3340 C   0  0  0  0  0  0  0  0  0  0  0  0
   10.0288    1.4528   22.8604 C   0  0  0  0  0  0  0  0  0  0  0  0
   12.3255    1.0112   22.2545 C   0  0  0  0  0  0  0  0  0  0  0  0
   11.3958    0.0346   24.2593 C   0  0  0  0  0  0  0  0  0  0  0  0
    6.4898    0.8429   17.9652 C   0  0  0  0  0  0  0  0  0  0  0  0
    7.9715   -0.5849   18.9871 C   0  0  0  0  0  0  0  0  0  0  0  0
    7.4795   -0.2811   20.2462 C   0  0  0  0  0  0  0  0  0  0  0  0
   10.1746    0.6546   23.9949 C   0  0  0  0  0  0  0  0  0  0  0  0
   12.4713    0.2129   23.3891 C   0  0  0  0  0  0  0  0  0  0  0  0
    7.6320   -0.6813   22.7279 C   0  0  0  0  0  0  0  0  0  0  0  0
    8.1871   -2.2546   26.6133 C   0  0  0  0  0  0  0  0  0  0  0  0
    7.4774   -1.0337   26.0020 C   0  0  0  0  0  0  0  0  0  0  0  0
    9.5079   -1.7116   26.0404 C   0  0  0  0  0  0  0  0  0  0  0  0
    8.6763   -0.8785   25.0249 C   0  0  0  0  0  0  0  0  0  0  0  0
    8.4756   -1.5313   23.6629 C   0  0  0  0  0  0  0  0  0  0  0  0
    7.5019   -0.0445   17.8402 N   0  0  0  0  0  0  0  0  0  0  0  0
   13.7914   -2.0504   22.8998 N   0  0  0  0  0  0  0  0  0  0  0  0
    8.0195   -0.8851   21.4065 N   0  0  0  0  0  0  0  0  0  0  0  0
    6.7469    0.0616   23.1392 O   0  0  0  0  0  0  0  0  0  0  0  0
   15.0524    0.1925   23.0566 O   0  0  0  0  0  0  0  0  0  0  0  0
   14.0863   -0.8275   25.1480 O   0  0  0  0  0  0  0  0  0  0  0  0
    9.1258    0.4813   24.8444 O   0  0  0  0  0  0  0  0  0  0  0  0
   13.9996   -0.5651   23.7183 S   0  0  0  0  0  0  0  0  0  0  0  0
  1  4  2  0
  1  5  1  0
  2  3  2  0
  2  7  1  0
  3  9  1  0
  4 10  1  0
  5 11  2  0
  6 10  2  0
  6 11  1  0
  7 18  2  0
  8  9  2  0
  8 18  1  0
  9 20  1  0
 10 24  1  0
 11 25  1  0
 12 17  1  0
 12 20  1  0
 12 21  2  0
 13 14  1  0
 13 15  1  0
 14 16  1  0
 15 16  1  0
 16 17  1  0
 16 24  1  0
 19 25  1  0
 22 25  2  0
 23 25  2  0
M  END
