CHR-SOS-f7373dd1-5
     RDKit          3D

 21 23  0  0  0  0  0  0  0  0999 V2000
    8.4215   -2.5982   22.4512 C   0  0  0  0  0  0  0  0  0  0  0  0
    6.3524    0.7255   19.4035 C   0  0  0  0  0  0  0  0  0  0  0  0
    9.7179   -2.1391   22.2468 C   0  0  0  0  0  0  0  0  0  0  0  0
    7.3012    0.7497   20.4196 C   0  0  0  0  0  0  0  0  0  0  0  0
    7.8070   -2.2916   23.6546 C   0  0  0  0  0  0  0  0  0  0  0  0
    6.7933    0.4977   18.1098 C   0  0  0  0  0  0  0  0  0  0  0  0
    9.6504   -1.1448   24.4062 C   0  0  0  0  0  0  0  0  0  0  0  0
    8.9812    0.3282   18.7898 C   0  0  0  0  0  0  0  0  0  0  0  0
   10.3513   -1.3978   23.2381 C   0  0  0  0  0  0  0  0  0  0  0  0
    8.6429    0.5483   20.1153 C   0  0  0  0  0  0  0  0  0  0  0  0
   11.0032    0.3838   20.9780 C   0  0  0  0  0  0  0  0  0  0  0  0
   14.0452   -0.7455   23.9604 C   0  0  0  0  0  0  0  0  0  0  0  0
   14.1191   -1.4510   22.6113 C   0  0  0  0  0  0  0  0  0  0  0  0
   12.5727   -0.7524   24.3616 C   0  0  0  0  0  0  0  0  0  0  0  0
   12.6879   -1.8520   22.2649 C   0  0  0  0  0  0  0  0  0  0  0  0
   11.7753   -0.8783   23.0440 C   0  0  0  0  0  0  0  0  0  0  0  0
   11.6930    0.4840   22.3252 C   0  0  0  0  0  0  0  0  0  0  0  0
    8.3901   -1.5742   24.6409 N   0  0  0  0  0  0  0  0  0  0  0  0
    8.0879    0.2977   17.7756 N   0  0  0  0  0  0  0  0  0  0  0  0
    9.6315    0.5675   21.1278 N   0  0  0  0  0  0  0  0  0  0  0  0
   11.6177    0.1702   19.9382 O   0  0  0  0  0  0  0  0  0  0  0  0
  1  3  2  0
  1  5  1  0
  2  4  2  0
  2  6  1  0
  3  9  1  0
  4 10  1  0
  5 18  2  0
  6 19  2  0
  7  9  2  0
  7 18  1  0
  8 10  2  0
  8 19  1  0
  9 16  1  0
 10 20  1  0
 11 17  1  0
 11 20  1  0
 11 21  2  0
 12 13  1  0
 12 14  1  0
 13 15  1  0
 14 16  1  0
 15 16  1  0
 16 17  1  0
M  END
