CHR-SOS-6c45c019-4
     RDKit          3D

 24 26  0  0  0  0  0  0  0  0999 V2000
   10.8706   -2.2855   23.4833 C   0  0  0  0  0  0  0  0  0  0  0  0
    9.7173   -2.6206   23.5047 C   0  0  0  0  0  0  0  0  0  0  0  0
   14.0398   -0.4730   24.1144 C   0  0  0  0  0  0  0  0  0  0  0  0
   14.8907   -1.2363   23.3228 C   0  0  0  0  0  0  0  0  0  0  0  0
   12.6901   -0.7987   24.1890 C   0  0  0  0  0  0  0  0  0  0  0  0
    5.5568    1.5958   18.4998 C   0  0  0  0  0  0  0  0  0  0  0  0
   14.3469   -2.3066   22.6311 C   0  0  0  0  0  0  0  0  0  0  0  0
    6.4301    1.1890   17.5039 C   0  0  0  0  0  0  0  0  0  0  0  0
    7.4488   -0.3304   18.8938 C   0  0  0  0  0  0  0  0  0  0  0  0
   12.2447   -1.8885   23.4584 C   0  0  0  0  0  0  0  0  0  0  0  0
    5.6619    0.9878   19.7458 C   0  0  0  0  0  0  0  0  0  0  0  0
    6.6234    0.0054   19.9549 C   0  0  0  0  0  0  0  0  0  0  0  0
    7.6858   -1.6390   21.5511 C   0  0  0  0  0  0  0  0  0  0  0  0
    6.7861   -4.9148   23.4516 C   0  0  0  0  0  0  0  0  0  0  0  0
    6.6052   -4.2057   24.7934 C   0  0  0  0  0  0  0  0  0  0  0  0
    8.1020   -4.3980   22.8725 C   0  0  0  0  0  0  0  0  0  0  0  0
    7.8185   -3.2918   24.9580 C   0  0  0  0  0  0  0  0  0  0  0  0
    8.3087   -3.0311   23.5310 C   0  0  0  0  0  0  0  0  0  0  0  0
    4.7335    1.4075   20.8379 C   0  0  0  0  0  0  0  0  0  0  0  0
    7.3767    0.2382   17.6694 N   0  0  0  0  0  0  0  0  0  0  0  0
   13.0411   -2.6537   22.6787 N   0  0  0  0  0  0  0  0  0  0  0  0
    6.7694   -0.6425   21.2037 N   0  0  0  0  0  0  0  0  0  0  0  0
    7.5050   -2.0168   22.8839 N   0  0  0  0  0  0  0  0  0  0  0  0
    8.5400   -2.1355   20.8206 O   0  0  0  0  0  0  0  0  0  0  0  0
  1  2  3  0
  1 10  1  0
  2 18  1  0
  3  4  2  0
  3  5  1  0
  4  7  1  0
  5 10  2  0
  6  8  2  0
  6 11  1  0
  7 21  2  0
  8 20  1  0
  9 12  1  0
  9 20  2  0
 10 21  1  0
 11 12  2  0
 11 19  1  0
 12 22  1  0
 13 22  1  0
 13 23  1  0
 13 24  2  0
 14 15  1  0
 14 16  1  0
 15 17  1  0
 16 18  1  0
 17 18  1  0
 18 23  1  0
M  END
