CHR-SOS-59746812-6
     RDKit          3D

 23 25  0  0  0  0  0  0  0  0999 V2000
   14.4842   -1.4068   24.5516 C   0  0  0  0  0  0  0  0  0  0  0  0
    5.3191    0.9008   18.4251 C   0  0  0  0  0  0  0  0  0  0  0  0
   13.2469   -0.7725   24.5430 C   0  0  0  0  0  0  0  0  0  0  0  0
    5.7108    0.7064   19.7450 C   0  0  0  0  0  0  0  0  0  0  0  0
   14.8798   -2.0723   23.4025 C   0  0  0  0  0  0  0  0  0  0  0  0
    6.2235    0.5786   17.4261 C   0  0  0  0  0  0  0  0  0  0  0  0
   12.9408   -1.5140   22.3041 C   0  0  0  0  0  0  0  0  0  0  0  0
    7.8071   -0.0882   18.9510 C   0  0  0  0  0  0  0  0  0  0  0  0
   12.4542   -0.8224   23.4017 C   0  0  0  0  0  0  0  0  0  0  0  0
    6.9770    0.2029   20.0216 C   0  0  0  0  0  0  0  0  0  0  0  0
    8.6328   -0.4986   21.7846 C   0  0  0  0  0  0  0  0  0  0  0  0
    9.3809   -3.5974   25.3624 C   0  0  0  0  0  0  0  0  0  0  0  0
    9.0704   -2.2233   25.9452 C   0  0  0  0  0  0  0  0  0  0  0  0
    9.3527   -3.5879   23.8381 C   0  0  0  0  0  0  0  0  0  0  0  0
    9.9915   -1.1457   25.3732 C   0  0  0  0  0  0  0  0  0  0  0  0
   10.2744   -2.5127   23.2627 C   0  0  0  0  0  0  0  0  0  0  0  0
    9.9992   -1.1007   23.8282 C   0  0  0  0  0  0  0  0  0  0  0  0
   11.1159   -0.1483   23.3609 C   0  0  0  0  0  0  0  0  0  0  0  0
    8.6595   -0.5562   23.2961 C   0  0  0  0  0  0  0  0  0  0  0  0
   14.1374   -2.1425   22.2750 N   0  0  0  0  0  0  0  0  0  0  0  0
    7.4618    0.0874   17.6558 N   0  0  0  0  0  0  0  0  0  0  0  0
    7.4042   -0.0054   21.3546 N   0  0  0  0  0  0  0  0  0  0  0  0
    9.5812   -0.8469   21.0892 O   0  0  0  0  0  0  0  0  0  0  0  0
  1  3  2  0
  1  5  1  0
  2  4  2  0
  2  6  1  0
  3  9  1  0
  4 10  1  0
  5 20  2  0
  6 21  2  0
  7  9  2  0
  7 20  1  0
  8 10  2  0
  8 21  1  0
  9 18  1  0
 10 22  1  0
 11 19  1  0
 11 22  1  0
 11 23  2  0
 12 13  1  0
 12 14  1  0
 13 15  1  0
 14 16  1  0
 15 17  1  0
 16 17  1  0
 17 18  1  0
 17 19  1  0
M  END
