CHR-SOS-1f323c23-7
     RDKit          3D

 22 24  0  0  0  0  0  0  0  0999 V2000
   14.6940   -1.8671   22.5384 C   0  0  0  0  0  0  0  0  0  0  0  0
   13.8548   -1.3143   21.5711 C   0  0  0  0  0  0  0  0  0  0  0  0
   14.3436   -1.7994   23.8869 C   0  0  0  0  0  0  0  0  0  0  0  0
   12.6652   -0.6936   21.9522 C   0  0  0  0  0  0  0  0  0  0  0  0
   13.1540   -1.1787   24.2680 C   0  0  0  0  0  0  0  0  0  0  0  0
    5.3417    1.3475   18.4656 C   0  0  0  0  0  0  0  0  0  0  0  0
    6.1838    0.9758   17.4300 C   0  0  0  0  0  0  0  0  0  0  0  0
    7.7885    0.2163   18.8881 C   0  0  0  0  0  0  0  0  0  0  0  0
    5.7762    1.1285   19.7682 C   0  0  0  0  0  0  0  0  0  0  0  0
    7.0218    0.5526   19.9921 C   0  0  0  0  0  0  0  0  0  0  0  0
   12.3148   -0.6257   23.3007 C   0  0  0  0  0  0  0  0  0  0  0  0
    8.7312   -0.2580   21.6659 C   0  0  0  0  0  0  0  0  0  0  0  0
    9.4141   -2.7742   24.5844 C   0  0  0  0  0  0  0  0  0  0  0  0
   10.2609   -2.3557   23.3705 C   0  0  0  0  0  0  0  0  0  0  0  0
    9.6546   -1.3735   25.1723 C   0  0  0  0  0  0  0  0  0  0  0  0
    9.9914   -0.8684   23.7402 C   0  0  0  0  0  0  0  0  0  0  0  0
    4.8888    1.5202   20.9039 C   0  0  0  0  0  0  0  0  0  0  0  0
    7.4003    0.4139   17.6083 N   0  0  0  0  0  0  0  0  0  0  0  0
    7.5080    0.3094   21.2978 N   0  0  0  0  0  0  0  0  0  0  0  0
    8.8182   -0.3191   23.0497 N   0  0  0  0  0  0  0  0  0  0  0  0
    9.6139   -0.6514   20.9072 O   0  0  0  0  0  0  0  0  0  0  0  0
   11.1554   -0.0190   23.6731 O   0  0  0  0  0  0  0  0  0  0  0  0
  1  2  2  0
  1  3  1  0
  2  4  1  0
  3  5  2  0
  4 11  2  0
  5 11  1  0
  6  7  2  0
  6  9  1  0
  7 18  1  0
  8 10  1  0
  8 18  2  0
  9 10  2  0
  9 17  1  0
 10 19  1  0
 11 22  1  0
 12 19  1  0
 12 20  1  0
 12 21  2  0
 13 14  1  0
 13 15  1  0
 14 16  1  0
 15 16  1  0
 16 20  1  0
 16 22  1  0
M  END
