CHR-SOS-70e4c98a-4
     RDKit          3D

 26 28  0  0  0  0  0  0  0  0999 V2000
    9.5331   -4.8004   26.0301 C   0  0  0  0  0  0  0  0  0  0  0  0
    4.8205    1.4282   18.9914 C   0  0  0  0  0  0  0  0  0  0  0  0
    5.1714    0.8652   20.2134 C   0  0  0  0  0  0  0  0  0  0  0  0
    9.6391   -3.4305   25.7898 C   0  0  0  0  0  0  0  0  0  0  0  0
    8.2756   -5.3960   26.1289 C   0  0  0  0  0  0  0  0  0  0  0  0
    7.2301   -3.2516   25.7472 C   0  0  0  0  0  0  0  0  0  0  0  0
    5.5938    1.1124   17.8860 C   0  0  0  0  0  0  0  0  0  0  0  0
    6.9776   -0.2372   19.1278 C   0  0  0  0  0  0  0  0  0  0  0  0
    6.2693    0.0156   20.2915 C   0  0  0  0  0  0  0  0  0  0  0  0
    8.4876   -2.6561   25.6484 C   0  0  0  0  0  0  0  0  0  0  0  0
    7.1241   -4.6216   25.9875 C   0  0  0  0  0  0  0  0  0  0  0  0
    7.7177   -1.4356   21.7537 C   0  0  0  0  0  0  0  0  0  0  0  0
   10.6551    0.4169   24.2009 C   0  0  0  0  0  0  0  0  0  0  0  0
    9.4543    1.3369   24.4258 C   0  0  0  0  0  0  0  0  0  0  0  0
   10.0993   -0.8636   23.5797 C   0  0  0  0  0  0  0  0  0  0  0  0
    8.2256    0.5598   23.9537 C   0  0  0  0  0  0  0  0  0  0  0  0
    8.6463   -0.9046   24.0475 C   0  0  0  0  0  0  0  0  0  0  0  0
    7.7701   -1.8322   23.2207 C   0  0  0  0  0  0  0  0  0  0  0  0
    6.6671    0.2912   17.9228 N   0  0  0  0  0  0  0  0  0  0  0  0
    5.2476   -5.2190   27.7837 N   0  0  0  0  0  0  0  0  0  0  0  0
    6.6509   -0.5722   21.5209 N   0  0  0  0  0  0  0  0  0  0  0  0
    8.5321   -1.8519   20.9363 O   0  0  0  0  0  0  0  0  0  0  0  0
    4.5938   -4.5434   25.3834 O   0  0  0  0  0  0  0  0  0  0  0  0
    5.6818   -6.7807   25.7814 O   0  0  0  0  0  0  0  0  0  0  0  0
    8.5914   -1.3123   25.4137 O   0  0  0  0  0  0  0  0  0  0  0  0
    5.5500   -5.3679   26.1087 S   0  0  0  0  0  0  0  0  0  0  0  0
  1  4  2  0
  1  5  1  0
  2  3  2  0
  2  7  1  0
  3  9  1  0
  4 10  1  0
  5 11  2  0
  6 10  2  0
  6 11  1  0
  7 19  2  0
  8  9  2  0
  8 19  1  0
  9 21  1  0
 10 25  1  0
 11 26  1  0
 12 18  1  0
 12 21  1  0
 12 22  2  0
 13 14  1  0
 13 15  1  0
 14 16  1  0
 15 17  1  0
 16 17  1  0
 17 18  1  0
 17 25  1  0
 20 26  1  0
 23 26  2  0
 24 26  2  0
M  END
