CLI-UNI-032f7715-3
     RDKit          3D

 18 19  0  0  0  0  0  0  0  0999 V2000
   13.3789   -1.4436   23.1585 C   0  0  0  0  0  0  0  0  0  0  0  0
   13.3774   -0.5312   24.2136 C   0  0  0  0  0  0  0  0  0  0  0  0
   12.1882   -2.0514   22.7603 C   0  0  0  0  0  0  0  0  0  0  0  0
   12.1852   -0.2268   24.8706 C   0  0  0  0  0  0  0  0  0  0  0  0
   10.9960   -1.7469   23.4173 C   0  0  0  0  0  0  0  0  0  0  0  0
   10.9945   -0.8346   24.4725 C   0  0  0  0  0  0  0  0  0  0  0  0
    9.7626   -2.3937   22.9851 C   0  0  0  0  0  0  0  0  0  0  0  0
    7.4508   -5.4654   26.8421 C   0  0  0  0  0  0  0  0  0  0  0  0
    9.5016   -4.4865   25.8990 C   0  0  0  0  0  0  0  0  0  0  0  0
    7.4318   -4.7632   24.4845 C   0  0  0  0  0  0  0  0  0  0  0  0
   10.2963   -4.1770   24.6315 C   0  0  0  0  0  0  0  0  0  0  0  0
    8.2723   -4.4579   23.2471 C   0  0  0  0  0  0  0  0  0  0  0  0
    8.2965   -5.3713   25.5870 C   0  0  0  0  0  0  0  0  0  0  0  0
    9.4224   -3.6125   23.6000 N   0  0  0  0  0  0  0  0  0  0  0  0
    7.8057   -6.5013   27.6735 N   0  0  0  0  0  0  0  0  0  0  0  0
    9.0642   -1.8744   22.1127 O   0  0  0  0  0  0  0  0  0  0  0  0
    6.5476   -4.6678   27.0820 O   0  0  0  0  0  0  0  0  0  0  0  0
    9.8395   -0.5227   25.1256 O   0  0  0  0  0  0  0  0  0  0  0  0
  1  2  2  0
  1  3  1  0
  2  4  1  0
  3  5  2  0
  4  6  2  0
  5  6  1  0
  5  7  1  0
  6 18  1  0
  7 14  1  0
  7 16  2  0
  8 13  1  0
  8 15  1  0
  8 17  2  0
  9 11  1  0
  9 13  1  0
 10 12  1  0
 10 13  1  0
 11 14  1  0
 12 14  1  0
M  END
