CON-WAB-0566ad60-1
     RDKit          3D

 30 33  0  0  1  0  0  0  0  0999 V2000
   11.9355   -1.0628   22.2160 C   0  0  0  0  0  0  0  0  0  0  0  0
   10.9554   -2.0512   22.2992 C   0  0  0  0  0  0  0  0  0  0  0  0
    9.4211   -0.4432   23.2346 C   0  0  0  0  0  0  0  0  0  0  0  0
   11.6713    0.2483   22.6434 C   0  0  0  0  0  0  0  0  0  0  0  0
   10.4009    0.5604   23.1607 C   0  0  0  0  0  0  0  0  0  0  0  0
    9.6982   -1.7413   22.8082 C   0  0  0  0  0  0  0  0  0  0  0  0
   12.4043    2.6390   23.0635 C   0  0  0  0  0  0  0  0  0  0  0  0
    6.6768    0.6855   18.4801 C   0  0  0  0  0  0  0  0  0  0  0  0
    7.9196   -5.0863   26.4642 C   0  0  0  0  0  0  0  0  0  0  0  0
    7.8819    2.3981   22.4217 C   0  0  0  0  0  0  0  0  0  0  0  0
   12.7674    1.2763   22.5265 C   0  0  0  0  0  0  0  0  0  0  0  0
   11.3130    2.7030   24.1035 C   0  0  0  0  0  0  0  0  0  0  0  0
    6.4790   -0.7653   18.8554 C   0  0  0  0  0  0  0  0  0  0  0  0
    9.3224   -4.5914   26.1998 C   0  0  0  0  0  0  0  0  0  0  0  0
    6.7982   -4.2376   25.9121 C   0  0  0  0  0  0  0  0  0  0  0  0
    5.9557    1.7055   19.3344 C   0  0  0  0  0  0  0  0  0  0  0  0
    6.7468   -0.9785   20.3386 C   0  0  0  0  0  0  0  0  0  0  0  0
    5.9630    0.0054   21.2082 C   0  0  0  0  0  0  0  0  0  0  0  0
    9.5046   -4.2514   24.7313 C   0  0  0  0  0  0  0  0  0  0  0  0
    7.0438   -3.9069   24.4508 C   0  0  0  0  0  0  0  0  0  0  0  0
   10.0648    1.9650   23.6156 C   0  0  0  0  0  0  0  0  0  0  0  0
    6.2154    1.4675   20.8203 C   0  0  0  0  0  0  0  0  0  0  0  0
    8.6470   -2.7957   22.8957 C   0  0  0  0  0  0  0  0  0  0  0  0
    9.3537    2.7363   22.4989 C   0  0  0  0  0  0  0  0  0  0  0  0
    7.5543    1.8812   21.1767 N   0  0  0  0  0  0  0  0  0  0  0  0
    8.4176   -3.2950   24.2956 N   0  0  0  0  0  0  0  0  0  0  0  0
   13.0368    3.6428   22.7358 O   0  0  0  0  0  0  0  0  0  0  0  0
    7.3070    1.0135   17.4762 O   0  0  0  0  0  0  0  0  0  0  0  0
    7.7013   -6.0637   27.1777 O   0  0  0  0  0  0  0  0  0  0  0  0
    7.0957    2.5639   23.3504 O   0  0  0  0  0  0  0  0  0  0  0  0
  1  2  2  0
  1  4  1  0
  2  6  1  0
  3  5  1  0
  3  6  2  0
  4  5  2  0
  4 11  1  0
  5 21  1  0
  6 23  1  0
  7 11  1  0
  7 12  1  0
  7 27  2  0
  8 13  1  0
  8 16  1  0
  8 28  2  0
  9 14  1  0
  9 15  1  0
  9 29  2  0
 10 24  1  0
 10 25  1  0
 10 30  2  0
 12 21  1  0
 13 17  1  0
 14 19  1  0
 15 20  1  0
 16 22  1  0
 17 18  1  0
 18 22  1  0
 19 26  1  0
 20 26  1  0
 21 24  1  0
 22 25  1  0
 23 26  1  0
M  CHG  1  26   1
M  END
