CUN-WAB-25b584ee-1
     RDKit          3D

 25 27  0  0  1  0  0  0  0  0999 V2000
    6.0356    1.7633   17.2868 C   0  0  0  0  0  0  0  0  0  0  0  0
   14.4474   -1.4039   24.3630 C   0  0  0  0  0  0  0  0  0  0  0  0
    5.3174    1.7516   18.4825 C   0  0  0  0  0  0  0  0  0  0  0  0
    7.0403    0.8209   17.0674 C   0  0  0  0  0  0  0  0  0  0  0  0
   14.4416   -2.3975   23.3860 C   0  0  0  0  0  0  0  0  0  0  0  0
   13.6774   -0.2451   24.2108 C   0  0  0  0  0  0  0  0  0  0  0  0
    5.6040    0.7976   19.4589 C   0  0  0  0  0  0  0  0  0  0  0  0
    7.3269   -0.1331   18.0438 C   0  0  0  0  0  0  0  0  0  0  0  0
   13.6684   -2.2660   22.2289 C   0  0  0  0  0  0  0  0  0  0  0  0
   11.5182    0.5161   21.3615 C   0  0  0  0  0  0  0  0  0  0  0  0
   12.8900   -0.0903   23.0526 C   0  0  0  0  0  0  0  0  0  0  0  0
    6.6088   -0.1448   19.2395 C   0  0  0  0  0  0  0  0  0  0  0  0
   12.0114    0.9241   22.5793 C   0  0  0  0  0  0  0  0  0  0  0  0
   12.9037   -1.1023   22.0903 C   0  0  0  0  0  0  0  0  0  0  0  0
    9.2155    1.8931   22.9415 C   0  0  0  0  0  0  0  0  0  0  0  0
    9.9990    3.5355   24.6710 C   0  0  0  0  0  0  0  0  0  0  0  0
    8.6586   -1.9645   21.9368 C   0  0  0  0  0  0  0  0  0  0  0  0
    6.9196   -1.1773   20.2957 C   0  0  0  0  0  0  0  0  0  0  0  0
   11.6748    2.2187   23.2771 C   0  0  0  0  0  0  0  0  0  0  0  0
    7.4651    0.2214   22.3970 C   0  0  0  0  0  0  0  0  0  0  0  0
   10.3000    2.2071   23.9733 C   0  0  0  0  0  0  0  0  0  0  0  0
    7.9944   -0.7322   21.3113 C   0  0  0  0  0  0  0  0  0  0  0  0
   12.0619   -0.7074   21.0751 N   0  0  0  0  0  0  0  0  0  0  0  0
    8.5257    0.7258   23.2365 N   0  0  0  0  0  0  0  0  0  0  0  0
    9.0024    2.6025   21.9605 O   0  0  0  0  0  0  0  0  0  0  0  0
  1  3  2  0
  1  4  1  0
  2  5  2  0
  2  6  1  0
  3  7  1  0
  4  8  2  0
  5  9  1  0
  6 11  2  0
  7 12  2  0
  8 12  1  0
  9 14  2  0
 10 13  2  0
 10 23  1  0
 11 13  1  0
 11 14  1  0
 12 18  1  0
 13 19  1  0
 14 23  1  0
 15 21  1  0
 15 24  1  0
 15 25  2  0
 16 21  1  0
 17 22  1  0
 18 22  1  0
 19 21  1  0
 20 22  1  0
 20 24  1  0
M  END
