DAN-LON-a5fc619e-2
     RDKit          3D

 20 21  0  0  1  0  0  0  0  0999 V2000
   12.8693    0.0329   22.0629 C   0  0  0  0  0  0  0  0  0  0  0  0
   11.9884   -1.0468   22.0011 C   0  0  0  0  0  0  0  0  0  0  0  0
   12.7983    0.9309   23.1279 C   0  0  0  0  0  0  0  0  0  0  0  0
   10.9653   -0.3304   24.0692 C   0  0  0  0  0  0  0  0  0  0  0  0
   11.0363   -1.2284   23.0042 C   0  0  0  0  0  0  0  0  0  0  0  0
   11.8463    0.7493   24.1310 C   0  0  0  0  0  0  0  0  0  0  0  0
    6.4117   -1.7776   18.9118 C   0  0  0  0  0  0  0  0  0  0  0  0
    7.5068   -0.5687   20.8384 C   0  0  0  0  0  0  0  0  0  0  0  0
    6.7128   -2.8992   21.0986 C   0  0  0  0  0  0  0  0  0  0  0  0
    8.2604   -0.8984   22.1205 C   0  0  0  0  0  0  0  0  0  0  0  0
    8.0468   -3.4040   21.7020 C   0  0  0  0  0  0  0  0  0  0  0  0
    8.7370   -4.3638   20.7191 C   0  0  0  0  0  0  0  0  0  0  0  0
    7.7554   -4.1187   23.0292 C   0  0  0  0  0  0  0  0  0  0  0  0
   10.0883   -2.3893   22.9363 C   0  0  0  0  0  0  0  0  0  0  0  0
    7.1148   -0.8796   17.9231 C   0  0  0  0  0  0  0  0  0  0  0  0
    6.8954   -1.7472   20.2202 N   0  0  0  0  0  0  0  0  0  0  0  0
    8.9981   -2.2022   21.9131 N   0  0  0  0  0  0  0  0  0  0  0  0
    5.4752   -2.4844   18.5326 O   0  0  0  0  0  0  0  0  0  0  0  0
   11.7584    1.8582   25.4441 Cl  0  0  0  0  0  0  0  0  0  0  0  0
    6.2528    0.6548   17.9349 Cl  0  0  0  0  0  0  0  0  0  0  0  0
  1  2  2  0
  1  3  1  0
  2  5  1  0
  3  6  2  0
  4  5  2  0
  4  6  1  0
  5 14  1  0
  6 19  1  0
  7 15  1  0
  7 16  1  0
  7 18  2  0
  8 10  1  0
  8 16  1  0
  9 11  1  0
  9 16  1  0
 10 17  1  0
 11 12  1  0
 11 13  1  0
 11 17  1  0
 14 17  1  0
 15 20  1  0
M  CHG  1  17   1
M  END
