DAN-RED-da448e80-8
     RDKit          3D

 26 28  0  0  1  0  0  0  0  0999 V2000
    8.9249   -1.7808   24.3085 C   0  0  0  0  0  0  0  0  0  0  0  0
    8.9875   -1.9681   21.9006 C   0  0  0  0  0  0  0  0  0  0  0  0
    8.4929   -3.1038   24.4003 C   0  0  0  0  0  0  0  0  0  0  0  0
    8.5555   -3.2912   21.9923 C   0  0  0  0  0  0  0  0  0  0  0  0
    5.1180    0.7158   18.8258 C   0  0  0  0  0  0  0  0  0  0  0  0
    5.9080    0.4803   17.7186 C   0  0  0  0  0  0  0  0  0  0  0  0
    7.8301    0.5011   18.9892 C   0  0  0  0  0  0  0  0  0  0  0  0
    9.1722   -1.2129   23.0587 C   0  0  0  0  0  0  0  0  0  0  0  0
    7.1448    0.7504   20.1761 C   0  0  0  0  0  0  0  0  0  0  0  0
    5.7505    0.8632   20.0599 C   0  0  0  0  0  0  0  0  0  0  0  0
    8.3082   -3.8591   23.2422 C   0  0  0  0  0  0  0  0  0  0  0  0
    9.1583    0.8338   21.6625 C   0  0  0  0  0  0  0  0  0  0  0  0
    6.8234    0.9000   22.5961 C   0  0  0  0  0  0  0  0  0  0  0  0
    5.5863    1.6915   22.2256 C   0  0  0  0  0  0  0  0  0  0  0  0
   13.0014   -2.5074   23.0770 C   0  0  0  0  0  0  0  0  0  0  0  0
   11.1572    0.3842   23.0516 C   0  0  0  0  0  0  0  0  0  0  0  0
    9.6411    0.2206   22.9586 C   0  0  0  0  0  0  0  0  0  0  0  0
    7.2497    0.3718   17.7685 N   0  0  0  0  0  0  0  0  0  0  0  0
    7.7672    0.8404   21.4690 N   0  0  0  0  0  0  0  0  0  0  0  0
   11.8102   -0.3801   21.9635 N   0  0  0  0  0  0  0  0  0  0  0  0
   10.0031    1.2884   20.8891 O   0  0  0  0  0  0  0  0  0  0  0  0
   14.1101   -0.1369   23.1220 O   0  0  0  0  0  0  0  0  0  0  0  0
   13.9345   -1.3634   20.9262 O   0  0  0  0  0  0  0  0  0  0  0  0
    4.9132    1.0967   21.1216 O   0  0  0  0  0  0  0  0  0  0  0  0
    7.8959   -5.1305   23.3303 F   0  0  0  0  0  0  0  0  0  0  0  0
   13.3776   -0.9984   22.2147 S   0  0  0  0  0  0  0  0  0  0  0  0
  1  3  2  0
  1  8  1  0
  2  4  1  0
  2  8  2  0
  3 11  1  0
  4 11  2  0
  5  6  2  0
  5 10  1  0
  6 18  1  0
  7  9  1  0
  7 18  2  0
  8 17  1  0
  9 10  2  0
  9 19  1  0
 10 24  1  0
 11 25  1  0
 12 17  1  0
 12 19  1  0
 12 21  2  0
 13 14  1  0
 13 19  1  0
 14 24  1  0
 15 26  1  0
 16 17  1  0
 16 20  1  0
 20 26  1  0
 22 26  2  0
 23 26  2  0
M  END
