DAN-RED-da448e80-14
     RDKit          3D

 26 28  0  0  1  0  0  0  0  0999 V2000
    7.8837   -0.5124   24.5816 C   0  0  0  0  0  0  0  0  0  0  0  0
    9.7308   -1.2738   23.2231 C   0  0  0  0  0  0  0  0  0  0  0  0
    7.8287   -1.7587   25.2054 C   0  0  0  0  0  0  0  0  0  0  0  0
    9.6759   -2.5202   23.8470 C   0  0  0  0  0  0  0  0  0  0  0  0
    4.4554    1.0096   18.8221 C   0  0  0  0  0  0  0  0  0  0  0  0
    5.1264    0.8147   17.6251 C   0  0  0  0  0  0  0  0  0  0  0  0
    7.2016    0.7461   18.6506 C   0  0  0  0  0  0  0  0  0  0  0  0
    5.2369    1.0686   19.9597 C   0  0  0  0  0  0  0  0  0  0  0  0
    8.8348   -0.2699   23.5904 C   0  0  0  0  0  0  0  0  0  0  0  0
    6.6190    0.9375   19.8835 C   0  0  0  0  0  0  0  0  0  0  0  0
    8.7248   -2.7626   24.8382 C   0  0  0  0  0  0  0  0  0  0  0  0
    8.5482    0.9457   21.4507 C   0  0  0  0  0  0  0  0  0  0  0  0
    4.7806    1.2683   21.3687 C   0  0  0  0  0  0  0  0  0  0  0  0
    6.1060    1.2392   22.1420 C   0  0  0  0  0  0  0  0  0  0  0  0
    7.6757   -4.1575   26.4536 C   0  0  0  0  0  0  0  0  0  0  0  0
    8.9882    5.6290   23.2134 C   0  0  0  0  0  0  0  0  0  0  0  0
   10.2499    1.7771   23.0446 C   0  0  0  0  0  0  0  0  0  0  0  0
    8.8949    1.0816   22.9143 C   0  0  0  0  0  0  0  0  0  0  0  0
    6.4741    0.6816   17.5097 N   0  0  0  0  0  0  0  0  0  0  0  0
    7.1941    1.0320   21.1629 N   0  0  0  0  0  0  0  0  0  0  0  0
   10.0973    3.2271   22.7830 N   0  0  0  0  0  0  0  0  0  0  0  0
    9.4488    0.7729   20.6291 O   0  0  0  0  0  0  0  0  0  0  0  0
   10.9535    4.7418   24.6970 O   0  0  0  0  0  0  0  0  0  0  0  0
    8.6907    3.6452   24.8812 O   0  0  0  0  0  0  0  0  0  0  0  0
    8.6718   -3.9783   25.4479 O   0  0  0  0  0  0  0  0  0  0  0  0
    9.7297    4.2661   24.0822 S   0  0  0  0  0  0  0  0  0  0  0  0
  1  3  2  0
  1  9  1  0
  2  4  1  0
  2  9  2  0
  3 11  1  0
  4 11  2  0
  5  6  2  0
  5  8  1  0
  6 19  1  0
  7 10  1  0
  7 19  2  0
  8 10  2  0
  8 13  1  0
  9 18  1  0
 10 20  1  0
 11 25  1  0
 12 18  1  0
 12 20  1  0
 12 22  2  0
 13 14  1  0
 14 20  1  0
 15 25  1  0
 16 26  1  0
 17 18  1  0
 17 21  1  0
 21 26  1  0
 23 26  2  0
 24 26  2  0
M  END
