DAN-PUR-3907f623-1
     RDKit          3D

 17 17  0  0  1  0  0  0  0  0999 V2000
    6.8441   -5.1117   22.1615 C   0  0  0  0  0  0  0  0  0  0  0  0
   11.1423   -2.4100   24.4013 C   0  0  0  0  0  0  0  0  0  0  0  0
    6.5820   -1.8259   21.5587 C   0  0  0  0  0  0  0  0  0  0  0  0
    9.7767   -4.4703   24.4031 C   0  0  0  0  0  0  0  0  0  0  0  0
    8.2710   -4.5521   24.1798 C   0  0  0  0  0  0  0  0  0  0  0  0
   10.0648   -3.2840   22.2725 C   0  0  0  0  0  0  0  0  0  0  0  0
    8.5554   -3.3312   22.0049 C   0  0  0  0  0  0  0  0  0  0  0  0
    6.5202   -6.4720   22.7268 C   0  0  0  0  0  0  0  0  0  0  0  0
   11.9231   -2.9444   25.5754 C   0  0  0  0  0  0  0  0  0  0  0  0
    7.8864   -1.9858   22.3021 C   0  0  0  0  0  0  0  0  0  0  0  0
   10.3551   -3.3265   23.7063 N   0  0  0  0  0  0  0  0  0  0  0  0
    7.8998   -4.4160   22.7624 N   0  0  0  0  0  0  0  0  0  0  0  0
    5.5175   -1.6661   22.4196 N   0  0  0  0  0  0  0  0  0  0  0  0
    6.1829   -4.6807   21.2131 O   0  0  0  0  0  0  0  0  0  0  0  0
   11.2332   -1.2146   24.1104 O   0  0  0  0  0  0  0  0  0  0  0  0
    6.4747   -1.8365   20.3358 O   0  0  0  0  0  0  0  0  0  0  0  0
   13.3944   -1.9843   25.6808 Cl  0  0  0  0  0  0  0  0  0  0  0  0
  1  8  1  0
  1 12  1  0
  1 14  2  0
  2  9  1  0
  2 11  1  0
  2 15  2  0
  3 10  1  0
  3 13  1  0
  3 16  2  0
  4  5  1  0
  4 11  1  0
  5 12  1  0
  6  7  1  0
  6 11  1  0
  7 10  1  0
  7 12  1  0
  9 17  1  0
M  END
