DAN-LON-a5fc619e-9
     RDKit          3D

 23 25  0  0  1  0  0  0  0  0999 V2000
   13.0555    0.1526   23.0369 C   0  0  0  0  0  0  0  0  0  0  0  0
    6.8805   -3.7521   24.9306 C   0  0  0  0  0  0  0  0  0  0  0  0
   12.2482   -0.8039   22.4214 C   0  0  0  0  0  0  0  0  0  0  0  0
   12.5607    0.8993   24.1062 C   0  0  0  0  0  0  0  0  0  0  0  0
    7.3127   -2.7619   24.0017 C   0  0  0  0  0  0  0  0  0  0  0  0
   10.4511   -0.2671   23.9445 C   0  0  0  0  0  0  0  0  0  0  0  0
    6.5661   -4.9412   24.3104 C   0  0  0  0  0  0  0  0  0  0  0  0
   10.9460   -1.0138   22.8752 C   0  0  0  0  0  0  0  0  0  0  0  0
   11.2585    0.6894   24.5600 C   0  0  0  0  0  0  0  0  0  0  0  0
    7.3123   -3.2321   22.7068 C   0  0  0  0  0  0  0  0  0  0  0  0
    6.2113   -1.2244   18.3636 C   0  0  0  0  0  0  0  0  0  0  0  0
    7.8794   -0.0796   19.7812 C   0  0  0  0  0  0  0  0  0  0  0  0
    6.4717   -1.8051   20.8243 C   0  0  0  0  0  0  0  0  0  0  0  0
    9.1368   -0.7275   20.3324 C   0  0  0  0  0  0  0  0  0  0  0  0
    7.7027   -2.4995   21.4358 C   0  0  0  0  0  0  0  0  0  0  0  0
   10.0777   -2.0420   22.2119 C   0  0  0  0  0  0  0  0  0  0  0  0
    6.1375    0.0006   17.4874 C   0  0  0  0  0  0  0  0  0  0  0  0
    6.8202   -1.0676   19.6082 N   0  0  0  0  0  0  0  0  0  0  0  0
    8.8167   -1.4589   21.6205 N   0  0  0  0  0  0  0  0  0  0  0  0
    5.7388   -2.2876   17.9531 O   0  0  0  0  0  0  0  0  0  0  0  0
    6.7922   -4.8610   22.6149 S   0  0  0  0  0  0  0  0  0  0  0  0
   10.6483    1.6117   25.8786 Cl  0  0  0  0  0  0  0  0  0  0  0  0
    5.1818    1.1903   18.3644 Cl  0  0  0  0  0  0  0  0  0  0  0  0
  1  3  2  0
  1  4  1  0
  2  5  1  0
  2  7  2  0
  3  8  1  0
  4  9  2  0
  5 10  2  0
  6  8  2  0
  6  9  1  0
  7 21  1  0
  8 16  1  0
  9 22  1  0
 10 15  1  0
 10 21  1  0
 11 17  1  0
 11 18  1  0
 11 20  2  0
 12 14  1  0
 12 18  1  0
 13 15  1  0
 13 18  1  0
 14 19  1  0
 15 19  1  0
 16 19  1  0
 17 23  1  0
M  CHG  1  19   1
M  END
