DAN-PUR-3907f623-3
     RDKit          3D

 18 19  0  0  1  0  0  0  0  0999 V2000
    7.1479   -6.6770   22.2367 C   0  0  0  0  0  0  0  0  0  0  0  0
    7.9557   -5.5743   21.9819 C   0  0  0  0  0  0  0  0  0  0  0  0
    6.3269   -6.6357   23.3520 C   0  0  0  0  0  0  0  0  0  0  0  0
    7.0627   -4.5365   23.9266 C   0  0  0  0  0  0  0  0  0  0  0  0
    7.9183   -4.4795   22.8383 C   0  0  0  0  0  0  0  0  0  0  0  0
    8.1858   -2.2831   21.7908 C   0  0  0  0  0  0  0  0  0  0  0  0
   10.0642   -3.8388   24.6171 C   0  0  0  0  0  0  0  0  0  0  0  0
   11.3888   -3.4245   25.2471 C   0  0  0  0  0  0  0  0  0  0  0  0
   10.3856   -1.7068   23.4712 C   0  0  0  0  0  0  0  0  0  0  0  0
   10.0249   -3.1735   23.2383 C   0  0  0  0  0  0  0  0  0  0  0  0
    6.8478   -2.6356   21.1653 C   0  0  0  0  0  0  0  0  0  0  0  0
    6.2633   -5.5901   24.2066 N   0  0  0  0  0  0  0  0  0  0  0  0
    8.7460   -3.3189   22.6003 N   0  0  0  0  0  0  0  0  0  0  0  0
    8.7109   -1.1919   21.5556 O   0  0  0  0  0  0  0  0  0  0  0  0
   12.9391   -1.6120   24.1281 O   0  0  0  0  0  0  0  0  0  0  0  0
   11.2104   -0.8573   25.8251 O   0  0  0  0  0  0  0  0  0  0  0  0
   11.6355   -1.7270   24.7481 S   0  0  0  0  0  0  0  0  0  0  0  0
    6.2682   -1.2872   20.1648 Cl  0  0  0  0  0  0  0  0  0  0  0  0
  1  2  2  0
  1  3  1  0
  2  5  1  0
  3 12  2  0
  4  5  2  0
  4 12  1  0
  5 13  1  0
  6 11  1  0
  6 13  1  0
  6 14  2  0
  7  8  1  0
  7 10  1  0
  8 17  1  0
  9 10  1  0
  9 17  1  0
 10 13  1  0
 11 18  1  0
 15 17  2  0
 16 17  2  0
M  END
