DAN-RED-da448e80-10
     RDKit          3D

 25 27  0  0  1  0  0  0  0  0999 V2000
   13.3807    0.3689   23.8469 C   0  0  0  0  0  0  0  0  0  0  0  0
   12.1296   -1.1266   22.4202 C   0  0  0  0  0  0  0  0  0  0  0  0
   14.2724   -0.6614   24.1449 C   0  0  0  0  0  0  0  0  0  0  0  0
   13.0214   -2.1569   22.7182 C   0  0  0  0  0  0  0  0  0  0  0  0
    6.3612    0.3224   19.3772 C   0  0  0  0  0  0  0  0  0  0  0  0
    6.8379    0.2813   18.0764 C   0  0  0  0  0  0  0  0  0  0  0  0
    9.0319    0.6261   18.7325 C   0  0  0  0  0  0  0  0  0  0  0  0
    7.3019    0.5271   20.3680 C   0  0  0  0  0  0  0  0  0  0  0  0
   12.3092    0.1363   22.9846 C   0  0  0  0  0  0  0  0  0  0  0  0
    8.6474    0.6814   20.0536 C   0  0  0  0  0  0  0  0  0  0  0  0
   14.0928   -1.9243   23.5806 C   0  0  0  0  0  0  0  0  0  0  0  0
   10.7800    1.0657   21.2711 C   0  0  0  0  0  0  0  0  0  0  0  0
    7.0683    0.6144   21.8415 C   0  0  0  0  0  0  0  0  0  0  0  0
    8.4873    0.8478   22.3777 C   0  0  0  0  0  0  0  0  0  0  0  0
   11.0015    5.5555   24.3183 C   0  0  0  0  0  0  0  0  0  0  0  0
   11.9559    2.6499   22.7662 C   0  0  0  0  0  0  0  0  0  0  0  0
   11.3430    1.2536   22.6599 C   0  0  0  0  0  0  0  0  0  0  0  0
    8.1439    0.4270   17.7291 N   0  0  0  0  0  0  0  0  0  0  0  0
    9.4068    0.8773   21.2205 N   0  0  0  0  0  0  0  0  0  0  0  0
   10.9427    3.6712   22.4130 N   0  0  0  0  0  0  0  0  0  0  0  0
   11.5392    1.0890   20.3022 O   0  0  0  0  0  0  0  0  0  0  0  0
    9.7257    3.2966   24.6645 O   0  0  0  0  0  0  0  0  0  0  0  0
    8.8201    4.9717   23.0121 O   0  0  0  0  0  0  0  0  0  0  0  0
    9.9414    4.2994   23.6399 S   0  0  0  0  0  0  0  0  0  0  0  0
   15.1932   -3.1951   23.9482 Cl  0  0  0  0  0  0  0  0  0  0  0  0
  1  3  2  0
  1  9  1  0
  2  4  1  0
  2  9  2  0
  3 11  1  0
  4 11  2  0
  5  6  2  0
  5  8  1  0
  6 18  1  0
  7 10  1  0
  7 18  2  0
  8 10  2  0
  8 13  1  0
  9 17  1  0
 10 19  1  0
 11 25  1  0
 12 17  1  0
 12 19  1  0
 12 21  2  0
 13 14  1  0
 14 19  1  0
 15 24  1  0
 16 17  1  0
 16 20  1  0
 20 24  1  0
 22 24  2  0
 23 24  2  0
M  END
