DAN-RED-da448e80-20
     RDKit          3D

 24 26  0  0  1  0  0  0  0  0999 V2000
    9.0160   -3.2066   22.9328 C   0  0  0  0  0  0  0  0  0  0  0  0
    9.5267   -2.0152   22.3413 C   0  0  0  0  0  0  0  0  0  0  0  0
    5.7403    0.6407   18.8175 C   0  0  0  0  0  0  0  0  0  0  0  0
    6.5371    0.2860   17.7476 C   0  0  0  0  0  0  0  0  0  0  0  0
    8.4431    0.3701   19.0396 C   0  0  0  0  0  0  0  0  0  0  0  0
    8.8055   -3.0631   24.2865 C   0  0  0  0  0  0  0  0  0  0  0  0
    7.7503    0.7430   20.1892 C   0  0  0  0  0  0  0  0  0  0  0  0
    6.3612    0.8817   20.0427 C   0  0  0  0  0  0  0  0  0  0  0  0
    9.6868   -1.0062   23.2656 C   0  0  0  0  0  0  0  0  0  0  0  0
    9.7468    0.9064   21.6918 C   0  0  0  0  0  0  0  0  0  0  0  0
    7.4032    1.1178   22.5810 C   0  0  0  0  0  0  0  0  0  0  0  0
    6.1931    1.9052   22.1229 C   0  0  0  0  0  0  0  0  0  0  0  0
   13.4782   -2.3945   23.4565 C   0  0  0  0  0  0  0  0  0  0  0  0
   11.7151    0.5308   23.1451 C   0  0  0  0  0  0  0  0  0  0  0  0
   10.1963    0.3996   23.0446 C   0  0  0  0  0  0  0  0  0  0  0  0
    7.8745    0.1471   17.8269 N   0  0  0  0  0  0  0  0  0  0  0  0
    8.3589    0.9323   21.4779 N   0  0  0  0  0  0  0  0  0  0  0  0
   12.3601   -0.3451   22.1396 N   0  0  0  0  0  0  0  0  0  0  0  0
   10.6133    1.2673   20.8935 O   0  0  0  0  0  0  0  0  0  0  0  0
   14.6513   -0.0596   23.3056 O   0  0  0  0  0  0  0  0  0  0  0  0
   14.4692   -1.4733   21.2260 O   0  0  0  0  0  0  0  0  0  0  0  0
    5.5176    1.2316   21.0667 O   0  0  0  0  0  0  0  0  0  0  0  0
    9.2227   -1.4969   24.8391 S   0  0  0  0  0  0  0  0  0  0  0  0
   13.9067   -0.9796   22.4683 S   0  0  0  0  0  0  0  0  0  0  0  0
  1  2  1  0
  1  6  2  0
  2  9  2  0
  3  4  2  0
  3  8  1  0
  4 16  1  0
  5  7  1  0
  5 16  2  0
  6 23  1  0
  7  8  2  0
  7 17  1  0
  8 22  1  0
  9 15  1  0
  9 23  1  0
 10 15  1  0
 10 17  1  0
 10 19  2  0
 11 12  1  0
 11 17  1  0
 12 22  1  0
 13 24  1  0
 14 15  1  0
 14 18  1  0
 18 24  1  0
 20 24  2  0
 21 24  2  0
M  END
