DAR-DIA-03336633-15
     RDKit          3D

 19 20  0  0  0  0  0  0  0  0999 V2000
   14.2549   -0.8685   23.2930 C   0  0  0  0  0  0  0  0  0  0  0  0
   13.7222   -2.0890   22.8780 C   0  0  0  0  0  0  0  0  0  0  0  0
   13.4458    0.2670   23.3363 C   0  0  0  0  0  0  0  0  0  0  0  0
   12.3804   -2.1740   22.5063 C   0  0  0  0  0  0  0  0  0  0  0  0
   12.1041    0.1819   22.9646 C   0  0  0  0  0  0  0  0  0  0  0  0
    5.5853    1.2189   19.0978 C   0  0  0  0  0  0  0  0  0  0  0  0
    6.2521    1.0462   17.8956 C   0  0  0  0  0  0  0  0  0  0  0  0
    7.9414   -0.1430   18.9006 C   0  0  0  0  0  0  0  0  0  0  0  0
    6.1534    0.6695   20.2418 C   0  0  0  0  0  0  0  0  0  0  0  0
    7.3539   -0.0259   20.1500 C   0  0  0  0  0  0  0  0  0  0  0  0
   11.5714   -1.0385   22.5496 C   0  0  0  0  0  0  0  0  0  0  0  0
    9.4211   -0.1272   21.6059 C   0  0  0  0  0  0  0  0  0  0  0  0
    8.0120   -0.6418   21.3568 C   0  0  0  0  0  0  0  0  0  0  0  0
    5.4589    0.8372   21.5526 C   0  0  0  0  0  0  0  0  0  0  0  0
    4.6538    2.1313   21.6726 C   0  0  0  0  0  0  0  0  0  0  0  0
    7.4197    0.3770   17.7670 N   0  0  0  0  0  0  0  0  0  0  0  0
   10.2293   -1.1239   22.1778 N   0  0  0  0  0  0  0  0  0  0  0  0
    5.5523    3.3075   21.5675 N   0  0  0  0  0  0  0  0  0  0  0  0
    9.7591    1.0190   21.3280 O   0  0  0  0  0  0  0  0  0  0  0  0
  1  2  2  0
  1  3  1  0
  2  4  1  0
  3  5  2  0
  4 11  2  0
  5 11  1  0
  6  7  2  0
  6  9  1  0
  7 16  1  0
  8 10  1  0
  8 16  2  0
  9 10  2  0
  9 14  1  0
 10 13  1  0
 11 17  1  0
 12 13  1  0
 12 17  1  0
 12 19  2  0
 14 15  1  0
 15 18  1  0
M  CHG  1  18   1
M  END
