DAR-DIA-43a5904b-5
     RDKit          3D

 23 25  0  0  1  0  0  0  0  0999 V2000
   13.4171   -1.3054   21.0724 C   0  0  0  0  0  0  0  0  0  0  0  0
    5.8065    1.6803   18.7697 C   0  0  0  0  0  0  0  0  0  0  0  0
   12.0410   -1.2679   21.2967 C   0  0  0  0  0  0  0  0  0  0  0  0
    5.9477    0.7192   19.7645 C   0  0  0  0  0  0  0  0  0  0  0  0
   14.2979   -1.3798   22.1516 C   0  0  0  0  0  0  0  0  0  0  0  0
   12.4262   -1.3791   23.6792 C   0  0  0  0  0  0  0  0  0  0  0  0
    6.5298    1.5138   17.5997 C   0  0  0  0  0  0  0  0  0  0  0  0
    7.4749   -0.4388   18.3563 C   0  0  0  0  0  0  0  0  0  0  0  0
   11.5455   -1.3048   22.6001 C   0  0  0  0  0  0  0  0  0  0  0  0
    6.7960   -0.3637   19.5618 C   0  0  0  0  0  0  0  0  0  0  0  0
   13.8024   -1.4166   23.4549 C   0  0  0  0  0  0  0  0  0  0  0  0
    9.1826   -1.8426   21.7638 C   0  0  0  0  0  0  0  0  0  0  0  0
    8.0750   -1.1177   21.5669 C   0  0  0  0  0  0  0  0  0  0  0  0
   10.2274    1.2504   22.3935 C   0  0  0  0  0  0  0  0  0  0  0  0
   10.0525   -1.2629   22.8427 C   0  0  0  0  0  0  0  0  0  0  0  0
    8.0346    0.0913   22.4519 C   0  0  0  0  0  0  0  0  0  0  0  0
    9.4486    0.1477   23.0586 C   0  0  0  0  0  0  0  0  0  0  0  0
    6.9702   -1.4228   20.6209 C   0  0  0  0  0  0  0  0  0  0  0  0
    7.3633    0.4753   17.3665 N   0  0  0  0  0  0  0  0  0  0  0  0
   11.1851    1.8176   23.2006 N   0  0  0  0  0  0  0  0  0  0  0  0
   10.0210    1.5850   21.2295 O   0  0  0  0  0  0  0  0  0  0  0  0
    7.0535   -0.0618   23.4683 O   0  0  0  0  0  0  0  0  0  0  0  0
   14.8896   -1.5072   24.7859 Cl  0  0  0  0  0  0  0  0  0  0  0  0
  1  3  2  0
  1  5  1  0
  2  4  2  0
  2  7  1  0
  3  9  1  0
  4 10  1  0
  5 11  2  0
  6  9  2  0
  6 11  1  0
  7 19  2  0
  8 10  2  0
  8 19  1  0
  9 15  1  0
 10 18  1  0
 11 23  1  0
 12 13  2  0
 12 15  1  0
 13 16  1  0
 13 18  1  0
 14 17  1  0
 14 20  1  0
 14 21  2  0
 15 17  1  0
 16 17  1  0
 16 22  1  0
M  END
