DAR-DIA-fb20be43-14
     RDKit          3D

 28 30  0  0  0  0  0  0  0  0999 V2000
   11.6121    1.1656   24.8951 C   0  0  0  0  0  0  0  0  0  0  0  0
   11.7375   -0.4676   23.1023 C   0  0  0  0  0  0  0  0  0  0  0  0
    8.3950    0.0418   26.2171 C   0  0  0  0  0  0  0  0  0  0  0  0
   10.3732    0.6235   25.2909 C   0  0  0  0  0  0  0  0  0  0  0  0
   10.5102   -1.0220   23.4766 C   0  0  0  0  0  0  0  0  0  0  0  0
    9.4434    0.9262   26.3246 C   0  0  0  0  0  0  0  0  0  0  0  0
    9.8519   -0.4557   24.5739 C   0  0  0  0  0  0  0  0  0  0  0  0
   12.2819    0.6093   23.7992 C   0  0  0  0  0  0  0  0  0  0  0  0
    6.1305   -1.5968   18.7369 C   0  0  0  0  0  0  0  0  0  0  0  0
    8.9531    4.8559   25.7439 C   0  0  0  0  0  0  0  0  0  0  0  0
    6.6578   -2.7596   20.8561 C   0  0  0  0  0  0  0  0  0  0  0  0
    7.2702   -0.3807   20.6579 C   0  0  0  0  0  0  0  0  0  0  0  0
    8.0490   -3.0960   21.3725 C   0  0  0  0  0  0  0  0  0  0  0  0
    8.6711   -0.6812   21.1735 C   0  0  0  0  0  0  0  0  0  0  0  0
    8.6813    5.3672   24.3681 C   0  0  0  0  0  0  0  0  0  0  0  0
   14.1167    0.5209   22.2888 C   0  0  0  0  0  0  0  0  0  0  0  0
    9.5708    1.9943   27.3366 C   0  0  0  0  0  0  0  0  0  0  0  0
    9.9534   -2.1812   22.7036 C   0  0  0  0  0  0  0  0  0  0  0  0
    6.2021   -0.3215   17.9354 C   0  0  0  0  0  0  0  0  0  0  0  0
    8.4160    3.0123   27.3236 C   0  0  0  0  0  0  0  0  0  0  0  0
    8.6505   -0.7879   25.1585 N   0  0  0  0  0  0  0  0  0  0  0  0
    6.6842   -1.5622   20.0159 N   0  0  0  0  0  0  0  0  0  0  0  0
    8.2937    3.6773   26.0540 N   0  0  0  0  0  0  0  0  0  0  0  0
    8.6162   -1.8877   22.0838 N   0  0  0  0  0  0  0  0  0  0  0  0
    5.6005   -2.5931   18.2385 O   0  0  0  0  0  0  0  0  0  0  0  0
    9.7082    5.4783   26.4816 O   0  0  0  0  0  0  0  0  0  0  0  0
   13.4809    1.1283   23.4114 O   0  0  0  0  0  0  0  0  0  0  0  0
    5.4692   -0.6667   16.3729 Cl  0  0  0  0  0  0  0  0  0  0  0  0
  1  4  2  0
  1  8  1  0
  2  5  1  0
  2  8  2  0
  3  6  2  0
  3 21  1  0
  4  6  1  0
  4  7  1  0
  5  7  2  0
  5 18  1  0
  6 17  1  0
  7 21  1  0
  8 27  1  0
  9 19  1  0
  9 22  1  0
  9 25  2  0
 10 15  1  0
 10 23  1  0
 10 26  2  0
 11 13  1  0
 11 22  1  0
 12 14  1  0
 12 22  1  0
 13 24  1  0
 14 24  1  0
 16 27  1  0
 17 20  1  0
 18 24  1  0
 19 28  1  0
 20 23  1  0
M  CHG  1  24   1
M  END
