DAR-DIA-a80d16a0-1
     RDKit          3D

 23 25  0  0  1  0  0  0  0  0999 V2000
    6.5506   -1.8556   21.1859 C   0  0  0  0  0  0  0  0  0  0  0  0
    6.4258   -3.0949   21.8038 C   0  0  0  0  0  0  0  0  0  0  0  0
    8.8607   -2.3126   20.8523 C   0  0  0  0  0  0  0  0  0  0  0  0
    7.7878   -1.4495   20.6983 C   0  0  0  0  0  0  0  0  0  0  0  0
    7.5597   -3.8845   21.9082 C   0  0  0  0  0  0  0  0  0  0  0  0
    8.4284   -2.5079   24.4839 C   0  0  0  0  0  0  0  0  0  0  0  0
    7.1901   -2.8767   24.8484 C   0  0  0  0  0  0  0  0  0  0  0  0
    6.8092   -4.3383   24.8483 C   0  0  0  0  0  0  0  0  0  0  0  0
    7.8047   -6.4454   21.7528 C   0  0  0  0  0  0  0  0  0  0  0  0
    6.3713   -6.1648   22.0793 C   0  0  0  0  0  0  0  0  0  0  0  0
    9.2511   -4.8266   24.2870 C   0  0  0  0  0  0  0  0  0  0  0  0
    7.7835   -5.2270   24.0419 C   0  0  0  0  0  0  0  0  0  0  0  0
    7.4494   -5.2154   22.5663 C   0  0  0  0  0  0  0  0  0  0  0  0
    6.2100   -1.6785   26.7745 C   0  0  0  0  0  0  0  0  0  0  0  0
   13.0193   -1.0818   23.9836 C   0  0  0  0  0  0  0  0  0  0  0  0
   13.8133   -2.2177   26.0525 C   0  0  0  0  0  0  0  0  0  0  0  0
    6.1442   -1.8961   25.2785 C   0  0  0  0  0  0  0  0  0  0  0  0
   10.7875   -2.9220   23.8301 C   0  0  0  0  0  0  0  0  0  0  0  0
   11.5679   -2.7560   25.1204 C   0  0  0  0  0  0  0  0  0  0  0  0
    8.7782   -3.5240   21.4468 N   0  0  0  0  0  0  0  0  0  0  0  0
    9.4357   -3.3804   24.1140 N   0  0  0  0  0  0  0  0  0  0  0  0
   12.9589   -2.3400   24.8146 N   0  0  0  0  0  0  0  0  0  0  0  0
    7.9786    0.0719   19.9303 Cl  0  0  0  0  0  0  0  0  0  0  0  0
  1  2  2  0
  1  4  1  0
  2  5  1  0
  3  4  2  0
  3 20  1  0
  4 23  1  0
  5 13  1  0
  5 20  2  0
  6  7  2  0
  6 21  1  0
  7  8  1  0
  7 17  1  0
  8 12  1  0
  9 10  1  0
  9 13  1  0
 10 13  1  0
 11 12  1  0
 11 21  1  0
 12 13  1  0
 14 17  1  0
 15 22  1  0
 16 22  1  0
 18 19  1  0
 18 21  1  0
 19 22  1  0
M  CHG  1  22   1
M  END
