DAR-DIA-fb20be43-18
     RDKit          3D

 29 31  0  0  0  0  0  0  0  0999 V2000
    6.7296   -5.0491   23.9634 C   0  0  0  0  0  0  0  0  0  0  0  0
    4.5248   -5.1125   23.0740 C   0  0  0  0  0  0  0  0  0  0  0  0
    7.1886   -4.6420   22.7156 C   0  0  0  0  0  0  0  0  0  0  0  0
    5.3738   -5.2909   24.1544 C   0  0  0  0  0  0  0  0  0  0  0  0
    6.2583   -4.4928   21.6996 C   0  0  0  0  0  0  0  0  0  0  0  0
   12.0687   -1.3645   25.6523 C   0  0  0  0  0  0  0  0  0  0  0  0
    6.0267   -1.6885   20.0236 C   0  0  0  0  0  0  0  0  0  0  0  0
    9.7122   -2.0517   25.3428 C   0  0  0  0  0  0  0  0  0  0  0  0
   11.4661   -3.7514   25.0140 C   0  0  0  0  0  0  0  0  0  0  0  0
    5.5213    0.7155   19.7221 C   0  0  0  0  0  0  0  0  0  0  0  0
    7.8780    0.0835   20.0765 C   0  0  0  0  0  0  0  0  0  0  0  0
    9.0574   -2.4428   24.0261 C   0  0  0  0  0  0  0  0  0  0  0  0
   10.8362   -4.1697   23.6923 C   0  0  0  0  0  0  0  0  0  0  0  0
    5.7545    1.9040   20.6414 C   0  0  0  0  0  0  0  0  0  0  0  0
    8.0085    1.3182   20.9620 C   0  0  0  0  0  0  0  0  0  0  0  0
    5.8441   -5.8405   26.4198 C   0  0  0  0  0  0  0  0  0  0  0  0
    8.6504   -4.3795   22.5032 C   0  0  0  0  0  0  0  0  0  0  0  0
    6.6940   -4.0582   20.3385 C   0  0  0  0  0  0  0  0  0  0  0  0
   13.5233   -1.7595   25.6108 C   0  0  0  0  0  0  0  0  0  0  0  0
    4.9336   -4.7183   21.8472 N   0  0  0  0  0  0  0  0  0  0  0  0
   11.1431   -2.3557   25.3291 N   0  0  0  0  0  0  0  0  0  0  0  0
    6.4783   -0.3583   19.9987 N   0  0  0  0  0  0  0  0  0  0  0  0
    6.9994   -2.6460   20.2862 N   0  0  0  0  0  0  0  0  0  0  0  0
    9.3490   -3.8999   23.7444 N   0  0  0  0  0  0  0  0  0  0  0  0
   11.7664   -0.2087   25.9602 O   0  0  0  0  0  0  0  0  0  0  0  0
    4.8480   -1.9986   19.8211 O   0  0  0  0  0  0  0  0  0  0  0  0
    7.1100    2.3435   20.5370 O   0  0  0  0  0  0  0  0  0  0  0  0
    4.8971   -5.6854   25.3607 O   0  0  0  0  0  0  0  0  0  0  0  0
   14.4483   -0.3197   26.0222 Cl  0  0  0  0  0  0  0  0  0  0  0  0
  1  3  2  0
  1  4  1  0
  2  4  2  0
  2 20  1  0
  3  5  1  0
  3 17  1  0
  4 28  1  0
  5 18  1  0
  5 20  2  0
  6 19  1  0
  6 21  1  0
  6 25  2  0
  7 22  1  0
  7 23  1  0
  7 26  2  0
  8 12  1  0
  8 21  1  0
  9 13  1  0
  9 21  1  0
 10 14  1  0
 10 22  1  0
 11 15  1  0
 11 22  1  0
 12 24  1  0
 13 24  1  0
 14 27  1  0
 15 27  1  0
 16 28  1  0
 17 24  1  0
 18 23  1  0
 19 29  1  0
M  CHG  1  24   1
M  END
