DAR-DIA-842b4336-15
     RDKit          3D

 17 18  0  0  0  0  0  0  0  0999 V2000
   12.7695    1.5811   23.0651 C   0  0  0  0  0  0  0  0  0  0  0  0
    6.5328   -0.2915   19.5112 C   0  0  0  0  0  0  0  0  0  0  0  0
    7.5569   -0.3805   20.4475 C   0  0  0  0  0  0  0  0  0  0  0  0
    5.5773   -1.2948   19.4978 C   0  0  0  0  0  0  0  0  0  0  0  0
   13.0650   -0.8334   22.2711 C   0  0  0  0  0  0  0  0  0  0  0  0
    6.5906   -2.4061   21.2346 C   0  0  0  0  0  0  0  0  0  0  0  0
   12.4705    0.2094   22.9372 C   0  0  0  0  0  0  0  0  0  0  0  0
    7.5936   -1.4549   21.3293 C   0  0  0  0  0  0  0  0  0  0  0  0
   11.3717   -1.5980   23.2566 C   0  0  0  0  0  0  0  0  0  0  0  0
    9.1569   -2.7436   22.8261 C   0  0  0  0  0  0  0  0  0  0  0  0
   10.2483   -2.4188   23.8338 C   0  0  0  0  0  0  0  0  0  0  0  0
   13.0156    2.7103   23.1703 N   0  0  0  0  0  0  0  0  0  0  0  0
    5.5798   -2.3536   20.3384 N   0  0  0  0  0  0  0  0  0  0  0  0
   12.3565   -1.9890   22.4797 N   0  0  0  0  0  0  0  0  0  0  0  0
    8.6070   -1.5711   22.2776 N   0  0  0  0  0  0  0  0  0  0  0  0
    8.8318   -3.8964   22.5606 O   0  0  0  0  0  0  0  0  0  0  0  0
   11.3716   -0.2757   23.5796 O   0  0  0  0  0  0  0  0  0  0  0  0
  1  7  1  0
  1 12  3  0
  2  3  2  0
  2  4  1  0
  3  8  1  0
  4 13  2  0
  5  7  2  0
  5 14  1  0
  6  8  2  0
  6 13  1  0
  7 17  1  0
  8 15  1  0
  9 11  1  0
  9 14  2  0
  9 17  1  0
 10 11  1  0
 10 15  1  0
 10 16  2  0
M  END
