DAR-DIA-eace69ff-24
     RDKit          3D

 22 24  0  0  0  0  0  0  0  0999 V2000
   12.7940    1.9245   23.0914 C   0  0  0  0  0  0  0  0  0  0  0  0
   11.9393   -0.3457   23.2041 C   0  0  0  0  0  0  0  0  0  0  0  0
    9.8115    3.5290   24.4663 C   0  0  0  0  0  0  0  0  0  0  0  0
   11.5822    2.3986   23.6319 C   0  0  0  0  0  0  0  0  0  0  0  0
   12.9574    0.5501   22.8834 C   0  0  0  0  0  0  0  0  0  0  0  0
   11.0836    3.6885   23.9671 C   0  0  0  0  0  0  0  0  0  0  0  0
   10.5795    1.4779   23.9438 C   0  0  0  0  0  0  0  0  0  0  0  0
   10.7288    0.1013   23.7414 C   0  0  0  0  0  0  0  0  0  0  0  0
    7.2028   -3.1573   22.8500 C   0  0  0  0  0  0  0  0  0  0  0  0
    7.4043   -2.7986   24.3200 C   0  0  0  0  0  0  0  0  0  0  0  0
    8.1722   -2.4050   21.9421 C   0  0  0  0  0  0  0  0  0  0  0  0
    8.8575   -2.9963   24.7533 C   0  0  0  0  0  0  0  0  0  0  0  0
    9.6236   -2.6040   22.3810 C   0  0  0  0  0  0  0  0  0  0  0  0
    9.8534   -2.2494   23.8561 C   0  0  0  0  0  0  0  0  0  0  0  0
   14.2411   -1.4776   22.1575 C   0  0  0  0  0  0  0  0  0  0  0  0
   11.4597    5.0795   21.3450 C   0  0  0  0  0  0  0  0  0  0  0  0
    9.9057    6.2934   22.8655 C   0  0  0  0  0  0  0  0  0  0  0  0
   14.2392    0.0405   22.3129 C   0  0  0  0  0  0  0  0  0  0  0  0
   11.7941    4.9737   23.8105 C   0  0  0  0  0  0  0  0  0  0  0  0
    9.5164    2.1922   24.4486 N   0  0  0  0  0  0  0  0  0  0  0  0
    9.7296   -0.8037   24.0552 N   0  0  0  0  0  0  0  0  0  0  0  0
   11.3111    5.7964   22.6596 N   0  0  0  0  0  0  0  0  0  0  0  0
  1  4  2  0
  1  5  1  0
  2  5  2  0
  2  8  1  0
  3  6  2  0
  3 20  1  0
  4  6  1  0
  4  7  1  0
  5 18  1  0
  6 19  1  0
  7  8  2  0
  7 20  1  0
  8 21  1  0
  9 10  1  0
  9 11  1  0
 10 12  1  0
 11 13  1  0
 12 14  1  0
 13 14  1  0
 14 21  1  0
 15 18  1  0
 16 22  1  0
 17 22  1  0
 19 22  1  0
M  CHG  1  22   1
M  END
