DAR-DIA-842b4336-6
     RDKit          3D

 17 18  0  0  0  0  0  0  0  0999 V2000
   14.1814   -1.5375   26.2361 C   0  0  0  0  0  0  0  0  0  0  0  0
    7.0941   -6.3266   22.2446 C   0  0  0  0  0  0  0  0  0  0  0  0
    7.9368   -5.2935   22.6393 C   0  0  0  0  0  0  0  0  0  0  0  0
    6.0045   -6.0072   21.4504 C   0  0  0  0  0  0  0  0  0  0  0  0
    6.5529   -3.7762   21.4397 C   0  0  0  0  0  0  0  0  0  0  0  0
   12.7784    0.1344   24.9945 C   0  0  0  0  0  0  0  0  0  0  0  0
   13.0930   -1.1306   25.4250 C   0  0  0  0  0  0  0  0  0  0  0  0
    7.6680   -3.9910   22.2335 C   0  0  0  0  0  0  0  0  0  0  0  0
   11.3451   -1.2759   24.2644 C   0  0  0  0  0  0  0  0  0  0  0  0
    9.6639   -2.9695   23.4134 C   0  0  0  0  0  0  0  0  0  0  0  0
   15.0727   -1.8707   26.9003 N   0  0  0  0  0  0  0  0  0  0  0  0
    5.7112   -4.7542   21.0364 N   0  0  0  0  0  0  0  0  0  0  0  0
   12.1708   -2.0300   24.9542 N   0  0  0  0  0  0  0  0  0  0  0  0
    8.4939   -2.9358   22.6133 N   0  0  0  0  0  0  0  0  0  0  0  0
   10.1913   -1.6753   23.5496 N   0  0  0  0  0  0  0  0  0  0  0  0
   10.1395   -3.9854   23.9104 O   0  0  0  0  0  0  0  0  0  0  0  0
   11.6466    0.0513   24.2411 O   0  0  0  0  0  0  0  0  0  0  0  0
  1  7  1  0
  1 11  3  0
  2  3  2  0
  2  4  1  0
  3  8  1  0
  4 12  2  0
  5  8  2  0
  5 12  1  0
  6  7  2  0
  6 17  1  0
  7 13  1  0
  8 14  1  0
  9 13  2  0
  9 15  1  0
  9 17  1  0
 10 14  1  0
 10 15  1  0
 10 16  2  0
M  END
