DAR-DIA-842b4336-9
     RDKit          3D

 17 18  0  0  0  0  0  0  0  0999 V2000
   13.8874   -1.1557   25.6600 C   0  0  0  0  0  0  0  0  0  0  0  0
    7.3408   -6.1353   22.2738 C   0  0  0  0  0  0  0  0  0  0  0  0
   12.6071    0.8040   24.6539 C   0  0  0  0  0  0  0  0  0  0  0  0
    8.0582   -4.9826   22.5734 C   0  0  0  0  0  0  0  0  0  0  0  0
   11.3985    0.8294   23.9178 C   0  0  0  0  0  0  0  0  0  0  0  0
    6.1692   -5.9994   21.5467 C   0  0  0  0  0  0  0  0  0  0  0  0
    6.4063   -3.7177   21.4213 C   0  0  0  0  0  0  0  0  0  0  0  0
   12.8446   -0.5175   24.9528 C   0  0  0  0  0  0  0  0  0  0  0  0
    7.5889   -3.7467   22.1427 C   0  0  0  0  0  0  0  0  0  0  0  0
   10.9837   -0.4784   23.8191 C   0  0  0  0  0  0  0  0  0  0  0  0
    9.4982   -2.4171   23.1455 C   0  0  0  0  0  0  0  0  0  0  0  0
   14.7442   -1.6800   26.2412 N   0  0  0  0  0  0  0  0  0  0  0  0
    5.6817   -4.8161   21.1112 N   0  0  0  0  0  0  0  0  0  0  0  0
    8.2856   -2.5750   22.4278 N   0  0  0  0  0  0  0  0  0  0  0  0
    9.8517   -1.0593   23.2002 N   0  0  0  0  0  0  0  0  0  0  0  0
   10.1388   -3.3376   23.6429 O   0  0  0  0  0  0  0  0  0  0  0  0
   11.8598   -1.3057   24.4474 O   0  0  0  0  0  0  0  0  0  0  0  0
  1  8  1  0
  1 12  3  0
  2  4  2  0
  2  6  1  0
  3  5  1  0
  3  8  2  0
  4  9  1  0
  5 10  2  0
  6 13  2  0
  7  9  2  0
  7 13  1  0
  8 17  1  0
  9 14  1  0
 10 15  1  0
 10 17  1  0
 11 14  1  0
 11 15  1  0
 11 16  2  0
M  END
