DAR-DIA-842b4336-22
     RDKit          3D

 19 21  0  0  0  0  0  0  0  0999 V2000
    5.5815    1.3813   18.8216 C   0  0  0  0  0  0  0  0  0  0  0  0
    6.0930    1.3670   20.1180 C   0  0  0  0  0  0  0  0  0  0  0  0
    8.1674    0.4858   21.4471 C   0  0  0  0  0  0  0  0  0  0  0  0
    6.3062    0.7642   17.8109 C   0  0  0  0  0  0  0  0  0  0  0  0
   14.0906   -0.3287   23.4051 C   0  0  0  0  0  0  0  0  0  0  0  0
    7.3231    0.7238   20.3304 C   0  0  0  0  0  0  0  0  0  0  0  0
    9.2624   -0.2207   20.9982 C   0  0  0  0  0  0  0  0  0  0  0  0
    7.9427    0.1459   19.2262 C   0  0  0  0  0  0  0  0  0  0  0  0
   14.5064   -1.4280   24.1145 C   0  0  0  0  0  0  0  0  0  0  0  0
   12.5659   -1.7721   23.2825 C   0  0  0  0  0  0  0  0  0  0  0  0
   10.2825   -2.1449   22.2865 C   0  0  0  0  0  0  0  0  0  0  0  0
   10.4426   -0.7279   21.7233 C   0  0  0  0  0  0  0  0  0  0  0  0
    7.4934    0.1312   17.9570 N   0  0  0  0  0  0  0  0  0  0  0  0
   12.8466   -0.5553   22.8741 N   0  0  0  0  0  0  0  0  0  0  0  0
    9.1159   -0.4209   19.6500 N   0  0  0  0  0  0  0  0  0  0  0  0
   11.3967   -2.5281   23.0288 N   0  0  0  0  0  0  0  0  0  0  0  0
    9.2713   -2.8051   22.0699 O   0  0  0  0  0  0  0  0  0  0  0  0
   13.5249   -2.3698   24.0414 O   0  0  0  0  0  0  0  0  0  0  0  0
   15.9825   -1.6391   24.9591 Cl  0  0  0  0  0  0  0  0  0  0  0  0
  1  2  2  0
  1  4  1  0
  2  6  1  0
  3  6  1  0
  3  7  2  0
  4 13  2  0
  5  9  2  0
  5 14  1  0
  6  8  2  0
  7 12  1  0
  7 15  1  0
  8 13  1  0
  8 15  1  0
  9 18  1  0
  9 19  1  0
 10 14  2  0
 10 16  1  0
 10 18  1  0
 11 12  1  0
 11 16  1  0
 11 17  2  0
M  END
