DAR-DIA-03336633-3
     RDKit          3D

 29 31  0  0  0  0  0  0  0  0999 V2000
   13.2204   -0.8622   24.8904 C   0  0  0  0  0  0  0  0  0  0  0  0
   11.9265   -0.6158   24.4314 C   0  0  0  0  0  0  0  0  0  0  0  0
   14.2612   -1.0423   23.9793 C   0  0  0  0  0  0  0  0  0  0  0  0
    5.5440    0.6371   19.1351 C   0  0  0  0  0  0  0  0  0  0  0  0
   12.7141   -0.7299   22.1502 C   0  0  0  0  0  0  0  0  0  0  0  0
    6.1599    0.5402   17.8978 C   0  0  0  0  0  0  0  0  0  0  0  0
    8.2132    0.1476   18.8508 C   0  0  0  0  0  0  0  0  0  0  0  0
    6.3324    0.4759   20.2690 C   0  0  0  0  0  0  0  0  0  0  0  0
   11.6733   -0.5497   23.0613 C   0  0  0  0  0  0  0  0  0  0  0  0
    7.6935    0.2263   20.1329 C   0  0  0  0  0  0  0  0  0  0  0  0
   14.0080   -0.9762   22.6092 C   0  0  0  0  0  0  0  0  0  0  0  0
    9.9179   -0.2003   21.2681 C   0  0  0  0  0  0  0  0  0  0  0  0
    6.6347    3.5373   22.8345 C   0  0  0  0  0  0  0  0  0  0  0  0
   10.7508    6.8915   23.9384 C   0  0  0  0  0  0  0  0  0  0  0  0
   10.6341    5.4293   24.3592 C   0  0  0  0  0  0  0  0  0  0  0  0
    9.3840    7.5659   23.8605 C   0  0  0  0  0  0  0  0  0  0  0  0
    9.6781    4.6563   23.4523 C   0  0  0  0  0  0  0  0  0  0  0  0
    8.4269    6.7957   22.9523 C   0  0  0  0  0  0  0  0  0  0  0  0
    8.3034    5.3309   23.3859 C   0  0  0  0  0  0  0  0  0  0  0  0
    5.6879    0.5770   21.6297 C   0  0  0  0  0  0  0  0  0  0  0  0
    5.0047    1.9217   21.8666 C   0  0  0  0  0  0  0  0  0  0  0  0
    7.4789    0.2987   17.7258 N   0  0  0  0  0  0  0  0  0  0  0  0
   10.3602   -0.3008   22.5969 N   0  0  0  0  0  0  0  0  0  0  0  0
    8.5251    0.0571   21.2395 N   0  0  0  0  0  0  0  0  0  0  0  0
    7.4400    4.6081   22.4541 N   0  0  0  0  0  0  0  0  0  0  0  0
    5.9173    3.0347   21.7518 N   0  0  0  0  0  0  0  0  0  0  0  0
   10.6269   -0.3172   20.2737 O   0  0  0  0  0  0  0  0  0  0  0  0
    6.5644    3.0920   23.9792 O   0  0  0  0  0  0  0  0  0  0  0  0
   15.2921   -1.1984   21.4850 Cl  0  0  0  0  0  0  0  0  0  0  0  0
  1  2  2  0
  1  3  1  0
  2  9  1  0
  3 11  2  0
  4  6  2  0
  4  8  1  0
  5  9  2  0
  5 11  1  0
  6 22  1  0
  7 10  1  0
  7 22  2  0
  8 10  2  0
  8 20  1  0
  9 23  1  0
 10 24  1  0
 11 29  1  0
 12 23  1  0
 12 24  1  0
 12 27  2  0
 13 25  1  0
 13 26  1  0
 13 28  2  0
 14 15  1  0
 14 16  1  0
 15 17  1  0
 16 18  1  0
 17 19  1  0
 18 19  1  0
 19 25  1  0
 20 21  1  0
 21 26  1  0
M  END
