DAR-DIA-03336633-8
     RDKit          3D

 28 30  0  0  0  0  0  0  0  0999 V2000
   13.8893   -0.5922   23.7717 C   0  0  0  0  0  0  0  0  0  0  0  0
   13.7336   -1.8291   23.1461 C   0  0  0  0  0  0  0  0  0  0  0  0
   12.7721    0.1976   24.0433 C   0  0  0  0  0  0  0  0  0  0  0  0
   12.4607   -2.2762   22.7918 C   0  0  0  0  0  0  0  0  0  0  0  0
   11.4992   -0.2495   23.6891 C   0  0  0  0  0  0  0  0  0  0  0  0
    5.8879    1.1104   19.3386 C   0  0  0  0  0  0  0  0  0  0  0  0
    6.4213    0.8730   18.0820 C   0  0  0  0  0  0  0  0  0  0  0  0
    8.1444   -0.3738   18.9506 C   0  0  0  0  0  0  0  0  0  0  0  0
   11.3435   -1.4863   23.0634 C   0  0  0  0  0  0  0  0  0  0  0  0
    6.5413    0.5628   20.4370 C   0  0  0  0  0  0  0  0  0  0  0  0
    7.6919   -0.1947   20.2479 C   0  0  0  0  0  0  0  0  0  0  0  0
    9.5480   -1.5482   21.2814 C   0  0  0  0  0  0  0  0  0  0  0  0
    7.3142    4.3075   22.3966 C   0  0  0  0  0  0  0  0  0  0  0  0
    8.8576    6.2346   22.5697 C   0  0  0  0  0  0  0  0  0  0  0  0
    9.8074    4.0748   21.8391 C   0  0  0  0  0  0  0  0  0  0  0  0
   10.0113    6.4343   23.5391 C   0  0  0  0  0  0  0  0  0  0  0  0
   10.9844    4.2671   22.7885 C   0  0  0  0  0  0  0  0  0  0  0  0
   12.4492    5.9928   23.8381 C   0  0  0  0  0  0  0  0  0  0  0  0
    9.9686   -1.9684   22.6809 C   0  0  0  0  0  0  0  0  0  0  0  0
    5.9827    0.8058   21.8175 C   0  0  0  0  0  0  0  0  0  0  0  0
    5.8887    2.2884   22.1695 C   0  0  0  0  0  0  0  0  0  0  0  0
    7.5367    0.1425   17.8589 N   0  0  0  0  0  0  0  0  0  0  0  0
    8.6211    4.8154   22.2931 N   0  0  0  0  0  0  0  0  0  0  0  0
    8.3820   -0.7647   21.3174 N   0  0  0  0  0  0  0  0  0  0  0  0
    7.1709    2.9546   22.1127 N   0  0  0  0  0  0  0  0  0  0  0  0
   11.2349    5.7415   22.9892 N   0  0  0  0  0  0  0  0  0  0  0  0
   10.1773   -1.8775   20.2810 O   0  0  0  0  0  0  0  0  0  0  0  0
    6.3470    5.0085   22.7128 O   0  0  0  0  0  0  0  0  0  0  0  0
  1  2  2  0
  1  3  1  0
  2  4  1  0
  3  5  2  0
  4  9  2  0
  5  9  1  0
  6  7  2  0
  6 10  1  0
  7 22  1  0
  8 11  1  0
  8 22  2  0
  9 19  1  0
 10 11  2  0
 10 20  1  0
 11 24  1  0
 12 19  1  0
 12 24  1  0
 12 27  2  0
 13 23  1  0
 13 25  1  0
 13 28  2  0
 14 16  1  0
 14 23  1  0
 15 17  1  0
 15 23  1  0
 16 26  1  0
 17 26  1  0
 18 26  1  0
 20 21  1  0
 21 25  1  0
M  CHG  1  26   1
M  END
