DAR-DIA-eace69ff-37
     RDKit          3D

 13 14  0  0  0  0  0  0  0  0999 V2000
   14.2289   -0.3752   22.2780 C   0  0  0  0  0  0  0  0  0  0  0  0
   13.1397   -1.1203   22.7387 C   0  0  0  0  0  0  0  0  0  0  0  0
   11.8741    0.9020   23.1921 C   0  0  0  0  0  0  0  0  0  0  0  0
   14.4611    3.2337   22.0826 C   0  0  0  0  0  0  0  0  0  0  0  0
   12.9594    1.6741   22.7324 C   0  0  0  0  0  0  0  0  0  0  0  0
   13.1957    3.0709   22.5975 C   0  0  0  0  0  0  0  0  0  0  0  0
   14.1094    1.0190   22.2868 C   0  0  0  0  0  0  0  0  0  0  0  0
   11.9795   -0.4936   23.1891 C   0  0  0  0  0  0  0  0  0  0  0  0
   11.6376    5.9336   24.5890 C   0  0  0  0  0  0  0  0  0  0  0  0
   12.2590    4.1589   22.9449 C   0  0  0  0  0  0  0  0  0  0  0  0
   15.0042    1.9905   21.8983 N   0  0  0  0  0  0  0  0  0  0  0  0
   12.6083    4.8782   24.2078 N   0  0  0  0  0  0  0  0  0  0  0  0
   10.6585   -1.4466   23.7509 Cl  0  0  0  0  0  0  0  0  0  0  0  0
  1  2  2  0
  1  7  1  0
  2  8  1  0
  3  5  1  0
  3  8  2  0
  4  6  2  0
  4 11  1  0
  5  6  1  0
  5  7  2  0
  6 10  1  0
  7 11  1  0
  8 13  1  0
  9 12  1  0
 10 12  1  0
M  CHG  1  12   1
M  END
