DAR-DIA-43a5904b-16
     RDKit          3D

 30 33  0  0  1  0  0  0  0  0999 V2000
   13.3993   -1.4466   21.0870 C   0  0  0  0  0  0  0  0  0  0  0  0
    5.7033    1.5224   18.8785 C   0  0  0  0  0  0  0  0  0  0  0  0
   12.0294   -1.3686   21.3379 C   0  0  0  0  0  0  0  0  0  0  0  0
    5.8754    0.6095   19.9131 C   0  0  0  0  0  0  0  0  0  0  0  0
   14.3013   -1.4963   22.1498 C   0  0  0  0  0  0  0  0  0  0  0  0
   12.4635   -1.3897   23.7145 C   0  0  0  0  0  0  0  0  0  0  0  0
    6.3771    1.2906   17.6902 C   0  0  0  0  0  0  0  0  0  0  0  0
    7.3331   -0.6336   18.5038 C   0  0  0  0  0  0  0  0  0  0  0  0
   11.5615   -1.3401   22.6516 C   0  0  0  0  0  0  0  0  0  0  0  0
    6.7042   -0.4918   19.7303 C   0  0  0  0  0  0  0  0  0  0  0  0
   13.8334   -1.4678   23.4635 C   0  0  0  0  0  0  0  0  0  0  0  0
    9.1646   -1.8874   21.9097 C   0  0  0  0  0  0  0  0  0  0  0  0
    8.0552   -1.1633   21.7179 C   0  0  0  0  0  0  0  0  0  0  0  0
   10.2341    1.1889   22.1893 C   0  0  0  0  0  0  0  0  0  0  0  0
    8.0481    0.0776   22.5587 C   0  0  0  0  0  0  0  0  0  0  0  0
   10.8731    5.6776   22.9647 C   0  0  0  0  0  0  0  0  0  0  0  0
   11.6626    5.0763   25.2443 C   0  0  0  0  0  0  0  0  0  0  0  0
    9.6510    6.2970   23.6213 C   0  0  0  0  0  0  0  0  0  0  0  0
   10.4000    5.7273   25.7832 C   0  0  0  0  0  0  0  0  0  0  0  0
   10.0755   -1.2541   22.9230 C   0  0  0  0  0  0  0  0  0  0  0  0
    9.5049    0.1790   23.0355 C   0  0  0  0  0  0  0  0  0  0  0  0
    6.9110   -1.5003   20.8327 C   0  0  0  0  0  0  0  0  0  0  0  0
   12.0853    2.8486   22.2245 C   0  0  0  0  0  0  0  0  0  0  0  0
   12.5580    3.8554   23.2562 C   0  0  0  0  0  0  0  0  0  0  0  0
    7.1905    0.2323   17.4754 N   0  0  0  0  0  0  0  0  0  0  0  0
   11.2370    1.8186   22.8647 N   0  0  0  0  0  0  0  0  0  0  0  0
   11.3756    4.5635   23.8525 N   0  0  0  0  0  0  0  0  0  0  0  0
    9.8939    1.3595   21.0245 O   0  0  0  0  0  0  0  0  0  0  0  0
    9.9759    6.7861   24.9233 O   0  0  0  0  0  0  0  0  0  0  0  0
   14.9468   -1.5280   24.7744 Cl  0  0  0  0  0  0  0  0  0  0  0  0
  1  3  2  0
  1  5  1  0
  2  4  2  0
  2  7  1  0
  3  9  1  0
  4 10  1  0
  5 11  2  0
  6  9  2  0
  6 11  1  0
  7 25  2  0
  8 10  2  0
  8 25  1  0
  9 20  1  0
 10 22  1  0
 11 30  1  0
 12 13  2  0
 12 20  1  0
 13 15  1  0
 13 22  1  0
 14 21  1  0
 14 26  1  0
 14 28  2  0
 15 21  1  0
 16 18  1  0
 16 27  1  0
 17 19  1  0
 17 27  1  0
 18 29  1  0
 19 29  1  0
 20 21  1  0
 23 24  1  0
 23 26  1  0
 24 27  1  0
M  CHG  1  27   1
M  END
