DAR-DIA-842b4336-2
     RDKit          3D

 16 17  0  0  0  0  0  0  0  0999 V2000
    7.0078   -6.3346   22.5355 C   0  0  0  0  0  0  0  0  0  0  0  0
    7.9471   -5.3921   22.9388 C   0  0  0  0  0  0  0  0  0  0  0  0
    5.9204   -5.8926   21.7993 C   0  0  0  0  0  0  0  0  0  0  0  0
    6.6513   -3.7154   21.8592 C   0  0  0  0  0  0  0  0  0  0  0  0
   12.3894   -0.5091   24.7738 C   0  0  0  0  0  0  0  0  0  0  0  0
   12.5337   -2.6542   25.2352 C   0  0  0  0  0  0  0  0  0  0  0  0
    7.7728   -4.0553   22.5984 C   0  0  0  0  0  0  0  0  0  0  0  0
   11.7338   -1.7415   24.5920 C   0  0  0  0  0  0  0  0  0  0  0  0
    9.8880   -3.2532   23.7392 C   0  0  0  0  0  0  0  0  0  0  0  0
   14.6867   -2.4683   26.5035 C   0  0  0  0  0  0  0  0  0  0  0  0
    5.7172   -4.6027   21.4495 N   0  0  0  0  0  0  0  0  0  0  0  0
   13.5188   -0.6248   25.4775 N   0  0  0  0  0  0  0  0  0  0  0  0
   13.5790   -1.9407   25.7436 N   0  0  0  0  0  0  0  0  0  0  0  0
    8.6966   -3.0888   22.9884 N   0  0  0  0  0  0  0  0  0  0  0  0
   10.5256   -2.0136   23.9077 N   0  0  0  0  0  0  0  0  0  0  0  0
   10.2953   -4.3255   24.1744 O   0  0  0  0  0  0  0  0  0  0  0  0
  1  2  2  0
  1  3  1  0
  2  7  1  0
  3 11  2  0
  4  7  2  0
  4 11  1  0
  5  8  1  0
  5 12  2  0
  6  8  2  0
  6 13  1  0
  7 14  1  0
  8 15  1  0
  9 14  1  0
  9 15  1  0
  9 16  2  0
 10 13  1  0
 12 13  1  0
M  END
