DAR-DIA-fb20be43-10
     RDKit          3D

 27 29  0  0  0  0  0  0  0  0999 V2000
   12.8368    1.0680   23.8164 C   0  0  0  0  0  0  0  0  0  0  0  0
   12.4203   -1.0354   22.6587 C   0  0  0  0  0  0  0  0  0  0  0  0
   11.6147    0.9206   24.4524 C   0  0  0  0  0  0  0  0  0  0  0  0
   10.8030   -0.1942   24.1939 C   0  0  0  0  0  0  0  0  0  0  0  0
   11.1897   -1.1791   23.3020 C   0  0  0  0  0  0  0  0  0  0  0  0
   13.2369    0.0788   22.9135 C   0  0  0  0  0  0  0  0  0  0  0  0
    9.7722    1.1910   25.7420 C   0  0  0  0  0  0  0  0  0  0  0  0
   10.9422    1.7746   25.4289 C   0  0  0  0  0  0  0  0  0  0  0  0
    6.0723   -2.2397   19.4727 C   0  0  0  0  0  0  0  0  0  0  0  0
   12.7691    4.5023   23.2666 C   0  0  0  0  0  0  0  0  0  0  0  0
    9.5490   -0.1068   25.0061 C   0  0  0  0  0  0  0  0  0  0  0  0
    6.7220   -2.7648   21.8015 C   0  0  0  0  0  0  0  0  0  0  0  0
    7.7013   -0.7626   20.7503 C   0  0  0  0  0  0  0  0  0  0  0  0
    8.0975   -3.2177   22.2686 C   0  0  0  0  0  0  0  0  0  0  0  0
    9.0924   -1.1846   21.2035 C   0  0  0  0  0  0  0  0  0  0  0  0
   13.0364    4.2084   21.8277 C   0  0  0  0  0  0  0  0  0  0  0  0
   10.3217   -2.3710   23.0248 C   0  0  0  0  0  0  0  0  0  0  0  0
   11.5051    3.0459   25.9421 C   0  0  0  0  0  0  0  0  0  0  0  0
    6.2361   -1.3282   18.2827 C   0  0  0  0  0  0  0  0  0  0  0  0
   11.0835    4.2274   25.0738 C   0  0  0  0  0  0  0  0  0  0  0  0
    6.8220   -1.9276   20.6059 N   0  0  0  0  0  0  0  0  0  0  0  0
   11.5425    4.0503   23.7153 N   0  0  0  0  0  0  0  0  0  0  0  0
    8.9744   -2.0021   22.4705 N   0  0  0  0  0  0  0  0  0  0  0  0
    5.3029   -3.2009   19.3945 O   0  0  0  0  0  0  0  0  0  0  0  0
   13.6125    5.0954   23.9289 O   0  0  0  0  0  0  0  0  0  0  0  0
   14.4133    0.1944   22.2824 F   0  0  0  0  0  0  0  0  0  0  0  0
    5.2124   -1.9771   17.0064 Cl  0  0  0  0  0  0  0  0  0  0  0  0
  1  3  2  0
  1  6  1  0
  2  5  1  0
  2  6  2  0
  3  4  1  0
  3  8  1  0
  4  5  2  0
  4 11  1  0
  5 17  1  0
  6 26  1  0
  7  8  2  0
  7 11  1  0
  8 18  1  0
  9 19  1  0
  9 21  1  0
  9 24  2  0
 10 16  1  0
 10 22  1  0
 10 25  2  0
 12 14  1  0
 12 21  1  0
 13 15  1  0
 13 21  1  0
 14 23  1  0
 15 23  1  0
 17 23  1  0
 18 20  1  0
 19 27  1  0
 20 22  1  0
M  CHG  1  23   1
M  END
