DAR-DIA-43a5904b-3
     RDKit          3D

 22 24  0  0  1  0  0  0  0  0999 V2000
   13.3869   -1.6065   21.3551 C   0  0  0  0  0  0  0  0  0  0  0  0
    5.6895    1.3803   19.1670 C   0  0  0  0  0  0  0  0  0  0  0  0
   12.0169   -1.5313   21.6063 C   0  0  0  0  0  0  0  0  0  0  0  0
    5.8621    0.4594   20.1944 C   0  0  0  0  0  0  0  0  0  0  0  0
   14.2892   -1.6556   22.4177 C   0  0  0  0  0  0  0  0  0  0  0  0
   12.4515   -1.5543   23.9828 C   0  0  0  0  0  0  0  0  0  0  0  0
    6.3641    1.1586   17.9772 C   0  0  0  0  0  0  0  0  0  0  0  0
    7.3219   -0.7709   18.7761 C   0  0  0  0  0  0  0  0  0  0  0  0
   11.5492   -1.5052   22.9202 C   0  0  0  0  0  0  0  0  0  0  0  0
    6.6923   -0.6395   20.0033 C   0  0  0  0  0  0  0  0  0  0  0  0
   13.8215   -1.6295   23.7316 C   0  0  0  0  0  0  0  0  0  0  0  0
    9.1532   -2.0493   22.1729 C   0  0  0  0  0  0  0  0  0  0  0  0
    8.0431   -1.3250   21.9863 C   0  0  0  0  0  0  0  0  0  0  0  0
   10.2192    1.0259   22.4772 C   0  0  0  0  0  0  0  0  0  0  0  0
    8.0342   -0.0908   22.8368 C   0  0  0  0  0  0  0  0  0  0  0  0
   10.0630   -1.4230   23.1915 C   0  0  0  0  0  0  0  0  0  0  0  0
    9.4907    0.0085   23.3151 C   0  0  0  0  0  0  0  0  0  0  0  0
    6.8997   -1.6563   21.0979 C   0  0  0  0  0  0  0  0  0  0  0  0
    7.1788    0.1030   17.7545 N   0  0  0  0  0  0  0  0  0  0  0  0
   11.2458    1.6567   23.1392 N   0  0  0  0  0  0  0  0  0  0  0  0
    9.9177    1.2436   21.3063 O   0  0  0  0  0  0  0  0  0  0  0  0
   15.1658   -1.7048   25.3142 I   0  0  0  0  0  0  0  0  0  0  0  0
  1  3  2  0
  1  5  1  0
  2  4  2  0
  2  7  1  0
  3  9  1  0
  4 10  1  0
  5 11  2  0
  6  9  2  0
  6 11  1  0
  7 19  2  0
  8 10  2  0
  8 19  1  0
  9 16  1  0
 10 18  1  0
 11 22  1  0
 12 13  2  0
 12 16  1  0
 13 15  1  0
 13 18  1  0
 14 17  1  0
 14 20  1  0
 14 21  2  0
 15 17  1  0
 16 17  1  0
M  END
