DAR-DIA-eace69ff-18
     RDKit          3D

 23 25  0  0  0  0  0  0  0  0999 V2000
   11.9164   -0.4160   24.1664 C   0  0  0  0  0  0  0  0  0  0  0  0
   12.7557    1.4742   22.8936 C   0  0  0  0  0  0  0  0  0  0  0  0
    8.8052    1.1831   25.2266 C   0  0  0  0  0  0  0  0  0  0  0  0
   10.7649    0.3270   24.4944 C   0  0  0  0  0  0  0  0  0  0  0  0
   12.9026    0.1713   23.3654 C   0  0  0  0  0  0  0  0  0  0  0  0
    9.5970    0.0584   25.2616 C   0  0  0  0  0  0  0  0  0  0  0  0
   10.6447    1.6304   24.0075 C   0  0  0  0  0  0  0  0  0  0  0  0
   11.6223    2.2303   23.2058 C   0  0  0  0  0  0  0  0  0  0  0  0
   10.5624    6.9409   25.3606 C   0  0  0  0  0  0  0  0  0  0  0  0
   12.0473    7.2238   25.1632 C   0  0  0  0  0  0  0  0  0  0  0  0
    9.8046    6.5587   24.0938 C   0  0  0  0  0  0  0  0  0  0  0  0
   12.9022    5.9618   25.2471 C   0  0  0  0  0  0  0  0  0  0  0  0
   10.5111    5.6396   23.1025 C   0  0  0  0  0  0  0  0  0  0  0  0
   12.7890    5.0171   24.0572 C   0  0  0  0  0  0  0  0  0  0  0  0
   11.3740    4.5405   23.7201 C   0  0  0  0  0  0  0  0  0  0  0  0
   13.9532   -1.4038   21.7217 C   0  0  0  0  0  0  0  0  0  0  0  0
    8.5319   -3.5688   25.8297 C   0  0  0  0  0  0  0  0  0  0  0  0
    7.7228   -1.9064   24.1616 C   0  0  0  0  0  0  0  0  0  0  0  0
   14.1251   -0.6096   23.0134 C   0  0  0  0  0  0  0  0  0  0  0  0
    9.2805   -1.1978   25.9706 C   0  0  0  0  0  0  0  0  0  0  0  0
    9.4454    2.1256   24.4676 N   0  0  0  0  0  0  0  0  0  0  0  0
    8.8532   -2.3110   25.0689 N   0  0  0  0  0  0  0  0  0  0  0  0
   11.4933    3.5069   22.7358 O   0  0  0  0  0  0  0  0  0  0  0  0
  1  4  2  0
  1  5  1  0
  2  5  2  0
  2  8  1  0
  3  6  2  0
  3 21  1  0
  4  6  1  0
  4  7  1  0
  5 19  1  0
  6 20  1  0
  7  8  2  0
  7 21  1  0
  8 23  1  0
  9 10  1  0
  9 11  1  0
 10 12  1  0
 11 13  1  0
 12 14  1  0
 13 15  1  0
 14 15  1  0
 15 23  1  0
 16 19  1  0
 17 22  1  0
 18 22  1  0
 20 22  1  0
M  CHG  1  22   1
M  END
