DAR-DIA-caba39e3-10
     RDKit          3D

 30 33  0  0  1  0  0  0  0  0999 V2000
    4.1893   -5.4433   25.6739 C   0  0  0  0  0  0  0  0  0  0  0  0
    5.3723   -5.1048   26.3242 C   0  0  0  0  0  0  0  0  0  0  0  0
   10.4793   -4.3969   24.5709 C   0  0  0  0  0  0  0  0  0  0  0  0
    4.2095   -5.7795   24.3207 C   0  0  0  0  0  0  0  0  0  0  0  0
    6.5770   -5.1055   25.6228 C   0  0  0  0  0  0  0  0  0  0  0  0
   11.6886   -3.9257   25.0826 C   0  0  0  0  0  0  0  0  0  0  0  0
    9.3257   -1.4595   22.6163 C   0  0  0  0  0  0  0  0  0  0  0  0
   11.3412   -1.8153   23.9632 C   0  0  0  0  0  0  0  0  0  0  0  0
    7.6863   -3.2192   22.4078 C   0  0  0  0  0  0  0  0  0  0  0  0
    9.6838   -3.5833   23.7477 C   0  0  0  0  0  0  0  0  0  0  0  0
   10.1212   -2.2731   23.4394 C   0  0  0  0  0  0  0  0  0  0  0  0
    5.4137   -5.7781   23.6006 C   0  0  0  0  0  0  0  0  0  0  0  0
    6.6108   -5.4452   24.2605 C   0  0  0  0  0  0  0  0  0  0  0  0
    8.4639   -4.0412   23.2239 C   0  0  0  0  0  0  0  0  0  0  0  0
    8.1164   -1.9308   22.1045 C   0  0  0  0  0  0  0  0  0  0  0  0
   12.1187   -2.6373   24.7794 C   0  0  0  0  0  0  0  0  0  0  0  0
    6.8059   -5.6998   20.0880 C   0  0  0  0  0  0  0  0  0  0  0  0
    5.3858   -6.1487   22.1379 C   0  0  0  0  0  0  0  0  0  0  0  0
    7.8620   -6.2936   22.2407 C   0  0  0  0  0  0  0  0  0  0  0  0
    7.9335   -5.4384   23.5162 C   0  0  0  0  0  0  0  0  0  0  0  0
    6.1327   -1.6759   20.8178 C   0  0  0  0  0  0  0  0  0  0  0  0
    8.2150   -5.5815   19.5627 C   0  0  0  0  0  0  0  0  0  0  0  0
    6.6720   -5.9869   21.4484 N   0  0  0  0  0  0  0  0  0  0  0  0
   14.7141   -2.5272   24.1824 N   0  0  0  0  0  0  0  0  0  0  0  0
    5.8575   -5.5501   19.3137 O   0  0  0  0  0  0  0  0  0  0  0  0
   13.5826   -0.5968   25.4625 O   0  0  0  0  0  0  0  0  0  0  0  0
   13.9477   -2.8012   26.6267 O   0  0  0  0  0  0  0  0  0  0  0  0
    7.3573   -1.1309   21.3065 O   0  0  0  0  0  0  0  0  0  0  0  0
   13.6345   -2.0513   25.4183 S   0  0  0  0  0  0  0  0  0  0  0  0
    8.0831   -5.2565   17.8382 Cl  0  0  0  0  0  0  0  0  0  0  0  0
  1  2  2  0
  1  4  1  0
  2  5  1  0
  3  6  2  0
  3 10  1  0
  4 12  2  0
  5 13  2  0
  6 16  1  0
  7 11  1  0
  7 15  2  0
  8 11  1  0
  8 16  2  0
  9 14  2  0
  9 15  1  0
 10 11  2  0
 10 14  1  0
 12 13  1  0
 12 18  1  0
 13 20  1  0
 14 20  1  0
 15 28  1  0
 16 29  1  0
 17 22  1  0
 17 23  1  0
 17 25  2  0
 18 23  1  0
 19 20  1  0
 19 23  1  0
 21 28  1  0
 22 30  1  0
 24 29  1  0
 26 29  2  0
 27 29  2  0
M  END
