DAR-DIA-fb20be43-2
     RDKit          3D

 22 24  0  0  0  0  0  0  0  0999 V2000
   14.4110   -0.3155   22.3268 C   0  0  0  0  0  0  0  0  0  0  0  0
   13.7144   -1.3528   21.7139 C   0  0  0  0  0  0  0  0  0  0  0  0
   13.7948    0.4506   23.3167 C   0  0  0  0  0  0  0  0  0  0  0  0
   12.3989   -1.6279   22.0885 C   0  0  0  0  0  0  0  0  0  0  0  0
   11.8355    0.9486   24.7008 C   0  0  0  0  0  0  0  0  0  0  0  0
    9.8234   -0.3637   24.4624 C   0  0  0  0  0  0  0  0  0  0  0  0
   12.4714    0.1878   23.7063 C   0  0  0  0  0  0  0  0  0  0  0  0
   11.7630   -0.8670   23.0829 C   0  0  0  0  0  0  0  0  0  0  0  0
   10.4395   -1.1298   23.4725 C   0  0  0  0  0  0  0  0  0  0  0  0
   10.5200    0.6736   25.0753 C   0  0  0  0  0  0  0  0  0  0  0  0
    5.9725   -1.3625   18.7854 C   0  0  0  0  0  0  0  0  0  0  0  0
    6.2630   -2.3177   21.0491 C   0  0  0  0  0  0  0  0  0  0  0  0
    7.3782   -0.1790   20.5437 C   0  0  0  0  0  0  0  0  0  0  0  0
    7.5542   -2.8780   21.6274 C   0  0  0  0  0  0  0  0  0  0  0  0
    8.6866   -0.7068   21.1164 C   0  0  0  0  0  0  0  0  0  0  0  0
    9.6316   -2.2320   22.8532 C   0  0  0  0  0  0  0  0  0  0  0  0
    6.3098   -0.2530   17.8217 C   0  0  0  0  0  0  0  0  0  0  0  0
    6.5386   -1.2788   20.0567 N   0  0  0  0  0  0  0  0  0  0  0  0
    8.3822   -1.7389   22.1791 N   0  0  0  0  0  0  0  0  0  0  0  0
    5.2302   -2.2764   18.4168 O   0  0  0  0  0  0  0  0  0  0  0  0
    9.9279    1.4085   26.0259 F   0  0  0  0  0  0  0  0  0  0  0  0
    5.0643    0.9759   18.0123 Cl  0  0  0  0  0  0  0  0  0  0  0  0
  1  2  2  0
  1  3  1  0
  2  4  1  0
  3  7  2  0
  4  8  2  0
  5  7  1  0
  5 10  2  0
  6  9  2  0
  6 10  1  0
  7  8  1  0
  8  9  1  0
  9 16  1  0
 10 21  1  0
 11 17  1  0
 11 18  1  0
 11 20  2  0
 12 14  1  0
 12 18  1  0
 13 15  1  0
 13 18  1  0
 14 19  1  0
 15 19  1  0
 16 19  1  0
 17 22  1  0
M  CHG  1  19   1
M  END
