DAR-DIA-842b4336-24
     RDKit          3D

 18 20  0  0  0  0  0  0  0  0999 V2000
    4.9657    1.3248   18.8831 C   0  0  0  0  0  0  0  0  0  0  0  0
    5.3948    1.3917   20.2074 C   0  0  0  0  0  0  0  0  0  0  0  0
    7.9872   -2.7431   26.0702 C   0  0  0  0  0  0  0  0  0  0  0  0
    7.4324    0.6961   21.6942 C   0  0  0  0  0  0  0  0  0  0  0  0
    5.7895    0.7188   17.9440 C   0  0  0  0  0  0  0  0  0  0  0  0
    7.8528   -3.9717   26.6785 C   0  0  0  0  0  0  0  0  0  0  0  0
    9.0591   -4.1264   24.5406 C   0  0  0  0  0  0  0  0  0  0  0  0
    6.6467    0.8375   20.5198 C   0  0  0  0  0  0  0  0  0  0  0  0
    8.6859   -2.8325   24.8317 C   0  0  0  0  0  0  0  0  0  0  0  0
    8.5952    0.0457   21.3414 C   0  0  0  0  0  0  0  0  0  0  0  0
    7.3692    0.2603   19.4796 C   0  0  0  0  0  0  0  0  0  0  0  0
    9.6501   -1.7595   22.7668 C   0  0  0  0  0  0  0  0  0  0  0  0
    9.7568   -0.3569   22.1566 C   0  0  0  0  0  0  0  0  0  0  0  0
    7.0022    0.1696   18.1873 N   0  0  0  0  0  0  0  0  0  0  0  0
    8.5463   -0.2134   19.9962 N   0  0  0  0  0  0  0  0  0  0  0  0
    8.9741   -1.7365   23.9841 N   0  0  0  0  0  0  0  0  0  0  0  0
   10.1256   -2.7379   22.1995 O   0  0  0  0  0  0  0  0  0  0  0  0
    8.5673   -5.2261   25.7575 S   0  0  0  0  0  0  0  0  0  0  0  0
  1  2  2  0
  1  5  1  0
  2  8  1  0
  3  6  2  0
  3  9  1  0
  4  8  1  0
  4 10  2  0
  5 14  2  0
  6 18  1  0
  7  9  2  0
  7 18  1  0
  8 11  2  0
  9 16  1  0
 10 13  1  0
 10 15  1  0
 11 14  1  0
 11 15  1  0
 12 13  1  0
 12 16  1  0
 12 17  2  0
M  END
