DAR-DIA-03336633-11
     RDKit          3D

 27 29  0  0  0  0  0  0  0  0999 V2000
   14.4858   -1.3547   23.4392 C   0  0  0  0  0  0  0  0  0  0  0  0
   13.4854   -1.1704   24.3936 C   0  0  0  0  0  0  0  0  0  0  0  0
   14.1810   -1.2572   22.0815 C   0  0  0  0  0  0  0  0  0  0  0  0
   12.1802   -0.8886   23.9904 C   0  0  0  0  0  0  0  0  0  0  0  0
   12.8757   -0.9755   21.6783 C   0  0  0  0  0  0  0  0  0  0  0  0
    5.6285    0.6011   18.9680 C   0  0  0  0  0  0  0  0  0  0  0  0
    6.1944    0.5141   17.7062 C   0  0  0  0  0  0  0  0  0  0  0  0
    8.2732    0.0595   18.5722 C   0  0  0  0  0  0  0  0  0  0  0  0
    6.4558    0.4018   20.0675 C   0  0  0  0  0  0  0  0  0  0  0  0
   11.8753   -0.7912   22.6327 C   0  0  0  0  0  0  0  0  0  0  0  0
    7.8048    0.1254   19.8745 C   0  0  0  0  0  0  0  0  0  0  0  0
    6.9173    3.3969   22.6809 C   0  0  0  0  0  0  0  0  0  0  0  0
   10.0609   -0.3704   20.9152 C   0  0  0  0  0  0  0  0  0  0  0  0
    8.8175    7.1847   22.4018 C   0  0  0  0  0  0  0  0  0  0  0  0
    9.1363    6.2108   23.5321 C   0  0  0  0  0  0  0  0  0  0  0  0
    7.4728    6.8461   21.7653 C   0  0  0  0  0  0  0  0  0  0  0  0
    9.0592    4.7568   23.0663 C   0  0  0  0  0  0  0  0  0  0  0  0
    7.4360    5.3917   21.3092 C   0  0  0  0  0  0  0  0  0  0  0  0
    5.8662    0.4912   21.4536 C   0  0  0  0  0  0  0  0  0  0  0  0
    5.2227    1.8456   21.7408 C   0  0  0  0  0  0  0  0  0  0  0  0
    7.5001    0.2475   17.4792 N   0  0  0  0  0  0  0  0  0  0  0  0
    7.7763    4.4749   22.4021 N   0  0  0  0  0  0  0  0  0  0  0  0
   10.5512   -0.5053   22.2239 N   0  0  0  0  0  0  0  0  0  0  0  0
    8.6742   -0.0824   20.9450 N   0  0  0  0  0  0  0  0  0  0  0  0
    6.1562    2.9422   21.6106 N   0  0  0  0  0  0  0  0  0  0  0  0
    6.8313    2.8822   23.8009 O   0  0  0  0  0  0  0  0  0  0  0  0
   10.7286   -0.4839   19.8922 O   0  0  0  0  0  0  0  0  0  0  0  0
  1  2  2  0
  1  3  1  0
  2  4  1  0
  3  5  2  0
  4 10  2  0
  5 10  1  0
  6  7  2  0
  6  9  1  0
  7 21  1  0
  8 11  1  0
  8 21  2  0
  9 11  2  0
  9 19  1  0
 10 23  1  0
 11 24  1  0
 12 22  1  0
 12 25  1  0
 12 26  2  0
 13 23  1  0
 13 24  1  0
 13 27  2  0
 14 15  1  0
 14 16  1  0
 15 17  1  0
 16 18  1  0
 17 22  1  0
 18 22  1  0
 19 20  1  0
 20 25  1  0
M  END
