DAR-DIA-03336633-2
     RDKit          3D

 28 30  0  0  0  0  0  0  0  0999 V2000
   13.7870   -0.2574   23.0393 C   0  0  0  0  0  0  0  0  0  0  0  0
   13.7355   -0.9683   21.8403 C   0  0  0  0  0  0  0  0  0  0  0  0
   12.6058    0.1038   23.6873 C   0  0  0  0  0  0  0  0  0  0  0  0
   12.5027   -1.3180   21.2893 C   0  0  0  0  0  0  0  0  0  0  0  0
   11.3730   -0.2458   23.1362 C   0  0  0  0  0  0  0  0  0  0  0  0
    6.1350    1.2517   19.0425 C   0  0  0  0  0  0  0  0  0  0  0  0
    6.6322    0.9437   17.7864 C   0  0  0  0  0  0  0  0  0  0  0  0
    7.7540   -0.8961   18.5832 C   0  0  0  0  0  0  0  0  0  0  0  0
    6.4849    0.4223   20.1022 C   0  0  0  0  0  0  0  0  0  0  0  0
    7.3096   -0.6742   19.8767 C   0  0  0  0  0  0  0  0  0  0  0  0
   11.3214   -0.9567   21.9372 C   0  0  0  0  0  0  0  0  0  0  0  0
    8.8042   -1.0348   21.8865 C   0  0  0  0  0  0  0  0  0  0  0  0
    8.3963    3.4754   22.4483 C   0  0  0  0  0  0  0  0  0  0  0  0
   13.2344    5.9252   22.5078 C   0  0  0  0  0  0  0  0  0  0  0  0
   12.9640    5.0222   23.7080 C   0  0  0  0  0  0  0  0  0  0  0  0
   11.9413    6.4843   21.9211 C   0  0  0  0  0  0  0  0  0  0  0  0
   11.9763    3.9085   23.3642 C   0  0  0  0  0  0  0  0  0  0  0  0
   10.9529    5.3722   21.5746 C   0  0  0  0  0  0  0  0  0  0  0  0
   10.6750    4.4752   22.7858 C   0  0  0  0  0  0  0  0  0  0  0  0
    7.7139   -1.5951   20.9754 C   0  0  0  0  0  0  0  0  0  0  0  0
    5.9590    0.7298   21.4827 C   0  0  0  0  0  0  0  0  0  0  0  0
    6.3626    2.1162   21.9786 C   0  0  0  0  0  0  0  0  0  0  0  0
    7.4356   -0.1126   17.5285 N   0  0  0  0  0  0  0  0  0  0  0  0
   10.0708   -1.3117   21.3780 N   0  0  0  0  0  0  0  0  0  0  0  0
    9.7851    3.3816   22.4004 N   0  0  0  0  0  0  0  0  0  0  0  0
    7.7950    2.2918   22.0275 N   0  0  0  0  0  0  0  0  0  0  0  0
    8.5342   -0.4301   22.9192 O   0  0  0  0  0  0  0  0  0  0  0  0
    7.7788    4.4746   22.8142 O   0  0  0  0  0  0  0  0  0  0  0  0
  1  2  2  0
  1  3  1  0
  2  4  1  0
  3  5  2  0
  4 11  2  0
  5 11  1  0
  6  7  2  0
  6  9  1  0
  7 23  1  0
  8 10  1  0
  8 23  2  0
  9 10  2  0
  9 21  1  0
 10 20  1  0
 11 24  1  0
 12 20  1  0
 12 24  1  0
 12 27  2  0
 13 25  1  0
 13 26  1  0
 13 28  2  0
 14 15  1  0
 14 16  1  0
 15 17  1  0
 16 18  1  0
 17 19  1  0
 18 19  1  0
 19 25  1  0
 21 22  1  0
 22 26  1  0
M  END
