DAR-DIA-fc970077-8
     RDKit          3D

 19 21  0  0  1  0  0  0  0  0999 V2000
   14.2873   -0.7801   23.5251 C   0  0  0  0  0  0  0  0  0  0  0  0
   14.0691   -1.7821   22.5796 C   0  0  0  0  0  0  0  0  0  0  0  0
   13.2033   -0.1532   24.1397 C   0  0  0  0  0  0  0  0  0  0  0  0
    5.9274    1.2294   19.4014 C   0  0  0  0  0  0  0  0  0  0  0  0
   12.7670   -2.1572   22.2486 C   0  0  0  0  0  0  0  0  0  0  0  0
   11.9012   -0.5282   23.8087 C   0  0  0  0  0  0  0  0  0  0  0  0
    6.5601    0.6267   20.4829 C   0  0  0  0  0  0  0  0  0  0  0  0
    6.4405    0.9938   18.1361 C   0  0  0  0  0  0  0  0  0  0  0  0
    8.1059   -0.3544   18.9650 C   0  0  0  0  0  0  0  0  0  0  0  0
   11.6831   -1.5302   22.8632 C   0  0  0  0  0  0  0  0  0  0  0  0
    7.6710   -0.1818   20.2691 C   0  0  0  0  0  0  0  0  0  0  0  0
    9.7283   -1.0989   21.3293 C   0  0  0  0  0  0  0  0  0  0  0  0
    7.6001   -1.0155   22.6186 C   0  0  0  0  0  0  0  0  0  0  0  0
    8.1451   -2.1602   23.4442 C   0  0  0  0  0  0  0  0  0  0  0  0
   10.2679   -1.9370   22.5038 C   0  0  0  0  0  0  0  0  0  0  0  0
    7.5173    0.2146   17.8891 N   0  0  0  0  0  0  0  0  0  0  0  0
    8.3497   -0.8212   21.3718 N   0  0  0  0  0  0  0  0  0  0  0  0
   10.4991   -0.7509   20.4315 O   0  0  0  0  0  0  0  0  0  0  0  0
    9.5149   -1.9054   23.6999 O   0  0  0  0  0  0  0  0  0  0  0  0
  1  2  2  0
  1  3  1  0
  2  5  1  0
  3  6  2  0
  4  7  2  0
  4  8  1  0
  5 10  2  0
  6 10  1  0
  7 11  1  0
  8 16  2  0
  9 11  2  0
  9 16  1  0
 10 15  1  0
 11 17  1  0
 12 15  1  0
 12 17  1  0
 12 18  2  0
 13 14  1  0
 13 17  1  0
 14 19  1  0
 15 19  1  0
M  END
