DAR-DIA-23aa0b97-20
     RDKit          3D

 20 22  0  0  0  0  0  0  0  0999 V2000
   14.5035   -1.6332   23.3349 C   0  0  0  0  0  0  0  0  0  0  0  0
    3.8281    1.7710   20.0987 C   0  0  0  0  0  0  0  0  0  0  0  0
    4.4980    1.8697   21.3160 C   0  0  0  0  0  0  0  0  0  0  0  0
   13.9424   -0.7470   24.2544 C   0  0  0  0  0  0  0  0  0  0  0  0
   13.8698   -1.8655   22.1141 C   0  0  0  0  0  0  0  0  0  0  0  0
    4.5140    1.3625   18.9552 C   0  0  0  0  0  0  0  0  0  0  0  0
    5.8570    1.5604   21.3952 C   0  0  0  0  0  0  0  0  0  0  0  0
   12.7476   -0.0933   23.9532 C   0  0  0  0  0  0  0  0  0  0  0  0
   12.6750   -1.2117   21.8130 C   0  0  0  0  0  0  0  0  0  0  0  0
    6.6167    0.6349   17.9106 C   0  0  0  0  0  0  0  0  0  0  0  0
    8.5522    0.4302   19.1300 C   0  0  0  0  0  0  0  0  0  0  0  0
    5.8816    1.0486   19.0233 C   0  0  0  0  0  0  0  0  0  0  0  0
    6.5634    1.1473   20.2537 C   0  0  0  0  0  0  0  0  0  0  0  0
    7.9259    0.8302   20.3006 C   0  0  0  0  0  0  0  0  0  0  0  0
   12.1139   -0.3256   22.7325 C   0  0  0  0  0  0  0  0  0  0  0  0
    9.8614   -0.1219   21.6237 C   0  0  0  0  0  0  0  0  0  0  0  0
    8.7333    0.9035   21.5541 C   0  0  0  0  0  0  0  0  0  0  0  0
    7.9325    0.3243   17.9353 N   0  0  0  0  0  0  0  0  0  0  0  0
   10.9017    0.3379   22.4271 N   0  0  0  0  0  0  0  0  0  0  0  0
    9.8011   -1.1918   21.0264 O   0  0  0  0  0  0  0  0  0  0  0  0
  1  4  2  0
  1  5  1  0
  2  3  2  0
  2  6  1  0
  3  7  1  0
  4  8  1  0
  5  9  2  0
  6 12  2  0
  7 13  2  0
  8 15  2  0
  9 15  1  0
 10 12  1  0
 10 18  2  0
 11 14  2  0
 11 18  1  0
 12 13  1  0
 13 14  1  0
 14 17  1  0
 15 19  1  0
 16 17  1  0
 16 19  1  0
 16 20  2  0
M  END
