DAR-DIA-23aa0b97-12
     RDKit          3D

 20 22  0  0  0  0  0  0  0  0999 V2000
    6.5265   -5.8869   22.1428 C   0  0  0  0  0  0  0  0  0  0  0  0
    5.1698    1.2448   18.8547 C   0  0  0  0  0  0  0  0  0  0  0  0
    5.6322    1.0082   20.1479 C   0  0  0  0  0  0  0  0  0  0  0  0
    6.8415   -4.5535   21.8812 C   0  0  0  0  0  0  0  0  0  0  0  0
    6.0757   -6.2617   23.4085 C   0  0  0  0  0  0  0  0  0  0  0  0
    6.2550   -3.9697   24.1511 C   0  0  0  0  0  0  0  0  0  0  0  0
    5.9713    0.8793   17.7815 C   0  0  0  0  0  0  0  0  0  0  0  0
    8.8648   -0.5341   20.8633 C   0  0  0  0  0  0  0  0  0  0  0  0
    6.8934    0.4082   20.2938 C   0  0  0  0  0  0  0  0  0  0  0  0
    7.7092    0.0068   21.3845 C   0  0  0  0  0  0  0  0  0  0  0  0
    6.7058   -3.5949   22.8854 C   0  0  0  0  0  0  0  0  0  0  0  0
    5.9399   -5.3031   24.4126 C   0  0  0  0  0  0  0  0  0  0  0  0
    7.5910    0.0932   19.1313 C   0  0  0  0  0  0  0  0  0  0  0  0
    6.9510   -1.1635   23.4961 C   0  0  0  0  0  0  0  0  0  0  0  0
    7.3881    0.1405   22.8196 C   0  0  0  0  0  0  0  0  0  0  0  0
    7.1916    0.2998   17.8622 N   0  0  0  0  0  0  0  0  0  0  0  0
    8.7825   -0.4763   19.4962 N   0  0  0  0  0  0  0  0  0  0  0  0
    7.0267   -2.2425   22.6190 N   0  0  0  0  0  0  0  0  0  0  0  0
    6.5892   -1.1828   24.6682 O   0  0  0  0  0  0  0  0  0  0  0  0
    5.3837   -5.7654   25.9743 Cl  0  0  0  0  0  0  0  0  0  0  0  0
  1  4  2  0
  1  5  1  0
  2  3  2  0
  2  7  1  0
  3  9  1  0
  4 11  1  0
  5 12  2  0
  6 11  2  0
  6 12  1  0
  7 16  2  0
  8 10  2  0
  8 17  1  0
  9 10  1  0
  9 13  2  0
 10 15  1  0
 11 18  1  0
 12 20  1  0
 13 16  1  0
 13 17  1  0
 14 15  1  0
 14 18  1  0
 14 19  2  0
M  END
