DAR-DIA-23aa0b97-7
     RDKit          3D

 19 20  0  0  0  0  0  0  0  0999 V2000
   14.8598   -2.1003   26.7602 C   0  0  0  0  0  0  0  0  0  0  0  0
   12.9069   -2.6467   25.3812 C   0  0  0  0  0  0  0  0  0  0  0  0
    7.2859   -5.5071   22.0117 C   0  0  0  0  0  0  0  0  0  0  0  0
   12.8793   -0.6632   26.6932 C   0  0  0  0  0  0  0  0  0  0  0  0
    7.7585   -5.0169   24.2905 C   0  0  0  0  0  0  0  0  0  0  0  0
   11.0451   -1.1670   25.4048 C   0  0  0  0  0  0  0  0  0  0  0  0
    5.9023   -6.2739   23.7877 C   0  0  0  0  0  0  0  0  0  0  0  0
   13.5503   -1.8027   26.2795 C   0  0  0  0  0  0  0  0  0  0  0  0
    8.1048   -4.8956   22.9544 C   0  0  0  0  0  0  0  0  0  0  0  0
   11.6302   -2.3300   24.9305 C   0  0  0  0  0  0  0  0  0  0  0  0
    6.1615   -6.2113   22.4280 C   0  0  0  0  0  0  0  0  0  0  0  0
    9.6779   -2.9844   23.4796 C   0  0  0  0  0  0  0  0  0  0  0  0
    9.3293   -4.1247   22.5360 C   0  0  0  0  0  0  0  0  0  0  0  0
   15.9253   -2.3423   27.1513 N   0  0  0  0  0  0  0  0  0  0  0  0
   11.6389   -0.3224   26.2775 N   0  0  0  0  0  0  0  0  0  0  0  0
    6.6745   -5.6927   24.7330 N   0  0  0  0  0  0  0  0  0  0  0  0
    5.3166   -6.8396   21.4986 N   0  0  0  0  0  0  0  0  0  0  0  0
   10.9604   -3.1556   24.0307 N   0  0  0  0  0  0  0  0  0  0  0  0
    8.9055   -2.0573   23.7011 O   0  0  0  0  0  0  0  0  0  0  0  0
  1  8  1  0
  1 14  3  0
  2  8  2  0
  2 10  1  0
  3  9  2  0
  3 11  1  0
  4  8  1  0
  4 15  2  0
  5  9  1  0
  5 16  2  0
  6 10  2  0
  6 15  1  0
  7 11  2  0
  7 16  1  0
  9 13  1  0
 10 18  1  0
 11 17  1  0
 12 13  1  0
 12 18  1  0
 12 19  2  0
M  END
