DAR-DIA-842b4336-18
     RDKit          3D

 19 21  0  0  0  0  0  0  0  0999 V2000
    4.5210    1.0613   18.9007 C   0  0  0  0  0  0  0  0  0  0  0  0
    4.9625    1.0450   20.2225 C   0  0  0  0  0  0  0  0  0  0  0  0
    9.1375   -5.3012   25.0434 C   0  0  0  0  0  0  0  0  0  0  0  0
    9.4723   -4.3522   24.0347 C   0  0  0  0  0  0  0  0  0  0  0  0
    7.1156    0.5183   21.6126 C   0  0  0  0  0  0  0  0  0  0  0  0
    5.4095    0.7042   17.8954 C   0  0  0  0  0  0  0  0  0  0  0  0
    6.2924    0.6651   20.4649 C   0  0  0  0  0  0  0  0  0  0  0  0
    8.3585    0.1052   21.1836 C   0  0  0  0  0  0  0  0  0  0  0  0
    8.3985   -4.7370   26.0599 C   0  0  0  0  0  0  0  0  0  0  0  0
    7.0743    0.3317   19.3628 C   0  0  0  0  0  0  0  0  0  0  0  0
    8.9762   -3.0987   24.3186 C   0  0  0  0  0  0  0  0  0  0  0  0
    9.7149   -1.6592   22.3880 C   0  0  0  0  0  0  0  0  0  0  0  0
    7.8640   -5.3835   27.2780 C   0  0  0  0  0  0  0  0  0  0  0  0
    9.5863   -0.1975   21.9431 C   0  0  0  0  0  0  0  0  0  0  0  0
    6.6986    0.3308   18.0698 N   0  0  0  0  0  0  0  0  0  0  0  0
    8.3222   -0.0044   19.8176 N   0  0  0  0  0  0  0  0  0  0  0  0
    9.0699   -1.8819   23.6020 N   0  0  0  0  0  0  0  0  0  0  0  0
   10.3263   -2.4789   21.7103 O   0  0  0  0  0  0  0  0  0  0  0  0
    8.1111   -3.0696   25.7961 S   0  0  0  0  0  0  0  0  0  0  0  0
  1  2  2  0
  1  6  1  0
  2  7  1  0
  3  4  1  0
  3  9  2  0
  4 11  2  0
  5  7  1  0
  5  8  2  0
  6 15  2  0
  7 10  2  0
  8 14  1  0
  8 16  1  0
  9 13  1  0
  9 19  1  0
 10 15  1  0
 10 16  1  0
 11 17  1  0
 11 19  1  0
 12 14  1  0
 12 17  1  0
 12 18  2  0
M  END
