DAR-DIA-caba39e3-3
     RDKit          3D

 25 28  0  0  1  0  0  0  0  0999 V2000
    7.0006   -4.8511   24.2990 C   0  0  0  0  0  0  0  0  0  0  0  0
    8.3607   -4.6028   24.4500 C   0  0  0  0  0  0  0  0  0  0  0  0
    6.2596   -4.1176   23.3748 C   0  0  0  0  0  0  0  0  0  0  0  0
    8.9782   -3.6096   23.6891 C   0  0  0  0  0  0  0  0  0  0  0  0
   13.4723   -0.2504   22.4438 C   0  0  0  0  0  0  0  0  0  0  0  0
   11.7416    0.7104   24.1426 C   0  0  0  0  0  0  0  0  0  0  0  0
    9.4955   -0.1347   23.7709 C   0  0  0  0  0  0  0  0  0  0  0  0
   13.3071   -1.1354   21.4035 C   0  0  0  0  0  0  0  0  0  0  0  0
   12.2021   -0.0601   23.0564 C   0  0  0  0  0  0  0  0  0  0  0  0
    6.8715   -3.1245   22.5940 C   0  0  0  0  0  0  0  0  0  0  0  0
    8.2406   -2.8367   22.7748 C   0  0  0  0  0  0  0  0  0  0  0  0
    9.9293   -0.9074   22.6899 C   0  0  0  0  0  0  0  0  0  0  0  0
   11.2872   -0.8497   22.3566 C   0  0  0  0  0  0  0  0  0  0  0  0
   10.3859    0.6625   24.4874 C   0  0  0  0  0  0  0  0  0  0  0  0
    6.5551   -1.7316   19.2586 C   0  0  0  0  0  0  0  0  0  0  0  0
    6.0316   -2.3701   21.5928 C   0  0  0  0  0  0  0  0  0  0  0  0
    7.9206   -0.8489   21.2101 C   0  0  0  0  0  0  0  0  0  0  0  0
    8.9282   -1.7672   21.9296 C   0  0  0  0  0  0  0  0  0  0  0  0
    8.5433    1.3179   25.8405 C   0  0  0  0  0  0  0  0  0  0  0  0
    6.9007   -0.5285   18.4177 C   0  0  0  0  0  0  0  0  0  0  0  0
   11.9857   -1.4911   21.3586 N   0  0  0  0  0  0  0  0  0  0  0  0
    6.8446   -1.6445   20.6191 N   0  0  0  0  0  0  0  0  0  0  0  0
    6.0457   -2.7182   18.7211 O   0  0  0  0  0  0  0  0  0  0  0  0
    9.9334    1.4068   25.5358 O   0  0  0  0  0  0  0  0  0  0  0  0
    5.9526    0.8139   19.0470 Cl  0  0  0  0  0  0  0  0  0  0  0  0
  1  2  2  0
  1  3  1  0
  2  4  1  0
  3 10  2  0
  4 11  2  0
  5  8  2  0
  5  9  1  0
  6  9  2  0
  6 14  1  0
  7 12  1  0
  7 14  2  0
  8 21  1  0
  9 13  1  0
 10 11  1  0
 10 16  1  0
 11 18  1  0
 12 13  2  0
 12 18  1  0
 13 21  1  0
 14 24  1  0
 15 20  1  0
 15 22  1  0
 15 23  2  0
 16 22  1  0
 17 18  1  0
 17 22  1  0
 19 24  1  0
 20 25  1  0
M  END
