DAR-DIA-23aa0b97-3
     RDKit          3D

 19 20  0  0  0  0  0  0  0  0999 V2000
    1.3800   -5.9338   22.5645 C   0  0  0  0  0  0  0  0  0  0  0  0
    3.5787   -7.5390   25.1031 C   0  0  0  0  0  0  0  0  0  0  0  0
    2.4347   -7.0951   24.4400 C   0  0  0  0  0  0  0  0  0  0  0  0
    4.8404   -7.2755   24.5699 C   0  0  0  0  0  0  0  0  0  0  0  0
    3.8141   -6.1243   22.7103 C   0  0  0  0  0  0  0  0  0  0  0  0
    9.2443   -5.5535   23.6673 C   0  0  0  0  0  0  0  0  0  0  0  0
    8.9992   -3.4833   22.5225 C   0  0  0  0  0  0  0  0  0  0  0  0
   10.0894   -3.5109   24.5446 C   0  0  0  0  0  0  0  0  0  0  0  0
    2.5524   -6.3878   23.2435 C   0  0  0  0  0  0  0  0  0  0  0  0
    8.7743   -4.8498   22.5641 C   0  0  0  0  0  0  0  0  0  0  0  0
    4.9582   -6.5682   23.3735 C   0  0  0  0  0  0  0  0  0  0  0  0
    9.9154   -4.8787   24.6810 C   0  0  0  0  0  0  0  0  0  0  0  0
    6.5378   -5.6134   21.6594 C   0  0  0  0  0  0  0  0  0  0  0  0
    8.0426   -5.5512   21.4498 C   0  0  0  0  0  0  0  0  0  0  0  0
    0.4277   -5.5651   22.0130 N   0  0  0  0  0  0  0  0  0  0  0  0
    9.6470   -2.7932   23.4878 N   0  0  0  0  0  0  0  0  0  0  0  0
   10.4018   -5.5634   25.8067 N   0  0  0  0  0  0  0  0  0  0  0  0
    6.2203   -6.3037   22.8412 N   0  0  0  0  0  0  0  0  0  0  0  0
    5.7445   -5.1121   20.8692 O   0  0  0  0  0  0  0  0  0  0  0  0
  1  9  1  0
  1 15  3  0
  2  3  2  0
  2  4  1  0
  3  9  1  0
  4 11  2  0
  5  9  2  0
  5 11  1  0
  6 10  2  0
  6 12  1  0
  7 10  1  0
  7 16  2  0
  8 12  2  0
  8 16  1  0
 10 14  1  0
 11 18  1  0
 12 17  1  0
 13 14  1  0
 13 18  1  0
 13 19  2  0
M  END
