DAR-DIA-eace69ff-19
     RDKit          3D

 23 25  0  0  0  0  0  0  0  0999 V2000
    6.7166    1.7519   21.7587 C   0  0  0  0  0  0  0  0  0  0  0  0
    9.0088    1.8316   22.5207 C   0  0  0  0  0  0  0  0  0  0  0  0
    8.8764    0.5176   19.0406 C   0  0  0  0  0  0  0  0  0  0  0  0
    6.7029    0.4364   18.3030 C   0  0  0  0  0  0  0  0  0  0  0  0
    7.1294    1.2410   20.5173 C   0  0  0  0  0  0  0  0  0  0  0  0
    8.5040    1.0266   20.2863 C   0  0  0  0  0  0  0  0  0  0  0  0
    7.6520    2.0447   22.7526 C   0  0  0  0  0  0  0  0  0  0  0  0
    6.2163    0.9375   19.5008 C   0  0  0  0  0  0  0  0  0  0  0  0
    9.4364    1.3248   21.2938 C   0  0  0  0  0  0  0  0  0  0  0  0
   13.8778   -1.1543   22.8778 C   0  0  0  0  0  0  0  0  0  0  0  0
   12.7946   -1.8939   22.0960 C   0  0  0  0  0  0  0  0  0  0  0  0
   13.3036    0.0194   23.6679 C   0  0  0  0  0  0  0  0  0  0  0  0
   12.0039   -0.9468   21.1994 C   0  0  0  0  0  0  0  0  0  0  0  0
   12.5128    0.9664   22.7712 C   0  0  0  0  0  0  0  0  0  0  0  0
   11.4274    0.2265   21.9908 C   0  0  0  0  0  0  0  0  0  0  0  0
    6.9011    1.4838   25.0782 C   0  0  0  0  0  0  0  0  0  0  0  0
    2.7355    2.4813   19.0645 C   0  0  0  0  0  0  0  0  0  0  0  0
    4.9616    3.5793   19.2635 C   0  0  0  0  0  0  0  0  0  0  0  0
    7.1984    2.5871   24.0662 C   0  0  0  0  0  0  0  0  0  0  0  0
    4.7434    1.1289   19.6489 C   0  0  0  0  0  0  0  0  0  0  0  0
    8.0102    0.2183   18.0464 N   0  0  0  0  0  0  0  0  0  0  0  0
    4.2253    2.3126   18.9099 N   0  0  0  0  0  0  0  0  0  0  0  0
   10.7784    1.1294   21.1019 O   0  0  0  0  0  0  0  0  0  0  0  0
  1  5  2  0
  1  7  1  0
  2  7  2  0
  2  9  1  0
  3  6  1  0
  3 21  2  0
  4  8  2  0
  4 21  1  0
  5  6  1  0
  5  8  1  0
  6  9  2  0
  7 19  1  0
  8 20  1  0
  9 23  1  0
 10 11  1  0
 10 12  1  0
 11 13  1  0
 12 14  1  0
 13 15  1  0
 14 15  1  0
 15 23  1  0
 16 19  1  0
 17 22  1  0
 18 22  1  0
 20 22  1  0
M  CHG  1  22   1
M  END
