DAR-DIA-43a5904b-11
     RDKit          3D

 22 24  0  0  1  0  0  0  0  0999 V2000
   12.6822    1.1044   23.9797 C   0  0  0  0  0  0  0  0  0  0  0  0
   11.3026    1.0621   24.1811 C   0  0  0  0  0  0  0  0  0  0  0  0
   13.2713    0.2888   23.0135 C   0  0  0  0  0  0  0  0  0  0  0  0
   11.1012   -0.6114   22.4503 C   0  0  0  0  0  0  0  0  0  0  0  0
    7.4361   -5.1637   24.8801 C   0  0  0  0  0  0  0  0  0  0  0  0
    9.2855   -4.0984   24.3510 C   0  0  0  0  0  0  0  0  0  0  0  0
   10.5121    0.2042   23.4164 C   0  0  0  0  0  0  0  0  0  0  0  0
    7.9321   -4.0898   24.1169 C   0  0  0  0  0  0  0  0  0  0  0  0
   12.4808   -0.5691   22.2488 C   0  0  0  0  0  0  0  0  0  0  0  0
    8.5292   -1.1964   24.0800 C   0  0  0  0  0  0  0  0  0  0  0  0
    7.7710   -1.7941   23.1523 C   0  0  0  0  0  0  0  0  0  0  0  0
    8.7566    1.2161   21.3090 C   0  0  0  0  0  0  0  0  0  0  0  0
    7.6124   -0.9435   21.9308 C   0  0  0  0  0  0  0  0  0  0  0  0
    9.0131    0.1579   23.6368 C   0  0  0  0  0  0  0  0  0  0  0  0
    8.1130    0.4256   22.4068 C   0  0  0  0  0  0  0  0  0  0  0  0
   10.7855   -5.5448   25.7426 C   0  0  0  0  0  0  0  0  0  0  0  0
    7.1549   -3.1430   23.2368 C   0  0  0  0  0  0  0  0  0  0  0  0
    8.3962   -5.8077   25.5490 N   0  0  0  0  0  0  0  0  0  0  0  0
    9.5091   -5.1367   25.2067 N   0  0  0  0  0  0  0  0  0  0  0  0
    9.2065    2.4530   21.7066 N   0  0  0  0  0  0  0  0  0  0  0  0
    8.8761    0.7732   20.1693 O   0  0  0  0  0  0  0  0  0  0  0  0
   13.2083   -1.5759   21.0577 Cl  0  0  0  0  0  0  0  0  0  0  0  0
  1  2  2  0
  1  3  1  0
  2  7  1  0
  3  9  2  0
  4  7  2  0
  4  9  1  0
  5  8  1  0
  5 18  2  0
  6  8  2  0
  6 19  1  0
  7 14  1  0
  8 17  1  0
  9 22  1  0
 10 11  2  0
 10 14  1  0
 11 13  1  0
 11 17  1  0
 12 15  1  0
 12 20  1  0
 12 21  2  0
 13 15  1  0
 14 15  1  0
 16 19  1  0
 18 19  1  0
M  END
