DAR-DIA-a80d16a0-4
     RDKit          3D

 21 23  0  0  1  0  0  0  0  0999 V2000
   12.7484   -1.5936   23.0082 C   0  0  0  0  0  0  0  0  0  0  0  0
   11.4813   -1.8456   22.4939 C   0  0  0  0  0  0  0  0  0  0  0  0
   11.7513   -0.1580   24.6211 C   0  0  0  0  0  0  0  0  0  0  0  0
   12.8945   -0.7349   24.0920 C   0  0  0  0  0  0  0  0  0  0  0  0
   10.4013   -1.2191   23.0947 C   0  0  0  0  0  0  0  0  0  0  0  0
    8.0030   -5.2583   24.2243 C   0  0  0  0  0  0  0  0  0  0  0  0
    8.2013   -5.2036   22.9021 C   0  0  0  0  0  0  0  0  0  0  0  0
    8.6235   -3.9307   22.2348 C   0  0  0  0  0  0  0  0  0  0  0  0
    8.7546   -1.1084   21.1152 C   0  0  0  0  0  0  0  0  0  0  0  0
    8.1700   -0.2773   22.2141 C   0  0  0  0  0  0  0  0  0  0  0  0
    8.7738   -2.9420   24.5829 C   0  0  0  0  0  0  0  0  0  0  0  0
    8.3522   -2.6946   23.1194 C   0  0  0  0  0  0  0  0  0  0  0  0
    9.0352   -1.4743   22.5604 C   0  0  0  0  0  0  0  0  0  0  0  0
    4.4981   -5.6496   26.6696 C   0  0  0  0  0  0  0  0  0  0  0  0
    8.0769   -4.3334   26.5272 C   0  0  0  0  0  0  0  0  0  0  0  0
    6.9626   -5.3013   26.8778 C   0  0  0  0  0  0  0  0  0  0  0  0
   10.5040   -0.3788   24.1488 N   0  0  0  0  0  0  0  0  0  0  0  0
    8.1845   -4.1905   25.0832 N   0  0  0  0  0  0  0  0  0  0  0  0
    5.6654   -4.7688   26.3929 N   0  0  0  0  0  0  0  0  0  0  0  0
    8.0022   -6.3109   22.1553 F   0  0  0  0  0  0  0  0  0  0  0  0
   14.4416   -0.4014   24.7524 Cl  0  0  0  0  0  0  0  0  0  0  0  0
  1  2  2  0
  1  4  1  0
  2  5  1  0
  3  4  2  0
  3 17  1  0
  4 21  1  0
  5 13  1  0
  5 17  2  0
  6  7  2  0
  6 18  1  0
  7  8  1  0
  7 20  1  0
  8 12  1  0
  9 10  1  0
  9 13  1  0
 10 13  1  0
 11 12  1  0
 11 18  1  0
 12 13  1  0
 14 19  1  0
 15 16  1  0
 15 18  1  0
 16 19  1  0
M  CHG  1  19   1
M  END
