DAR-DIA-eace69ff-3
     RDKit          3D

 31 34  0  0  0  0  0  0  0  0999 V2000
   11.7368    1.5663   23.7480 C   0  0  0  0  0  0  0  0  0  0  0  0
   10.5853    1.4346   22.9719 C   0  0  0  0  0  0  0  0  0  0  0  0
   11.7592    1.0719   25.0521 C   0  0  0  0  0  0  0  0  0  0  0  0
    9.4562    0.8087   23.4999 C   0  0  0  0  0  0  0  0  0  0  0  0
   10.6300    0.4459   25.5802 C   0  0  0  0  0  0  0  0  0  0  0  0
    7.9739   -5.1031   23.0652 C   0  0  0  0  0  0  0  0  0  0  0  0
    7.6208   -3.2523   21.5309 C   0  0  0  0  0  0  0  0  0  0  0  0
    8.2983   -3.1414   26.0922 C   0  0  0  0  0  0  0  0  0  0  0  0
    7.9443   -2.7920   23.8871 C   0  0  0  0  0  0  0  0  0  0  0  0
    7.7477   -4.6185   21.7737 C   0  0  0  0  0  0  0  0  0  0  0  0
    8.0674   -4.1665   24.1007 C   0  0  0  0  0  0  0  0  0  0  0  0
    7.7166   -2.3269   22.5767 C   0  0  0  0  0  0  0  0  0  0  0  0
    9.4785    0.3143   24.8041 C   0  0  0  0  0  0  0  0  0  0  0  0
    8.0923   -2.1578   25.1524 C   0  0  0  0  0  0  0  0  0  0  0  0
    5.5463    1.4083   19.4592 C   0  0  0  0  0  0  0  0  0  0  0  0
    4.7192    0.6828   20.5181 C   0  0  0  0  0  0  0  0  0  0  0  0
    6.7163    0.5559   18.9733 C   0  0  0  0  0  0  0  0  0  0  0  0
    5.5867    0.2063   21.6785 C   0  0  0  0  0  0  0  0  0  0  0  0
    7.5837    0.0794   20.1339 C   0  0  0  0  0  0  0  0  0  0  0  0
    6.7563   -0.6486   21.1922 C   0  0  0  0  0  0  0  0  0  0  0  0
    6.2066   -6.0480   20.4070 C   0  0  0  0  0  0  0  0  0  0  0  0
    6.0258   -6.2512   25.9978 C   0  0  0  0  0  0  0  0  0  0  0  0
    6.9614   -5.1905   28.0390 C   0  0  0  0  0  0  0  0  0  0  0  0
    7.6410   -5.5822   20.6380 C   0  0  0  0  0  0  0  0  0  0  0  0
    8.4684   -5.6256   26.1043 C   0  0  0  0  0  0  0  0  0  0  0  0
    8.2819   -4.3495   25.4482 N   0  0  0  0  0  0  0  0  0  0  0  0
    7.2448   -6.0908   26.8660 N   0  0  0  0  0  0  0  0  0  0  0  0
    8.1393   -0.2374   26.9263 O   0  0  0  0  0  0  0  0  0  0  0  0
    6.8753    0.0720   24.7682 O   0  0  0  0  0  0  0  0  0  0  0  0
    7.5876   -0.9928   22.2953 O   0  0  0  0  0  0  0  0  0  0  0  0
    8.0318   -0.4839   25.4807 S   0  0  0  0  0  0  0  0  0  0  0  0
  1  2  2  0
  1  3  1  0
  2  4  1  0
  3  5  2  0
  4 13  2  0
  5 13  1  0
  6 10  2  0
  6 11  1  0
  7 10  1  0
  7 12  2  0
  8 14  2  0
  8 26  1  0
  9 11  2  0
  9 12  1  0
  9 14  1  0
 10 24  1  0
 11 26  1  0
 12 30  1  0
 13 31  1  0
 14 31  1  0
 15 16  1  0
 15 17  1  0
 16 18  1  0
 17 19  1  0
 18 20  1  0
 19 20  1  0
 20 30  1  0
 21 24  1  0
 22 27  1  0
 23 27  1  0
 25 26  1  0
 25 27  1  0
 28 31  2  0
 29 31  2  0
M  CHG  1  27   1
M  END
