DAR-DIA-eace69ff-28
     RDKit          3D

 22 24  0  0  0  0  0  0  0  0999 V2000
    7.8625   -3.2999   21.5761 C   0  0  0  0  0  0  0  0  0  0  0  0
    9.3519   -1.6503   22.5228 C   0  0  0  0  0  0  0  0  0  0  0  0
    8.5997   -6.2474   23.7237 C   0  0  0  0  0  0  0  0  0  0  0  0
    8.3093   -4.2647   22.5112 C   0  0  0  0  0  0  0  0  0  0  0  0
    8.3869   -2.0048   21.5909 C   0  0  0  0  0  0  0  0  0  0  0  0
    7.9276   -5.6365   22.6919 C   0  0  0  0  0  0  0  0  0  0  0  0
    9.8129   -2.5788   23.4580 C   0  0  0  0  0  0  0  0  0  0  0  0
    9.2822   -3.8836   23.4405 C   0  0  0  0  0  0  0  0  0  0  0  0
   12.7137    0.2029   25.4961 C   0  0  0  0  0  0  0  0  0  0  0  0
   13.4550   -1.1273   25.6242 C   0  0  0  0  0  0  0  0  0  0  0  0
   11.3000    0.1574   24.9157 C   0  0  0  0  0  0  0  0  0  0  0  0
   13.2675   -2.0832   24.4498 C   0  0  0  0  0  0  0  0  0  0  0  0
   10.5021   -1.0824   25.3039 C   0  0  0  0  0  0  0  0  0  0  0  0
   12.0123   -2.9560   24.5630 C   0  0  0  0  0  0  0  0  0  0  0  0
    6.7035   -0.2099   21.1103 C   0  0  0  0  0  0  0  0  0  0  0  0
    4.5090   -6.6689   21.3142 C   0  0  0  0  0  0  0  0  0  0  0  0
    5.1909   -6.0940   23.6391 C   0  0  0  0  0  0  0  0  0  0  0  0
    7.9047   -1.0004   20.5986 C   0  0  0  0  0  0  0  0  0  0  0  0
    6.9158   -6.3339   21.8592 C   0  0  0  0  0  0  0  0  0  0  0  0
   10.7833   -2.1840   24.3783 N   0  0  0  0  0  0  0  0  0  0  0  0
    5.5106   -5.9451   22.1750 N   0  0  0  0  0  0  0  0  0  0  0  0
    9.6947   -5.1889   24.4890 S   0  0  0  0  0  0  0  0  0  0  0  0
  1  4  2  0
  1  5  1  0
  2  5  2  0
  2  7  1  0
  3  6  2  0
  3 22  1  0
  4  6  1  0
  4  8  1  0
  5 18  1  0
  6 19  1  0
  7  8  2  0
  7 20  1  0
  8 22  1  0
  9 10  1  0
  9 11  1  0
 10 12  1  0
 11 13  1  0
 12 14  1  0
 13 20  1  0
 14 20  1  0
 15 18  1  0
 16 21  1  0
 17 21  1  0
 19 21  1  0
M  CHG  1  21   1
M  END
