DAR-DIA-23aa0b97-19
     RDKit          3D

 22 24  0  0  0  0  0  0  0  0999 V2000
    5.6880   -1.0556   18.4218 C   0  0  0  0  0  0  0  0  0  0  0  0
   12.7403    2.2635   23.3297 C   0  0  0  0  0  0  0  0  0  0  0  0
   11.5364    2.2446   24.0301 C   0  0  0  0  0  0  0  0  0  0  0  0
    5.2390    1.0750   21.4409 C   0  0  0  0  0  0  0  0  0  0  0  0
    5.0682    0.5473   20.1611 C   0  0  0  0  0  0  0  0  0  0  0  0
   13.2666    1.0795   22.8136 C   0  0  0  0  0  0  0  0  0  0  0  0
   10.8533    1.0417   24.2175 C   0  0  0  0  0  0  0  0  0  0  0  0
    6.2058    0.5402   22.2925 C   0  0  0  0  0  0  0  0  0  0  0  0
    6.8308   -1.0500   20.5844 C   0  0  0  0  0  0  0  0  0  0  0  0
   13.0686   -1.3505   22.5013 C   0  0  0  0  0  0  0  0  0  0  0  0
   11.2813   -2.5245   23.3392 C   0  0  0  0  0  0  0  0  0  0  0  0
    5.8640   -0.5152   19.7329 C   0  0  0  0  0  0  0  0  0  0  0  0
   12.5877   -0.1367   22.9961 C   0  0  0  0  0  0  0  0  0  0  0  0
   11.3686   -0.1599   23.7046 C   0  0  0  0  0  0  0  0  0  0  0  0
   10.7077   -1.3818   23.8757 C   0  0  0  0  0  0  0  0  0  0  0  0
    7.0016   -0.5222   21.8643 C   0  0  0  0  0  0  0  0  0  0  0  0
    8.2867   -0.6612   24.0263 C   0  0  0  0  0  0  0  0  0  0  0  0
    9.4138   -1.5087   24.6094 C   0  0  0  0  0  0  0  0  0  0  0  0
    5.5452   -1.4945   17.3571 N   0  0  0  0  0  0  0  0  0  0  0  0
   12.4455   -2.5406   22.6559 N   0  0  0  0  0  0  0  0  0  0  0  0
    7.9833   -1.0636   22.7281 N   0  0  0  0  0  0  0  0  0  0  0  0
    7.7589    0.2426   24.6664 O   0  0  0  0  0  0  0  0  0  0  0  0
  1 12  1  0
  1 19  3  0
  2  3  2  0
  2  6  1  0
  3  7  1  0
  4  5  2  0
  4  8  1  0
  5 12  1  0
  6 13  2  0
  7 14  2  0
  8 16  2  0
  9 12  2  0
  9 16  1  0
 10 13  1  0
 10 20  2  0
 11 15  2  0
 11 20  1  0
 13 14  1  0
 14 15  1  0
 15 18  1  0
 16 21  1  0
 17 18  1  0
 17 21  1  0
 17 22  2  0
M  END
