DAR-DIA-842b4336-11
     RDKit          3D

 16 17  0  0  0  0  0  0  0  0999 V2000
    5.9108    0.8003   19.5318 C   0  0  0  0  0  0  0  0  0  0  0  0
    6.8846    0.9896   20.5061 C   0  0  0  0  0  0  0  0  0  0  0  0
    6.3284    0.4650   18.2540 C   0  0  0  0  0  0  0  0  0  0  0  0
   11.9477   -1.3370   22.5547 C   0  0  0  0  0  0  0  0  0  0  0  0
    8.5412    0.5028   18.8707 C   0  0  0  0  0  0  0  0  0  0  0  0
   13.3346    0.0851   23.4978 C   0  0  0  0  0  0  0  0  0  0  0  0
   12.1782    0.0368   22.7583 C   0  0  0  0  0  0  0  0  0  0  0  0
    8.2273    0.8400   20.1774 C   0  0  0  0  0  0  0  0  0  0  0  0
   10.6174    0.9121   20.9691 C   0  0  0  0  0  0  0  0  0  0  0  0
   14.8747   -1.6701   24.4067 C   0  0  0  0  0  0  0  0  0  0  0  0
   11.3467    1.1953   22.2731 C   0  0  0  0  0  0  0  0  0  0  0  0
    7.6232    0.3108   17.8970 N   0  0  0  0  0  0  0  0  0  0  0  0
   12.8828   -2.1058   23.1190 N   0  0  0  0  0  0  0  0  0  0  0  0
   13.7121   -1.2122   23.6845 N   0  0  0  0  0  0  0  0  0  0  0  0
    9.2249    1.0235   21.1318 N   0  0  0  0  0  0  0  0  0  0  0  0
   11.2114    0.6256   19.9346 O   0  0  0  0  0  0  0  0  0  0  0  0
  1  2  2  0
  1  3  1  0
  2  8  1  0
  3 12  2  0
  4  7  1  0
  4 13  2  0
  5  8  2  0
  5 12  1  0
  6  7  2  0
  6 14  1  0
  7 11  1  0
  8 15  1  0
  9 11  1  0
  9 15  1  0
  9 16  2  0
 10 14  1  0
 13 14  1  0
M  END
