DAR-DIA-eace69ff-36
     RDKit          3D

 13 14  0  0  0  0  0  0  0  0999 V2000
   14.5556   -0.6852   22.2748 C   0  0  0  0  0  0  0  0  0  0  0  0
   13.6123   -1.6383   22.6693 C   0  0  0  0  0  0  0  0  0  0  0  0
   11.9433    0.0849   23.0461 C   0  0  0  0  0  0  0  0  0  0  0  0
   14.0722    2.8994   22.0939 C   0  0  0  0  0  0  0  0  0  0  0  0
   12.8773    1.0637   22.6523 C   0  0  0  0  0  0  0  0  0  0  0  0
   12.8369    2.4810   22.5319 C   0  0  0  0  0  0  0  0  0  0  0  0
   14.1593    0.6569   22.2765 C   0  0  0  0  0  0  0  0  0  0  0  0
   12.3257   -1.2614   23.0494 C   0  0  0  0  0  0  0  0  0  0  0  0
   10.6210    4.9518   24.4225 C   0  0  0  0  0  0  0  0  0  0  0  0
   11.6820    3.3555   22.8209 C   0  0  0  0  0  0  0  0  0  0  0  0
   14.8629    1.7920   21.9425 N   0  0  0  0  0  0  0  0  0  0  0  0
   11.8045    4.1164   24.1017 N   0  0  0  0  0  0  0  0  0  0  0  0
   11.4430   -2.1985   23.4214 F   0  0  0  0  0  0  0  0  0  0  0  0
  1  2  2  0
  1  7  1  0
  2  8  1  0
  3  5  1  0
  3  8  2  0
  4  6  2  0
  4 11  1  0
  5  6  1  0
  5  7  2  0
  6 10  1  0
  7 11  1  0
  8 13  1  0
  9 12  1  0
 10 12  1  0
M  CHG  1  12   1
M  END
