DAR-DIA-eace69ff-21
     RDKit          3D

 22 24  0  0  0  0  0  0  0  0999 V2000
    8.1392   -3.0422   21.7730 C   0  0  0  0  0  0  0  0  0  0  0  0
    9.6013   -1.5277   22.9838 C   0  0  0  0  0  0  0  0  0  0  0  0
    8.9691   -6.0210   23.7219 C   0  0  0  0  0  0  0  0  0  0  0  0
    8.5561   -4.0982   22.6075 C   0  0  0  0  0  0  0  0  0  0  0  0
    8.2366   -5.4825   22.6893 C   0  0  0  0  0  0  0  0  0  0  0  0
    9.4898   -3.8331   23.6116 C   0  0  0  0  0  0  0  0  0  0  0  0
   10.0296   -2.5596   23.8238 C   0  0  0  0  0  0  0  0  0  0  0  0
    8.6707   -1.7630   21.9736 C   0  0  0  0  0  0  0  0  0  0  0  0
   13.9293   -1.8198   25.2186 C   0  0  0  0  0  0  0  0  0  0  0  0
   13.4405   -0.3978   25.4898 C   0  0  0  0  0  0  0  0  0  0  0  0
   13.1407   -2.8859   25.9795 C   0  0  0  0  0  0  0  0  0  0  0  0
   12.0326   -0.0920   24.9826 C   0  0  0  0  0  0  0  0  0  0  0  0
   11.8838   -3.3672   25.2520 C   0  0  0  0  0  0  0  0  0  0  0  0
   10.9620   -1.0249   25.5447 C   0  0  0  0  0  0  0  0  0  0  0  0
    4.9218   -6.7204   21.2423 C   0  0  0  0  0  0  0  0  0  0  0  0
    5.5319   -6.1579   23.5901 C   0  0  0  0  0  0  0  0  0  0  0  0
    7.3178   -1.0420   20.1555 C   0  0  0  0  0  0  0  0  0  0  0  0
    7.2899   -6.2187   21.8275 C   0  0  0  0  0  0  0  0  0  0  0  0
    9.7217   -5.0184   24.2723 N   0  0  0  0  0  0  0  0  0  0  0  0
   10.9658   -2.3037   24.8331 N   0  0  0  0  0  0  0  0  0  0  0  0
    5.8527   -5.9455   22.1352 N   0  0  0  0  0  0  0  0  0  0  0  0
    8.2720   -0.7368   21.1702 O   0  0  0  0  0  0  0  0  0  0  0  0
  1  4  2  0
  1  8  1  0
  2  7  1  0
  2  8  2  0
  3  5  2  0
  3 19  1  0
  4  5  1  0
  4  6  1  0
  5 18  1  0
  6  7  2  0
  6 19  1  0
  7 20  1  0
  8 22  1  0
  9 10  1  0
  9 11  1  0
 10 12  1  0
 11 13  1  0
 12 14  1  0
 13 20  1  0
 14 20  1  0
 15 21  1  0
 16 21  1  0
 17 22  1  0
 18 21  1  0
M  CHG  1  21   1
M  END
