DAR-DIA-03336633-1
     RDKit          3D

 28 30  0  0  0  0  0  0  0  0999 V2000
   13.6587   -0.1475   24.1729 C   0  0  0  0  0  0  0  0  0  0  0  0
   12.5667   -0.6254   24.8972 C   0  0  0  0  0  0  0  0  0  0  0  0
   13.4859    0.2957   22.8616 C   0  0  0  0  0  0  0  0  0  0  0  0
   11.3018   -0.6602   24.3103 C   0  0  0  0  0  0  0  0  0  0  0  0
   12.2210    0.2609   22.2747 C   0  0  0  0  0  0  0  0  0  0  0  0
    5.2646    0.8089   18.6961 C   0  0  0  0  0  0  0  0  0  0  0  0
    5.9291    0.7043   17.4848 C   0  0  0  0  0  0  0  0  0  0  0  0
    7.9018    0.1329   18.5144 C   0  0  0  0  0  0  0  0  0  0  0  0
    5.9855    0.5559   19.8578 C   0  0  0  0  0  0  0  0  0  0  0  0
   11.1289   -0.2170   22.9990 C   0  0  0  0  0  0  0  0  0  0  0  0
    7.3298    0.2109   19.7739 C   0  0  0  0  0  0  0  0  0  0  0  0
    9.4829    0.1481   21.1079 C   0  0  0  0  0  0  0  0  0  0  0  0
    6.3878    3.5078   22.5354 C   0  0  0  0  0  0  0  0  0  0  0  0
   10.8539    5.8350   24.2106 C   0  0  0  0  0  0  0  0  0  0  0  0
   10.0278    4.7297   24.8624 C   0  0  0  0  0  0  0  0  0  0  0  0
    9.9665    6.8866   23.5505 C   0  0  0  0  0  0  0  0  0  0  0  0
    9.0508    4.0979   23.8723 C   0  0  0  0  0  0  0  0  0  0  0  0
    8.9900    6.2571   22.5584 C   0  0  0  0  0  0  0  0  0  0  0  0
    8.1541    5.1561   23.2203 C   0  0  0  0  0  0  0  0  0  0  0  0
    5.2871    0.6631   21.1912 C   0  0  0  0  0  0  0  0  0  0  0  0
    4.6924    2.0466   21.4425 C   0  0  0  0  0  0  0  0  0  0  0  0
    7.2338    0.3717   17.3635 N   0  0  0  0  0  0  0  0  0  0  0  0
    9.8457   -0.2522   22.4038 N   0  0  0  0  0  0  0  0  0  0  0  0
    8.0945   -0.0524   20.9101 N   0  0  0  0  0  0  0  0  0  0  0  0
    7.2852    4.5274   22.2273 N   0  0  0  0  0  0  0  0  0  0  0  0
    5.6874    3.0924   21.4057 N   0  0  0  0  0  0  0  0  0  0  0  0
   10.2493    0.6048   20.2657 O   0  0  0  0  0  0  0  0  0  0  0  0
    6.2322    3.0345   23.6604 O   0  0  0  0  0  0  0  0  0  0  0  0
  1  2  2  0
  1  3  1  0
  2  4  1  0
  3  5  2  0
  4 10  2  0
  5 10  1  0
  6  7  2  0
  6  9  1  0
  7 22  1  0
  8 11  1  0
  8 22  2  0
  9 11  2  0
  9 20  1  0
 10 23  1  0
 11 24  1  0
 12 23  1  0
 12 24  1  0
 12 27  2  0
 13 25  1  0
 13 26  1  0
 13 28  2  0
 14 15  1  0
 14 16  1  0
 15 17  1  0
 16 18  1  0
 17 19  1  0
 18 19  1  0
 19 25  1  0
 20 21  1  0
 21 26  1  0
M  END
