DAR-DIA-eace69ff-8
     RDKit          3D

 30 33  0  0  0  0  0  0  0  0999 V2000
   13.3019   -0.2253   21.9640 C   0  0  0  0  0  0  0  0  0  0  0  0
   12.3764   -1.2280   21.6752 C   0  0  0  0  0  0  0  0  0  0  0  0
   13.1648    0.5375   23.1238 C   0  0  0  0  0  0  0  0  0  0  0  0
   11.3136   -1.4680   22.5462 C   0  0  0  0  0  0  0  0  0  0  0  0
   12.1021    0.2975   23.9948 C   0  0  0  0  0  0  0  0  0  0  0  0
    6.3149   -1.1759   21.4692 C   0  0  0  0  0  0  0  0  0  0  0  0
    7.6507    0.8412   21.2597 C   0  0  0  0  0  0  0  0  0  0  0  0
    8.2437   -2.6337   24.2105 C   0  0  0  0  0  0  0  0  0  0  0  0
    7.1496   -1.6096   22.5183 C   0  0  0  0  0  0  0  0  0  0  0  0
   11.1765   -0.7052   23.7060 C   0  0  0  0  0  0  0  0  0  0  0  0
    7.1789   -2.7645   23.3490 C   0  0  0  0  0  0  0  0  0  0  0  0
    8.2168   -0.7974   22.9077 C   0  0  0  0  0  0  0  0  0  0  0  0
    8.4921    0.4318   22.2980 C   0  0  0  0  0  0  0  0  0  0  0  0
    6.5783    0.0514   20.8500 C   0  0  0  0  0  0  0  0  0  0  0  0
   10.2602    5.5217   24.2924 C   0  0  0  0  0  0  0  0  0  0  0  0
    9.9286    4.6346   25.4884 C   0  0  0  0  0  0  0  0  0  0  0  0
    9.9965    4.9477   22.9039 C   0  0  0  0  0  0  0  0  0  0  0  0
    8.6684    3.7887   25.3386 C   0  0  0  0  0  0  0  0  0  0  0  0
   10.3420    3.4729   22.7337 C   0  0  0  0  0  0  0  0  0  0  0  0
    8.9345    2.4566   24.6425 C   0  0  0  0  0  0  0  0  0  0  0  0
    9.2006    2.5399   23.1406 C   0  0  0  0  0  0  0  0  0  0  0  0
    3.9771   -4.7959   23.8347 C   0  0  0  0  0  0  0  0  0  0  0  0
    5.0006   -3.0513   25.2870 C   0  0  0  0  0  0  0  0  0  0  0  0
    6.7521    0.7307   18.2002 C   0  0  0  0  0  0  0  0  0  0  0  0
   10.0300   -0.9634   24.6460 C   0  0  0  0  0  0  0  0  0  0  0  0
    6.2408   -3.9042   23.3033 C   0  0  0  0  0  0  0  0  0  0  0  0
    8.8634   -1.4440   23.9368 N   0  0  0  0  0  0  0  0  0  0  0  0
    4.8993   -3.6083   23.8927 N   0  0  0  0  0  0  0  0  0  0  0  0
    9.5355    1.2287   22.6768 O   0  0  0  0  0  0  0  0  0  0  0  0
    5.5259    0.6082   19.5200 S   0  0  0  0  0  0  0  0  0  0  0  0
  1  2  2  0
  1  3  1  0
  2  4  1  0
  3  5  2  0
  4 10  2  0
  5 10  1  0
  6  9  2  0
  6 14  1  0
  7 13  1  0
  7 14  2  0
  8 11  2  0
  8 27  1  0
  9 11  1  0
  9 12  1  0
 10 25  1  0
 11 26  1  0
 12 13  2  0
 12 27  1  0
 13 29  1  0
 14 30  1  0
 15 16  1  0
 15 17  1  0
 16 18  1  0
 17 19  1  0
 18 20  1  0
 19 21  1  0
 20 21  1  0
 21 29  1  0
 22 28  1  0
 23 28  1  0
 24 30  1  0
 25 27  1  0
 26 28  1  0
M  CHG  1  28   1
M  END
