DAR-DIA-fb20be43-17
     RDKit          3D

 29 31  0  0  0  0  0  0  0  0999 V2000
    5.5658   -6.1097   25.1230 C   0  0  0  0  0  0  0  0  0  0  0  0
    7.3377   -5.1412   23.7318 C   0  0  0  0  0  0  0  0  0  0  0  0
    5.1786   -5.4732   22.7914 C   0  0  0  0  0  0  0  0  0  0  0  0
    6.0256   -5.5757   23.8831 C   0  0  0  0  0  0  0  0  0  0  0  0
    7.7568   -4.6248   22.5107 C   0  0  0  0  0  0  0  0  0  0  0  0
    6.8323   -4.5650   21.4804 C   0  0  0  0  0  0  0  0  0  0  0  0
   12.0842   -0.8250   25.6756 C   0  0  0  0  0  0  0  0  0  0  0  0
    6.2432   -1.7549   19.9048 C   0  0  0  0  0  0  0  0  0  0  0  0
    9.8516   -1.8182   25.2884 C   0  0  0  0  0  0  0  0  0  0  0  0
   11.8298   -3.2447   24.9352 C   0  0  0  0  0  0  0  0  0  0  0  0
    5.4148    0.5666   19.6812 C   0  0  0  0  0  0  0  0  0  0  0  0
    7.8299    0.2519   20.0650 C   0  0  0  0  0  0  0  0  0  0  0  0
    9.2797   -2.2429   23.9438 C   0  0  0  0  0  0  0  0  0  0  0  0
   11.2865   -3.6927   23.5851 C   0  0  0  0  0  0  0  0  0  0  0  0
    5.4651    1.7384   20.6489 C   0  0  0  0  0  0  0  0  0  0  0  0
    7.7728    1.4565   20.9983 C   0  0  0  0  0  0  0  0  0  0  0  0
    9.1713   -4.1545   22.3408 C   0  0  0  0  0  0  0  0  0  0  0  0
    7.2270   -4.0207   20.1467 C   0  0  0  0  0  0  0  0  0  0  0  0
   13.5801   -1.0133   25.6517 C   0  0  0  0  0  0  0  0  0  0  0  0
    5.1916   -6.5442   26.1320 N   0  0  0  0  0  0  0  0  0  0  0  0
    5.5494   -4.9773   21.5896 N   0  0  0  0  0  0  0  0  0  0  0  0
   11.3109   -1.9208   25.2951 N   0  0  0  0  0  0  0  0  0  0  0  0
    6.5065   -0.3752   19.9393 N   0  0  0  0  0  0  0  0  0  0  0  0
    7.3346   -2.5789   20.1536 N   0  0  0  0  0  0  0  0  0  0  0  0
    9.7755   -3.6332   23.6143 N   0  0  0  0  0  0  0  0  0  0  0  0
   11.6191    0.2646   26.0199 O   0  0  0  0  0  0  0  0  0  0  0  0
    5.1225   -2.2161   19.6645 O   0  0  0  0  0  0  0  0  0  0  0  0
    6.7483    2.3643   20.5915 O   0  0  0  0  0  0  0  0  0  0  0  0
   14.2890    0.5229   26.1371 Cl  0  0  0  0  0  0  0  0  0  0  0  0
  1  4  1  0
  1 20  3  0
  2  4  2  0
  2  5  1  0
  3  4  1  0
  3 21  2  0
  5  6  2  0
  5 17  1  0
  6 18  1  0
  6 21  1  0
  7 19  1  0
  7 22  1  0
  7 26  2  0
  8 23  1  0
  8 24  1  0
  8 27  2  0
  9 13  1  0
  9 22  1  0
 10 14  1  0
 10 22  1  0
 11 15  1  0
 11 23  1  0
 12 16  1  0
 12 23  1  0
 13 25  1  0
 14 25  1  0
 15 28  1  0
 16 28  1  0
 17 25  1  0
 18 24  1  0
 19 29  1  0
M  CHG  1  25   1
M  END
