DAR-DIA-eace69ff-11
     RDKit          3D

 30 33  0  0  0  0  0  0  0  0999 V2000
   15.1728   -2.3943   24.4867 C   0  0  0  0  0  0  0  0  0  0  0  0
   14.5996   -2.9091   23.3239 C   0  0  0  0  0  0  0  0  0  0  0  0
   14.6734   -1.2198   25.0496 C   0  0  0  0  0  0  0  0  0  0  0  0
   13.5271   -2.2493   22.7239 C   0  0  0  0  0  0  0  0  0  0  0  0
   13.6008   -0.5600   24.4496 C   0  0  0  0  0  0  0  0  0  0  0  0
    7.2308   -0.9240   21.2383 C   0  0  0  0  0  0  0  0  0  0  0  0
    8.1026    1.2644   20.6987 C   0  0  0  0  0  0  0  0  0  0  0  0
   10.2489   -2.2234   22.8102 C   0  0  0  0  0  0  0  0  0  0  0  0
    8.4700   -1.2738   21.8143 C   0  0  0  0  0  0  0  0  0  0  0  0
   13.0276   -1.0748   23.2867 C   0  0  0  0  0  0  0  0  0  0  0  0
    7.0606    0.3460   20.6839 C   0  0  0  0  0  0  0  0  0  0  0  0
    8.9463   -2.4483   22.4422 C   0  0  0  0  0  0  0  0  0  0  0  0
    9.5176   -0.3422   21.8184 C   0  0  0  0  0  0  0  0  0  0  0  0
    9.3403    0.9400   21.2637 C   0  0  0  0  0  0  0  0  0  0  0  0
   11.8930   -0.3768   22.6519 C   0  0  0  0  0  0  0  0  0  0  0  0
   10.2089    5.5392   23.4230 C   0  0  0  0  0  0  0  0  0  0  0  0
   11.5480    4.8198   23.2791 C   0  0  0  0  0  0  0  0  0  0  0  0
    9.0550    4.5559   23.6053 C   0  0  0  0  0  0  0  0  0  0  0  0
   11.5111    3.7839   22.1602 C   0  0  0  0  0  0  0  0  0  0  0  0
    9.0183    3.5201   22.4863 C   0  0  0  0  0  0  0  0  0  0  0  0
   10.3576    2.7985   22.3440 C   0  0  0  0  0  0  0  0  0  0  0  0
    5.6850    0.3775   18.5879 C   0  0  0  0  0  0  0  0  0  0  0  0
    6.4483   -4.9061   23.9701 C   0  0  0  0  0  0  0  0  0  0  0  0
    7.7990   -3.1167   25.0538 C   0  0  0  0  0  0  0  0  0  0  0  0
    5.7502    0.7170   20.0745 C   0  0  0  0  0  0  0  0  0  0  0  0
    8.1914   -3.6982   22.6645 C   0  0  0  0  0  0  0  0  0  0  0  0
   10.6152   -0.9412   22.4464 N   0  0  0  0  0  0  0  0  0  0  0  0
    7.1891   -3.6116   23.7701 N   0  0  0  0  0  0  0  0  0  0  0  0
   12.0833    0.7720   22.2664 O   0  0  0  0  0  0  0  0  0  0  0  0
   10.3062    1.9105   21.2326 O   0  0  0  0  0  0  0  0  0  0  0  0
  1  2  2  0
  1  3  1  0
  2  4  1  0
  3  5  2  0
  4 10  2  0
  5 10  1  0
  6  9  2  0
  6 11  1  0
  7 11  2  0
  7 14  1  0
  8 12  2  0
  8 27  1  0
  9 12  1  0
  9 13  1  0
 10 15  1  0
 11 25  1  0
 12 26  1  0
 13 14  2  0
 13 27  1  0
 14 30  1  0
 15 27  1  0
 15 29  2  0
 16 17  1  0
 16 18  1  0
 17 19  1  0
 18 20  1  0
 19 21  1  0
 20 21  1  0
 21 30  1  0
 22 25  1  0
 23 28  1  0
 24 28  1  0
 26 28  1  0
M  CHG  1  28   1
M  END
