DAR-DIA-23aa0b97-1
     RDKit          3D

 21 23  0  0  0  0  0  0  0  0999 V2000
    6.0614   -2.9882   19.5855 C   0  0  0  0  0  0  0  0  0  0  0  0
    6.9145   -3.7532   23.1271 C   0  0  0  0  0  0  0  0  0  0  0  0
    9.2109    1.5922   25.6047 C   0  0  0  0  0  0  0  0  0  0  0  0
    6.2185   -3.6997   21.9196 C   0  0  0  0  0  0  0  0  0  0  0  0
    9.9240    0.6151   24.9125 C   0  0  0  0  0  0  0  0  0  0  0  0
    8.1669   -3.1489   23.2377 C   0  0  0  0  0  0  0  0  0  0  0  0
    8.0272   -2.4378   20.9330 C   0  0  0  0  0  0  0  0  0  0  0  0
    9.6824    2.8981   25.5915 C   0  0  0  0  0  0  0  0  0  0  0  0
   12.9886    1.3179   23.0539 C   0  0  0  0  0  0  0  0  0  0  0  0
    6.7748   -3.0421   20.8225 C   0  0  0  0  0  0  0  0  0  0  0  0
   11.0889    1.0099   24.2351 C   0  0  0  0  0  0  0  0  0  0  0  0
   12.0723    0.3636   23.4402 C   0  0  0  0  0  0  0  0  0  0  0  0
    8.7232   -2.4912   22.1406 C   0  0  0  0  0  0  0  0  0  0  0  0
   11.4466    2.3531   24.3054 C   0  0  0  0  0  0  0  0  0  0  0  0
   10.8183   -1.8333   23.3746 C   0  0  0  0  0  0  0  0  0  0  0  0
   12.1153   -1.0694   23.0864 C   0  0  0  0  0  0  0  0  0  0  0  0
    5.4820   -2.9444   18.5810 N   0  0  0  0  0  0  0  0  0  0  0  0
   10.7957    3.3347   24.9579 N   0  0  0  0  0  0  0  0  0  0  0  0
   12.5996    2.5205   23.5845 N   0  0  0  0  0  0  0  0  0  0  0  0
    9.9932   -1.8771   22.2536 N   0  0  0  0  0  0  0  0  0  0  0  0
   10.5973   -2.3195   24.4791 O   0  0  0  0  0  0  0  0  0  0  0  0
  1 10  1  0
  1 17  3  0
  2  4  2  0
  2  6  1  0
  3  5  2  0
  3  8  1  0
  4 10  1  0
  5 11  1  0
  6 13  2  0
  7 10  2  0
  7 13  1  0
  8 18  2  0
  9 12  2  0
  9 19  1  0
 11 12  1  0
 11 14  2  0
 12 16  1  0
 13 20  1  0
 14 18  1  0
 14 19  1  0
 15 16  1  0
 15 20  1  0
 15 21  2  0
M  END
