DAR-DIA-eace69ff-15
     RDKit          3D

 29 32  0  0  0  0  0  0  0  0999 V2000
    8.5834   -3.6594   23.9428 C   0  0  0  0  0  0  0  0  0  0  0  0
   10.5539   -2.2921   23.6603 C   0  0  0  0  0  0  0  0  0  0  0  0
    6.5382   -2.0134   21.4193 C   0  0  0  0  0  0  0  0  0  0  0  0
    7.9270   -2.9186   22.9376 C   0  0  0  0  0  0  0  0  0  0  0  0
    9.8950   -3.3366   24.2945 C   0  0  0  0  0  0  0  0  0  0  0  0
    6.6359   -2.9970   22.3715 C   0  0  0  0  0  0  0  0  0  0  0  0
    8.5984   -1.8653   22.3015 C   0  0  0  0  0  0  0  0  0  0  0  0
    9.9228   -1.5440   22.6608 C   0  0  0  0  0  0  0  0  0  0  0  0
    5.0273    1.0363   18.7610 C   0  0  0  0  0  0  0  0  0  0  0  0
    5.7728    0.6854   19.9435 C   0  0  0  0  0  0  0  0  0  0  0  0
    5.7730    0.8014   17.6709 C   0  0  0  0  0  0  0  0  0  0  0  0
    6.9780    0.2346   19.5738 C   0  0  0  0  0  0  0  0  0  0  0  0
    8.0205   -0.2189   20.5051 C   0  0  0  0  0  0  0  0  0  0  0  0
    7.1127    0.2582   18.0837 C   0  0  0  0  0  0  0  0  0  0  0  0
   11.7180    3.3479   23.5302 C   0  0  0  0  0  0  0  0  0  0  0  0
   12.8090    2.2842   23.4314 C   0  0  0  0  0  0  0  0  0  0  0  0
   10.3910    2.7554   23.9991 C   0  0  0  0  0  0  0  0  0  0  0  0
   12.3749    1.1149   22.5537 C   0  0  0  0  0  0  0  0  0  0  0  0
    9.9571    1.5860   23.1212 C   0  0  0  0  0  0  0  0  0  0  0  0
   11.0481    0.5206   23.0245 C   0  0  0  0  0  0  0  0  0  0  0  0
    9.6192   -4.6656   26.4027 C   0  0  0  0  0  0  0  0  0  0  0  0
    4.7088   -6.2929   22.5695 C   0  0  0  0  0  0  0  0  0  0  0  0
    6.0772   -5.3486   20.7158 C   0  0  0  0  0  0  0  0  0  0  0  0
   10.5892   -4.1182   25.3591 C   0  0  0  0  0  0  0  0  0  0  0  0
    5.5754   -3.9632   22.7231 C   0  0  0  0  0  0  0  0  0  0  0  0
    7.7251   -1.3041   21.3549 N   0  0  0  0  0  0  0  0  0  0  0  0
    5.8142   -5.3420   22.1975 N   0  0  0  0  0  0  0  0  0  0  0  0
    9.1167    0.3207   20.5534 O   0  0  0  0  0  0  0  0  0  0  0  0
   10.6374   -0.5035   22.1250 O   0  0  0  0  0  0  0  0  0  0  0  0
  1  4  2  0
  1  5  1  0
  2  5  2  0
  2  8  1  0
  3  6  2  0
  3 26  1  0
  4  6  1  0
  4  7  1  0
  5 24  1  0
  6 25  1  0
  7  8  2  0
  7 26  1  0
  8 29  1  0
  9 10  1  0
  9 11  2  0
 10 12  2  0
 11 14  1  0
 12 13  1  0
 12 14  1  0
 13 26  1  0
 13 28  2  0
 15 16  1  0
 15 17  1  0
 16 18  1  0
 17 19  1  0
 18 20  1  0
 19 20  1  0
 20 29  1  0
 21 24  1  0
 22 27  1  0
 23 27  1  0
 25 27  1  0
M  CHG  1  27   1
M  END
