DAR-DIA-43a5904b-15
     RDKit          3D

 30 33  0  0  1  0  0  0  0  0999 V2000
   13.5530   -1.4721   21.4561 C   0  0  0  0  0  0  0  0  0  0  0  0
    6.0919    1.6499   18.7167 C   0  0  0  0  0  0  0  0  0  0  0  0
   12.1827   -1.3013   21.6524 C   0  0  0  0  0  0  0  0  0  0  0  0
    6.1856    0.8347   19.8391 C   0  0  0  0  0  0  0  0  0  0  0  0
   14.4205   -1.4632   22.5485 C   0  0  0  0  0  0  0  0  0  0  0  0
   12.5471   -1.1125   24.0333 C   0  0  0  0  0  0  0  0  0  0  0  0
    6.7860    1.2699   17.5793 C   0  0  0  0  0  0  0  0  0  0  0  0
    7.6147   -0.6113   18.6051 C   0  0  0  0  0  0  0  0  0  0  0  0
   11.6797   -1.1215   22.9409 C   0  0  0  0  0  0  0  0  0  0  0  0
    6.9596   -0.3194   19.7906 C   0  0  0  0  0  0  0  0  0  0  0  0
   13.9175   -1.2833   23.8370 C   0  0  0  0  0  0  0  0  0  0  0  0
    9.2791   -1.6175   22.1750 C   0  0  0  0  0  0  0  0  0  0  0  0
    8.2157   -0.8609   21.8776 C   0  0  0  0  0  0  0  0  0  0  0  0
   10.5024    1.4138   22.1942 C   0  0  0  0  0  0  0  0  0  0  0  0
    8.2507    0.4548   22.5949 C   0  0  0  0  0  0  0  0  0  0  0  0
   10.2760    7.2555   24.3052 C   0  0  0  0  0  0  0  0  0  0  0  0
   10.8599    6.3173   25.3561 C   0  0  0  0  0  0  0  0  0  0  0  0
   10.0162    6.5223   22.9936 C   0  0  0  0  0  0  0  0  0  0  0  0
   12.1030    5.6028   24.8453 C   0  0  0  0  0  0  0  0  0  0  0  0
   11.2620    5.8068   22.4914 C   0  0  0  0  0  0  0  0  0  0  0  0
   10.1932   -0.9351   23.1528 C   0  0  0  0  0  0  0  0  0  0  0  0
    9.6967    0.5290   23.1083 C   0  0  0  0  0  0  0  0  0  0  0  0
    7.0809   -1.2247   20.9910 C   0  0  0  0  0  0  0  0  0  0  0  0
   12.4374    2.9740   22.1321 C   0  0  0  0  0  0  0  0  0  0  0  0
   12.9334    4.0516   23.0778 C   0  0  0  0  0  0  0  0  0  0  0  0
    7.5477    0.1563   17.4943 N   0  0  0  0  0  0  0  0  0  0  0  0
   11.5176    2.0552   22.8393 N   0  0  0  0  0  0  0  0  0  0  0  0
   11.7721    4.8741   23.5643 N   0  0  0  0  0  0  0  0  0  0  0  0
   10.2050    1.4869   21.0076 O   0  0  0  0  0  0  0  0  0  0  0  0
   14.9883   -1.2712   25.1842 Cl  0  0  0  0  0  0  0  0  0  0  0  0
  1  3  2  0
  1  5  1  0
  2  4  2  0
  2  7  1  0
  3  9  1  0
  4 10  1  0
  5 11  2  0
  6  9  2  0
  6 11  1  0
  7 26  2  0
  8 10  2  0
  8 26  1  0
  9 21  1  0
 10 23  1  0
 11 30  1  0
 12 13  2  0
 12 21  1  0
 13 15  1  0
 13 23  1  0
 14 22  1  0
 14 27  1  0
 14 29  2  0
 15 22  1  0
 16 17  1  0
 16 18  1  0
 17 19  1  0
 18 20  1  0
 19 28  1  0
 20 28  1  0
 21 22  1  0
 24 25  1  0
 24 27  1  0
 25 28  1  0
M  CHG  1  28   1
M  END
