DAR-DIA-caba39e3-2
     RDKit          3D

 22 24  0  0  1  0  0  0  0  0999 V2000
    6.5889   -5.4863   23.6590 C   0  0  0  0  0  0  0  0  0  0  0  0
    7.9544   -5.2922   23.8377 C   0  0  0  0  0  0  0  0  0  0  0  0
   10.1052   -0.1693   24.8433 C   0  0  0  0  0  0  0  0  0  0  0  0
    5.8516   -4.5769   22.9035 C   0  0  0  0  0  0  0  0  0  0  0  0
    8.5814   -4.1798   23.2752 C   0  0  0  0  0  0  0  0  0  0  0  0
    9.1683   -0.7930   24.0195 C   0  0  0  0  0  0  0  0  0  0  0  0
   11.4426   -0.1023   24.4526 C   0  0  0  0  0  0  0  0  0  0  0  0
   10.9062   -1.2830   22.4142 C   0  0  0  0  0  0  0  0  0  0  0  0
    9.5688   -1.3499   22.8049 C   0  0  0  0  0  0  0  0  0  0  0  0
    6.4727   -3.4607   22.3216 C   0  0  0  0  0  0  0  0  0  0  0  0
    7.8483   -3.2338   22.5370 C   0  0  0  0  0  0  0  0  0  0  0  0
   11.8431   -0.6592   23.2380 C   0  0  0  0  0  0  0  0  0  0  0  0
    6.1479   -1.4444   19.3226 C   0  0  0  0  0  0  0  0  0  0  0  0
    5.6362   -2.5146   21.4959 C   0  0  0  0  0  0  0  0  0  0  0  0
    7.5472   -0.9764   21.3902 C   0  0  0  0  0  0  0  0  0  0  0  0
    8.5458   -2.0314   21.9058 C   0  0  0  0  0  0  0  0  0  0  0  0
   13.4885   -1.1830   21.6028 C   0  0  0  0  0  0  0  0  0  0  0  0
    6.5059   -0.1067   18.7257 C   0  0  0  0  0  0  0  0  0  0  0  0
    6.4521   -1.6265   20.6705 N   0  0  0  0  0  0  0  0  0  0  0  0
    5.6165   -2.3007   18.6111 O   0  0  0  0  0  0  0  0  0  0  0  0
   13.1480   -0.5933   22.8565 O   0  0  0  0  0  0  0  0  0  0  0  0
    5.3580    0.1866   17.4245 Cl  0  0  0  0  0  0  0  0  0  0  0  0
  1  2  2  0
  1  4  1  0
  2  5  1  0
  3  6  2  0
  3  7  1  0
  4 10  2  0
  5 11  2  0
  6  9  1  0
  7 12  2  0
  8  9  2  0
  8 12  1  0
  9 16  1  0
 10 11  1  0
 10 14  1  0
 11 16  1  0
 12 21  1  0
 13 18  1  0
 13 19  1  0
 13 20  2  0
 14 19  1  0
 15 16  1  0
 15 19  1  0
 17 21  1  0
 18 22  1  0
M  END
