DAR-DIA-fc970077-14
     RDKit          3D

 22 24  0  0  0  0  0  0  0  0999 V2000
   14.6354   -1.6262   23.4654 C   0  0  0  0  0  0  0  0  0  0  0  0
   14.1012   -0.6943   24.3552 C   0  0  0  0  0  0  0  0  0  0  0  0
   13.8991   -2.0281   22.3509 C   0  0  0  0  0  0  0  0  0  0  0  0
    8.3145    4.2680   22.3035 C   0  0  0  0  0  0  0  0  0  0  0  0
    9.2213    4.4638   23.3392 C   0  0  0  0  0  0  0  0  0  0  0  0
    5.8680    0.5886   19.4937 C   0  0  0  0  0  0  0  0  0  0  0  0
   12.8307   -0.1643   24.1306 C   0  0  0  0  0  0  0  0  0  0  0  0
   12.6286   -1.4981   22.1263 C   0  0  0  0  0  0  0  0  0  0  0  0
    6.7628    0.7571   20.5445 C   0  0  0  0  0  0  0  0  0  0  0  0
    8.2665    3.0407   21.6518 C   0  0  0  0  0  0  0  0  0  0  0  0
    6.3842    0.2802   18.2455 C   0  0  0  0  0  0  0  0  0  0  0  0
   10.0517    3.4090   23.6823 C   0  0  0  0  0  0  0  0  0  0  0  0
    8.5423    0.3041   19.0330 C   0  0  0  0  0  0  0  0  0  0  0  0
   12.0943   -0.5662   23.0161 C   0  0  0  0  0  0  0  0  0  0  0  0
    8.1272    0.6139   20.3182 C   0  0  0  0  0  0  0  0  0  0  0  0
    9.1397    2.0497   22.0703 C   0  0  0  0  0  0  0  0  0  0  0  0
    9.9310   -0.3137   21.7313 C   0  0  0  0  0  0  0  0  0  0  0  0
    7.7030    0.1331   17.9871 N   0  0  0  0  0  0  0  0  0  0  0  0
   10.0342    2.2027   23.0723 N   0  0  0  0  0  0  0  0  0  0  0  0
   10.8235   -0.0359   22.7916 N   0  0  0  0  0  0  0  0  0  0  0  0
    9.0814    0.7829   21.3890 N   0  0  0  0  0  0  0  0  0  0  0  0
    9.9105   -1.3841   21.1197 O   0  0  0  0  0  0  0  0  0  0  0  0
  1  2  2  0
  1  3  1  0
  2  7  1  0
  3  8  2  0
  4  5  2  0
  4 10  1  0
  5 12  1  0
  6  9  2  0
  6 11  1  0
  7 14  2  0
  8 14  1  0
  9 15  1  0
 10 16  2  0
 11 18  2  0
 12 19  2  0
 13 15  2  0
 13 18  1  0
 14 20  1  0
 15 21  1  0
 16 19  1  0
 16 21  1  0
 17 20  1  0
 17 21  1  0
 17 22  2  0
M  END
