DAR-DIA-03336633-14
     RDKit          3D

 28 31  0  0  0  0  0  0  0  0999 V2000
   13.5283   -1.9306   24.4228 C   0  0  0  0  0  0  0  0  0  0  0  0
   13.8662   -1.8650   23.0711 C   0  0  0  0  0  0  0  0  0  0  0  0
   13.0347   -0.8001   25.0740 C   0  0  0  0  0  0  0  0  0  0  0  0
   13.7105   -0.6689   22.3705 C   0  0  0  0  0  0  0  0  0  0  0  0
   12.8790    0.3960   24.3734 C   0  0  0  0  0  0  0  0  0  0  0  0
    8.4505    6.6883   23.4379 C   0  0  0  0  0  0  0  0  0  0  0  0
    8.8248    7.7316   24.2740 C   0  0  0  0  0  0  0  0  0  0  0  0
   12.7292    5.6082   24.6122 C   0  0  0  0  0  0  0  0  0  0  0  0
   10.6307    5.7592   23.7922 C   0  0  0  0  0  0  0  0  0  0  0  0
   13.2169    0.4616   23.0217 C   0  0  0  0  0  0  0  0  0  0  0  0
    9.3684    5.6709   23.1834 C   0  0  0  0  0  0  0  0  0  0  0  0
   11.8129    4.9726   23.8021 C   0  0  0  0  0  0  0  0  0  0  0  0
   10.8726    6.8607   24.6080 C   0  0  0  0  0  0  0  0  0  0  0  0
    7.7534    4.0551   22.1320 C   0  0  0  0  0  0  0  0  0  0  0  0
   13.2159    2.9895   23.1360 C   0  0  0  0  0  0  0  0  0  0  0  0
    6.7934    0.4177   22.3926 C   0  0  0  0  0  0  0  0  0  0  0  0
    8.1742    0.9564   22.7482 C   0  0  0  0  0  0  0  0  0  0  0  0
    5.8354    1.5428   22.0185 C   0  0  0  0  0  0  0  0  0  0  0  0
    8.7540    1.8210   21.6292 C   0  0  0  0  0  0  0  0  0  0  0  0
    6.3879    2.3986   20.8799 C   0  0  0  0  0  0  0  0  0  0  0  0
    7.8009    2.9188   21.1521 C   0  0  0  0  0  0  0  0  0  0  0  0
   13.0488    1.7537   22.2659 C   0  0  0  0  0  0  0  0  0  0  0  0
   10.0238    7.8682   24.8865 N   0  0  0  0  0  0  0  0  0  0  0  0
   12.1482    6.7517   25.0958 N   0  0  0  0  0  0  0  0  0  0  0  0
    9.0175    4.5939   22.3352 N   0  0  0  0  0  0  0  0  0  0  0  0
   12.0462    3.7882   23.1402 N   0  0  0  0  0  0  0  0  0  0  0  0
    6.6922    4.4024   22.6401 O   0  0  0  0  0  0  0  0  0  0  0  0
   14.2554    3.2288   23.7421 O   0  0  0  0  0  0  0  0  0  0  0  0
  1  2  2  0
  1  3  1  0
  2  4  1  0
  3  5  2  0
  4 10  2  0
  5 10  1  0
  6  7  2  0
  6 11  1  0
  7 23  1  0
  8 12  2  0
  8 24  1  0
  9 11  2  0
  9 12  1  0
  9 13  1  0
 10 22  1  0
 11 25  1  0
 12 26  1  0
 13 23  2  0
 13 24  1  0
 14 21  1  0
 14 25  1  0
 14 27  2  0
 15 22  1  0
 15 26  1  0
 15 28  2  0
 16 17  1  0
 16 18  1  0
 17 19  1  0
 18 20  1  0
 19 21  1  0
 20 21  1  0
M  END
