DAV-UNI-bdcebb58-1
     RDKit          3D

 27 28  0  0  1  0  0  0  0  0999 V2000
   12.3716   -1.7537   21.6546 C   0  0  0  0  0  0  0  0  0  0  0  0
   11.2744   -1.7238   22.5153 C   0  0  0  0  0  0  0  0  0  0  0  0
   13.3110   -0.7230   21.6861 C   0  0  0  0  0  0  0  0  0  0  0  0
   11.1165   -0.6633   23.4074 C   0  0  0  0  0  0  0  0  0  0  0  0
   13.1531    0.3375   22.5782 C   0  0  0  0  0  0  0  0  0  0  0  0
   12.0558    0.3674   23.4389 C   0  0  0  0  0  0  0  0  0  0  0  0
    6.4228    1.0738   18.6460 C   0  0  0  0  0  0  0  0  0  0  0  0
    7.7851    2.4549   21.1013 C   0  0  0  0  0  0  0  0  0  0  0  0
    8.7250    1.8983   24.4904 C   0  0  0  0  0  0  0  0  0  0  0  0
    4.5131    0.6920   21.1053 C   0  0  0  0  0  0  0  0  0  0  0  0
    5.4639   -0.3288   20.4847 C   0  0  0  0  0  0  0  0  0  0  0  0
    5.4536    1.6978   21.7517 C   0  0  0  0  0  0  0  0  0  0  0  0
    6.6422    0.5202   20.0218 C   0  0  0  0  0  0  0  0  0  0  0  0
    6.7576   -1.1901   24.4445 C   0  0  0  0  0  0  0  0  0  0  0  0
    7.1905    4.7905   21.6982 C   0  0  0  0  0  0  0  0  0  0  0  0
   11.8857    1.5135   24.4023 C   0  0  0  0  0  0  0  0  0  0  0  0
   11.0792    2.7042   23.8578 C   0  0  0  0  0  0  0  0  0  0  0  0
    7.2629    0.1149   25.0219 C   0  0  0  0  0  0  0  0  0  0  0  0
    7.7028    3.4663   22.2166 C   0  0  0  0  0  0  0  0  0  0  0  0
    9.6384    2.4265   23.4043 C   0  0  0  0  0  0  0  0  0  0  0  0
    6.6675    1.6507   20.9407 N   0  0  0  0  0  0  0  0  0  0  0  0
    9.0560    3.6512   22.7880 N   0  0  0  0  0  0  0  0  0  0  0  0
    5.3410    1.7037   18.4846 O   0  0  0  0  0  0  0  0  0  0  0  0
    7.3529    0.8365   17.8251 O   0  0  0  0  0  0  0  0  0  0  0  0
    8.7933    2.3864   20.3963 O   0  0  0  0  0  0  0  0  0  0  0  0
    8.4858    2.4791   25.5415 O   0  0  0  0  0  0  0  0  0  0  0  0
    8.1838    0.7070   24.1002 O   0  0  0  0  0  0  0  0  0  0  0  0
  1  2  2  0
  1  3  1  0
  2  4  1  0
  3  5  2  0
  4  6  2  0
  5  6  1  0
  6 16  1  0
  7 13  1  0
  7 23  1  0
  7 24  2  0
  8 19  1  0
  8 21  1  0
  8 25  2  0
  9 20  1  0
  9 26  2  0
  9 27  1  0
 10 11  1  0
 10 12  1  0
 11 13  1  0
 12 21  1  0
 13 21  1  0
 14 18  1  0
 15 19  1  0
 16 17  1  0
 17 20  1  0
 18 27  1  0
 19 22  1  0
 20 22  1  0
M  CHG  2  22   1  23  -1
M  END
