DAV-CRI-f4772df7-6
     RDKit          3D

 35 39  0  0  1  0  0  0  0  0999 V2000
   11.1736    4.8064   25.1284 C   0  0  0  0  0  0  0  0  0  0  0  0
   11.3023    4.3150   23.8294 C   0  0  0  0  0  0  0  0  0  0  0  0
   10.7775    3.9552   26.1600 C   0  0  0  0  0  0  0  0  0  0  0  0
   11.0348    2.9724   23.5618 C   0  0  0  0  0  0  0  0  0  0  0  0
   10.5100    2.6126   25.8925 C   0  0  0  0  0  0  0  0  0  0  0  0
   11.7659   -1.5759   21.5457 C   0  0  0  0  0  0  0  0  0  0  0  0
   13.1115   -1.2181   21.5384 C   0  0  0  0  0  0  0  0  0  0  0  0
   12.6880    0.3520   23.3204 C   0  0  0  0  0  0  0  0  0  0  0  0
   10.6386    2.1212   24.5934 C   0  0  0  0  0  0  0  0  0  0  0  0
   10.8695   -0.9614   22.4345 C   0  0  0  0  0  0  0  0  0  0  0  0
   11.3195    0.0285   23.3160 C   0  0  0  0  0  0  0  0  0  0  0  0
   13.5739   -0.2579   22.4307 C   0  0  0  0  0  0  0  0  0  0  0  0
    6.7331   -4.2855   21.2134 C   0  0  0  0  0  0  0  0  0  0  0  0
    8.8547    0.5166   23.9449 C   0  0  0  0  0  0  0  0  0  0  0  0
    7.2945   -0.2371   22.1574 C   0  0  0  0  0  0  0  0  0  0  0  0
    7.1701   -4.8764   19.8934 C   0  0  0  0  0  0  0  0  0  0  0  0
    8.6014   -5.3239   20.1648 C   0  0  0  0  0  0  0  0  0  0  0  0
    9.0934   -4.3513   21.2177 C   0  0  0  0  0  0  0  0  0  0  0  0
    9.1961   -2.1074   24.8995 C   0  0  0  0  0  0  0  0  0  0  0  0
    7.8273   -4.3372   24.3690 C   0  0  0  0  0  0  0  0  0  0  0  0
   10.3454    0.6515   24.3013 C   0  0  0  0  0  0  0  0  0  0  0  0
    9.4313   -1.3995   22.4849 C   0  0  0  0  0  0  0  0  0  0  0  0
    9.2501   -2.5725   23.4392 C   0  0  0  0  0  0  0  0  0  0  0  0
    7.9374   -3.3456   23.2118 C   0  0  0  0  0  0  0  0  0  0  0  0
   15.0180    0.1148   22.4435 C   0  0  0  0  0  0  0  0  0  0  0  0
    6.5821    1.0941   22.1665 C   0  0  0  0  0  0  0  0  0  0  0  0
    8.5307   -0.2907   22.8406 N   0  0  0  0  0  0  0  0  0  0  0  0
    7.8899   -4.0139   21.9402 N   0  0  0  0  0  0  0  0  0  0  0  0
    5.5732   -4.0609   21.5250 O   0  0  0  0  0  0  0  0  0  0  0  0
    8.0125    1.0854   24.6474 O   0  0  0  0  0  0  0  0  0  0  0  0
    6.7723   -1.1981   21.5867 O   0  0  0  0  0  0  0  0  0  0  0  0
    7.3014   -2.9284   26.5367 O   0  0  0  0  0  0  0  0  0  0  0  0
    9.4697   -4.2408   26.4278 O   0  0  0  0  0  0  0  0  0  0  0  0
    8.4324   -3.4505   25.7982 S   0  0  0  0  0  0  0  0  0  0  0  0
    5.6907    1.1968   20.6528 Cl  0  0  0  0  0  0  0  0  0  0  0  0
  1  2  2  0
  1  3  1  0
  2  4  1  0
  3  5  2  0
  4  9  2  0
  5  9  1  0
  6  7  2  0
  6 10  1  0
  7 12  1  0
  8 11  1  0
  8 12  2  0
  9 21  1  0
 10 11  2  0
 10 22  1  0
 11 21  1  0
 12 25  1  0
 13 16  1  0
 13 28  1  0
 13 29  2  0
 14 21  1  0
 14 27  1  0
 14 30  2  0
 15 26  1  0
 15 27  1  0
 15 31  2  0
 16 17  1  0
 17 18  1  0
 18 28  1  0
 19 23  1  0
 19 34  1  0
 20 24  1  0
 20 34  1  0
 22 23  1  0
 22 27  1  0
 23 24  1  0
 24 28  1  0
 26 35  1  0
 32 34  2  0
 33 34  2  0
M  END
