DAV-CRI-e1c2b579-4
     RDKit          3D

 25 25  0  0  1  0  0  0  0  0999 V2000
    9.5585    3.9474   23.7744 C   0  0  0  0  0  0  0  0  0  0  0  0
    8.6622    2.2673   22.0845 C   0  0  0  0  0  0  0  0  0  0  0  0
    6.2650    0.2540   19.9011 C   0  0  0  0  0  0  0  0  0  0  0  0
   10.3648   -1.9024   24.1090 C   0  0  0  0  0  0  0  0  0  0  0  0
    9.3993   -2.1187   25.2660 C   0  0  0  0  0  0  0  0  0  0  0  0
    7.5490   -1.4026   23.7794 C   0  0  0  0  0  0  0  0  0  0  0  0
    8.5616   -1.1917   22.6422 C   0  0  0  0  0  0  0  0  0  0  0  0
   12.0245    0.2331   22.6831 C   0  0  0  0  0  0  0  0  0  0  0  0
    8.3715    3.4558   22.9770 C   0  0  0  0  0  0  0  0  0  0  0  0
    6.6457   -0.5054   21.1608 C   0  0  0  0  0  0  0  0  0  0  0  0
    7.3143   -4.1888   26.3388 C   0  0  0  0  0  0  0  0  0  0  0  0
    8.0091   -0.0976   21.7180 C   0  0  0  0  0  0  0  0  0  0  0  0
   10.8964   -0.6368   22.1464 C   0  0  0  0  0  0  0  0  0  0  0  0
    7.0570   -2.7861   25.7969 C   0  0  0  0  0  0  0  0  0  0  0  0
    9.8925   -0.8509   23.1926 N   0  0  0  0  0  0  0  0  0  0  0  0
   10.6050    4.3704   22.9864 N   0  0  0  0  0  0  0  0  0  0  0  0
    4.8989    0.3538   19.7440 N   0  0  0  0  0  0  0  0  0  0  0  0
    7.9254    1.1476   22.4408 N   0  0  0  0  0  0  0  0  0  0  0  0
    8.0480   -2.4754   24.7111 N   0  0  0  0  0  0  0  0  0  0  0  0
    9.5708    3.9834   25.0023 O   0  0  0  0  0  0  0  0  0  0  0  0
    9.4469    2.3248   21.1407 O   0  0  0  0  0  0  0  0  0  0  0  0
    7.0767    0.7169   19.1051 O   0  0  0  0  0  0  0  0  0  0  0  0
   11.4380   -1.8727   21.6925 O   0  0  0  0  0  0  0  0  0  0  0  0
    5.6898   -2.6460   25.4273 O   0  0  0  0  0  0  0  0  0  0  0  0
    7.1153   -5.4388   25.0809 Cl  0  0  0  0  0  0  0  0  0  0  0  0
  1  9  1  0
  1 16  1  0
  1 20  2  0
  2  9  1  0
  2 18  1  0
  2 21  2  0
  3 10  1  0
  3 17  1  0
  3 22  2  0
  4  5  1  0
  4 15  1  0
  5 19  1  0
  6  7  1  0
  6 19  1  0
  7 12  1  0
  7 15  1  0
  8 13  1  0
 10 12  1  0
 11 14  1  0
 11 25  1  0
 12 18  1  0
 13 15  1  0
 13 23  1  0
 14 19  1  0
 14 24  1  0
M  CHG  1  19   1
M  END
