DAV-CRI-3edb475e-6
     RDKit          3D

 15 15  0  0  1  0  0  0  0  0999 V2000
    9.7853   -2.7493   22.9137 C   0  0  0  0  0  0  0  0  0  0  0  0
    8.9044   -4.7622   23.9182 C   0  0  0  0  0  0  0  0  0  0  0  0
    7.8231   -3.8060   21.9808 C   0  0  0  0  0  0  0  0  0  0  0  0
    9.8520   -3.7390   23.8943 C   0  0  0  0  0  0  0  0  0  0  0  0
    8.7707   -2.7827   21.9570 C   0  0  0  0  0  0  0  0  0  0  0  0
    7.8899   -4.7957   22.9614 C   0  0  0  0  0  0  0  0  0  0  0  0
   12.7334   -2.1133   25.5400 C   0  0  0  0  0  0  0  0  0  0  0  0
   10.5274   -4.3290   26.2582 C   0  0  0  0  0  0  0  0  0  0  0  0
   13.0320   -0.6429   25.6844 C   0  0  0  0  0  0  0  0  0  0  0  0
   10.9373   -3.7032   24.9168 C   0  0  0  0  0  0  0  0  0  0  0  0
   11.4362   -2.3563   25.1372 N   0  0  0  0  0  0  0  0  0  0  0  0
   13.5873   -2.9726   25.7518 O   0  0  0  0  0  0  0  0  0  0  0  0
    8.7066   -1.8324   21.0154 F   0  0  0  0  0  0  0  0  0  0  0  0
    6.7205   -6.0579   22.9903 Cl  0  0  0  0  0  0  0  0  0  0  0  0
   12.0176    0.2349   24.5289 Cl  0  0  0  0  0  0  0  0  0  0  0  0
  1  4  2  0
  1  5  1  0
  2  4  1  0
  2  6  2  0
  3  5  2  0
  3  6  1  0
  4 10  1  0
  5 13  1  0
  6 14  1  0
  7  9  1  0
  7 11  1  0
  7 12  2  0
  8 10  1  0
  9 15  1  0
 10 11  1  0
M  END
