DAV-CRI-1c77f7a9-5
     RDKit          3D

 28 31  0  0  1  0  0  0  0  0999 V2000
    7.8157   -5.0488   24.4282 C   0  0  0  0  0  0  0  0  0  0  0  0
    6.6239   -4.3573   24.2364 C   0  0  0  0  0  0  0  0  0  0  0  0
    7.4235   -1.7229   19.3648 C   0  0  0  0  0  0  0  0  0  0  0  0
    6.7220   -0.6020   18.9211 C   0  0  0  0  0  0  0  0  0  0  0  0
   10.9201    3.6549   24.9815 C   0  0  0  0  0  0  0  0  0  0  0  0
    9.0339   -4.4180   24.1786 C   0  0  0  0  0  0  0  0  0  0  0  0
    6.6508   -3.0345   23.7973 C   0  0  0  0  0  0  0  0  0  0  0  0
    7.7939   -1.8283   20.7055 C   0  0  0  0  0  0  0  0  0  0  0  0
    6.3910    0.4137   19.8180 C   0  0  0  0  0  0  0  0  0  0  0  0
    9.9722    2.6467   24.8458 C   0  0  0  0  0  0  0  0  0  0  0  0
   12.2350    3.2824   25.2098 C   0  0  0  0  0  0  0  0  0  0  0  0
   11.7026    1.0479   25.1712 C   0  0  0  0  0  0  0  0  0  0  0  0
    9.0750   -3.0877   23.7323 C   0  0  0  0  0  0  0  0  0  0  0  0
    7.8726   -2.3880   23.5460 C   0  0  0  0  0  0  0  0  0  0  0  0
    7.4629   -0.8126   21.6024 C   0  0  0  0  0  0  0  0  0  0  0  0
   10.3627    1.3156   24.9412 C   0  0  0  0  0  0  0  0  0  0  0  0
    6.7614    0.3084   21.1587 C   0  0  0  0  0  0  0  0  0  0  0  0
   11.4533   -0.4872   22.2792 C   0  0  0  0  0  0  0  0  0  0  0  0
   10.4161   -2.4526   23.4750 C   0  0  0  0  0  0  0  0  0  0  0  0
    7.8777   -0.9504   23.0645 C   0  0  0  0  0  0  0  0  0  0  0  0
    9.2277   -0.2401   23.3349 C   0  0  0  0  0  0  0  0  0  0  0  0
    6.3965    1.4088   22.1002 C   0  0  0  0  0  0  0  0  0  0  0  0
    9.3637    0.2046   24.7987 C   0  0  0  0  0  0  0  0  0  0  0  0
   12.6861   -1.3400   22.1035 C   0  0  0  0  0  0  0  0  0  0  0  0
   12.6522    2.0003   25.3085 N   0  0  0  0  0  0  0  0  0  0  0  0
   10.3755   -1.0800   22.9502 N   0  0  0  0  0  0  0  0  0  0  0  0
   11.4449    0.6615   21.8296 O   0  0  0  0  0  0  0  0  0  0  0  0
   14.0559   -0.2369   22.0469 Cl  0  0  0  0  0  0  0  0  0  0  0  0
  1  2  2  0
  1  6  1  0
  2  7  1  0
  3  4  2  0
  3  8  1  0
  4  9  1  0
  5 10  2  0
  5 11  1  0
  6 13  2  0
  7 14  2  0
  8 15  2  0
  9 17  2  0
 10 16  1  0
 11 25  2  0
 12 16  2  0
 12 25  1  0
 13 14  1  0
 13 19  1  0
 14 20  1  0
 15 17  1  0
 15 20  1  0
 16 23  1  0
 17 22  1  0
 18 24  1  0
 18 26  1  0
 18 27  2  0
 19 26  1  0
 20 21  1  0
 21 23  1  0
 21 26  1  0
 24 28  1  0
M  END
