DAV-CRI-1c77f7a9-7
     RDKit          3D

 29 32  0  0  1  0  0  0  0  0999 V2000
    6.1186   -0.7522   19.2314 C   0  0  0  0  0  0  0  0  0  0  0  0
    5.4633   -1.3568   20.3041 C   0  0  0  0  0  0  0  0  0  0  0  0
    7.4969   -0.9051   19.0803 C   0  0  0  0  0  0  0  0  0  0  0  0
    6.1896   -6.6031   23.3752 C   0  0  0  0  0  0  0  0  0  0  0  0
    6.7201   -6.5415   22.0910 C   0  0  0  0  0  0  0  0  0  0  0  0
    6.1862   -2.1141   21.2258 C   0  0  0  0  0  0  0  0  0  0  0  0
    8.2198   -1.6624   20.0020 C   0  0  0  0  0  0  0  0  0  0  0  0
    6.3571   -5.5293   24.2485 C   0  0  0  0  0  0  0  0  0  0  0  0
    7.4189   -5.4069   21.6820 C   0  0  0  0  0  0  0  0  0  0  0  0
   12.8175   -0.8052   25.5349 C   0  0  0  0  0  0  0  0  0  0  0  0
   12.6619   -3.1936   25.2986 C   0  0  0  0  0  0  0  0  0  0  0  0
   14.0208   -1.0028   26.1927 C   0  0  0  0  0  0  0  0  0  0  0  0
   13.8723   -3.2842   25.9668 C   0  0  0  0  0  0  0  0  0  0  0  0
    7.5645   -2.2670   21.0747 C   0  0  0  0  0  0  0  0  0  0  0  0
    7.0552   -4.3788   23.8477 C   0  0  0  0  0  0  0  0  0  0  0  0
    7.5948   -4.3189   22.5543 C   0  0  0  0  0  0  0  0  0  0  0  0
   12.1313   -1.9267   25.0825 C   0  0  0  0  0  0  0  0  0  0  0  0
   10.0892   -2.7860   23.8925 C   0  0  0  0  0  0  0  0  0  0  0  0
    7.7688   -0.7929   24.9397 C   0  0  0  0  0  0  0  0  0  0  0  0
    7.2087   -3.2503   24.8319 C   0  0  0  0  0  0  0  0  0  0  0  0
    8.3555   -3.0947   22.0822 C   0  0  0  0  0  0  0  0  0  0  0  0
    8.8584   -2.2146   23.2424 C   0  0  0  0  0  0  0  0  0  0  0  0
    7.8849    0.4128   24.0392 C   0  0  0  0  0  0  0  0  0  0  0  0
   14.5679   -2.2177   26.4212 N   0  0  0  0  0  0  0  0  0  0  0  0
    7.8817   -2.0467   24.3217 N   0  0  0  0  0  0  0  0  0  0  0  0
   10.8978   -1.7793   24.4048 N   0  0  0  0  0  0  0  0  0  0  0  0
   10.2769   -3.9979   23.9260 O   0  0  0  0  0  0  0  0  0  0  0  0
    7.5932   -0.6280   26.1496 O   0  0  0  0  0  0  0  0  0  0  0  0
    6.8741    1.6673   24.7467 Cl  0  0  0  0  0  0  0  0  0  0  0  0
  1  2  2  0
  1  3  1  0
  2  6  1  0
  3  7  2  0
  4  5  2  0
  4  8  1  0
  5  9  1  0
  6 14  2  0
  7 14  1  0
  8 15  2  0
  9 16  2  0
 10 12  2  0
 10 17  1  0
 11 13  1  0
 11 17  2  0
 12 24  1  0
 13 24  2  0
 14 21  1  0
 15 16  1  0
 15 20  1  0
 16 21  1  0
 17 26  1  0
 18 22  1  0
 18 26  1  0
 18 27  2  0
 19 23  1  0
 19 25  1  0
 19 28  2  0
 20 25  1  0
 21 22  1  0
 22 25  1  0
 23 29  1  0
M  END
