DAV-AUT-7eb4e0c3-4
     RDKit          3D

 21 23  0  0  1  0  0  0  0  0999 V2000
   11.6497    1.5950   24.4855 C   0  0  0  0  0  0  0  0  0  0  0  0
   10.9662    2.8091   24.5831 C   0  0  0  0  0  0  0  0  0  0  0  0
   13.1022    2.4727   22.7235 C   0  0  0  0  0  0  0  0  0  0  0  0
   12.4183    3.6662   22.8312 C   0  0  0  0  0  0  0  0  0  0  0  0
   12.7067    1.4284   23.5663 C   0  0  0  0  0  0  0  0  0  0  0  0
   11.3801    3.8209   23.7466 C   0  0  0  0  0  0  0  0  0  0  0  0
   12.6120    4.9236   22.0779 C   0  0  0  0  0  0  0  0  0  0  0  0
   12.2441   -2.8150   23.8939 C   0  0  0  0  0  0  0  0  0  0  0  0
   13.7373   -2.8501   24.1686 C   0  0  0  0  0  0  0  0  0  0  0  0
   12.7620   -0.8307   22.4536 C   0  0  0  0  0  0  0  0  0  0  0  0
   14.2434   -1.6434   24.9515 C   0  0  0  0  0  0  0  0  0  0  0  0
   13.4236    0.0937   23.4905 C   0  0  0  0  0  0  0  0  0  0  0  0
   10.4179   -1.6481   22.6923 C   0  0  0  0  0  0  0  0  0  0  0  0
   11.1746    6.2200   25.1410 C   0  0  0  0  0  0  0  0  0  0  0  0
   11.6809    5.9239   22.4964 N   0  0  0  0  0  0  0  0  0  0  0  0
   11.8225   -1.7859   23.0465 N   0  0  0  0  0  0  0  0  0  0  0  0
   13.4740    5.0330   21.2190 O   0  0  0  0  0  0  0  0  0  0  0  0
   11.5015   -3.6578   24.3992 O   0  0  0  0  0  0  0  0  0  0  0  0
    9.2730    5.3109   23.5613 O   0  0  0  0  0  0  0  0  0  0  0  0
   13.4553   -0.4695   24.8035 O   0  0  0  0  0  0  0  0  0  0  0  0
   10.7143    5.4354   23.6219 S   0  0  0  0  0  0  0  0  0  0  0  0
  1  2  2  0
  1  5  1  0
  2  6  1  0
  3  4  1  0
  3  5  2  0
  4  6  2  0
  4  7  1  0
  5 12  1  0
  6 21  1  0
  7 15  1  0
  7 17  2  0
  8  9  1  0
  8 16  1  0
  8 18  2  0
  9 11  1  0
 10 12  1  0
 10 16  1  0
 11 20  1  0
 12 20  1  0
 13 16  1  0
 14 21  1  0
 15 21  2  0
 19 21  2  0
M  END
