DAV-CRI-3fe943ba-2
     RDKit          3D

 28 31  0  0  1  0  0  0  0  0999 V2000
    5.1267   -6.4260   24.9734 C   0  0  0  0  0  0  0  0  0  0  0  0
    5.9892   -5.6992   25.7863 C   0  0  0  0  0  0  0  0  0  0  0  0
    5.0533   -6.1415   23.6116 C   0  0  0  0  0  0  0  0  0  0  0  0
    6.7914   -4.6992   25.2354 C   0  0  0  0  0  0  0  0  0  0  0  0
    9.8981   -4.2736   23.7599 C   0  0  0  0  0  0  0  0  0  0  0  0
   11.1781   -4.1695   24.3030 C   0  0  0  0  0  0  0  0  0  0  0  0
    9.4167   -2.0197   24.4724 C   0  0  0  0  0  0  0  0  0  0  0  0
    9.0167   -3.2000   23.8470 C   0  0  0  0  0  0  0  0  0  0  0  0
   11.5893   -2.9910   24.9443 C   0  0  0  0  0  0  0  0  0  0  0  0
    5.8476   -5.1308   23.0460 C   0  0  0  0  0  0  0  0  0  0  0  0
    6.7572   -4.4220   23.8571 C   0  0  0  0  0  0  0  0  0  0  0  0
   10.7057   -1.8983   25.0134 C   0  0  0  0  0  0  0  0  0  0  0  0
    5.9472   -2.7544   20.1526 C   0  0  0  0  0  0  0  0  0  0  0  0
   12.9931   -2.9071   25.4904 C   0  0  0  0  0  0  0  0  0  0  0  0
   11.0889   -0.6170   25.7105 C   0  0  0  0  0  0  0  0  0  0  0  0
    5.6998   -4.8441   21.5706 C   0  0  0  0  0  0  0  0  0  0  0  0
   12.5955   -0.4660   25.9108 C   0  0  0  0  0  0  0  0  0  0  0  0
    7.7220   -3.4419   21.7285 C   0  0  0  0  0  0  0  0  0  0  0  0
    7.6173   -3.3141   23.2586 C   0  0  0  0  0  0  0  0  0  0  0  0
   13.1884   -1.7531   26.4754 C   0  0  0  0  0  0  0  0  0  0  0  0
    6.8267   -1.5661   19.8533 C   0  0  0  0  0  0  0  0  0  0  0  0
    6.4014   -3.6326   21.1370 N   0  0  0  0  0  0  0  0  0  0  0  0
   14.8007   -0.2295   27.9308 N   0  0  0  0  0  0  0  0  0  0  0  0
    4.8930   -2.8979   19.5282 O   0  0  0  0  0  0  0  0  0  0  0  0
   15.3529   -2.7160   27.5717 O   0  0  0  0  0  0  0  0  0  0  0  0
   15.5744   -1.1037   25.6386 O   0  0  0  0  0  0  0  0  0  0  0  0
   14.9071   -1.5409   26.8491 S   0  0  0  0  0  0  0  0  0  0  0  0
    6.0341   -0.6656   18.5657 Cl  0  0  0  0  0  0  0  0  0  0  0  0
  1  2  2  0
  1  3  1  0
  2  4  1  0
  3 10  2  0
  4 11  2  0
  5  6  2  0
  5  8  1  0
  6  9  1  0
  7  8  2  0
  7 12  1  0
  8 19  1  0
  9 12  2  0
  9 14  1  0
 10 11  1  0
 10 16  1  0
 11 19  1  0
 12 15  1  0
 13 21  1  0
 13 22  1  0
 13 24  2  0
 14 20  1  0
 15 17  1  0
 16 22  1  0
 17 20  1  0
 18 19  1  0
 18 22  1  0
 20 27  1  0
 21 28  1  0
 23 27  1  0
 25 27  2  0
 26 27  2  0
M  END
