DAV-IMP-59dd6621-7
     RDKit          3D

 19 20  0  0  1  0  0  0  0  0999 V2000
   12.7700   -0.9608   25.4895 C   0  0  0  0  0  0  0  0  0  0  0  0
   13.2016   -2.2291   25.8777 C   0  0  0  0  0  0  0  0  0  0  0  0
   11.5468   -0.8100   24.8362 C   0  0  0  0  0  0  0  0  0  0  0  0
   12.4101   -3.3467   25.6124 C   0  0  0  0  0  0  0  0  0  0  0  0
   10.7553   -1.9275   24.5710 C   0  0  0  0  0  0  0  0  0  0  0  0
   11.1869   -3.1958   24.9591 C   0  0  0  0  0  0  0  0  0  0  0  0
    6.3021   -0.4111   19.3199 C   0  0  0  0  0  0  0  0  0  0  0  0
    6.7624   -1.0249   20.4143 C   0  0  0  0  0  0  0  0  0  0  0  0
    6.3721   -2.4293   20.7101 C   0  0  0  0  0  0  0  0  0  0  0  0
    7.8477   -5.2212   22.0162 C   0  0  0  0  0  0  0  0  0  0  0  0
    6.7221   -4.2316   22.3848 C   0  0  0  0  0  0  0  0  0  0  0  0
    8.4443   -5.0420   23.4296 C   0  0  0  0  0  0  0  0  0  0  0  0
    7.0680   -4.4587   23.8927 C   0  0  0  0  0  0  0  0  0  0  0  0
    6.1668   -5.5196   24.5420 C   0  0  0  0  0  0  0  0  0  0  0  0
    7.1403   -3.2186   24.7831 C   0  0  0  0  0  0  0  0  0  0  0  0
   10.3351   -4.3976   24.6733 C   0  0  0  0  0  0  0  0  0  0  0  0
    6.9494   -2.8782   21.8787 N   0  0  0  0  0  0  0  0  0  0  0  0
    5.6289   -3.0759   19.9790 O   0  0  0  0  0  0  0  0  0  0  0  0
    9.5857   -4.1631   23.4962 O   0  0  0  0  0  0  0  0  0  0  0  0
  1  2  2  0
  1  3  1  0
  2  4  1  0
  3  5  2  0
  4  6  2  0
  5  6  1  0
  6 16  1  0
  7  8  2  0
  8  9  1  0
  9 17  1  0
  9 18  2  0
 10 11  1  0
 10 12  1  0
 11 13  1  0
 11 17  1  0
 12 13  1  0
 12 19  1  0
 13 14  1  0
 13 15  1  0
 16 19  1  0
M  END
