DAV-IMP-59dd6621-20
     RDKit          3D

 16 17  0  0  1  0  0  0  0  0999 V2000
   13.3807   -0.5541   24.3060 C   0  0  0  0  0  0  0  0  0  0  0  0
   13.6871   -1.4103   25.2854 C   0  0  0  0  0  0  0  0  0  0  0  0
   13.2406   -2.8272   25.2137 C   0  0  0  0  0  0  0  0  0  0  0  0
    6.4278   -5.2455   20.6367 C   0  0  0  0  0  0  0  0  0  0  0  0
    6.2607   -6.2528   21.7677 C   0  0  0  0  0  0  0  0  0  0  0  0
    7.0480   -3.9470   21.1404 C   0  0  0  0  0  0  0  0  0  0  0  0
    7.5725   -6.5042   22.4950 C   0  0  0  0  0  0  0  0  0  0  0  0
    9.3977   -5.4068   23.7988 C   0  0  0  0  0  0  0  0  0  0  0  0
    8.9127   -2.9086   22.4934 C   0  0  0  0  0  0  0  0  0  0  0  0
    8.3647   -4.1931   21.8761 C   0  0  0  0  0  0  0  0  0  0  0  0
    9.8754   -4.0556   24.3186 C   0  0  0  0  0  0  0  0  0  0  0  0
   11.1840   -4.2051   25.0826 C   0  0  0  0  0  0  0  0  0  0  0  0
   11.8524   -2.9478   25.1537 N   0  0  0  0  0  0  0  0  0  0  0  0
    8.1325   -5.1933   22.9954 N   0  0  0  0  0  0  0  0  0  0  0  0
   14.0278   -3.7681   25.2122 O   0  0  0  0  0  0  0  0  0  0  0  0
   10.1123   -3.1682   23.2220 O   0  0  0  0  0  0  0  0  0  0  0  0
  1  2  2  0
  2  3  1  0
  3 13  1  0
  3 15  2  0
  4  5  1  0
  4  6  1  0
  5  7  1  0
  6 10  1  0
  7 14  1  0
  8 11  1  0
  8 14  1  0
  9 10  1  0
  9 16  1  0
 10 14  1  0
 11 12  1  0
 11 16  1  0
 12 13  1  0
M  CHG  1  14   1
M  END
