DAV-CRI-f9b12666-4
     RDKit          3D

 41 44  0  0  1  0  0  0  0  0999 V2000
   14.3880   -2.3027   26.6443 C   0  0  0  0  0  0  0  0  0  0  0  0
   11.6469    1.8793   23.7548 C   0  0  0  0  0  0  0  0  0  0  0  0
   13.7000   -1.1723   26.2173 C   0  0  0  0  0  0  0  0  0  0  0  0
   12.3479    0.7544   24.1891 C   0  0  0  0  0  0  0  0  0  0  0  0
   13.8809   -3.5827   26.4068 C   0  0  0  0  0  0  0  0  0  0  0  0
   10.3544    2.1189   24.2215 C   0  0  0  0  0  0  0  0  0  0  0  0
   10.4639    0.1084   25.5567 C   0  0  0  0  0  0  0  0  0  0  0  0
   11.7564   -0.1311   25.0901 C   0  0  0  0  0  0  0  0  0  0  0  0
   12.4834   -1.2949   25.5397 C   0  0  0  0  0  0  0  0  0  0  0  0
   11.9486   -2.5766   25.2867 C   0  0  0  0  0  0  0  0  0  0  0  0
   12.6585   -3.6984   25.7255 C   0  0  0  0  0  0  0  0  0  0  0  0
    9.7629    1.2335   25.1224 C   0  0  0  0  0  0  0  0  0  0  0  0
   10.5761   -4.1502   24.5745 C   0  0  0  0  0  0  0  0  0  0  0  0
    5.9118   -5.6413   24.7903 C   0  0  0  0  0  0  0  0  0  0  0  0
    3.7269    0.0557   21.9771 C   0  0  0  0  0  0  0  0  0  0  0  0
    5.6224   -3.1871   21.0899 C   0  0  0  0  0  0  0  0  0  0  0  0
    9.2970   -4.5183   22.4248 C   0  0  0  0  0  0  0  0  0  0  0  0
    8.0825   -5.2071   21.8083 C   0  0  0  0  0  0  0  0  0  0  0  0
    8.0648   -4.4430   24.6320 C   0  0  0  0  0  0  0  0  0  0  0  0
    9.3771   -4.8201   23.9283 C   0  0  0  0  0  0  0  0  0  0  0  0
    6.7763   -4.8556   22.5302 C   0  0  0  0  0  0  0  0  0  0  0  0
    7.1469    0.3394   19.4276 C   0  0  0  0  0  0  0  0  0  0  0  0
    4.7380   -6.2663   24.0784 C   0  0  0  0  0  0  0  0  0  0  0  0
    3.9315   -1.4084   21.6292 C   0  0  0  0  0  0  0  0  0  0  0  0
    5.3000   -1.7039   21.0148 C   0  0  0  0  0  0  0  0  0  0  0  0
    6.6637   -1.0402   18.9879 C   0  0  0  0  0  0  0  0  0  0  0  0
   10.7584   -2.8516   24.6291 N   0  0  0  0  0  0  0  0  0  0  0  0
    6.8975   -5.0588   23.9868 N   0  0  0  0  0  0  0  0  0  0  0  0
    2.5188    0.2808   22.6022 N   0  0  0  0  0  0  0  0  0  0  0  0
    6.6882   -1.1182   17.5307 N   0  0  0  0  0  0  0  0  0  0  0  0
    7.2161    0.7087   24.5367 N   0  0  0  0  0  0  0  0  0  0  0  0
    6.3521   -3.5080   22.2244 N   0  0  0  0  0  0  0  0  0  0  0  0
    5.3020   -1.2506   19.5929 N   0  0  0  0  0  0  0  0  0  0  0  0
    5.9539   -5.6753   26.0230 O   0  0  0  0  0  0  0  0  0  0  0  0
    4.5432    0.9400   21.7360 O   0  0  0  0  0  0  0  0  0  0  0  0
    5.2594   -3.9890   20.2323 O   0  0  0  0  0  0  0  0  0  0  0  0
    7.9892    0.8649   26.9910 O   0  0  0  0  0  0  0  0  0  0  0  0
    7.8734    2.9617   25.5991 O   0  0  0  0  0  0  0  0  0  0  0  0
   11.7888   -5.1219   25.2895 S   0  0  0  0  0  0  0  0  0  0  0  0
    8.1458    1.5354   25.7079 S   0  0  0  0  0  0  0  0  0  0  0  0
    3.5115   -5.0124   23.9338 Cl  0  0  0  0  0  0  0  0  0  0  0  0
  1  3  2  0
  1  5  1  0
  2  4  2  0
  2  6  1  0
  3  9  1  0
  4  8  1  0
  5 11  2  0
  6 12  2  0
  7  8  2  0
  7 12  1  0
  8  9  1  0
  9 10  2  0
 10 11  1  0
 10 27  1  0
 11 39  1  0
 12 40  1  0
 13 20  1  0
 13 27  2  0
 13 39  1  0
 14 23  1  0
 14 28  1  0
 14 34  2  0
 15 24  1  0
 15 29  1  0
 15 35  2  0
 16 25  1  0
 16 32  1  0
 16 36  2  0
 17 18  1  0
 17 20  1  0
 18 21  1  0
 19 20  1  0
 19 28  1  0
 21 28  1  0
 21 32  1  0
 22 26  1  0
 23 41  1  0
 24 25  1  0
 25 33  1  0
 26 30  1  0
 26 33  1  0
 31 40  1  0
 37 40  2  0
 38 40  2  0
M  CHG  1  33   1
M  END
