DAV-CRI-3edb475e-1
     RDKit          3D

 15 15  0  0  1  0  0  0  0  0999 V2000
   10.1204   -2.9056   23.0658 C   0  0  0  0  0  0  0  0  0  0  0  0
    9.0936   -3.0643   22.1352 C   0  0  0  0  0  0  0  0  0  0  0  0
    9.3665   -4.8810   24.2346 C   0  0  0  0  0  0  0  0  0  0  0  0
   10.2569   -3.8140   24.1155 C   0  0  0  0  0  0  0  0  0  0  0  0
    8.2032   -4.1313   22.2543 C   0  0  0  0  0  0  0  0  0  0  0  0
    8.3396   -5.0397   23.3040 C   0  0  0  0  0  0  0  0  0  0  0  0
   13.0709   -1.9175   25.5777 C   0  0  0  0  0  0  0  0  0  0  0  0
   11.0016   -4.1876   26.5026 C   0  0  0  0  0  0  0  0  0  0  0  0
   13.2908   -0.4266   25.6067 C   0  0  0  0  0  0  0  0  0  0  0  0
   11.3548   -3.6434   25.1104 C   0  0  0  0  0  0  0  0  0  0  0  0
   11.7826   -2.2590   25.2202 N   0  0  0  0  0  0  0  0  0  0  0  0
   13.9738   -2.7116   25.8355 O   0  0  0  0  0  0  0  0  0  0  0  0
    7.2101   -4.2621   21.3297 O   0  0  0  0  0  0  0  0  0  0  0  0
    7.2528   -6.3688   23.4748 Cl  0  0  0  0  0  0  0  0  0  0  0  0
   12.2114    0.3064   24.4098 Cl  0  0  0  0  0  0  0  0  0  0  0  0
  1  2  2  0
  1  4  1  0
  2  5  1  0
  3  4  2  0
  3  6  1  0
  4 10  1  0
  5  6  2  0
  5 13  1  0
  6 14  1  0
  7  9  1  0
  7 11  1  0
  7 12  2  0
  8 10  1  0
  9 15  1  0
 10 11  1  0
M  END
