DAV-CRI-1c77f7a9-6
     RDKit          3D

 29 32  0  0  1  0  0  0  0  0999 V2000
    6.7320   -1.0026   18.5830 C   0  0  0  0  0  0  0  0  0  0  0  0
    5.9928   -1.5292   19.6422 C   0  0  0  0  0  0  0  0  0  0  0  0
    8.1217   -1.1227   18.5746 C   0  0  0  0  0  0  0  0  0  0  0  0
    6.5525   -6.4498   23.2418 C   0  0  0  0  0  0  0  0  0  0  0  0
    7.2008   -6.4869   22.0119 C   0  0  0  0  0  0  0  0  0  0  0  0
   13.8906   -2.6699   26.2251 C   0  0  0  0  0  0  0  0  0  0  0  0
    6.6433   -2.1758   20.6931 C   0  0  0  0  0  0  0  0  0  0  0  0
    8.7721   -1.7694   19.6255 C   0  0  0  0  0  0  0  0  0  0  0  0
    6.6100   -5.2965   24.0232 C   0  0  0  0  0  0  0  0  0  0  0  0
    7.9073   -5.3713   21.5655 C   0  0  0  0  0  0  0  0  0  0  0  0
   12.7433   -2.6575   25.4397 C   0  0  0  0  0  0  0  0  0  0  0  0
   14.4405   -1.4513   26.5891 C   0  0  0  0  0  0  0  0  0  0  0  0
   12.8149   -0.2804   25.4647 C   0  0  0  0  0  0  0  0  0  0  0  0
    8.0330   -2.2960   20.6848 C   0  0  0  0  0  0  0  0  0  0  0  0
    7.3146   -4.1644   23.5833 C   0  0  0  0  0  0  0  0  0  0  0  0
    7.9730   -4.2038   22.3452 C   0  0  0  0  0  0  0  0  0  0  0  0
   12.1889   -1.4441   25.0478 C   0  0  0  0  0  0  0  0  0  0  0  0
   10.2907   -2.4745   23.7596 C   0  0  0  0  0  0  0  0  0  0  0  0
    7.8332   -0.4729   24.3982 C   0  0  0  0  0  0  0  0  0  0  0  0
    7.3463   -2.9473   24.4682 C   0  0  0  0  0  0  0  0  0  0  0  0
    8.7448   -3.0026   21.8335 C   0  0  0  0  0  0  0  0  0  0  0  0
    9.1136   -2.0052   22.9483 C   0  0  0  0  0  0  0  0  0  0  0  0
    6.8492   -0.3250   25.5331 C   0  0  0  0  0  0  0  0  0  0  0  0
   13.9304   -0.2526   26.2279 N   0  0  0  0  0  0  0  0  0  0  0  0
    8.0349   -1.7729   23.9126 N   0  0  0  0  0  0  0  0  0  0  0  0
   11.0221   -1.3995   24.2484 N   0  0  0  0  0  0  0  0  0  0  0  0
   10.5040   -3.6715   23.9228 O   0  0  0  0  0  0  0  0  0  0  0  0
    8.3961    0.5303   23.9526 O   0  0  0  0  0  0  0  0  0  0  0  0
    5.2793   -0.0183   24.7998 Cl  0  0  0  0  0  0  0  0  0  0  0  0
  1  2  2  0
  1  3  1  0
  2  7  1  0
  3  8  2  0
  4  5  2  0
  4  9  1  0
  5 10  1  0
  6 11  2  0
  6 12  1  0
  7 14  2  0
  8 14  1  0
  9 15  2  0
 10 16  2  0
 11 17  1  0
 12 24  2  0
 13 17  2  0
 13 24  1  0
 14 21  1  0
 15 16  1  0
 15 20  1  0
 16 21  1  0
 17 26  1  0
 18 22  1  0
 18 26  1  0
 18 27  2  0
 19 23  1  0
 19 25  1  0
 19 28  2  0
 20 25  1  0
 21 22  1  0
 22 25  1  0
 23 29  1  0
M  END
