DAV-CRI-3edb475e-4
     RDKit          3D

 15 15  0  0  1  0  0  0  0  0999 V2000
    8.9370   -5.9689   23.2904 C   0  0  0  0  0  0  0  0  0  0  0  0
    7.8826   -5.4389   22.5469 C   0  0  0  0  0  0  0  0  0  0  0  0
    9.8989   -5.1207   23.8392 C   0  0  0  0  0  0  0  0  0  0  0  0
    8.7519   -3.2127   22.9008 C   0  0  0  0  0  0  0  0  0  0  0  0
    7.7900   -4.0608   22.3520 C   0  0  0  0  0  0  0  0  0  0  0  0
    9.8064   -3.7427   23.6444 C   0  0  0  0  0  0  0  0  0  0  0  0
    6.4800   -1.9911   19.5945 C   0  0  0  0  0  0  0  0  0  0  0  0
    7.0625   -0.7400   18.9882 C   0  0  0  0  0  0  0  0  0  0  0  0
    5.4338   -3.1390   22.4117 C   0  0  0  0  0  0  0  0  0  0  0  0
    6.6629   -3.4950   21.5558 C   0  0  0  0  0  0  0  0  0  0  0  0
    7.0812   -2.3320   20.7875 N   0  0  0  0  0  0  0  0  0  0  0  0
    5.5573   -2.6026   19.0589 O   0  0  0  0  0  0  0  0  0  0  0  0
    4.6953   -4.3178   22.7163 O   0  0  0  0  0  0  0  0  0  0  0  0
   10.9941   -2.6968   24.3207 Cl  0  0  0  0  0  0  0  0  0  0  0  0
    5.7836    0.0640   18.0647 Cl  0  0  0  0  0  0  0  0  0  0  0  0
  1  2  2  0
  1  3  1  0
  2  5  1  0
  3  6  2  0
  4  5  2  0
  4  6  1  0
  5 10  1  0
  6 14  1  0
  7  8  1  0
  7 11  1  0
  7 12  2  0
  8 15  1  0
  9 10  1  0
  9 13  1  0
 10 11  1  0
M  END
