DAV-UNI-bdcebb58-2
     RDKit          3D

 39 41  0  0  1  0  0  0  0  0999 V2000
   13.0061    0.0922   23.7983 C   0  0  0  0  0  0  0  0  0  0  0  0
   13.1719   -0.7260   22.6809 C   0  0  0  0  0  0  0  0  0  0  0  0
   11.8611   -0.0265   24.5860 C   0  0  0  0  0  0  0  0  0  0  0  0
   12.1926   -1.6630   22.3512 C   0  0  0  0  0  0  0  0  0  0  0  0
   10.8817   -0.9634   24.2562 C   0  0  0  0  0  0  0  0  0  0  0  0
   11.0475   -1.7816   23.1388 C   0  0  0  0  0  0  0  0  0  0  0  0
    6.1214    6.6293   22.8491 C   0  0  0  0  0  0  0  0  0  0  0  0
    6.3249    3.4432   22.6170 C   0  0  0  0  0  0  0  0  0  0  0  0
    5.9206   -0.0492   17.8891 C   0  0  0  0  0  0  0  0  0  0  0  0
   13.0546    6.6429   25.1442 C   0  0  0  0  0  0  0  0  0  0  0  0
   12.7784    5.2573   24.5687 C   0  0  0  0  0  0  0  0  0  0  0  0
   11.8868    7.1425   25.9890 C   0  0  0  0  0  0  0  0  0  0  0  0
   11.4670    5.2231   23.7872 C   0  0  0  0  0  0  0  0  0  0  0  0
   10.5739    7.1113   25.2100 C   0  0  0  0  0  0  0  0  0  0  0  0
    7.7740    6.1738   24.6243 C   0  0  0  0  0  0  0  0  0  0  0  0
    8.5931    4.3400   23.3186 C   0  0  0  0  0  0  0  0  0  0  0  0
    6.6000    5.5899   23.8454 C   0  0  0  0  0  0  0  0  0  0  0  0
   10.2881    5.7168   24.6368 C   0  0  0  0  0  0  0  0  0  0  0  0
    8.9987    5.7239   23.8179 C   0  0  0  0  0  0  0  0  0  0  0  0
    6.7446   -1.4451   15.9984 C   0  0  0  0  0  0  0  0  0  0  0  0
    3.4844    3.1763   19.8301 C   0  0  0  0  0  0  0  0  0  0  0  0
    2.5549    0.9253   19.2416 C   0  0  0  0  0  0  0  0  0  0  0  0
    9.9882   -2.7942   22.7827 C   0  0  0  0  0  0  0  0  0  0  0  0
    7.0345    2.2304   22.0701 C   0  0  0  0  0  0  0  0  0  0  0  0
    6.0856   -1.4509   17.3632 C   0  0  0  0  0  0  0  0  0  0  0  0
    8.9071   -2.2525   21.8401 C   0  0  0  0  0  0  0  0  0  0  0  0
    8.0918   -1.1127   22.4591 C   0  0  0  0  0  0  0  0  0  0  0  0
    7.0383   -0.5758   21.4983 C   0  0  0  0  0  0  0  0  0  0  0  0
    3.7824    1.8381   19.1509 C   0  0  0  0  0  0  0  0  0  0  0  0
    5.0419    1.1811   19.7537 C   0  0  0  0  0  0  0  0  0  0  0  0
    7.1400    4.4039   23.1921 N   0  0  0  0  0  0  0  0  0  0  0  0
    6.9929    7.0318   22.0295 O   0  0  0  0  0  0  0  0  0  0  0  0
    4.9081    6.9589   22.9691 O   0  0  0  0  0  0  0  0  0  0  0  0
    5.0994    3.5390   22.5315 O   0  0  0  0  0  0  0  0  0  0  0  0
    6.2950    0.9501   17.2900 O   0  0  0  0  0  0  0  0  0  0  0  0
    5.5951    0.4632   23.5826 O   0  0  0  0  0  0  0  0  0  0  0  0
    5.2951   -0.0806   19.1000 O   0  0  0  0  0  0  0  0  0  0  0  0
    4.8355    0.9642   21.1481 O   0  0  0  0  0  0  0  0  0  0  0  0
    6.0585    0.7444   22.1814 P   0  0  0  0  0  0  0  0  0  0  0  0
  1  2  2  0
  1  3  1  0
  2  4  1  0
  3  5  2  0
  4  6  2  0
  5  6  1  0
  6 23  1  0
  7 17  1  0
  7 32  1  0
  7 33  2  0
  8 24  1  0
  8 31  1  0
  8 34  2  0
  9 25  1  0
  9 35  2  0
  9 37  1  0
 10 11  1  0
 10 12  1  0
 11 13  1  0
 12 14  1  0
 13 18  1  0
 14 18  1  0
 15 17  1  0
 15 19  1  0
 16 19  1  0
 16 31  1  0
 17 31  1  0
 18 19  1  0
 20 25  1  0
 21 29  1  0
 22 29  1  0
 23 26  1  0
 24 39  1  0
 26 27  1  0
 27 28  1  0
 28 39  1  0
 29 30  1  0
 30 37  1  0
 30 38  1  0
 36 39  2  0
 38 39  1  0
M  CHG  1  32  -1
M  END
