DAV-CRI-eab5efcb-3
     RDKit          3D

 17 18  0  0  1  0  0  0  0  0999 V2000
    8.7772   -1.5287   24.1953 C   0  0  0  0  0  0  0  0  0  0  0  0
   11.1411   -1.0034   24.4181 C   0  0  0  0  0  0  0  0  0  0  0  0
    9.8841   -0.8955   24.8723 C   0  0  0  0  0  0  0  0  0  0  0  0
    8.9199   -2.1014   22.9873 C   0  0  0  0  0  0  0  0  0  0  0  0
    6.2213   -1.9562   20.5125 C   0  0  0  0  0  0  0  0  0  0  0  0
   12.4144   -1.0107   22.2332 C   0  0  0  0  0  0  0  0  0  0  0  0
   11.4806   -0.1912   21.3737 C   0  0  0  0  0  0  0  0  0  0  0  0
   11.4810   -1.7788   23.1691 C   0  0  0  0  0  0  0  0  0  0  0  0
   10.2558   -2.1156   22.2823 C   0  0  0  0  0  0  0  0  0  0  0  0
    6.7375   -3.2529   23.2600 C   0  0  0  0  0  0  0  0  0  0  0  0
    5.8292   -0.7292   19.7297 C   0  0  0  0  0  0  0  0  0  0  0  0
    7.7711   -2.7523   22.2750 C   0  0  0  0  0  0  0  0  0  0  0  0
    7.2539   -1.7285   21.4153 N   0  0  0  0  0  0  0  0  0  0  0  0
   10.3258   -1.1116   21.1437 N   0  0  0  0  0  0  0  0  0  0  0  0
    5.6519   -3.0350   20.3559 O   0  0  0  0  0  0  0  0  0  0  0  0
    9.5499   -0.0243   26.3254 Cl  0  0  0  0  0  0  0  0  0  0  0  0
    6.8131   -0.6846   18.2583 Cl  0  0  0  0  0  0  0  0  0  0  0  0
  1  3  1  0
  1  4  2  0
  2  3  2  0
  2  8  1  0
  3 16  1  0
  4  9  1  0
  4 12  1  0
  5 11  1  0
  5 13  1  0
  5 15  2  0
  6  7  1  0
  6  8  1  0
  7 14  1  0
  8  9  1  0
  9 14  1  0
 10 12  1  0
 11 17  1  0
 12 13  1  0
M  CHG  1  14   1
M  END
