DAV-CRI-25b90884-1
     RDKit          3D

 27 28  0  0  1  0  0  0  0  0999 V2000
    6.1829    0.9656   20.3515 C   0  0  0  0  0  0  0  0  0  0  0  0
    7.0651    0.5184   21.3350 C   0  0  0  0  0  0  0  0  0  0  0  0
    8.9264   -4.6519   24.2171 C   0  0  0  0  0  0  0  0  0  0  0  0
    7.5199   -3.9601   26.0556 C   0  0  0  0  0  0  0  0  0  0  0  0
    9.8490   -5.1786   25.1210 C   0  0  0  0  0  0  0  0  0  0  0  0
    8.4425   -4.4868   26.9596 C   0  0  0  0  0  0  0  0  0  0  0  0
    5.7625    0.0969   19.3443 C   0  0  0  0  0  0  0  0  0  0  0  0
    7.1067   -1.6663   20.3040 C   0  0  0  0  0  0  0  0  0  0  0  0
    7.7619   -4.0426   24.6844 C   0  0  0  0  0  0  0  0  0  0  0  0
    7.5270   -0.7976   21.3113 C   0  0  0  0  0  0  0  0  0  0  0  0
    9.6070   -5.0961   26.4923 C   0  0  0  0  0  0  0  0  0  0  0  0
    6.2245   -1.2190   19.3206 C   0  0  0  0  0  0  0  0  0  0  0  0
    4.6632   -4.3508   22.6951 C   0  0  0  0  0  0  0  0  0  0  0  0
   10.9463   -1.1598   22.6549 C   0  0  0  0  0  0  0  0  0  0  0  0
    3.4275   -5.1310   22.9994 C   0  0  0  0  0  0  0  0  0  0  0  0
   12.1279   -0.2449   22.4572 C   0  0  0  0  0  0  0  0  0  0  0  0
    6.5578   -1.9588   23.9140 C   0  0  0  0  0  0  0  0  0  0  0  0
    7.8715   -1.1707   23.7869 C   0  0  0  0  0  0  0  0  0  0  0  0
    6.7593   -3.4708   23.7025 C   0  0  0  0  0  0  0  0  0  0  0  0
    8.4864   -1.2824   22.3793 C   0  0  0  0  0  0  0  0  0  0  0  0
    5.5078   -4.1911   23.7767 N   0  0  0  0  0  0  0  0  0  0  0  0
    9.7455   -0.5772   22.2897 N   0  0  0  0  0  0  0  0  0  0  0  0
    4.8437   -3.9230   21.5610 O   0  0  0  0  0  0  0  0  0  0  0  0
   11.0772   -2.3051   23.0831 O   0  0  0  0  0  0  0  0  0  0  0  0
   10.5067   -5.6112   27.3741 O   0  0  0  0  0  0  0  0  0  0  0  0
    5.7064   -2.2899   18.0770 Cl  0  0  0  0  0  0  0  0  0  0  0  0
   13.2345   -1.0237   21.3154 Cl  0  0  0  0  0  0  0  0  0  0  0  0
  1  2  2  0
  1  7  1  0
  2 10  1  0
  3  5  2  0
  3  9  1  0
  4  6  1  0
  4  9  2  0
  5 11  1  0
  6 11  2  0
  7 12  2  0
  8 10  2  0
  8 12  1  0
  9 19  1  0
 10 20  1  0
 11 25  1  0
 12 26  1  0
 13 15  1  0
 13 21  1  0
 13 23  2  0
 14 16  1  0
 14 22  1  0
 14 24  2  0
 16 27  1  0
 17 18  1  0
 17 19  1  0
 18 20  1  0
 19 21  1  0
 20 22  1  0
M  END
