DAV-IMP-59dd6621-3
     RDKit          3D

 23 24  0  0  0  0  0  0  0  0999 V2000
    6.0799   -5.1175   27.6647 C   0  0  0  0  0  0  0  0  0  0  0  0
    5.8401   -3.8875   27.0522 C   0  0  0  0  0  0  0  0  0  0  0  0
    7.2832   -5.7860   27.4394 C   0  0  0  0  0  0  0  0  0  0  0  0
   10.7541    0.9314   24.6168 C   0  0  0  0  0  0  0  0  0  0  0  0
    6.8035   -3.3261   26.2142 C   0  0  0  0  0  0  0  0  0  0  0  0
    8.2467   -5.2246   26.6014 C   0  0  0  0  0  0  0  0  0  0  0  0
    9.8156    0.0291   24.1162 C   0  0  0  0  0  0  0  0  0  0  0  0
   12.1160    0.6441   24.5247 C   0  0  0  0  0  0  0  0  0  0  0  0
   11.6007   -1.4478   23.4313 C   0  0  0  0  0  0  0  0  0  0  0  0
    8.0068   -3.9946   25.9888 C   0  0  0  0  0  0  0  0  0  0  0  0
   10.2389   -1.1605   23.5235 C   0  0  0  0  0  0  0  0  0  0  0  0
   12.5393   -0.5455   23.9320 C   0  0  0  0  0  0  0  0  0  0  0  0
    9.2494   -2.1118   22.9953 C   0  0  0  0  0  0  0  0  0  0  0  0
    9.0317   -3.3973   25.0973 C   0  0  0  0  0  0  0  0  0  0  0  0
    8.6767   -3.1255   23.6727 C   0  0  0  0  0  0  0  0  0  0  0  0
    7.6450   -3.9268   22.9536 C   0  0  0  0  0  0  0  0  0  0  0  0
    5.4362   -6.0661   23.5977 C   0  0  0  0  0  0  0  0  0  0  0  0
   14.2309   -2.0598   23.2242 C   0  0  0  0  0  0  0  0  0  0  0  0
    6.7342   -6.1037   22.8197 C   0  0  0  0  0  0  0  0  0  0  0  0
   10.1462   -3.1167   25.5257 O   0  0  0  0  0  0  0  0  0  0  0  0
    6.9117   -3.4958   22.0758 O   0  0  0  0  0  0  0  0  0  0  0  0
   13.8681   -0.8260   23.8420 O   0  0  0  0  0  0  0  0  0  0  0  0
    7.6672   -5.2031   23.4255 O   0  0  0  0  0  0  0  0  0  0  0  0
  1  2  2  0
  1  3  1  0
  2  5  1  0
  3  6  2  0
  4  7  2  0
  4  8  1  0
  5 10  2  0
  6 10  1  0
  7 11  1  0
  8 12  2  0
  9 11  2  0
  9 12  1  0
 10 14  1  0
 11 13  1  0
 12 22  1  0
 13 15  2  0
 14 15  1  0
 14 20  2  0
 15 16  1  0
 16 21  2  0
 16 23  1  0
 17 19  1  0
 18 22  1  0
 19 23  1  0
M  END
