DAV-IMP-59dd6621-21
     RDKit          3D

 15 15  0  0  0  0  0  0  0  0999 V2000
   14.5151   -1.4879   26.4042 C   0  0  0  0  0  0  0  0  0  0  0  0
   13.7645   -2.4941   25.9519 C   0  0  0  0  0  0  0  0  0  0  0  0
    7.1809   -5.5512   22.1879 C   0  0  0  0  0  0  0  0  0  0  0  0
    9.8676   -3.3310   23.0224 C   0  0  0  0  0  0  0  0  0  0  0  0
    9.5771   -5.0239   24.8665 C   0  0  0  0  0  0  0  0  0  0  0  0
    8.3774   -3.4506   22.7142 C   0  0  0  0  0  0  0  0  0  0  0  0
    8.0918   -5.1100   24.5213 C   0  0  0  0  0  0  0  0  0  0  0  0
   10.1566   -3.6557   24.4914 C   0  0  0  0  0  0  0  0  0  0  0  0
    7.2896   -7.0449   22.3632 C   0  0  0  0  0  0  0  0  0  0  0  0
    7.8633   -4.7622   23.1134 N   0  0  0  0  0  0  0  0  0  0  0  0
   11.5736   -3.6075   24.7548 N   0  0  0  0  0  0  0  0  0  0  0  0
    6.5111   -5.1012   21.2548 O   0  0  0  0  0  0  0  0  0  0  0  0
   11.3938   -1.4881   26.2059 O   0  0  0  0  0  0  0  0  0  0  0  0
   12.5421   -1.3769   23.9760 O   0  0  0  0  0  0  0  0  0  0  0  0
   12.2525   -2.0956   25.2045 S   0  0  0  0  0  0  0  0  0  0  0  0
  1  2  2  0
  2 15  1  0
  3  9  1  0
  3 10  1  0
  3 12  2  0
  4  6  1  0
  4  8  1  0
  5  7  1  0
  5  8  1  0
  6 10  1  0
  7 10  1  0
  8 11  1  0
 11 15  1  0
 13 15  2  0
 14 15  2  0
M  END
