DAV-CRI-3edb475e-5
     RDKit          3D

 17 17  0  0  1  0  0  0  0  0999 V2000
   12.5174   -3.7956   25.1888 C   0  0  0  0  0  0  0  0  0  0  0  0
   11.2018   -4.1284   24.8665 C   0  0  0  0  0  0  0  0  0  0  0  0
   12.9170   -2.4592   25.1962 C   0  0  0  0  0  0  0  0  0  0  0  0
   10.6853   -1.7884   24.5587 C   0  0  0  0  0  0  0  0  0  0  0  0
   10.2857   -3.1248   24.5514 C   0  0  0  0  0  0  0  0  0  0  0  0
   12.0010   -1.4556   24.8811 C   0  0  0  0  0  0  0  0  0  0  0  0
    8.7567   -2.1527   22.1143 C   0  0  0  0  0  0  0  0  0  0  0  0
    7.2155   -6.4987   22.4929 C   0  0  0  0  0  0  0  0  0  0  0  0
    6.4292   -5.0380   24.3500 C   0  0  0  0  0  0  0  0  0  0  0  0
    7.9667   -1.0704   21.4238 C   0  0  0  0  0  0  0  0  0  0  0  0
    8.7771   -4.8647   23.5386 C   0  0  0  0  0  0  0  0  0  0  0  0
    8.8574   -3.4871   24.2003 C   0  0  0  0  0  0  0  0  0  0  0  0
    8.2632   -2.4634   23.3688 N   0  0  0  0  0  0  0  0  0  0  0  0
    7.3519   -5.1656   23.1715 N   0  0  0  0  0  0  0  0  0  0  0  0
    9.7238   -2.6917   21.5791 O   0  0  0  0  0  0  0  0  0  0  0  0
   12.4948    0.1930   24.8892 Cl  0  0  0  0  0  0  0  0  0  0  0  0
    6.2994   -1.6403   21.2494 Cl  0  0  0  0  0  0  0  0  0  0  0  0
  1  2  2  0
  1  3  1  0
  2  5  1  0
  3  6  2  0
  4  5  2  0
  4  6  1  0
  5 12  1  0
  6 16  1  0
  7 10  1  0
  7 13  1  0
  7 15  2  0
  8 14  1  0
  9 14  1  0
 10 17  1  0
 11 12  1  0
 11 14  1  0
 12 13  1  0
M  CHG  1  14   1
M  END
