DAV-UNI-bdcebb58-3
     RDKit          3D

 39 41  0  0  1  0  0  0  0  0999 V2000
   12.5278    0.9128   24.0772 C   0  0  0  0  0  0  0  0  0  0  0  0
   13.6414    0.1037   24.3020 C   0  0  0  0  0  0  0  0  0  0  0  0
   11.2884    0.5573   24.6095 C   0  0  0  0  0  0  0  0  0  0  0  0
   13.5158   -1.0611   25.0591 C   0  0  0  0  0  0  0  0  0  0  0  0
   11.1628   -0.6075   25.3666 C   0  0  0  0  0  0  0  0  0  0  0  0
   12.2765   -1.4167   25.5914 C   0  0  0  0  0  0  0  0  0  0  0  0
    4.5308   -3.0613   25.3872 C   0  0  0  0  0  0  0  0  0  0  0  0
    5.3637   -4.1134   25.4206 C   0  0  0  0  0  0  0  0  0  0  0  0
    5.7615   -1.8798   19.0190 C   0  0  0  0  0  0  0  0  0  0  0  0
    7.3035   -3.3161   21.4286 C   0  0  0  0  0  0  0  0  0  0  0  0
    4.4538   -6.0757   23.2762 C   0  0  0  0  0  0  0  0  0  0  0  0
    8.0807    4.5096   21.6898 C   0  0  0  0  0  0  0  0  0  0  0  0
    8.8830    3.4167   22.3891 C   0  0  0  0  0  0  0  0  0  0  0  0
    6.6076    4.1329   21.5673 C   0  0  0  0  0  0  0  0  0  0  0  0
    8.7063    2.0629   21.7050 C   0  0  0  0  0  0  0  0  0  0  0  0
    6.4269    2.7803   20.8821 C   0  0  0  0  0  0  0  0  0  0  0  0
    5.6137   -0.1143   20.7369 C   0  0  0  0  0  0  0  0  0  0  0  0
    7.7450   -0.8209   21.5714 C   0  0  0  0  0  0  0  0  0  0  0  0
    5.7309   -1.6184   20.5132 C   0  0  0  0  0  0  0  0  0  0  0  0
    7.2257    1.6763   21.5879 C   0  0  0  0  0  0  0  0  0  0  0  0
    7.0721    0.3457   20.8536 C   0  0  0  0  0  0  0  0  0  0  0  0
    5.6088   -4.8732   26.6943 C   0  0  0  0  0  0  0  0  0  0  0  0
    2.8671   -7.7980   22.3652 C   0  0  0  0  0  0  0  0  0  0  0  0
   12.1399   -2.6760   26.4098 C   0  0  0  0  0  0  0  0  0  0  0  0
    8.5819   -3.5311   22.1986 C   0  0  0  0  0  0  0  0  0  0  0  0
    4.1837   -7.5489   23.0800 C   0  0  0  0  0  0  0  0  0  0  0  0
   11.7919   -3.9176   25.5804 C   0  0  0  0  0  0  0  0  0  0  0  0
   10.4280   -3.8121   24.8909 C   0  0  0  0  0  0  0  0  0  0  0  0
   10.1123   -5.0467   24.0559 C   0  0  0  0  0  0  0  0  0  0  0  0
    6.0905   -4.5789   24.1802 C   0  0  0  0  0  0  0  0  0  0  0  0
    6.9780   -1.9955   21.1671 N   0  0  0  0  0  0  0  0  0  0  0  0
    6.6903   -1.3018   18.3895 O   0  0  0  0  0  0  0  0  0  0  0  0
    4.8498   -2.6451   18.5965 O   0  0  0  0  0  0  0  0  0  0  0  0
    6.6248   -4.2789   21.0670 O   0  0  0  0  0  0  0  0  0  0  0  0
    3.7110   -5.1703   22.9240 O   0  0  0  0  0  0  0  0  0  0  0  0
    8.1564   -6.2274   22.5130 O   0  0  0  0  0  0  0  0  0  0  0  0
    5.6565   -5.9290   23.9056 O   0  0  0  0  0  0  0  0  0  0  0  0
    7.4978   -4.5272   24.4090 O   0  0  0  0  0  0  0  0  0  0  0  0
    8.5299   -4.9718   23.2449 P   0  0  0  0  0  0  0  0  0  0  0  0
  1  2  2  0
  1  3  1  0
  2  4  1  0
  3  5  2  0
  4  6  2  0
  5  6  1  0
  6 24  1  0
  7  8  2  0
  8 22  1  0
  8 30  1  0
  9 19  1  0
  9 32  1  0
  9 33  2  0
 10 25  1  0
 10 31  1  0
 10 34  2  0
 11 26  1  0
 11 35  2  0
 11 37  1  0
 12 13  1  0
 12 14  1  0
 13 15  1  0
 14 16  1  0
 15 20  1  0
 16 20  1  0
 17 19  1  0
 17 21  1  0
 18 21  1  0
 18 31  1  0
 19 31  1  0
 20 21  1  0
 23 26  1  0
 24 27  1  0
 25 39  1  0
 27 28  1  0
 28 29  1  0
 29 39  1  0
 30 37  1  0
 30 38  1  0
 36 39  2  0
 38 39  1  0
M  CHG  1  32  -1
M  END
