DAV-CRI-f9b12666-7
     RDKit          3D

 42 45  0  0  1  0  0  0  0  0999 V2000
    6.4670   -6.6843   30.3681 C   0  0  0  0  0  0  0  0  0  0  0  0
    8.2151   -6.3109   28.0794 C   0  0  0  0  0  0  0  0  0  0  0  0
    5.5880   -7.1392   31.3510 C   0  0  0  0  0  0  0  0  0  0  0  0
    9.1145   -5.8689   27.1058 C   0  0  0  0  0  0  0  0  0  0  0  0
    6.4438   -4.9708   27.1152 C   0  0  0  0  0  0  0  0  0  0  0  0
    4.6221   -6.4526   28.8254 C   0  0  0  0  0  0  0  0  0  0  0  0
    6.8967   -5.8689   28.0859 C   0  0  0  0  0  0  0  0  0  0  0  0
    5.9840   -6.3409   29.1053 C   0  0  0  0  0  0  0  0  0  0  0  0
    7.3319   -4.5083   26.1200 C   0  0  0  0  0  0  0  0  0  0  0  0
    4.2260   -7.2508   31.0711 C   0  0  0  0  0  0  0  0  0  0  0  0
    8.6528   -4.9667   26.1339 C   0  0  0  0  0  0  0  0  0  0  0  0
    3.7431   -6.9075   29.8083 C   0  0  0  0  0  0  0  0  0  0  0  0
    8.0918   -3.4159   24.3604 C   0  0  0  0  0  0  0  0  0  0  0  0
    6.2535   -1.9917   20.0455 C   0  0  0  0  0  0  0  0  0  0  0  0
    4.3210    2.9514   25.3634 C   0  0  0  0  0  0  0  0  0  0  0  0
    6.1433    1.9470   22.1129 C   0  0  0  0  0  0  0  0  0  0  0  0
    8.5740   -1.0791   23.5238 C   0  0  0  0  0  0  0  0  0  0  0  0
    8.6046   -0.1886   22.2846 C   0  0  0  0  0  0  0  0  0  0  0  0
    6.7884   -2.4787   22.4062 C   0  0  0  0  0  0  0  0  0  0  0  0
    8.1325   -2.5015   23.1495 C   0  0  0  0  0  0  0  0  0  0  0  0
    7.2729   -0.1903   21.5249 C   0  0  0  0  0  0  0  0  0  0  0  0
    1.6842    2.2987   21.1078 C   0  0  0  0  0  0  0  0  0  0  0  0
    6.3090   -1.0198   18.8933 C   0  0  0  0  0  0  0  0  0  0  0  0
    5.1596    2.1075   24.4195 C   0  0  0  0  0  0  0  0  0  0  0  0
    4.9986    2.4945   22.9491 C   0  0  0  0  0  0  0  0  0  0  0  0
    3.1732    2.6225   21.1999 C   0  0  0  0  0  0  0  0  0  0  0  0
    7.0261   -3.6208   25.0986 N   0  0  0  0  0  0  0  0  0  0  0  0
    6.8111   -1.5658   21.2555 N   0  0  0  0  0  0  0  0  0  0  0  0
    4.5458    2.6358   26.6866 N   0  0  0  0  0  0  0  0  0  0  0  0
    3.8371    2.1931   19.9731 N   0  0  0  0  0  0  0  0  0  0  0  0
    1.9751   -8.6175   28.7812 N   0  0  0  0  0  0  0  0  0  0  0  0
    6.2648    0.5706   22.2279 N   0  0  0  0  0  0  0  0  0  0  0  0
    3.6975    1.9633   22.4469 N   0  0  0  0  0  0  0  0  0  0  0  0
    3.4415   -7.6722   31.9947 O   0  0  0  0  0  0  0  0  0  0  0  0
    5.7351   -3.0982   19.8732 O   0  0  0  0  0  0  0  0  0  0  0  0
    3.5357    3.8199   24.9952 O   0  0  0  0  0  0  0  0  0  0  0  0
    6.8593    2.6645   21.4179 O   0  0  0  0  0  0  0  0  0  0  0  0
    1.2642   -6.9353   30.6007 O   0  0  0  0  0  0  0  0  0  0  0  0
    1.7926   -6.0963   28.2845 O   0  0  0  0  0  0  0  0  0  0  0  0
    9.5118   -4.2507   24.8216 S   0  0  0  0  0  0  0  0  0  0  0  0
    2.0417   -7.0201   29.3770 S   0  0  0  0  0  0  0  0  0  0  0  0
    5.5758   -1.8315   17.5146 Cl  0  0  0  0  0  0  0  0  0  0  0  0
  1  3  2  0
  1  8  1  0
  2  4  2  0
  2  7  1  0
  3 10  1  0
  4 11  1  0
  5  7  2  0
  5  9  1  0
  6  8  2  0
  6 12  1  0
  7  8  1  0
  9 11  2  0
  9 27  1  0
 10 12  2  0
 10 34  1  0
 11 40  1  0
 12 41  1  0
 13 20  1  0
 13 27  2  0
 13 40  1  0
 14 23  1  0
 14 28  1  0
 14 35  2  0
 15 24  1  0
 15 29  1  0
 15 36  2  0
 16 25  1  0
 16 32  1  0
 16 37  2  0
 17 18  1  0
 17 20  1  0
 18 21  1  0
 19 20  1  0
 19 28  1  0
 21 28  1  0
 21 32  1  0
 22 26  1  0
 23 42  1  0
 24 25  1  0
 25 33  1  0
 26 30  1  0
 26 33  1  0
 31 41  1  0
 38 41  2  0
 39 41  2  0
M  CHG  2  33   1  34  -1
M  END
