DAV-CRI-e1c2b579-2
     RDKit          3D

 22 22  0  0  1  0  0  0  0  0999 V2000
    6.2764   -1.7222   19.4757 C   0  0  0  0  0  0  0  0  0  0  0  0
    6.9556   -4.6919   21.0653 C   0  0  0  0  0  0  0  0  0  0  0  0
    8.9221   -1.8540   25.1456 C   0  0  0  0  0  0  0  0  0  0  0  0
   10.3778   -1.7545   24.7114 C   0  0  0  0  0  0  0  0  0  0  0  0
    9.6043   -1.5719   22.3631 C   0  0  0  0  0  0  0  0  0  0  0  0
    8.1495   -1.6829   22.8473 C   0  0  0  0  0  0  0  0  0  0  0  0
    5.9831   -1.2709   24.4919 C   0  0  0  0  0  0  0  0  0  0  0  0
    7.4109   -1.4589   20.4514 C   0  0  0  0  0  0  0  0  0  0  0  0
   12.5163    0.3547   23.8385 C   0  0  0  0  0  0  0  0  0  0  0  0
    7.3246   -2.3124   21.7162 C   0  0  0  0  0  0  0  0  0  0  0  0
    6.7120   -2.6024   24.6060 C   0  0  0  0  0  0  0  0  0  0  0  0
   11.8703   -0.7385   22.9927 C   0  0  0  0  0  0  0  0  0  0  0  0
    8.0813   -2.4648   24.1022 N   0  0  0  0  0  0  0  0  0  0  0  0
    5.1664   -0.9497   19.7443 N   0  0  0  0  0  0  0  0  0  0  0  0
    7.6467   -5.8789   20.9002 N   0  0  0  0  0  0  0  0  0  0  0  0
    7.7882   -3.6559   21.4708 N   0  0  0  0  0  0  0  0  0  0  0  0
   10.4525   -0.9519   23.4420 N   0  0  0  0  0  0  0  0  0  0  0  0
    6.3323   -2.5370   18.5594 O   0  0  0  0  0  0  0  0  0  0  0  0
    5.7455   -4.5925   20.8698 O   0  0  0  0  0  0  0  0  0  0  0  0
    5.9922   -3.5905   23.8763 O   0  0  0  0  0  0  0  0  0  0  0  0
   12.0299   -0.4469   21.6090 O   0  0  0  0  0  0  0  0  0  0  0  0
   11.6756    1.9191   23.6652 Cl  0  0  0  0  0  0  0  0  0  0  0  0
  1  8  1  0
  1 14  1  0
  1 18  2  0
  2 15  1  0
  2 16  1  0
  2 19  2  0
  3  4  1  0
  3 13  1  0
  4 17  1  0
  5  6  1  0
  5 17  1  0
  6 10  1  0
  6 13  1  0
  7 11  1  0
  8 10  1  0
  9 12  1  0
  9 22  1  0
 10 16  1  0
 11 13  1  0
 11 20  1  0
 12 17  1  0
 12 21  1  0
M  CHG  1  17   1
M  END
