DAV-IMP-59dd6621-28
     RDKit          3D

 20 21  0  0  0  0  0  0  0  0999 V2000
    6.3760   -4.5510   21.7771 C   0  0  0  0  0  0  0  0  0  0  0  0
    6.5995   -4.3540   23.1294 C   0  0  0  0  0  0  0  0  0  0  0  0
    6.5081   -3.4862   20.8814 C   0  0  0  0  0  0  0  0  0  0  0  0
    6.9655   -3.0925   23.5866 C   0  0  0  0  0  0  0  0  0  0  0  0
    6.8476   -2.1903   21.3141 C   0  0  0  0  0  0  0  0  0  0  0  0
    7.0857   -2.0040   22.7005 C   0  0  0  0  0  0  0  0  0  0  0  0
    5.2340    0.6799   17.9138 C   0  0  0  0  0  0  0  0  0  0  0  0
    6.3931    0.1534   18.3145 C   0  0  0  0  0  0  0  0  0  0  0  0
    6.3751   -1.1056   19.0992 C   0  0  0  0  0  0  0  0  0  0  0  0
    7.4080   -0.2299   24.4858 C   0  0  0  0  0  0  0  0  0  0  0  0
    7.5429    0.1681   20.9128 C   0  0  0  0  0  0  0  0  0  0  0  0
    8.3140    0.0131   22.2043 C   0  0  0  0  0  0  0  0  0  0  0  0
    8.6102    0.9492   26.3173 C   0  0  0  0  0  0  0  0  0  0  0  0
    9.2018   -0.1031   27.2360 C   0  0  0  0  0  0  0  0  0  0  0  0
    6.9364   -1.0688   20.3938 N   0  0  0  0  0  0  0  0  0  0  0  0
    7.5342   -0.7341   23.1763 N   0  0  0  0  0  0  0  0  0  0  0  0
    8.5266    0.4441   24.9662 N   0  0  0  0  0  0  0  0  0  0  0  0
    9.3316    0.4456   28.6084 N   0  0  0  0  0  0  0  0  0  0  0  0
    5.8403   -2.0660   18.5457 O   0  0  0  0  0  0  0  0  0  0  0  0
    6.4152   -0.4370   25.1908 O   0  0  0  0  0  0  0  0  0  0  0  0
  1  2  2  0
  1  3  1  0
  2  4  1  0
  3  5  2  0
  4  6  2  0
  5  6  1  0
  5 15  1  0
  6 16  1  0
  7  8  2  0
  8  9  1  0
  9 15  1  0
  9 19  2  0
 10 16  1  0
 10 17  1  0
 10 20  2  0
 11 12  1  0
 11 15  1  0
 12 16  1  0
 13 14  1  0
 13 17  1  0
 14 18  1  0
M  CHG  1  18   1
M  END
