DAV-IMP-59dd6621-6
     RDKit          3D

 17 18  0  0  0  0  0  0  0  0999 V2000
    9.4838   -2.0776   22.6291 C   0  0  0  0  0  0  0  0  0  0  0  0
    9.3566   -4.1120   23.9259 C   0  0  0  0  0  0  0  0  0  0  0  0
    7.6452   -3.6093   22.2964 C   0  0  0  0  0  0  0  0  0  0  0  0
   10.0118   -2.9233   23.6046 C   0  0  0  0  0  0  0  0  0  0  0  0
    8.3004   -2.4206   21.9750 C   0  0  0  0  0  0  0  0  0  0  0  0
    8.1733   -4.4550   23.2719 C   0  0  0  0  0  0  0  0  0  0  0  0
    7.4203    0.0597   18.7950 C   0  0  0  0  0  0  0  0  0  0  0  0
    6.3839   -0.6168   19.3002 C   0  0  0  0  0  0  0  0  0  0  0  0
    6.6052   -1.7512   20.2432 C   0  0  0  0  0  0  0  0  0  0  0  0
   12.9787   -1.2926   25.1695 C   0  0  0  0  0  0  0  0  0  0  0  0
   13.2370   -2.7548   25.4712 C   0  0  0  0  0  0  0  0  0  0  0  0
   11.9844   -1.3575   24.0159 C   0  0  0  0  0  0  0  0  0  0  0  0
   11.8571   -3.3814   25.3068 C   0  0  0  0  0  0  0  0  0  0  0  0
   11.2060   -2.5771   24.2652 N   0  0  0  0  0  0  0  0  0  0  0  0
    7.7723   -1.5746   20.9990 N   0  0  0  0  0  0  0  0  0  0  0  0
    5.8228   -2.6926   20.2995 O   0  0  0  0  0  0  0  0  0  0  0  0
    7.5445   -5.5971   23.5793 F   0  0  0  0  0  0  0  0  0  0  0  0
  1  4  2  0
  1  5  1  0
  2  4  1  0
  2  6  2  0
  3  5  2  0
  3  6  1  0
  4 14  1  0
  5 15  1  0
  6 17  1  0
  7  8  2  0
  8  9  1  0
  9 15  1  0
  9 16  2  0
 10 11  1  0
 10 12  1  0
 11 13  1  0
 12 14  1  0
 13 14  1  0
M  END
