DAV-CRI-0207e898-1
     RDKit          3D

 23 25  0  0  1  0  0  0  0  0999 V2000
   12.0826   -3.0587   26.1953 C   0  0  0  0  0  0  0  0  0  0  0  0
   11.1049   -2.3938   25.4001 C   0  0  0  0  0  0  0  0  0  0  0  0
   13.3372   -2.9993   25.6297 C   0  0  0  0  0  0  0  0  0  0  0  0
   11.6497   -1.8513   24.2569 C   0  0  0  0  0  0  0  0  0  0  0  0
    6.0209   -2.2606   20.7320 C   0  0  0  0  0  0  0  0  0  0  0  0
    5.2980   -4.3854   24.7167 C   0  0  0  0  0  0  0  0  0  0  0  0
    5.8579   -3.7645   23.4406 C   0  0  0  0  0  0  0  0  0  0  0  0
    5.9206   -5.7522   24.9837 C   0  0  0  0  0  0  0  0  0  0  0  0
    7.2596   -0.7965   22.2834 C   0  0  0  0  0  0  0  0  0  0  0  0
    8.7203   -0.3812   22.3294 C   0  0  0  0  0  0  0  0  0  0  0  0
    9.3942   -2.7715   22.2237 C   0  0  0  0  0  0  0  0  0  0  0  0
    7.3949   -3.7357   23.4732 C   0  0  0  0  0  0  0  0  0  0  0  0
    7.9254   -3.2000   22.1403 C   0  0  0  0  0  0  0  0  0  0  0  0
    7.9390   -5.1397   23.8017 C   0  0  0  0  0  0  0  0  0  0  0  0
   10.9615   -1.0783   23.1707 C   0  0  0  0  0  0  0  0  0  0  0  0
    5.5911   -1.0342   19.9657 C   0  0  0  0  0  0  0  0  0  0  0  0
    7.3780   -5.6653   25.0450 N   0  0  0  0  0  0  0  0  0  0  0  0
    7.0734   -2.1000   21.6388 N   0  0  0  0  0  0  0  0  0  0  0  0
    9.5236   -1.4759   22.9853 N   0  0  0  0  0  0  0  0  0  0  0  0
    5.4320   -3.3272   20.5370 O   0  0  0  0  0  0  0  0  0  0  0  0
   13.3332   -2.1445   24.1458 S   0  0  0  0  0  0  0  0  0  0  0  0
    9.7082   -5.1107   24.0495 Cl  0  0  0  0  0  0  0  0  0  0  0  0
    7.0048   -0.4730   19.0804 Cl  0  0  0  0  0  0  0  0  0  0  0  0
  1  2  1  0
  1  3  2  0
  2  4  2  0
  3 21  1  0
  4 15  1  0
  4 21  1  0
  5 16  1  0
  5 18  1  0
  5 20  2  0
  6  7  1  0
  6  8  1  0
  7 12  1  0
  8 17  1  0
  9 10  1  0
  9 18  1  0
 10 19  1  0
 11 13  1  0
 11 19  1  0
 12 13  1  0
 12 14  1  0
 13 18  1  0
 14 17  1  0
 14 22  1  0
 15 19  1  0
 16 23  1  0
M  CHG  1  19   1
M  END
