DAV-CRI-eab5efcb-2
     RDKit          3D

 17 18  0  0  1  0  0  0  0  0999 V2000
    7.7849   -1.3393   23.0728 C   0  0  0  0  0  0  0  0  0  0  0  0
    9.6466   -1.8063   24.5693 C   0  0  0  0  0  0  0  0  0  0  0  0
    8.6985   -0.9691   24.1265 C   0  0  0  0  0  0  0  0  0  0  0  0
    7.8069   -2.5534   22.4953 C   0  0  0  0  0  0  0  0  0  0  0  0
    5.9640   -1.6115   19.4697 C   0  0  0  0  0  0  0  0  0  0  0  0
    9.1660   -5.4809   24.4004 C   0  0  0  0  0  0  0  0  0  0  0  0
    9.7223   -4.2601   25.1117 C   0  0  0  0  0  0  0  0  0  0  0  0
    8.1241   -4.8784   23.4741 C   0  0  0  0  0  0  0  0  0  0  0  0
    9.8239   -3.1911   24.0137 C   0  0  0  0  0  0  0  0  0  0  0  0
    8.8000   -3.6151   22.9184 C   0  0  0  0  0  0  0  0  0  0  0  0
    5.5550   -3.4314   21.9231 C   0  0  0  0  0  0  0  0  0  0  0  0
    5.9144   -0.2238   18.8830 C   0  0  0  0  0  0  0  0  0  0  0  0
    6.8662   -2.9081   21.3793 C   0  0  0  0  0  0  0  0  0  0  0  0
    6.7037   -1.6881   20.6445 N   0  0  0  0  0  0  0  0  0  0  0  0
    5.3818   -2.5589   18.9445 O   0  0  0  0  0  0  0  0  0  0  0  0
    8.5478    0.6136   24.8032 Cl  0  0  0  0  0  0  0  0  0  0  0  0
    7.5752    0.2768   18.5278 Cl  0  0  0  0  0  0  0  0  0  0  0  0
  1  3  1  0
  1  4  2  0
  2  3  2  0
  2  9  1  0
  3 16  1  0
  4 10  1  0
  4 13  1  0
  5 12  1  0
  5 14  1  0
  5 15  2  0
  6  7  1  0
  6  8  1  0
  7  9  1  0
  8 10  1  0
  9 10  1  0
 11 13  1  0
 12 17  1  0
 13 14  1  0
M  END
