DAV-CRI-f4772df7-3
     RDKit          3D

 34 38  0  0  1  0  0  0  0  0999 V2000
   14.1525   -0.7794   22.3934 C   0  0  0  0  0  0  0  0  0  0  0  0
   13.2141   -1.6662   21.8657 C   0  0  0  0  0  0  0  0  0  0  0  0
   13.7941    0.0775   23.4341 C   0  0  0  0  0  0  0  0  0  0  0  0
   11.9173   -1.6962   22.3785 C   0  0  0  0  0  0  0  0  0  0  0  0
   12.4973    0.0476   23.9469 C   0  0  0  0  0  0  0  0  0  0  0  0
    8.0505   -3.9878   23.2238 C   0  0  0  0  0  0  0  0  0  0  0  0
    8.5428   -4.8819   24.1743 C   0  0  0  0  0  0  0  0  0  0  0  0
   10.0340   -3.1774   24.9969 C   0  0  0  0  0  0  0  0  0  0  0  0
   11.5589   -0.8392   23.4192 C   0  0  0  0  0  0  0  0  0  0  0  0
    8.5368   -2.6709   23.1493 C   0  0  0  0  0  0  0  0  0  0  0  0
    9.5469   -2.2663   24.0433 C   0  0  0  0  0  0  0  0  0  0  0  0
    9.5325   -4.4759   25.0626 C   0  0  0  0  0  0  0  0  0  0  0  0
    5.8834   -1.3266   19.4933 C   0  0  0  0  0  0  0  0  0  0  0  0
    8.8523    0.1342   20.7201 C   0  0  0  0  0  0  0  0  0  0  0  0
    5.8492   -0.8980   18.0450 C   0  0  0  0  0  0  0  0  0  0  0  0
    6.4744    0.4915   18.0743 C   0  0  0  0  0  0  0  0  0  0  0  0
    6.1168    1.0227   19.4479 C   0  0  0  0  0  0  0  0  0  0  0  0
    9.2253    0.1076   23.2309 C   0  0  0  0  0  0  0  0  0  0  0  0
    6.2225   -1.2301   23.8537 C   0  0  0  0  0  0  0  0  0  0  0  0
    4.6206    0.1439   22.2188 C   0  0  0  0  0  0  0  0  0  0  0  0
   10.1425   -0.8712   23.9797 C   0  0  0  0  0  0  0  0  0  0  0  0
    7.9721   -1.7284   22.0996 C   0  0  0  0  0  0  0  0  0  0  0  0
    6.5039   -1.4171   22.3580 C   0  0  0  0  0  0  0  0  0  0  0  0
    6.0314   -0.1116   21.6909 C   0  0  0  0  0  0  0  0  0  0  0  0
    9.5362    1.4773   20.6735 C   0  0  0  0  0  0  0  0  0  0  0  0
    6.0525   -0.1727   20.2549 N   0  0  0  0  0  0  0  0  0  0  0  0
    8.7354   -0.4709   21.9749 N   0  0  0  0  0  0  0  0  0  0  0  0
    5.7382   -2.4758   19.8822 O   0  0  0  0  0  0  0  0  0  0  0  0
    8.4346   -0.3659   19.6721 O   0  0  0  0  0  0  0  0  0  0  0  0
    4.8660    0.8435   24.7507 O   0  0  0  0  0  0  0  0  0  0  0  0
    3.6056   -1.2848   24.1871 O   0  0  0  0  0  0  0  0  0  0  0  0
   10.0147   -5.3465   25.9907 O   0  0  0  0  0  0  0  0  0  0  0  0
    4.6747   -0.3401   23.9386 S   0  0  0  0  0  0  0  0  0  0  0  0
    9.5682    1.9681   18.9836 Cl  0  0  0  0  0  0  0  0  0  0  0  0
  1  2  2  0
  1  3  1  0
  2  4  1  0
  3  5  2  0
  4  9  2  0
  5  9  1  0
  6  7  2  0
  6 10  1  0
  7 12  1  0
  8 11  1  0
  8 12  2  0
  9 21  1  0
 10 11  2  0
 10 22  1  0
 11 21  1  0
 12 32  1  0
 13 15  1  0
 13 26  1  0
 13 28  2  0
 14 25  1  0
 14 27  1  0
 14 29  2  0
 15 16  1  0
 16 17  1  0
 17 26  1  0
 18 21  1  0
 18 27  1  0
 19 23  1  0
 19 33  1  0
 20 24  1  0
 20 33  1  0
 22 23  1  0
 22 27  1  0
 23 24  1  0
 24 26  1  0
 25 34  1  0
 30 33  2  0
 31 33  2  0
M  END
