DAV-IMP-59dd6621-29
     RDKit          3D

 20 21  0  0  0  0  0  0  0  0999 V2000
   14.7222   -0.6025   24.5670 C   0  0  0  0  0  0  0  0  0  0  0  0
   13.7724   -0.8906   25.2425 C   0  0  0  0  0  0  0  0  0  0  0  0
    9.7064   -2.3931   23.1613 C   0  0  0  0  0  0  0  0  0  0  0  0
    8.6191   -2.6878   22.3317 C   0  0  0  0  0  0  0  0  0  0  0  0
    9.5932   -4.6003   24.0923 C   0  0  0  0  0  0  0  0  0  0  0  0
   10.1920   -3.3470   24.0439 C   0  0  0  0  0  0  0  0  0  0  0  0
    8.4912   -4.9054   23.2720 C   0  0  0  0  0  0  0  0  0  0  0  0
    7.9791   -3.9398   22.3744 C   0  0  0  0  0  0  0  0  0  0  0  0
    6.1288   -0.8782   20.4799 C   0  0  0  0  0  0  0  0  0  0  0  0
    6.1738   -1.9181   21.3154 C   0  0  0  0  0  0  0  0  0  0  0  0
   11.3289   -3.0441   24.8985 C   0  0  0  0  0  0  0  0  0  0  0  0
    6.1917   -3.2881   20.7523 C   0  0  0  0  0  0  0  0  0  0  0  0
    7.9238   -6.2976   23.3618 C   0  0  0  0  0  0  0  0  0  0  0  0
    6.5059   -6.3432   22.8304 C   0  0  0  0  0  0  0  0  0  0  0  0
    6.4551   -5.6826   21.4639 C   0  0  0  0  0  0  0  0  0  0  0  0
   12.6160   -1.2403   26.0711 C   0  0  0  0  0  0  0  0  0  0  0  0
    6.8629   -4.2642   21.5074 N   0  0  0  0  0  0  0  0  0  0  0  0
   11.5207   -1.7026   25.2493 N   0  0  0  0  0  0  0  0  0  0  0  0
   12.0964   -3.9487   25.2726 O   0  0  0  0  0  0  0  0  0  0  0  0
    5.6255   -3.4531   19.6723 O   0  0  0  0  0  0  0  0  0  0  0  0
  1  2  3  0
  2 16  1  0
  3  4  2  0
  3  6  1  0
  4  8  1  0
  5  6  2  0
  5  7  1  0
  6 11  1  0
  7  8  2  0
  7 13  1  0
  8 17  1  0
  9 10  2  0
 10 12  1  0
 11 18  1  0
 11 19  2  0
 12 17  1  0
 12 20  2  0
 13 14  1  0
 14 15  1  0
 15 17  1  0
 16 18  1  0
M  END
