DAV-CRI-f4772df7-4
     RDKit          3D

 35 39  0  0  1  0  0  0  0  0999 V2000
    6.9414   -0.3960   17.4337 C   0  0  0  0  0  0  0  0  0  0  0  0
    8.1391   -0.6198   18.1128 C   0  0  0  0  0  0  0  0  0  0  0  0
    5.7273   -0.4768   18.1158 C   0  0  0  0  0  0  0  0  0  0  0  0
    8.1227   -0.9246   19.4738 C   0  0  0  0  0  0  0  0  0  0  0  0
    5.7109   -0.7815   19.4768 C   0  0  0  0  0  0  0  0  0  0  0  0
    9.5716   -0.6881   24.2833 C   0  0  0  0  0  0  0  0  0  0  0  0
   10.0005    0.5965   23.9602 C   0  0  0  0  0  0  0  0  0  0  0  0
    8.4214    0.6489   22.1371 C   0  0  0  0  0  0  0  0  0  0  0  0
    6.9086   -1.0054   20.1559 C   0  0  0  0  0  0  0  0  0  0  0  0
    8.5710   -1.3174   23.5257 C   0  0  0  0  0  0  0  0  0  0  0  0
    8.0023   -0.6617   22.4276 C   0  0  0  0  0  0  0  0  0  0  0  0
    9.4206    1.2677   22.8901 C   0  0  0  0  0  0  0  0  0  0  0  0
    8.4833   -5.4542   26.4635 C   0  0  0  0  0  0  0  0  0  0  0  0
    6.7994   -2.8676   21.7985 C   0  0  0  0  0  0  0  0  0  0  0  0
    7.9588   -4.8442   22.7713 C   0  0  0  0  0  0  0  0  0  0  0  0
    9.6196   -5.3671   27.4553 C   0  0  0  0  0  0  0  0  0  0  0  0
    9.1845   -4.2460   28.3914 C   0  0  0  0  0  0  0  0  0  0  0  0
    8.3435   -3.3429   27.5115 C   0  0  0  0  0  0  0  0  0  0  0  0
    5.6007   -2.2264   24.2613 C   0  0  0  0  0  0  0  0  0  0  0  0
    5.4015   -3.6450   26.5141 C   0  0  0  0  0  0  0  0  0  0  0  0
    6.8899   -1.3392   21.6457 C   0  0  0  0  0  0  0  0  0  0  0  0
    8.0637   -2.6776   23.9200 C   0  0  0  0  0  0  0  0  0  0  0  0
    6.9349   -2.5668   24.9363 C   0  0  0  0  0  0  0  0  0  0  0  0
    6.6770   -3.8764   25.7052 C   0  0  0  0  0  0  0  0  0  0  0  0
    6.8957   -5.7835   22.2545 C   0  0  0  0  0  0  0  0  0  0  0  0
    7.6412   -3.4670   22.7514 N   0  0  0  0  0  0  0  0  0  0  0  0
    7.7742   -4.2586   26.5514 N   0  0  0  0  0  0  0  0  0  0  0  0
    8.2879   -6.3966   25.7106 O   0  0  0  0  0  0  0  0  0  0  0  0
    5.9840   -3.4951   21.1146 O   0  0  0  0  0  0  0  0  0  0  0  0
    9.0208   -5.3077   23.1945 O   0  0  0  0  0  0  0  0  0  0  0  0
    3.4040   -3.5819   24.7918 O   0  0  0  0  0  0  0  0  0  0  0  0
    3.9103   -1.5021   26.1534 O   0  0  0  0  0  0  0  0  0  0  0  0
    9.8136    2.5117   22.5866 F   0  0  0  0  0  0  0  0  0  0  0  0
    4.3398   -2.6876   25.4412 S   0  0  0  0  0  0  0  0  0  0  0  0
    7.1176   -7.3086   23.1036 Cl  0  0  0  0  0  0  0  0  0  0  0  0
  1  2  2  0
  1  3  1  0
  2  4  1  0
  3  5  2  0
  4  9  2  0
  5  9  1  0
  6  7  2  0
  6 10  1  0
  7 12  1  0
  8 11  1  0
  8 12  2  0
  9 21  1  0
 10 11  2  0
 10 22  1  0
 11 21  1  0
 12 33  1  0
 13 16  1  0
 13 27  1  0
 13 28  2  0
 14 21  1  0
 14 26  1  0
 14 29  2  0
 15 25  1  0
 15 26  1  0
 15 30  2  0
 16 17  1  0
 17 18  1  0
 18 27  1  0
 19 23  1  0
 19 34  1  0
 20 24  1  0
 20 34  1  0
 22 23  1  0
 22 26  1  0
 23 24  1  0
 24 27  1  0
 25 35  1  0
 31 34  2  0
 32 34  2  0
M  END
