DAV-IMP-59dd6621-12
     RDKit          3D

 16 17  0  0  0  0  0  0  0  0999 V2000
   13.2972   -0.3677   23.4909 C   0  0  0  0  0  0  0  0  0  0  0  0
    4.7354    1.3824   18.9158 C   0  0  0  0  0  0  0  0  0  0  0  0
   12.1934    0.4645   23.6773 C   0  0  0  0  0  0  0  0  0  0  0  0
   13.1499   -1.5818   22.8201 C   0  0  0  0  0  0  0  0  0  0  0  0
    5.6800    0.5592   18.3030 C   0  0  0  0  0  0  0  0  0  0  0  0
    4.5812    1.3554   20.3019 C   0  0  0  0  0  0  0  0  0  0  0  0
   10.9423    0.0826   23.1930 C   0  0  0  0  0  0  0  0  0  0  0  0
   11.8988   -1.9638   22.3358 C   0  0  0  0  0  0  0  0  0  0  0  0
    6.4704   -0.2911   19.0762 C   0  0  0  0  0  0  0  0  0  0  0  0
    5.3716    0.5051   21.0751 C   0  0  0  0  0  0  0  0  0  0  0  0
   10.7950   -1.1316   22.5223 C   0  0  0  0  0  0  0  0  0  0  0  0
    6.3162   -0.3182   20.4623 C   0  0  0  0  0  0  0  0  0  0  0  0
    9.4906   -1.5304   22.0171 C   0  0  0  0  0  0  0  0  0  0  0  0
    8.4547   -0.6926   21.7868 C   0  0  0  0  0  0  0  0  0  0  0  0
    7.1564   -1.2222   21.2841 C   0  0  0  0  0  0  0  0  0  0  0  0
    6.7579   -2.3517   21.5459 O   0  0  0  0  0  0  0  0  0  0  0  0
  1  3  2  0
  1  4  1  0
  2  5  2  0
  2  6  1  0
  3  7  1  0
  4  8  2  0
  5  9  1  0
  6 10  2  0
  7 11  2  0
  8 11  1  0
  9 12  2  0
 10 12  1  0
 11 13  1  0
 12 15  1  0
 13 14  2  0
 14 15  1  0
 15 16  2  0
M  END
