DAV-CRI-de95a6f4-2
     RDKit          3D

 27 29  0  0  1  0  0  0  0  0999 V2000
    7.2049   -4.3226   23.3651 C   0  0  0  0  0  0  0  0  0  0  0  0
    6.1298   -5.1716   23.6274 C   0  0  0  0  0  0  0  0  0  0  0  0
    7.9909   -4.6181   25.6305 C   0  0  0  0  0  0  0  0  0  0  0  0
    8.1355   -4.0458   24.3666 C   0  0  0  0  0  0  0  0  0  0  0  0
    6.9157   -5.4671   25.8928 C   0  0  0  0  0  0  0  0  0  0  0  0
    5.9852   -5.7439   24.8912 C   0  0  0  0  0  0  0  0  0  0  0  0
    9.7780   -2.3021   25.2778 C   0  0  0  0  0  0  0  0  0  0  0  0
   10.6253   -1.1748   24.7026 C   0  0  0  0  0  0  0  0  0  0  0  0
    9.8107    2.5330   23.0586 C   0  0  0  0  0  0  0  0  0  0  0  0
   12.1428    2.1586   22.5405 C   0  0  0  0  0  0  0  0  0  0  0  0
   10.1288    3.8926   23.6718 C   0  0  0  0  0  0  0  0  0  0  0  0
   12.5286    3.5073   23.1387 C   0  0  0  0  0  0  0  0  0  0  0  0
    9.2982   -3.1278   24.0811 C   0  0  0  0  0  0  0  0  0  0  0  0
    9.7811   -0.5123   23.6176 C   0  0  0  0  0  0  0  0  0  0  0  0
   10.6130    0.2999   22.6403 C   0  0  0  0  0  0  0  0  0  0  0  0
   10.7657    6.8532   22.8801 C   0  0  0  0  0  0  0  0  0  0  0  0
   11.6964    5.8290   23.5223 C   0  0  0  0  0  0  0  0  0  0  0  0
   10.9466    1.6117   23.1943 N   0  0  0  0  0  0  0  0  0  0  0  0
    3.4385   -5.6769   25.6752 N   0  0  0  0  0  0  0  0  0  0  0  0
   11.3628    4.4556   23.0130 N   0  0  0  0  0  0  0  0  0  0  0  0
    6.8081   -5.9792   27.0643 O   0  0  0  0  0  0  0  0  0  0  0  0
    4.2020   -7.3260   23.8468 O   0  0  0  0  0  0  0  0  0  0  0  0
    4.9220   -7.7085   26.2307 O   0  0  0  0  0  0  0  0  0  0  0  0
   13.0528    6.2248   23.3533 O   0  0  0  0  0  0  0  0  0  0  0  0
    8.9332   -1.8950   22.7851 S   0  0  0  0  0  0  0  0  0  0  0  0
    4.6037   -6.8030   25.1407 S   0  0  0  0  0  0  0  0  0  0  0  0
   10.9452    6.8998   21.1053 Cl  0  0  0  0  0  0  0  0  0  0  0  0
  1  2  2  0
  1  4  1  0
  2  6  1  0
  3  4  2  0
  3  5  1  0
  4 13  1  0
  5  6  2  0
  5 21  1  0
  6 26  1  0
  7  8  1  0
  7 13  1  0
  8 14  1  0
  9 11  1  0
  9 18  1  0
 10 12  1  0
 10 18  1  0
 11 20  1  0
 12 20  1  0
 13 25  1  0
 14 15  1  0
 14 25  1  0
 15 18  1  0
 16 17  1  0
 16 27  1  0
 17 20  1  0
 17 24  1  0
 19 26  1  0
 22 26  2  0
 23 26  2  0
M  CHG  2  20   1  21  -1
M  END
