DAV-IMP-59dd6621-9
     RDKit          3D

 17 18  0  0  0  0  0  0  0  0999 V2000
    7.8724   -1.4419   19.9010 C   0  0  0  0  0  0  0  0  0  0  0  0
    8.9843   -0.8729   20.5313 C   0  0  0  0  0  0  0  0  0  0  0  0
    7.6108   -2.9624   21.7369 C   0  0  0  0  0  0  0  0  0  0  0  0
    7.1872   -2.4883   20.5011 C   0  0  0  0  0  0  0  0  0  0  0  0
    8.7351   -2.4073   22.3758 C   0  0  0  0  0  0  0  0  0  0  0  0
    9.4494   -1.3465   21.7716 C   0  0  0  0  0  0  0  0  0  0  0  0
   13.5711   -0.9765   22.1266 C   0  0  0  0  0  0  0  0  0  0  0  0
   12.8620    0.1476   22.2482 C   0  0  0  0  0  0  0  0  0  0  0  0
    6.0126   -3.0806   19.8422 C   0  0  0  0  0  0  0  0  0  0  0  0
   11.4490    0.1539   21.8035 C   0  0  0  0  0  0  0  0  0  0  0  0
    9.1059   -2.9559   23.7284 C   0  0  0  0  0  0  0  0  0  0  0  0
   10.5489   -2.6424   24.0664 C   0  0  0  0  0  0  0  0  0  0  0  0
   10.8116   -1.1632   23.8452 C   0  0  0  0  0  0  0  0  0  0  0  0
   10.5895   -0.7541   22.4439 N   0  0  0  0  0  0  0  0  0  0  0  0
    5.3981   -4.0513   20.4249 O   0  0  0  0  0  0  0  0  0  0  0  0
    5.6367   -2.6096   18.7036 O   0  0  0  0  0  0  0  0  0  0  0  0
   11.1505    0.9457   20.9101 O   0  0  0  0  0  0  0  0  0  0  0  0
  1  2  2  0
  1  4  1  0
  2  6  1  0
  3  4  2  0
  3  5  1  0
  4  9  1  0
  5  6  2  0
  5 11  1  0
  6 14  1  0
  7  8  2  0
  8 10  1  0
  9 15  1  0
  9 16  2  0
 10 14  1  0
 10 17  2  0
 11 12  1  0
 12 13  1  0
 13 14  1  0
M  CHG  1  15  -1
M  END
