DAV-CRI-e1c2b579-5
     RDKit          3D

 23 23  0  0  1  0  0  0  0  0999 V2000
   11.6230    5.8834   23.6903 C   0  0  0  0  0  0  0  0  0  0  0  0
    8.7287    4.5646   23.3325 C   0  0  0  0  0  0  0  0  0  0  0  0
   10.6172   -0.2958   24.1141 C   0  0  0  0  0  0  0  0  0  0  0  0
   11.5944   -0.5762   22.9810 C   0  0  0  0  0  0  0  0  0  0  0  0
   12.2784    1.8054   23.0594 C   0  0  0  0  0  0  0  0  0  0  0  0
   11.2730    2.0433   24.1977 C   0  0  0  0  0  0  0  0  0  0  0  0
    7.8010    0.7361   24.7077 C   0  0  0  0  0  0  0  0  0  0  0  0
   12.0015    4.4140   23.7678 C   0  0  0  0  0  0  0  0  0  0  0  0
    7.7402    4.5001   22.1954 C   0  0  0  0  0  0  0  0  0  0  0  0
   14.2939   -1.3320   22.1805 C   0  0  0  0  0  0  0  0  0  0  0  0
   10.8238    3.5095   24.1292 C   0  0  0  0  0  0  0  0  0  0  0  0
    9.1489    1.2842   25.1552 C   0  0  0  0  0  0  0  0  0  0  0  0
   13.8045    0.1074   22.0526 C   0  0  0  0  0  0  0  0  0  0  0  0
   10.1398    1.0971   24.0917 N   0  0  0  0  0  0  0  0  0  0  0  0
   11.2779    6.2674   22.4119 N   0  0  0  0  0  0  0  0  0  0  0  0
    9.7525    3.6418   23.1728 N   0  0  0  0  0  0  0  0  0  0  0  0
   12.7526    0.3764   23.0912 N   0  0  0  0  0  0  0  0  0  0  0  0
    7.0942    5.8140   21.9626 N   0  0  0  0  0  0  0  0  0  0  0  0
   11.6335    6.6480   24.6505 O   0  0  0  0  0  0  0  0  0  0  0  0
    8.6232    5.3460   24.2740 O   0  0  0  0  0  0  0  0  0  0  0  0
    9.5463    0.6217   26.3510 O   0  0  0  0  0  0  0  0  0  0  0  0
   14.9096    1.0040   22.0632 O   0  0  0  0  0  0  0  0  0  0  0  0
   14.5054   -1.8177   23.8845 Cl  0  0  0  0  0  0  0  0  0  0  0  0
  1  8  1  0
  1 15  1  0
  1 19  2  0
  2  9  1  0
  2 16  1  0
  2 20  2  0
  3  4  1  0
  3 14  1  0
  4 17  1  0
  5  6  1  0
  5 17  1  0
  6 11  1  0
  6 14  1  0
  7 12  1  0
  8 11  1  0
  9 18  1  0
 10 13  1  0
 10 23  1  0
 11 16  1  0
 12 14  1  0
 12 21  1  0
 13 17  1  0
 13 22  1  0
M  CHG  2  17   1  18   1
M  END
