DEM-REL-172c3d60-6
     RDKit          3D

 26 29  0  0  1  0  0  0  0  0999 V2000
    9.3009    0.4883   23.5687 C   0  0  0  0  0  0  0  0  0  0  0  0
    6.9291    0.2531   23.9641 C   0  0  0  0  0  0  0  0  0  0  0  0
    9.5320    0.4700   24.9442 C   0  0  0  0  0  0  0  0  0  0  0  0
    7.1602    0.2348   25.3396 C   0  0  0  0  0  0  0  0  0  0  0  0
   10.3794   -3.3488   23.8684 C   0  0  0  0  0  0  0  0  0  0  0  0
   10.1307   -2.5754   22.7077 C   0  0  0  0  0  0  0  0  0  0  0  0
    7.7819   -4.6408   26.3605 C   0  0  0  0  0  0  0  0  0  0  0  0
    8.0001   -5.5858   27.3386 C   0  0  0  0  0  0  0  0  0  0  0  0
    9.8029   -5.5698   26.0103 C   0  0  0  0  0  0  0  0  0  0  0  0
    8.9225   -4.6306   25.5202 C   0  0  0  0  0  0  0  0  0  0  0  0
    7.9994    0.3799   23.0787 C   0  0  0  0  0  0  0  0  0  0  0  0
    8.4617    0.3432   25.8296 C   0  0  0  0  0  0  0  0  0  0  0  0
    9.1619   -3.7921   24.3360 C   0  0  0  0  0  0  0  0  0  0  0  0
    8.7688   -2.5696   22.5014 C   0  0  0  0  0  0  0  0  0  0  0  0
    6.0954   -1.8234   19.8887 C   0  0  0  0  0  0  0  0  0  0  0  0
    6.6753   -0.8873   19.1175 C   0  0  0  0  0  0  0  0  0  0  0  0
    6.7610   -2.4944   21.0410 C   0  0  0  0  0  0  0  0  0  0  0  0
    8.0756   -0.4344   19.4797 C   0  0  0  0  0  0  0  0  0  0  0  0
    8.3966   -0.6310   20.9631 C   0  0  0  0  0  0  0  0  0  0  0  0
    9.2315   -6.1444   27.1156 N   0  0  0  0  0  0  0  0  0  0  0  0
    8.1900   -3.3120   23.4974 N   0  0  0  0  0  0  0  0  0  0  0  0
    7.9747   -1.9409   21.4700 N   0  0  0  0  0  0  0  0  0  0  0  0
    6.2345   -0.2881   18.0982 O   0  0  0  0  0  0  0  0  0  0  0  0
    6.1752   -3.4553   21.5402 O   0  0  0  0  0  0  0  0  0  0  0  0
    7.7728    0.3979   21.7296 O   0  0  0  0  0  0  0  0  0  0  0  0
    8.6837    0.3256   27.1505 F   0  0  0  0  0  0  0  0  0  0  0  0
  1  3  2  0
  1 11  1  0
  2  4  1  0
  2 11  2  0
  3 12  1  0
  4 12  2  0
  5  6  1  0
  5 13  2  0
  6 14  2  0
  7  8  2  0
  7 10  1  0
  8 20  1  0
  9 10  2  0
  9 20  1  0
 10 13  1  0
 11 25  1  0
 12 26  1  0
 13 21  1  0
 14 21  1  0
 14 22  1  0
 15 16  2  0
 15 17  1  0
 16 18  1  0
 16 23  1  0
 17 22  1  0
 17 24  2  0
 18 19  1  0
 19 22  1  0
 19 25  1  0
M  CHG  1  23  -1
M  END
