DEM-REL-172c3d60-1
     RDKit          3D

 25 27  0  0  1  0  0  0  0  0999 V2000
    8.5697   -4.4677   26.9068 C   0  0  0  0  0  0  0  0  0  0  0  0
    6.1157   -2.7585   24.4906 C   0  0  0  0  0  0  0  0  0  0  0  0
    6.7269   -4.6652   23.1386 C   0  0  0  0  0  0  0  0  0  0  0  0
    5.2735   -3.5685   25.2523 C   0  0  0  0  0  0  0  0  0  0  0  0
    5.8848   -5.4753   23.9003 C   0  0  0  0  0  0  0  0  0  0  0  0
    8.6019   -3.1380   26.3961 C   0  0  0  0  0  0  0  0  0  0  0  0
    9.3564   -5.3246   26.1689 C   0  0  0  0  0  0  0  0  0  0  0  0
    6.8424   -3.3068   23.4337 C   0  0  0  0  0  0  0  0  0  0  0  0
    5.1581   -4.9269   24.9572 C   0  0  0  0  0  0  0  0  0  0  0  0
    9.4122   -3.0291   25.2873 C   0  0  0  0  0  0  0  0  0  0  0  0
    6.2365   -1.1338   18.7538 C   0  0  0  0  0  0  0  0  0  0  0  0
    5.8410   -2.3377   19.2121 C   0  0  0  0  0  0  0  0  0  0  0  0
    7.3007   -0.3336   19.4112 C   0  0  0  0  0  0  0  0  0  0  0  0
    6.4616   -2.8944   20.4915 C   0  0  0  0  0  0  0  0  0  0  0  0
    7.9945   -0.9088   20.6206 C   0  0  0  0  0  0  0  0  0  0  0  0
    7.0458   -1.8066   21.4072 C   0  0  0  0  0  0  0  0  0  0  0  0
    7.7570   -2.4286   22.6073 C   0  0  0  0  0  0  0  0  0  0  0  0
    8.3675   -1.3959   23.4127 N   0  0  0  0  0  0  0  0  0  0  0  0
    4.9831   -3.1325   18.7363 O   0  0  0  0  0  0  0  0  0  0  0  0
    7.6342    0.7481   18.9304 O   0  0  0  0  0  0  0  0  0  0  0  0
   10.1411   -0.5323   25.0754 O   0  0  0  0  0  0  0  0  0  0  0  0
   10.8440   -2.1718   23.3028 O   0  0  0  0  0  0  0  0  0  0  0  0
    4.3514   -5.7055   25.6903 F   0  0  0  0  0  0  0  0  0  0  0  0
   10.1295   -4.5259   24.8663 S   0  0  0  0  0  0  0  0  0  0  0  0
    9.8487   -1.6776   24.2348 S   0  0  0  0  0  0  0  0  0  0  0  0
  1  6  1  0
  1  7  2  0
  2  4  2  0
  2  8  1  0
  3  5  1  0
  3  8  2  0
  4  9  1  0
  5  9  2  0
  6 10  2  0
  7 24  1  0
  8 17  1  0
  9 23  1  0
 10 24  1  0
 10 25  1  0
 11 12  2  0
 11 13  1  0
 12 14  1  0
 12 19  1  0
 13 15  1  0
 13 20  2  0
 14 16  1  0
 15 16  1  0
 16 17  1  0
 17 18  1  0
 18 25  1  0
 21 25  2  0
 22 25  2  0
M  CHG  1  19  -1
M  END
