DEM-REL-172c3d60-5
     RDKit          3D

 23 25  0  0  1  0  0  0  0  0999 V2000
    9.1321    5.9998   25.3094 C   0  0  0  0  0  0  0  0  0  0  0  0
   12.1875    0.4139   23.9461 C   0  0  0  0  0  0  0  0  0  0  0  0
   10.7900   -1.3097   22.9904 C   0  0  0  0  0  0  0  0  0  0  0  0
   13.2138    0.0695   23.0665 C   0  0  0  0  0  0  0  0  0  0  0  0
   11.8163   -1.6541   22.1107 C   0  0  0  0  0  0  0  0  0  0  0  0
    8.6943    4.6902   24.9579 C   0  0  0  0  0  0  0  0  0  0  0  0
   10.4956    6.1429   25.1758 C   0  0  0  0  0  0  0  0  0  0  0  0
   10.9756   -0.2758   23.9081 C   0  0  0  0  0  0  0  0  0  0  0  0
   13.0282   -0.9645   22.1488 C   0  0  0  0  0  0  0  0  0  0  0  0
    9.7401    3.8822   24.5688 C   0  0  0  0  0  0  0  0  0  0  0  0
    7.1757   -1.1334   26.8025 C   0  0  0  0  0  0  0  0  0  0  0  0
    7.8490   -2.0896   26.1529 C   0  0  0  0  0  0  0  0  0  0  0  0
    7.9012   -0.0420   27.5000 C   0  0  0  0  0  0  0  0  0  0  0  0
    9.7076    2.4634   24.1295 C   0  0  0  0  0  0  0  0  0  0  0  0
    9.3409   -2.0920   26.0264 C   0  0  0  0  0  0  0  0  0  0  0  0
    9.9282   -0.6852   26.1740 C   0  0  0  0  0  0  0  0  0  0  0  0
    9.8620    0.0976   24.8610 C   0  0  0  0  0  0  0  0  0  0  0  0
    9.2488    0.0601   27.2275 N   0  0  0  0  0  0  0  0  0  0  0  0
    9.8486    1.5159   25.1318 N   0  0  0  0  0  0  0  0  0  0  0  0
    7.3021    0.6966   28.2782 O   0  0  0  0  0  0  0  0  0  0  0  0
    9.5822    2.2080   22.9347 O   0  0  0  0  0  0  0  0  0  0  0  0
   14.0128   -1.2935   21.3023 F   0  0  0  0  0  0  0  0  0  0  0  0
   11.2422    4.7022   24.6285 S   0  0  0  0  0  0  0  0  0  0  0  0
  1  6  1  0
  1  7  2  0
  2  4  2  0
  2  8  1  0
  3  5  1  0
  3  8  2  0
  4  9  1  0
  5  9  2  0
  6 10  2  0
  7 23  1  0
  8 17  1  0
  9 22  1  0
 10 14  1  0
 10 23  1  0
 11 12  2  0
 11 13  1  0
 12 15  1  0
 13 18  1  0
 13 20  2  0
 14 19  1  0
 14 21  2  0
 15 16  1  0
 16 17  1  0
 16 18  1  0
 17 19  1  0
M  END
