DEN-EUR-293438d2-1
     RDKit          3D

 15 16  0  0  0  0  0  0  0  0999 V2000
   12.0588   -0.0750   23.4027 C   0  0  0  0  0  0  0  0  0  0  0  0
   12.5803   -1.3626   23.2799 C   0  0  0  0  0  0  0  0  0  0  0  0
   14.5819   -0.4700   22.2524 C   0  0  0  0  0  0  0  0  0  0  0  0
   12.8046    1.0156   22.9478 C   0  0  0  0  0  0  0  0  0  0  0  0
   14.0741    0.8277   22.3681 C   0  0  0  0  0  0  0  0  0  0  0  0
   13.8371   -1.5599   22.7069 C   0  0  0  0  0  0  0  0  0  0  0  0
   14.3079    3.2025   22.0339 C   0  0  0  0  0  0  0  0  0  0  0  0
   12.2641    2.3983   23.0711 C   0  0  0  0  0  0  0  0  0  0  0  0
   13.1189    3.5092   22.5641 C   0  0  0  0  0  0  0  0  0  0  0  0
   12.6979    4.9587   22.6238 C   0  0  0  0  0  0  0  0  0  0  0  0
   14.8055    1.9342   21.9199 N   0  0  0  0  0  0  0  0  0  0  0  0
   13.5336    5.7826   22.1529 O   0  0  0  0  0  0  0  0  0  0  0  0
   11.1653    2.6115   23.5673 O   0  0  0  0  0  0  0  0  0  0  0  0
   11.5616    5.1692   23.1371 O   0  0  0  0  0  0  0  0  0  0  0  0
   14.3311   -2.7997   22.5924 F   0  0  0  0  0  0  0  0  0  0  0  0
  1  2  2  0
  1  4  1  0
  2  6  1  0
  3  5  1  0
  3  6  2  0
  4  5  2  0
  4  8  1  0
  5 11  1  0
  6 15  1  0
  7  9  2  0
  7 11  1  0
  8  9  1  0
  8 13  2  0
  9 10  1  0
 10 12  1  0
 10 14  2  0
M  CHG  1  12  -1
M  END
