DOU-UNK-b5326f8f-20
     RDKit          3D

 16 18  0  0  1  0  0  0  0  0999 V2000
   11.7722   -0.3591   23.4650 C   0  0  0  0  0  0  0  0  0  0  0  0
   10.6765    1.5684   24.2003 C   0  0  0  0  0  0  0  0  0  0  0  0
   10.7122    0.1372   24.1883 C   0  0  0  0  0  0  0  0  0  0  0  0
   11.7283    2.1021   23.4758 C   0  0  0  0  0  0  0  0  0  0  0  0
    9.6409    2.3831   24.8989 C   0  0  0  0  0  0  0  0  0  0  0  0
   12.0388    3.5513   23.2567 C   0  0  0  0  0  0  0  0  0  0  0  0
    7.2435    3.8993   22.3041 C   0  0  0  0  0  0  0  0  0  0  0  0
    8.9100    5.6547   22.9995 C   0  0  0  0  0  0  0  0  0  0  0  0
    8.1246    2.8230   22.9187 C   0  0  0  0  0  0  0  0  0  0  0  0
    8.0461    5.1173   21.8576 C   0  0  0  0  0  0  0  0  0  0  0  0
    9.8322    4.5873   23.6139 C   0  0  0  0  0  0  0  0  0  0  0  0
    9.7268   -0.7377   24.8715 C   0  0  0  0  0  0  0  0  0  0  0  0
   10.9208    4.2921   22.6761 N   0  0  0  0  0  0  0  0  0  0  0  0
    8.9336    3.4242   24.0488 N   0  0  0  0  0  0  0  0  0  0  0  0
    7.1391    6.1268   21.4274 O   0  0  0  0  0  0  0  0  0  0  0  0
   12.7293    0.8886   22.8010 S   0  0  0  0  0  0  0  0  0  0  0  0
  1  3  2  0
  1 16  1  0
  2  3  1  0
  2  4  2  0
  2  5  1  0
  3 12  1  0
  4  6  1  0
  4 16  1  0
  5 14  1  0
  6 13  1  0
  7  9  1  0
  7 10  1  0
  8 10  1  0
  8 11  1  0
  9 14  1  0
 10 15  1  0
 11 13  1  0
 11 14  1  0
M  CHG  1  14   1
M  END
