DOU-UNK-b5326f8f-6
     RDKit          3D

 28 30  0  0  1  0  0  0  0  0999 V2000
    7.3710    6.2080   22.3683 C   0  0  0  0  0  0  0  0  0  0  0  0
    7.8175   -1.2812   24.8828 C   0  0  0  0  0  0  0  0  0  0  0  0
    9.0933   -3.1754   24.0945 C   0  0  0  0  0  0  0  0  0  0  0  0
    7.9171   -0.6899   23.6235 C   0  0  0  0  0  0  0  0  0  0  0  0
    9.1929   -2.5841   22.8351 C   0  0  0  0  0  0  0  0  0  0  0  0
    8.6773    5.6399   22.3358 C   0  0  0  0  0  0  0  0  0  0  0  0
    7.1322    6.8898   23.5411 C   0  0  0  0  0  0  0  0  0  0  0  0
    8.4056   -2.5239   25.1184 C   0  0  0  0  0  0  0  0  0  0  0  0
    8.6048   -1.3414   22.5996 C   0  0  0  0  0  0  0  0  0  0  0  0
    9.3873    5.9095   23.4852 C   0  0  0  0  0  0  0  0  0  0  0  0
   13.1704    0.4970   22.7663 C   0  0  0  0  0  0  0  0  0  0  0  0
   13.0501    2.8925   22.1900 C   0  0  0  0  0  0  0  0  0  0  0  0
   12.7055    4.1147   23.0242 C   0  0  0  0  0  0  0  0  0  0  0  0
   10.6074    3.0067   23.7653 C   0  0  0  0  0  0  0  0  0  0  0  0
   10.9624    1.7546   22.9565 C   0  0  0  0  0  0  0  0  0  0  0  0
    8.2999   -3.1560   26.4650 C   0  0  0  0  0  0  0  0  0  0  0  0
   12.4764   -0.7254   23.3140 C   0  0  0  0  0  0  0  0  0  0  0  0
   10.1756    1.6614   21.6453 C   0  0  0  0  0  0  0  0  0  0  0  0
   10.7942    5.4926   23.8397 C   0  0  0  0  0  0  0  0  0  0  0  0
   12.4174    1.6738   22.7038 N   0  0  0  0  0  0  0  0  0  0  0  0
   10.1879    0.3187   21.1757 N   0  0  0  0  0  0  0  0  0  0  0  0
   11.2059    4.2351   23.1262 N   0  0  0  0  0  0  0  0  0  0  0  0
   14.3496    0.4103   22.4135 O   0  0  0  0  0  0  0  0  0  0  0  0
    8.9605   -1.6462   20.0323 O   0  0  0  0  0  0  0  0  0  0  0  0
    7.5896    0.2925   20.8609 O   0  0  0  0  0  0  0  0  0  0  0  0
   10.9059    5.4355   25.2608 O   0  0  0  0  0  0  0  0  0  0  0  0
    8.4796    6.8436   24.5969 S   0  0  0  0  0  0  0  0  0  0  0  0
    8.7292   -0.5933   21.0028 S   0  0  0  0  0  0  0  0  0  0  0  0
  1  6  1  0
  1  7  2  0
  2  4  2  0
  2  8  1  0
  3  5  1  0
  3  8  2  0
  4  9  1  0
  5  9  2  0
  6 10  2  0
  7 27  1  0
  8 16  1  0
  9 28  1  0
 10 19  1  0
 10 27  1  0
 11 17  1  0
 11 20  1  0
 11 23  2  0
 12 13  1  0
 12 20  1  0
 13 22  1  0
 14 15  1  0
 14 22  1  0
 15 18  1  0
 15 20  1  0
 18 21  1  0
 19 22  1  0
 19 26  1  0
 21 28  1  0
 24 28  2  0
 25 28  2  0
M  CHG  1  22   1
M  END
