DOU-UNK-b5326f8f-5
     RDKit          3D

 39 43  0  0  1  0  0  0  0  0999 V2000
    9.9053    6.7463   23.6053 C   0  0  0  0  0  0  0  0  0  0  0  0
   14.4738   -1.2812   23.0755 C   0  0  0  0  0  0  0  0  0  0  0  0
   12.6583   -1.8605   24.5605 C   0  0  0  0  0  0  0  0  0  0  0  0
   13.9026   -0.0260   22.8667 C   0  0  0  0  0  0  0  0  0  0  0  0
   12.0871   -0.6052   24.3518 C   0  0  0  0  0  0  0  0  0  0  0  0
    9.0908    6.1916   22.5762 C   0  0  0  0  0  0  0  0  0  0  0  0
    8.7728   -2.3265   24.3286 C   0  0  0  0  0  0  0  0  0  0  0  0
    8.3187   -3.3833   23.5562 C   0  0  0  0  0  0  0  0  0  0  0  0
    6.8474   -2.0357   22.4173 C   0  0  0  0  0  0  0  0  0  0  0  0
    9.4407    6.4263   24.8620 C   0  0  0  0  0  0  0  0  0  0  0  0
   13.8517   -2.1985   23.9224 C   0  0  0  0  0  0  0  0  0  0  0  0
    8.2141   -1.0724   24.1086 C   0  0  0  0  0  0  0  0  0  0  0  0
    7.2323   -0.9157   23.1365 C   0  0  0  0  0  0  0  0  0  0  0  0
   12.7092    0.3120   23.5048 C   0  0  0  0  0  0  0  0  0  0  0  0
    8.0346    5.4685   23.0856 C   0  0  0  0  0  0  0  0  0  0  0  0
    5.9121    1.0923   23.8409 C   0  0  0  0  0  0  0  0  0  0  0  0
    7.4809    0.3359   19.2925 C   0  0  0  0  0  0  0  0  0  0  0  0
    5.2496    2.2460   23.1262 C   0  0  0  0  0  0  0  0  0  0  0  0
    8.3611    3.1509   21.0681 C   0  0  0  0  0  0  0  0  0  0  0  0
    6.0709    2.4058   21.8519 C   0  0  0  0  0  0  0  0  0  0  0  0
    8.7783    1.6967   20.8820 C   0  0  0  0  0  0  0  0  0  0  0  0
    6.4652    0.9495   21.5436 C   0  0  0  0  0  0  0  0  0  0  0  0
   14.4619   -3.5410   24.1452 C   0  0  0  0  0  0  0  0  0  0  0  0
    8.6846    0.0847   24.9275 C   0  0  0  0  0  0  0  0  0  0  0  0
    6.2358   -0.4597   18.9781 C   0  0  0  0  0  0  0  0  0  0  0  0
    9.6246    1.1600   22.0347 C   0  0  0  0  0  0  0  0  0  0  0  0
    6.9536    4.7291   22.3350 C   0  0  0  0  0  0  0  0  0  0  0  0
    7.3670   -3.2699   22.6028 N   0  0  0  0  0  0  0  0  0  0  0  0
    6.6279    0.3521   22.8724 N   0  0  0  0  0  0  0  0  0  0  0  0
    7.5830    0.8912   20.5805 N   0  0  0  0  0  0  0  0  0  0  0  0
   10.9727    1.5873   21.8778 N   0  0  0  0  0  0  0  0  0  0  0  0
    7.2988    3.2702   22.1350 N   0  0  0  0  0  0  0  0  0  0  0  0
    5.7327    0.8641   25.0289 O   0  0  0  0  0  0  0  0  0  0  0  0
    8.3285    0.4834   18.4070 O   0  0  0  0  0  0  0  0  0  0  0  0
   11.1397    2.2039   24.3811 O   0  0  0  0  0  0  0  0  0  0  0  0
   13.0641    2.8026   22.8769 O   0  0  0  0  0  0  0  0  0  0  0  0
    6.6654    5.4434   21.1342 O   0  0  0  0  0  0  0  0  0  0  0  0
    8.0279    5.4608   24.7980 S   0  0  0  0  0  0  0  0  0  0  0  0
   11.9862    1.9036   23.2421 S   0  0  0  0  0  0  0  0  0  0  0  0
  1  6  1  0
  1 10  2  0
  2  4  2  0
  2 11  1  0
  3  5  1  0
  3 11  2  0
  4 14  1  0
  5 14  2  0
  6 15  2  0
  7  8  2  0
  7 12  1  0
  8 28  1  0
  9 13  1  0
  9 28  2  0
 10 38  1  0
 11 23  1  0
 12 13  2  0
 12 24  1  0
 13 29  1  0
 14 39  1  0
 15 27  1  0
 15 38  1  0
 16 18  1  0
 16 29  1  0
 16 33  2  0
 17 25  1  0
 17 30  1  0
 17 34  2  0
 18 20  1  0
 19 21  1  0
 19 32  1  0
 20 22  1  0
 20 32  1  0
 21 26  1  0
 21 30  1  0
 22 29  1  0
 22 30  1  0
 26 31  1  0
 27 32  1  0
 27 37  1  0
 31 39  1  0
 35 39  2  0
 36 39  2  0
M  CHG  1  32   1
M  END
