DOU-UNK-b5326f8f-12
     RDKit          3D

 19 22  0  0  0  0  0  0  0  0999 V2000
    5.9402   -3.0381   20.9030 C   0  0  0  0  0  0  0  0  0  0  0  0
    6.6696   -1.8600   21.0326 C   0  0  0  0  0  0  0  0  0  0  0  0
    6.3441   -4.1903   21.5789 C   0  0  0  0  0  0  0  0  0  0  0  0
    7.8074   -1.8265   21.8389 C   0  0  0  0  0  0  0  0  0  0  0  0
    9.0235   -5.3240   23.8867 C   0  0  0  0  0  0  0  0  0  0  0  0
   10.9788   -3.9281   24.8260 C   0  0  0  0  0  0  0  0  0  0  0  0
   14.3224   -1.8892   26.5483 C   0  0  0  0  0  0  0  0  0  0  0  0
    7.4853   -4.1820   22.3965 C   0  0  0  0  0  0  0  0  0  0  0  0
    8.2295   -2.9841   22.5301 C   0  0  0  0  0  0  0  0  0  0  0  0
    9.7933   -4.1489   24.0462 C   0  0  0  0  0  0  0  0  0  0  0  0
    7.8891   -5.3322   23.0729 C   0  0  0  0  0  0  0  0  0  0  0  0
    9.3920   -2.9897   23.3683 C   0  0  0  0  0  0  0  0  0  0  0  0
   11.4490   -2.6422   24.7334 C   0  0  0  0  0  0  0  0  0  0  0  0
   12.5921   -2.0991   25.3744 C   0  0  0  0  0  0  0  0  0  0  0  0
   14.1127   -0.7136   26.0035 N   0  0  0  0  0  0  0  0  0  0  0  0
   12.9744   -0.8517   25.2314 N   0  0  0  0  0  0  0  0  0  0  0  0
   13.3980   -2.8246   26.1972 O   0  0  0  0  0  0  0  0  0  0  0  0
    7.1944   -6.5044   22.9670 O   0  0  0  0  0  0  0  0  0  0  0  0
   10.4817   -1.6841   23.7148 S   0  0  0  0  0  0  0  0  0  0  0  0
  1  2  2  0
  1  3  1  0
  2  4  1  0
  3  8  2  0
  4  9  2  0
  5 10  1  0
  5 11  2  0
  6 10  1  0
  6 13  2  0
  7 15  2  0
  7 17  1  0
  8  9  1  0
  8 11  1  0
  9 12  1  0
 10 12  2  0
 11 18  1  0
 12 19  1  0
 13 14  1  0
 13 19  1  0
 14 16  2  0
 14 17  1  0
 15 16  1  0
M  END
