DOU-UNK-b5326f8f-13
     RDKit          3D

 21 25  0  0  1  0  0  0  0  0999 V2000
   13.8998    1.7560   22.3121 C   0  0  0  0  0  0  0  0  0  0  0  0
   13.4578    6.3127   22.6919 C   0  0  0  0  0  0  0  0  0  0  0  0
   13.2239    0.5209   22.5555 C   0  0  0  0  0  0  0  0  0  0  0  0
   13.1419    2.8459   22.6795 C   0  0  0  0  0  0  0  0  0  0  0  0
   11.9629    0.7308   23.0826 C   0  0  0  0  0  0  0  0  0  0  0  0
   13.5033    4.2145   22.5834 C   0  0  0  0  0  0  0  0  0  0  0  0
    9.4717   -1.5313   22.3391 C   0  0  0  0  0  0  0  0  0  0  0  0
    8.5121   -2.4792   24.8307 C   0  0  0  0  0  0  0  0  0  0  0  0
    8.2932   -3.7677   24.0881 C   0  0  0  0  0  0  0  0  0  0  0  0
   12.6070   -1.8642   22.1445 C   0  0  0  0  0  0  0  0  0  0  0  0
   13.7536   -0.8513   22.2902 C   0  0  0  0  0  0  0  0  0  0  0  0
   10.9776   -0.3383   23.4402 C   0  0  0  0  0  0  0  0  0  0  0  0
   10.3188   -2.5921   22.9706 C   0  0  0  0  0  0  0  0  0  0  0  0
    9.6695   -3.1808   24.1854 C   0  0  0  0  0  0  0  0  0  0  0  0
   11.5618   -1.7606   23.2850 C   0  0  0  0  0  0  0  0  0  0  0  0
   14.6274    6.0043   22.1823 N   0  0  0  0  0  0  0  0  0  0  0  0
   14.6573    4.6240   22.1108 N   0  0  0  0  0  0  0  0  0  0  0  0
    9.8011   -0.2956   22.5394 N   0  0  0  0  0  0  0  0  0  0  0  0
   12.6841    5.2289   22.9742 O   0  0  0  0  0  0  0  0  0  0  0  0
   11.6194    2.3865   23.3100 S   0  0  0  0  0  0  0  0  0  0  0  0
   14.8300   -1.3048   23.6443 Cl  0  0  0  0  0  0  0  0  0  0  0  0
  1  3  1  0
  1  4  2  0
  2 16  2  0
  2 19  1  0
  3  5  2  0
  3 11  1  0
  4  6  1  0
  4 20  1  0
  5 12  1  0
  5 20  1  0
  6 17  2  0
  6 19  1  0
  7 13  1  0
  7 18  2  0
  8  9  1  0
  8 14  1  0
  9 14  1  0
 10 11  1  0
 10 15  1  0
 11 21  1  0
 12 15  1  0
 12 18  1  0
 13 14  1  0
 13 15  1  0
 16 17  1  0
M  END
