DOU-UNK-b5326f8f-1
     RDKit          3D

 17 18  0  0  1  0  0  0  0  0999 V2000
    7.8110   -4.5618   23.2128 C   0  0  0  0  0  0  0  0  0  0  0  0
    6.6312   -2.2013   21.3682 C   0  0  0  0  0  0  0  0  0  0  0  0
    7.8007   -2.3686   22.1750 C   0  0  0  0  0  0  0  0  0  0  0  0
    6.8867   -1.4868   20.2183 C   0  0  0  0  0  0  0  0  0  0  0  0
    8.8956   -1.7449   21.6024 C   0  0  0  0  0  0  0  0  0  0  0  0
    5.9867   -1.1254   19.1718 C   0  0  0  0  0  0  0  0  0  0  0  0
    9.1849   -2.7700   24.2420 C   0  0  0  0  0  0  0  0  0  0  0  0
   10.4187   -2.7301   23.3180 C   0  0  0  0  0  0  0  0  0  0  0  0
    7.8863   -3.1136   23.4786 C   0  0  0  0  0  0  0  0  0  0  0  0
   10.2649   -1.6834   22.2023 C   0  0  0  0  0  0  0  0  0  0  0  0
   11.8588    1.3577   23.5201 C   0  0  0  0  0  0  0  0  0  0  0  0
   11.7719   -0.0362   22.9359 C   0  0  0  0  0  0  0  0  0  0  0  0
    7.7518   -5.7015   23.0036 N   0  0  0  0  0  0  0  0  0  0  0  0
    5.8282   -2.0017   18.0852 N   0  0  0  0  0  0  0  0  0  0  0  0
    5.3428   -0.0446   19.1775 O   0  0  0  0  0  0  0  0  0  0  0  0
   10.4058   -0.3762   22.7520 O   0  0  0  0  0  0  0  0  0  0  0  0
    8.5262   -1.0105   20.1086 S   0  0  0  0  0  0  0  0  0  0  0  0
  1  9  1  0
  1 13  3  0
  2  3  1  0
  2  4  2  0
  3  5  2  0
  3  9  1  0
  4  6  1  0
  4 17  1  0
  5 10  1  0
  5 17  1  0
  6 14  1  0
  6 15  2  0
  7  8  1  0
  7  9  1  0
  8 10  1  0
 10 16  1  0
 11 12  1  0
 12 16  1  0
M  END
