DOU-UNK-b5326f8f-2
     RDKit          3D

 23 24  0  0  0  0  0  0  0  0999 V2000
    5.0772    1.5459   20.8657 C   0  0  0  0  0  0  0  0  0  0  0  0
    4.7515    1.2493   19.5423 C   0  0  0  0  0  0  0  0  0  0  0  0
    6.3188    1.1710   21.3792 C   0  0  0  0  0  0  0  0  0  0  0  0
    5.6672    0.5777   18.7324 C   0  0  0  0  0  0  0  0  0  0  0  0
    8.9510    0.7241   24.8590 C   0  0  0  0  0  0  0  0  0  0  0  0
    9.8012    2.8401   24.5794 C   0  0  0  0  0  0  0  0  0  0  0  0
    7.2345    0.4994   20.5693 C   0  0  0  0  0  0  0  0  0  0  0  0
    9.9242    0.1672   24.0449 C   0  0  0  0  0  0  0  0  0  0  0  0
   10.8698    1.0189   23.4849 C   0  0  0  0  0  0  0  0  0  0  0  0
   10.8142    2.3823   23.7524 C   0  0  0  0  0  0  0  0  0  0  0  0
    6.9088    0.2027   19.2459 C   0  0  0  0  0  0  0  0  0  0  0  0
    8.5279    0.1104   21.1088 C   0  0  0  0  0  0  0  0  0  0  0  0
   11.8050    4.6661   23.3964 C   0  0  0  0  0  0  0  0  0  0  0  0
   11.9409    0.4663   22.5990 C   0  0  0  0  0  0  0  0  0  0  0  0
   12.9599    5.2744   22.6409 C   0  0  0  0  0  0  0  0  0  0  0  0
    9.9350   -1.3201   23.7901 C   0  0  0  0  0  0  0  0  0  0  0  0
    9.8202   -1.6713   22.3088 C   0  0  0  0  0  0  0  0  0  0  0  0
    8.8649    2.0433   25.1417 N   0  0  0  0  0  0  0  0  0  0  0  0
   11.7388    3.2779   23.2153 N   0  0  0  0  0  0  0  0  0  0  0  0
    8.6129   -1.1519   21.7076 N   0  0  0  0  0  0  0  0  0  0  0  0
    9.4967    0.8882   21.0490 O   0  0  0  0  0  0  0  0  0  0  0  0
   11.0572    5.3665   24.0710 O   0  0  0  0  0  0  0  0  0  0  0  0
    7.7808   -0.4427   18.4578 F   0  0  0  0  0  0  0  0  0  0  0  0
  1  2  2  0
  1  3  1  0
  2  4  1  0
  3  7  2  0
  4 11  2  0
  5  8  2  0
  5 18  1  0
  6 10  1  0
  6 18  2  0
  7 11  1  0
  7 12  1  0
  8  9  1  0
  8 16  1  0
  9 10  2  0
  9 14  1  0
 10 19  1  0
 11 23  1  0
 12 20  1  0
 12 21  2  0
 13 15  1  0
 13 19  1  0
 13 22  2  0
 16 17  1  0
 17 20  1  0
M  END
