DOU-UNK-b5326f8f-14
     RDKit          3D

 26 30  0  0  1  0  0  0  0  0999 V2000
   13.3263   -0.7412   21.9167 C   0  0  0  0  0  0  0  0  0  0  0  0
   13.4318    0.4081   22.6919 C   0  0  0  0  0  0  0  0  0  0  0  0
   12.2036   -1.5573   22.0366 C   0  0  0  0  0  0  0  0  0  0  0  0
   12.4074    0.7514   23.5748 C   0  0  0  0  0  0  0  0  0  0  0  0
    9.1086    3.7392   26.0567 C   0  0  0  0  0  0  0  0  0  0  0  0
   10.0618    2.6031   23.6457 C   0  0  0  0  0  0  0  0  0  0  0  0
    9.5253    6.1735   23.3621 C   0  0  0  0  0  0  0  0  0  0  0  0
    9.3181    4.5573   24.9287 C   0  0  0  0  0  0  0  0  0  0  0  0
   11.1699   -1.2289   22.9288 C   0  0  0  0  0  0  0  0  0  0  0  0
   11.2505   -0.0408   23.6835 C   0  0  0  0  0  0  0  0  0  0  0  0
    9.8466    1.8115   24.7775 C   0  0  0  0  0  0  0  0  0  0  0  0
    9.1562    5.9468   24.6680 C   0  0  0  0  0  0  0  0  0  0  0  0
    9.7889    3.9715   23.7517 C   0  0  0  0  0  0  0  0  0  0  0  0
    9.3774    2.3686   25.9654 C   0  0  0  0  0  0  0  0  0  0  0  0
    8.4144   -2.7924   24.9268 C   0  0  0  0  0  0  0  0  0  0  0  0
    9.9938   -2.1697   23.0408 C   0  0  0  0  0  0  0  0  0  0  0  0
    7.8327    8.1614   25.1322 C   0  0  0  0  0  0  0  0  0  0  0  0
    9.2421    8.4061   25.5727 C   0  0  0  0  0  0  0  0  0  0  0  0
    8.8352   -0.4276   24.3462 C   0  0  0  0  0  0  0  0  0  0  0  0
   10.1409    0.3221   24.6646 C   0  0  0  0  0  0  0  0  0  0  0  0
    8.6670    7.0027   25.6492 C   0  0  0  0  0  0  0  0  0  0  0  0
    8.6425   -4.2418   24.5769 C   0  0  0  0  0  0  0  0  0  0  0  0
    9.9051    4.9762   22.8176 N   0  0  0  0  0  0  0  0  0  0  0  0
    9.0937   -1.8511   24.1529 N   0  0  0  0  0  0  0  0  0  0  0  0
    7.6597   -2.5081   25.8603 O   0  0  0  0  0  0  0  0  0  0  0  0
    9.1111    1.3900   27.3650 Cl  0  0  0  0  0  0  0  0  0  0  0  0
  1  2  2  0
  1  3  1  0
  2  4  1  0
  3  9  2  0
  4 10  2  0
  5  8  2  0
  5 14  1  0
  6 11  1  0
  6 13  2  0
  7 12  2  0
  7 23  1  0
  8 12  1  0
  8 13  1  0
  9 10  1  0
  9 16  1  0
 10 20  1  0
 11 14  2  0
 11 20  1  0
 12 21  1  0
 13 23  1  0
 14 26  1  0
 15 22  1  0
 15 24  1  0
 15 25  2  0
 16 24  1  0
 17 18  1  0
 17 21  1  0
 18 21  1  0
 19 20  1  0
 19 24  1  0
M  END
