DRA-CSI-7ec17797-5
     RDKit          3D

 33 37  0  0  0  0  0  0  0  0999 V2000
   11.4109    8.3009   24.2339 C   0  0  0  0  0  0  0  0  0  0  0  0
    8.7206   -3.8664   26.5709 C   0  0  0  0  0  0  0  0  0  0  0  0
    6.8406   -3.3039   25.1616 C   0  0  0  0  0  0  0  0  0  0  0  0
   11.7224    6.9529   24.0953 C   0  0  0  0  0  0  0  0  0  0  0  0
    8.0875   -5.0525   26.9421 C   0  0  0  0  0  0  0  0  0  0  0  0
    6.2074   -4.4900   25.5328 C   0  0  0  0  0  0  0  0  0  0  0  0
   10.0731    8.6525   24.3133 C   0  0  0  0  0  0  0  0  0  0  0  0
    9.3949    6.4652   24.1295 C   0  0  0  0  0  0  0  0  0  0  0  0
    8.0971   -2.9920   25.6807 C   0  0  0  0  0  0  0  0  0  0  0  0
   10.7009    6.0110   24.0412 C   0  0  0  0  0  0  0  0  0  0  0  0
   10.1459   -0.3442   24.5258 C   0  0  0  0  0  0  0  0  0  0  0  0
    6.8309   -5.3644   26.4231 C   0  0  0  0  0  0  0  0  0  0  0  0
    9.0928    0.3964   25.0384 C   0  0  0  0  0  0  0  0  0  0  0  0
   11.1977    0.3678   23.9577 C   0  0  0  0  0  0  0  0  0  0  0  0
    8.7535   -1.7623   25.2959 C   0  0  0  0  0  0  0  0  0  0  0  0
   10.0461    2.3105   24.4738 C   0  0  0  0  0  0  0  0  0  0  0  0
   11.0006    4.5764   23.8946 C   0  0  0  0  0  0  0  0  0  0  0  0
   12.1988   -1.6300   22.8273 C   0  0  0  0  0  0  0  0  0  0  0  0
   13.4889    0.4478   23.0037 C   0  0  0  0  0  0  0  0  0  0  0  0
   12.2449   -1.4923   21.3093 C   0  0  0  0  0  0  0  0  0  0  0  0
   13.5026    0.5090   21.4757 C   0  0  0  0  0  0  0  0  0  0  0  0
    6.9479   -0.2341   26.1644 C   0  0  0  0  0  0  0  0  0  0  0  0
    4.9298   -6.7782   26.2170 C   0  0  0  0  0  0  0  0  0  0  0  0
    9.0534    7.7663   24.2645 N   0  0  0  0  0  0  0  0  0  0  0  0
    9.9215   -1.6876   24.6927 N   0  0  0  0  0  0  0  0  0  0  0  0
    8.9697    1.7322   25.0499 N   0  0  0  0  0  0  0  0  0  0  0  0
   11.1404    1.7212   23.9345 N   0  0  0  0  0  0  0  0  0  0  0  0
    8.2115   -0.5258   25.5265 N   0  0  0  0  0  0  0  0  0  0  0  0
   12.2941   -0.2942   23.4199 N   0  0  0  0  0  0  0  0  0  0  0  0
   10.0293    3.7150   24.4276 N   0  0  0  0  0  0  0  0  0  0  0  0
   12.0468    4.1989   23.3714 O   0  0  0  0  0  0  0  0  0  0  0  0
   13.4411   -0.8081   20.9171 O   0  0  0  0  0  0  0  0  0  0  0  0
    6.2131   -6.5218   26.7853 O   0  0  0  0  0  0  0  0  0  0  0  0
  1  4  2  0
  1  7  1  0
  2  5  2  0
  2  9  1  0
  3  6  1  0
  3  9  2  0
  4 10  1  0
  5 12  1  0
  6 12  2  0
  7 24  2  0
  8 10  2  0
  8 24  1  0
  9 15  1  0
 10 17  1  0
 11 13  2  0
 11 14  1  0
 11 25  1  0
 12 33  1  0
 13 26  1  0
 13 28  1  0
 14 27  2  0
 14 29  1  0
 15 25  2  0
 15 28  1  0
 16 26  2  0
 16 27  1  0
 16 30  1  0
 17 30  1  0
 17 31  2  0
 18 20  1  0
 18 29  1  0
 19 21  1  0
 19 29  1  0
 20 32  1  0
 21 32  1  0
 22 28  1  0
 23 33  1  0
M  END
