DRA-CSI-7ec17797-4
     RDKit          3D

 31 34  0  0  0  0  0  0  0  0999 V2000
    8.0489   -5.1855   22.5203 C   0  0  0  0  0  0  0  0  0  0  0  0
    5.7968   -5.3869   23.3714 C   0  0  0  0  0  0  0  0  0  0  0  0
    8.4884   -4.7773   23.7796 C   0  0  0  0  0  0  0  0  0  0  0  0
    6.2362   -4.9787   24.6308 C   0  0  0  0  0  0  0  0  0  0  0  0
    2.1683    2.6444   19.9058 C   0  0  0  0  0  0  0  0  0  0  0  0
    4.1294    1.7078   20.2775 C   0  0  0  0  0  0  0  0  0  0  0  0
    6.7031   -5.4902   22.3162 C   0  0  0  0  0  0  0  0  0  0  0  0
    7.5821   -4.6739   24.8348 C   0  0  0  0  0  0  0  0  0  0  0  0
    3.4977    2.0635   21.4617 C   0  0  0  0  0  0  0  0  0  0  0  0
    5.3720    1.1053   20.2920 C   0  0  0  0  0  0  0  0  0  0  0  0
    5.2610    1.2546   22.5975 C   0  0  0  0  0  0  0  0  0  0  0  0
    7.1400    0.4021   24.0352 C   0  0  0  0  0  0  0  0  0  0  0  0
    6.4218   -0.5111   26.2637 C   0  0  0  0  0  0  0  0  0  0  0  0
    8.8716   -0.2724   25.6606 C   0  0  0  0  0  0  0  0  0  0  0  0
    6.5379   -2.0131   26.0117 C   0  0  0  0  0  0  0  0  0  0  0  0
    8.9194   -1.7763   25.4026 C   0  0  0  0  0  0  0  0  0  0  0  0
    7.4678    0.3095   25.5168 C   0  0  0  0  0  0  0  0  0  0  0  0
    5.3975    0.9903   17.8128 C   0  0  0  0  0  0  0  0  0  0  0  0
    7.3337    0.1208   19.1333 C   0  0  0  0  0  0  0  0  0  0  0  0
    2.2797    2.6446   21.2170 N   0  0  0  0  0  0  0  0  0  0  0  0
    4.0497    1.8460   22.6797 N   0  0  0  0  0  0  0  0  0  0  0  0
    5.9477    0.8755   21.4935 N   0  0  0  0  0  0  0  0  0  0  0  0
    3.2611    2.0887   19.2944 N   0  0  0  0  0  0  0  0  0  0  0  0
    7.9326   -2.4640   26.2833 N   0  0  0  0  0  0  0  0  0  0  0  0
    5.9004    0.9954   23.8330 N   0  0  0  0  0  0  0  0  0  0  0  0
    6.0208    0.7411   19.1007 N   0  0  0  0  0  0  0  0  0  0  0  0
    7.9262   -0.0145   23.1907 O   0  0  0  0  0  0  0  0  0  0  0  0
    7.2018   -4.6647   27.4094 O   0  0  0  0  0  0  0  0  0  0  0  0
    9.5515   -4.4533   26.5251 O   0  0  0  0  0  0  0  0  0  0  0  0
    6.2809   -5.8814   21.1066 F   0  0  0  0  0  0  0  0  0  0  0  0
    8.1381   -4.1595   26.4291 S   0  0  0  0  0  0  0  0  0  0  0  0
  1  3  2  0
  1  7  1  0
  2  4  1  0
  2  7  2  0
  3  8  1  0
  4  8  2  0
  5 20  2  0
  5 23  1  0
  6  9  2  0
  6 10  1  0
  6 23  1  0
  7 30  1  0
  8 31  1  0
  9 20  1  0
  9 21  1  0
 10 22  2  0
 10 26  1  0
 11 21  2  0
 11 22  1  0
 11 25  1  0
 12 17  1  0
 12 25  1  0
 12 27  2  0
 13 15  1  0
 13 17  1  0
 14 16  1  0
 14 17  1  0
 15 24  1  0
 16 24  1  0
 18 26  1  0
 19 26  1  0
 24 31  1  0
 28 31  2  0
 29 31  2  0
M  END
