DRA-CSI-0a78d9ba-1
     RDKit          3D

 33 37  0  0  0  0  0  0  0  0999 V2000
    5.5991    4.7348   24.1191 C   0  0  0  0  0  0  0  0  0  0  0  0
    6.1469    4.9604   22.8564 C   0  0  0  0  0  0  0  0  0  0  0  0
    6.0858    5.4316   25.2252 C   0  0  0  0  0  0  0  0  0  0  0  0
    8.6578   -4.8293   24.5463 C   0  0  0  0  0  0  0  0  0  0  0  0
    7.9512   -3.2074   26.1916 C   0  0  0  0  0  0  0  0  0  0  0  0
    7.1816    5.8826   22.6996 C   0  0  0  0  0  0  0  0  0  0  0  0
    7.1205    6.3538   25.0684 C   0  0  0  0  0  0  0  0  0  0  0  0
   11.7212   -0.8486   22.3036 C   0  0  0  0  0  0  0  0  0  0  0  0
   12.0807    0.5008   22.4326 C   0  0  0  0  0  0  0  0  0  0  0  0
    7.8618   -5.7973   25.1586 C   0  0  0  0  0  0  0  0  0  0  0  0
    7.1551   -4.1753   26.8039 C   0  0  0  0  0  0  0  0  0  0  0  0
   10.6676    0.7767   24.4049 C   0  0  0  0  0  0  0  0  0  0  0  0
    8.7026   -3.5344   25.0628 C   0  0  0  0  0  0  0  0  0  0  0  0
    7.6684    6.5794   23.8056 C   0  0  0  0  0  0  0  0  0  0  0  0
   10.8247   -1.3839   23.2396 C   0  0  0  0  0  0  0  0  0  0  0  0
   11.5630    1.2952   23.4631 C   0  0  0  0  0  0  0  0  0  0  0  0
   10.3356   -0.5629   24.2448 C   0  0  0  0  0  0  0  0  0  0  0  0
    7.1104   -5.4703   26.2874 C   0  0  0  0  0  0  0  0  0  0  0  0
    9.5226   -2.5374   24.4321 C   0  0  0  0  0  0  0  0  0  0  0  0
   11.5487    3.5858   24.5009 C   0  0  0  0  0  0  0  0  0  0  0  0
   11.8552    5.4349   22.8516 C   0  0  0  0  0  0  0  0  0  0  0  0
   11.7905    5.9272   25.3329 C   0  0  0  0  0  0  0  0  0  0  0  0
   10.4172    5.9242   22.7305 C   0  0  0  0  0  0  0  0  0  0  0  0
   10.3530    6.4114   25.1857 C   0  0  0  0  0  0  0  0  0  0  0  0
   12.1911    4.9215   24.2525 C   0  0  0  0  0  0  0  0  0  0  0  0
    5.5915   -6.0125   28.0352 C   0  0  0  0  0  0  0  0  0  0  0  0
    8.7814    7.5713   23.6378 C   0  0  0  0  0  0  0  0  0  0  0  0
   10.2950   -2.6445   23.3733 N   0  0  0  0  0  0  0  0  0  0  0  0
   11.9531    2.6523   23.5551 N   0  0  0  0  0  0  0  0  0  0  0  0
   10.1458    6.9583   23.7950 N   0  0  0  0  0  0  0  0  0  0  0  0
   10.7797    3.4241   25.4430 O   0  0  0  0  0  0  0  0  0  0  0  0
    9.4921   -1.3078   25.0182 O   0  0  0  0  0  0  0  0  0  0  0  0
    6.3337   -6.4148   26.8849 O   0  0  0  0  0  0  0  0  0  0  0  0
  1  2  2  0
  1  3  1  0
  2  6  1  0
  3  7  2  0
  4 10  2  0
  4 13  1  0
  5 11  1  0
  5 13  2  0
  6 14  2  0
  7 14  1  0
  8  9  2  0
  8 15  1  0
  9 16  1  0
 10 18  1  0
 11 18  2  0
 12 16  2  0
 12 17  1  0
 13 19  1  0
 14 27  1  0
 15 17  2  0
 15 28  1  0
 16 29  1  0
 17 32  1  0
 18 33  1  0
 19 28  2  0
 19 32  1  0
 20 25  1  0
 20 29  1  0
 20 31  2  0
 21 23  1  0
 21 25  1  0
 22 24  1  0
 22 25  1  0
 23 30  1  0
 24 30  1  0
 26 33  1  0
 27 30  1  0
M  CHG  1  30   1
M  END
