DRA-CSI-3ab97369-3
     RDKit          3D

 38 42  0  0  0  0  0  0  0  0999 V2000
    9.3138   -4.9076   24.0634 C   0  0  0  0  0  0  0  0  0  0  0  0
    8.2025   -3.2328   25.4040 C   0  0  0  0  0  0  0  0  0  0  0  0
   12.6114   -0.9002   22.2395 C   0  0  0  0  0  0  0  0  0  0  0  0
   12.8765    0.4728   22.3453 C   0  0  0  0  0  0  0  0  0  0  0  0
    6.8667    4.6922   26.3640 C   0  0  0  0  0  0  0  0  0  0  0  0
    6.3885    4.6788   23.9958 C   0  0  0  0  0  0  0  0  0  0  0  0
    8.4477   -5.8810   24.5615 C   0  0  0  0  0  0  0  0  0  0  0  0
    7.3364   -4.2061   25.9021 C   0  0  0  0  0  0  0  0  0  0  0  0
    7.7359    5.7678   26.1824 C   0  0  0  0  0  0  0  0  0  0  0  0
    7.2577    5.7545   23.8142 C   0  0  0  0  0  0  0  0  0  0  0  0
   11.0639    0.7855   23.9514 C   0  0  0  0  0  0  0  0  0  0  0  0
    9.1913   -3.5835   24.4847 C   0  0  0  0  0  0  0  0  0  0  0  0
   11.5595   -1.4287   23.0013 C   0  0  0  0  0  0  0  0  0  0  0  0
    6.1930    4.1476   25.2706 C   0  0  0  0  0  0  0  0  0  0  0  0
   12.1168    1.2968   23.1848 C   0  0  0  0  0  0  0  0  0  0  0  0
   10.8318   -0.5781   23.8203 C   0  0  0  0  0  0  0  0  0  0  0  0
    7.4590   -5.5302   25.4808 C   0  0  0  0  0  0  0  0  0  0  0  0
    7.9314    6.2990   24.9076 C   0  0  0  0  0  0  0  0  0  0  0  0
   10.0834   -2.5810   23.9717 C   0  0  0  0  0  0  0  0  0  0  0  0
   12.2419    3.5229   24.3480 C   0  0  0  0  0  0  0  0  0  0  0  0
   11.9103    5.5084   22.8435 C   0  0  0  0  0  0  0  0  0  0  0  0
   12.5487    5.7885   25.2800 C   0  0  0  0  0  0  0  0  0  0  0  0
   10.4810    5.9087   23.2039 C   0  0  0  0  0  0  0  0  0  0  0  0
   11.0989    6.1598   25.5817 C   0  0  0  0  0  0  0  0  0  0  0  0
   12.6930    4.9373   24.0211 C   0  0  0  0  0  0  0  0  0  0  0  0
    5.6263   -6.0524   26.9036 C   0  0  0  0  0  0  0  0  0  0  0  0
   11.0682   -2.7072   23.1096 N   0  0  0  0  0  0  0  0  0  0  0  0
   10.4941    6.8153   24.3872 N   0  0  0  0  0  0  0  0  0  0  0  0
   12.4193    2.6770   23.2605 N   0  0  0  0  0  0  0  0  0  0  0  0
    5.3093    3.0519   25.4555 N   0  0  0  0  0  0  0  0  0  0  0  0
   11.7934    3.2469   25.4560 O   0  0  0  0  0  0  0  0  0  0  0  0
    5.1485    2.5884   26.6105 O   0  0  0  0  0  0  0  0  0  0  0  0
    4.7126    2.5768   24.4590 O   0  0  0  0  0  0  0  0  0  0  0  0
    8.6373    8.3493   23.4682 O   0  0  0  0  0  0  0  0  0  0  0  0
    9.1394    8.3643   25.9371 O   0  0  0  0  0  0  0  0  0  0  0  0
    9.8753   -1.3222   24.4496 O   0  0  0  0  0  0  0  0  0  0  0  0
    6.6139   -6.4800   25.9668 O   0  0  0  0  0  0  0  0  0  0  0  0
    9.0313    7.6603   24.6778 S   0  0  0  0  0  0  0  0  0  0  0  0
  1  7  2  0
  1 12  1  0
  2  8  1  0
  2 12  2  0
  3  4  2  0
  3 13  1  0
  4 15  1  0
  5  9  2  0
  5 14  1  0
  6 10  1  0
  6 14  2  0
  7 17  1  0
  8 17  2  0
  9 18  1  0
 10 18  2  0
 11 15  2  0
 11 16  1  0
 12 19  1  0
 13 16  2  0
 13 27  1  0
 14 30  1  0
 15 29  1  0
 16 36  1  0
 17 37  1  0
 18 38  1  0
 19 27  2  0
 19 36  1  0
 20 25  1  0
 20 29  1  0
 20 31  2  0
 21 23  1  0
 21 25  1  0
 22 24  1  0
 22 25  1  0
 23 28  1  0
 24 28  1  0
 26 37  1  0
 28 38  1  0
 30 32  1  0
 30 33  2  0
 34 38  2  0
 35 38  2  0
M  CHG  2  30   1  32  -1
M  END
