DRA-CSI-13f611db-1
     RDKit          3D

 28 31  0  0  0  0  0  0  0  0999 V2000
    9.2164    7.2564   24.5801 C   0  0  0  0  0  0  0  0  0  0  0  0
    8.8969    6.3780   23.5448 C   0  0  0  0  0  0  0  0  0  0  0  0
   10.5229    7.3171   25.0651 C   0  0  0  0  0  0  0  0  0  0  0  0
    9.8839    5.5602   22.9945 C   0  0  0  0  0  0  0  0  0  0  0  0
   11.5098    6.4993   24.5149 C   0  0  0  0  0  0  0  0  0  0  0  0
    6.5856   -5.3104   24.7025 C   0  0  0  0  0  0  0  0  0  0  0  0
    5.3401   -5.9965   24.6118 C   0  0  0  0  0  0  0  0  0  0  0  0
   11.1903    5.6208   23.4796 C   0  0  0  0  0  0  0  0  0  0  0  0
    6.6959   -4.3112   23.7607 C   0  0  0  0  0  0  0  0  0  0  0  0
    4.5457   -5.4952   23.6040 C   0  0  0  0  0  0  0  0  0  0  0  0
    7.7908   -3.4363   23.5636 C   0  0  0  0  0  0  0  0  0  0  0  0
    9.5287   -1.8447   23.6806 C   0  0  0  0  0  0  0  0  0  0  0  0
   12.2220    4.7658   22.9043 C   0  0  0  0  0  0  0  0  0  0  0  0
   11.4628   -0.2578   23.4257 C   0  0  0  0  0  0  0  0  0  0  0  0
   11.1922    1.8516   24.7257 C   0  0  0  0  0  0  0  0  0  0  0  0
   13.3498    1.3565   23.4693 C   0  0  0  0  0  0  0  0  0  0  0  0
   10.8230    2.8422   23.6211 C   0  0  0  0  0  0  0  0  0  0  0  0
   12.9026    2.3520   22.4000 C   0  0  0  0  0  0  0  0  0  0  0  0
   12.1825    0.7806   24.2707 C   0  0  0  0  0  0  0  0  0  0  0  0
    8.4659   -3.3674   22.4360 N   0  0  0  0  0  0  0  0  0  0  0  0
    9.4858   -2.4345   22.5050 N   0  0  0  0  0  0  0  0  0  0  0  0
   12.0251    3.3749   22.9810 N   0  0  0  0  0  0  0  0  0  0  0  0
   10.4214   -0.8444   24.1333 N   0  0  0  0  0  0  0  0  0  0  0  0
   13.2166    5.2660   22.3761 O   0  0  0  0  0  0  0  0  0  0  0  0
   11.8177   -0.4857   22.2737 O   0  0  0  0  0  0  0  0  0  0  0  0
    5.3015   -4.2031   22.7726 S   0  0  0  0  0  0  0  0  0  0  0  0
    8.3373   -2.3746   24.7948 S   0  0  0  0  0  0  0  0  0  0  0  0
    2.8147   -6.1480   23.1738 Br  0  0  0  0  0  0  0  0  0  0  0  0
  1  2  2  0
  1  3  1  0
  2  4  1  0
  3  5  2  0
  4  8  2  0
  5  8  1  0
  6  7  1  0
  6  9  2  0
  7 10  2  0
  8 13  1  0
  9 11  1  0
  9 26  1  0
 10 26  1  0
 10 28  1  0
 11 20  2  0
 11 27  1  0
 12 21  2  0
 12 23  1  0
 12 27  1  0
 13 22  1  0
 13 24  2  0
 14 19  1  0
 14 23  1  0
 14 25  2  0
 15 17  1  0
 15 19  1  0
 16 18  1  0
 16 19  1  0
 17 22  1  0
 18 22  1  0
 20 21  1  0
M  END
