DRA-CSI-3ab97369-11
     RDKit          3D

 35 39  0  0  0  0  0  0  0  0999 V2000
   11.6388   -0.3911   22.6064 C   0  0  0  0  0  0  0  0  0  0  0  0
    7.0348   -5.1779   23.3087 C   0  0  0  0  0  0  0  0  0  0  0  0
    5.9200   -3.3625   24.4484 C   0  0  0  0  0  0  0  0  0  0  0  0
   12.1930    2.4752   22.5789 C   0  0  0  0  0  0  0  0  0  0  0  0
   10.2379    6.8118   23.2840 C   0  0  0  0  0  0  0  0  0  0  0  0
    9.6589    7.2065   25.5961 C   0  0  0  0  0  0  0  0  0  0  0  0
    8.9108    7.0301   22.9143 C   0  0  0  0  0  0  0  0  0  0  0  0
    8.3317    7.4248   25.2265 C   0  0  0  0  0  0  0  0  0  0  0  0
   11.2036   -1.7068   22.3910 C   0  0  0  0  0  0  0  0  0  0  0  0
    5.9474   -6.0109   23.5718 C   0  0  0  0  0  0  0  0  0  0  0  0
    4.8325   -4.1956   24.7115 C   0  0  0  0  0  0  0  0  0  0  0  0
   12.6481    3.7706   22.7985 C   0  0  0  0  0  0  0  0  0  0  0  0
    9.5878    0.1818   23.8014 C   0  0  0  0  0  0  0  0  0  0  0  0
   10.9650    2.6178   24.6107 C   0  0  0  0  0  0  0  0  0  0  0  0
    7.0211   -3.8537   23.7470 C   0  0  0  0  0  0  0  0  0  0  0  0
   10.8452    0.5325   23.2978 C   0  0  0  0  0  0  0  0  0  0  0  0
   11.3351    1.8806   23.4975 C   0  0  0  0  0  0  0  0  0  0  0  0
   10.6120    6.8999   24.6249 C   0  0  0  0  0  0  0  0  0  0  0  0
    7.9577    7.3366   23.8855 C   0  0  0  0  0  0  0  0  0  0  0  0
    9.9456   -2.0745   22.8895 C   0  0  0  0  0  0  0  0  0  0  0  0
    9.1913   -1.1293   23.5687 C   0  0  0  0  0  0  0  0  0  0  0  0
    4.8463   -5.5197   24.2732 C   0  0  0  0  0  0  0  0  0  0  0  0
   12.2191    4.4233   23.9430 C   0  0  0  0  0  0  0  0  0  0  0  0
    8.1412   -2.9957   23.4760 C   0  0  0  0  0  0  0  0  0  0  0  0
    5.9317    6.3158   22.7905 C   0  0  0  0  0  0  0  0  0  0  0  0
    6.4203    8.7672   22.4939 C   0  0  0  0  0  0  0  0  0  0  0  0
    5.5611    7.9087   24.6633 C   0  0  0  0  0  0  0  0  0  0  0  0
    3.8653   -7.6750   24.0532 C   0  0  0  0  0  0  0  0  0  0  0  0
   12.0403    6.6651   25.0237 C   0  0  0  0  0  0  0  0  0  0  0  0
    6.5392    7.5716   23.4892 C   0  0  0  0  0  0  0  0  0  0  0  0
   11.3864    3.8783   24.8580 N   0  0  0  0  0  0  0  0  0  0  0  0
    9.2597   -3.2639   22.8387 N   0  0  0  0  0  0  0  0  0  0  0  0
   12.6927    5.7422   24.1532 N   0  0  0  0  0  0  0  0  0  0  0  0
    8.0224   -1.7237   23.9494 O   0  0  0  0  0  0  0  0  0  0  0  0
    3.7852   -6.3326   24.5299 O   0  0  0  0  0  0  0  0  0  0  0  0
  1  9  2  0
  1 16  1  0
  2 10  2  0
  2 15  1  0
  3 11  1  0
  3 15  2  0
  4 12  2  0
  4 17  1  0
  5  7  2  0
  5 18  1  0
  6  8  1  0
  6 18  2  0
  7 19  1  0
  8 19  2  0
  9 20  1  0
 10 22  1  0
 11 22  2  0
 12 23  1  0
 13 16  2  0
 13 21  1  0
 14 17  2  0
 14 31  1  0
 15 24  1  0
 16 17  1  0
 18 29  1  0
 19 30  1  0
 20 21  2  0
 20 32  1  0
 21 34  1  0
 22 35  1  0
 23 31  2  0
 23 33  1  0
 24 32  2  0
 24 34  1  0
 25 30  1  0
 26 30  1  0
 27 30  1  0
 28 35  1  0
 29 33  1  0
M  END
