DRA-CSI-7ec17797-13
     RDKit          3D

 37 41  0  0  0  0  0  0  0  0999 V2000
    3.5812   -5.4222   25.9825 C   0  0  0  0  0  0  0  0  0  0  0  0
    4.5602   -4.9333   23.8285 C   0  0  0  0  0  0  0  0  0  0  0  0
   12.0547    6.1728   25.1111 C   0  0  0  0  0  0  0  0  0  0  0  0
    9.9613    6.2644   23.9085 C   0  0  0  0  0  0  0  0  0  0  0  0
    7.4353   -2.1775   28.1911 C   0  0  0  0  0  0  0  0  0  0  0  0
   11.6364    7.2295   25.9198 C   0  0  0  0  0  0  0  0  0  0  0  0
    9.5429    7.3210   24.7172 C   0  0  0  0  0  0  0  0  0  0  0  0
    8.5362   -1.3669   27.8788 C   0  0  0  0  0  0  0  0  0  0  0  0
    2.6285   -6.2329   25.3655 C   0  0  0  0  0  0  0  0  0  0  0  0
    3.6076   -5.7441   23.2115 C   0  0  0  0  0  0  0  0  0  0  0  0
    8.3117   -1.8348   25.4928 C   0  0  0  0  0  0  0  0  0  0  0  0
    4.5470   -4.7723   25.2140 C   0  0  0  0  0  0  0  0  0  0  0  0
   11.2172    5.6903   24.1054 C   0  0  0  0  0  0  0  0  0  0  0  0
    6.7704   -2.8203   27.1372 C   0  0  0  0  0  0  0  0  0  0  0  0
   10.3805    7.8036   25.7229 C   0  0  0  0  0  0  0  0  0  0  0  0
    8.9638   -1.2006   26.5558 C   0  0  0  0  0  0  0  0  0  0  0  0
    7.2261   -2.6288   25.8412 C   0  0  0  0  0  0  0  0  0  0  0  0
    2.6417   -6.3939   23.9800 C   0  0  0  0  0  0  0  0  0  0  0  0
    5.5282   -3.9372   25.8495 C   0  0  0  0  0  0  0  0  0  0  0  0
   11.6545    4.5854   23.2602 C   0  0  0  0  0  0  0  0  0  0  0  0
   10.6433   -0.0903   25.0488 C   0  0  0  0  0  0  0  0  0  0  0  0
   11.3943    2.1394   25.8717 C   0  0  0  0  0  0  0  0  0  0  0  0
   12.4499    1.0814   23.8113 C   0  0  0  0  0  0  0  0  0  0  0  0
   10.6227    3.0792   24.9448 C   0  0  0  0  0  0  0  0  0  0  0  0
   11.6330    2.0459   22.9529 C   0  0  0  0  0  0  0  0  0  0  0  0
   11.8335    0.8444   25.1898 C   0  0  0  0  0  0  0  0  0  0  0  0
    1.7835   -7.3054   21.9580 C   0  0  0  0  0  0  0  0  0  0  0  0
    5.6831   -3.6601   27.1256 N   0  0  0  0  0  0  0  0  0  0  0  0
   11.3492    3.2817   23.6919 N   0  0  0  0  0  0  0  0  0  0  0  0
   10.0798   -0.3732   26.2866 N   0  0  0  0  0  0  0  0  0  0  0  0
    9.9549    8.8795   26.5458 N   0  0  0  0  0  0  0  0  0  0  0  0
   12.2642    4.8108   22.2133 O   0  0  0  0  0  0  0  0  0  0  0  0
   10.2890   -0.4943   23.9460 O   0  0  0  0  0  0  0  0  0  0  0  0
   10.7238    9.2988   27.4445 O   0  0  0  0  0  0  0  0  0  0  0  0
    8.8216    9.3821   26.3519 O   0  0  0  0  0  0  0  0  0  0  0  0
    6.4231   -3.3512   25.0058 O   0  0  0  0  0  0  0  0  0  0  0  0
    1.7121   -7.1850   23.3779 O   0  0  0  0  0  0  0  0  0  0  0  0
  1  9  2  0
  1 12  1  0
  2 10  1  0
  2 12  2  0
  3  6  2  0
  3 13  1  0
  4  7  1  0
  4 13  2  0
  5  8  2  0
  5 14  1  0
  6 15  1  0
  7 15  2  0
  8 16  1  0
  9 18  1  0
 10 18  2  0
 11 16  2  0
 11 17  1  0
 12 19  1  0
 13 20  1  0
 14 17  2  0
 14 28  1  0
 15 31  1  0
 16 30  1  0
 17 36  1  0
 18 37  1  0
 19 28  2  0
 19 36  1  0
 20 29  1  0
 20 32  2  0
 21 26  1  0
 21 30  1  0
 21 33  2  0
 22 24  1  0
 22 26  1  0
 23 25  1  0
 23 26  1  0
 24 29  1  0
 25 29  1  0
 27 37  1  0
 31 34  1  0
 31 35  2  0
M  CHG  2  31   1  34  -1
M  END
