DRA-CSI-7ec17797-10
     RDKit          3D

 30 33  0  0  0  0  0  0  0  0999 V2000
   10.8158    5.7539   23.1600 C   0  0  0  0  0  0  0  0  0  0  0  0
   12.1998    5.8022   25.1397 C   0  0  0  0  0  0  0  0  0  0  0  0
   10.1115    6.8644   23.6252 C   0  0  0  0  0  0  0  0  0  0  0  0
   11.4956    6.9128   25.6049 C   0  0  0  0  0  0  0  0  0  0  0  0
    9.3887   -6.5884   26.6393 C   0  0  0  0  0  0  0  0  0  0  0  0
   11.8599    5.2228   23.9172 C   0  0  0  0  0  0  0  0  0  0  0  0
    8.7052   -4.6082   26.2459 C   0  0  0  0  0  0  0  0  0  0  0  0
   10.4514    7.4438   24.8476 C   0  0  0  0  0  0  0  0  0  0  0  0
    9.8285   -4.7871   25.4544 C   0  0  0  0  0  0  0  0  0  0  0  0
    8.0688   -3.3736   26.1647 C   0  0  0  0  0  0  0  0  0  0  0  0
    9.6762   -2.7449   24.6194 C   0  0  0  0  0  0  0  0  0  0  0  0
   12.5975    4.0596   23.4296 C   0  0  0  0  0  0  0  0  0  0  0  0
    9.6375   -0.4549   23.5809 C   0  0  0  0  0  0  0  0  0  0  0  0
   11.8893    0.3975   23.1122 C   0  0  0  0  0  0  0  0  0  0  0  0
    9.8159    1.7130   22.4092 C   0  0  0  0  0  0  0  0  0  0  0  0
   12.5811    1.6935   22.7067 C   0  0  0  0  0  0  0  0  0  0  0  0
   10.4107    2.7521   23.3588 C   0  0  0  0  0  0  0  0  0  0  0  0
   10.4591    0.3368   22.5780 C   0  0  0  0  0  0  0  0  0  0  0  0
    6.3785   -4.1118   27.8255 C   0  0  0  0  0  0  0  0  0  0  0  0
    6.2686   -1.8107   26.8552 C   0  0  0  0  0  0  0  0  0  0  0  0
    8.4426   -5.7380   26.9791 N   0  0  0  0  0  0  0  0  0  0  0  0
   10.3777   -3.8994   24.6119 N   0  0  0  0  0  0  0  0  0  0  0  0
    8.5691   -2.4280   25.3335 N   0  0  0  0  0  0  0  0  0  0  0  0
   10.2529   -6.0582   25.7184 N   0  0  0  0  0  0  0  0  0  0  0  0
   11.8693    2.8736   23.2046 N   0  0  0  0  0  0  0  0  0  0  0  0
   10.1633   -1.7273   23.7652 N   0  0  0  0  0  0  0  0  0  0  0  0
    6.9223   -3.1049   26.9319 N   0  0  0  0  0  0  0  0  0  0  0  0
   13.8104    4.1321   23.2206 O   0  0  0  0  0  0  0  0  0  0  0  0
    8.6519    0.0415   24.1167 O   0  0  0  0  0  0  0  0  0  0  0  0
    9.7753    8.5103   25.2944 F   0  0  0  0  0  0  0  0  0  0  0  0
  1  3  2  0
  1  6  1  0
  2  4  1  0
  2  6  2  0
  3  8  1  0
  4  8  2  0
  5 21  2  0
  5 24  1  0
  6 12  1  0
  7  9  2  0
  7 10  1  0
  7 21  1  0
  8 30  1  0
  9 22  1  0
  9 24  1  0
 10 23  2  0
 10 27  1  0
 11 22  2  0
 11 23  1  0
 11 26  1  0
 12 25  1  0
 12 28  2  0
 13 18  1  0
 13 26  1  0
 13 29  2  0
 14 16  1  0
 14 18  1  0
 15 17  1  0
 15 18  1  0
 16 25  1  0
 17 25  1  0
 19 27  1  0
 20 27  1  0
M  END
