DRA-CSI-7ec17797-6
     RDKit          3D

 32 35  0  0  0  0  0  0  0  0999 V2000
    6.4198   -5.3635   26.8758 C   0  0  0  0  0  0  0  0  0  0  0  0
    5.4157   -6.1050   26.2633 C   0  0  0  0  0  0  0  0  0  0  0  0
   10.1908    4.9673   22.7866 C   0  0  0  0  0  0  0  0  0  0  0  0
   11.6736    5.5887   24.5900 C   0  0  0  0  0  0  0  0  0  0  0  0
    9.2042    5.8031   23.3097 C   0  0  0  0  0  0  0  0  0  0  0  0
   10.6870    6.4245   25.1132 C   0  0  0  0  0  0  0  0  0  0  0  0
    7.2858   -4.6015   26.0993 C   0  0  0  0  0  0  0  0  0  0  0  0
    5.3204   -6.0512   24.8820 C   0  0  0  0  0  0  0  0  0  0  0  0
   11.4255    4.8601   23.4268 C   0  0  0  0  0  0  0  0  0  0  0  0
    9.4523    6.5317   24.4730 C   0  0  0  0  0  0  0  0  0  0  0  0
    7.1069   -4.6152   24.7254 C   0  0  0  0  0  0  0  0  0  0  0  0
    7.9584   -3.8569   23.8557 C   0  0  0  0  0  0  0  0  0  0  0  0
    9.5389   -2.5534   23.3878 C   0  0  0  0  0  0  0  0  0  0  0  0
   12.4578    3.9870   22.8804 C   0  0  0  0  0  0  0  0  0  0  0  0
   11.4015   -1.0068   22.7073 C   0  0  0  0  0  0  0  0  0  0  0  0
   11.8653    0.7822   24.3799 C   0  0  0  0  0  0  0  0  0  0  0  0
   13.3344    0.5039   22.3199 C   0  0  0  0  0  0  0  0  0  0  0  0
   11.2233    1.9969   23.7089 C   0  0  0  0  0  0  0  0  0  0  0  0
   12.6341    1.7182   21.7119 C   0  0  0  0  0  0  0  0  0  0  0  0
   12.4924   -0.1953   23.3868 C   0  0  0  0  0  0  0  0  0  0  0  0
    8.3974    7.4261   25.0314 C   0  0  0  0  0  0  0  0  0  0  0  0
    6.1431   -5.3228   24.0945 N   0  0  0  0  0  0  0  0  0  0  0  0
    7.9525   -3.7394   22.5484 N   0  0  0  0  0  0  0  0  0  0  0  0
    8.9923   -2.8819   22.2407 N   0  0  0  0  0  0  0  0  0  0  0  0
   12.1526    2.6185   22.7662 N   0  0  0  0  0  0  0  0  0  0  0  0
   10.6396   -1.7003   23.6390 N   0  0  0  0  0  0  0  0  0  0  0  0
   13.5456    4.4540   22.5381 O   0  0  0  0  0  0  0  0  0  0  0  0
   11.2762   -0.9930   21.4870 O   0  0  0  0  0  0  0  0  0  0  0  0
    8.9381   -3.1330   24.4630 O   0  0  0  0  0  0  0  0  0  0  0  0
    7.2427    7.4326   24.3017 F   0  0  0  0  0  0  0  0  0  0  0  0
    8.0150    7.0946   26.3001 F   0  0  0  0  0  0  0  0  0  0  0  0
    8.7957    8.7299   25.0979 F   0  0  0  0  0  0  0  0  0  0  0  0
  1  2  2  0
  1  7  1  0
  2  8  1  0
  3  5  2  0
  3  9  1  0
  4  6  1  0
  4  9  2  0
  5 10  1  0
  6 10  2  0
  7 11  2  0
  8 22  2  0
  9 14  1  0
 10 21  1  0
 11 12  1  0
 11 22  1  0
 12 23  2  0
 12 29  1  0
 13 24  2  0
 13 26  1  0
 13 29  1  0
 14 25  1  0
 14 27  2  0
 15 20  1  0
 15 26  1  0
 15 28  2  0
 16 18  1  0
 16 20  1  0
 17 19  1  0
 17 20  1  0
 18 25  1  0
 19 25  1  0
 21 30  1  0
 21 31  1  0
 21 32  1  0
 23 24  1  0
M  END
