DRA-CSI-47e38074-3
     RDKit          3D

 17 18  0  0  0  0  0  0  0  0999 V2000
   13.6269   -0.7829   25.3053 C   0  0  0  0  0  0  0  0  0  0  0  0
   12.8953   -0.6005   24.1318 C   0  0  0  0  0  0  0  0  0  0  0  0
   13.5673   -2.0011   25.9821 C   0  0  0  0  0  0  0  0  0  0  0  0
   12.1041   -1.6363   23.6351 C   0  0  0  0  0  0  0  0  0  0  0  0
   12.7761   -3.0369   25.4854 C   0  0  0  0  0  0  0  0  0  0  0  0
   12.0445   -2.8545   24.3119 C   0  0  0  0  0  0  0  0  0  0  0  0
    6.6364   -4.8458   21.6265 C   0  0  0  0  0  0  0  0  0  0  0  0
    8.9210   -2.8415   23.6342 C   0  0  0  0  0  0  0  0  0  0  0  0
    9.0673   -5.2792   24.2582 C   0  0  0  0  0  0  0  0  0  0  0  0
    8.5054   -3.2489   22.2215 C   0  0  0  0  0  0  0  0  0  0  0  0
    8.6514   -5.6454   22.8351 C   0  0  0  0  0  0  0  0  0  0  0  0
    9.7685   -3.9136   24.3379 C   0  0  0  0  0  0  0  0  0  0  0  0
    5.0059   -6.5193   21.1808 C   0  0  0  0  0  0  0  0  0  0  0  0
   11.1914   -3.9718   23.7769 C   0  0  0  0  0  0  0  0  0  0  0  0
    7.8711   -4.5711   22.2224 N   0  0  0  0  0  0  0  0  0  0  0  0
    5.9498   -4.0118   21.0387 O   0  0  0  0  0  0  0  0  0  0  0  0
    6.2621   -6.1562   21.7651 O   0  0  0  0  0  0  0  0  0  0  0  0
  1  2  2  0
  1  3  1  0
  2  4  1  0
  3  5  2  0
  4  6  2  0
  5  6  1  0
  6 14  1  0
  7 15  1  0
  7 16  2  0
  7 17  1  0
  8 10  1  0
  8 12  1  0
  9 11  1  0
  9 12  1  0
 10 15  1  0
 11 15  1  0
 12 14  1  0
 13 17  1  0
M  END
