DRA-CSI-3ab97369-15
     RDKit          3D

 19 21  0  0  0  0  0  0  0  0999 V2000
   14.1051   -1.6402   24.3090 C   0  0  0  0  0  0  0  0  0  0  0  0
   13.7745   -2.9887   24.6290 C   0  0  0  0  0  0  0  0  0  0  0  0
   13.0077   -0.9261   23.8808 C   0  0  0  0  0  0  0  0  0  0  0  0
   12.4368   -3.2538   24.4334 C   0  0  0  0  0  0  0  0  0  0  0  0
   12.9709    0.4315   23.4822 C   0  0  0  0  0  0  0  0  0  0  0  0
   12.4651    2.6807   22.9799 C   0  0  0  0  0  0  0  0  0  0  0  0
   10.4956    4.2266   23.2162 C   0  0  0  0  0  0  0  0  0  0  0  0
    9.1647    7.2192   24.4984 C   0  0  0  0  0  0  0  0  0  0  0  0
    8.0947    6.2661   23.9974 C   0  0  0  0  0  0  0  0  0  0  0  0
   10.4767    6.5378   24.1232 C   0  0  0  0  0  0  0  0  0  0  0  0
    8.6587    5.7853   22.6678 C   0  0  0  0  0  0  0  0  0  0  0  0
   10.1619    5.6735   22.9028 C   0  0  0  0  0  0  0  0  0  0  0  0
   13.9924    1.0492   22.9280 N   0  0  0  0  0  0  0  0  0  0  0  0
   13.6960    2.3687   22.6344 N   0  0  0  0  0  0  0  0  0  0  0  0
   11.7983    3.9214   22.8429 N   0  0  0  0  0  0  0  0  0  0  0  0
    9.6649    3.4888   23.7363 O   0  0  0  0  0  0  0  0  0  0  0  0
   11.5860   -1.8804   23.8658 S   0  0  0  0  0  0  0  0  0  0  0  0
   11.5707    1.4004   23.6885 S   0  0  0  0  0  0  0  0  0  0  0  0
   11.6167   -4.9374   24.7501 Br  0  0  0  0  0  0  0  0  0  0  0  0
  1  2  1  0
  1  3  2  0
  2  4  2  0
  3  5  1  0
  3 17  1  0
  4 17  1  0
  4 19  1  0
  5 13  2  0
  5 18  1  0
  6 14  2  0
  6 15  1  0
  6 18  1  0
  7 12  1  0
  7 15  1  0
  7 16  2  0
  8  9  1  0
  8 10  1  0
  9 11  1  0
 10 12  1  0
 11 12  1  0
 13 14  1  0
M  END
