DRA-CSI-0a78d9ba-6
     RDKit          3D

 35 39  0  0  0  0  0  0  0  0999 V2000
    9.9951    3.7794   24.6709 C   0  0  0  0  0  0  0  0  0  0  0  0
    2.0006   -6.1109   23.0324 C   0  0  0  0  0  0  0  0  0  0  0  0
    2.6118   -8.1927   24.0953 C   0  0  0  0  0  0  0  0  0  0  0  0
    2.6662   -5.4041   24.0340 C   0  0  0  0  0  0  0  0  0  0  0  0
    3.2774   -7.4859   25.0969 C   0  0  0  0  0  0  0  0  0  0  0  0
   12.4455   -1.4659   23.6706 C   0  0  0  0  0  0  0  0  0  0  0  0
   11.7811   -2.6177   24.1162 C   0  0  0  0  0  0  0  0  0  0  0  0
    9.8128    5.1623   24.6794 C   0  0  0  0  0  0  0  0  0  0  0  0
    9.9446   -1.3025   25.0436 C   0  0  0  0  0  0  0  0  0  0  0  0
   11.9044    5.4453   23.5037 C   0  0  0  0  0  0  0  0  0  0  0  0
   11.1321    3.2295   24.0789 C   0  0  0  0  0  0  0  0  0  0  0  0
    1.9734   -7.5052   23.0631 C   0  0  0  0  0  0  0  0  0  0  0  0
    3.3045   -6.0916   25.0662 C   0  0  0  0  0  0  0  0  0  0  0  0
   11.8464   -0.2225   23.9178 C   0  0  0  0  0  0  0  0  0  0  0  0
   10.5557   -2.5350   24.7889 C   0  0  0  0  0  0  0  0  0  0  0  0
   10.6321   -0.1848   24.5871 C   0  0  0  0  0  0  0  0  0  0  0  0
   10.7674    5.9952   24.0958 C   0  0  0  0  0  0  0  0  0  0  0  0
   12.0867    4.0624   23.4953 C   0  0  0  0  0  0  0  0  0  0  0  0
   11.2757    1.8001   24.0964 C   0  0  0  0  0  0  0  0  0  0  0  0
    8.7120   -3.8382   25.8965 C   0  0  0  0  0  0  0  0  0  0  0  0
    7.6023   -5.4129   27.4847 C   0  0  0  0  0  0  0  0  0  0  0  0
    7.6280   -5.9015   25.0020 C   0  0  0  0  0  0  0  0  0  0  0  0
    6.1589   -4.9397   27.3632 C   0  0  0  0  0  0  0  0  0  0  0  0
    6.1842   -5.4232   24.9066 C   0  0  0  0  0  0  0  0  0  0  0  0
    8.3830   -5.2776   26.1766 C   0  0  0  0  0  0  0  0  0  0  0  0
    1.2621   -8.2616   21.9927 C   0  0  0  0  0  0  0  0  0  0  0  0
    9.4028    7.8385   24.7250 C   0  0  0  0  0  0  0  0  0  0  0  0
    4.0217   -5.3306   26.1422 C   0  0  0  0  0  0  0  0  0  0  0  0
   12.2449    1.0559   23.6104 N   0  0  0  0  0  0  0  0  0  0  0  0
    9.9204   -3.7233   25.2210 N   0  0  0  0  0  0  0  0  0  0  0  0
    5.4864   -5.6628   26.2226 N   0  0  0  0  0  0  0  0  0  0  0  0
    7.9544   -2.9404   26.2501 O   0  0  0  0  0  0  0  0  0  0  0  0
   10.2608    1.1241   24.7039 O   0  0  0  0  0  0  0  0  0  0  0  0
   10.5883    7.3444   24.1036 O   0  0  0  0  0  0  0  0  0  0  0  0
   13.6606    3.3821   22.6743 Br  0  0  0  0  0  0  0  0  0  0  0  0
  1  8  2  0
  1 11  1  0
  2  4  2  0
  2 12  1  0
  3  5  1  0
  3 12  2  0
  4 13  1  0
  5 13  2  0
  6  7  2  0
  6 14  1  0
  7 15  1  0
  8 17  1  0
  9 15  2  0
  9 16  1  0
 10 17  2  0
 10 18  1  0
 11 18  2  0
 11 19  1  0
 12 26  1  0
 13 28  1  0
 14 16  2  0
 14 29  1  0
 15 30  1  0
 16 33  1  0
 17 34  1  0
 18 35  1  0
 19 29  2  0
 19 33  1  0
 20 25  1  0
 20 30  1  0
 20 32  2  0
 21 23  1  0
 21 25  1  0
 22 24  1  0
 22 25  1  0
 23 31  1  0
 24 31  1  0
 27 34  1  0
 28 31  1  0
M  CHG  1  31   1
M  END
