DRA-CSI-7ec17797-19
     RDKit          3D

 36 40  0  0  0  0  0  0  0  0999 V2000
    8.0711   -3.2209   25.7224 C   0  0  0  0  0  0  0  0  0  0  0  0
    8.1381   -4.7008   23.8138 C   0  0  0  0  0  0  0  0  0  0  0  0
    7.7080    6.8543   23.5050 C   0  0  0  0  0  0  0  0  0  0  0  0
    8.2815    5.5598   25.4626 C   0  0  0  0  0  0  0  0  0  0  0  0
   12.4986   -1.7934   22.1013 C   0  0  0  0  0  0  0  0  0  0  0  0
   13.0971   -0.5289   22.1989 C   0  0  0  0  0  0  0  0  0  0  0  0
    7.0165   -3.9599   26.2584 C   0  0  0  0  0  0  0  0  0  0  0  0
    7.0835   -5.4398   24.3499 C   0  0  0  0  0  0  0  0  0  0  0  0
    8.9590    7.4699   23.5456 C   0  0  0  0  0  0  0  0  0  0  0  0
    9.5325    6.1753   25.5032 C   0  0  0  0  0  0  0  0  0  0  0  0
   11.4927    0.1936   23.8920 C   0  0  0  0  0  0  0  0  0  0  0  0
    8.6319   -3.5913   24.5001 C   0  0  0  0  0  0  0  0  0  0  0  0
    7.3692    5.8992   24.4636 C   0  0  0  0  0  0  0  0  0  0  0  0
   11.3854   -2.0598   22.9113 C   0  0  0  0  0  0  0  0  0  0  0  0
   12.6022    0.4431   23.0771 C   0  0  0  0  0  0  0  0  0  0  0  0
   10.9272   -1.0694   23.7676 C   0  0  0  0  0  0  0  0  0  0  0  0
    6.5227   -5.0693   25.5722 C   0  0  0  0  0  0  0  0  0  0  0  0
    9.8713    7.1304   24.5447 C   0  0  0  0  0  0  0  0  0  0  0  0
    9.7181   -2.8301   23.9480 C   0  0  0  0  0  0  0  0  0  0  0  0
   12.6558    2.9297   23.4487 C   0  0  0  0  0  0  0  0  0  0  0  0
   13.3184    5.1019   22.3722 C   0  0  0  0  0  0  0  0  0  0  0  0
   13.7993    4.6375   24.8167 C   0  0  0  0  0  0  0  0  0  0  0  0
   12.1621    6.0024   22.8026 C   0  0  0  0  0  0  0  0  0  0  0  0
   12.6176    5.5316   25.1838 C   0  0  0  0  0  0  0  0  0  0  0  0
   13.6839    4.0490   23.4130 C   0  0  0  0  0  0  0  0  0  0  0  0
    6.0315    5.2414   24.4209 C   0  0  0  0  0  0  0  0  0  0  0  0
    4.9674   -5.3562   27.3483 C   0  0  0  0  0  0  0  0  0  0  0  0
   10.6010   -3.1805   23.0387 N   0  0  0  0  0  0  0  0  0  0  0  0
   12.4496    6.5864   24.1437 N   0  0  0  0  0  0  0  0  0  0  0  0
   13.2374    1.7059   23.1429 N   0  0  0  0  0  0  0  0  0  0  0  0
   11.4833    3.1624   23.7247 O   0  0  0  0  0  0  0  0  0  0  0  0
   11.4931    8.9047   23.5472 O   0  0  0  0  0  0  0  0  0  0  0  0
   11.7372    8.2579   25.9700 O   0  0  0  0  0  0  0  0  0  0  0  0
    9.8475   -1.5662   24.4398 O   0  0  0  0  0  0  0  0  0  0  0  0
    5.4936   -5.7904   26.0952 O   0  0  0  0  0  0  0  0  0  0  0  0
   11.4552    7.9077   24.5949 S   0  0  0  0  0  0  0  0  0  0  0  0
  1  7  2  0
  1 12  1  0
  2  8  1  0
  2 12  2  0
  3  9  2  0
  3 13  1  0
  4 10  1  0
  4 13  2  0
  5  6  2  0
  5 14  1  0
  6 15  1  0
  7 17  1  0
  8 17  2  0
  9 18  1  0
 10 18  2  0
 11 15  2  0
 11 16  1  0
 12 19  1  0
 13 26  1  0
 14 16  2  0
 14 28  1  0
 15 30  1  0
 16 34  1  0
 17 35  1  0
 18 36  1  0
 19 28  2  0
 19 34  1  0
 20 25  1  0
 20 30  1  0
 20 31  2  0
 21 23  1  0
 21 25  1  0
 22 24  1  0
 22 25  1  0
 23 29  1  0
 24 29  1  0
 27 35  1  0
 29 36  1  0
 32 36  2  0
 33 36  2  0
M  END
