DRA-CSI-3ab97369-4
     RDKit          3D

 37 41  0  0  0  0  0  0  0  0999 V2000
    2.6075   -6.0806   29.0818 C   0  0  0  0  0  0  0  0  0  0  0  0
    3.9562   -5.7270   29.0435 C   0  0  0  0  0  0  0  0  0  0  0  0
    1.8546   -6.0875   27.9076 C   0  0  0  0  0  0  0  0  0  0  0  0
    9.4095    3.7535   25.4757 C   0  0  0  0  0  0  0  0  0  0  0  0
    4.5521   -5.3803   27.8310 C   0  0  0  0  0  0  0  0  0  0  0  0
    2.4505   -5.7408   26.6950 C   0  0  0  0  0  0  0  0  0  0  0  0
   12.0164   -1.0692   23.6640 C   0  0  0  0  0  0  0  0  0  0  0  0
   11.3319   -2.1947   23.1829 C   0  0  0  0  0  0  0  0  0  0  0  0
    9.1600    5.0806   25.8251 C   0  0  0  0  0  0  0  0  0  0  0  0
    9.2392   -0.9498   23.0012 C   0  0  0  0  0  0  0  0  0  0  0  0
   10.7965    5.8145   24.2063 C   0  0  0  0  0  0  0  0  0  0  0  0
   10.3526    3.4568   24.4917 C   0  0  0  0  0  0  0  0  0  0  0  0
    3.7993   -5.3871   26.6567 C   0  0  0  0  0  0  0  0  0  0  0  0
   11.2975    0.1255   23.8123 C   0  0  0  0  0  0  0  0  0  0  0  0
    9.9710   -2.1337   22.8589 C   0  0  0  0  0  0  0  0  0  0  0  0
    9.9510    0.1432   23.4799 C   0  0  0  0  0  0  0  0  0  0  0  0
    9.8535    6.1111   25.1904 C   0  0  0  0  0  0  0  0  0  0  0  0
   11.0461    4.4873   23.8570 C   0  0  0  0  0  0  0  0  0  0  0  0
   10.5753    2.0750   24.1675 C   0  0  0  0  0  0  0  0  0  0  0  0
    7.9878   -3.4238   22.0064 C   0  0  0  0  0  0  0  0  0  0  0  0
    7.9714   -5.8554   22.6412 C   0  0  0  0  0  0  0  0  0  0  0  0
    6.2317   -4.8871   21.0734 C   0  0  0  0  0  0  0  0  0  0  0  0
    6.9239   -5.8569   23.7529 C   0  0  0  0  0  0  0  0  0  0  0  0
    5.2356   -4.8925   22.2303 C   0  0  0  0  0  0  0  0  0  0  0  0
    7.6838   -4.8390   21.5415 C   0  0  0  0  0  0  0  0  0  0  0  0
   10.3528    8.4102   24.8430 C   0  0  0  0  0  0  0  0  0  0  0  0
    4.4383   -5.0147   25.3545 C   0  0  0  0  0  0  0  0  0  0  0  0
   11.6819    1.3695   24.2506 N   0  0  0  0  0  0  0  0  0  0  0  0
    5.5629   -6.0079   23.1637 N   0  0  0  0  0  0  0  0  0  0  0  0
    9.3203   -3.2941   22.3768 N   0  0  0  0  0  0  0  0  0  0  0  0
    7.1119   -2.5650   22.0187 O   0  0  0  0  0  0  0  0  0  0  0  0
    4.7393   -7.5883   25.0185 O   0  0  0  0  0  0  0  0  0  0  0  0
    3.0515   -6.3594   23.5949 O   0  0  0  0  0  0  0  0  0  0  0  0
    9.4813    1.4047   23.7092 O   0  0  0  0  0  0  0  0  0  0  0  0
    9.6087    7.4059   25.5311 O   0  0  0  0  0  0  0  0  0  0  0  0
    4.3253   -6.4187   24.2762 S   0  0  0  0  0  0  0  0  0  0  0  0
   12.3465    4.1559   22.5105 Br  0  0  0  0  0  0  0  0  0  0  0  0
  1  2  2  0
  1  3  1  0
  2  5  1  0
  3  6  2  0
  4  9  2  0
  4 12  1  0
  5 13  2  0
  6 13  1  0
  7  8  2  0
  7 14  1  0
  8 15  1  0
  9 17  1  0
 10 15  2  0
 10 16  1  0
 11 17  2  0
 11 18  1  0
 12 18  2  0
 12 19  1  0
 13 27  1  0
 14 16  2  0
 14 28  1  0
 15 30  1  0
 16 34  1  0
 17 35  1  0
 18 37  1  0
 19 28  2  0
 19 34  1  0
 20 25  1  0
 20 30  1  0
 20 31  2  0
 21 23  1  0
 21 25  1  0
 22 24  1  0
 22 25  1  0
 23 29  1  0
 24 29  1  0
 26 35  1  0
 27 36  1  0
 29 36  1  0
 32 36  2  0
 33 36  2  0
M  END
