DRA-CSI-7ec17797-7
     RDKit          3D

 29 32  0  0  0  0  0  0  0  0999 V2000
   10.9789    6.8180   23.2398 C   0  0  0  0  0  0  0  0  0  0  0  0
    9.6299    6.4881   23.1724 C   0  0  0  0  0  0  0  0  0  0  0  0
    7.5519   -6.2191   23.0308 C   0  0  0  0  0  0  0  0  0  0  0  0
    6.7262   -4.6697   24.6906 C   0  0  0  0  0  0  0  0  0  0  0  0
    6.2634   -6.3514   22.5133 C   0  0  0  0  0  0  0  0  0  0  0  0
    5.4377   -4.8019   24.1730 C   0  0  0  0  0  0  0  0  0  0  0  0
   11.9360    5.8094   23.2492 C   0  0  0  0  0  0  0  0  0  0  0  0
    9.2926    5.1453   23.1167 C   0  0  0  0  0  0  0  0  0  0  0  0
    7.7833   -5.3783   24.1195 C   0  0  0  0  0  0  0  0  0  0  0  0
    5.2063   -5.6428   23.0843 C   0  0  0  0  0  0  0  0  0  0  0  0
   11.4955    4.4971   23.1902 C   0  0  0  0  0  0  0  0  0  0  0  0
   12.4192    3.4002   23.1962 C   0  0  0  0  0  0  0  0  0  0  0  0
   12.9837    1.3763   23.1608 C   0  0  0  0  0  0  0  0  0  0  0  0
    9.1332   -5.2399   24.6614 C   0  0  0  0  0  0  0  0  0  0  0  0
   11.5950   -0.7168   23.0397 C   0  0  0  0  0  0  0  0  0  0  0  0
   10.7034   -2.8556   22.1850 C   0  0  0  0  0  0  0  0  0  0  0  0
   11.8802   -2.7055   24.4469 C   0  0  0  0  0  0  0  0  0  0  0  0
    9.5310   -3.2977   23.0597 C   0  0  0  0  0  0  0  0  0  0  0  0
   11.3399   -4.1247   24.5766 C   0  0  0  0  0  0  0  0  0  0  0  0
   11.8276   -2.2173   23.0002 C   0  0  0  0  0  0  0  0  0  0  0  0
   10.1939    4.1377   23.1239 N   0  0  0  0  0  0  0  0  0  0  0  0
   13.7306    3.3917   23.2519 N   0  0  0  0  0  0  0  0  0  0  0  0
   14.1019    2.0603   23.2285 N   0  0  0  0  0  0  0  0  0  0  0  0
    9.9507   -4.2262   24.1218 N   0  0  0  0  0  0  0  0  0  0  0  0
   12.7978   -0.0256   23.1112 N   0  0  0  0  0  0  0  0  0  0  0  0
    9.5292   -5.9951   25.5518 O   0  0  0  0  0  0  0  0  0  0  0  0
   10.4585   -0.2562   23.0052 O   0  0  0  0  0  0  0  0  0  0  0  0
   11.8688    2.1568   23.1360 O   0  0  0  0  0  0  0  0  0  0  0  0
    3.9690   -5.7696   22.5873 F   0  0  0  0  0  0  0  0  0  0  0  0
  1  2  2  0
  1  7  1  0
  2  8  1  0
  3  5  2  0
  3  9  1  0
  4  6  1  0
  4  9  2  0
  5 10  1  0
  6 10  2  0
  7 11  2  0
  8 21  2  0
  9 14  1  0
 10 29  1  0
 11 12  1  0
 11 21  1  0
 12 22  2  0
 12 28  1  0
 13 23  2  0
 13 25  1  0
 13 28  1  0
 14 24  1  0
 14 26  2  0
 15 20  1  0
 15 25  1  0
 15 27  2  0
 16 18  1  0
 16 20  1  0
 17 19  1  0
 17 20  1  0
 18 24  1  0
 19 24  1  0
 22 23  1  0
M  END
