DRA-CSI-3ab97369-10
     RDKit          3D

 31 35  0  0  0  0  0  0  0  0999 V2000
    7.3378    7.0375   24.0051 C   0  0  0  0  0  0  0  0  0  0  0  0
    7.8019    7.2460   25.3038 C   0  0  0  0  0  0  0  0  0  0  0  0
    8.2395    6.7529   22.9795 C   0  0  0  0  0  0  0  0  0  0  0  0
   11.3577   -0.2978   22.5358 C   0  0  0  0  0  0  0  0  0  0  0  0
    7.5385   -4.1885   26.4336 C   0  0  0  0  0  0  0  0  0  0  0  0
    7.6181   -5.5052   24.4096 C   0  0  0  0  0  0  0  0  0  0  0  0
   12.4514    2.3172   23.2355 C   0  0  0  0  0  0  0  0  0  0  0  0
    9.1677    7.1701   25.5770 C   0  0  0  0  0  0  0  0  0  0  0  0
    9.6052    6.6770   23.2526 C   0  0  0  0  0  0  0  0  0  0  0  0
   11.0151   -1.6515   22.4052 C   0  0  0  0  0  0  0  0  0  0  0  0
    6.7419   -5.1622   27.0359 C   0  0  0  0  0  0  0  0  0  0  0  0
    6.8215   -6.4791   25.0118 C   0  0  0  0  0  0  0  0  0  0  0  0
   12.7909    3.6613   23.3427 C   0  0  0  0  0  0  0  0  0  0  0  0
    9.9069   -0.0307   24.4816 C   0  0  0  0  0  0  0  0  0  0  0  0
   10.3234    2.8343   24.1632 C   0  0  0  0  0  0  0  0  0  0  0  0
    7.9766   -4.3599   25.1204 C   0  0  0  0  0  0  0  0  0  0  0  0
   10.8133    0.4943   23.5541 C   0  0  0  0  0  0  0  0  0  0  0  0
   11.1960    1.8877   23.6514 C   0  0  0  0  0  0  0  0  0  0  0  0
   10.0693    6.8857   24.5514 C   0  0  0  0  0  0  0  0  0  0  0  0
   10.1079   -2.1933   23.3269 C   0  0  0  0  0  0  0  0  0  0  0  0
    9.5921   -1.3743   24.3204 C   0  0  0  0  0  0  0  0  0  0  0  0
    6.3834   -6.3076   26.3250 C   0  0  0  0  0  0  0  0  0  0  0  0
   11.8467    4.5286   23.8682 C   0  0  0  0  0  0  0  0  0  0  0  0
    8.7971   -3.3568   24.5001 C   0  0  0  0  0  0  0  0  0  0  0  0
    5.1934   -7.0186   28.2573 C   0  0  0  0  0  0  0  0  0  0  0  0
   11.5395    6.8041   24.8446 C   0  0  0  0  0  0  0  0  0  0  0  0
   10.6174    4.1484   24.2828 N   0  0  0  0  0  0  0  0  0  0  0  0
    9.5894   -3.4591   23.4556 N   0  0  0  0  0  0  0  0  0  0  0  0
   12.2083    5.8948   23.9722 N   0  0  0  0  0  0  0  0  0  0  0  0
    8.7429   -2.1257   25.0812 O   0  0  0  0  0  0  0  0  0  0  0  0
    5.6061   -7.2578   26.9126 O   0  0  0  0  0  0  0  0  0  0  0  0
  1  2  2  0
  1  3  1  0
  2  8  1  0
  3  9  2  0
  4 10  2  0
  4 17  1  0
  5 11  2  0
  5 16  1  0
  6 12  1  0
  6 16  2  0
  7 13  2  0
  7 18  1  0
  8 19  2  0
  9 19  1  0
 10 20  1  0
 11 22  1  0
 12 22  2  0
 13 23  1  0
 14 17  2  0
 14 21  1  0
 15 18  2  0
 15 27  1  0
 16 24  1  0
 17 18  1  0
 19 26  1  0
 20 21  2  0
 20 28  1  0
 21 30  1  0
 22 31  1  0
 23 27  2  0
 23 29  1  0
 24 28  2  0
 24 30  1  0
 25 31  1  0
 26 29  1  0
M  END
