DRA-CSI-3ab97369-6
     RDKit          3D

 37 41  0  0  0  0  0  0  0  0999 V2000
    9.4354   -3.8432   26.3693 C   0  0  0  0  0  0  0  0  0  0  0  0
    7.8601    4.7775   27.3827 C   0  0  0  0  0  0  0  0  0  0  0  0
    6.7543    4.8067   25.2348 C   0  0  0  0  0  0  0  0  0  0  0  0
   11.9194   -1.1347   21.9161 C   0  0  0  0  0  0  0  0  0  0  0  0
   12.2853    0.2191   21.9297 C   0  0  0  0  0  0  0  0  0  0  0  0
    8.7092   -4.7547   27.1357 C   0  0  0  0  0  0  0  0  0  0  0  0
    8.7112    5.7979   26.9585 C   0  0  0  0  0  0  0  0  0  0  0  0
    7.6054    5.8272   24.8105 C   0  0  0  0  0  0  0  0  0  0  0  0
   11.0007    0.6334   23.9645 C   0  0  0  0  0  0  0  0  0  0  0  0
    7.2825   -5.2117   25.2402 C   0  0  0  0  0  0  0  0  0  0  0  0
    9.0851   -3.6159   25.0383 C   0  0  0  0  0  0  0  0  0  0  0  0
    6.8817    4.2818   26.5208 C   0  0  0  0  0  0  0  0  0  0  0  0
   11.0849   -1.6020   22.9415 C   0  0  0  0  0  0  0  0  0  0  0  0
   11.8337    1.0835   22.9345 C   0  0  0  0  0  0  0  0  0  0  0  0
   10.6602   -0.7127   23.9176 C   0  0  0  0  0  0  0  0  0  0  0  0
    7.6327   -5.4389   26.5712 C   0  0  0  0  0  0  0  0  0  0  0  0
    8.5838    6.3228   25.6724 C   0  0  0  0  0  0  0  0  0  0  0  0
    8.0087   -4.3002   24.4738 C   0  0  0  0  0  0  0  0  0  0  0  0
    9.8624   -2.6671   24.2903 C   0  0  0  0  0  0  0  0  0  0  0  0
   12.4043    3.2919   23.9937 C   0  0  0  0  0  0  0  0  0  0  0  0
   11.7954    5.3016   22.6130 C   0  0  0  0  0  0  0  0  0  0  0  0
   13.0887    5.5298   24.7804 C   0  0  0  0  0  0  0  0  0  0  0  0
   10.5450    5.7865   23.3440 C   0  0  0  0  0  0  0  0  0  0  0  0
   11.8009    5.9872   25.4609 C   0  0  0  0  0  0  0  0  0  0  0  0
   12.8334    4.6779   23.5398 C   0  0  0  0  0  0  0  0  0  0  0  0
    5.9720    3.1903   26.9738 C   0  0  0  0  0  0  0  0  0  0  0  0
    5.8367   -6.9940   26.6802 C   0  0  0  0  0  0  0  0  0  0  0  0
   10.5658   -2.8486   23.1942 N   0  0  0  0  0  0  0  0  0  0  0  0
   10.9342    6.6845   24.4684 N   0  0  0  0  0  0  0  0  0  0  0  0
   12.2278    2.4424   22.9089 N   0  0  0  0  0  0  0  0  0  0  0  0
   12.2587    3.0382   25.1850 O   0  0  0  0  0  0  0  0  0  0  0  0
    8.9928    8.3335   24.0715 O   0  0  0  0  0  0  0  0  0  0  0  0
   10.1482    8.3053   26.3102 O   0  0  0  0  0  0  0  0  0  0  0  0
    9.8683   -1.4004   24.7920 O   0  0  0  0  0  0  0  0  0  0  0  0
    6.9252   -6.3289   27.3194 O   0  0  0  0  0  0  0  0  0  0  0  0
    9.6592    7.6156   25.1362 S   0  0  0  0  0  0  0  0  0  0  0  0
    7.4739   -4.0375   22.6686 Br  0  0  0  0  0  0  0  0  0  0  0  0
  1  6  2  0
  1 11  1  0
  2  7  2  0
  2 12  1  0
  3  8  1  0
  3 12  2  0
  4  5  2  0
  4 13  1  0
  5 14  1  0
  6 16  1  0
  7 17  1  0
  8 17  2  0
  9 14  2  0
  9 15  1  0
 10 16  2  0
 10 18  1  0
 11 18  2  0
 11 19  1  0
 12 26  1  0
 13 15  2  0
 13 28  1  0
 14 30  1  0
 15 34  1  0
 16 35  1  0
 17 36  1  0
 18 37  1  0
 19 28  2  0
 19 34  1  0
 20 25  1  0
 20 30  1  0
 20 31  2  0
 21 23  1  0
 21 25  1  0
 22 24  1  0
 22 25  1  0
 23 29  1  0
 24 29  1  0
 27 35  1  0
 29 36  1  0
 32 36  2  0
 33 36  2  0
M  END
