DRA-CSI-3ab97369-5
     RDKit          3D

 39 43  0  0  0  0  0  0  0  0999 V2000
   10.5713   -4.0036   24.9839 C   0  0  0  0  0  0  0  0  0  0  0  0
   13.1182    0.2328   22.4265 C   0  0  0  0  0  0  0  0  0  0  0  0
   13.0433    1.6324   22.4766 C   0  0  0  0  0  0  0  0  0  0  0  0
    5.5088    4.4510   24.7912 C   0  0  0  0  0  0  0  0  0  0  0  0
    5.5866    4.2586   22.3841 C   0  0  0  0  0  0  0  0  0  0  0  0
    9.8910   -5.1505   25.3930 C   0  0  0  0  0  0  0  0  0  0  0  0
    6.1373    5.6937   24.7122 C   0  0  0  0  0  0  0  0  0  0  0  0
    6.2150    5.5014   22.3051 C   0  0  0  0  0  0  0  0  0  0  0  0
   10.8948    1.5606   23.6347 C   0  0  0  0  0  0  0  0  0  0  0  0
    7.9920   -4.5045   24.0463 C   0  0  0  0  0  0  0  0  0  0  0  0
    9.9619   -3.1070   24.1061 C   0  0  0  0  0  0  0  0  0  0  0  0
   12.0661   -0.5038   22.9890 C   0  0  0  0  0  0  0  0  0  0  0  0
    5.2335    3.7334   23.6271 C   0  0  0  0  0  0  0  0  0  0  0  0
   11.9527    2.2806   23.0691 C   0  0  0  0  0  0  0  0  0  0  0  0
   11.0045    0.1773   23.5662 C   0  0  0  0  0  0  0  0  0  0  0  0
    8.6014   -5.4010   24.9241 C   0  0  0  0  0  0  0  0  0  0  0  0
    6.4903    6.2189   23.4691 C   0  0  0  0  0  0  0  0  0  0  0  0
    8.6723   -3.3575   23.6373 C   0  0  0  0  0  0  0  0  0  0  0  0
   10.7022   -1.9396   23.7148 C   0  0  0  0  0  0  0  0  0  0  0  0
   11.3205    4.5073   24.0523 C   0  0  0  0  0  0  0  0  0  0  0  0
   10.9034    6.3170   22.3591 C   0  0  0  0  0  0  0  0  0  0  0  0
   10.9036    6.8079   24.8454 C   0  0  0  0  0  0  0  0  0  0  0  0
    9.3776    6.3839   22.3774 C   0  0  0  0  0  0  0  0  0  0  0  0
    9.3779    6.8402   24.8045 C   0  0  0  0  0  0  0  0  0  0  0  0
   11.5096    5.9779   23.7167 C   0  0  0  0  0  0  0  0  0  0  0  0
    8.6216   -7.3946   26.2206 C   0  0  0  0  0  0  0  0  0  0  0  0
   11.8576   -1.8578   23.0923 N   0  0  0  0  0  0  0  0  0  0  0  0
    8.9257    7.3023   23.4612 N   0  0  0  0  0  0  0  0  0  0  0  0
   11.9184    3.6950   23.0972 N   0  0  0  0  0  0  0  0  0  0  0  0
    4.5950    2.4678   23.7079 N   0  0  0  0  0  0  0  0  0  0  0  0
   10.7082    4.1665   25.0593 O   0  0  0  0  0  0  0  0  0  0  0  0
    4.2868    2.0130   24.8361 O   0  0  0  0  0  0  0  0  0  0  0  0
    4.3559    1.8385   22.6489 O   0  0  0  0  0  0  0  0  0  0  0  0
    7.0294    8.3349   22.0529 O   0  0  0  0  0  0  0  0  0  0  0  0
    6.9515    8.5374   24.5630 O   0  0  0  0  0  0  0  0  0  0  0  0
   10.1201   -0.7506   24.0368 O   0  0  0  0  0  0  0  0  0  0  0  0
    7.9387   -6.5209   25.3229 O   0  0  0  0  0  0  0  0  0  0  0  0
    7.2854    7.7916   23.3691 S   0  0  0  0  0  0  0  0  0  0  0  0
    7.7803   -2.1780   22.4427 Br  0  0  0  0  0  0  0  0  0  0  0  0
  1  6  2  0
  1 11  1  0
  2  3  2  0
  2 12  1  0
  3 14  1  0
  4  7  2  0
  4 13  1  0
  5  8  1  0
  5 13  2  0
  6 16  1  0
  7 17  1  0
  8 17  2  0
  9 14  2  0
  9 15  1  0
 10 16  2  0
 10 18  1  0
 11 18  2  0
 11 19  1  0
 12 15  2  0
 12 27  1  0
 13 30  1  0
 14 29  1  0
 15 36  1  0
 16 37  1  0
 17 38  1  0
 18 39  1  0
 19 27  2  0
 19 36  1  0
 20 25  1  0
 20 29  1  0
 20 31  2  0
 21 23  1  0
 21 25  1  0
 22 24  1  0
 22 25  1  0
 23 28  1  0
 24 28  1  0
 26 37  1  0
 28 38  1  0
 30 32  1  0
 30 33  2  0
 34 38  2  0
 35 38  2  0
M  CHG  2  30   1  32  -1
M  END
