DRA-CSI-0a78d9ba-9
     RDKit          3D

 36 40  0  0  0  0  0  0  0  0999 V2000
    4.9090   -6.1358   23.4503 C   0  0  0  0  0  0  0  0  0  0  0  0
    9.8216    5.0451   24.5986 C   0  0  0  0  0  0  0  0  0  0  0  0
   12.0863    5.2927   23.7944 C   0  0  0  0  0  0  0  0  0  0  0  0
   10.0735    5.9854   25.5976 C   0  0  0  0  0  0  0  0  0  0  0  0
   12.3383    6.2330   24.7934 C   0  0  0  0  0  0  0  0  0  0  0  0
    9.4401   -4.2870   26.6523 C   0  0  0  0  0  0  0  0  0  0  0  0
   10.3600   -3.3775   26.1105 C   0  0  0  0  0  0  0  0  0  0  0  0
    3.7019   -6.7426   23.1035 C   0  0  0  0  0  0  0  0  0  0  0  0
    9.0036   -3.0710   24.1033 C   0  0  0  0  0  0  0  0  0  0  0  0
    3.1081   -6.8967   25.4404 C   0  0  0  0  0  0  0  0  0  0  0  0
    5.2158   -5.9095   24.7921 C   0  0  0  0  0  0  0  0  0  0  0  0
   10.8280    4.6987   23.6970 C   0  0  0  0  0  0  0  0  0  0  0  0
   11.3318    6.5794   25.6950 C   0  0  0  0  0  0  0  0  0  0  0  0
    8.2918   -4.5864   25.9054 C   0  0  0  0  0  0  0  0  0  0  0  0
   10.1438   -2.7830   24.8612 C   0  0  0  0  0  0  0  0  0  0  0  0
    8.1159   -3.9755   24.6726 C   0  0  0  0  0  0  0  0  0  0  0  0
    2.8014   -7.1230   24.0985 C   0  0  0  0  0  0  0  0  0  0  0  0
    4.3153   -6.2900   25.7871 C   0  0  0  0  0  0  0  0  0  0  0  0
    6.4716   -5.2828   25.0992 C   0  0  0  0  0  0  0  0  0  0  0  0
   11.0554   -1.1878   23.1442 C   0  0  0  0  0  0  0  0  0  0  0  0
   12.2352    0.3991   21.6199 C   0  0  0  0  0  0  0  0  0  0  0  0
   12.3827    0.6828   24.1301 C   0  0  0  0  0  0  0  0  0  0  0  0
   11.2114    1.5266   21.5660 C   0  0  0  0  0  0  0  0  0  0  0  0
   11.3575    1.8074   24.0498 C   0  0  0  0  0  0  0  0  0  0  0  0
   12.2644   -0.3113   22.9739 C   0  0  0  0  0  0  0  0  0  0  0  0
    1.3739   -7.9142   22.3688 C   0  0  0  0  0  0  0  0  0  0  0  0
   10.5579    3.6874   22.6222 C   0  0  0  0  0  0  0  0  0  0  0  0
   11.5999    7.5859   26.7624 C   0  0  0  0  0  0  0  0  0  0  0  0
    7.2308   -5.4200   26.1640 N   0  0  0  0  0  0  0  0  0  0  0  0
   11.0988   -1.8709   24.3529 N   0  0  0  0  0  0  0  0  0  0  0  0
   11.4571    2.4846   22.7053 N   0  0  0  0  0  0  0  0  0  0  0  0
   10.1860   -1.2335   22.2799 O   0  0  0  0  0  0  0  0  0  0  0  0
    6.9378   -4.4251   24.1488 O   0  0  0  0  0  0  0  0  0  0  0  0
    1.6233   -7.7141   23.7593 O   0  0  0  0  0  0  0  0  0  0  0  0
   10.8345    7.3317   27.8611 F   0  0  0  0  0  0  0  0  0  0  0  0
    4.6694   -6.0154   27.6346 Br  0  0  0  0  0  0  0  0  0  0  0  0
  1  8  2  0
  1 11  1  0
  2  4  2  0
  2 12  1  0
  3  5  1  0
  3 12  2  0
  4 13  1  0
  5 13  2  0
  6  7  2  0
  6 14  1  0
  7 15  1  0
  8 17  1  0
  9 15  2  0
  9 16  1  0
 10 17  2  0
 10 18  1  0
 11 18  2  0
 11 19  1  0
 12 27  1  0
 13 28  1  0
 14 16  2  0
 14 29  1  0
 15 30  1  0
 16 33  1  0
 17 34  1  0
 18 36  1  0
 19 29  2  0
 19 33  1  0
 20 25  1  0
 20 30  1  0
 20 32  2  0
 21 23  1  0
 21 25  1  0
 22 24  1  0
 22 25  1  0
 23 31  1  0
 24 31  1  0
 26 34  1  0
 27 31  1  0
 28 35  1  0
M  CHG  1  31   1
M  END
