DRA-CSI-0a78d9ba-2
     RDKit          3D

 34 38  0  0  0  0  0  0  0  0999 V2000
    8.7828   -4.8329   24.1755 C   0  0  0  0  0  0  0  0  0  0  0  0
    7.8756   -3.1542   25.6573 C   0  0  0  0  0  0  0  0  0  0  0  0
    7.6872    5.8234   21.8110 C   0  0  0  0  0  0  0  0  0  0  0  0
    7.3076    6.3702   24.1335 C   0  0  0  0  0  0  0  0  0  0  0  0
   12.1660   -0.9461   22.2500 C   0  0  0  0  0  0  0  0  0  0  0  0
   12.5188    0.4044   22.3849 C   0  0  0  0  0  0  0  0  0  0  0  0
    7.9004   -5.7756   24.7030 C   0  0  0  0  0  0  0  0  0  0  0  0
    6.9931   -4.0969   26.1849 C   0  0  0  0  0  0  0  0  0  0  0  0
    6.6311    4.9132   21.8527 C   0  0  0  0  0  0  0  0  0  0  0  0
    6.2514    5.4601   24.1752 C   0  0  0  0  0  0  0  0  0  0  0  0
   10.8528    0.7528   24.1358 C   0  0  0  0  0  0  0  0  0  0  0  0
    8.7705   -3.5223   24.6527 C   0  0  0  0  0  0  0  0  0  0  0  0
    8.0255    6.5519   22.9515 C   0  0  0  0  0  0  0  0  0  0  0  0
   11.1445   -1.4453   23.0708 C   0  0  0  0  0  0  0  0  0  0  0  0
   11.8739    1.2349   23.3096 C   0  0  0  0  0  0  0  0  0  0  0  0
   10.5314   -0.5891   23.9736 C   0  0  0  0  0  0  0  0  0  0  0  0
    7.0055   -5.4075   25.7077 C   0  0  0  0  0  0  0  0  0  0  0  0
    5.9132    4.7316   23.0348 C   0  0  0  0  0  0  0  0  0  0  0  0
    9.6795   -2.5514   24.1093 C   0  0  0  0  0  0  0  0  0  0  0  0
   11.7424    3.5579   24.2639 C   0  0  0  0  0  0  0  0  0  0  0  0
   12.2910    5.3508   22.6152 C   0  0  0  0  0  0  0  0  0  0  0  0
   11.8933    5.9234   25.0478 C   0  0  0  0  0  0  0  0  0  0  0  0
   10.8882    5.8450   22.2834 C   0  0  0  0  0  0  0  0  0  0  0  0
   10.4947    6.4116   24.6904 C   0  0  0  0  0  0  0  0  0  0  0  0
   12.4270    4.8809   24.0642 C   0  0  0  0  0  0  0  0  0  0  0  0
    5.2565   -5.8834   27.2473 C   0  0  0  0  0  0  0  0  0  0  0  0
    9.1616    7.5309   22.9066 C   0  0  0  0  0  0  0  0  0  0  0  0
   10.5880   -2.6975   23.1700 N   0  0  0  0  0  0  0  0  0  0  0  0
   12.2622    2.5918   23.4118 N   0  0  0  0  0  0  0  0  0  0  0  0
   10.4851    6.9147   23.2680 N   0  0  0  0  0  0  0  0  0  0  0  0
   10.8504    3.4316   25.0965 O   0  0  0  0  0  0  0  0  0  0  0  0
    9.5824   -1.3034   24.6471 O   0  0  0  0  0  0  0  0  0  0  0  0
    6.1444   -6.3274   26.2225 O   0  0  0  0  0  0  0  0  0  0  0  0
    4.4827    3.4978   23.0905 Br  0  0  0  0  0  0  0  0  0  0  0  0
  1  7  2  0
  1 12  1  0
  2  8  1  0
  2 12  2  0
  3  9  2  0
  3 13  1  0
  4 10  1  0
  4 13  2  0
  5  6  2  0
  5 14  1  0
  6 15  1  0
  7 17  1  0
  8 17  2  0
  9 18  1  0
 10 18  2  0
 11 15  2  0
 11 16  1  0
 12 19  1  0
 13 27  1  0
 14 16  2  0
 14 28  1  0
 15 29  1  0
 16 32  1  0
 17 33  1  0
 18 34  1  0
 19 28  2  0
 19 32  1  0
 20 25  1  0
 20 29  1  0
 20 31  2  0
 21 23  1  0
 21 25  1  0
 22 24  1  0
 22 25  1  0
 23 30  1  0
 24 30  1  0
 26 33  1  0
 27 30  1  0
M  CHG  1  30   1
M  END
