DRA-CSI-47e38074-14
     RDKit          3D

 25 27  0  0  0  0  0  0  0  0999 V2000
    7.6723   -1.0352   26.7669 C   0  0  0  0  0  0  0  0  0  0  0  0
    8.4304   -2.1894   26.5702 C   0  0  0  0  0  0  0  0  0  0  0  0
    7.1011   -0.3815   25.6750 C   0  0  0  0  0  0  0  0  0  0  0  0
   11.3005    2.0009   24.2284 C   0  0  0  0  0  0  0  0  0  0  0  0
   12.7905    3.1000   22.6763 C   0  0  0  0  0  0  0  0  0  0  0  0
    8.6174   -2.6899   25.2817 C   0  0  0  0  0  0  0  0  0  0  0  0
    7.2881   -0.8820   24.3865 C   0  0  0  0  0  0  0  0  0  0  0  0
   10.8405    3.2428   24.6662 C   0  0  0  0  0  0  0  0  0  0  0  0
   12.3304    4.3419   23.1141 C   0  0  0  0  0  0  0  0  0  0  0  0
   12.2756    1.9295   23.2335 C   0  0  0  0  0  0  0  0  0  0  0  0
    8.0462   -2.0362   24.1899 C   0  0  0  0  0  0  0  0  0  0  0  0
   11.3554    4.4133   24.1090 C   0  0  0  0  0  0  0  0  0  0  0  0
   12.7570    0.6316   22.7747 C   0  0  0  0  0  0  0  0  0  0  0  0
   10.7561   -2.3487   22.9388 C   0  0  0  0  0  0  0  0  0  0  0  0
    9.3671   -0.4594   22.0049 C   0  0  0  0  0  0  0  0  0  0  0  0
   11.9996   -1.6944   22.3397 C   0  0  0  0  0  0  0  0  0  0  0  0
   10.6409    0.1459   21.4203 C   0  0  0  0  0  0  0  0  0  0  0  0
    9.4927   -1.9852   22.1425 C   0  0  0  0  0  0  0  0  0  0  0  0
    8.2476   -2.5752   22.8002 C   0  0  0  0  0  0  0  0  0  0  0  0
   10.8623    5.7410   24.5767 C   0  0  0  0  0  0  0  0  0  0  0  0
   11.8117   -0.2479   22.2158 N   0  0  0  0  0  0  0  0  0  0  0  0
   13.9490    0.3393   22.8849 O   0  0  0  0  0  0  0  0  0  0  0  0
    9.9094    5.6585   25.5519 F   0  0  0  0  0  0  0  0  0  0  0  0
   11.8423    6.5337   25.1028 F   0  0  0  0  0  0  0  0  0  0  0  0
   10.2972    6.4742   23.5738 F   0  0  0  0  0  0  0  0  0  0  0  0
  1  2  2  0
  1  3  1  0
  2  6  1  0
  3  7  2  0
  4  8  2  0
  4 10  1  0
  5  9  1  0
  5 10  2  0
  6 11  2  0
  7 11  1  0
  8 12  1  0
  9 12  2  0
 10 13  1  0
 11 19  1  0
 12 20  1  0
 13 21  1  0
 13 22  2  0
 14 16  1  0
 14 18  1  0
 15 17  1  0
 15 18  1  0
 16 21  1  0
 17 21  1  0
 18 19  1  0
 20 23  1  0
 20 24  1  0
 20 25  1  0
M  END
