DRA-CSI-0a78d9ba-10
     RDKit          3D

 36 40  0  0  0  0  0  0  0  0999 V2000
    4.3930   -6.8943   27.0353 C   0  0  0  0  0  0  0  0  0  0  0  0
   10.2473    5.7462   24.7168 C   0  0  0  0  0  0  0  0  0  0  0  0
   13.0474    1.2547   22.2292 C   0  0  0  0  0  0  0  0  0  0  0  0
   12.3870    0.0321   22.0395 C   0  0  0  0  0  0  0  0  0  0  0  0
   10.0142    6.9843   25.3154 C   0  0  0  0  0  0  0  0  0  0  0  0
    4.3205   -7.2688   25.6937 C   0  0  0  0  0  0  0  0  0  0  0  0
    4.6393   -5.5642   27.3758 C   0  0  0  0  0  0  0  0  0  0  0  0
   10.4372    0.7931   23.2970 C   0  0  0  0  0  0  0  0  0  0  0  0
   12.3840    7.2397   25.7102 C   0  0  0  0  0  0  0  0  0  0  0  0
   11.5488    5.2548   24.6149 C   0  0  0  0  0  0  0  0  0  0  0  0
    4.7410   -4.9833   25.0329 C   0  0  0  0  0  0  0  0  0  0  0  0
   12.3887    2.2525   22.9617 C   0  0  0  0  0  0  0  0  0  0  0  0
   11.1080   -0.1917   22.5638 C   0  0  0  0  0  0  0  0  0  0  0  0
   11.1225    1.9901   23.4636 C   0  0  0  0  0  0  0  0  0  0  0  0
   11.0825    7.7311   25.8121 C   0  0  0  0  0  0  0  0  0  0  0  0
    4.4946   -6.3134   24.6924 C   0  0  0  0  0  0  0  0  0  0  0  0
    4.8134   -4.6087   26.3745 C   0  0  0  0  0  0  0  0  0  0  0  0
   12.6172    6.0016   25.1115 C   0  0  0  0  0  0  0  0  0  0  0  0
   11.7381    3.9744   23.9914 C   0  0  0  0  0  0  0  0  0  0  0  0
    9.2234   -1.8418   22.7864 C   0  0  0  0  0  0  0  0  0  0  0  0
    8.7263   -4.1638   23.5577 C   0  0  0  0  0  0  0  0  0  0  0  0
    7.7077   -3.2776   21.4175 C   0  0  0  0  0  0  0  0  0  0  0  0
    7.4001   -3.9289   24.2705 C   0  0  0  0  0  0  0  0  0  0  0  0
    6.3921   -3.0521   22.1528 C   0  0  0  0  0  0  0  0  0  0  0  0
    8.9205   -3.2473   22.3489 C   0  0  0  0  0  0  0  0  0  0  0  0
    9.4995    9.3814   26.4649 C   0  0  0  0  0  0  0  0  0  0  0  0
    4.9278   -3.9555   23.9560 C   0  0  0  0  0  0  0  0  0  0  0  0
   12.7684    3.5266   23.3080 N   0  0  0  0  0  0  0  0  0  0  0  0
   10.4791   -1.4408   22.3482 N   0  0  0  0  0  0  0  0  0  0  0  0
    6.2683   -4.0472   23.2800 N   0  0  0  0  0  0  0  0  0  0  0  0
    8.4096   -1.1987   23.4415 O   0  0  0  0  0  0  0  0  0  0  0  0
   10.6994    3.1038   24.1308 O   0  0  0  0  0  0  0  0  0  0  0  0
   10.8543    8.9395   26.3951 O   0  0  0  0  0  0  0  0  0  0  0  0
    4.4234   -6.6831   23.4061 F   0  0  0  0  0  0  0  0  0  0  0  0
    5.0500   -3.3332   26.7114 F   0  0  0  0  0  0  0  0  0  0  0  0
   14.4150    5.3922   25.0096 Br  0  0  0  0  0  0  0  0  0  0  0  0
  1  6  2  0
  1  7  1  0
  2  5  2  0
  2 10  1  0
  3  4  2  0
  3 12  1  0
  4 13  1  0
  5 15  1  0
  6 16  1  0
  7 17  2  0
  8 13  2  0
  8 14  1  0
  9 15  2  0
  9 18  1  0
 10 18  2  0
 10 19  1  0
 11 16  2  0
 11 17  1  0
 11 27  1  0
 12 14  2  0
 12 28  1  0
 13 29  1  0
 14 32  1  0
 15 33  1  0
 16 34  1  0
 17 35  1  0
 18 36  1  0
 19 28  2  0
 19 32  1  0
 20 25  1  0
 20 29  1  0
 20 31  2  0
 21 23  1  0
 21 25  1  0
 22 24  1  0
 22 25  1  0
 23 30  1  0
 24 30  1  0
 26 33  1  0
 27 30  1  0
M  CHG  1  30   1
M  END
