DRA-CSI-0a78d9ba-4
     RDKit          3D

 37 41  0  0  0  0  0  0  0  0999 V2000
    7.9689   -4.7193   23.5851 C   0  0  0  0  0  0  0  0  0  0  0  0
    6.9831   -3.0226   24.9945 C   0  0  0  0  0  0  0  0  0  0  0  0
    8.4637    5.8463   21.8742 C   0  0  0  0  0  0  0  0  0  0  0  0
    7.4516    6.8092   23.8453 C   0  0  0  0  0  0  0  0  0  0  0  0
    7.3341    5.0507   21.6827 C   0  0  0  0  0  0  0  0  0  0  0  0
    6.3219    6.0136   23.6539 C   0  0  0  0  0  0  0  0  0  0  0  0
   11.9887   -1.1251   22.4972 C   0  0  0  0  0  0  0  0  0  0  0  0
   12.4399    0.1740   22.7723 C   0  0  0  0  0  0  0  0  0  0  0  0
    6.9229   -5.5872   23.8981 C   0  0  0  0  0  0  0  0  0  0  0  0
    5.9370   -3.8905   25.3075 C   0  0  0  0  0  0  0  0  0  0  0  0
   10.5370    0.6161   24.2373 C   0  0  0  0  0  0  0  0  0  0  0  0
    7.9991   -3.4370   24.1333 C   0  0  0  0  0  0  0  0  0  0  0  0
    8.5225    6.7255   22.9555 C   0  0  0  0  0  0  0  0  0  0  0  0
    6.2632    5.1344   22.5726 C   0  0  0  0  0  0  0  0  0  0  0  0
   10.7978   -1.5509   23.1028 C   0  0  0  0  0  0  0  0  0  0  0  0
   11.7267    1.0253   23.6252 C   0  0  0  0  0  0  0  0  0  0  0  0
   10.1222   -0.6764   23.9411 C   0  0  0  0  0  0  0  0  0  0  0  0
    5.9068   -5.1728   24.7593 C   0  0  0  0  0  0  0  0  0  0  0  0
    9.0767   -2.5431   23.8109 C   0  0  0  0  0  0  0  0  0  0  0  0
   11.6540    3.3046   24.6853 C   0  0  0  0  0  0  0  0  0  0  0  0
   12.6477    5.1020   23.2656 C   0  0  0  0  0  0  0  0  0  0  0  0
   11.8917    5.6042   25.6277 C   0  0  0  0  0  0  0  0  0  0  0  0
   11.3770    5.7541   22.7344 C   0  0  0  0  0  0  0  0  0  0  0  0
   10.6289    6.2511   25.0717 C   0  0  0  0  0  0  0  0  0  0  0  0
   12.4856    4.5564   24.6852 C   0  0  0  0  0  0  0  0  0  0  0  0
    4.9176   -7.3160   24.4694 C   0  0  0  0  0  0  0  0  0  0  0  0
    9.7371    7.5816   23.1621 C   0  0  0  0  0  0  0  0  0  0  0  0
    5.0550    4.2847   22.3662 C   0  0  0  0  0  0  0  0  0  0  0  0
   10.1159   -2.7413   23.0300 N   0  0  0  0  0  0  0  0  0  0  0  0
   12.2190    2.3283   23.8746 N   0  0  0  0  0  0  0  0  0  0  0  0
   10.9135    6.8152   23.7016 N   0  0  0  0  0  0  0  0  0  0  0  0
   10.6235    3.2352   25.3472 O   0  0  0  0  0  0  0  0  0  0  0  0
    9.0073   -1.3169   24.4007 O   0  0  0  0  0  0  0  0  0  0  0  0
    4.8861   -6.0197   25.0647 O   0  0  0  0  0  0  0  0  0  0  0  0
    5.1361    3.4750   21.2691 F   0  0  0  0  0  0  0  0  0  0  0  0
    4.7930    3.4440   23.4104 F   0  0  0  0  0  0  0  0  0  0  0  0
    3.9185    5.0207   22.1947 F   0  0  0  0  0  0  0  0  0  0  0  0
  1  9  2  0
  1 12  1  0
  2 10  1  0
  2 12  2  0
  3  5  2  0
  3 13  1  0
  4  6  1  0
  4 13  2  0
  5 14  1  0
  6 14  2  0
  7  8  2  0
  7 15  1  0
  8 16  1  0
  9 18  1  0
 10 18  2  0
 11 16  2  0
 11 17  1  0
 12 19  1  0
 13 27  1  0
 14 28  1  0
 15 17  2  0
 15 29  1  0
 16 30  1  0
 17 33  1  0
 18 34  1  0
 19 29  2  0
 19 33  1  0
 20 25  1  0
 20 30  1  0
 20 32  2  0
 21 23  1  0
 21 25  1  0
 22 24  1  0
 22 25  1  0
 23 31  1  0
 24 31  1  0
 26 34  1  0
 27 31  1  0
 28 35  1  0
 28 36  1  0
 28 37  1  0
M  CHG  1  31   1
M  END
