DRA-CSI-7ec17797-1
     RDKit          3D

 34 38  0  0  0  0  0  0  0  0999 V2000
    2.8974   -6.6831   23.5234 C   0  0  0  0  0  0  0  0  0  0  0  0
    3.1406   -5.3453   23.8345 C   0  0  0  0  0  0  0  0  0  0  0  0
    3.7642   -7.6747   23.9829 C   0  0  0  0  0  0  0  0  0  0  0  0
   10.9340    5.1067   25.1509 C   0  0  0  0  0  0  0  0  0  0  0  0
   12.3889    5.8204   23.3590 C   0  0  0  0  0  0  0  0  0  0  0  0
    4.2506   -4.9991   24.6050 C   0  0  0  0  0  0  0  0  0  0  0  0
    4.8742   -7.3285   24.7534 C   0  0  0  0  0  0  0  0  0  0  0  0
   13.3426    0.4722   22.4171 C   0  0  0  0  0  0  0  0  0  0  0  0
   12.7761   -0.8008   22.5759 C   0  0  0  0  0  0  0  0  0  0  0  0
   10.7102    6.4385   25.4997 C   0  0  0  0  0  0  0  0  0  0  0  0
   12.1650    7.1523   23.7078 C   0  0  0  0  0  0  0  0  0  0  0  0
   10.9204    0.0951   23.8860 C   0  0  0  0  0  0  0  0  0  0  0  0
   11.7734    4.7976   24.0806 C   0  0  0  0  0  0  0  0  0  0  0  0
    5.1174   -5.9907   25.0645 C   0  0  0  0  0  0  0  0  0  0  0  0
   12.6847    1.5637   23.0020 C   0  0  0  0  0  0  0  0  0  0  0  0
   11.5891   -0.9831   23.2962 C   0  0  0  0  0  0  0  0  0  0  0  0
   11.5114    1.3397   23.7071 C   0  0  0  0  0  0  0  0  0  0  0  0
   11.3256    7.4613   24.7781 C   0  0  0  0  0  0  0  0  0  0  0  0
   12.0040    3.4258   23.7214 C   0  0  0  0  0  0  0  0  0  0  0  0
    6.2779   -5.6286   25.8699 C   0  0  0  0  0  0  0  0  0  0  0  0
    9.7164   -2.6404   23.5609 C   0  0  0  0  0  0  0  0  0  0  0  0
    8.2350   -4.5795   23.0523 C   0  0  0  0  0  0  0  0  0  0  0  0
    9.6733   -4.5469   25.1521 C   0  0  0  0  0  0  0  0  0  0  0  0
    7.0203   -4.2695   23.9276 C   0  0  0  0  0  0  0  0  0  0  0  0
    8.4142   -4.2241   25.9551 C   0  0  0  0  0  0  0  0  0  0  0  0
    9.5589   -4.1474   23.6812 C   0  0  0  0  0  0  0  0  0  0  0  0
   10.2380    9.0056   26.2232 C   0  0  0  0  0  0  0  0  0  0  0  0
   12.9865    2.9038   23.0204 N   0  0  0  0  0  0  0  0  0  0  0  0
    7.2235   -4.7644   25.2886 N   0  0  0  0  0  0  0  0  0  0  0  0
   11.0531   -2.2857   23.4313 N   0  0  0  0  0  0  0  0  0  0  0  0
    6.4014   -6.0738   27.0123 O   0  0  0  0  0  0  0  0  0  0  0  0
    8.7363   -1.9029   23.5813 O   0  0  0  0  0  0  0  0  0  0  0  0
   11.0689    2.5443   24.1739 O   0  0  0  0  0  0  0  0  0  0  0  0
   11.1072    8.7609   25.1185 O   0  0  0  0  0  0  0  0  0  0  0  0
  1  2  2  0
  1  3  1  0
  2  6  1  0
  3  7  2  0
  4 10  2  0
  4 13  1  0
  5 11  1  0
  5 13  2  0
  6 14  2  0
  7 14  1  0
  8  9  2  0
  8 15  1  0
  9 16  1  0
 10 18  1  0
 11 18  2  0
 12 16  2  0
 12 17  1  0
 13 19  1  0
 14 20  1  0
 15 17  2  0
 15 28  1  0
 16 30  1  0
 17 33  1  0
 18 34  1  0
 19 28  2  0
 19 33  1  0
 20 29  1  0
 20 31  2  0
 21 26  1  0
 21 30  1  0
 21 32  2  0
 22 24  1  0
 22 26  1  0
 23 25  1  0
 23 26  1  0
 24 29  1  0
 25 29  1  0
 27 34  1  0
M  END
