DRA-CSI-3ab97369-12
     RDKit          3D

 35 39  0  0  0  0  0  0  0  0999 V2000
   11.9567    0.1135   22.6838 C   0  0  0  0  0  0  0  0  0  0  0  0
    7.8622   -4.9694   24.0984 C   0  0  0  0  0  0  0  0  0  0  0  0
    6.8854   -3.2530   25.4900 C   0  0  0  0  0  0  0  0  0  0  0  0
   12.3274    3.0092   22.6448 C   0  0  0  0  0  0  0  0  0  0  0  0
    8.6976    6.7592   25.8991 C   0  0  0  0  0  0  0  0  0  0  0  0
    8.9853    8.2281   24.0026 C   0  0  0  0  0  0  0  0  0  0  0  0
   10.0816    6.6171   25.9990 C   0  0  0  0  0  0  0  0  0  0  0  0
   10.3694    8.0860   24.1026 C   0  0  0  0  0  0  0  0  0  0  0  0
   11.5653   -1.2223   22.5126 C   0  0  0  0  0  0  0  0  0  0  0  0
    6.8967   -5.8751   24.5377 C   0  0  0  0  0  0  0  0  0  0  0  0
    5.9198   -4.1587   25.9293 C   0  0  0  0  0  0  0  0  0  0  0  0
   12.7402    4.3259   22.8156 C   0  0  0  0  0  0  0  0  0  0  0  0
   10.1460    0.5299   24.2683 C   0  0  0  0  0  0  0  0  0  0  0  0
   11.5097    3.0307   24.8781 C   0  0  0  0  0  0  0  0  0  0  0  0
    7.8566   -3.6583   24.5746 C   0  0  0  0  0  0  0  0  0  0  0  0
   11.2595    0.9701   23.5446 C   0  0  0  0  0  0  0  0  0  0  0  0
   11.6996    2.3421   23.6908 C   0  0  0  0  0  0  0  0  0  0  0  0
    8.1495    7.5647   24.9009 C   0  0  0  0  0  0  0  0  0  0  0  0
   10.9175    7.2805   25.1008 C   0  0  0  0  0  0  0  0  0  0  0  0
   10.4512   -1.6795   23.2308 C   0  0  0  0  0  0  0  0  0  0  0  0
    9.7890   -0.7985   24.0730 C   0  0  0  0  0  0  0  0  0  0  0  0
    5.9255   -5.4698   25.4531 C   0  0  0  0  0  0  0  0  0  0  0  0
   12.5035    4.9258   24.0420 C   0  0  0  0  0  0  0  0  0  0  0  0
    8.8512   -2.7254   24.1221 C   0  0  0  0  0  0  0  0  0  0  0  0
    3.9286    5.8106   22.7961 C   0  0  0  0  0  0  0  0  0  0  0  0
    4.0201   -5.8726   26.8180 C   0  0  0  0  0  0  0  0  0  0  0  0
    6.6699    7.7171   24.7933 C   0  0  0  0  0  0  0  0  0  0  0  0
   12.4071    7.1285   25.2101 C   0  0  0  0  0  0  0  0  0  0  0  0
    4.5331    6.8403   23.7372 C   0  0  0  0  0  0  0  0  0  0  0  0
    6.0442    6.6546   23.8749 C   0  0  0  0  0  0  0  0  0  0  0  0
   11.8969    4.3099   25.0813 N   0  0  0  0  0  0  0  0  0  0  0  0
    9.8389   -2.9086   23.2735 N   0  0  0  0  0  0  0  0  0  0  0  0
   12.9314    6.2674   24.2007 N   0  0  0  0  0  0  0  0  0  0  0  0
    8.7524   -1.4738   24.6511 O   0  0  0  0  0  0  0  0  0  0  0  0
    4.9833   -6.3536   25.8818 O   0  0  0  0  0  0  0  0  0  0  0  0
  1  9  2  0
  1 16  1  0
  2 10  2  0
  2 15  1  0
  3 11  1  0
  3 15  2  0
  4 12  2  0
  4 17  1  0
  5  7  2  0
  5 18  1  0
  6  8  1  0
  6 18  2  0
  7 19  1  0
  8 19  2  0
  9 20  1  0
 10 22  1  0
 11 22  2  0
 12 23  1  0
 13 16  2  0
 13 21  1  0
 14 17  2  0
 14 31  1  0
 15 24  1  0
 16 17  1  0
 18 27  1  0
 19 28  1  0
 20 21  2  0
 20 32  1  0
 21 34  1  0
 22 35  1  0
 23 31  2  0
 23 33  1  0
 24 32  2  0
 24 34  1  0
 25 29  1  0
 26 35  1  0
 27 30  1  0
 28 33  1  0
 29 30  1  0
M  END
