DRA-CSI-0a78d9ba-16
     RDKit          3D

 36 40  0  0  0  0  0  0  0  0999 V2000
    8.1173   -4.0560   24.3569 C   0  0  0  0  0  0  0  0  0  0  0  0
    8.2232   -3.8506   21.9520 C   0  0  0  0  0  0  0  0  0  0  0  0
    9.7940    6.9992   23.6260 C   0  0  0  0  0  0  0  0  0  0  0  0
   10.2093    5.6178   25.5641 C   0  0  0  0  0  0  0  0  0  0  0  0
    6.9820   -4.8575   24.2386 C   0  0  0  0  0  0  0  0  0  0  0  0
    7.0878   -4.6522   21.8336 C   0  0  0  0  0  0  0  0  0  0  0  0
    8.4766    6.5430   23.5830 C   0  0  0  0  0  0  0  0  0  0  0  0
    8.8918    5.1616   25.5212 C   0  0  0  0  0  0  0  0  0  0  0  0
    8.7379   -3.5524   23.2137 C   0  0  0  0  0  0  0  0  0  0  0  0
   10.6604    6.5366   24.6165 C   0  0  0  0  0  0  0  0  0  0  0  0
   11.8685   -2.0015   23.7930 C   0  0  0  0  0  0  0  0  0  0  0  0
    6.4672   -5.1557   22.9769 C   0  0  0  0  0  0  0  0  0  0  0  0
    8.0255    5.6242   24.5306 C   0  0  0  0  0  0  0  0  0  0  0  0
   11.2162   -0.9559   23.1594 C   0  0  0  0  0  0  0  0  0  0  0  0
   13.1807   -1.7729   24.1949 C   0  0  0  0  0  0  0  0  0  0  0  0
    9.9149   -2.7214   23.3365 C   0  0  0  0  0  0  0  0  0  0  0  0
   12.9837    0.3637   23.3213 C   0  0  0  0  0  0  0  0  0  0  0  0
   13.0682    2.7276   22.4675 C   0  0  0  0  0  0  0  0  0  0  0  0
   13.4724    5.0655   21.6901 C   0  0  0  0  0  0  0  0  0  0  0  0
   14.5381    4.2213   23.8243 C   0  0  0  0  0  0  0  0  0  0  0  0
   12.4296    5.8053   22.5191 C   0  0  0  0  0  0  0  0  0  0  0  0
   13.4841    4.9701   24.6310 C   0  0  0  0  0  0  0  0  0  0  0  0
   14.0599    3.8557   22.4183 C   0  0  0  0  0  0  0  0  0  0  0  0
    8.9139   -0.7017   22.2101 C   0  0  0  0  0  0  0  0  0  0  0  0
    4.7751   -6.4189   24.0709 C   0  0  0  0  0  0  0  0  0  0  0  0
   12.0775    7.0273   24.6626 C   0  0  0  0  0  0  0  0  0  0  0  0
   11.0463   -3.0953   23.8967 N   0  0  0  0  0  0  0  0  0  0  0  0
   11.7088    0.2616   22.8864 N   0  0  0  0  0  0  0  0  0  0  0  0
   13.7433   -0.5648   23.9513 N   0  0  0  0  0  0  0  0  0  0  0  0
    9.9688   -1.4332   22.8742 N   0  0  0  0  0  0  0  0  0  0  0  0
   13.6119    1.6099   23.0878 N   0  0  0  0  0  0  0  0  0  0  0  0
   13.0215    6.1788   23.8557 N   0  0  0  0  0  0  0  0  0  0  0  0
   11.9419    2.8605   21.9998 O   0  0  0  0  0  0  0  0  0  0  0  0
    5.3594   -5.9379   22.8614 O   0  0  0  0  0  0  0  0  0  0  0  0
   14.0561   -2.9881   24.9740 Cl  0  0  0  0  0  0  0  0  0  0  0  0
    6.2405    5.0062   24.4714 Br  0  0  0  0  0  0  0  0  0  0  0  0
  1  5  2  0
  1  9  1  0
  2  6  1  0
  2  9  2  0
  3  7  2  0
  3 10  1  0
  4  8  1  0
  4 10  2  0
  5 12  1  0
  6 12  2  0
  7 13  1  0
  8 13  2  0
  9 16  1  0
 10 26  1  0
 11 14  1  0
 11 15  2  0
 11 27  1  0
 12 34  1  0
 13 36  1  0
 14 28  2  0
 14 30  1  0
 15 29  1  0
 15 35  1  0
 16 27  2  0
 16 30  1  0
 17 28  1  0
 17 29  2  0
 17 31  1  0
 18 23  1  0
 18 31  1  0
 18 33  2  0
 19 21  1  0
 19 23  1  0
 20 22  1  0
 20 23  1  0
 21 32  1  0
 22 32  1  0
 24 30  1  0
 25 34  1  0
 26 32  1  0
M  CHG  1  32   1
M  END
