DRA-CSI-3ab97369-16
     RDKit          3D

 21 23  0  0  0  0  0  0  0  0999 V2000
   10.8324    5.9063   22.7444 C   0  0  0  0  0  0  0  0  0  0  0  0
   11.8334    5.8492   24.9425 C   0  0  0  0  0  0  0  0  0  0  0  0
    9.6541    6.4114   23.2941 C   0  0  0  0  0  0  0  0  0  0  0  0
   10.6552    6.3544   25.4922 C   0  0  0  0  0  0  0  0  0  0  0  0
   11.3395   -1.7617   23.5540 C   0  0  0  0  0  0  0  0  0  0  0  0
   10.5795   -2.9333   23.8366 C   0  0  0  0  0  0  0  0  0  0  0  0
   11.9220    5.6252   23.5686 C   0  0  0  0  0  0  0  0  0  0  0  0
    9.5655    6.6355   24.6680 C   0  0  0  0  0  0  0  0  0  0  0  0
   10.6543   -0.6105   23.8745 C   0  0  0  0  0  0  0  0  0  0  0  0
    9.3422   -2.6328   24.3627 C   0  0  0  0  0  0  0  0  0  0  0  0
   11.1030    0.7236   23.7254 C   0  0  0  0  0  0  0  0  0  0  0  0
   12.2444    2.7459   23.3078 C   0  0  0  0  0  0  0  0  0  0  0  0
   13.1504    5.0986   22.9952 C   0  0  0  0  0  0  0  0  0  0  0  0
   10.3786    1.7704   24.0592 N   0  0  0  0  0  0  0  0  0  0  0  0
   11.0477    2.9566   23.8134 N   0  0  0  0  0  0  0  0  0  0  0  0
   13.2224    3.6986   22.9261 N   0  0  0  0  0  0  0  0  0  0  0  0
   14.0711    5.8436   22.6316 O   0  0  0  0  0  0  0  0  0  0  0  0
    8.4341    7.1207   25.1959 F   0  0  0  0  0  0  0  0  0  0  0  0
    9.1011   -0.9442   24.5136 S   0  0  0  0  0  0  0  0  0  0  0  0
   12.6523    1.0944   23.0899 S   0  0  0  0  0  0  0  0  0  0  0  0
    8.0450   -3.9255   24.8664 Br  0  0  0  0  0  0  0  0  0  0  0  0
  1  3  2  0
  1  7  1  0
  2  4  1  0
  2  7  2  0
  3  8  1  0
  4  8  2  0
  5  6  1  0
  5  9  2  0
  6 10  2  0
  7 13  1  0
  8 18  1  0
  9 11  1  0
  9 19  1  0
 10 19  1  0
 10 21  1  0
 11 14  2  0
 11 20  1  0
 12 15  2  0
 12 16  1  0
 12 20  1  0
 13 16  1  0
 13 17  2  0
 14 15  1  0
M  END
