DRA-CSI-7ec17797-9
     RDKit          3D

 32 35  0  0  0  0  0  0  0  0999 V2000
   10.0531    5.3406   22.6161 C   0  0  0  0  0  0  0  0  0  0  0  0
   11.4058    5.6139   24.5992 C   0  0  0  0  0  0  0  0  0  0  0  0
    9.2766    6.4357   22.9948 C   0  0  0  0  0  0  0  0  0  0  0  0
   10.6293    6.7091   24.9779 C   0  0  0  0  0  0  0  0  0  0  0  0
    9.3360   -6.7897   26.9542 C   0  0  0  0  0  0  0  0  0  0  0  0
   11.1177    4.9296   23.4184 C   0  0  0  0  0  0  0  0  0  0  0  0
    8.5382   -4.8883   26.4145 C   0  0  0  0  0  0  0  0  0  0  0  0
    9.5647    7.1200   24.1756 C   0  0  0  0  0  0  0  0  0  0  0  0
    9.6807   -5.0530   25.6477 C   0  0  0  0  0  0  0  0  0  0  0  0
    7.8288   -3.7042   26.2398 C   0  0  0  0  0  0  0  0  0  0  0  0
    9.4151   -3.0881   24.6678 C   0  0  0  0  0  0  0  0  0  0  0  0
   11.9313    3.7827   23.0215 C   0  0  0  0  0  0  0  0  0  0  0  0
    9.2505   -0.8840   23.4683 C   0  0  0  0  0  0  0  0  0  0  0  0
   11.4520    0.0706   22.9599 C   0  0  0  0  0  0  0  0  0  0  0  0
    9.3117    1.2025   22.1466 C   0  0  0  0  0  0  0  0  0  0  0  0
   12.0688    1.3750   22.4691 C   0  0  0  0  0  0  0  0  0  0  0  0
    9.8294    2.3408   23.0249 C   0  0  0  0  0  0  0  0  0  0  0  0
   10.0354   -0.1159   22.4188 C   0  0  0  0  0  0  0  0  0  0  0  0
    6.1649   -4.4262   27.9340 C   0  0  0  0  0  0  0  0  0  0  0  0
    5.9276   -2.2106   26.8011 C   0  0  0  0  0  0  0  0  0  0  0  0
    8.3353   -5.9776   27.2240 N   0  0  0  0  0  0  0  0  0  0  0  0
   10.1857   -4.1947   24.7489 N   0  0  0  0  0  0  0  0  0  0  0  0
    8.2814   -2.7906   25.3476 N   0  0  0  0  0  0  0  0  0  0  0  0
   10.1783   -6.2735   26.0054 N   0  0  0  0  0  0  0  0  0  0  0  0
   11.2798    2.5411   22.8752 N   0  0  0  0  0  0  0  0  0  0  0  0
    9.8504   -2.1053   23.7476 N   0  0  0  0  0  0  0  0  0  0  0  0
    8.7740    8.2344   24.5612 N   0  0  0  0  0  0  0  0  0  0  0  0
    6.6580   -3.4534   26.9757 N   0  0  0  0  0  0  0  0  0  0  0  0
   13.1402    3.9151   22.8185 O   0  0  0  0  0  0  0  0  0  0  0  0
    8.2294   -0.4128   23.9586 O   0  0  0  0  0  0  0  0  0  0  0  0
    7.8207    8.5873   23.8255 O   0  0  0  0  0  0  0  0  0  0  0  0
    9.0497    8.8359   25.6274 O   0  0  0  0  0  0  0  0  0  0  0  0
  1  3  2  0
  1  6  1  0
  2  4  1  0
  2  6  2  0
  3  8  1  0
  4  8  2  0
  5 21  2  0
  5 24  1  0
  6 12  1  0
  7  9  2  0
  7 10  1  0
  7 21  1  0
  8 27  1  0
  9 22  1  0
  9 24  1  0
 10 23  2  0
 10 28  1  0
 11 22  2  0
 11 23  1  0
 11 26  1  0
 12 25  1  0
 12 29  2  0
 13 18  1  0
 13 26  1  0
 13 30  2  0
 14 16  1  0
 14 18  1  0
 15 17  1  0
 15 18  1  0
 16 25  1  0
 17 25  1  0
 19 28  1  0
 20 28  1  0
 27 31  1  0
 27 32  2  0
M  CHG  2  27   1  31  -1
M  END
