DRE-WAB-eb790b7a-1
     RDKit          3D

 23 24  0  0  1  0  0  0  0  0999 V2000
   14.3139   -2.2134   23.0556 C   0  0  0  0  0  0  0  0  0  0  0  0
   13.7861   -1.7104   24.2447 C   0  0  0  0  0  0  0  0  0  0  0  0
   13.9933   -1.6095   21.8398 C   0  0  0  0  0  0  0  0  0  0  0  0
   12.9377   -0.6036   24.2181 C   0  0  0  0  0  0  0  0  0  0  0  0
   13.1449   -0.5027   21.8131 C   0  0  0  0  0  0  0  0  0  0  0  0
    6.4909   -0.0724   20.0178 C   0  0  0  0  0  0  0  0  0  0  0  0
    6.9590   -0.0551   18.7138 C   0  0  0  0  0  0  0  0  0  0  0  0
    9.1207    0.3117   19.4001 C   0  0  0  0  0  0  0  0  0  0  0  0
   12.6171    0.0003   23.0022 C   0  0  0  0  0  0  0  0  0  0  0  0
    7.4118    0.1153   21.0425 C   0  0  0  0  0  0  0  0  0  0  0  0
    8.7538    0.3118   20.7362 C   0  0  0  0  0  0  0  0  0  0  0  0
   10.9062    1.2454   21.6537 C   0  0  0  0  0  0  0  0  0  0  0  0
    6.9345    0.1019   22.4576 C   0  0  0  0  0  0  0  0  0  0  0  0
   10.8826    6.2108   22.5317 C   0  0  0  0  0  0  0  0  0  0  0  0
   12.4474    2.5273   23.1951 C   0  0  0  0  0  0  0  0  0  0  0  0
   11.6919    1.2070   22.9724 C   0  0  0  0  0  0  0  0  0  0  0  0
    8.2548    0.1328   18.3774 N   0  0  0  0  0  0  0  0  0  0  0  0
    9.7288    0.5069   21.7430 N   0  0  0  0  0  0  0  0  0  0  0  0
   11.5144    3.6761   23.1320 N   0  0  0  0  0  0  0  0  0  0  0  0
   11.3235    1.8576   20.6746 O   0  0  0  0  0  0  0  0  0  0  0  0
   13.3715    5.4085   22.6412 O   0  0  0  0  0  0  0  0  0  0  0  0
   12.0421    5.5654   24.7777 O   0  0  0  0  0  0  0  0  0  0  0  0
   12.1252    5.2494   23.3647 S   0  0  0  0  0  0  0  0  0  0  0  0
  1  2  2  0
  1  3  1  0
  2  4  1  0
  3  5  2  0
  4  9  2  0
  5  9  1  0
  6  7  2  0
  6 10  1  0
  7 17  1  0
  8 11  1  0
  8 17  2  0
  9 16  1  0
 10 11  2  0
 10 13  1  0
 11 18  1  0
 12 16  1  0
 12 18  1  0
 12 20  2  0
 14 23  1  0
 15 16  1  0
 15 19  1  0
 19 23  1  0
 21 23  2  0
 22 23  2  0
M  END
