DRR-SHR-2ae5ab8c-10
     RDKit          3D

 22 23  0  0  0  0  0  0  0  0999 V2000
   14.0309   -1.4704   22.8821 C   0  0  0  0  0  0  0  0  0  0  0  0
   12.7961   -2.1014   23.0331 C   0  0  0  0  0  0  0  0  0  0  0  0
   14.1119   -0.0783   22.9191 C   0  0  0  0  0  0  0  0  0  0  0  0
   11.6423   -1.3404   23.2209 C   0  0  0  0  0  0  0  0  0  0  0  0
   11.2686    4.9222   22.7822 C   0  0  0  0  0  0  0  0  0  0  0  0
   10.6388    6.2558   24.6958 C   0  0  0  0  0  0  0  0  0  0  0  0
   12.9581    0.6827   23.1069 C   0  0  0  0  0  0  0  0  0  0  0  0
   12.6110    5.0388   23.1427 C   0  0  0  0  0  0  0  0  0  0  0  0
   11.7233    0.0517   23.2578 C   0  0  0  0  0  0  0  0  0  0  0  0
   12.9673    5.7638   24.2798 C   0  0  0  0  0  0  0  0  0  0  0  0
   10.2825    5.5308   23.5587 C   0  0  0  0  0  0  0  0  0  0  0  0
   11.9812    6.3723   25.0564 C   0  0  0  0  0  0  0  0  0  0  0  0
   13.0691    2.1348   23.1420 C   0  0  0  0  0  0  0  0  0  0  0  0
   13.5588    2.9010   22.1432 C   0  0  0  0  0  0  0  0  0  0  0  0
   13.6397    4.3797   22.3024 C   0  0  0  0  0  0  0  0  0  0  0  0
    9.1455    1.8104   25.0520 C   0  0  0  0  0  0  0  0  0  0  0  0
    9.8539    0.5357   24.6459 C   0  0  0  0  0  0  0  0  0  0  0  0
   14.4987    5.0577   21.7497 O   0  0  0  0  0  0  0  0  0  0  0  0
   14.2869    5.8645   24.6159 O   0  0  0  0  0  0  0  0  0  0  0  0
   10.5797    0.7713   23.4417 O   0  0  0  0  0  0  0  0  0  0  0  0
    8.2832    5.3578   23.0200 I   0  0  0  0  0  0  0  0  0  0  0  0
   12.4586    7.4721   26.7697 I   0  0  0  0  0  0  0  0  0  0  0  0
  1  2  2  0
  1  3  1  0
  2  4  1  0
  3  7  2  0
  4  9  2  0
  5  8  2  0
  5 11  1  0
  6 11  2  0
  6 12  1  0
  7  9  1  0
  7 13  1  0
  8 10  1  0
  8 15  1  0
  9 20  1  0
 10 12  2  0
 10 19  1  0
 11 21  1  0
 12 22  1  0
 13 14  2  0
 14 15  1  0
 15 18  2  0
 16 17  1  0
 17 20  1  0
M  END
