DRR-SHR-9a662592-1
     RDKit          3D

 22 23  0  0  0  0  0  0  0  0999 V2000
   14.1727   -2.6893   24.5835 C   0  0  0  0  0  0  0  0  0  0  0  0
   12.9512   -3.3600   24.6443 C   0  0  0  0  0  0  0  0  0  0  0  0
   14.2428   -1.4184   24.0128 C   0  0  0  0  0  0  0  0  0  0  0  0
   11.7999   -2.7599   24.1345 C   0  0  0  0  0  0  0  0  0  0  0  0
   11.7204    4.5811   24.2774 C   0  0  0  0  0  0  0  0  0  0  0  0
    9.7458    5.9729   24.2445 C   0  0  0  0  0  0  0  0  0  0  0  0
   13.0915   -0.8183   23.5029 C   0  0  0  0  0  0  0  0  0  0  0  0
   11.1827    3.7942   23.2590 C   0  0  0  0  0  0  0  0  0  0  0  0
   11.0019    5.6705   24.7702 C   0  0  0  0  0  0  0  0  0  0  0  0
   11.8700   -1.4891   23.5637 C   0  0  0  0  0  0  0  0  0  0  0  0
    9.9266    4.0966   22.7333 C   0  0  0  0  0  0  0  0  0  0  0  0
    9.2081    5.1860   23.2260 C   0  0  0  0  0  0  0  0  0  0  0  0
   11.9649    2.6505   22.7576 C   0  0  0  0  0  0  0  0  0  0  0  0
   12.3794    1.6231   23.5136 C   0  0  0  0  0  0  0  0  0  0  0  0
   13.1868    0.5090   22.9113 C   0  0  0  0  0  0  0  0  0  0  0  0
   11.5760    6.5115   25.8600 C   0  0  0  0  0  0  0  0  0  0  0  0
    9.1268   -0.4682   21.3562 C   0  0  0  0  0  0  0  0  0  0  0  0
   10.4222   -1.1700   21.7041 C   0  0  0  0  0  0  0  0  0  0  0  0
   13.9372    0.7217   21.9481 O   0  0  0  0  0  0  0  0  0  0  0  0
    9.4047    3.3220   21.7362 O   0  0  0  0  0  0  0  0  0  0  0  0
   10.7337   -0.9185   23.0727 O   0  0  0  0  0  0  0  0  0  0  0  0
    7.4976    5.6303   22.5390 Br  0  0  0  0  0  0  0  0  0  0  0  0
  1  2  2  0
  1  3  1  0
  2  4  1  0
  3  7  2  0
  4 10  2  0
  5  8  2  0
  5  9  1  0
  6  9  2  0
  6 12  1  0
  7 10  1  0
  7 15  1  0
  8 11  1  0
  8 13  1  0
  9 16  1  0
 10 21  1  0
 11 12  2  0
 11 20  1  0
 12 22  1  0
 13 14  2  0
 14 15  1  0
 15 19  2  0
 17 18  1  0
 18 21  1  0
M  END
