DRR-SHR-2ae5ab8c-3
     RDKit          3D

 22 23  0  0  0  0  0  0  0  0999 V2000
   10.7220    0.1374   24.4508 C   0  0  0  0  0  0  0  0  0  0  0  0
   12.1904   -0.6227   22.6891 C   0  0  0  0  0  0  0  0  0  0  0  0
   10.1991   -1.1502   24.5705 C   0  0  0  0  0  0  0  0  0  0  0  0
   11.6675   -1.9103   22.8089 C   0  0  0  0  0  0  0  0  0  0  0  0
   12.1715    6.2171   25.0499 C   0  0  0  0  0  0  0  0  0  0  0  0
   10.2451    7.6743   24.9988 C   0  0  0  0  0  0  0  0  0  0  0  0
   11.7176    0.4011   23.5100 C   0  0  0  0  0  0  0  0  0  0  0  0
   11.5799    5.4012   24.0856 C   0  0  0  0  0  0  0  0  0  0  0  0
   10.6719   -2.1741   23.7496 C   0  0  0  0  0  0  0  0  0  0  0  0
   10.3209    5.7218   23.5779 C   0  0  0  0  0  0  0  0  0  0  0  0
   11.5040    7.3537   25.5065 C   0  0  0  0  0  0  0  0  0  0  0  0
    9.6534    6.8584   24.0345 C   0  0  0  0  0  0  0  0  0  0  0  0
   12.2628    1.7437   23.3852 C   0  0  0  0  0  0  0  0  0  0  0  0
   11.6594    2.8733   23.8187 C   0  0  0  0  0  0  0  0  0  0  0  0
   12.3097    4.1982   23.6177 C   0  0  0  0  0  0  0  0  0  0  0  0
    7.9160   -2.8140   23.3082 C   0  0  0  0  0  0  0  0  0  0  0  0
    8.8048   -3.5432   24.2931 C   0  0  0  0  0  0  0  0  0  0  0  0
   13.3968    4.3235   23.0648 O   0  0  0  0  0  0  0  0  0  0  0  0
    9.7596    4.9096   22.6346 O   0  0  0  0  0  0  0  0  0  0  0  0
   10.1616   -3.4305   23.8664 O   0  0  0  0  0  0  0  0  0  0  0  0
   12.2342    8.3592   26.6973 Cl  0  0  0  0  0  0  0  0  0  0  0  0
    7.7631    7.3845   23.3118 I   0  0  0  0  0  0  0  0  0  0  0  0
  1  3  2  0
  1  7  1  0
  2  4  1  0
  2  7  2  0
  3  9  1  0
  4  9  2  0
  5  8  2  0
  5 11  1  0
  6 11  2  0
  6 12  1  0
  7 13  1  0
  8 10  1  0
  8 15  1  0
  9 20  1  0
 10 12  2  0
 10 19  1  0
 11 21  1  0
 12 22  1  0
 13 14  2  0
 14 15  1  0
 15 18  2  0
 16 17  1  0
 17 20  1  0
M  END
