DRR-SHR-2ae5ab8c-2
     RDKit          3D

 22 23  0  0  0  0  0  0  0  0999 V2000
   10.1662   -0.1638   24.2169 C   0  0  0  0  0  0  0  0  0  0  0  0
   11.5760   -1.0234   22.4532 C   0  0  0  0  0  0  0  0  0  0  0  0
    9.5918   -1.4253   24.3726 C   0  0  0  0  0  0  0  0  0  0  0  0
   11.0017   -2.2849   22.6089 C   0  0  0  0  0  0  0  0  0  0  0  0
   11.8764    5.8614   24.6594 C   0  0  0  0  0  0  0  0  0  0  0  0
   10.0133    7.3983   24.5990 C   0  0  0  0  0  0  0  0  0  0  0  0
   11.1583    0.0372   23.2571 C   0  0  0  0  0  0  0  0  0  0  0  0
   11.2375    5.0501   23.7218 C   0  0  0  0  0  0  0  0  0  0  0  0
   11.2643    7.0355   25.0981 C   0  0  0  0  0  0  0  0  0  0  0  0
   10.0095   -2.4859   23.5686 C   0  0  0  0  0  0  0  0  0  0  0  0
    9.9866    5.4129   23.2228 C   0  0  0  0  0  0  0  0  0  0  0  0
    9.3744    6.5870   23.6614 C   0  0  0  0  0  0  0  0  0  0  0  0
   11.7572    1.3526   23.0947 C   0  0  0  0  0  0  0  0  0  0  0  0
   11.2077    2.5158   23.5109 C   0  0  0  0  0  0  0  0  0  0  0  0
   11.9097    3.8075   23.2713 C   0  0  0  0  0  0  0  0  0  0  0  0
   11.9475    7.9026   26.1009 C   0  0  0  0  0  0  0  0  0  0  0  0
    9.0854   -5.5620   25.2030 C   0  0  0  0  0  0  0  0  0  0  0  0
    8.9842   -4.0622   25.0246 C   0  0  0  0  0  0  0  0  0  0  0  0
   12.9930    3.8749   22.7011 O   0  0  0  0  0  0  0  0  0  0  0  0
    9.3718    4.6106   22.3052 O   0  0  0  0  0  0  0  0  0  0  0  0
    9.4491   -3.7168   23.7206 O   0  0  0  0  0  0  0  0  0  0  0  0
    7.6754    7.1150   23.0059 Br  0  0  0  0  0  0  0  0  0  0  0  0
  1  3  2  0
  1  7  1  0
  2  4  1  0
  2  7  2  0
  3 10  1  0
  4 10  2  0
  5  8  2  0
  5  9  1  0
  6  9  2  0
  6 12  1  0
  7 13  1  0
  8 11  1  0
  8 15  1  0
  9 16  1  0
 10 21  1  0
 11 12  2  0
 11 20  1  0
 12 22  1  0
 13 14  2  0
 14 15  1  0
 15 19  2  0
 17 18  1  0
 18 21  1  0
M  END
