DRR-SHR-2ae5ab8c-7
     RDKit          3D

 22 23  0  0  0  0  0  0  0  0999 V2000
   14.1079   -1.5955   22.7550 C   0  0  0  0  0  0  0  0  0  0  0  0
   12.8740   -2.2392   22.6612 C   0  0  0  0  0  0  0  0  0  0  0  0
   14.1631   -0.2059   22.8630 C   0  0  0  0  0  0  0  0  0  0  0  0
   11.6954   -1.4934   22.6753 C   0  0  0  0  0  0  0  0  0  0  0  0
   11.3230    4.7801   22.4363 C   0  0  0  0  0  0  0  0  0  0  0  0
   10.3519    6.0313   24.2607 C   0  0  0  0  0  0  0  0  0  0  0  0
   12.9845    0.5400   22.8770 C   0  0  0  0  0  0  0  0  0  0  0  0
   12.5801    4.8885   23.0310 C   0  0  0  0  0  0  0  0  0  0  0  0
   10.2089    5.3515   23.0512 C   0  0  0  0  0  0  0  0  0  0  0  0
   11.7506   -0.1038   22.7832 C   0  0  0  0  0  0  0  0  0  0  0  0
   12.7231    5.5683   24.2405 C   0  0  0  0  0  0  0  0  0  0  0  0
   11.6090    6.1397   24.8554 C   0  0  0  0  0  0  0  0  0  0  0  0
   13.0688    1.9898   22.9909 C   0  0  0  0  0  0  0  0  0  0  0  0
   13.7156    2.8008   22.1257 C   0  0  0  0  0  0  0  0  0  0  0  0
   13.7482    4.2718   22.3574 C   0  0  0  0  0  0  0  0  0  0  0  0
    8.8651    5.2357   22.4149 C   0  0  0  0  0  0  0  0  0  0  0  0
    8.8763    1.5622   24.1690 C   0  0  0  0  0  0  0  0  0  0  0  0
    9.6612    0.3100   23.8411 C   0  0  0  0  0  0  0  0  0  0  0  0
   14.6818    4.9776   21.9921 O   0  0  0  0  0  0  0  0  0  0  0  0
   13.9586    5.6672   24.8126 O   0  0  0  0  0  0  0  0  0  0  0  0
   10.5832    0.6010   22.7934 O   0  0  0  0  0  0  0  0  0  0  0  0
   11.7622    7.0703   26.5003 Br  0  0  0  0  0  0  0  0  0  0  0  0
  1  2  2  0
  1  3  1  0
  2  4  1  0
  3  7  2  0
  4 10  2  0
  5  8  2  0
  5  9  1  0
  6  9  2  0
  6 12  1  0
  7 10  1  0
  7 13  1  0
  8 11  1  0
  8 15  1  0
  9 16  1  0
 10 21  1  0
 11 12  2  0
 11 20  1  0
 12 22  1  0
 13 14  2  0
 14 15  1  0
 15 19  2  0
 17 18  1  0
 18 21  1  0
M  END
