DRV-UNK-dd7f8c68-2
     RDKit          3D

 30 33  0  0  1  0  0  0  0  0999 V2000
    3.8161   -5.1460   24.4263 C   0  0  0  0  0  0  0  0  0  0  0  0
    4.8209   -5.5493   25.3249 C   0  0  0  0  0  0  0  0  0  0  0  0
    4.0977   -4.9754   23.0702 C   0  0  0  0  0  0  0  0  0  0  0  0
    6.1267   -5.7876   24.8837 C   0  0  0  0  0  0  0  0  0  0  0  0
    9.7227   -5.3893   24.1968 C   0  0  0  0  0  0  0  0  0  0  0  0
   10.7530   -4.5596   24.6389 C   0  0  0  0  0  0  0  0  0  0  0  0
    8.8973   -3.6117   22.7841 C   0  0  0  0  0  0  0  0  0  0  0  0
    5.3945   -5.2158   22.6603 C   0  0  0  0  0  0  0  0  0  0  0  0
    8.7948   -4.9154   23.2693 C   0  0  0  0  0  0  0  0  0  0  0  0
    6.4055   -5.6099   23.5401 C   0  0  0  0  0  0  0  0  0  0  0  0
   10.8555   -3.2559   24.1537 C   0  0  0  0  0  0  0  0  0  0  0  0
    9.9276   -2.7819   23.2263 C   0  0  0  0  0  0  0  0  0  0  0  0
    5.9646   -5.1226   21.3128 C   0  0  0  0  0  0  0  0  0  0  0  0
   17.0474    0.2269   25.1726 C   0  0  0  0  0  0  0  0  0  0  0  0
   16.5156   -0.8955   25.6612 C   0  0  0  0  0  0  0  0  0  0  0  0
   15.2325   -0.8193   26.3872 C   0  0  0  0  0  0  0  0  0  0  0  0
   11.9634   -2.1666   26.0584 C   0  0  0  0  0  0  0  0  0  0  0  0
   13.1793   -2.4301   23.8920 C   0  0  0  0  0  0  0  0  0  0  0  0
   12.7675   -0.8948   26.3259 C   0  0  0  0  0  0  0  0  0  0  0  0
   13.9485   -1.1470   24.2015 C   0  0  0  0  0  0  0  0  0  0  0  0
    7.6935   -5.8030   22.7967 C   0  0  0  0  0  0  0  0  0  0  0  0
    7.3059   -5.4642   21.4327 N   0  0  0  0  0  0  0  0  0  0  0  0
   11.8979   -2.4422   24.6133 N   0  0  0  0  0  0  0  0  0  0  0  0
   14.0618   -0.9576   25.6504 N   0  0  0  0  0  0  0  0  0  0  0  0
    9.0650   -0.3106   23.7299 N   0  0  0  0  0  0  0  0  0  0  0  0
    5.3430   -4.8047   20.3163 O   0  0  0  0  0  0  0  0  0  0  0  0
   15.2764   -0.6418   27.6058 O   0  0  0  0  0  0  0  0  0  0  0  0
   11.3999   -0.6991   22.7088 O   0  0  0  0  0  0  0  0  0  0  0  0
    9.3531   -1.1229   21.3021 O   0  0  0  0  0  0  0  0  0  0  0  0
   10.0224   -1.1518   22.5933 S   0  0  0  0  0  0  0  0  0  0  0  0
  1  2  2  0
  1  3  1  0
  2  4  1  0
  3  8  2  0
  4 10  2  0
  5  6  2  0
  5  9  1  0
  6 11  1  0
  7  9  2  0
  7 12  1  0
  8 10  1  0
  8 13  1  0
  9 21  1  0
 10 21  1  0
 11 12  2  0
 11 23  1  0
 12 30  1  0
 13 22  1  0
 13 26  2  0
 14 15  2  0
 15 16  1  0
 16 24  1  0
 16 27  2  0
 17 19  1  0
 17 23  1  0
 18 20  1  0
 18 23  1  0
 19 24  1  0
 20 24  1  0
 21 22  1  0
 25 30  1  0
 28 30  2  0
 29 30  2  0
M  END
