DRV-DNY-5c7d8ee8-12
     RDKit          3D

 27 30  0  0  0  0  0  0  0  0999 V2000
    9.9259   -4.0739   24.0340 C   0  0  0  0  0  0  0  0  0  0  0  0
    9.0227   -4.9354   24.6661 C   0  0  0  0  0  0  0  0  0  0  0  0
   10.0335    1.8473   24.6132 C   0  0  0  0  0  0  0  0  0  0  0  0
   10.1196    4.2870   24.8180 C   0  0  0  0  0  0  0  0  0  0  0  0
    7.8974   -3.0776   25.7830 C   0  0  0  0  0  0  0  0  0  0  0  0
   11.7928    5.5139   23.6047 C   0  0  0  0  0  0  0  0  0  0  0  0
   10.6100    3.0822   24.2865 C   0  0  0  0  0  0  0  0  0  0  0  0
   10.5411    0.6751   24.0717 C   0  0  0  0  0  0  0  0  0  0  0  0
    8.7949   -2.2006   25.1574 C   0  0  0  0  0  0  0  0  0  0  0  0
   11.7080    3.0889   23.4008 C   0  0  0  0  0  0  0  0  0  0  0  0
   10.7112    5.4998   24.4766 C   0  0  0  0  0  0  0  0  0  0  0  0
   12.2802    4.3159   23.0765 C   0  0  0  0  0  0  0  0  0  0  0  0
    9.7656   -2.7229   24.3155 C   0  0  0  0  0  0  0  0  0  0  0  0
    8.0279   -4.4496   25.5236 C   0  0  0  0  0  0  0  0  0  0  0  0
   11.6175    0.7818   23.2146 C   0  0  0  0  0  0  0  0  0  0  0  0
    9.9362   -0.5886   24.4177 C   0  0  0  0  0  0  0  0  0  0  0  0
   12.2026    1.9529   22.8738 N   0  0  0  0  0  0  0  0  0  0  0  0
    8.9175   -0.8333   25.2123 N   0  0  0  0  0  0  0  0  0  0  0  0
   10.2120    6.7145   25.0161 N   0  0  0  0  0  0  0  0  0  0  0  0
   13.3917    4.3806   22.1862 N   0  0  0  0  0  0  0  0  0  0  0  0
    9.2340    6.6747   25.8014 O   0  0  0  0  0  0  0  0  0  0  0  0
   10.7626    7.7950   24.6936 O   0  0  0  0  0  0  0  0  0  0  0  0
   13.8825    5.5003   21.9158 O   0  0  0  0  0  0  0  0  0  0  0  0
   13.8406    3.3157   21.7045 O   0  0  0  0  0  0  0  0  0  0  0  0
   10.5058   -1.6807   23.8353 O   0  0  0  0  0  0  0  0  0  0  0  0
   12.3569   -0.5820   22.4643 Cl  0  0  0  0  0  0  0  0  0  0  0  0
    6.8350   -5.6661   26.3497 Br  0  0  0  0  0  0  0  0  0  0  0  0
  1  2  2  0
  1 13  1  0
  2 14  1  0
  3  7  2  0
  3  8  1  0
  4  7  1  0
  4 11  2  0
  5  9  1  0
  5 14  2  0
  6 11  1  0
  6 12  2  0
  7 10  1  0
  8 15  2  0
  8 16  1  0
  9 13  2  0
  9 18  1  0
 10 12  1  0
 10 17  2  0
 11 19  1  0
 12 20  1  0
 13 25  1  0
 14 27  1  0
 15 17  1  0
 15 26  1  0
 16 18  2  0
 16 25  1  0
 19 21  1  0
 19 22  2  0
 20 23  1  0
 20 24  2  0
M  CHG  4  19   1  20   1  21  -1  23  -1
M  END
