DRV-DNY-5c7d8ee8-1
     RDKit          3D

 19 22  0  0  1  0  0  0  0  0999 V2000
    5.2993    1.2872   18.8542 C   0  0  0  0  0  0  0  0  0  0  0  0
    5.1921    1.3502   20.2356 C   0  0  0  0  0  0  0  0  0  0  0  0
    6.4413    0.7339   18.2778 C   0  0  0  0  0  0  0  0  0  0  0  0
    6.2280    0.8597   21.0286 C   0  0  0  0  0  0  0  0  0  0  0  0
    9.5486   -0.7497   19.2858 C   0  0  0  0  0  0  0  0  0  0  0  0
    7.4821    0.2408   19.0613 C   0  0  0  0  0  0  0  0  0  0  0  0
    7.3734    0.3049   20.4626 C   0  0  0  0  0  0  0  0  0  0  0  0
    9.4429   -0.6871   20.6498 C   0  0  0  0  0  0  0  0  0  0  0  0
   14.0071   -0.4805   23.3540 C   0  0  0  0  0  0  0  0  0  0  0  0
   13.0968   -0.0302   24.3752 C   0  0  0  0  0  0  0  0  0  0  0  0
   13.6467   -1.3986   22.4470 C   0  0  0  0  0  0  0  0  0  0  0  0
   11.8506   -0.5135   24.4665 C   0  0  0  0  0  0  0  0  0  0  0  0
   10.4923   -1.1836   21.5185 C   0  0  0  0  0  0  0  0  0  0  0  0
   12.2847   -2.0369   22.4335 C   0  0  0  0  0  0  0  0  0  0  0  0
   11.3203   -1.5631   23.5324 C   0  0  0  0  0  0  0  0  0  0  0  0
    8.5738   -0.2884   18.4817 N   0  0  0  0  0  0  0  0  0  0  0  0
    8.3592   -0.1617   21.2490 N   0  0  0  0  0  0  0  0  0  0  0  0
   11.6082   -1.7225   21.1639 N   0  0  0  0  0  0  0  0  0  0  0  0
   10.2028   -1.0286   22.8267 O   0  0  0  0  0  0  0  0  0  0  0  0
  1  2  2  0
  1  3  1  0
  2  4  1  0
  3  6  2  0
  4  7  2  0
  5  8  1  0
  5 16  2  0
  6  7  1  0
  6 16  1  0
  7 17  1  0
  8 13  1  0
  8 17  2  0
  9 10  1  0
  9 11  2  0
 10 12  2  0
 11 14  1  0
 12 15  1  0
 13 18  2  0
 13 19  1  0
 14 15  1  0
 14 18  1  0
 15 19  1  0
M  END
