DRV-DNY-3e405af9-3
     RDKit          3D

 34 38  0  0  0  0  0  0  0  0999 V2000
    3.0907    2.8178   21.1310 C   0  0  0  0  0  0  0  0  0  0  0  0
    3.9445    2.2668   22.0820 C   0  0  0  0  0  0  0  0  0  0  0  0
    5.8800    1.0088   17.5787 C   0  0  0  0  0  0  0  0  0  0  0  0
    3.3545    2.6453   19.7720 C   0  0  0  0  0  0  0  0  0  0  0  0
    5.0654    1.5412   21.6776 C   0  0  0  0  0  0  0  0  0  0  0  0
    4.7591    1.7343   17.9831 C   0  0  0  0  0  0  0  0  0  0  0  0
    6.7338    0.4579   18.5297 C   0  0  0  0  0  0  0  0  0  0  0  0
   11.1820    0.4324   23.0676 C   0  0  0  0  0  0  0  0  0  0  0  0
   11.1703   -1.9045   22.4545 C   0  0  0  0  0  0  0  0  0  0  0  0
    8.2798   -3.4875   23.0604 C   0  0  0  0  0  0  0  0  0  0  0  0
    8.2379   -4.4604   24.0591 C   0  0  0  0  0  0  0  0  0  0  0  0
   12.4614    0.2854   23.6034 C   0  0  0  0  0  0  0  0  0  0  0  0
   12.4498   -2.0515   22.9903 C   0  0  0  0  0  0  0  0  0  0  0  0
    7.7638   -2.7536   25.7020 C   0  0  0  0  0  0  0  0  0  0  0  0
    8.7761    0.3049   20.9213 C   0  0  0  0  0  0  0  0  0  0  0  0
    4.4782    1.9179   19.3468 C   0  0  0  0  0  0  0  0  0  0  0  0
    5.3464    1.3577   20.3139 C   0  0  0  0  0  0  0  0  0  0  0  0
   10.5364   -0.6626   22.4932 C   0  0  0  0  0  0  0  0  0  0  0  0
    6.4700    0.6303   19.8888 C   0  0  0  0  0  0  0  0  0  0  0  0
    8.0637   -2.1476   23.3826 C   0  0  0  0  0  0  0  0  0  0  0  0
    7.9799   -4.0935   25.3798 C   0  0  0  0  0  0  0  0  0  0  0  0
    7.8057   -1.7807   24.7033 C   0  0  0  0  0  0  0  0  0  0  0  0
   13.0953   -0.9565   23.5647 C   0  0  0  0  0  0  0  0  0  0  0  0
    7.3994    0.0308   20.8150 C   0  0  0  0  0  0  0  0  0  0  0  0
    9.2111   -0.5104   21.9374 C   0  0  0  0  0  0  0  0  0  0  0  0
    6.9871   -0.8871   21.6934 N   0  0  0  0  0  0  0  0  0  0  0  0
    8.1114   -1.1968   22.3613 N   0  0  0  0  0  0  0  0  0  0  0  0
    7.9367   -5.0843   26.3963 N   0  0  0  0  0  0  0  0  0  0  0  0
    7.5799   -0.4215   25.0636 N   0  0  0  0  0  0  0  0  0  0  0  0
    8.1332   -6.2837   26.0847 O   0  0  0  0  0  0  0  0  0  0  0  0
    7.7034   -4.7331   27.5780 O   0  0  0  0  0  0  0  0  0  0  0  0
    7.3514   -0.1449   26.2639 O   0  0  0  0  0  0  0  0  0  0  0  0
    7.6173    0.4546   24.1689 O   0  0  0  0  0  0  0  0  0  0  0  0
   14.3244   -1.0975   24.0783 F   0  0  0  0  0  0  0  0  0  0  0  0
  1  2  2  0
  1  4  1  0
  2  5  1  0
  3  6  2  0
  3  7  1  0
  4 16  2  0
  5 17  2  0
  6 16  1  0
  7 19  2  0
  8 12  2  0
  8 18  1  0
  9 13  1  0
  9 18  2  0
 10 11  2  0
 10 20  1  0
 11 21  1  0
 12 23  1  0
 13 23  2  0
 14 21  2  0
 14 22  1  0
 15 24  1  0
 15 25  2  0
 16 17  1  0
 17 19  1  0
 18 25  1  0
 19 24  1  0
 20 22  2  0
 20 27  1  0
 21 28  1  0
 22 29  1  0
 23 34  1  0
 24 26  2  0
 25 27  1  0
 26 27  1  0
 28 30  1  0
 28 31  2  0
 29 32  1  0
 29 33  2  0
M  CHG  4  28   1  29   1  30  -1  32  -1
M  END
