DRV-DNY-3e405af9-2
     RDKit          3D

 34 38  0  0  0  0  0  0  0  0999 V2000
    1.0169    3.0085   19.5926 C   0  0  0  0  0  0  0  0  0  0  0  0
    0.8273    2.6519   20.9244 C   0  0  0  0  0  0  0  0  0  0  0  0
    2.2259    2.7217   18.9580 C   0  0  0  0  0  0  0  0  0  0  0  0
    1.8458    2.0070   21.6268 C   0  0  0  0  0  0  0  0  0  0  0  0
    4.4852    1.7766   19.0267 C   0  0  0  0  0  0  0  0  0  0  0  0
    5.5038    1.1319   19.7290 C   0  0  0  0  0  0  0  0  0  0  0  0
   10.4232   -0.0667   23.6769 C   0  0  0  0  0  0  0  0  0  0  0  0
   10.3657   -1.8854   22.0875 C   0  0  0  0  0  0  0  0  0  0  0  0
    7.4014   -3.4237   23.9313 C   0  0  0  0  0  0  0  0  0  0  0  0
    7.4956   -4.3649   24.9564 C   0  0  0  0  0  0  0  0  0  0  0  0
   11.7713   -0.3255   23.9243 C   0  0  0  0  0  0  0  0  0  0  0  0
   11.7138   -2.1442   22.3348 C   0  0  0  0  0  0  0  0  0  0  0  0
    4.1052    1.0621   21.6955 C   0  0  0  0  0  0  0  0  0  0  0  0
    7.5560   -2.5830   26.5869 C   0  0  0  0  0  0  0  0  0  0  0  0
    7.7486    0.2524   21.5712 C   0  0  0  0  0  0  0  0  0  0  0  0
    3.2620    2.0732   19.6496 C   0  0  0  0  0  0  0  0  0  0  0  0
    3.0691    1.7105   21.0039 C   0  0  0  0  0  0  0  0  0  0  0  0
    9.7203   -0.8467   22.7585 C   0  0  0  0  0  0  0  0  0  0  0  0
    5.3141    0.7753   21.0609 C   0  0  0  0  0  0  0  0  0  0  0  0
    7.3845   -2.0621   24.2340 C   0  0  0  0  0  0  0  0  0  0  0  0
    7.5729   -3.9446   26.2842 C   0  0  0  0  0  0  0  0  0  0  0  0
    7.4618   -1.6418   25.5618 C   0  0  0  0  0  0  0  0  0  0  0  0
   12.4166   -1.3642   23.2532 C   0  0  0  0  0  0  0  0  0  0  0  0
    6.3639    0.1119   21.7823 C   0  0  0  0  0  0  0  0  0  0  0  0
    8.3238   -0.5782   22.5016 C   0  0  0  0  0  0  0  0  0  0  0  0
    6.0767   -0.7410   22.7692 N   0  0  0  0  0  0  0  0  0  0  0  0
    7.2890   -1.1440   23.1865 N   0  0  0  0  0  0  0  0  0  0  0  0
    7.6681   -4.9031   27.3278 N   0  0  0  0  0  0  0  0  0  0  0  0
    7.4457   -0.2592   25.9029 N   0  0  0  0  0  0  0  0  0  0  0  0
    7.6811   -6.1227   27.0335 O   0  0  0  0  0  0  0  0  0  0  0  0
    7.7370   -4.5040   28.5153 O   0  0  0  0  0  0  0  0  0  0  0  0
    7.5166    0.0656   27.1107 O   0  0  0  0  0  0  0  0  0  0  0  0
    7.3616    0.5885   24.9843 O   0  0  0  0  0  0  0  0  0  0  0  0
   13.7115   -1.6122   23.4900 F   0  0  0  0  0  0  0  0  0  0  0  0
  1  2  2  0
  1  3  1  0
  2  4  1  0
  3 16  2  0
  4 17  2  0
  5  6  2  0
  5 16  1  0
  6 19  1  0
  7 11  2  0
  7 18  1  0
  8 12  1  0
  8 18  2  0
  9 10  2  0
  9 20  1  0
 10 21  1  0
 11 23  1  0
 12 23  2  0
 13 17  1  0
 13 19  2  0
 14 21  2  0
 14 22  1  0
 15 24  1  0
 15 25  2  0
 16 17  1  0
 18 25  1  0
 19 24  1  0
 20 22  2  0
 20 27  1  0
 21 28  1  0
 22 29  1  0
 23 34  1  0
 24 26  2  0
 25 27  1  0
 26 27  1  0
 28 30  1  0
 28 31  2  0
 29 32  1  0
 29 33  2  0
M  CHG  4  28   1  29   1  30  -1  32  -1
M  END
