DRV-DNY-ae159ed1-1
     RDKit          3D

 20 22  0  0  0  0  0  0  0  0999 V2000
   13.9079   -2.5094   23.2068 C   0  0  0  0  0  0  0  0  0  0  0  0
   13.4199   -2.1929   21.9390 C   0  0  0  0  0  0  0  0  0  0  0  0
   13.8625   -1.5607   24.2284 C   0  0  0  0  0  0  0  0  0  0  0  0
    4.5498    1.2495   18.4399 C   0  0  0  0  0  0  0  0  0  0  0  0
    4.3722    1.6250   19.7631 C   0  0  0  0  0  0  0  0  0  0  0  0
   12.8866   -0.9277   21.6928 C   0  0  0  0  0  0  0  0  0  0  0  0
   13.3292   -0.2955   23.9822 C   0  0  0  0  0  0  0  0  0  0  0  0
    5.8109    0.8488   18.0022 C   0  0  0  0  0  0  0  0  0  0  0  0
    5.4574    1.5971   20.6372 C   0  0  0  0  0  0  0  0  0  0  0  0
    9.1275    0.4153   19.3000 C   0  0  0  0  0  0  0  0  0  0  0  0
   12.8413    0.0210   22.7144 C   0  0  0  0  0  0  0  0  0  0  0  0
    6.9019    0.8173   18.8676 C   0  0  0  0  0  0  0  0  0  0  0  0
    6.7218    1.1984   20.2099 C   0  0  0  0  0  0  0  0  0  0  0  0
    8.9523    0.7865   20.6066 C   0  0  0  0  0  0  0  0  0  0  0  0
   10.0538    0.7719   21.5505 C   0  0  0  0  0  0  0  0  0  0  0  0
   11.2034    1.4763   21.4233 C   0  0  0  0  0  0  0  0  0  0  0  0
   12.2744    1.3659   22.4525 C   0  0  0  0  0  0  0  0  0  0  0  0
    8.1088    0.4270   18.4216 N   0  0  0  0  0  0  0  0  0  0  0  0
    7.7532    1.1799   21.0723 N   0  0  0  0  0  0  0  0  0  0  0  0
   12.6752    2.3301   23.0951 O   0  0  0  0  0  0  0  0  0  0  0  0
  1  2  2  0
  1  3  1  0
  2  6  1  0
  3  7  2  0
  4  5  2  0
  4  8  1  0
  5  9  1  0
  6 11  2  0
  7 11  1  0
  8 12  2  0
  9 13  2  0
 10 14  1  0
 10 18  2  0
 11 17  1  0
 12 13  1  0
 12 18  1  0
 13 19  1  0
 14 15  1  0
 14 19  2  0
 15 16  2  0
 16 17  1  0
 17 20  2  0
M  END
