DRV-DNY-3e405af9-5
     RDKit          3D

 30 33  0  0  0  0  0  0  0  0999 V2000
    5.9344    1.7107   18.7511 C   0  0  0  0  0  0  0  0  0  0  0  0
    6.4932    1.1202   19.8791 C   0  0  0  0  0  0  0  0  0  0  0  0
    7.9650   -3.7297   23.8179 C   0  0  0  0  0  0  0  0  0  0  0  0
    8.7343   -1.8664   25.1496 C   0  0  0  0  0  0  0  0  0  0  0  0
   11.4680   -2.3289   22.9751 C   0  0  0  0  0  0  0  0  0  0  0  0
   12.7366   -2.4384   23.5445 C   0  0  0  0  0  0  0  0  0  0  0  0
    7.8917   -4.5195   24.9653 C   0  0  0  0  0  0  0  0  0  0  0  0
    8.6609   -2.6561   26.2970 C   0  0  0  0  0  0  0  0  0  0  0  0
   12.8141   -0.0409   23.8328 C   0  0  0  0  0  0  0  0  0  0  0  0
    7.4713   -1.2316   21.8405 C   0  0  0  0  0  0  0  0  0  0  0  0
    6.4380    1.3478   17.5123 C   0  0  0  0  0  0  0  0  0  0  0  0
    7.9561   -0.0973   18.4530 C   0  0  0  0  0  0  0  0  0  0  0  0
    8.3864   -2.4032   23.9100 C   0  0  0  0  0  0  0  0  0  0  0  0
    7.5239    0.1980   19.7359 C   0  0  0  0  0  0  0  0  0  0  0  0
   10.8725   -1.0754   22.8344 C   0  0  0  0  0  0  0  0  0  0  0  0
   13.4097   -1.2944   23.9734 C   0  0  0  0  0  0  0  0  0  0  0  0
   11.5455    0.0686   23.2633 C   0  0  0  0  0  0  0  0  0  0  0  0
    8.2396   -3.9827   26.2048 C   0  0  0  0  0  0  0  0  0  0  0  0
    8.1230   -0.4298   20.8844 C   0  0  0  0  0  0  0  0  0  0  0  0
    8.4616   -1.5861   22.7238 C   0  0  0  0  0  0  0  0  0  0  0  0
    7.4380    0.4559   17.3336 N   0  0  0  0  0  0  0  0  0  0  0  0
    9.4265   -0.2834   21.1365 N   0  0  0  0  0  0  0  0  0  0  0  0
    9.6018   -0.9978   22.2612 N   0  0  0  0  0  0  0  0  0  0  0  0
   14.7010   -1.4062   24.5538 N   0  0  0  0  0  0  0  0  0  0  0  0
   10.9636    1.3620   23.1345 N   0  0  0  0  0  0  0  0  0  0  0  0
   15.2181   -2.5433   24.6714 O   0  0  0  0  0  0  0  0  0  0  0  0
   15.2894   -0.3649   24.9327 O   0  0  0  0  0  0  0  0  0  0  0  0
   11.6095    2.3575   23.5363 O   0  0  0  0  0  0  0  0  0  0  0  0
    9.8245    1.4635   22.6230 O   0  0  0  0  0  0  0  0  0  0  0  0
    8.1682   -4.7408   27.3069 F   0  0  0  0  0  0  0  0  0  0  0  0
  1  2  2  0
  1 11  1  0
  2 14  1  0
  3  7  2  0
  3 13  1  0
  4  8  1  0
  4 13  2  0
  5  6  2  0
  5 15  1  0
  6 16  1  0
  7 18  1  0
  8 18  2  0
  9 16  2  0
  9 17  1  0
 10 19  1  0
 10 20  2  0
 11 21  2  0
 12 14  2  0
 12 21  1  0
 13 20  1  0
 14 19  1  0
 15 17  2  0
 15 23  1  0
 16 24  1  0
 17 25  1  0
 18 30  1  0
 19 22  2  0
 20 23  1  0
 22 23  1  0
 24 26  1  0
 24 27  2  0
 25 28  1  0
 25 29  2  0
M  CHG  4  24   1  25   1  26  -1  28  -1
M  END
