DRV-DNY-ae159ed1-19
     RDKit          3D

 24 27  0  0  0  0  0  0  0  0999 V2000
    7.8136    7.0024   23.1411 C   0  0  0  0  0  0  0  0  0  0  0  0
    8.4065    5.9134   22.5091 C   0  0  0  0  0  0  0  0  0  0  0  0
    9.0426   -3.1256   24.0000 C   0  0  0  0  0  0  0  0  0  0  0  0
    8.3949   -2.0760   24.6343 C   0  0  0  0  0  0  0  0  0  0  0  0
   11.7963    7.5846   25.8744 C   0  0  0  0  0  0  0  0  0  0  0  0
    8.5046    7.6935   24.1368 C   0  0  0  0  0  0  0  0  0  0  0  0
    9.6927    5.5113   22.8703 C   0  0  0  0  0  0  0  0  0  0  0  0
   10.5102    7.9867   25.5132 C   0  0  0  0  0  0  0  0  0  0  0  0
   12.3893    6.4956   25.2424 C   0  0  0  0  0  0  0  0  0  0  0  0
   10.2338   -2.8864   23.3171 C   0  0  0  0  0  0  0  0  0  0  0  0
    8.9438   -0.7960   24.5798 C   0  0  0  0  0  0  0  0  0  0  0  0
   12.4344   -0.1543   22.5654 C   0  0  0  0  0  0  0  0  0  0  0  0
    9.8000    7.3027   24.5131 C   0  0  0  0  0  0  0  0  0  0  0  0
   10.4029    6.1953   23.8704 C   0  0  0  0  0  0  0  0  0  0  0  0
   11.6983    5.8044   24.2467 C   0  0  0  0  0  0  0  0  0  0  0  0
   10.7908   -1.6111   23.2568 C   0  0  0  0  0  0  0  0  0  0  0  0
   10.1337   -0.5462   23.9000 C   0  0  0  0  0  0  0  0  0  0  0  0
   11.7947    0.8822   23.1914 C   0  0  0  0  0  0  0  0  0  0  0  0
   12.3391    2.2511   23.1602 C   0  0  0  0  0  0  0  0  0  0  0  0
   11.7567    3.3142   23.7342 C   0  0  0  0  0  0  0  0  0  0  0  0
   12.3855    4.6722   23.6316 C   0  0  0  0  0  0  0  0  0  0  0  0
   11.9411   -1.4055   22.5917 N   0  0  0  0  0  0  0  0  0  0  0  0
   10.6433    0.6974   23.8618 N   0  0  0  0  0  0  0  0  0  0  0  0
   13.4478    4.8369   23.0189 O   0  0  0  0  0  0  0  0  0  0  0  0
  1  2  2  0
  1  6  1  0
  2  7  1  0
  3  4  2  0
  3 10  1  0
  4 11  1  0
  5  8  2  0
  5  9  1  0
  6 13  2  0
  7 14  2  0
  8 13  1  0
  9 15  2  0
 10 16  2  0
 11 17  2  0
 12 18  1  0
 12 22  2  0
 13 14  1  0
 14 15  1  0
 15 21  1  0
 16 17  1  0
 16 22  1  0
 17 23  1  0
 18 19  1  0
 18 23  2  0
 19 20  2  0
 20 21  1  0
 21 24  2  0
M  END
