DRV-UNK-64047f27-6
     RDKit          3D

 34 38  0  0  1  0  0  0  0  0999 V2000
    4.7620   -4.3696   24.6055 C   0  0  0  0  0  0  0  0  0  0  0  0
    5.7298   -4.0220   25.5658 C   0  0  0  0  0  0  0  0  0  0  0  0
    5.1370   -4.7140   23.3062 C   0  0  0  0  0  0  0  0  0  0  0  0
    7.0909   -4.0106   25.2434 C   0  0  0  0  0  0  0  0  0  0  0  0
    8.9780   -1.9924   22.7992 C   0  0  0  0  0  0  0  0  0  0  0  0
    9.6687   -0.7806   22.8068 C   0  0  0  0  0  0  0  0  0  0  0  0
   10.8422   -3.0619   23.9028 C   0  0  0  0  0  0  0  0  0  0  0  0
   10.9477    7.2367   25.1487 C   0  0  0  0  0  0  0  0  0  0  0  0
   12.2451    6.8723   25.4341 C   0  0  0  0  0  0  0  0  0  0  0  0
   10.9209    5.7689   23.3954 C   0  0  0  0  0  0  0  0  0  0  0  0
    6.4865   -4.6938   23.0131 C   0  0  0  0  0  0  0  0  0  0  0  0
    9.5648   -3.1331   23.3473 C   0  0  0  0  0  0  0  0  0  0  0  0
    7.4598   -4.3444   23.9524 C   0  0  0  0  0  0  0  0  0  0  0  0
   10.9461   -0.7094   23.3624 C   0  0  0  0  0  0  0  0  0  0  0  0
   11.5330   -1.8500   23.9104 C   0  0  0  0  0  0  0  0  0  0  0  0
   12.2186    5.4049   23.6802 C   0  0  0  0  0  0  0  0  0  0  0  0
    7.1572   -5.0116   21.7487 C   0  0  0  0  0  0  0  0  0  0  0  0
   12.9251    4.3980   22.8781 C   0  0  0  0  0  0  0  0  0  0  0  0
   10.9873    1.6462   24.0617 C   0  0  0  0  0  0  0  0  0  0  0  0
   12.4818    0.8663   22.2189 C   0  0  0  0  0  0  0  0  0  0  0  0
   12.0320    2.6965   24.4348 C   0  0  0  0  0  0  0  0  0  0  0  0
   13.5005    1.9273   22.6309 C   0  0  0  0  0  0  0  0  0  0  0  0
    8.8258   -4.4284   23.3392 C   0  0  0  0  0  0  0  0  0  0  0  0
   10.2623    6.6916   24.1243 N   0  0  0  0  0  0  0  0  0  0  0  0
   12.9038    5.9498   24.7049 N   0  0  0  0  0  0  0  0  0  0  0  0
    8.5170   -4.8388   21.9747 N   0  0  0  0  0  0  0  0  0  0  0  0
   11.6193    0.5179   23.3573 N   0  0  0  0  0  0  0  0  0  0  0  0
   12.8283    3.0622   23.2678 N   0  0  0  0  0  0  0  0  0  0  0  0
   14.0972   -2.1650   23.2545 N   0  0  0  0  0  0  0  0  0  0  0  0
    6.5896   -5.3557   20.7289 O   0  0  0  0  0  0  0  0  0  0  0  0
   13.5651    4.8192   21.9158 O   0  0  0  0  0  0  0  0  0  0  0  0
   13.4049   -0.4349   25.0358 O   0  0  0  0  0  0  0  0  0  0  0  0
   13.2449   -2.8908   25.5748 O   0  0  0  0  0  0  0  0  0  0  0  0
   13.1344   -1.8014   24.6172 S   0  0  0  0  0  0  0  0  0  0  0  0
  1  2  2  0
  1  3  1  0
  2  4  1  0
  3 11  2  0
  4 13  2  0
  5  6  2  0
  5 12  1  0
  6 14  1  0
  7 12  2  0
  7 15  1  0
  8  9  2  0
  8 24  1  0
  9 25  1  0
 10 16  1  0
 10 24  2  0
 11 13  1  0
 11 17  1  0
 12 23  1  0
 13 23  1  0
 14 15  2  0
 14 27  1  0
 15 34  1  0
 16 18  1  0
 16 25  2  0
 17 26  1  0
 17 30  2  0
 18 28  1  0
 18 31  2  0
 19 21  1  0
 19 27  1  0
 20 22  1  0
 20 27  1  0
 21 28  1  0
 22 28  1  0
 23 26  1  0
 29 34  1  0
 32 34  2  0
 33 34  2  0
M  END
