DRV-DNY-3e405af9-6
     RDKit          3D

 30 33  0  0  0  0  0  0  0  0999 V2000
   10.9175    0.8979   22.6948 C   0  0  0  0  0  0  0  0  0  0  0  0
    9.0918    1.7798   24.0086 C   0  0  0  0  0  0  0  0  0  0  0  0
    8.4322   -0.6998   20.2841 C   0  0  0  0  0  0  0  0  0  0  0  0
    7.9352   -0.0966   19.1289 C   0  0  0  0  0  0  0  0  0  0  0  0
   11.4599    2.1786   22.5888 C   0  0  0  0  0  0  0  0  0  0  0  0
    9.6342    3.0605   23.9026 C   0  0  0  0  0  0  0  0  0  0  0  0
    7.9819   -3.9963   26.0391 C   0  0  0  0  0  0  0  0  0  0  0  0
    8.7766   -5.1153   24.0641 C   0  0  0  0  0  0  0  0  0  0  0  0
    6.0894    0.8106   20.3966 C   0  0  0  0  0  0  0  0  0  0  0  0
    9.3901   -1.5922   24.4664 C   0  0  0  0  0  0  0  0  0  0  0  0
    7.8697   -5.2424   26.6345 C   0  0  0  0  0  0  0  0  0  0  0  0
    8.6290   -6.3113   24.7479 C   0  0  0  0  0  0  0  0  0  0  0  0
    9.7334    0.6985   23.4046 C   0  0  0  0  0  0  0  0  0  0  0  0
    8.4448   -3.9403   24.7292 C   0  0  0  0  0  0  0  0  0  0  0  0
    7.7578   -0.5479   21.4957 C   0  0  0  0  0  0  0  0  0  0  0  0
    6.7638    0.6587   19.1851 C   0  0  0  0  0  0  0  0  0  0  0  0
    6.5864    0.2074   21.5519 C   0  0  0  0  0  0  0  0  0  0  0  0
   10.8183    3.2599   23.1927 C   0  0  0  0  0  0  0  0  0  0  0  0
    8.5797   -2.6708   24.0641 C   0  0  0  0  0  0  0  0  0  0  0  0
    9.1728   -0.6259   23.5149 C   0  0  0  0  0  0  0  0  0  0  0  0
    8.1824   -6.4055   26.0205 N   0  0  0  0  0  0  0  0  0  0  0  0
    7.8983   -2.4141   22.9443 N   0  0  0  0  0  0  0  0  0  0  0  0
    8.2800   -1.1632   22.6349 N   0  0  0  0  0  0  0  0  0  0  0  0
    6.2584    1.2734   18.0089 N   0  0  0  0  0  0  0  0  0  0  0  0
    5.8760    0.3819   22.7738 N   0  0  0  0  0  0  0  0  0  0  0  0
    6.8809    1.1245   16.9297 O   0  0  0  0  0  0  0  0  0  0  0  0
    5.2030    1.9481   18.0810 O   0  0  0  0  0  0  0  0  0  0  0  0
    4.8295    1.0706   22.7707 O   0  0  0  0  0  0  0  0  0  0  0  0
    6.3197   -0.1590   23.8130 O   0  0  0  0  0  0  0  0  0  0  0  0
   11.3397    4.4897   23.0919 F   0  0  0  0  0  0  0  0  0  0  0  0
  1  5  2  0
  1 13  1  0
  2  6  1  0
  2 13  2  0
  3  4  2  0
  3 15  1  0
  4 16  1  0
  5 18  1  0
  6 18  2  0
  7 11  2  0
  7 14  1  0
  8 12  1  0
  8 14  2  0
  9 16  2  0
  9 17  1  0
 10 19  1  0
 10 20  2  0
 11 21  1  0
 12 21  2  0
 13 20  1  0
 14 19  1  0
 15 17  2  0
 15 23  1  0
 16 24  1  0
 17 25  1  0
 18 30  1  0
 19 22  2  0
 20 23  1  0
 22 23  1  0
 24 26  1  0
 24 27  2  0
 25 28  1  0
 25 29  2  0
M  CHG  4  24   1  25   1  26  -1  28  -1
M  END
