DRV-UNK-64047f27-8
     RDKit          3D

 27 30  0  0  1  0  0  0  0  0999 V2000
    4.3720   -5.4876   24.5828 C   0  0  0  0  0  0  0  0  0  0  0  0
    5.4738   -5.6548   25.4418 C   0  0  0  0  0  0  0  0  0  0  0  0
    4.5550   -5.3412   23.2072 C   0  0  0  0  0  0  0  0  0  0  0  0
    6.7795   -5.6766   24.9405 C   0  0  0  0  0  0  0  0  0  0  0  0
   10.2065   -4.6731   24.0408 C   0  0  0  0  0  0  0  0  0  0  0  0
   11.0869   -3.6488   24.3890 C   0  0  0  0  0  0  0  0  0  0  0  0
    9.0059   -3.1510   22.5990 C   0  0  0  0  0  0  0  0  0  0  0  0
    5.8537   -5.3651   22.7377 C   0  0  0  0  0  0  0  0  0  0  0  0
    9.1660   -4.4242   23.1457 C   0  0  0  0  0  0  0  0  0  0  0  0
    6.9591   -5.5231   23.5772 C   0  0  0  0  0  0  0  0  0  0  0  0
   10.9268   -2.3756   23.8423 C   0  0  0  0  0  0  0  0  0  0  0  0
    9.8863   -2.1267   22.9473 C   0  0  0  0  0  0  0  0  0  0  0  0
    6.3347   -5.2421   21.3582 C   0  0  0  0  0  0  0  0  0  0  0  0
   11.5792   -0.4931   25.3539 C   0  0  0  0  0  0  0  0  0  0  0  0
   13.2154   -1.4154   23.7661 C   0  0  0  0  0  0  0  0  0  0  0  0
   12.4080   -0.9692   26.5410 C   0  0  0  0  0  0  0  0  0  0  0  0
   14.0848   -1.9106   24.9201 C   0  0  0  0  0  0  0  0  0  0  0  0
    8.2251   -5.5198   22.7735 C   0  0  0  0  0  0  0  0  0  0  0  0
   14.7562   -1.4104   27.2746 C   0  0  0  0  0  0  0  0  0  0  0  0
    7.7198   -5.3293   21.4192 N   0  0  0  0  0  0  0  0  0  0  0  0
   11.8171   -1.3706   24.2056 N   0  0  0  0  0  0  0  0  0  0  0  0
    8.6104    0.1715   23.3887 N   0  0  0  0  0  0  0  0  0  0  0  0
   13.8661   -1.0215   26.1278 N   0  0  0  0  0  0  0  0  0  0  0  0
    5.6203   -5.0949   20.3843 O   0  0  0  0  0  0  0  0  0  0  0  0
   10.9276    0.1571   22.2591 O   0  0  0  0  0  0  0  0  0  0  0  0
    8.9304   -0.7030   20.9867 O   0  0  0  0  0  0  0  0  0  0  0  0
    9.6523   -0.5422   22.2393 S   0  0  0  0  0  0  0  0  0  0  0  0
  1  2  2  0
  1  3  1  0
  2  4  1  0
  3  8  2  0
  4 10  2  0
  5  6  2  0
  5  9  1  0
  6 11  1  0
  7  9  2  0
  7 12  1  0
  8 10  1  0
  8 13  1  0
  9 18  1  0
 10 18  1  0
 11 12  2  0
 11 21  1  0
 12 27  1  0
 13 20  1  0
 13 24  2  0
 14 16  1  0
 14 21  1  0
 15 17  1  0
 15 21  1  0
 16 23  1  0
 17 23  1  0
 18 20  1  0
 19 23  1  0
 22 27  1  0
 25 27  2  0
 26 27  2  0
M  CHG  1  23   1
M  END
