DRV-UNK-7620afc8-1
     RDKit          3D

 14 14  0  0  1  0  0  0  0  0999 V2000
    7.7548   -5.4600   21.3850 C   0  0  0  0  0  0  0  0  0  0  0  0
    9.6838   -5.2938   24.3787 C   0  0  0  0  0  0  0  0  0  0  0  0
    8.7506   -4.9207   25.3207 C   0  0  0  0  0  0  0  0  0  0  0  0
    8.0654   -5.2638   22.7634 C   0  0  0  0  0  0  0  0  0  0  0  0
    7.1319   -4.8914   23.7054 C   0  0  0  0  0  0  0  0  0  0  0  0
    5.2003   -3.3136   23.6292 C   0  0  0  0  0  0  0  0  0  0  0  0
    4.8079   -6.7152   21.8584 C   0  0  0  0  0  0  0  0  0  0  0  0
    7.5020   -5.6196   20.2637 N   0  0  0  0  0  0  0  0  0  0  0  0
    9.3580   -5.4720   23.0831 N   0  0  0  0  0  0  0  0  0  0  0  0
    7.4579   -4.7128   25.0009 N   0  0  0  0  0  0  0  0  0  0  0  0
    5.7455   -4.6673   23.3644 N   0  0  0  0  0  0  0  0  0  0  0  0
    3.3255   -5.5325   23.6407 O   0  0  0  0  0  0  0  0  0  0  0  0
    5.2192   -6.9912   24.4228 O   0  0  0  0  0  0  0  0  0  0  0  0
    4.6863   -6.0149   23.4911 S   0  0  0  0  0  0  0  0  0  0  0  0
  1  4  1  0
  1  8  3  0
  2  3  2  0
  2  9  1  0
  3 10  1  0
  4  5  1  0
  4  9  2  0
  5 10  2  0
  5 11  1  0
  6 11  1  0
  7 14  1  0
 11 14  1  0
 12 14  2  0
 13 14  2  0
M  END
