DRV-DNY-ae159ed1-20
     RDKit          3D

 21 23  0  0  0  0  0  0  0  0999 V2000
   13.6941   -2.1589   21.9501 C   0  0  0  0  0  0  0  0  0  0  0  0
    4.6200    1.0579   18.9029 C   0  0  0  0  0  0  0  0  0  0  0  0
    4.4728    1.3826   20.2432 C   0  0  0  0  0  0  0  0  0  0  0  0
   14.2421   -2.5283   23.1784 C   0  0  0  0  0  0  0  0  0  0  0  0
   13.1160   -0.8990   21.7950 C   0  0  0  0  0  0  0  0  0  0  0  0
    5.8795    0.7183   18.4120 C   0  0  0  0  0  0  0  0  0  0  0  0
    5.5865    1.3653   21.0811 C   0  0  0  0  0  0  0  0  0  0  0  0
   14.2119   -1.6379   24.2517 C   0  0  0  0  0  0  0  0  0  0  0  0
    9.2502    0.3632   19.5886 C   0  0  0  0  0  0  0  0  0  0  0  0
   13.0857   -0.0086   22.8682 C   0  0  0  0  0  0  0  0  0  0  0  0
    6.9988    0.6978   19.2409 C   0  0  0  0  0  0  0  0  0  0  0  0
    6.8495    1.0274   20.6005 C   0  0  0  0  0  0  0  0  0  0  0  0
   13.6337   -0.3780   24.0966 C   0  0  0  0  0  0  0  0  0  0  0  0
    9.1049    0.6841   20.9121 C   0  0  0  0  0  0  0  0  0  0  0  0
   10.2367    0.6784   21.8197 C   0  0  0  0  0  0  0  0  0  0  0  0
   11.3558    1.4281   21.6804 C   0  0  0  0  0  0  0  0  0  0  0  0
   12.4634    1.3227   22.6708 C   0  0  0  0  0  0  0  0  0  0  0  0
    8.2035    0.3669   18.7438 N   0  0  0  0  0  0  0  0  0  0  0  0
    7.9087    1.0178   21.4288 N   0  0  0  0  0  0  0  0  0  0  0  0
   13.6116    0.5080   25.1967 N   0  0  0  0  0  0  0  0  0  0  0  0
   12.8506    2.2790   23.3331 O   0  0  0  0  0  0  0  0  0  0  0  0
  1  4  2  0
  1  5  1  0
  2  3  2  0
  2  6  1  0
  3  7  1  0
  4  8  1  0
  5 10  2  0
  6 11  2  0
  7 12  2  0
  8 13  2  0
  9 14  1  0
  9 18  2  0
 10 13  1  0
 10 17  1  0
 11 12  1  0
 11 18  1  0
 12 19  1  0
 13 20  1  0
 14 15  1  0
 14 19  2  0
 15 16  2  0
 16 17  1  0
 17 21  2  0
M  END
