DRV-UNK-dd7f8c68-4
     RDKit          3D

 30 33  0  0  1  0  0  0  0  0999 V2000
    6.6606   -5.5653   26.9765 C   0  0  0  0  0  0  0  0  0  0  0  0
    7.7871   -4.8762   27.4621 C   0  0  0  0  0  0  0  0  0  0  0  0
    6.4756   -5.7551   25.6064 C   0  0  0  0  0  0  0  0  0  0  0  0
    8.7485   -4.3623   26.5858 C   0  0  0  0  0  0  0  0  0  0  0  0
   10.2994   -1.9578   24.9722 C   0  0  0  0  0  0  0  0  0  0  0  0
   10.4682   -0.5763   24.8810 C   0  0  0  0  0  0  0  0  0  0  0  0
    9.0703   -1.9451   22.8923 C   0  0  0  0  0  0  0  0  0  0  0  0
    7.4384   -5.2372   24.7624 C   0  0  0  0  0  0  0  0  0  0  0  0
    9.6004   -2.6423   23.9779 C   0  0  0  0  0  0  0  0  0  0  0  0
    8.5590   -4.5445   25.2274 C   0  0  0  0  0  0  0  0  0  0  0  0
    9.9381    0.1209   23.7954 C   0  0  0  0  0  0  0  0  0  0  0  0
    9.2391   -0.5635   22.8010 C   0  0  0  0  0  0  0  0  0  0  0  0
    7.5033   -5.2922   23.2988 C   0  0  0  0  0  0  0  0  0  0  0  0
   10.7321    5.5336   24.3602 C   0  0  0  0  0  0  0  0  0  0  0  0
    9.0975    2.3622   24.3507 C   0  0  0  0  0  0  0  0  0  0  0  0
   11.4814    2.0587   23.6822 C   0  0  0  0  0  0  0  0  0  0  0  0
    9.1248    3.7587   23.7337 C   0  0  0  0  0  0  0  0  0  0  0  0
   11.4688    3.4635   23.0799 C   0  0  0  0  0  0  0  0  0  0  0  0
    9.4204   -4.1194   24.0758 C   0  0  0  0  0  0  0  0  0  0  0  0
   12.1604    6.0160   24.3340 C   0  0  0  0  0  0  0  0  0  0  0  0
    8.6663   -4.6250   22.9349 N   0  0  0  0  0  0  0  0  0  0  0  0
   10.1201    1.5070   23.7268 N   0  0  0  0  0  0  0  0  0  0  0  0
   10.4790    4.3058   23.7538 N   0  0  0  0  0  0  0  0  0  0  0  0
    7.0046    0.6599   22.0166 N   0  0  0  0  0  0  0  0  0  0  0  0
    6.6760   -5.8298   22.5868 O   0  0  0  0  0  0  0  0  0  0  0  0
    9.8699    6.2273   24.9054 O   0  0  0  0  0  0  0  0  0  0  0  0
    9.3073    1.5074   21.2262 O   0  0  0  0  0  0  0  0  0  0  0  0
    8.4227   -0.6748   20.3301 O   0  0  0  0  0  0  0  0  0  0  0  0
   12.2460    7.2625   24.9923 O   0  0  0  0  0  0  0  0  0  0  0  0
    8.5589    0.2758   21.4227 S   0  0  0  0  0  0  0  0  0  0  0  0
  1  2  2  0
  1  3  1  0
  2  4  1  0
  3  8  2  0
  4 10  2  0
  5  6  2  0
  5  9  1  0
  6 11  1  0
  7  9  2  0
  7 12  1  0
  8 10  1  0
  8 13  1  0
  9 19  1  0
 10 19  1  0
 11 12  2  0
 11 22  1  0
 12 30  1  0
 13 21  1  0
 13 25  2  0
 14 20  1  0
 14 23  1  0
 14 26  2  0
 15 17  1  0
 15 22  1  0
 16 18  1  0
 16 22  1  0
 17 23  1  0
 18 23  1  0
 19 21  1  0
 20 29  1  0
 24 30  1  0
 27 30  2  0
 28 30  2  0
M  END
