DRV-DNY-ae159ed1-13
     RDKit          3D

 21 23  0  0  0  0  0  0  0  0999 V2000
    3.7601    1.6280   18.0864 C   0  0  0  0  0  0  0  0  0  0  0  0
    3.4229    1.6460   19.4316 C   0  0  0  0  0  0  0  0  0  0  0  0
    9.2642   -3.9570   24.2613 C   0  0  0  0  0  0  0  0  0  0  0  0
    8.3986   -2.3679   25.8620 C   0  0  0  0  0  0  0  0  0  0  0  0
    5.0166    1.1662   17.6986 C   0  0  0  0  0  0  0  0  0  0  0  0
    4.3454    1.2022   20.3775 C   0  0  0  0  0  0  0  0  0  0  0  0
    8.9604   -5.0017   25.1341 C   0  0  0  0  0  0  0  0  0  0  0  0
    8.0948   -3.4126   26.7349 C   0  0  0  0  0  0  0  0  0  0  0  0
    8.0102   -0.1393   19.1842 C   0  0  0  0  0  0  0  0  0  0  0  0
    8.9834   -2.6400   24.6252 C   0  0  0  0  0  0  0  0  0  0  0  0
    5.9457    0.7205   18.6359 C   0  0  0  0  0  0  0  0  0  0  0  0
    5.6037    0.7389   20.0006 C   0  0  0  0  0  0  0  0  0  0  0  0
    8.3757   -4.7296   26.3709 C   0  0  0  0  0  0  0  0  0  0  0  0
    7.6773   -0.1213   20.5126 C   0  0  0  0  0  0  0  0  0  0  0  0
    8.6064   -0.5743   21.5306 C   0  0  0  0  0  0  0  0  0  0  0  0
    8.2592   -1.1170   22.7217 C   0  0  0  0  0  0  0  0  0  0  0  0
    9.3064   -1.5295   23.6974 C   0  0  0  0  0  0  0  0  0  0  0  0
    7.1516    0.2795   18.2371 N   0  0  0  0  0  0  0  0  0  0  0  0
    6.4763    0.3159   20.9320 N   0  0  0  0  0  0  0  0  0  0  0  0
    8.0685   -5.7859   27.2534 N   0  0  0  0  0  0  0  0  0  0  0  0
   10.3960   -0.9724   23.7721 O   0  0  0  0  0  0  0  0  0  0  0  0
  1  2  2  0
  1  5  1  0
  2  6  1  0
  3  7  2  0
  3 10  1  0
  4  8  1  0
  4 10  2  0
  5 11  2  0
  6 12  2  0
  7 13  1  0
  8 13  2  0
  9 14  1  0
  9 18  2  0
 10 17  1  0
 11 12  1  0
 11 18  1  0
 12 19  1  0
 13 20  1  0
 14 15  1  0
 14 19  2  0
 15 16  2  0
 16 17  1  0
 17 21  2  0
M  END
