DRV-DNY-ae159ed1-9
     RDKit          3D

 23 25  0  0  0  0  0  0  0  0999 V2000
    3.9697   -6.2672   27.9568 C   0  0  0  0  0  0  0  0  0  0  0  0
    3.6485   -4.9678   27.5937 C   0  0  0  0  0  0  0  0  0  0  0  0
   10.7486    0.4168   24.7989 C   0  0  0  0  0  0  0  0  0  0  0  0
    9.7861   -0.3409   24.1318 C   0  0  0  0  0  0  0  0  0  0  0  0
    5.1608   -6.8328   27.5052 C   0  0  0  0  0  0  0  0  0  0  0  0
    4.5211   -4.2452   26.7819 C   0  0  0  0  0  0  0  0  0  0  0  0
   12.1030    0.1284   24.6308 C   0  0  0  0  0  0  0  0  0  0  0  0
   11.5323   -1.6757   23.1286 C   0  0  0  0  0  0  0  0  0  0  0  0
    7.9951   -5.9525   25.4892 C   0  0  0  0  0  0  0  0  0  0  0  0
   10.1780   -1.3872   23.2967 C   0  0  0  0  0  0  0  0  0  0  0  0
    6.0398   -6.1193   26.6937 C   0  0  0  0  0  0  0  0  0  0  0  0
    5.7139   -4.8011   26.3252 C   0  0  0  0  0  0  0  0  0  0  0  0
   12.4948   -0.9179   23.7957 C   0  0  0  0  0  0  0  0  0  0  0  0
    7.6778   -4.6694   25.1304 C   0  0  0  0  0  0  0  0  0  0  0  0
    8.5569   -3.8811   24.2876 C   0  0  0  0  0  0  0  0  0  0  0  0
    8.1563   -2.9255   23.4157 C   0  0  0  0  0  0  0  0  0  0  0  0
    9.1543   -2.1924   22.5879 C   0  0  0  0  0  0  0  0  0  0  0  0
    7.1830   -6.6867   26.2707 N   0  0  0  0  0  0  0  0  0  0  0  0
    6.5393   -4.0837   25.5430 N   0  0  0  0  0  0  0  0  0  0  0  0
   13.8737   -1.2111   23.6250 N   0  0  0  0  0  0  0  0  0  0  0  0
    9.1391   -2.2136   21.3622 O   0  0  0  0  0  0  0  0  0  0  0  0
   14.7229   -0.5170   24.2345 O   0  0  0  0  0  0  0  0  0  0  0  0
   14.2053   -2.1567   22.8697 O   0  0  0  0  0  0  0  0  0  0  0  0
  1  2  2  0
  1  5  1  0
  2  6  1  0
  3  4  2  0
  3  7  1  0
  4 10  1  0
  5 11  2  0
  6 12  2  0
  7 13  2  0
  8 10  2  0
  8 13  1  0
  9 14  1  0
  9 18  2  0
 10 17  1  0
 11 12  1  0
 11 18  1  0
 12 19  1  0
 13 20  1  0
 14 15  1  0
 14 19  2  0
 15 16  2  0
 16 17  1  0
 17 21  2  0
 20 22  1  0
 20 23  2  0
M  CHG  2  20   1  22  -1
M  END
