DRV-DNY-3e405af9-7
     RDKit          3D

 34 38  0  0  0  0  0  0  0  0999 V2000
    4.2889   -7.3921   25.8401 C   0  0  0  0  0  0  0  0  0  0  0  0
    4.9436   -6.8619   26.9479 C   0  0  0  0  0  0  0  0  0  0  0  0
    4.6179   -6.9522   24.5576 C   0  0  0  0  0  0  0  0  0  0  0  0
    5.9298   -5.8899   26.7774 C   0  0  0  0  0  0  0  0  0  0  0  0
    5.9518   -5.5201   23.0838 C   0  0  0  0  0  0  0  0  0  0  0  0
    6.9379   -4.5480   22.9133 C   0  0  0  0  0  0  0  0  0  0  0  0
   12.3969   -1.4351   22.0434 C   0  0  0  0  0  0  0  0  0  0  0  0
   12.7232   -1.3438   24.4355 C   0  0  0  0  0  0  0  0  0  0  0  0
    9.7277    0.9926   24.7726 C   0  0  0  0  0  0  0  0  0  0  0  0
    9.7901    2.3857   24.7432 C   0  0  0  0  0  0  0  0  0  0  0  0
   13.7232   -1.0499   21.8478 C   0  0  0  0  0  0  0  0  0  0  0  0
   14.0495   -0.9586   24.2399 C   0  0  0  0  0  0  0  0  0  0  0  0
    7.2637   -4.4576   25.3036 C   0  0  0  0  0  0  0  0  0  0  0  0
    9.4636    2.3498   22.3496 C   0  0  0  0  0  0  0  0  0  0  0  0
    9.9856   -3.2392   23.6632 C   0  0  0  0  0  0  0  0  0  0  0  0
    5.6079   -5.9745   24.3673 C   0  0  0  0  0  0  0  0  0  0  0  0
    6.2737   -5.4354   25.4939 C   0  0  0  0  0  0  0  0  0  0  0  0
   11.8969   -1.5820   23.3373 C   0  0  0  0  0  0  0  0  0  0  0  0
    7.5926   -4.0178   24.0211 C   0  0  0  0  0  0  0  0  0  0  0  0
    9.5333    0.2780   23.5905 C   0  0  0  0  0  0  0  0  0  0  0  0
    9.6581    3.0643   23.5317 C   0  0  0  0  0  0  0  0  0  0  0  0
    9.4013    0.9566   22.3790 C   0  0  0  0  0  0  0  0  0  0  0  0
   14.5495   -0.8117   22.9460 C   0  0  0  0  0  0  0  0  0  0  0  0
    8.6072   -3.0170   23.8436 C   0  0  0  0  0  0  0  0  0  0  0  0
   10.5230   -1.9811   23.5411 C   0  0  0  0  0  0  0  0  0  0  0  0
    8.2888   -1.7198   23.8375 N   0  0  0  0  0  0  0  0  0  0  0  0
    9.4748   -1.1156   23.6518 N   0  0  0  0  0  0  0  0  0  0  0  0
    9.7209    4.4828   23.5021 N   0  0  0  0  0  0  0  0  0  0  0  0
    9.2007    0.2556   21.1557 N   0  0  0  0  0  0  0  0  0  0  0  0
    9.8958    5.1060   24.5770 O   0  0  0  0  0  0  0  0  0  0  0  0
    9.6002    5.0738   22.4020 O   0  0  0  0  0  0  0  0  0  0  0  0
    9.0871    0.9124   20.0949 O   0  0  0  0  0  0  0  0  0  0  0  0
    9.1447   -0.9957   21.1789 O   0  0  0  0  0  0  0  0  0  0  0  0
   16.1864   -0.3386   22.7052 Cl  0  0  0  0  0  0  0  0  0  0  0  0
  1  2  2  0
  1  3  1  0
  2  4  1  0
  3 16  2  0
  4 17  2  0
  5  6  2  0
  5 16  1  0
  6 19  1  0
  7 11  2  0
  7 18  1  0
  8 12  1  0
  8 18  2  0
  9 10  2  0
  9 20  1  0
 10 21  1  0
 11 23  1  0
 12 23  2  0
 13 17  1  0
 13 19  2  0
 14 21  2  0
 14 22  1  0
 15 24  1  0
 15 25  2  0
 16 17  1  0
 18 25  1  0
 19 24  1  0
 20 22  2  0
 20 27  1  0
 21 28  1  0
 22 29  1  0
 23 34  1  0
 24 26  2  0
 25 27  1  0
 26 27  1  0
 28 30  1  0
 28 31  2  0
 29 32  1  0
 29 33  2  0
M  CHG  4  28   1  29   1  30  -1  32  -1
M  END
