DRV-UNK-dd7f8c68-5
     RDKit          3D

 29 32  0  0  1  0  0  0  0  0999 V2000
   15.4769   -1.4061   27.2720 C   0  0  0  0  0  0  0  0  0  0  0  0
    3.5522   -5.4262   24.0723 C   0  0  0  0  0  0  0  0  0  0  0  0
    4.5064   -5.7820   25.0431 C   0  0  0  0  0  0  0  0  0  0  0  0
    3.9171   -5.2766   22.7337 C   0  0  0  0  0  0  0  0  0  0  0  0
    5.8441   -5.9930   24.6930 C   0  0  0  0  0  0  0  0  0  0  0  0
    9.4654   -5.5090   24.2314 C   0  0  0  0  0  0  0  0  0  0  0  0
   10.4423   -4.6416   24.7201 C   0  0  0  0  0  0  0  0  0  0  0  0
    8.6873   -3.7856   22.7276 C   0  0  0  0  0  0  0  0  0  0  0  0
    5.2439   -5.4893   22.4143 C   0  0  0  0  0  0  0  0  0  0  0  0
    8.5879   -5.0810   23.2351 C   0  0  0  0  0  0  0  0  0  0  0  0
    6.2053   -5.8362   23.3666 C   0  0  0  0  0  0  0  0  0  0  0  0
   10.5417   -3.3461   24.2126 C   0  0  0  0  0  0  0  0  0  0  0  0
    9.6641   -2.9181   23.2164 C   0  0  0  0  0  0  0  0  0  0  0  0
    5.8982   -5.4089   21.1047 C   0  0  0  0  0  0  0  0  0  0  0  0
   11.1901   -1.6555   25.8769 C   0  0  0  0  0  0  0  0  0  0  0  0
   12.9429   -2.8622   24.5827 C   0  0  0  0  0  0  0  0  0  0  0  0
   12.1478   -0.4646   25.9800 C   0  0  0  0  0  0  0  0  0  0  0  0
   13.8388   -1.6285   24.7289 C   0  0  0  0  0  0  0  0  0  0  0  0
    7.5438   -6.0090   22.7127 C   0  0  0  0  0  0  0  0  0  0  0  0
   14.0222   -1.4825   27.1500 C   0  0  0  0  0  0  0  0  0  0  0  0
   16.6314   -1.3469   27.3721 N   0  0  0  0  0  0  0  0  0  0  0  0
    7.2373   -5.7102   21.3190 N   0  0  0  0  0  0  0  0  0  0  0  0
   11.5300   -2.4939   24.7200 N   0  0  0  0  0  0  0  0  0  0  0  0
   13.5675   -0.8274   25.9265 N   0  0  0  0  0  0  0  0  0  0  0  0
    8.4839   -1.3461   21.4161 N   0  0  0  0  0  0  0  0  0  0  0  0
    5.3348   -5.1298   20.0630 O   0  0  0  0  0  0  0  0  0  0  0  0
    9.4149   -0.3571   23.6072 O   0  0  0  0  0  0  0  0  0  0  0  0
   11.0186   -1.1688   21.8416 O   0  0  0  0  0  0  0  0  0  0  0  0
    9.7568   -1.2998   22.5535 S   0  0  0  0  0  0  0  0  0  0  0  0
  1 20  1  0
  1 21  3  0
  2  3  2  0
  2  4  1  0
  3  5  1  0
  4  9  2  0
  5 11  2  0
  6  7  2  0
  6 10  1  0
  7 12  1  0
  8 10  2  0
  8 13  1  0
  9 11  1  0
  9 14  1  0
 10 19  1  0
 11 19  1  0
 12 13  2  0
 12 23  1  0
 13 29  1  0
 14 22  1  0
 14 26  2  0
 15 17  1  0
 15 23  1  0
 16 18  1  0
 16 23  1  0
 17 24  1  0
 18 24  1  0
 19 22  1  0
 20 24  1  0
 25 29  1  0
 27 29  2  0
 28 29  2  0
M  END
