DRV-DNY-5c7d8ee8-5
     RDKit          3D

 22 25  0  0  0  0  0  0  0  0999 V2000
    9.3334   -5.2279   23.5863 C   0  0  0  0  0  0  0  0  0  0  0  0
   10.8888    3.3769   22.9635 C   0  0  0  0  0  0  0  0  0  0  0  0
    8.5157   -5.9957   24.4191 C   0  0  0  0  0  0  0  0  0  0  0  0
   10.5705    4.6304   23.4972 C   0  0  0  0  0  0  0  0  0  0  0  0
    8.6670   -1.8265   24.8067 C   0  0  0  0  0  0  0  0  0  0  0  0
    7.7819   -3.9938   25.5284 C   0  0  0  0  0  0  0  0  0  0  0  0
    9.0359    3.6463   25.1224 C   0  0  0  0  0  0  0  0  0  0  0  0
    8.6045   -3.2217   24.6906 C   0  0  0  0  0  0  0  0  0  0  0  0
    9.4891   -1.0922   23.9640 C   0  0  0  0  0  0  0  0  0  0  0  0
    9.3958   -3.8418   23.7010 C   0  0  0  0  0  0  0  0  0  0  0  0
    9.3439    2.3824   24.5991 C   0  0  0  0  0  0  0  0  0  0  0  0
   10.2482    2.2931   23.5511 C   0  0  0  0  0  0  0  0  0  0  0  0
    7.7388   -5.3782   25.3915 C   0  0  0  0  0  0  0  0  0  0  0  0
    9.6629    4.7651   24.5549 C   0  0  0  0  0  0  0  0  0  0  0  0
   10.2261   -1.7873   23.0267 C   0  0  0  0  0  0  0  0  0  0  0  0
    9.5428    0.3438   24.0963 C   0  0  0  0  0  0  0  0  0  0  0  0
   10.1946   -3.1319   22.8819 N   0  0  0  0  0  0  0  0  0  0  0  0
    8.9015    1.1262   24.9364 N   0  0  0  0  0  0  0  0  0  0  0  0
   10.3784    0.9738   23.2240 O   0  0  0  0  0  0  0  0  0  0  0  0
    6.9530   -6.1101   26.1916 F   0  0  0  0  0  0  0  0  0  0  0  0
   11.2898   -1.0160   21.9115 Cl  0  0  0  0  0  0  0  0  0  0  0  0
    9.2729    6.4890   25.2339 Br  0  0  0  0  0  0  0  0  0  0  0  0
  1  3  2  0
  1 10  1  0
  2  4  2  0
  2 12  1  0
  3 13  1  0
  4 14  1  0
  5  8  1  0
  5  9  2  0
  6  8  1  0
  6 13  2  0
  7 11  1  0
  7 14  2  0
  8 10  2  0
  9 15  1  0
  9 16  1  0
 10 17  1  0
 11 12  2  0
 11 18  1  0
 12 19  1  0
 13 20  1  0
 14 22  1  0
 15 17  2  0
 15 21  1  0
 16 18  2  0
 16 19  1  0
M  END
