DRV-UNK-dd7f8c68-6
     RDKit          3D

 30 33  0  0  1  0  0  0  0  0999 V2000
    8.2791   -6.3142   26.4258 C   0  0  0  0  0  0  0  0  0  0  0  0
    9.6534   -6.0862   26.2277 C   0  0  0  0  0  0  0  0  0  0  0  0
    7.3338   -5.7879   25.5444 C   0  0  0  0  0  0  0  0  0  0  0  0
   10.1072   -5.3257   25.1450 C   0  0  0  0  0  0  0  0  0  0  0  0
    9.3441   -1.4697   23.1114 C   0  0  0  0  0  0  0  0  0  0  0  0
    9.9746   -0.2494   23.3537 C   0  0  0  0  0  0  0  0  0  0  0  0
   11.3649   -2.6377   23.7353 C   0  0  0  0  0  0  0  0  0  0  0  0
    7.8075   -5.0399   24.4845 C   0  0  0  0  0  0  0  0  0  0  0  0
   10.0392   -2.6639   23.3022 C   0  0  0  0  0  0  0  0  0  0  0  0
    9.1678   -4.7981   24.2770 C   0  0  0  0  0  0  0  0  0  0  0  0
   11.3002   -0.2231   23.7867 C   0  0  0  0  0  0  0  0  0  0  0  0
   11.9954   -1.4173   23.9775 C   0  0  0  0  0  0  0  0  0  0  0  0
    7.0523   -4.3806   23.4147 C   0  0  0  0  0  0  0  0  0  0  0  0
   12.6324    1.7317   22.9753 C   0  0  0  0  0  0  0  0  0  0  0  0
   11.4909    1.8427   25.1510 C   0  0  0  0  0  0  0  0  0  0  0  0
   11.7472    2.8377   22.4133 C   0  0  0  0  0  0  0  0  0  0  0  0
   10.5801    2.9561   24.6379 C   0  0  0  0  0  0  0  0  0  0  0  0
    9.3645   -3.9685   23.0433 C   0  0  0  0  0  0  0  0  0  0  0  0
   11.8857    6.6015   24.3301 C   0  0  0  0  0  0  0  0  0  0  0  0
    9.5475    7.1931   23.6290 C   0  0  0  0  0  0  0  0  0  0  0  0
   10.4843    4.8942   23.0633 C   0  0  0  0  0  0  0  0  0  0  0  0
   10.4812    6.0602   24.0584 C   0  0  0  0  0  0  0  0  0  0  0  0
    7.9913   -3.7612   22.5995 N   0  0  0  0  0  0  0  0  0  0  0  0
   11.9074    1.0062   24.0208 N   0  0  0  0  0  0  0  0  0  0  0  0
   14.4849   -1.3801   23.0257 N   0  0  0  0  0  0  0  0  0  0  0  0
   11.3010    3.7319   23.5538 N   0  0  0  0  0  0  0  0  0  0  0  0
    5.8407   -4.4018   23.3055 O   0  0  0  0  0  0  0  0  0  0  0  0
   13.9111   -0.1854   25.2369 O   0  0  0  0  0  0  0  0  0  0  0  0
   13.9247   -2.7038   25.1637 O   0  0  0  0  0  0  0  0  0  0  0  0
   13.6603   -1.4262   24.5204 S   0  0  0  0  0  0  0  0  0  0  0  0
  1  2  2  0
  1  3  1  0
  2  4  1  0
  3  8  2  0
  4 10  2  0
  5  6  2  0
  5  9  1  0
  6 11  1  0
  7  9  2  0
  7 12  1  0
  8 10  1  0
  8 13  1  0
  9 18  1  0
 10 18  1  0
 11 12  2  0
 11 24  1  0
 12 30  1  0
 13 23  1  0
 13 27  2  0
 14 16  1  0
 14 24  1  0
 15 17  1  0
 15 24  1  0
 16 26  1  0
 17 26  1  0
 18 23  1  0
 19 22  1  0
 20 22  1  0
 21 22  1  0
 21 26  1  0
 25 30  1  0
 28 30  2  0
 29 30  2  0
M  CHG  1  26   1
M  END
