DRV-DNY-3e405af9-1
     RDKit          3D

 33 36  0  0  0  0  0  0  0  0999 V2000
    7.4158   -4.8706   26.0053 C   0  0  0  0  0  0  0  0  0  0  0  0
    6.5023   -5.0321   23.7745 C   0  0  0  0  0  0  0  0  0  0  0  0
   12.5185   -2.2584   23.5508 C   0  0  0  0  0  0  0  0  0  0  0  0
   11.3711   -1.2451   21.6817 C   0  0  0  0  0  0  0  0  0  0  0  0
    9.5255    0.6123   24.7619 C   0  0  0  0  0  0  0  0  0  0  0  0
    6.5305   -5.8572   26.4393 C   0  0  0  0  0  0  0  0  0  0  0  0
    5.6170   -6.0188   24.2085 C   0  0  0  0  0  0  0  0  0  0  0  0
    9.5423    2.0051   24.6891 C   0  0  0  0  0  0  0  0  0  0  0  0
   13.7425   -1.8514   23.0201 C   0  0  0  0  0  0  0  0  0  0  0  0
   12.5951   -0.8380   21.1510 C   0  0  0  0  0  0  0  0  0  0  0  0
    8.6282    1.8994   22.4552 C   0  0  0  0  0  0  0  0  0  0  0  0
    9.6076   -3.6413   23.7104 C   0  0  0  0  0  0  0  0  0  0  0  0
    7.4016   -4.4579   24.6729 C   0  0  0  0  0  0  0  0  0  0  0  0
   11.3327   -1.9553   22.8816 C   0  0  0  0  0  0  0  0  0  0  0  0
    9.0601   -0.1370   23.6812 C   0  0  0  0  0  0  0  0  0  0  0  0
    5.6311   -6.4314   25.5409 C   0  0  0  0  0  0  0  0  0  0  0  0
    9.0936    2.6487   23.5358 C   0  0  0  0  0  0  0  0  0  0  0  0
    8.6114    0.5066   22.5279 C   0  0  0  0  0  0  0  0  0  0  0  0
   13.7809   -1.1411   21.8203 C   0  0  0  0  0  0  0  0  0  0  0  0
    8.3129   -3.4421   24.2262 C   0  0  0  0  0  0  0  0  0  0  0  0
   10.0644   -2.3764   23.4316 C   0  0  0  0  0  0  0  0  0  0  0  0
    7.9695   -2.1522   24.2735 N   0  0  0  0  0  0  0  0  0  0  0  0
    9.0551   -1.5294   23.7839 N   0  0  0  0  0  0  0  0  0  0  0  0
    4.7299   -7.4359   25.9827 N   0  0  0  0  0  0  0  0  0  0  0  0
    9.1100    4.0668   23.4623 N   0  0  0  0  0  0  0  0  0  0  0  0
    8.1294   -0.2304   21.4087 N   0  0  0  0  0  0  0  0  0  0  0  0
    4.7591   -7.7926   27.1854 O   0  0  0  0  0  0  0  0  0  0  0  0
    3.9287   -7.9391   25.1585 O   0  0  0  0  0  0  0  0  0  0  0  0
    9.5321    4.7216   24.4459 O   0  0  0  0  0  0  0  0  0  0  0  0
    8.7025    4.6261   22.4157 O   0  0  0  0  0  0  0  0  0  0  0  0
    7.7369    0.3957   20.3971 O   0  0  0  0  0  0  0  0  0  0  0  0
    8.1136   -1.4815   21.4709 O   0  0  0  0  0  0  0  0  0  0  0  0
   14.9562   -0.7493   21.3110 F   0  0  0  0  0  0  0  0  0  0  0  0
  1  6  2  0
  1 13  1  0
  2  7  1  0
  2 13  2  0
  3  9  2  0
  3 14  1  0
  4 10  1  0
  4 14  2  0
  5  8  2  0
  5 15  1  0
  6 16  1  0
  7 16  2  0
  8 17  1  0
  9 19  1  0
 10 19  2  0
 11 17  2  0
 11 18  1  0
 12 20  1  0
 12 21  2  0
 13 20  1  0
 14 21  1  0
 15 18  2  0
 15 23  1  0
 16 24  1  0
 17 25  1  0
 18 26  1  0
 19 33  1  0
 20 22  2  0
 21 23  1  0
 22 23  1  0
 24 27  1  0
 24 28  2  0
 25 29  1  0
 25 30  2  0
 26 31  1  0
 26 32  2  0
M  CHG  6  24   1  25   1  26   1  27  -1  29  -1  31  -1
M  END
