DRV-DNY-ae159ed1-8
     RDKit          3D

 23 25  0  0  0  0  0  0  0  0999 V2000
    5.1279    2.0985   18.3898 C   0  0  0  0  0  0  0  0  0  0  0  0
    4.5385    1.8067   19.6109 C   0  0  0  0  0  0  0  0  0  0  0  0
    5.2019   -6.2116   23.6782 C   0  0  0  0  0  0  0  0  0  0  0  0
    7.0912   -5.1457   24.7420 C   0  0  0  0  0  0  0  0  0  0  0  0
    6.0097    1.1843   17.8160 C   0  0  0  0  0  0  0  0  0  0  0  0
    4.8364    0.6033   20.2479 C   0  0  0  0  0  0  0  0  0  0  0  0
    4.6627   -6.5059   24.9305 C   0  0  0  0  0  0  0  0  0  0  0  0
    6.5520   -5.4399   25.9943 C   0  0  0  0  0  0  0  0  0  0  0  0
    7.4259   -2.0359   18.5207 C   0  0  0  0  0  0  0  0  0  0  0  0
    6.4161   -5.5316   23.5839 C   0  0  0  0  0  0  0  0  0  0  0  0
    6.3139   -0.0211   18.4442 C   0  0  0  0  0  0  0  0  0  0  0  0
    5.7162   -0.3171   19.6831 C   0  0  0  0  0  0  0  0  0  0  0  0
    5.3378   -6.1200   26.0886 C   0  0  0  0  0  0  0  0  0  0  0  0
    6.8442   -2.3239   19.7266 C   0  0  0  0  0  0  0  0  0  0  0  0
    7.1253   -3.5646   20.4241 C   0  0  0  0  0  0  0  0  0  0  0  0
    6.6111   -3.9217   21.6249 C   0  0  0  0  0  0  0  0  0  0  0  0
    6.9890   -5.2185   22.2526 C   0  0  0  0  0  0  0  0  0  0  0  0
    7.1678   -0.8869   17.8705 N   0  0  0  0  0  0  0  0  0  0  0  0
    5.9875   -1.4713   20.3170 N   0  0  0  0  0  0  0  0  0  0  0  0
    4.7891   -6.4199   27.3633 N   0  0  0  0  0  0  0  0  0  0  0  0
    7.7644   -6.0074   21.7237 O   0  0  0  0  0  0  0  0  0  0  0  0
    3.6959   -7.0328   27.4260 O   0  0  0  0  0  0  0  0  0  0  0  0
    5.4124   -6.0643   28.3927 O   0  0  0  0  0  0  0  0  0  0  0  0
  1  2  2  0
  1  5  1  0
  2  6  1  0
  3  7  2  0
  3 10  1  0
  4  8  1  0
  4 10  2  0
  5 11  2  0
  6 12  2  0
  7 13  1  0
  8 13  2  0
  9 14  1  0
  9 18  2  0
 10 17  1  0
 11 12  1  0
 11 18  1  0
 12 19  1  0
 13 20  1  0
 14 15  1  0
 14 19  2  0
 15 16  2  0
 16 17  1  0
 17 21  2  0
 20 22  1  0
 20 23  2  0
M  CHG  2  20   1  22  -1
M  END
