DRV-DNY-ae159ed1-18
     RDKit          3D

 24 27  0  0  0  0  0  0  0  0999 V2000
    9.5720    6.4347   23.7015 C   0  0  0  0  0  0  0  0  0  0  0  0
    8.6896    5.4208   24.0622 C   0  0  0  0  0  0  0  0  0  0  0  0
    5.8438   -4.8684   23.0027 C   0  0  0  0  0  0  0  0  0  0  0  0
    5.6470   -3.9463   21.9856 C   0  0  0  0  0  0  0  0  0  0  0  0
   10.8763    6.1219   23.3178 C   0  0  0  0  0  0  0  0  0  0  0  0
    9.1081    4.0901   24.0407 C   0  0  0  0  0  0  0  0  0  0  0  0
   12.6240    4.4547   22.9068 C   0  0  0  0  0  0  0  0  0  0  0  0
   13.0426    3.1240   22.8853 C   0  0  0  0  0  0  0  0  0  0  0  0
    7.0087   -4.8122   23.7658 C   0  0  0  0  0  0  0  0  0  0  0  0
    6.6170   -2.9761   21.7400 C   0  0  0  0  0  0  0  0  0  0  0  0
   10.8558    2.4229   23.6298 C   0  0  0  0  0  0  0  0  0  0  0  0
   10.0088   -2.8593   24.0063 C   0  0  0  0  0  0  0  0  0  0  0  0
   11.3147    4.7879   23.2903 C   0  0  0  0  0  0  0  0  0  0  0  0
   10.4174    3.7568   23.6572 C   0  0  0  0  0  0  0  0  0  0  0  0
   12.1602    2.1101   23.2461 C   0  0  0  0  0  0  0  0  0  0  0  0
    7.9843   -3.8466   23.5286 C   0  0  0  0  0  0  0  0  0  0  0  0
    7.7847   -2.9113   22.4967 C   0  0  0  0  0  0  0  0  0  0  0  0
    9.8147   -1.9490   23.0017 C   0  0  0  0  0  0  0  0  0  0  0  0
   10.8131   -0.9060   22.7075 C   0  0  0  0  0  0  0  0  0  0  0  0
   11.6198   -0.3465   23.6213 C   0  0  0  0  0  0  0  0  0  0  0  0
   12.5983    0.7236   23.2257 C   0  0  0  0  0  0  0  0  0  0  0  0
    9.0998   -3.8128   24.2785 N   0  0  0  0  0  0  0  0  0  0  0  0
    8.7058   -1.9659   22.2405 N   0  0  0  0  0  0  0  0  0  0  0  0
   13.7468    0.4243   22.8653 O   0  0  0  0  0  0  0  0  0  0  0  0
  1  2  2  0
  1  5  1  0
  2  6  1  0
  3  4  2  0
  3  9  1  0
  4 10  1  0
  5 13  2  0
  6 14  2  0
  7  8  2  0
  7 13  1  0
  8 15  1  0
  9 16  2  0
 10 17  2  0
 11 14  1  0
 11 15  2  0
 12 18  1  0
 12 22  2  0
 13 14  1  0
 15 21  1  0
 16 17  1  0
 16 22  1  0
 17 23  1  0
 18 19  1  0
 18 23  2  0
 19 20  2  0
 20 21  1  0
 21 24  2  0
M  END
