DRV-DNY-5c7d8ee8-6
     RDKit          3D

 22 25  0  0  0  0  0  0  0  0999 V2000
   10.0106   -3.9907   23.0435 C   0  0  0  0  0  0  0  0  0  0  0  0
   14.5164    3.4617   22.0393 C   0  0  0  0  0  0  0  0  0  0  0  0
    8.7828   -4.2953   23.6365 C   0  0  0  0  0  0  0  0  0  0  0  0
   14.5099    4.8368   22.2974 C   0  0  0  0  0  0  0  0  0  0  0  0
   10.2338   -0.3648   23.5966 C   0  0  0  0  0  0  0  0  0  0  0  0
    8.4988   -1.9799   24.2153 C   0  0  0  0  0  0  0  0  0  0  0  0
   12.3443    4.7047   23.4189 C   0  0  0  0  0  0  0  0  0  0  0  0
    9.7338   -1.6738   23.6188 C   0  0  0  0  0  0  0  0  0  0  0  0
   11.4568   -0.0950   22.9996 C   0  0  0  0  0  0  0  0  0  0  0  0
   10.5077   -2.6905   23.0211 C   0  0  0  0  0  0  0  0  0  0  0  0
   12.3352    3.3252   23.1682 C   0  0  0  0  0  0  0  0  0  0  0  0
   13.4081    2.7591   22.4956 C   0  0  0  0  0  0  0  0  0  0  0  0
    8.0257   -3.2890   24.2232 C   0  0  0  0  0  0  0  0  0  0  0  0
   13.4467    5.4482   22.9731 C   0  0  0  0  0  0  0  0  0  0  0  0
   12.1418   -1.1548   22.4409 C   0  0  0  0  0  0  0  0  0  0  0  0
   11.9581    1.2582   22.9849 C   0  0  0  0  0  0  0  0  0  0  0  0
   11.6949   -2.4316   22.4410 N   0  0  0  0  0  0  0  0  0  0  0  0
   11.4156    2.3515   23.4744 N   0  0  0  0  0  0  0  0  0  0  0  0
   13.1659    1.4206   22.3759 O   0  0  0  0  0  0  0  0  0  0  0  0
    6.5136   -3.6587   24.9546 Cl  0  0  0  0  0  0  0  0  0  0  0  0
   13.6704   -0.9779   21.6650 Cl  0  0  0  0  0  0  0  0  0  0  0  0
   13.4959    7.3139   23.2923 Br  0  0  0  0  0  0  0  0  0  0  0  0
  1  3  2  0
  1 10  1  0
  2  4  2  0
  2 12  1  0
  3 13  1  0
  4 14  1  0
  5  8  1  0
  5  9  2  0
  6  8  1  0
  6 13  2  0
  7 11  1  0
  7 14  2  0
  8 10  2  0
  9 15  1  0
  9 16  1  0
 10 17  1  0
 11 12  2  0
 11 18  1  0
 12 19  1  0
 13 20  1  0
 14 22  1  0
 15 17  2  0
 15 21  1  0
 16 18  2  0
 16 19  1  0
M  END
