DRV-UNK-dd7f8c68-7
     RDKit          3D

 30 33  0  0  1  0  0  0  0  0999 V2000
   14.0015   -3.4794   25.4280 C   0  0  0  0  0  0  0  0  0  0  0  0
   14.7815   -2.4006   24.9726 C   0  0  0  0  0  0  0  0  0  0  0  0
   12.6858   -3.6429   24.9929 C   0  0  0  0  0  0  0  0  0  0  0  0
   14.2588   -1.4640   24.0747 C   0  0  0  0  0  0  0  0  0  0  0  0
   10.9355    0.9378   24.0321 C   0  0  0  0  0  0  0  0  0  0  0  0
   10.7609    2.2570   24.4500 C   0  0  0  0  0  0  0  0  0  0  0  0
   12.8114    1.6175   22.6699 C   0  0  0  0  0  0  0  0  0  0  0  0
    9.1673    5.0533   23.6610 C   0  0  0  0  0  0  0  0  0  0  0  0
    9.2887    7.5754   24.6956 C   0  0  0  0  0  0  0  0  0  0  0  0
   12.1931   -2.7042   24.1077 C   0  0  0  0  0  0  0  0  0  0  0  0
   11.9608    0.6180   23.1421 C   0  0  0  0  0  0  0  0  0  0  0  0
   12.9514   -1.6235   23.6509 C   0  0  0  0  0  0  0  0  0  0  0  0
   10.3956    6.7541   24.8370 C   0  0  0  0  0  0  0  0  0  0  0  0
   11.6115    3.2566   23.9778 C   0  0  0  0  0  0  0  0  0  0  0  0
   10.3257    5.4705   24.3071 C   0  0  0  0  0  0  0  0  0  0  0  0
   12.6368    2.9368   23.0877 C   0  0  0  0  0  0  0  0  0  0  0  0
    8.1153    5.9507   23.5723 C   0  0  0  0  0  0  0  0  0  0  0  0
   10.8657   -2.6318   23.4893 C   0  0  0  0  0  0  0  0  0  0  0  0
   12.1468   -0.7896   22.6968 C   0  0  0  0  0  0  0  0  0  0  0  0
   11.6103    7.2563   25.5386 C   0  0  0  0  0  0  0  0  0  0  0  0
    6.9347    4.2415   22.4145 C   0  0  0  0  0  0  0  0  0  0  0  0
    8.1462    7.2054   24.0746 N   0  0  0  0  0  0  0  0  0  0  0  0
   10.8738   -1.5026   22.6802 N   0  0  0  0  0  0  0  0  0  0  0  0
   14.9603    4.1153   23.6511 N   0  0  0  0  0  0  0  0  0  0  0  0
   11.4137    4.5849   24.4151 N   0  0  0  0  0  0  0  0  0  0  0  0
    9.9669   -3.4297   23.6790 O   0  0  0  0  0  0  0  0  0  0  0  0
   14.2644    3.6968   21.2044 O   0  0  0  0  0  0  0  0  0  0  0  0
   13.0533    5.4507   22.5479 O   0  0  0  0  0  0  0  0  0  0  0  0
    6.9626    5.5628   22.9409 O   0  0  0  0  0  0  0  0  0  0  0  0
   13.7254    4.1628   22.4725 S   0  0  0  0  0  0  0  0  0  0  0  0
  1  2  2  0
  1  3  1  0
  2  4  1  0
  3 10  2  0
  4 12  2  0
  5  6  2  0
  5 11  1  0
  6 14  1  0
  7 11  2  0
  7 16  1  0
  8 15  2  0
  8 17  1  0
  9 13  2  0
  9 22  1  0
 10 12  1  0
 10 18  1  0
 11 19  1  0
 12 19  1  0
 13 15  1  0
 13 20  1  0
 14 16  2  0
 14 25  1  0
 15 25  1  0
 16 30  1  0
 17 22  2  0
 17 29  1  0
 18 23  1  0
 18 26  2  0
 19 23  1  0
 21 29  1  0
 24 30  1  0
 27 30  2  0
 28 30  2  0
M  END
