DRV-DNY-3e405af9-8
     RDKit          3D

 34 38  0  0  0  0  0  0  0  0999 V2000
    5.2963   -6.7594   28.3239 C   0  0  0  0  0  0  0  0  0  0  0  0
    4.3374   -6.0977   27.5626 C   0  0  0  0  0  0  0  0  0  0  0  0
    6.6358   -6.3775   28.2455 C   0  0  0  0  0  0  0  0  0  0  0  0
    4.7144   -5.0516   26.7200 C   0  0  0  0  0  0  0  0  0  0  0  0
    8.3771   -4.9291   27.3113 C   0  0  0  0  0  0  0  0  0  0  0  0
    8.7541   -3.8830   26.4687 C   0  0  0  0  0  0  0  0  0  0  0  0
   11.4439    0.4723   23.4005 C   0  0  0  0  0  0  0  0  0  0  0  0
    9.5439    1.9638   23.4523 C   0  0  0  0  0  0  0  0  0  0  0  0
    8.5882   -0.2747   20.9025 C   0  0  0  0  0  0  0  0  0  0  0  0
    8.1762    0.2689   19.6858 C   0  0  0  0  0  0  0  0  0  0  0  0
   12.2743    1.5419   23.0657 C   0  0  0  0  0  0  0  0  0  0  0  0
   10.3743    3.0334   23.1176 C   0  0  0  0  0  0  0  0  0  0  0  0
    6.4556   -3.6032   25.7858 C   0  0  0  0  0  0  0  0  0  0  0  0
    6.0176    0.7781   20.6442 C   0  0  0  0  0  0  0  0  0  0  0  0
    9.2642   -1.2608   25.0300 C   0  0  0  0  0  0  0  0  0  0  0  0
    7.0333   -5.3268   27.4027 C   0  0  0  0  0  0  0  0  0  0  0  0
    6.0582   -4.6539   26.6286 C   0  0  0  0  0  0  0  0  0  0  0  0
   10.0786    0.6833   23.5937 C   0  0  0  0  0  0  0  0  0  0  0  0
    7.7952   -3.2213   25.7074 C   0  0  0  0  0  0  0  0  0  0  0  0
    7.7148   -0.2920   21.9901 C   0  0  0  0  0  0  0  0  0  0  0  0
    6.8910    0.7953   19.5566 C   0  0  0  0  0  0  0  0  0  0  0  0
    6.4296    0.2344   21.8609 C   0  0  0  0  0  0  0  0  0  0  0  0
   11.7396    2.8224   22.9243 C   0  0  0  0  0  0  0  0  0  0  0  0
    8.1853   -2.1450   24.8403 C   0  0  0  0  0  0  0  0  0  0  0  0
    9.2184   -0.4247   23.9413 C   0  0  0  0  0  0  0  0  0  0  0  0
    7.5038   -1.8939   23.7194 N   0  0  0  0  0  0  0  0  0  0  0  0
    8.1560   -0.8424   23.1950 N   0  0  0  0  0  0  0  0  0  0  0  0
    6.4721    1.3494   18.3180 N   0  0  0  0  0  0  0  0  0  0  0  0
    5.5154    0.2324   22.9529 N   0  0  0  0  0  0  0  0  0  0  0  0
    7.2736    1.3555   17.3527 O   0  0  0  0  0  0  0  0  0  0  0  0
    5.3118    1.8173   18.2227 O   0  0  0  0  0  0  0  0  0  0  0  0
    4.3730    0.7184   22.7850 O   0  0  0  0  0  0  0  0  0  0  0  0
    5.8825   -0.2556   24.0468 O   0  0  0  0  0  0  0  0  0  0  0  0
   12.8650    4.2724   22.4741 Br  0  0  0  0  0  0  0  0  0  0  0  0
  1  2  2  0
  1  3  1  0
  2  4  1  0
  3 16  2  0
  4 17  2  0
  5  6  2  0
  5 16  1  0
  6 19  1  0
  7 11  2  0
  7 18  1  0
  8 12  1  0
  8 18  2  0
  9 10  2  0
  9 20  1  0
 10 21  1  0
 11 23  1  0
 12 23  2  0
 13 17  1  0
 13 19  2  0
 14 21  2  0
 14 22  1  0
 15 24  1  0
 15 25  2  0
 16 17  1  0
 18 25  1  0
 19 24  1  0
 20 22  2  0
 20 27  1  0
 21 28  1  0
 22 29  1  0
 23 34  1  0
 24 26  2  0
 25 27  1  0
 26 27  1  0
 28 30  1  0
 28 31  2  0
 29 32  1  0
 29 33  2  0
M  CHG  4  28   1  29   1  30  -1  32  -1
M  END
