DUN-NEW-f8ce3686-1
     RDKit          3D

 20 22  0  0  1  0  0  0  0  0999 V2000
   14.3863   -1.4885   22.9391 C   0  0  0  0  0  0  0  0  0  0  0  0
   13.9986   -0.7291   24.0430 C   0  0  0  0  0  0  0  0  0  0  0  0
   13.5211   -1.6351   21.8548 C   0  0  0  0  0  0  0  0  0  0  0  0
   12.7457   -0.1163   24.0626 C   0  0  0  0  0  0  0  0  0  0  0  0
   12.2682   -1.0223   21.8744 C   0  0  0  0  0  0  0  0  0  0  0  0
   11.8805   -0.2629   22.9784 C   0  0  0  0  0  0  0  0  0  0  0  0
   10.9126    2.8408   23.3662 C   0  0  0  0  0  0  0  0  0  0  0  0
    8.0470    0.3417   19.6740 C   0  0  0  0  0  0  0  0  0  0  0  0
    6.2641    1.4370   21.0656 C   0  0  0  0  0  0  0  0  0  0  0  0
    9.4581   -0.3504   22.2100 C   0  0  0  0  0  0  0  0  0  0  0  0
    9.0437    2.0251   21.9369 C   0  0  0  0  0  0  0  0  0  0  0  0
    7.0056    0.2128   18.5681 C   0  0  0  0  0  0  0  0  0  0  0  0
    5.3224    1.2470   19.8819 C   0  0  0  0  0  0  0  0  0  0  0  0
   10.5223    0.4009   22.9991 C   0  0  0  0  0  0  0  0  0  0  0  0
   10.4918    1.8018   22.3737 C   0  0  0  0  0  0  0  0  0  0  0  0
    7.3602    0.3768   21.0355 C   0  0  0  0  0  0  0  0  0  0  0  0
   11.4568    3.9662   22.7938 N   0  0  0  0  0  0  0  0  0  0  0  0
    8.3655    0.6793   22.0853 N   0  0  0  0  0  0  0  0  0  0  0  0
   10.7603    2.6879   24.5756 O   0  0  0  0  0  0  0  0  0  0  0  0
    6.0463    1.2677   18.6506 O   0  0  0  0  0  0  0  0  0  0  0  0
  1  2  2  0
  1  3  1  0
  2  4  1  0
  3  5  2  0
  4  6  2  0
  5  6  1  0
  6 14  1  0
  7 15  1  0
  7 17  1  0
  7 19  2  0
  8 12  1  0
  8 16  1  0
  9 13  1  0
  9 16  1  0
 10 14  1  0
 10 18  1  0
 11 15  1  0
 11 18  1  0
 12 20  1  0
 13 20  1  0
 14 15  1  0
 16 18  1  0
M  CHG  1  18   1
M  END
