DUN-NEW-f8ce3686-9
     RDKit          3D

 25 27  0  0  0  0  0  0  0  0999 V2000
   13.4768   -1.7881   22.6326 C   0  0  0  0  0  0  0  0  0  0  0  0
   13.8912   -0.9005   23.6237 C   0  0  0  0  0  0  0  0  0  0  0  0
    5.4215    1.3832   19.2318 C   0  0  0  0  0  0  0  0  0  0  0  0
   12.1218   -2.0992   22.4707 C   0  0  0  0  0  0  0  0  0  0  0  0
   12.9682   -0.2967   24.4824 C   0  0  0  0  0  0  0  0  0  0  0  0
    5.9246    0.6828   20.3225 C   0  0  0  0  0  0  0  0  0  0  0  0
    6.0134    1.1727   17.9968 C   0  0  0  0  0  0  0  0  0  0  0  0
    7.5109   -0.3342   18.8714 C   0  0  0  0  0  0  0  0  0  0  0  0
    9.3766   -0.7626   24.4801 C   0  0  0  0  0  0  0  0  0  0  0  0
   11.1729   -1.5029   23.3247 C   0  0  0  0  0  0  0  0  0  0  0  0
    9.7573   -1.5846   23.4446 C   0  0  0  0  0  0  0  0  0  0  0  0
   11.6171   -0.6172   24.3088 C   0  0  0  0  0  0  0  0  0  0  0  0
    6.9892   -0.1942   20.1474 C   0  0  0  0  0  0  0  0  0  0  0  0
    9.7061    2.5413   23.4181 C   0  0  0  0  0  0  0  0  0  0  0  0
    8.5792   -1.8282   21.2185 C   0  0  0  0  0  0  0  0  0  0  0  0
    8.5066    3.0837   22.7145 C   0  0  0  0  0  0  0  0  0  0  0  0
    8.8507   -2.4022   22.6132 C   0  0  0  0  0  0  0  0  0  0  0  0
   10.5113    0.7468   26.1038 C   0  0  0  0  0  0  0  0  0  0  0  0
   10.7055    2.1952   25.6685 C   0  0  0  0  0  0  0  0  0  0  0  0
    7.0489    0.3291   17.7878 N   0  0  0  0  0  0  0  0  0  0  0  0
   10.5052   -0.1832   24.9949 N   0  0  0  0  0  0  0  0  0  0  0  0
    7.5230   -0.9208   21.2383 N   0  0  0  0  0  0  0  0  0  0  0  0
    9.6569    2.6548   24.7985 N   0  0  0  0  0  0  0  0  0  0  0  0
   10.6191    2.0500   22.7648 O   0  0  0  0  0  0  0  0  0  0  0  0
    9.2465   -2.1703   20.2475 O   0  0  0  0  0  0  0  0  0  0  0  0
  1  2  2  0
  1  4  1  0
  2  5  1  0
  3  6  2  0
  3  7  1  0
  4 10  2  0
  5 12  2  0
  6 13  1  0
  7 20  2  0
  8 13  2  0
  8 20  1  0
  9 11  2  0
  9 21  1  0
 10 11  1  0
 10 12  1  0
 11 17  1  0
 12 21  1  0
 13 22  1  0
 14 16  1  0
 14 23  1  0
 14 24  2  0
 15 17  1  0
 15 22  1  0
 15 25  2  0
 18 19  1  0
 18 21  1  0
 19 23  1  0
M  END
