DUN-NEW-f8ce3686-16
     RDKit          3D

 26 29  0  0  0  0  0  0  0  0999 V2000
   13.6512   -2.3624   23.6476 C   0  0  0  0  0  0  0  0  0  0  0  0
    5.7820    0.9178   19.0909 C   0  0  0  0  0  0  0  0  0  0  0  0
   14.3453   -1.1905   23.9700 C   0  0  0  0  0  0  0  0  0  0  0  0
   12.3415   -2.3084   23.1748 C   0  0  0  0  0  0  0  0  0  0  0  0
    6.5602    0.7493   20.2307 C   0  0  0  0  0  0  0  0  0  0  0  0
   14.0919    1.4049   24.0332 C   0  0  0  0  0  0  0  0  0  0  0  0
    6.3537    0.6172   17.8651 C   0  0  0  0  0  0  0  0  0  0  0  0
    8.3461    0.0191   18.8401 C   0  0  0  0  0  0  0  0  0  0  0  0
   13.0272    2.2076   23.6940 C   0  0  0  0  0  0  0  0  0  0  0  0
   13.7037    0.0540   23.8113 C   0  0  0  0  0  0  0  0  0  0  0  0
   12.3909    0.0776   23.3356 C   0  0  0  0  0  0  0  0  0  0  0  0
    7.8679    0.2918   20.1116 C   0  0  0  0  0  0  0  0  0  0  0  0
   11.6848   -1.0857   23.0094 C   0  0  0  0  0  0  0  0  0  0  0  0
   10.0104   -0.3394   21.2939 C   0  0  0  0  0  0  0  0  0  0  0  0
    9.1528   -3.1920   22.6321 C   0  0  0  0  0  0  0  0  0  0  0  0
    9.6225   -1.8454   24.7201 C   0  0  0  0  0  0  0  0  0  0  0  0
    8.1206   -4.0201   23.3981 C   0  0  0  0  0  0  0  0  0  0  0  0
    8.5915   -2.6747   25.4870 C   0  0  0  0  0  0  0  0  0  0  0  0
    9.3009   -1.7889   23.2246 C   0  0  0  0  0  0  0  0  0  0  0  0
    8.4223   -4.0741   24.8962 C   0  0  0  0  0  0  0  0  0  0  0  0
    7.6202    0.1707   17.7097 N   0  0  0  0  0  0  0  0  0  0  0  0
   12.0059    1.3979   23.2747 N   0  0  0  0  0  0  0  0  0  0  0  0
    8.6848    0.1105   21.2539 N   0  0  0  0  0  0  0  0  0  0  0  0
   10.3106   -1.0435   22.5126 N   0  0  0  0  0  0  0  0  0  0  0  0
   10.8259   -0.1502   20.3900 O   0  0  0  0  0  0  0  0  0  0  0  0
    9.6206   -4.8136   25.1212 O   0  0  0  0  0  0  0  0  0  0  0  0
  1  3  2  0
  1  4  1  0
  2  5  2  0
  2  7  1  0
  3 10  1  0
  4 13  2  0
  5 12  1  0
  6  9  2  0
  6 10  1  0
  7 21  2  0
  8 12  2  0
  8 21  1  0
  9 22  1  0
 10 11  2  0
 11 13  1  0
 11 22  1  0
 12 23  1  0
 13 24  1  0
 14 23  1  0
 14 24  1  0
 14 25  2  0
 15 17  1  0
 15 19  1  0
 16 18  1  0
 16 19  1  0
 17 20  1  0
 18 20  1  0
 19 24  1  0
 20 26  1  0
M  END
