DUN-NEW-f8ce3686-14
     RDKit          3D

 21 22  0  0  1  0  0  0  0  0999 V2000
   13.6996    2.2029   22.2788 C   0  0  0  0  0  0  0  0  0  0  0  0
   12.8575    3.2423   22.6570 C   0  0  0  0  0  0  0  0  0  0  0  0
   11.3573    1.6350   23.6570 C   0  0  0  0  0  0  0  0  0  0  0  0
   13.3799    0.8713   22.5966 C   0  0  0  0  0  0  0  0  0  0  0  0
   12.1821    0.5556   23.2834 C   0  0  0  0  0  0  0  0  0  0  0  0
   11.6881    2.9583   23.3489 C   0  0  0  0  0  0  0  0  0  0  0  0
   14.3246   -0.2163   22.1456 C   0  0  0  0  0  0  0  0  0  0  0  0
   14.1181   -1.4922   22.9492 C   0  0  0  0  0  0  0  0  0  0  0  0
   12.6389   -1.8466   22.9786 C   0  0  0  0  0  0  0  0  0  0  0  0
    7.2074   -1.2889   21.0685 C   0  0  0  0  0  0  0  0  0  0  0  0
   10.5947   -1.1145   24.2162 C   0  0  0  0  0  0  0  0  0  0  0  0
    9.4905   -1.3358   23.1962 C   0  0  0  0  0  0  0  0  0  0  0  0
   11.8616   -0.7685   23.5880 N   0  0  0  0  0  0  0  0  0  0  0  0
   11.4790    5.6133   23.2388 N   0  0  0  0  0  0  0  0  0  0  0  0
    9.2647   -0.1701   22.3853 N   0  0  0  0  0  0  0  0  0  0  0  0
    9.3754    4.1285   23.1130 O   0  0  0  0  0  0  0  0  0  0  0  0
   10.6201    4.3207   25.2951 O   0  0  0  0  0  0  0  0  0  0  0  0
    9.5991   -1.1588   20.0135 O   0  0  0  0  0  0  0  0  0  0  0  0
    8.2599    0.9615   20.2727 O   0  0  0  0  0  0  0  0  0  0  0  0
   10.6300    4.2582   23.8404 S   0  0  0  0  0  0  0  0  0  0  0  0
    8.6781   -0.3346   20.7713 S   0  0  0  0  0  0  0  0  0  0  0  0
  1  2  2  0
  1  4  1  0
  2  6  1  0
  3  5  1  0
  3  6  2  0
  4  5  2  0
  4  7  1  0
  5 13  1  0
  6 20  1  0
  7  8  1  0
  8  9  1  0
  9 13  1  0
 10 21  1  0
 11 12  1  0
 11 13  1  0
 12 15  1  0
 14 20  1  0
 15 21  1  0
 16 20  2  0
 17 20  2  0
 18 21  2  0
 19 21  2  0
M  END
