DUN-NEW-f8ce3686-3
     RDKit          3D

 24 26  0  0  1  0  0  0  0  0999 V2000
   13.1233   -0.6366   22.0172 C   0  0  0  0  0  0  0  0  0  0  0  0
   13.5367    0.3386   22.9247 C   0  0  0  0  0  0  0  0  0  0  0  0
   11.8413   -1.1784   22.1113 C   0  0  0  0  0  0  0  0  0  0  0  0
   12.6682    0.7720   23.9264 C   0  0  0  0  0  0  0  0  0  0  0  0
   10.9729   -0.7449   23.1130 C   0  0  0  0  0  0  0  0  0  0  0  0
   11.3863    0.2303   24.0206 C   0  0  0  0  0  0  0  0  0  0  0  0
   10.4006    3.0794   24.6778 C   0  0  0  0  0  0  0  0  0  0  0  0
    7.0617   -3.6621   20.9846 C   0  0  0  0  0  0  0  0  0  0  0  0
    9.2399    0.5003   26.9647 C   0  0  0  0  0  0  0  0  0  0  0  0
    9.4436    1.9745   26.6642 C   0  0  0  0  0  0  0  0  0  0  0  0
    9.5130   -0.1705   25.6232 C   0  0  0  0  0  0  0  0  0  0  0  0
    8.5761   -0.6978   22.4620 C   0  0  0  0  0  0  0  0  0  0  0  0
    9.4731   -2.6907   23.5893 C   0  0  0  0  0  0  0  0  0  0  0  0
    8.3001   -1.5308   21.2073 C   0  0  0  0  0  0  0  0  0  0  0  0
    9.2079   -3.5405   22.3466 C   0  0  0  0  0  0  0  0  0  0  0  0
   10.6126    1.9840   25.6731 C   0  0  0  0  0  0  0  0  0  0  0  0
    6.9490   -5.1162   21.3681 C   0  0  0  0  0  0  0  0  0  0  0  0
    9.7000   -1.2989   23.1896 N   0  0  0  0  0  0  0  0  0  0  0  0
   10.5425    0.6735   25.0196 N   0  0  0  0  0  0  0  0  0  0  0  0
    8.1297   -2.9523   21.5337 N   0  0  0  0  0  0  0  0  0  0  0  0
    9.2336    2.9591   23.9610 N   0  0  0  0  0  0  0  0  0  0  0  0
   11.2007    4.0017   24.5418 O   0  0  0  0  0  0  0  0  0  0  0  0
    6.2239   -3.1726   20.2228 O   0  0  0  0  0  0  0  0  0  0  0  0
    5.5102   -5.7369   20.5675 Cl  0  0  0  0  0  0  0  0  0  0  0  0
  1  2  2  0
  1  3  1  0
  2  4  1  0
  3  5  2  0
  4  6  2  0
  5  6  1  0
  5 18  1  0
  6 19  1  0
  7 16  1  0
  7 21  1  0
  7 22  2  0
  8 17  1  0
  8 20  1  0
  8 23  2  0
  9 10  1  0
  9 11  1  0
 10 16  1  0
 11 19  1  0
 12 14  1  0
 12 18  1  0
 13 15  1  0
 13 18  1  0
 14 20  1  0
 15 20  1  0
 16 19  1  0
 17 24  1  0
M  END
