DUN-NEW-f8ce3686-8
     RDKit          3D

 25 27  0  0  0  0  0  0  0  0999 V2000
   14.2363   -0.8461   22.0204 C   0  0  0  0  0  0  0  0  0  0  0  0
   13.3360   -1.7583   21.4734 C   0  0  0  0  0  0  0  0  0  0  0  0
    5.9611    0.9724   19.1113 C   0  0  0  0  0  0  0  0  0  0  0  0
   13.8379    0.0342   23.0331 C   0  0  0  0  0  0  0  0  0  0  0  0
   12.0126   -1.8204   21.9190 C   0  0  0  0  0  0  0  0  0  0  0  0
    6.6459    0.4482   20.2020 C   0  0  0  0  0  0  0  0  0  0  0  0
    6.3932    0.6188   17.8432 C   0  0  0  0  0  0  0  0  0  0  0  0
    8.0795   -0.6939   18.6866 C   0  0  0  0  0  0  0  0  0  0  0  0
   10.4932    0.2218   24.4953 C   0  0  0  0  0  0  0  0  0  0  0  0
   12.5086   -0.0100   23.4984 C   0  0  0  0  0  0  0  0  0  0  0  0
   11.7786    0.7123   24.4834 C   0  0  0  0  0  0  0  0  0  0  0  0
   11.6284   -0.9343   22.9318 C   0  0  0  0  0  0  0  0  0  0  0  0
    7.7266   -0.4016   19.9942 C   0  0  0  0  0  0  0  0  0  0  0  0
   12.5891    4.4734   23.3803 C   0  0  0  0  0  0  0  0  0  0  0  0
    8.2074   -0.7507   22.4414 C   0  0  0  0  0  0  0  0  0  0  0  0
   12.4401    4.8676   21.9482 C   0  0  0  0  0  0  0  0  0  0  0  0
   12.2972    1.7958   25.3429 C   0  0  0  0  0  0  0  0  0  0  0  0
    9.2124   -1.5282   23.2710 C   0  0  0  0  0  0  0  0  0  0  0  0
   11.5444    3.1303   25.1933 C   0  0  0  0  0  0  0  0  0  0  0  0
    7.4385   -0.2038   17.6019 N   0  0  0  0  0  0  0  0  0  0  0  0
   10.4124   -0.7712   23.5562 N   0  0  0  0  0  0  0  0  0  0  0  0
    8.4432   -0.9504   21.0840 N   0  0  0  0  0  0  0  0  0  0  0  0
   11.5919    3.6315   23.8459 N   0  0  0  0  0  0  0  0  0  0  0  0
   13.5397    4.8964   24.0276 O   0  0  0  0  0  0  0  0  0  0  0  0
    7.3306   -0.0609   22.9513 O   0  0  0  0  0  0  0  0  0  0  0  0
  1  2  2  0
  1  4  1  0
  2  5  1  0
  3  6  2  0
  3  7  1  0
  4 10  2  0
  5 12  2  0
  6 13  1  0
  7 20  2  0
  8 13  2  0
  8 20  1  0
  9 11  2  0
  9 21  1  0
 10 11  1  0
 10 12  1  0
 11 17  1  0
 12 21  1  0
 13 22  1  0
 14 16  1  0
 14 23  1  0
 14 24  2  0
 15 18  1  0
 15 22  1  0
 15 25  2  0
 17 19  1  0
 18 21  1  0
 19 23  1  0
M  END
