ELE-IMP-dfb36048-4
     RDKit          3D

 24 26  0  0  1  0  0  0  0  0999 V2000
   14.2613   -1.4855   21.9012 C   0  0  0  0  0  0  0  0  0  0  0  0
   14.3324   -0.0878   21.8954 C   0  0  0  0  0  0  0  0  0  0  0  0
   13.2107   -2.1435   22.5370 C   0  0  0  0  0  0  0  0  0  0  0  0
   13.3247    0.6561   22.5417 C   0  0  0  0  0  0  0  0  0  0  0  0
   13.0786    2.0432   22.7327 C   0  0  0  0  0  0  0  0  0  0  0  0
   12.2000   -1.4287   23.1858 C   0  0  0  0  0  0  0  0  0  0  0  0
   12.2820   -0.0316   23.1733 C   0  0  0  0  0  0  0  0  0  0  0  0
   11.9178    2.1628   23.4661 C   0  0  0  0  0  0  0  0  0  0  0  0
   13.8497    3.2404   22.3014 C   0  0  0  0  0  0  0  0  0  0  0  0
   11.2689    3.4300   23.8879 C   0  0  0  0  0  0  0  0  0  0  0  0
   12.9645    4.4979   22.3569 C   0  0  0  0  0  0  0  0  0  0  0  0
   10.2622    6.2106   23.0347 C   0  0  0  0  0  0  0  0  0  0  0  0
    7.1543   -1.6552   21.4459 C   0  0  0  0  0  0  0  0  0  0  0  0
   11.0904   -2.1674   23.8570 C   0  0  0  0  0  0  0  0  0  0  0  0
    9.7773   -2.1504   23.0656 C   0  0  0  0  0  0  0  0  0  0  0  0
   11.4399    0.9108   23.7258 N   0  0  0  0  0  0  0  0  0  0  0  0
   12.2423    4.5625   23.6780 N   0  0  0  0  0  0  0  0  0  0  0  0
    9.2963   -0.8150   22.8329 N   0  0  0  0  0  0  0  0  0  0  0  0
   12.6219    7.1063   23.7104 O   0  0  0  0  0  0  0  0  0  0  0  0
   11.1643    6.0463   25.4815 O   0  0  0  0  0  0  0  0  0  0  0  0
    7.3942    0.8340   22.2182 O   0  0  0  0  0  0  0  0  0  0  0  0
    6.9533   -0.9461   23.9484 O   0  0  0  0  0  0  0  0  0  0  0  0
   11.6586    6.1106   24.1243 S   0  0  0  0  0  0  0  0  0  0  0  0
    7.6023   -0.5072   22.7279 S   0  0  0  0  0  0  0  0  0  0  0  0
  1  2  2  0
  1  3  1  0
  2  4  1  0
  3  6  2  0
  4  5  1  0
  4  7  2  0
  5  8  2  0
  5  9  1  0
  6  7  1  0
  6 14  1  0
  7 16  1  0
  8 10  1  0
  8 16  1  0
  9 11  1  0
 10 17  1  0
 11 17  1  0
 12 23  1  0
 13 24  1  0
 14 15  1  0
 15 18  1  0
 17 23  1  0
 18 24  1  0
 19 23  2  0
 20 23  2  0
 21 24  2  0
 22 24  2  0
M  END
