ELE-IMP-dfb36048-3
     RDKit          3D

 23 25  0  0  0  0  0  0  0  0999 V2000
   14.2429   -0.8337   21.7439 C   0  0  0  0  0  0  0  0  0  0  0  0
   14.2272    0.5618   21.8491 C   0  0  0  0  0  0  0  0  0  0  0  0
   13.2465   -1.6049   22.3382 C   0  0  0  0  0  0  0  0  0  0  0  0
   13.1877    1.1869   22.5668 C   0  0  0  0  0  0  0  0  0  0  0  0
   12.8595    2.5357   22.8721 C   0  0  0  0  0  0  0  0  0  0  0  0
   12.2048   -1.0089   23.0546 C   0  0  0  0  0  0  0  0  0  0  0  0
   12.1997    0.3873   23.1524 C   0  0  0  0  0  0  0  0  0  0  0  0
   11.6993    2.5254   23.6165 C   0  0  0  0  0  0  0  0  0  0  0  0
   10.9255    6.1478   23.4604 C   0  0  0  0  0  0  0  0  0  0  0  0
   13.5336    3.8115   22.5127 C   0  0  0  0  0  0  0  0  0  0  0  0
   10.9859    3.7069   24.1654 C   0  0  0  0  0  0  0  0  0  0  0  0
   13.0857    4.9273   23.4723 C   0  0  0  0  0  0  0  0  0  0  0  0
    9.4616    6.0315   23.1142 C   0  0  0  0  0  0  0  0  0  0  0  0
    8.4952    1.6099   21.3897 C   0  0  0  0  0  0  0  0  0  0  0  0
   11.1543   -1.8669   23.6772 C   0  0  0  0  0  0  0  0  0  0  0  0
    9.8294   -1.8694   22.9055 C   0  0  0  0  0  0  0  0  0  0  0  0
   11.3084    1.2281   23.7856 N   0  0  0  0  0  0  0  0  0  0  0  0
   11.6164    4.9477   23.6498 N   0  0  0  0  0  0  0  0  0  0  0  0
    9.2632   -0.5525   22.7869 N   0  0  0  0  0  0  0  0  0  0  0  0
   11.4376    7.2660   23.5541 O   0  0  0  0  0  0  0  0  0  0  0  0
    6.8834   -0.4168   21.7706 O   0  0  0  0  0  0  0  0  0  0  0  0
    8.8555   -0.6963   20.2248 O   0  0  0  0  0  0  0  0  0  0  0  0
    8.2690   -0.1533   21.4350 S   0  0  0  0  0  0  0  0  0  0  0  0
  1  2  2  0
  1  3  1  0
  2  4  1  0
  3  6  2  0
  4  5  1  0
  4  7  2  0
  5  8  2  0
  5 10  1  0
  6  7  1  0
  6 15  1  0
  7 17  1  0
  8 11  1  0
  8 17  1  0
  9 13  1  0
  9 18  1  0
  9 20  2  0
 10 12  1  0
 11 18  1  0
 12 18  1  0
 14 23  1  0
 15 16  1  0
 16 19  1  0
 19 23  1  0
 21 23  2  0
 22 23  2  0
M  END
