EMI-TUK-a58865cc-5
     RDKit          3D

 22 23  0  0  0  0  0  0  0  0999 V2000
   14.3788   -1.5650   23.0422 C   0  0  0  0  0  0  0  0  0  0  0  0
   13.6125   -1.6331   21.8787 C   0  0  0  0  0  0  0  0  0  0  0  0
   13.8828   -0.9047   24.1664 C   0  0  0  0  0  0  0  0  0  0  0  0
    5.7801    0.0974   19.2460 C   0  0  0  0  0  0  0  0  0  0  0  0
   12.3503   -1.0407   21.8392 C   0  0  0  0  0  0  0  0  0  0  0  0
   12.6206   -0.3123   24.1269 C   0  0  0  0  0  0  0  0  0  0  0  0
    6.4978    0.2800   20.4228 C   0  0  0  0  0  0  0  0  0  0  0  0
    6.4870    0.0560   18.0550 C   0  0  0  0  0  0  0  0  0  0  0  0
    8.4938    0.3579   19.1320 C   0  0  0  0  0  0  0  0  0  0  0  0
   11.8543   -0.3803   22.9633 C   0  0  0  0  0  0  0  0  0  0  0  0
    7.8809    0.4137   20.3734 C   0  0  0  0  0  0  0  0  0  0  0  0
    7.2569   -2.3292   25.8063 C   0  0  0  0  0  0  0  0  0  0  0  0
   10.0270    0.7502   21.6648 C   0  0  0  0  0  0  0  0  0  0  0  0
    8.0733   -1.0561   25.5606 C   0  0  0  0  0  0  0  0  0  0  0  0
    8.9105   -1.0240   24.2829 C   0  0  0  0  0  0  0  0  0  0  0  0
    9.7308    0.2530   24.1177 C   0  0  0  0  0  0  0  0  0  0  0  0
    7.8302    0.1820   17.9674 N   0  0  0  0  0  0  0  0  0  0  0  0
    8.6389    0.6009   21.5547 N   0  0  0  0  0  0  0  0  0  0  0  0
   10.5268    0.2425   22.9216 N   0  0  0  0  0  0  0  0  0  0  0  0
    6.5031   -2.2766   26.8204 O   0  0  0  0  0  0  0  0  0  0  0  0
    7.4146   -3.2642   24.9739 O   0  0  0  0  0  0  0  0  0  0  0  0
   10.7334    1.2549   20.7907 O   0  0  0  0  0  0  0  0  0  0  0  0
  1  2  2  0
  1  3  1  0
  2  5  1  0
  3  6  2  0
  4  7  2  0
  4  8  1  0
  5 10  2  0
  6 10  1  0
  7 11  1  0
  8 17  2  0
  9 11  2  0
  9 17  1  0
 10 19  1  0
 11 18  1  0
 12 14  1  0
 12 20  1  0
 12 21  2  0
 13 18  1  0
 13 19  1  0
 13 22  2  0
 14 15  1  0
 15 16  1  0
 16 19  1  0
M  CHG  1  20  -1
M  END
