EMI-TUK-a58865cc-1
     RDKit          3D

 25 27  0  0  0  0  0  0  0  0999 V2000
   14.4214   -1.3325   23.6216 C   0  0  0  0  0  0  0  0  0  0  0  0
   13.7288   -0.4780   24.4793 C   0  0  0  0  0  0  0  0  0  0  0  0
   13.7866   -1.8543   22.4944 C   0  0  0  0  0  0  0  0  0  0  0  0
    8.5861    1.5495   25.4356 C   0  0  0  0  0  0  0  0  0  0  0  0
    5.7781    0.6724   18.9519 C   0  0  0  0  0  0  0  0  0  0  0  0
    7.8614    0.5231   26.0413 C   0  0  0  0  0  0  0  0  0  0  0  0
   12.4012   -0.1453   24.2100 C   0  0  0  0  0  0  0  0  0  0  0  0
   12.4590   -1.5216   22.2251 C   0  0  0  0  0  0  0  0  0  0  0  0
    9.4227    1.2691   24.3552 C   0  0  0  0  0  0  0  0  0  0  0  0
    6.4945    0.5504   20.1374 C   0  0  0  0  0  0  0  0  0  0  0  0
    8.8101   -1.0642   24.4865 C   0  0  0  0  0  0  0  0  0  0  0  0
    6.4466    0.4312   17.7625 C   0  0  0  0  0  0  0  0  0  0  0  0
    8.4146   -0.0241   18.8570 C   0  0  0  0  0  0  0  0  0  0  0  0
    7.9734   -0.7838   25.5668 C   0  0  0  0  0  0  0  0  0  0  0  0
   11.7663   -0.6671   23.0828 C   0  0  0  0  0  0  0  0  0  0  0  0
    9.5347   -0.0378   23.8807 C   0  0  0  0  0  0  0  0  0  0  0  0
    7.8384    0.1960   20.0977 C   0  0  0  0  0  0  0  0  0  0  0  0
    7.2222   -1.8483   26.1938 C   0  0  0  0  0  0  0  0  0  0  0  0
    9.9454   -0.2830   21.4113 C   0  0  0  0  0  0  0  0  0  0  0  0
    7.7510    0.0848   17.6842 N   0  0  0  0  0  0  0  0  0  0  0  0
    6.4129   -1.5894   27.2347 N   0  0  0  0  0  0  0  0  0  0  0  0
    8.5937    0.0643   21.2874 N   0  0  0  0  0  0  0  0  0  0  0  0
   10.3718   -0.3174   22.8000 N   0  0  0  0  0  0  0  0  0  0  0  0
    7.3223   -3.1100   25.7425 N   0  0  0  0  0  0  0  0  0  0  0  0
   10.6802   -0.5600   20.4608 O   0  0  0  0  0  0  0  0  0  0  0  0
  1  2  2  0
  1  3  1  0
  2  7  1  0
  3  8  2  0
  4  6  2  0
  4  9  1  0
  5 10  2  0
  5 12  1  0
  6 14  1  0
  7 15  2  0
  8 15  1  0
  9 16  2  0
 10 17  1  0
 11 14  2  0
 11 16  1  0
 12 20  2  0
 13 17  2  0
 13 20  1  0
 14 18  1  0
 15 23  1  0
 16 23  1  0
 17 22  1  0
 18 21  1  0
 18 24  2  0
 19 22  1  0
 19 23  1  0
 19 25  2  0
M  CHG  1  24   1
M  END
