EMM-WAB-00d33046-1
     RDKit          3D

 24 26  0  0  1  0  0  0  0  0999 V2000
    5.5718    3.3933   23.6487 C   0  0  0  0  0  0  0  0  0  0  0  0
    4.6607    2.3941   23.3250 C   0  0  0  0  0  0  0  0  0  0  0  0
    6.8706    3.2617   23.1846 C   0  0  0  0  0  0  0  0  0  0  0  0
    7.4605   -0.0919   18.7235 C   0  0  0  0  0  0  0  0  0  0  0  0
    5.8754    1.0841   17.9267 C   0  0  0  0  0  0  0  0  0  0  0  0
    5.0705    1.3092   22.5579 C   0  0  0  0  0  0  0  0  0  0  0  0
    6.3917    1.2711   22.1424 C   0  0  0  0  0  0  0  0  0  0  0  0
    6.7416    0.3420   19.8123 C   0  0  0  0  0  0  0  0  0  0  0  0
    8.8244   -4.4703   25.4401 C   0  0  0  0  0  0  0  0  0  0  0  0
    8.3206   -0.2603   21.6794 C   0  0  0  0  0  0  0  0  0  0  0  0
    7.7274   -2.3502   24.7987 C   0  0  0  0  0  0  0  0  0  0  0  0
    9.8097   -3.0356   23.6096 C   0  0  0  0  0  0  0  0  0  0  0  0
    7.3162   -1.7389   23.4639 C   0  0  0  0  0  0  0  0  0  0  0  0
    9.7877   -1.5753   23.1715 C   0  0  0  0  0  0  0  0  0  0  0  0
    9.9711   -5.4243   25.2097 C   0  0  0  0  0  0  0  0  0  0  0  0
    6.9094    0.1207   21.3032 C   0  0  0  0  0  0  0  0  0  0  0  0
    6.9163    0.3736   17.5528 N   0  0  0  0  0  0  0  0  0  0  0  0
    7.3057    2.2227   22.4371 N   0  0  0  0  0  0  0  0  0  0  0  0
    5.7297    1.0946   19.2861 N   0  0  0  0  0  0  0  0  0  0  0  0
    8.8020   -3.3302   24.6354 N   0  0  0  0  0  0  0  0  0  0  0  0
    8.4530   -1.1625   22.7359 N   0  0  0  0  0  0  0  0  0  0  0  0
    7.9833   -4.7248   26.3053 O   0  0  0  0  0  0  0  0  0  0  0  0
    9.2698    0.2287   21.0625 O   0  0  0  0  0  0  0  0  0  0  0  0
    3.9412    0.0743   22.1593 Cl  0  0  0  0  0  0  0  0  0  0  0  0
  1  2  2  0
  1  3  1  0
  2  6  1  0
  3 18  2  0
  4  8  2  0
  4 17  1  0
  5 17  2  0
  5 19  1  0
  6  7  2  0
  6 24  1  0
  7 16  1  0
  7 18  1  0
  8 16  1  0
  8 19  1  0
  9 15  1  0
  9 20  1  0
  9 22  2  0
 10 16  1  0
 10 21  1  0
 10 23  2  0
 11 13  1  0
 11 20  1  0
 12 14  1  0
 12 20  1  0
 13 21  1  0
 14 21  1  0
M  END
