FAB-NA_-a03f4448-1
     RDKit          3D

 26 28  0  0  1  0  0  0  0  0999 V2000
   15.7399   -0.0253   26.6934 C   0  0  0  0  0  0  0  0  0  0  0  0
   14.5254   -2.1281   26.4051 C   0  0  0  0  0  0  0  0  0  0  0  0
   13.6181   -0.0897   25.4782 C   0  0  0  0  0  0  0  0  0  0  0  0
   13.4307   -2.8390   25.9134 C   0  0  0  0  0  0  0  0  0  0  0  0
   12.5234   -0.8006   24.9864 C   0  0  0  0  0  0  0  0  0  0  0  0
   14.6191   -0.7534   26.1876 C   0  0  0  0  0  0  0  0  0  0  0  0
   12.4297   -2.1753   25.2040 C   0  0  0  0  0  0  0  0  0  0  0  0
    9.3661   -4.9273   23.3134 C   0  0  0  0  0  0  0  0  0  0  0  0
    9.7395   -4.8242   24.5863 C   0  0  0  0  0  0  0  0  0  0  0  0
    8.7594   -5.5868   25.3733 C   0  0  0  0  0  0  0  0  0  0  0  0
   11.2729   -2.9257   24.6851 C   0  0  0  0  0  0  0  0  0  0  0  0
   10.8609   -4.1309   25.1262 C   0  0  0  0  0  0  0  0  0  0  0  0
    5.6950   -2.0037   19.8916 C   0  0  0  0  0  0  0  0  0  0  0  0
    5.9718   -4.4261   20.3112 C   0  0  0  0  0  0  0  0  0  0  0  0
    5.7002   -2.9382   22.2569 C   0  0  0  0  0  0  0  0  0  0  0  0
    7.1752   -5.0920   20.9624 C   0  0  0  0  0  0  0  0  0  0  0  0
    6.8992   -3.5834   22.9387 C   0  0  0  0  0  0  0  0  0  0  0  0
    8.1379   -5.7388   23.1738 C   0  0  0  0  0  0  0  0  0  0  0  0
    6.2097   -0.6630   20.3513 C   0  0  0  0  0  0  0  0  0  0  0  0
   16.6500    0.5661   27.1041 N   0  0  0  0  0  0  0  0  0  0  0  0
    5.8007   -3.0573   20.7984 N   0  0  0  0  0  0  0  0  0  0  0  0
    7.0280   -5.0141   22.4656 N   0  0  0  0  0  0  0  0  0  0  0  0
    8.7658   -5.7240   26.5847 O   0  0  0  0  0  0  0  0  0  0  0  0
    5.2162   -2.1098   18.7596 O   0  0  0  0  0  0  0  0  0  0  0  0
    7.8361   -6.1248   24.5221 O   0  0  0  0  0  0  0  0  0  0  0  0
    6.8039    0.1671   18.9176 Cl  0  0  0  0  0  0  0  0  0  0  0  0
  1  6  1  0
  1 20  3  0
  2  4  2  0
  2  6  1  0
  3  5  1  0
  3  6  2  0
  4  7  1  0
  5  7  2  0
  7 11  1  0
  8  9  2  0
  8 18  1  0
  9 10  1  0
  9 12  1  0
 10 23  2  0
 10 25  1  0
 11 12  2  0
 13 19  1  0
 13 21  1  0
 13 24  2  0
 14 16  1  0
 14 21  1  0
 15 17  1  0
 15 21  1  0
 16 22  1  0
 17 22  1  0
 18 22  1  0
 18 25  1  0
 19 26  1  0
M  CHG  1  22   1
M  END
