FAB-UNK-7ad5ab26-3
     RDKit          3D

 28 30  0  0  0  0  0  0  0  0999 V2000
    5.3012   -6.0414   27.1272 C   0  0  0  0  0  0  0  0  0  0  0  0
    7.5696   -5.2583   26.6572 C   0  0  0  0  0  0  0  0  0  0  0  0
    5.6786   -3.9407   25.9326 C   0  0  0  0  0  0  0  0  0  0  0  0
    8.4376   -4.3133   26.1101 C   0  0  0  0  0  0  0  0  0  0  0  0
    6.5466   -2.9957   25.3856 C   0  0  0  0  0  0  0  0  0  0  0  0
    6.1901   -5.0720   26.5683 C   0  0  0  0  0  0  0  0  0  0  0  0
    7.9262   -3.1820   25.4744 C   0  0  0  0  0  0  0  0  0  0  0  0
    7.3928   -4.3752   21.5547 C   0  0  0  0  0  0  0  0  0  0  0  0
    6.3973   -2.2850   20.9167 C   0  0  0  0  0  0  0  0  0  0  0  0
    8.1651   -3.7657   22.4653 C   0  0  0  0  0  0  0  0  0  0  0  0
    6.4568   -3.6181   20.7294 C   0  0  0  0  0  0  0  0  0  0  0  0
    7.2477   -1.5813   21.9255 C   0  0  0  0  0  0  0  0  0  0  0  0
    8.8404   -2.1866   24.8972 C   0  0  0  0  0  0  0  0  0  0  0  0
    8.9199   -1.8312   23.6039 C   0  0  0  0  0  0  0  0  0  0  0  0
   13.5426    1.0710   23.6950 C   0  0  0  0  0  0  0  0  0  0  0  0
   11.0108    1.2529   23.8063 C   0  0  0  0  0  0  0  0  0  0  0  0
   12.1063   -0.3883   22.3113 C   0  0  0  0  0  0  0  0  0  0  0  0
   10.0303    0.1868   24.2803 C   0  0  0  0  0  0  0  0  0  0  0  0
   11.1426   -1.4751   22.7683 C   0  0  0  0  0  0  0  0  0  0  0  0
   13.6265    2.2207   24.6673 C   0  0  0  0  0  0  0  0  0  0  0  0
    4.5794   -6.8287   27.5810 N   0  0  0  0  0  0  0  0  0  0  0  0
    8.1103   -2.3987   22.6632 N   0  0  0  0  0  0  0  0  0  0  0  0
   12.2625    0.6560   23.3254 N   0  0  0  0  0  0  0  0  0  0  0  0
    9.8477   -0.8311   23.1865 N   0  0  0  0  0  0  0  0  0  0  0  0
    5.8266   -4.3692   19.9382 O   0  0  0  0  0  0  0  0  0  0  0  0
    7.1428   -0.3614   22.0440 O   0  0  0  0  0  0  0  0  0  0  0  0
   14.5843    0.5565   23.2798 O   0  0  0  0  0  0  0  0  0  0  0  0
   12.8612    3.5989   23.8847 Cl  0  0  0  0  0  0  0  0  0  0  0  0
  1  6  1  0
  1 21  3  0
  2  4  2  0
  2  6  1  0
  3  5  1  0
  3  6  2  0
  4  7  1  0
  5  7  2  0
  7 13  1  0
  8 10  2  0
  8 11  1  0
  9 11  2  0
  9 12  1  0
 10 22  1  0
 11 25  1  0
 12 22  1  0
 12 26  2  0
 13 14  2  0
 14 22  1  0
 14 24  1  0
 15 20  1  0
 15 23  1  0
 15 27  2  0
 16 18  1  0
 16 23  1  0
 17 19  1  0
 17 23  1  0
 18 24  1  0
 19 24  1  0
 20 28  1  0
M  CHG  2  24   1  25  -1
M  END
