FAB-ASS-ec2fd593-1
     RDKit          3D

 39 42  0  0  1  0  0  0  0  0999 V2000
   12.1400   -2.7414   23.2769 C   0  0  0  0  0  0  0  0  0  0  0  0
    9.2350    3.2575   24.9850 C   0  0  0  0  0  0  0  0  0  0  0  0
    7.3253   -4.1957   26.7838 C   0  0  0  0  0  0  0  0  0  0  0  0
   13.3891   -2.0983   23.2640 C   0  0  0  0  0  0  0  0  0  0  0  0
    8.7883    4.5540   24.7302 C   0  0  0  0  0  0  0  0  0  0  0  0
    7.9227   -5.0780   27.6840 C   0  0  0  0  0  0  0  0  0  0  0  0
   11.2266    3.6884   23.6869 C   0  0  0  0  0  0  0  0  0  0  0  0
    5.4190   -5.6691   26.6045 C   0  0  0  0  0  0  0  0  0  0  0  0
   10.9757   -2.0312   23.5815 C   0  0  0  0  0  0  0  0  0  0  0  0
   10.4542    2.8246   24.4634 C   0  0  0  0  0  0  0  0  0  0  0  0
   11.0903   -0.6848   23.8784 C   0  0  0  0  0  0  0  0  0  0  0  0
    6.0735   -4.4912   26.2441 C   0  0  0  0  0  0  0  0  0  0  0  0
   12.3298   -0.0593   23.8717 C   0  0  0  0  0  0  0  0  0  0  0  0
   13.4915   -0.7379   23.5600 C   0  0  0  0  0  0  0  0  0  0  0  0
    9.5608    5.4178   23.9537 C   0  0  0  0  0  0  0  0  0  0  0  0
    7.2682   -6.2559   28.0444 C   0  0  0  0  0  0  0  0  0  0  0  0
   10.7799    4.9850   23.4321 C   0  0  0  0  0  0  0  0  0  0  0  0
    6.0164   -6.5515   27.5046 C   0  0  0  0  0  0  0  0  0  0  0  0
    9.6911   -2.7112   23.5762 C   0  0  0  0  0  0  0  0  0  0  0  0
    9.1511   -3.3530   22.5157 C   0  0  0  0  0  0  0  0  0  0  0  0
    7.8349   -4.0195   22.6391 C   0  0  0  0  0  0  0  0  0  0  0  0
    9.3399    0.6576   22.8694 C   0  0  0  0  0  0  0  0  0  0  0  0
    4.8721   -3.1992   22.7778 C   0  0  0  0  0  0  0  0  0  0  0  0
   10.0325    0.3150   24.1756 C   0  0  0  0  0  0  0  0  0  0  0  0
   10.9325    1.4407   24.7377 C   0  0  0  0  0  0  0  0  0  0  0  0
    5.4252   -3.5344   25.2711 C   0  0  0  0  0  0  0  0  0  0  0  0
    5.7986   -3.8432   23.8205 C   0  0  0  0  0  0  0  0  0  0  0  0
   10.1006    1.0557   21.9441 O   0  0  0  0  0  0  0  0  0  0  0  0
    4.7783   -1.9409   22.8730 O   0  0  0  0  0  0  0  0  0  0  0  0
    7.4789   -5.0058   22.0140 O   0  0  0  0  0  0  0  0  0  0  0  0
    8.0869    0.4996   22.8769 O   0  0  0  0  0  0  0  0  0  0  0  0
    4.3211   -3.9805   21.9542 O   0  0  0  0  0  0  0  0  0  0  0  0
   12.2674    1.2772   24.1785 O   0  0  0  0  0  0  0  0  0  0  0  0
   14.6956   -0.1143   23.5453 O   0  0  0  0  0  0  0  0  0  0  0  0
    9.1132    6.6817   23.7120 O   0  0  0  0  0  0  0  0  0  0  0  0
    7.8625   -7.1094   28.9245 O   0  0  0  0  0  0  0  0  0  0  0  0
   11.5426    5.8192   22.6717 O   0  0  0  0  0  0  0  0  0  0  0  0
    5.3679   -7.6991   27.8484 O   0  0  0  0  0  0  0  0  0  0  0  0
    7.1125   -3.3349   23.5667 O   0  0  0  0  0  0  0  0  0  0  0  0
  1  4  2  0
  1  9  1  0
  2  5  2  0
  2 10  1  0
  3  6  2  0
  3 12  1  0
  4 14  1  0
  5 15  1  0
  6 16  1  0
  7 10  2  0
  7 17  1  0
  8 12  2  0
  8 18  1  0
  9 11  2  0
  9 19  1  0
 10 25  1  0
 11 13  1  0
 11 24  1  0
 12 26  1  0
 13 14  2  0
 13 33  1  0
 14 34  1  0
 15 17  2  0
 15 35  1  0
 16 18  2  0
 16 36  1  0
 17 37  1  0
 18 38  1  0
 19 20  2  0
 20 21  1  0
 21 30  2  0
 21 39  1  0
 22 24  1  0
 22 28  1  0
 22 31  2  0
 23 27  1  0
 23 29  1  0
 23 32  2  0
 24 25  1  0
 25 33  1  0
 26 27  1  0
 27 39  1  0
M  CHG  2  28  -1  29  -1
M  END
