FAB-ASS-ec2fd593-2
     RDKit          3D

 40 43  0  0  1  0  0  0  0  0999 V2000
   13.8191   -0.7184   24.1161 C   0  0  0  0  0  0  0  0  0  0  0  0
    8.1145   -3.8138   23.5626 C   0  0  0  0  0  0  0  0  0  0  0  0
    8.0580    4.6093   24.1497 C   0  0  0  0  0  0  0  0  0  0  0  0
   13.9619   -2.0358   24.5832 C   0  0  0  0  0  0  0  0  0  0  0  0
    6.7629   -4.1412   23.6698 C   0  0  0  0  0  0  0  0  0  0  0  0
    6.8573    4.2242   23.5535 C   0  0  0  0  0  0  0  0  0  0  0  0
    7.6295   -2.4436   21.6327 C   0  0  0  0  0  0  0  0  0  0  0  0
    8.1444    6.5545   22.7194 C   0  0  0  0  0  0  0  0  0  0  0  0
   12.6617   -0.3232   23.4402 C   0  0  0  0  0  0  0  0  0  0  0  0
    8.5478   -2.9649   22.5441 C   0  0  0  0  0  0  0  0  0  0  0  0
   11.6696   -1.2659   23.2367 C   0  0  0  0  0  0  0  0  0  0  0  0
    8.7016    5.7744   23.7327 C   0  0  0  0  0  0  0  0  0  0  0  0
   11.8228   -2.5677   23.6941 C   0  0  0  0  0  0  0  0  0  0  0  0
   12.9516   -2.9767   24.3766 C   0  0  0  0  0  0  0  0  0  0  0  0
    5.8446   -3.6199   22.7584 C   0  0  0  0  0  0  0  0  0  0  0  0
    6.3001    5.0042   22.5403 C   0  0  0  0  0  0  0  0  0  0  0  0
    6.2779   -2.7711   21.7399 C   0  0  0  0  0  0  0  0  0  0  0  0
    6.9437    6.1694   22.1232 C   0  0  0  0  0  0  0  0  0  0  0  0
   12.5254    1.0478   22.9777 C   0  0  0  0  0  0  0  0  0  0  0  0
   12.0076    2.0679   23.6985 C   0  0  0  0  0  0  0  0  0  0  0  0
   11.9322    3.4278   23.1180 C   0  0  0  0  0  0  0  0  0  0  0  0
    9.3921   -0.3869   23.5289 C   0  0  0  0  0  0  0  0  0  0  0  0
   12.5446    6.3137   23.9935 C   0  0  0  0  0  0  0  0  0  0  0  0
   10.3301   -1.1145   22.6125 C   0  0  0  0  0  0  0  0  0  0  0  0
    9.9912   -2.6130   22.4310 C   0  0  0  0  0  0  0  0  0  0  0  0
    8.4921   -0.4251   25.7135 C   0  0  0  0  0  0  0  0  0  0  0  0
   10.0009    6.1930   24.3802 C   0  0  0  0  0  0  0  0  0  0  0  0
   11.2191    5.6119   23.6610 C   0  0  0  0  0  0  0  0  0  0  0  0
   12.8239    6.3387   25.2275 O   0  0  0  0  0  0  0  0  0  0  0  0
   12.3074    3.7425   21.9997 O   0  0  0  0  0  0  0  0  0  0  0  0
    8.7691    0.6182   23.2146 O   0  0  0  0  0  0  0  0  0  0  0  0
   13.1986    6.7750   23.0179 O   0  0  0  0  0  0  0  0  0  0  0  0
   10.7452   -3.3723   23.4191 O   0  0  0  0  0  0  0  0  0  0  0  0
   13.0858   -4.2479   24.8295 O   0  0  0  0  0  0  0  0  0  0  0  0
    4.5272   -3.9476   22.8740 O   0  0  0  0  0  0  0  0  0  0  0  0
    5.1268    4.6171   21.9659 O   0  0  0  0  0  0  0  0  0  0  0  0
    5.3906   -2.2564   20.8435 O   0  0  0  0  0  0  0  0  0  0  0  0
    6.4096    6.9389   21.1340 O   0  0  0  0  0  0  0  0  0  0  0  0
   11.3736    4.2436   24.0526 O   0  0  0  0  0  0  0  0  0  0  0  0
    9.3538   -1.0182   24.7369 O   0  0  0  0  0  0  0  0  0  0  0  0
  1  4  2  0
  1  9  1  0
  2  5  2  0
  2 10  1  0
  3  6  2  0
  3 12  1  0
  4 14  1  0
  5 15  1  0
  6 16  1  0
  7 10  2  0
  7 17  1  0
  8 12  2  0
  8 18  1  0
  9 11  2  0
  9 19  1  0
 10 25  1  0
 11 13  1  0
 11 24  1  0
 12 27  1  0
 13 14  2  0
 13 33  1  0
 14 34  1  0
 15 17  2  0
 15 35  1  0
 16 18  2  0
 16 36  1  0
 17 37  1  0
 18 38  1  0
 19 20  2  0
 20 21  1  0
 21 30  2  0
 21 39  1  0
 22 24  1  0
 22 31  2  0
 22 40  1  0
 23 28  1  0
 23 29  1  0
 23 32  2  0
 24 25  1  0
 25 33  1  0
 26 40  1  0
 27 28  1  0
 28 39  1  0
M  CHG  1  29  -1
M  END
