FAR-UNI-736b943a-5
     RDKit          3D

 34 39  0  0  1  0  0  0  0  0999 V2000
    5.4019    0.1926   18.7603 C   0  0  0  0  0  0  0  0  0  0  0  0
    4.5497    1.0048   19.5054 C   0  0  0  0  0  0  0  0  0  0  0  0
    6.6260   -0.2349   19.2869 C   0  0  0  0  0  0  0  0  0  0  0  0
    9.2099    3.0339   24.4115 C   0  0  0  0  0  0  0  0  0  0  0  0
   10.9721    1.8676   23.2404 C   0  0  0  0  0  0  0  0  0  0  0  0
    4.8918    1.4153   20.7968 C   0  0  0  0  0  0  0  0  0  0  0  0
    9.9968    4.1850   24.4493 C   0  0  0  0  0  0  0  0  0  0  0  0
   11.7590    3.0187   23.2782 C   0  0  0  0  0  0  0  0  0  0  0  0
    5.0461   -4.1924   24.7269 C   0  0  0  0  0  0  0  0  0  0  0  0
    6.1015   -3.3921   25.0961 C   0  0  0  0  0  0  0  0  0  0  0  0
    6.3148   -5.4311   25.9045 C   0  0  0  0  0  0  0  0  0  0  0  0
    6.9940    0.1651   20.5871 C   0  0  0  0  0  0  0  0  0  0  0  0
    9.6975    1.8752   23.8071 C   0  0  0  0  0  0  0  0  0  0  0  0
    8.1216   -0.0671   21.4194 C   0  0  0  0  0  0  0  0  0  0  0  0
    6.1185    0.9816   21.3121 C   0  0  0  0  0  0  0  0  0  0  0  0
   11.2713    4.1774   23.8826 C   0  0  0  0  0  0  0  0  0  0  0  0
    7.9147    0.6025   22.6009 C   0  0  0  0  0  0  0  0  0  0  0  0
   10.1761   -1.0917   24.9826 C   0  0  0  0  0  0  0  0  0  0  0  0
    9.4443   -2.8268   22.8143 C   0  0  0  0  0  0  0  0  0  0  0  0
    9.3661   -0.8392   21.1987 C   0  0  0  0  0  0  0  0  0  0  0  0
   10.7730   -2.4763   24.8778 C   0  0  0  0  0  0  0  0  0  0  0  0
    8.8395    0.6209   23.7642 C   0  0  0  0  0  0  0  0  0  0  0  0
    9.9279   -1.4027   22.5241 C   0  0  0  0  0  0  0  0  0  0  0  0
    9.3261   -4.7043   26.0280 C   0  0  0  0  0  0  0  0  0  0  0  0
    8.1651   -3.8177   26.4824 C   0  0  0  0  0  0  0  0  0  0  0  0
    9.5617   -4.6281   24.5237 C   0  0  0  0  0  0  0  0  0  0  0  0
    5.1847   -5.4604   25.2336 N   0  0  0  0  0  0  0  0  0  0  0  0
    6.7031    1.2293   22.5363 N   0  0  0  0  0  0  0  0  0  0  0  0
    6.9056   -4.1994   25.8504 N   0  0  0  0  0  0  0  0  0  0  0  0
    9.8522   -3.2761   24.0774 N   0  0  0  0  0  0  0  0  0  0  0  0
    9.6289   -0.6399   23.7702 N   0  0  0  0  0  0  0  0  0  0  0  0
   10.2522   -0.4347   26.0188 O   0  0  0  0  0  0  0  0  0  0  0  0
    8.8592   -3.5173   21.9829 O   0  0  0  0  0  0  0  0  0  0  0  0
   12.2418    5.5975   23.9292 Cl  0  0  0  0  0  0  0  0  0  0  0  0
  1  2  2  0
  1  3  1  0
  2  6  1  0
  3 12  2  0
  4  7  2  0
  4 13  1  0
  5  8  1  0
  5 13  2  0
  6 15  2  0
  7 16  1  0
  8 16  2  0
  9 10  2  0
  9 27  1  0
 10 29  1  0
 11 27  2  0
 11 29  1  0
 12 14  1  0
 12 15  1  0
 13 22  1  0
 14 17  2  0
 14 20  1  0
 15 28  1  0
 16 34  1  0
 17 22  1  0
 17 28  1  0
 18 21  1  0
 18 31  1  0
 18 32  2  0
 19 23  1  0
 19 30  1  0
 19 33  2  0
 20 23  1  0
 21 30  1  0
 22 31  1  0
 23 31  1  0
 24 25  1  0
 24 26  1  0
 25 29  1  0
 26 30  1  0
M  END
