FAR-UNI-736b943a-3
     RDKit          3D

 21 21  0  0  1  0  0  0  0  0999 V2000
   11.2863   -1.3734   24.9285 C   0  0  0  0  0  0  0  0  0  0  0  0
   11.8214   -3.7181   25.1592 C   0  0  0  0  0  0  0  0  0  0  0  0
   12.5325   -1.0370   25.4571 C   0  0  0  0  0  0  0  0  0  0  0  0
   13.0677   -3.3816   25.6877 C   0  0  0  0  0  0  0  0  0  0  0  0
   10.9307   -2.7140   24.7797 C   0  0  0  0  0  0  0  0  0  0  0  0
   13.4232   -2.0411   25.8366 C   0  0  0  0  0  0  0  0  0  0  0  0
    9.1491   -4.3163   24.0252 C   0  0  0  0  0  0  0  0  0  0  0  0
    6.3177   -2.5867   20.2226 C   0  0  0  0  0  0  0  0  0  0  0  0
    5.4674    0.4103   19.7960 C   0  0  0  0  0  0  0  0  0  0  0  0
    7.5562    0.2610   18.3938 C   0  0  0  0  0  0  0  0  0  0  0  0
    6.8018   -6.3278   23.4489 C   0  0  0  0  0  0  0  0  0  0  0  0
    6.5062   -4.6605   21.5880 C   0  0  0  0  0  0  0  0  0  0  0  0
    6.4398   -0.5131   19.0781 C   0  0  0  0  0  0  0  0  0  0  0  0
    7.4715   -5.2414   22.6183 C   0  0  0  0  0  0  0  0  0  0  0  0
    9.6680   -3.0549   24.2437 N   0  0  0  0  0  0  0  0  0  0  0  0
    6.9751   -3.3648   21.1514 N   0  0  0  0  0  0  0  0  0  0  0  0
    9.6815   -5.3958   24.2525 O   0  0  0  0  0  0  0  0  0  0  0  0
    5.2712   -2.8798   19.6537 O   0  0  0  0  0  0  0  0  0  0  0  0
    7.8913   -4.1938   23.4906 O   0  0  0  0  0  0  0  0  0  0  0  0
    7.0094   -1.4250   20.0239 O   0  0  0  0  0  0  0  0  0  0  0  0
   14.9610   -1.6257   26.4887 Cl  0  0  0  0  0  0  0  0  0  0  0  0
  1  3  2  0
  1  5  1  0
  2  4  1  0
  2  5  2  0
  3  6  1  0
  4  6  2  0
  5 15  1  0
  6 21  1  0
  7 15  1  0
  7 17  2  0
  7 19  1  0
  8 16  1  0
  8 18  2  0
  8 20  1  0
  9 13  1  0
 10 13  1  0
 11 14  1  0
 12 14  1  0
 12 16  1  0
 13 20  1  0
 14 19  1  0
M  END
