FAR-UNI-a04c1544-1
     RDKit          3D

 29 30  0  0  1  0  0  0  0  0999 V2000
   12.7787   -0.1911   22.2311 C   0  0  0  0  0  0  0  0  0  0  0  0
   12.3234    5.8244   24.4961 C   0  0  0  0  0  0  0  0  0  0  0  0
   12.0153   -1.2774   21.8037 C   0  0  0  0  0  0  0  0  0  0  0  0
   12.4944    0.4248   23.4500 C   0  0  0  0  0  0  0  0  0  0  0  0
   11.0451    6.2366   24.8724 C   0  0  0  0  0  0  0  0  0  0  0  0
   12.4823    4.7148   23.6659 C   0  0  0  0  0  0  0  0  0  0  0  0
   10.9675   -1.7479   22.5952 C   0  0  0  0  0  0  0  0  0  0  0  0
   11.4466   -0.0457   24.2414 C   0  0  0  0  0  0  0  0  0  0  0  0
    9.9256    5.5390   24.4186 C   0  0  0  0  0  0  0  0  0  0  0  0
   11.3629    4.0173   23.2121 C   0  0  0  0  0  0  0  0  0  0  0  0
   10.6831   -1.1320   23.8140 C   0  0  0  0  0  0  0  0  0  0  0  0
   10.0845    4.4294   23.5884 C   0  0  0  0  0  0  0  0  0  0  0  0
    7.1166   -1.4881   25.2686 C   0  0  0  0  0  0  0  0  0  0  0  0
    6.2409   -5.0212   25.9927 C   0  0  0  0  0  0  0  0  0  0  0  0
    8.5945    1.3660   23.5421 C   0  0  0  0  0  0  0  0  0  0  0  0
    5.6164   -7.0703   26.9989 C   0  0  0  0  0  0  0  0  0  0  0  0
    9.5494   -1.6404   24.6707 C   0  0  0  0  0  0  0  0  0  0  0  0
    8.8808    3.6784   23.1001 C   0  0  0  0  0  0  0  0  0  0  0  0
    4.5064   -3.4918   25.0076 C   0  0  0  0  0  0  0  0  0  0  0  0
    8.2141   -0.9574   24.3533 C   0  0  0  0  0  0  0  0  0  0  0  0
    5.8365   -3.5736   25.7487 C   0  0  0  0  0  0  0  0  0  0  0  0
    6.8629   -2.8349   25.0489 N   0  0  0  0  0  0  0  0  0  0  0  0
    8.2742    0.4701   24.5429 N   0  0  0  0  0  0  0  0  0  0  0  0
    6.5107   -0.7780   26.0683 O   0  0  0  0  0  0  0  0  0  0  0  0
    7.2825   -5.5002   25.5557 O   0  0  0  0  0  0  0  0  0  0  0  0
    8.8650    1.0741   22.3818 O   0  0  0  0  0  0  0  0  0  0  0  0
    4.6038   -4.1533   23.7513 O   0  0  0  0  0  0  0  0  0  0  0  0
    5.3162   -5.6965   26.7313 O   0  0  0  0  0  0  0  0  0  0  0  0
    8.5665    2.6402   24.0350 O   0  0  0  0  0  0  0  0  0  0  0  0
  1  3  2  0
  1  4  1  0
  2  5  2  0
  2  6  1  0
  3  7  1  0
  4  8  2  0
  5  9  1  0
  6 10  2  0
  7 11  2  0
  8 11  1  0
  9 12  2  0
 10 12  1  0
 11 17  1  0
 12 18  1  0
 13 20  1  0
 13 22  1  0
 13 24  2  0
 14 21  1  0
 14 25  2  0
 14 28  1  0
 15 23  1  0
 15 26  2  0
 15 29  1  0
 16 28  1  0
 17 20  1  0
 18 29  1  0
 19 21  1  0
 19 27  1  0
 20 23  1  0
 21 22  1  0
M  END
