FAR-UNI-736b943a-6
     RDKit          3D

 30 32  0  0  1  0  0  0  0  0999 V2000
    4.6174    1.3911   18.7850 C   0  0  0  0  0  0  0  0  0  0  0  0
   10.9155    0.8935   23.4360 C   0  0  0  0  0  0  0  0  0  0  0  0
    4.6934    0.6157   19.9366 C   0  0  0  0  0  0  0  0  0  0  0  0
   10.5370   -0.4146   23.7169 C   0  0  0  0  0  0  0  0  0  0  0  0
    5.6143    1.2402   17.8346 C   0  0  0  0  0  0  0  0  0  0  0  0
    9.3127    1.6434   25.0252 C   0  0  0  0  0  0  0  0  0  0  0  0
    6.6951   -0.3508   19.0910 C   0  0  0  0  0  0  0  0  0  0  0  0
   10.2965    1.9478   24.0982 C   0  0  0  0  0  0  0  0  0  0  0  0
    5.7490   -0.2743   20.1004 C   0  0  0  0  0  0  0  0  0  0  0  0
    9.5426   -0.6134   24.6611 C   0  0  0  0  0  0  0  0  0  0  0  0
    6.8458   -2.0098   21.5720 C   0  0  0  0  0  0  0  0  0  0  0  0
    8.2777   -4.5668   25.5907 C   0  0  0  0  0  0  0  0  0  0  0  0
    5.9395   -3.7936   25.4555 C   0  0  0  0  0  0  0  0  0  0  0  0
    7.4431   -5.1215   26.7382 C   0  0  0  0  0  0  0  0  0  0  0  0
    6.0344   -5.1436   26.1615 C   0  0  0  0  0  0  0  0  0  0  0  0
    7.3750   -3.4949   24.9358 C   0  0  0  0  0  0  0  0  0  0  0  0
    7.4423   -3.5991   23.4070 C   0  0  0  0  0  0  0  0  0  0  0  0
    7.8106   -2.0853   25.3606 C   0  0  0  0  0  0  0  0  0  0  0  0
   10.6790    3.3580   23.8200 C   0  0  0  0  0  0  0  0  0  0  0  0
    6.6549    0.3862   17.9584 N   0  0  0  0  0  0  0  0  0  0  0  0
    8.9184    0.3854   25.3247 N   0  0  0  0  0  0  0  0  0  0  0  0
    5.8533   -1.0761   21.2609 N   0  0  0  0  0  0  0  0  0  0  0  0
    6.6020   -2.6103   22.8256 N   0  0  0  0  0  0  0  0  0  0  0  0
    7.8184   -2.3029   20.8807 O   0  0  0  0  0  0  0  0  0  0  0  0
    7.8901   -6.4039   27.1285 O   0  0  0  0  0  0  0  0  0  0  0  0
    5.8931   -6.1794   25.1946 O   0  0  0  0  0  0  0  0  0  0  0  0
    9.1512   -1.8974   24.9561 O   0  0  0  0  0  0  0  0  0  0  0  0
   11.6644    3.4871   22.8805 F   0  0  0  0  0  0  0  0  0  0  0  0
    9.6476    4.1273   23.3568 F   0  0  0  0  0  0  0  0  0  0  0  0
   11.1468    4.0077   24.9274 F   0  0  0  0  0  0  0  0  0  0  0  0
  1  3  2  0
  1  5  1  0
  2  4  2  0
  2  8  1  0
  3  9  1  0
  4 10  1  0
  5 20  2  0
  6  8  2  0
  6 21  1  0
  7  9  2  0
  7 20  1  0
  8 19  1  0
  9 22  1  0
 10 21  2  0
 10 27  1  0
 11 22  1  0
 11 23  1  0
 11 24  2  0
 12 14  1  0
 12 16  1  0
 13 15  1  0
 13 16  1  0
 14 15  1  0
 14 25  1  0
 15 26  1  0
 16 17  1  0
 16 18  1  0
 17 23  1  0
 18 27  1  0
 19 28  1  0
 19 29  1  0
 19 30  1  0
M  END
