FRA-BIO-8bf1eac9-6
     RDKit          3D

 24 25  0  0  0  0  0  0  0  0999 V2000
   12.5246   -2.0952   22.9051 C   0  0  0  0  0  0  0  0  0  0  0  0
    6.7388    1.1684   20.4326 C   0  0  0  0  0  0  0  0  0  0  0  0
   13.2276   -0.9487   22.5349 C   0  0  0  0  0  0  0  0  0  0  0  0
    5.8586    1.0172   19.3669 C   0  0  0  0  0  0  0  0  0  0  0  0
   10.4743   -1.0950   22.1096 C   0  0  0  0  0  0  0  0  0  0  0  0
    8.5075    0.4729   19.0027 C   0  0  0  0  0  0  0  0  0  0  0  0
   11.1772    0.0515   21.7394 C   0  0  0  0  0  0  0  0  0  0  0  0
   11.1479   -2.1683   22.6924 C   0  0  0  0  0  0  0  0  0  0  0  0
    8.0901    0.8931   20.2553 C   0  0  0  0  0  0  0  0  0  0  0  0
   12.5539    0.1246   21.9520 C   0  0  0  0  0  0  0  0  0  0  0  0
    6.3759    0.5917   18.1540 C   0  0  0  0  0  0  0  0  0  0  0  0
    9.0846   -3.5811   22.9321 C   0  0  0  0  0  0  0  0  0  0  0  0
    5.4600    0.4187   16.9886 C   0  0  0  0  0  0  0  0  0  0  0  0
    7.0063   -5.2519   21.8983 C   0  0  0  0  0  0  0  0  0  0  0  0
    7.3775   -6.6635   23.9425 C   0  0  0  0  0  0  0  0  0  0  0  0
    6.6064   -4.2858   24.1877 C   0  0  0  0  0  0  0  0  0  0  0  0
   10.4133    1.1771   21.1202 C   0  0  0  0  0  0  0  0  0  0  0  0
    7.4509   -5.2536   23.3602 C   0  0  0  0  0  0  0  0  0  0  0  0
    7.6823    0.3145   17.9437 N   0  0  0  0  0  0  0  0  0  0  0  0
   10.4367   -3.3317   23.0649 N   0  0  0  0  0  0  0  0  0  0  0  0
    8.9920    1.0349   21.3008 N   0  0  0  0  0  0  0  0  0  0  0  0
    8.2281   -2.8410   22.4638 O   0  0  0  0  0  0  0  0  0  0  0  0
    8.8145   -4.8336   23.4210 O   0  0  0  0  0  0  0  0  0  0  0  0
   13.5526    1.6616   21.4652 Br  0  0  0  0  0  0  0  0  0  0  0  0
  1  3  2  0
  1  8  1  0
  2  4  2  0
  2  9  1  0
  3 10  1  0
  4 11  1  0
  5  7  1  0
  5  8  2  0
  6  9  2  0
  6 19  1  0
  7 10  2  0
  7 17  1  0
  8 20  1  0
  9 21  1  0
 10 24  1  0
 11 13  1  0
 11 19  2  0
 12 20  1  0
 12 22  2  0
 12 23  1  0
 14 18  1  0
 15 18  1  0
 16 18  1  0
 17 21  1  0
 18 23  1  0
M  END
