FRA-BIO-8bf1eac9-12
     RDKit          3D

 28 31  0  0  0  0  0  0  0  0999 V2000
   10.1289   -2.7744   24.0702 C   0  0  0  0  0  0  0  0  0  0  0  0
    9.0711   -1.3292   25.6918 C   0  0  0  0  0  0  0  0  0  0  0  0
    9.7666   -3.8887   24.8270 C   0  0  0  0  0  0  0  0  0  0  0  0
    8.7087   -2.4435   26.4486 C   0  0  0  0  0  0  0  0  0  0  0  0
    5.8744   -1.1117   23.6427 C   0  0  0  0  0  0  0  0  0  0  0  0
    6.2089   -1.6748   21.3285 C   0  0  0  0  0  0  0  0  0  0  0  0
    5.6184    0.1872   23.2338 C   0  0  0  0  0  0  0  0  0  0  0  0
    5.9376   -0.3508   21.0232 C   0  0  0  0  0  0  0  0  0  0  0  0
    6.1745   -2.0544   22.6657 C   0  0  0  0  0  0  0  0  0  0  0  0
    9.7812   -1.4946   24.5027 C   0  0  0  0  0  0  0  0  0  0  0  0
    9.0565   -3.7233   26.0161 C   0  0  0  0  0  0  0  0  0  0  0  0
    6.4479   -3.4132   23.0357 C   0  0  0  0  0  0  0  0  0  0  0  0
    6.7203   -5.0886   24.2182 C   0  0  0  0  0  0  0  0  0  0  0  0
   11.0344    1.9020   22.2106 C   0  0  0  0  0  0  0  0  0  0  0  0
   10.0976    0.8593   21.6133 C   0  0  0  0  0  0  0  0  0  0  0  0
   10.8297    1.9904   23.7182 C   0  0  0  0  0  0  0  0  0  0  0  0
   10.2673   -0.5019   22.2863 C   0  0  0  0  0  0  0  0  0  0  0  0
   11.0046    0.6283   24.3862 C   0  0  0  0  0  0  0  0  0  0  0  0
    6.8616   -6.1351   25.2802 C   0  0  0  0  0  0  0  0  0  0  0  0
    5.6423    0.5934   21.9446 N   0  0  0  0  0  0  0  0  0  0  0  0
    6.4229   -3.8195   24.3382 N   0  0  0  0  0  0  0  0  0  0  0  0
    6.7413   -4.3584   22.1379 N   0  0  0  0  0  0  0  0  0  0  0  0
   10.1451   -0.3760   23.7432 N   0  0  0  0  0  0  0  0  0  0  0  0
    8.6841   -4.8643   26.7890 N   0  0  0  0  0  0  0  0  0  0  0  0
    6.8430   -6.3069   27.8759 O   0  0  0  0  0  0  0  0  0  0  0  0
    6.1729   -4.1258   26.8087 O   0  0  0  0  0  0  0  0  0  0  0  0
    6.9261   -5.4933   22.9375 O   0  0  0  0  0  0  0  0  0  0  0  0
    7.0193   -5.3020   26.8440 S   0  0  0  0  0  0  0  0  0  0  0  0
  1  3  2  0
  1 10  1  0
  2  4  1  0
  2 10  2  0
  3 11  1  0
  4 11  2  0
  5  7  2  0
  5  9  1  0
  6  8  1  0
  6  9  2  0
  7 20  1  0
  8 20  2  0
  9 12  1  0
 10 23  1  0
 11 24  1  0
 12 21  1  0
 12 22  2  0
 13 19  1  0
 13 21  2  0
 13 27  1  0
 14 15  1  0
 14 16  1  0
 15 17  1  0
 16 18  1  0
 17 23  1  0
 18 23  1  0
 19 28  1  0
 22 27  1  0
 24 28  1  0
 25 28  2  0
 26 28  2  0
M  END
