FRA-BIO-8bf1eac9-10
     RDKit          3D

 26 28  0  0  1  0  0  0  0  0999 V2000
    7.3821    2.8892   21.8090 C   0  0  0  0  0  0  0  0  0  0  0  0
    7.3247    4.2663   21.5949 C   0  0  0  0  0  0  0  0  0  0  0  0
    8.2049    2.3727   22.8099 C   0  0  0  0  0  0  0  0  0  0  0  0
    8.0902    5.1270   22.3817 C   0  0  0  0  0  0  0  0  0  0  0  0
    8.9704    3.2333   23.5967 C   0  0  0  0  0  0  0  0  0  0  0  0
    8.9131    4.6105   23.3826 C   0  0  0  0  0  0  0  0  0  0  0  0
   12.9158    1.0163   23.2032 C   0  0  0  0  0  0  0  0  0  0  0  0
   12.0946    2.1424   23.7522 C   0  0  0  0  0  0  0  0  0  0  0  0
   11.6284   -4.2188   24.5682 C   0  0  0  0  0  0  0  0  0  0  0  0
   10.9838   -2.5176   22.8406 C   0  0  0  0  0  0  0  0  0  0  0  0
   14.2591   -2.1602   24.8790 C   0  0  0  0  0  0  0  0  0  0  0  0
   10.1408   -4.4967   24.7474 C   0  0  0  0  0  0  0  0  0  0  0  0
    9.5323   -2.8911   23.1164 C   0  0  0  0  0  0  0  0  0  0  0  0
   11.8555   -2.7861   24.0726 C   0  0  0  0  0  0  0  0  0  0  0  0
   13.3300   -2.5358   23.7688 C   0  0  0  0  0  0  0  0  0  0  0  0
   13.9108   -1.1521   23.8144 C   0  0  0  0  0  0  0  0  0  0  0  0
    9.8507    2.6596   24.6692 C   0  0  0  0  0  0  0  0  0  0  0  0
   11.7552    6.5927   24.3903 C   0  0  0  0  0  0  0  0  0  0  0  0
   10.5995    6.2856   23.4576 C   0  0  0  0  0  0  0  0  0  0  0  0
   13.1396    0.0003   24.1175 N   0  0  0  0  0  0  0  0  0  0  0  0
   10.8322    1.7465   24.1317 N   0  0  0  0  0  0  0  0  0  0  0  0
   13.3121    1.1012   22.0517 O   0  0  0  0  0  0  0  0  0  0  0  0
   12.5998    3.2531   23.7894 O   0  0  0  0  0  0  0  0  0  0  0  0
    9.4305   -4.2519   23.5341 O   0  0  0  0  0  0  0  0  0  0  0  0
   11.2620    7.2944   25.5251 O   0  0  0  0  0  0  0  0  0  0  0  0
    9.6549    5.4648   24.1416 O   0  0  0  0  0  0  0  0  0  0  0  0
  1  2  2  0
  1  3  1  0
  2  4  1  0
  3  5  2  0
  4  6  2  0
  5  6  1  0
  5 17  1  0
  6 26  1  0
  7  8  1  0
  7 20  1  0
  7 22  2  0
  8 21  1  0
  8 23  2  0
  9 12  1  0
  9 14  1  0
 10 13  1  0
 10 14  1  0
 11 15  1  0
 11 16  1  0
 12 24  1  0
 13 24  1  0
 14 15  1  0
 15 16  1  0
 16 20  1  0
 17 21  1  0
 18 19  1  0
 18 25  1  0
 19 26  1  0
M  END
