FRA-FAC-9ed5a63a-4
     RDKit          3D

 17 19  0  0  1  0  0  0  0  0999 V2000
    5.5813    0.9260   18.5862 C   0  0  0  0  0  0  0  0  0  0  0  0
    6.2211    0.8418   19.8178 C   0  0  0  0  0  0  0  0  0  0  0  0
    6.3233    0.6482   17.4495 C   0  0  0  0  0  0  0  0  0  0  0  0
    8.2176    0.2289   18.6799 C   0  0  0  0  0  0  0  0  0  0  0  0
    7.5645    0.4873   19.8742 C   0  0  0  0  0  0  0  0  0  0  0  0
    9.5798    0.0533   21.3340 C   0  0  0  0  0  0  0  0  0  0  0  0
   12.2340    0.8142   22.7771 C   0  0  0  0  0  0  0  0  0  0  0  0
   13.7106    0.3401   22.9496 C   0  0  0  0  0  0  0  0  0  0  0  0
   11.5558   -1.7194   22.9373 C   0  0  0  0  0  0  0  0  0  0  0  0
   11.1682   -0.2358   23.2418 C   0  0  0  0  0  0  0  0  0  0  0  0
   13.7452   -1.0196   22.3748 C   0  0  0  0  0  0  0  0  0  0  0  0
   12.9502   -1.8516   23.4089 C   0  0  0  0  0  0  0  0  0  0  0  0
    7.6297    0.3006   17.4647 N   0  0  0  0  0  0  0  0  0  0  0  0
    8.2424    0.3936   21.1120 N   0  0  0  0  0  0  0  0  0  0  0  0
    9.8669    0.0728   22.7042 N   0  0  0  0  0  0  0  0  0  0  0  0
   10.4155   -0.2288   20.4786 O   0  0  0  0  0  0  0  0  0  0  0  0
   14.1548   -2.2799   22.8331 O   0  0  0  0  0  0  0  0  0  0  0  0
  1  2  2  0
  1  3  1  0
  2  5  1  0
  3 13  2  0
  4  5  2  0
  4 13  1  0
  5 14  1  0
  6 14  1  0
  6 15  1  0
  6 16  2  0
  7  8  1  0
  7 10  1  0
  8 11  1  0
  9 10  1  0
  9 12  1  0
 10 15  1  0
 11 12  1  0
 11 17  1  0
 12 17  1  0
M  END
