FRA-FAC-9ed5a63a-3
     RDKit          3D

 17 18  0  0  0  0  0  0  0  0999 V2000
    5.5691    0.7444   18.8257 C   0  0  0  0  0  0  0  0  0  0  0  0
    6.2264    0.5579   20.0367 C   0  0  0  0  0  0  0  0  0  0  0  0
    6.3101    0.6268   17.6608 C   0  0  0  0  0  0  0  0  0  0  0  0
    8.2359    0.1673   18.8262 C   0  0  0  0  0  0  0  0  0  0  0  0
    7.5853    0.2636   20.0457 C   0  0  0  0  0  0  0  0  0  0  0  0
    9.6353   -0.2297   21.4366 C   0  0  0  0  0  0  0  0  0  0  0  0
   12.2437    0.4501   22.8871 C   0  0  0  0  0  0  0  0  0  0  0  0
   11.7175   -2.0207   22.7954 C   0  0  0  0  0  0  0  0  0  0  0  0
   13.6602    0.1321   23.3657 C   0  0  0  0  0  0  0  0  0  0  0  0
   13.1329   -2.3416   23.2751 C   0  0  0  0  0  0  0  0  0  0  0  0
   11.2571   -0.6476   23.2914 C   0  0  0  0  0  0  0  0  0  0  0  0
   14.1191   -1.2433   22.8978 C   0  0  0  0  0  0  0  0  0  0  0  0
    7.6312    0.3420   17.6297 N   0  0  0  0  0  0  0  0  0  0  0  0
    8.2811    0.0688   21.2616 N   0  0  0  0  0  0  0  0  0  0  0  0
    9.9353   -0.3445   22.7983 N   0  0  0  0  0  0  0  0  0  0  0  0
   10.4733   -0.3775   20.5503 O   0  0  0  0  0  0  0  0  0  0  0  0
   14.2366   -1.2185   21.5398 F   0  0  0  0  0  0  0  0  0  0  0  0
  1  2  2  0
  1  3  1  0
  2  5  1  0
  3 13  2  0
  4  5  2  0
  4 13  1  0
  5 14  1  0
  6 14  1  0
  6 15  1  0
  6 16  2  0
  7  9  1  0
  7 11  1  0
  8 10  1  0
  8 11  1  0
  9 12  1  0
 10 12  1  0
 11 15  1  0
 12 17  1  0
M  END
