FRA-BIO-8bf1eac9-9
     RDKit          3D

 21 23  0  0  1  0  0  0  0  0999 V2000
    4.7005    0.7382   18.7904 C   0  0  0  0  0  0  0  0  0  0  0  0
   13.8079   -0.8273   24.2876 C   0  0  0  0  0  0  0  0  0  0  0  0
   13.4574    0.1165   23.4018 C   0  0  0  0  0  0  0  0  0  0  0  0
    5.5341    0.6982   17.7440 C   0  0  0  0  0  0  0  0  0  0  0  0
    5.2586    0.4860   20.1380 C   0  0  0  0  0  0  0  0  0  0  0  0
    7.3675    0.2239   18.9796 C   0  0  0  0  0  0  0  0  0  0  0  0
    9.1296    1.4127   21.2737 C   0  0  0  0  0  0  0  0  0  0  0  0
   14.8216   -1.3749   22.2850 C   0  0  0  0  0  0  0  0  0  0  0  0
   12.8953   -2.6438   22.8884 C   0  0  0  0  0  0  0  0  0  0  0  0
   14.1883   -2.0588   23.5007 C   0  0  0  0  0  0  0  0  0  0  0  0
   13.5961   -0.4893   22.0243 C   0  0  0  0  0  0  0  0  0  0  0  0
   12.5099   -1.5777   21.8160 C   0  0  0  0  0  0  0  0  0  0  0  0
    8.8229   -0.0665   19.1545 C   0  0  0  0  0  0  0  0  0  0  0  0
   11.0741   -1.0882   21.9334 C   0  0  0  0  0  0  0  0  0  0  0  0
    9.2680    0.0269   20.6168 C   0  0  0  0  0  0  0  0  0  0  0  0
    6.8811    0.4428   17.7970 N   0  0  0  0  0  0  0  0  0  0  0  0
    6.6178    0.2350   20.1388 N   0  0  0  0  0  0  0  0  0  0  0  0
   10.6794   -0.4499   20.6591 N   0  0  0  0  0  0  0  0  0  0  0  0
    9.7495    2.3374   20.6725 O   0  0  0  0  0  0  0  0  0  0  0  0
    4.5462    0.5071   21.1358 O   0  0  0  0  0  0  0  0  0  0  0  0
    8.4353    1.4685   22.3260 O   0  0  0  0  0  0  0  0  0  0  0  0
  1  4  2  0
  1  5  1  0
  2  3  2  0
  2 10  1  0
  3 11  1  0
  4 16  1  0
  5 17  1  0
  5 20  2  0
  6 13  1  0
  6 16  2  0
  6 17  1  0
  7 15  1  0
  7 19  1  0
  7 21  2  0
  8 10  1  0
  8 11  1  0
  9 10  1  0
  9 12  1  0
 11 12  1  0
 12 14  1  0
 13 15  1  0
 14 18  1  0
 15 18  1  0
M  CHG  2  18   1  19  -1
M  END
