FRA-BIO-8bf1eac9-5
     RDKit          3D

 20 21  0  0  1  0  0  0  0  0999 V2000
    5.7987   -2.8363   23.6767 C   0  0  0  0  0  0  0  0  0  0  0  0
    5.5073   -3.1995   25.0233 C   0  0  0  0  0  0  0  0  0  0  0  0
    6.4007   -3.8627   22.9826 C   0  0  0  0  0  0  0  0  0  0  0  0
    5.8974   -4.4899   25.3071 C   0  0  0  0  0  0  0  0  0  0  0  0
    5.4866    2.0754   19.6067 C   0  0  0  0  0  0  0  0  0  0  0  0
    5.9675    1.6185   18.4443 C   0  0  0  0  0  0  0  0  0  0  0  0
    5.9122    1.3991   20.8528 C   0  0  0  0  0  0  0  0  0  0  0  0
    7.2061   -0.0238   19.3834 C   0  0  0  0  0  0  0  0  0  0  0  0
    6.2993   -2.8407   18.5490 C   0  0  0  0  0  0  0  0  0  0  0  0
    6.8599   -3.8810   21.5544 C   0  0  0  0  0  0  0  0  0  0  0  0
    8.1470   -1.1836   19.3323 C   0  0  0  0  0  0  0  0  0  0  0  0
    7.4365   -2.5246   19.5379 C   0  0  0  0  0  0  0  0  0  0  0  0
    6.8337    0.5657   18.2894 N   0  0  0  0  0  0  0  0  0  0  0  0
    6.7842    0.3471   20.6445 N   0  0  0  0  0  0  0  0  0  0  0  0
    6.9402   -2.5291   20.9530 N   0  0  0  0  0  0  0  0  0  0  0  0
    6.4789   -2.3784   17.3850 O   0  0  0  0  0  0  0  0  0  0  0  0
    5.5054    1.7696   21.9486 O   0  0  0  0  0  0  0  0  0  0  0  0
    5.3271   -3.5038   19.0046 O   0  0  0  0  0  0  0  0  0  0  0  0
    6.6121   -5.2574   23.9534 S   0  0  0  0  0  0  0  0  0  0  0  0
    5.7407   -5.3325   26.7912 Cl  0  0  0  0  0  0  0  0  0  0  0  0
  1  2  1  0
  1  3  2  0
  2  4  2  0
  3 10  1  0
  3 19  1  0
  4 19  1  0
  4 20  1  0
  5  6  2  0
  5  7  1  0
  6 13  1  0
  7 14  1  0
  7 17  2  0
  8 11  1  0
  8 13  2  0
  8 14  1  0
  9 12  1  0
  9 16  1  0
  9 18  2  0
 10 15  1  0
 11 12  1  0
 12 15  1  0
M  CHG  2  15   1  16  -1
M  END
