FRA-FAC-9ed5a63a-5
     RDKit          3D

 18 20  0  0  1  0  0  0  0  0999 V2000
    6.5415    0.9707   20.4837 C   0  0  0  0  0  0  0  0  0  0  0  0
    6.0777    0.8634   18.1535 C   0  0  0  0  0  0  0  0  0  0  0  0
    8.1461    0.2036   18.9047 C   0  0  0  0  0  0  0  0  0  0  0  0
    5.6500    1.1694   19.4354 C   0  0  0  0  0  0  0  0  0  0  0  0
    7.8155    0.4790   20.2218 C   0  0  0  0  0  0  0  0  0  0  0  0
   10.1384    0.3458   21.2051 C   0  0  0  0  0  0  0  0  0  0  0  0
   12.8652   -0.9000   21.7272 C   0  0  0  0  0  0  0  0  0  0  0  0
   14.3082   -1.2777   22.1854 C   0  0  0  0  0  0  0  0  0  0  0  0
   12.4185   -0.1886   24.2171 C   0  0  0  0  0  0  0  0  0  0  0  0
   12.1188    0.0705   22.7047 C   0  0  0  0  0  0  0  0  0  0  0  0
   14.1715   -1.6560   23.6061 C   0  0  0  0  0  0  0  0  0  0  0  0
   13.8898   -0.3013   24.2983 C   0  0  0  0  0  0  0  0  0  0  0  0
    7.3071    0.3839   17.8601 N   0  0  0  0  0  0  0  0  0  0  0  0
    4.3569    1.6653   19.6687 N   0  0  0  0  0  0  0  0  0  0  0  0
    8.7443    0.2662   21.2670 N   0  0  0  0  0  0  0  0  0  0  0  0
   10.6989    0.0654   22.4572 N   0  0  0  0  0  0  0  0  0  0  0  0
   10.8132    0.6192   20.2154 O   0  0  0  0  0  0  0  0  0  0  0  0
   14.7844   -1.2562   24.8022 O   0  0  0  0  0  0  0  0  0  0  0  0
  1  4  2  0
  1  5  1  0
  2  4  1  0
  2 13  2  0
  3  5  2  0
  3 13  1  0
  4 14  1  0
  5 15  1  0
  6 15  1  0
  6 16  1  0
  6 17  2  0
  7  8  1  0
  7 10  1  0
  8 11  1  0
  9 10  1  0
  9 12  1  0
 10 16  1  0
 11 12  1  0
 11 18  1  0
 12 18  1  0
M  END
