FRA-BIO-8bf1eac9-1
     RDKit          3D

 27 30  0  0  0  0  0  0  0  0999 V2000
    5.8975    1.6589   19.1208 C   0  0  0  0  0  0  0  0  0  0  0  0
    6.1920    0.8916   20.2423 C   0  0  0  0  0  0  0  0  0  0  0  0
   12.7129   -1.4538   22.5133 C   0  0  0  0  0  0  0  0  0  0  0  0
   11.6092   -0.8286   21.9332 C   0  0  0  0  0  0  0  0  0  0  0  0
   13.0405    0.4593   23.9519 C   0  0  0  0  0  0  0  0  0  0  0  0
    6.3889    1.2340   17.8970 C   0  0  0  0  0  0  0  0  0  0  0  0
    7.4018   -0.6000   18.8396 C   0  0  0  0  0  0  0  0  0  0  0  0
    6.9581   -0.2609   20.1076 C   0  0  0  0  0  0  0  0  0  0  0  0
   13.4285   -0.8099   23.5227 C   0  0  0  0  0  0  0  0  0  0  0  0
   11.9368    1.0846   23.3718 C   0  0  0  0  0  0  0  0  0  0  0  0
   11.2211    0.4406   22.3624 C   0  0  0  0  0  0  0  0  0  0  0  0
    7.2784   -1.0714   21.2436 C   0  0  0  0  0  0  0  0  0  0  0  0
    7.9789   -0.6526   22.3504 C   0  0  0  0  0  0  0  0  0  0  0  0
    7.3854   -2.7848   22.5171 C   0  0  0  0  0  0  0  0  0  0  0  0
    7.3286   -4.0423   23.1871 C   0  0  0  0  0  0  0  0  0  0  0  0
    7.9055   -4.1804   24.3965 C   0  0  0  0  0  0  0  0  0  0  0  0
    8.5906   -3.0731   25.0440 C   0  0  0  0  0  0  0  0  0  0  0  0
    8.6480   -1.8855   24.4195 C   0  0  0  0  0  0  0  0  0  0  0  0
   14.6088   -1.4789   24.1427 C   0  0  0  0  0  0  0  0  0  0  0  0
   11.5471    2.4433   23.8548 C   0  0  0  0  0  0  0  0  0  0  0  0
    7.1362    0.1203   17.7269 N   0  0  0  0  0  0  0  0  0  0  0  0
    6.9139   -2.3895   21.3521 N   0  0  0  0  0  0  0  0  0  0  0  0
    8.0497   -1.7498   23.1699 N   0  0  0  0  0  0  0  0  0  0  0  0
    8.5306    0.6665   22.5995 N   0  0  0  0  0  0  0  0  0  0  0  0
    9.6628    0.5986   20.2954 O   0  0  0  0  0  0  0  0  0  0  0  0
    9.9767    2.6410   21.7200 O   0  0  0  0  0  0  0  0  0  0  0  0
    9.8155    1.2043   21.6051 S   0  0  0  0  0  0  0  0  0  0  0  0
  1  2  2  0
  1  6  1  0
  2  8  1  0
  3  4  2  0
  3  9  1  0
  4 11  1  0
  5  9  2  0
  5 10  1  0
  6 21  2  0
  7  8  2  0
  7 21  1  0
  8 12  1  0
  9 19  1  0
 10 11  2  0
 10 20  1  0
 11 27  1  0
 12 13  2  0
 12 22  1  0
 13 23  1  0
 13 24  1  0
 14 15  1  0
 14 22  2  0
 14 23  1  0
 15 16  2  0
 16 17  1  0
 17 18  2  0
 18 23  1  0
 24 27  1  0
 25 27  2  0
 26 27  2  0
M  END
