FRA-BIO-8bf1eac9-13
     RDKit          3D

 24 27  0  0  1  0  0  0  0  0999 V2000
    6.5595   -1.5494   23.3701 C   0  0  0  0  0  0  0  0  0  0  0  0
    7.0887   -1.3775   22.0911 C   0  0  0  0  0  0  0  0  0  0  0  0
    7.4031   -1.8515   24.4391 C   0  0  0  0  0  0  0  0  0  0  0  0
    8.4615   -1.5078   21.8810 C   0  0  0  0  0  0  0  0  0  0  0  0
    8.7759   -1.9818   24.2290 C   0  0  0  0  0  0  0  0  0  0  0  0
   10.8696    6.7192   24.7956 C   0  0  0  0  0  0  0  0  0  0  0  0
    9.4053    6.5872   23.2565 C   0  0  0  0  0  0  0  0  0  0  0  0
    9.3051   -1.8099   22.9500 C   0  0  0  0  0  0  0  0  0  0  0  0
   11.4267    5.9192   23.8260 C   0  0  0  0  0  0  0  0  0  0  0  0
   10.7530   -1.9474   22.7283 C   0  0  0  0  0  0  0  0  0  0  0  0
   13.3193   -0.7038   21.1553 C   0  0  0  0  0  0  0  0  0  0  0  0
   13.5945    0.7950   21.0594 C   0  0  0  0  0  0  0  0  0  0  0  0
   13.7383    0.2295   23.2955 C   0  0  0  0  0  0  0  0  0  0  0  0
   11.0547    0.5352   23.1870 C   0  0  0  0  0  0  0  0  0  0  0  0
   13.0008   -0.9263   22.6345 C   0  0  0  0  0  0  0  0  0  0  0  0
   11.9195    1.6749   22.5982 C   0  0  0  0  0  0  0  0  0  0  0  0
   12.7521    5.2232   23.7267 C   0  0  0  0  0  0  0  0  0  0  0  0
   11.8267    2.9149   23.4938 C   0  0  0  0  0  0  0  0  0  0  0  0
    9.6111    7.1315   24.4352 N   0  0  0  0  0  0  0  0  0  0  0  0
   10.4768    5.8434   22.8466 N   0  0  0  0  0  0  0  0  0  0  0  0
   11.5519   -0.8061   22.8516 N   0  0  0  0  0  0  0  0  0  0  0  0
   13.3577    1.3491   22.4126 N   0  0  0  0  0  0  0  0  0  0  0  0
   12.6932    3.9648   22.9271 N   0  0  0  0  0  0  0  0  0  0  0  0
   11.1641   -3.0725   22.4478 O   0  0  0  0  0  0  0  0  0  0  0  0
  1  2  2  0
  1  3  1  0
  2  4  1  0
  3  5  2  0
  4  8  2  0
  5  8  1  0
  6  9  2  0
  6 19  1  0
  7 19  2  0
  7 20  1  0
  8 10  1  0
  9 17  1  0
  9 20  1  0
 10 21  1  0
 10 24  2  0
 11 12  1  0
 11 15  1  0
 12 22  1  0
 13 15  1  0
 13 22  1  0
 14 16  1  0
 14 21  1  0
 15 21  1  0
 16 18  1  0
 16 22  1  0
 17 23  1  0
 18 23  1  0
M  CHG  1  23   1
M  END
