FRA-BIO-8bf1eac9-11
     RDKit          3D

 24 26  0  0  1  0  0  0  0  0999 V2000
   14.5862   -1.3559   24.5425 C   0  0  0  0  0  0  0  0  0  0  0  0
   14.2259   -2.4470   23.7518 C   0  0  0  0  0  0  0  0  0  0  0  0
   14.0272   -0.1018   24.2969 C   0  0  0  0  0  0  0  0  0  0  0  0
   13.3066   -2.2840   22.7155 C   0  0  0  0  0  0  0  0  0  0  0  0
   13.1080    0.0613   23.2606 C   0  0  0  0  0  0  0  0  0  0  0  0
   12.7476   -1.0299   22.4699 C   0  0  0  0  0  0  0  0  0  0  0  0
    9.3642   -0.6752   21.0132 C   0  0  0  0  0  0  0  0  0  0  0  0
   10.4806    2.5771   22.4548 C   0  0  0  0  0  0  0  0  0  0  0  0
   10.6653    1.3930   24.5550 C   0  0  0  0  0  0  0  0  0  0  0  0
    7.1731   -0.4758   20.2816 C   0  0  0  0  0  0  0  0  0  0  0  0
    8.9580    2.5617   22.5396 C   0  0  0  0  0  0  0  0  0  0  0  0
    9.1480    1.3433   24.7009 C   0  0  0  0  0  0  0  0  0  0  0  0
    8.1138   -0.5570   19.0580 C   0  0  0  0  0  0  0  0  0  0  0  0
    6.6403    0.7866   17.5506 C   0  0  0  0  0  0  0  0  0  0  0  0
    6.5204    3.8248   23.4730 C   0  0  0  0  0  0  0  0  0  0  0  0
   12.5184    1.4201   23.0155 C   0  0  0  0  0  0  0  0  0  0  0  0
   11.7661   -0.8796   21.3542 C   0  0  0  0  0  0  0  0  0  0  0  0
    8.0046    0.6569   18.1526 C   0  0  0  0  0  0  0  0  0  0  0  0
    7.0511    2.5799   24.1498 C   0  0  0  0  0  0  0  0  0  0  0  0
    9.4666   -0.6723   19.6212 N   0  0  0  0  0  0  0  0  0  0  0  0
   11.0613    1.4153   23.1408 N   0  0  0  0  0  0  0  0  0  0  0  0
    8.0449   -0.5653   21.4547 N   0  0  0  0  0  0  0  0  0  0  0  0
   10.4114   -0.7699   21.8304 N   0  0  0  0  0  0  0  0  0  0  0  0
    8.5439    2.5276   23.9891 N   0  0  0  0  0  0  0  0  0  0  0  0
  1  2  2  0
  1  3  1  0
  2  4  1  0
  3  5  2  0
  4  6  2  0
  5  6  1  0
  5 16  1  0
  6 17  1  0
  7 20  1  0
  7 22  2  0
  7 23  1  0
  8 11  1  0
  8 21  1  0
  9 12  1  0
  9 21  1  0
 10 13  1  0
 10 22  1  0
 11 24  1  0
 12 24  1  0
 13 18  1  0
 13 20  1  0
 14 18  1  0
 15 19  1  0
 16 21  1  0
 17 23  1  0
 19 24  1  0
M  CHG  2  22   1  24   1
M  END
