FRA-FAC-9ed5a63a-1
     RDKit          3D

 16 17  0  0  0  0  0  0  0  0999 V2000
    5.6330    0.6922   19.0569 C   0  0  0  0  0  0  0  0  0  0  0  0
    6.3749    0.7023   20.2328 C   0  0  0  0  0  0  0  0  0  0  0  0
    6.2967    0.4106   17.8737 C   0  0  0  0  0  0  0  0  0  0  0  0
    8.3080    0.1640   18.9563 C   0  0  0  0  0  0  0  0  0  0  0  0
    7.7386    0.4343   20.1902 C   0  0  0  0  0  0  0  0  0  0  0  0
    9.8682    0.7610   21.4940 C   0  0  0  0  0  0  0  0  0  0  0  0
   13.7792   -0.8257   23.2428 C   0  0  0  0  0  0  0  0  0  0  0  0
   12.9803   -0.7832   21.9439 C   0  0  0  0  0  0  0  0  0  0  0  0
   13.0199   -0.1813   24.3984 C   0  0  0  0  0  0  0  0  0  0  0  0
   11.5909   -1.3947   22.1157 C   0  0  0  0  0  0  0  0  0  0  0  0
   11.6307   -0.7929   24.5712 C   0  0  0  0  0  0  0  0  0  0  0  0
   10.8009   -0.7771   23.2789 C   0  0  0  0  0  0  0  0  0  0  0  0
   10.3074    0.6325   22.9413 C   0  0  0  0  0  0  0  0  0  0  0  0
    7.6198    0.1453   17.7928 N   0  0  0  0  0  0  0  0  0  0  0  0
    8.5200    0.4376   21.3701 N   0  0  0  0  0  0  0  0  0  0  0  0
   10.6373    1.1057   20.6029 O   0  0  0  0  0  0  0  0  0  0  0  0
  1  2  2  0
  1  3  1  0
  2  5  1  0
  3 14  2  0
  4  5  2  0
  4 14  1  0
  5 15  1  0
  6 13  1  0
  6 15  1  0
  6 16  2  0
  7  8  1  0
  7  9  1  0
  8 10  1  0
  9 11  1  0
 10 12  1  0
 11 12  1  0
 12 13  1  0
M  END
