GAB-REV-df64cf17-16
     RDKit          3D

 24 26  0  0  0  0  0  0  0  0999 V2000
    4.3677   -7.5294   24.5383 C   0  0  0  0  0  0  0  0  0  0  0  0
   14.0915   -0.9174   24.8095 C   0  0  0  0  0  0  0  0  0  0  0  0
   13.0591   -0.1013   24.3474 C   0  0  0  0  0  0  0  0  0  0  0  0
   13.8403   -2.2555   25.1129 C   0  0  0  0  0  0  0  0  0  0  0  0
   11.7753   -0.6232   24.1887 C   0  0  0  0  0  0  0  0  0  0  0  0
   12.5565   -2.7774   24.9543 C   0  0  0  0  0  0  0  0  0  0  0  0
    6.2143   -6.1761   23.6593 C   0  0  0  0  0  0  0  0  0  0  0  0
    4.0447   -5.9249   22.7180 C   0  0  0  0  0  0  0  0  0  0  0  0
    9.1103   -2.0015   25.0090 C   0  0  0  0  0  0  0  0  0  0  0  0
    4.8737   -6.5445   23.6392 C   0  0  0  0  0  0  0  0  0  0  0  0
   11.5240   -1.9613   24.4922 C   0  0  0  0  0  0  0  0  0  0  0  0
    6.6784   -5.2131   22.7702 C   0  0  0  0  0  0  0  0  0  0  0  0
   10.2024   -2.4989   24.3292 C   0  0  0  0  0  0  0  0  0  0  0  0
    5.7686   -4.6533   21.8878 C   0  0  0  0  0  0  0  0  0  0  0  0
    8.6684   -3.8375   23.5136 C   0  0  0  0  0  0  0  0  0  0  0  0
    6.1317   -2.0518   19.1998 C   0  0  0  0  0  0  0  0  0  0  0  0
    8.8373   -5.4819   21.6774 C   0  0  0  0  0  0  0  0  0  0  0  0
    5.3778   -3.0344   20.0298 C   0  0  0  0  0  0  0  0  0  0  0  0
    3.9560   -8.3308   25.2699 N   0  0  0  0  0  0  0  0  0  0  0  0
    4.4590   -4.9854   21.8386 N   0  0  0  0  0  0  0  0  0  0  0  0
    9.9510   -3.5520   23.4715 N   0  0  0  0  0  0  0  0  0  0  0  0
    6.2330   -3.6707   20.9774 N   0  0  0  0  0  0  0  0  0  0  0  0
    8.0799   -4.8261   22.7892 N   0  0  0  0  0  0  0  0  0  0  0  0
    7.7061   -2.8792   24.5627 S   0  0  0  0  0  0  0  0  0  0  0  0
  1 10  1  0
  1 19  3  0
  2  3  2  0
  2  4  1  0
  3  5  1  0
  4  6  2  0
  5 11  2  0
  6 11  1  0
  7 10  2  0
  7 12  1  0
  8 10  1  0
  8 20  2  0
  9 13  2  0
  9 24  1  0
 11 13  1  0
 12 14  2  0
 12 23  1  0
 13 21  1  0
 14 20  1  0
 14 22  1  0
 15 21  2  0
 15 23  1  0
 15 24  1  0
 16 18  1  0
 17 23  1  0
 18 22  1  0
M  END
