GAB-REV-70cc3ca5-9
     RDKit          3D

 20 22  0  0  0  0  0  0  0  0999 V2000
    8.0736   -4.9345   25.6856 C   0  0  0  0  0  0  0  0  0  0  0  0
    6.9761   -4.1203   25.9746 C   0  0  0  0  0  0  0  0  0  0  0  0
    9.1717   -4.4385   24.9717 C   0  0  0  0  0  0  0  0  0  0  0  0
    6.9350   -2.7842   25.5625 C   0  0  0  0  0  0  0  0  0  0  0  0
    5.1937    0.5309   19.5213 C   0  0  0  0  0  0  0  0  0  0  0  0
    5.7806    0.3913   18.2740 C   0  0  0  0  0  0  0  0  0  0  0  0
    7.8514    0.0080   19.1923 C   0  0  0  0  0  0  0  0  0  0  0  0
    6.0062    0.3963   20.6416 C   0  0  0  0  0  0  0  0  0  0  0  0
    9.1472   -3.0985   24.5496 C   0  0  0  0  0  0  0  0  0  0  0  0
    8.0395   -2.3118   24.8529 C   0  0  0  0  0  0  0  0  0  0  0  0
    7.3615    0.1298   20.4826 C   0  0  0  0  0  0  0  0  0  0  0  0
    9.5615   -1.1759   23.7180 C   0  0  0  0  0  0  0  0  0  0  0  0
    9.5880    0.2831   21.6508 C   0  0  0  0  0  0  0  0  0  0  0  0
    5.3998    0.5425   21.9987 C   0  0  0  0  0  0  0  0  0  0  0  0
   10.1696   -0.0175   23.0374 C   0  0  0  0  0  0  0  0  0  0  0  0
    7.0932    0.1324   18.0799 N   0  0  0  0  0  0  0  0  0  0  0  0
   10.0822   -2.3759   23.8447 N   0  0  0  0  0  0  0  0  0  0  0  0
    8.3318   -1.0874   24.3089 N   0  0  0  0  0  0  0  0  0  0  0  0
    8.2292   -0.0162   21.5911 N   0  0  0  0  0  0  0  0  0  0  0  0
   10.2905    0.7299   20.7497 O   0  0  0  0  0  0  0  0  0  0  0  0
  1  2  2  0
  1  3  1  0
  2  4  1  0
  3  9  2  0
  4 10  2  0
  5  6  2  0
  5  8  1  0
  6 16  1  0
  7 11  1  0
  7 16  2  0
  8 11  2  0
  8 14  1  0
  9 10  1  0
  9 17  1  0
 10 18  1  0
 11 19  1  0
 12 15  1  0
 12 17  2  0
 12 18  1  0
 13 15  1  0
 13 19  1  0
 13 20  2  0
M  END
