GAB-REV-4a4e2ff3-4
     RDKit          3D

 28 31  0  0  0  0  0  0  0  0999 V2000
    7.7065   -4.6002   25.6566 C   0  0  0  0  0  0  0  0  0  0  0  0
    8.8203   -3.8064   25.3620 C   0  0  0  0  0  0  0  0  0  0  0  0
   13.2816    1.3987   22.8704 C   0  0  0  0  0  0  0  0  0  0  0  0
    7.9794   -3.3500   23.1207 C   0  0  0  0  0  0  0  0  0  0  0  0
   12.6050   -0.8315   22.1882 C   0  0  0  0  0  0  0  0  0  0  0  0
   10.0671    2.3488   24.3279 C   0  0  0  0  0  0  0  0  0  0  0  0
   11.9914    1.6217   23.3911 C   0  0  0  0  0  0  0  0  0  0  0  0
    6.8908   -4.1384   23.4375 C   0  0  0  0  0  0  0  0  0  0  0  0
    6.7430   -4.7589   24.6789 C   0  0  0  0  0  0  0  0  0  0  0  0
   11.3185   -0.6332   22.6977 C   0  0  0  0  0  0  0  0  0  0  0  0
   11.3625    2.7171   24.0464 C   0  0  0  0  0  0  0  0  0  0  0  0
   11.0416    0.6026   23.2929 C   0  0  0  0  0  0  0  0  0  0  0  0
    8.9551   -3.1871   24.1053 C   0  0  0  0  0  0  0  0  0  0  0  0
   13.5729    0.1674   22.2721 C   0  0  0  0  0  0  0  0  0  0  0  0
    5.7276   -4.4822   22.6142 C   0  0  0  0  0  0  0  0  0  0  0  0
    9.8323    5.9212   23.2634 C   0  0  0  0  0  0  0  0  0  0  0  0
    5.4738   -5.5375   24.7215 C   0  0  0  0  0  0  0  0  0  0  0  0
    8.6019    6.1612   22.4530 C   0  0  0  0  0  0  0  0  0  0  0  0
   11.9797    4.0189   24.3713 C   0  0  0  0  0  0  0  0  0  0  0  0
   10.3004   -1.7314   22.5898 C   0  0  0  0  0  0  0  0  0  0  0  0
   12.1248    4.9633   23.1641 C   0  0  0  0  0  0  0  0  0  0  0  0
    9.8830    1.0718   23.8698 N   0  0  0  0  0  0  0  0  0  0  0  0
    4.9249   -5.2998   23.3999 N   0  0  0  0  0  0  0  0  0  0  0  0
   10.0919   -2.3919   23.8398 N   0  0  0  0  0  0  0  0  0  0  0  0
   10.8539    5.2879   22.5739 N   0  0  0  0  0  0  0  0  0  0  0  0
    5.5479   -4.1022   21.4725 O   0  0  0  0  0  0  0  0  0  0  0  0
    9.8649    6.2826   24.4339 O   0  0  0  0  0  0  0  0  0  0  0  0
   14.7978   -0.0524   21.7747 F   0  0  0  0  0  0  0  0  0  0  0  0
  1  2  2  0
  1  9  1  0
  2 13  1  0
  3  7  2  0
  3 14  1  0
  4  8  1  0
  4 13  2  0
  5 10  1  0
  5 14  2  0
  6 11  2  0
  6 22  1  0
  7 11  1  0
  7 12  1  0
  8  9  2  0
  8 15  1  0
  9 17  1  0
 10 12  2  0
 10 20  1  0
 11 19  1  0
 12 22  1  0
 13 24  1  0
 14 28  1  0
 15 23  1  0
 15 26  2  0
 16 18  1  0
 16 25  1  0
 16 27  2  0
 17 23  1  0
 19 21  1  0
 20 24  1  0
 21 25  1  0
M  END
