GAB-REV-70cc3ca5-15
     RDKit          3D

 24 26  0  0  0  0  0  0  0  0999 V2000
    8.1182   -4.1363   26.5137 C   0  0  0  0  0  0  0  0  0  0  0  0
    6.9673   -4.2925   24.3952 C   0  0  0  0  0  0  0  0  0  0  0  0
    7.1982   -5.0195   27.0786 C   0  0  0  0  0  0  0  0  0  0  0  0
    6.0473   -5.1758   24.9601 C   0  0  0  0  0  0  0  0  0  0  0  0
    4.7940    0.8960   19.1536 C   0  0  0  0  0  0  0  0  0  0  0  0
    5.4484    0.6789   17.9519 C   0  0  0  0  0  0  0  0  0  0  0  0
    7.4697    0.3834   19.0033 C   0  0  0  0  0  0  0  0  0  0  0  0
   10.3008   -3.1328   24.5387 C   0  0  0  0  0  0  0  0  0  0  0  0
    8.0027   -3.7727   25.1719 C   0  0  0  0  0  0  0  0  0  0  0  0
    5.5458    0.8475   20.3222 C   0  0  0  0  0  0  0  0  0  0  0  0
    6.9100    0.5870   20.2543 C   0  0  0  0  0  0  0  0  0  0  0  0
    6.1628   -5.5392   26.3018 C   0  0  0  0  0  0  0  0  0  0  0  0
    8.9492   -2.8631   24.5899 C   0  0  0  0  0  0  0  0  0  0  0  0
    9.6136   -1.0290   23.5876 C   0  0  0  0  0  0  0  0  0  0  0  0
    9.0857    0.2760   21.4849 C   0  0  0  0  0  0  0  0  0  0  0  0
    4.8660    1.0786   21.6318 C   0  0  0  0  0  0  0  0  0  0  0  0
    4.2318   -6.8944   26.0014 C   0  0  0  0  0  0  0  0  0  0  0  0
    9.5837    0.2968   22.9333 C   0  0  0  0  0  0  0  0  0  0  0  0
    6.7716    0.4229   17.8462 N   0  0  0  0  0  0  0  0  0  0  0  0
    8.5533   -1.6570   24.0454 N   0  0  0  0  0  0  0  0  0  0  0  0
    7.7177    0.5270   21.4148 N   0  0  0  0  0  0  0  0  0  0  0  0
    9.8498    0.0576   20.5502 O   0  0  0  0  0  0  0  0  0  0  0  0
    5.2651   -6.4013   26.8527 O   0  0  0  0  0  0  0  0  0  0  0  0
   11.1187   -1.8311   23.7783 S   0  0  0  0  0  0  0  0  0  0  0  0
  1  3  2  0
  1  9  1  0
  2  4  1  0
  2  9  2  0
  3 12  1  0
  4 12  2  0
  5  6  2  0
  5 10  1  0
  6 19  1  0
  7 11  1  0
  7 19  2  0
  8 13  2  0
  8 24  1  0
  9 13  1  0
 10 11  2  0
 10 16  1  0
 11 21  1  0
 12 23  1  0
 13 20  1  0
 14 18  1  0
 14 20  2  0
 14 24  1  0
 15 18  1  0
 15 21  1  0
 15 22  2  0
 17 23  1  0
M  END
