GAB-REV-4a4e2ff3-8
     RDKit          3D

 27 29  0  0  0  0  0  0  0  0999 V2000
   11.4547    3.4988   24.9993 C   0  0  0  0  0  0  0  0  0  0  0  0
   10.9168    4.6938   24.5217 C   0  0  0  0  0  0  0  0  0  0  0  0
   12.2225   -1.7896   22.4996 C   0  0  0  0  0  0  0  0  0  0  0  0
   13.1923    3.6115   23.3245 C   0  0  0  0  0  0  0  0  0  0  0  0
   13.6617    0.0904   23.0392 C   0  0  0  0  0  0  0  0  0  0  0  0
    9.7787   -1.1780   25.1481 C   0  0  0  0  0  0  0  0  0  0  0  0
   11.3688   -1.4299   23.5614 C   0  0  0  0  0  0  0  0  0  0  0  0
   12.5925    2.9577   24.4008 C   0  0  0  0  0  0  0  0  0  0  0  0
   12.8298    0.4664   24.0977 C   0  0  0  0  0  0  0  0  0  0  0  0
   10.1595   -1.9656   24.0862 C   0  0  0  0  0  0  0  0  0  0  0  0
   11.6915   -0.3125   24.3344 C   0  0  0  0  0  0  0  0  0  0  0  0
   11.5166    5.3477   23.4454 C   0  0  0  0  0  0  0  0  0  0  0  0
   12.6544    4.8065   22.8468 C   0  0  0  0  0  0  0  0  0  0  0  0
   13.3647   -1.0198   22.2512 C   0  0  0  0  0  0  0  0  0  0  0  0
    6.7563   -1.9931   21.9797 C   0  0  0  0  0  0  0  0  0  0  0  0
    6.0578   -0.7049   21.6950 C   0  0  0  0  0  0  0  0  0  0  0  0
    9.8180    6.9988   23.6559 C   0  0  0  0  0  0  0  0  0  0  0  0
   14.4074    4.8165   21.2398 C   0  0  0  0  0  0  0  0  0  0  0  0
   13.1785    1.6609   24.9213 C   0  0  0  0  0  0  0  0  0  0  0  0
    9.4349   -3.1524   23.5884 C   0  0  0  0  0  0  0  0  0  0  0  0
    9.0024   -3.0510   22.1143 C   0  0  0  0  0  0  0  0  0  0  0  0
   10.7088   -0.1834   25.2898 N   0  0  0  0  0  0  0  0  0  0  0  0
    8.1368   -1.9266   21.8794 N   0  0  0  0  0  0  0  0  0  0  0  0
    6.0990   -2.9849   22.2726 O   0  0  0  0  0  0  0  0  0  0  0  0
   10.9813    6.5142   22.9882 O   0  0  0  0  0  0  0  0  0  0  0  0
   13.2485    5.4355   21.7945 O   0  0  0  0  0  0  0  0  0  0  0  0
   14.1814   -1.3553   21.2430 F   0  0  0  0  0  0  0  0  0  0  0  0
  1  2  2  0
  1  8  1  0
  2 12  1  0
  3  7  2  0
  3 14  1  0
  4  8  2  0
  4 13  1  0
  5  9  1  0
  5 14  2  0
  6 10  2  0
  6 22  1  0
  7 10  1  0
  7 11  1  0
  8 19  1  0
  9 11  2  0
  9 19  1  0
 10 20  1  0
 11 22  1  0
 12 13  2  0
 12 25  1  0
 13 26  1  0
 14 27  1  0
 15 16  1  0
 15 23  1  0
 15 24  2  0
 17 25  1  0
 18 26  1  0
 20 21  1  0
 21 23  1  0
M  END
