GAB-REV-70cc3ca5-13
     RDKit          3D

 21 22  0  0  0  0  0  0  0  0999 V2000
    6.1950   -5.9449   22.0933 C   0  0  0  0  0  0  0  0  0  0  0  0
    7.3408   -5.3191   22.5718 C   0  0  0  0  0  0  0  0  0  0  0  0
    5.2263    0.9514   19.6164 C   0  0  0  0  0  0  0  0  0  0  0  0
    5.0672   -5.9363   22.8982 C   0  0  0  0  0  0  0  0  0  0  0  0
    5.7038    0.7166   18.3371 C   0  0  0  0  0  0  0  0  0  0  0  0
    6.1455   -4.7587   24.5500 C   0  0  0  0  0  0  0  0  0  0  0  0
    7.7049   -0.0825   19.1342 C   0  0  0  0  0  0  0  0  0  0  0  0
    7.3239   -4.7123   23.8227 C   0  0  0  0  0  0  0  0  0  0  0  0
    6.0565    0.6421   20.6879 C   0  0  0  0  0  0  0  0  0  0  0  0
    7.3211    0.1150   20.4508 C   0  0  0  0  0  0  0  0  0  0  0  0
    8.6278   -2.5569   24.0002 C   0  0  0  0  0  0  0  0  0  0  0  0
    9.4858   -0.7471   21.4076 C   0  0  0  0  0  0  0  0  0  0  0  0
    5.5673    0.8856   22.0779 C   0  0  0  0  0  0  0  0  0  0  0  0
    8.5480   -4.0260   24.3685 C   0  0  0  0  0  0  0  0  0  0  0  0
   10.0839   -0.9521   22.7860 C   0  0  0  0  0  0  0  0  0  0  0  0
    5.0127   -5.3572   24.1185 N   0  0  0  0  0  0  0  0  0  0  0  0
    6.9261    0.2058   18.0674 N   0  0  0  0  0  0  0  0  0  0  0  0
    8.2025   -0.2162   21.5074 N   0  0  0  0  0  0  0  0  0  0  0  0
    9.7715   -2.2780   23.2654 N   0  0  0  0  0  0  0  0  0  0  0  0
    7.7755   -1.7312   24.3173 O   0  0  0  0  0  0  0  0  0  0  0  0
   10.1002   -1.0197   20.3811 O   0  0  0  0  0  0  0  0  0  0  0  0
  1  2  2  0
  1  4  1  0
  2  8  1  0
  3  5  2  0
  3  9  1  0
  4 16  2  0
  5 17  1  0
  6  8  2  0
  6 16  1  0
  7 10  1  0
  7 17  2  0
  8 14  1  0
  9 10  2  0
  9 13  1  0
 10 18  1  0
 11 14  1  0
 11 19  1  0
 11 20  2  0
 12 15  1  0
 12 18  1  0
 12 21  2  0
 15 19  1  0
M  END
