GAB-REV-4a4e2ff3-18
     RDKit          3D

 26 29  0  0  0  0  0  0  0  0999 V2000
    6.3850   -6.7758   23.0762 C   0  0  0  0  0  0  0  0  0  0  0  0
    5.3284   -6.2162   23.8051 C   0  0  0  0  0  0  0  0  0  0  0  0
    7.5286   -6.0273   22.7619 C   0  0  0  0  0  0  0  0  0  0  0  0
    5.3694   -4.8900   24.2488 C   0  0  0  0  0  0  0  0  0  0  0  0
   12.2574    0.3133   22.5943 C   0  0  0  0  0  0  0  0  0  0  0  0
   10.7324   -1.5733   22.7053 C   0  0  0  0  0  0  0  0  0  0  0  0
   10.1422    2.6309   24.4691 C   0  0  0  0  0  0  0  0  0  0  0  0
   11.3381    1.0887   23.3284 C   0  0  0  0  0  0  0  0  0  0  0  0
   11.3284    2.4308   23.8014 C   0  0  0  0  0  0  0  0  0  0  0  0
    7.5856   -4.6963   23.1992 C   0  0  0  0  0  0  0  0  0  0  0  0
   10.1356    0.5037   23.7308 C   0  0  0  0  0  0  0  0  0  0  0  0
    9.8051   -0.8235   23.4346 C   0  0  0  0  0  0  0  0  0  0  0  0
    6.5174   -4.1807   23.9182 C   0  0  0  0  0  0  0  0  0  0  0  0
   11.9402   -1.0157   22.2906 C   0  0  0  0  0  0  0  0  0  0  0  0
    8.0396   -2.6917   23.6722 C   0  0  0  0  0  0  0  0  0  0  0  0
    9.9110    6.2285   23.5619 C   0  0  0  0  0  0  0  0  0  0  0  0
    8.8530    6.5343   22.5543 C   0  0  0  0  0  0  0  0  0  0  0  0
   12.3940    3.4362   23.6149 C   0  0  0  0  0  0  0  0  0  0  0  0
   11.9625    4.8767   23.9451 C   0  0  0  0  0  0  0  0  0  0  0  0
    8.5517   -3.7309   23.0501 N   0  0  0  0  0  0  0  0  0  0  0  0
    9.4296    1.4628   24.4213 N   0  0  0  0  0  0  0  0  0  0  0  0
    8.5912   -1.4045   23.8441 N   0  0  0  0  0  0  0  0  0  0  0  0
   10.8570    5.3109   23.1337 N   0  0  0  0  0  0  0  0  0  0  0  0
    9.8824    6.7817   24.6549 O   0  0  0  0  0  0  0  0  0  0  0  0
    6.8094   -2.8827   24.2256 O   0  0  0  0  0  0  0  0  0  0  0  0
   12.8095   -1.7597   21.5929 F   0  0  0  0  0  0  0  0  0  0  0  0
  1  2  2  0
  1  3  1  0
  2  4  1  0
  3 10  2  0
  4 13  2  0
  5  8  2  0
  5 14  1  0
  6 12  1  0
  6 14  2  0
  7  9  2  0
  7 21  1  0
  8  9  1  0
  8 11  1  0
  9 18  1  0
 10 13  1  0
 10 20  1  0
 11 12  2  0
 11 21  1  0
 12 22  1  0
 13 25  1  0
 14 26  1  0
 15 20  2  0
 15 22  1  0
 15 25  1  0
 16 17  1  0
 16 23  1  0
 16 24  2  0
 18 19  1  0
 19 23  1  0
M  END
