GAB-REV-70cc3ca5-20
     RDKit          3D

 21 22  0  0  0  0  0  0  0  0999 V2000
    9.3048   -1.5087   24.8874 C   0  0  0  0  0  0  0  0  0  0  0  0
    8.6549   -2.6702   22.8711 C   0  0  0  0  0  0  0  0  0  0  0  0
    8.6438   -2.4688   25.6535 C   0  0  0  0  0  0  0  0  0  0  0  0
    7.9940   -3.6303   23.6372 C   0  0  0  0  0  0  0  0  0  0  0  0
    5.0326    1.0821   19.5384 C   0  0  0  0  0  0  0  0  0  0  0  0
    5.5367    0.9436   18.2553 C   0  0  0  0  0  0  0  0  0  0  0  0
    7.5883    0.2680   19.0379 C   0  0  0  0  0  0  0  0  0  0  0  0
    9.3103   -1.6093   23.4962 C   0  0  0  0  0  0  0  0  0  0  0  0
    5.8766    0.7905   20.6042 C   0  0  0  0  0  0  0  0  0  0  0  0
    7.1805    0.3751   20.3577 C   0  0  0  0  0  0  0  0  0  0  0  0
    7.9885   -3.5296   25.0284 C   0  0  0  0  0  0  0  0  0  0  0  0
    9.3991   -0.3579   21.2986 C   0  0  0  0  0  0  0  0  0  0  0  0
    5.3595    0.9319   21.9982 C   0  0  0  0  0  0  0  0  0  0  0  0
   10.0162   -0.5825   22.6767 C   0  0  0  0  0  0  0  0  0  0  0  0
    6.7973    0.5426   17.9765 N   0  0  0  0  0  0  0  0  0  0  0  0
    8.4162   -5.8673   26.2355 N   0  0  0  0  0  0  0  0  0  0  0  0
    8.0773    0.0664   21.4081 N   0  0  0  0  0  0  0  0  0  0  0  0
   10.0359   -0.5459   20.2670 O   0  0  0  0  0  0  0  0  0  0  0  0
    6.8090   -4.1362   27.2677 O   0  0  0  0  0  0  0  0  0  0  0  0
    6.1301   -5.3495   25.1665 O   0  0  0  0  0  0  0  0  0  0  0  0
    7.1630   -4.7327   25.9872 S   0  0  0  0  0  0  0  0  0  0  0  0
  1  3  2  0
  1  8  1  0
  2  4  1  0
  2  8  2  0
  3 11  1  0
  4 11  2  0
  5  6  2  0
  5  9  1  0
  6 15  1  0
  7 10  1  0
  7 15  2  0
  8 14  1  0
  9 10  2  0
  9 13  1  0
 10 17  1  0
 11 21  1  0
 12 14  1  0
 12 17  1  0
 12 18  2  0
 16 21  1  0
 19 21  2  0
 20 21  2  0
M  END
