GAB-REV-4a4e2ff3-19
     RDKit          3D

 28 31  0  0  0  0  0  0  0  0999 V2000
   13.2547    1.4210   22.6060 C   0  0  0  0  0  0  0  0  0  0  0  0
    8.1542   -0.8704   25.3348 C   0  0  0  0  0  0  0  0  0  0  0  0
   12.2218   -0.7711   22.7643 C   0  0  0  0  0  0  0  0  0  0  0  0
    6.6242    0.1088   23.1671 C   0  0  0  0  0  0  0  0  0  0  0  0
   10.6351    3.2141   24.4180 C   0  0  0  0  0  0  0  0  0  0  0  0
   12.1720    1.9733   23.3189 C   0  0  0  0  0  0  0  0  0  0  0  0
   11.8396    3.2857   23.7570 C   0  0  0  0  0  0  0  0  0  0  0  0
   11.1405    1.1288   23.7350 C   0  0  0  0  0  0  0  0  0  0  0  0
    8.7254   -0.7287   24.0679 C   0  0  0  0  0  0  0  0  0  0  0  0
   11.1375   -0.2458   23.4729 C   0  0  0  0  0  0  0  0  0  0  0  0
    6.8287   -0.5172   25.4827 C   0  0  0  0  0  0  0  0  0  0  0  0
    6.0842   -0.0405   24.4279 C   0  0  0  0  0  0  0  0  0  0  0  0
   13.2652    0.0476   22.3365 C   0  0  0  0  0  0  0  0  0  0  0  0
    7.9648   -0.2418   22.9902 C   0  0  0  0  0  0  0  0  0  0  0  0
    9.5606    6.6294   23.4177 C   0  0  0  0  0  0  0  0  0  0  0  0
    4.8257   -0.1002   26.1870 C   0  0  0  0  0  0  0  0  0  0  0  0
    8.4674    6.6492   22.4015 C   0  0  0  0  0  0  0  0  0  0  0  0
   10.3466   -2.5403   23.9353 C   0  0  0  0  0  0  0  0  0  0  0  0
   12.6365    4.5111   23.5456 C   0  0  0  0  0  0  0  0  0  0  0  0
   11.8721    5.8151   23.8379 C   0  0  0  0  0  0  0  0  0  0  0  0
   10.2215    1.9091   24.3998 N   0  0  0  0  0  0  0  0  0  0  0  0
   10.7009    5.9531   23.0144 N   0  0  0  0  0  0  0  0  0  0  0  0
   10.0940   -1.0888   23.8962 N   0  0  0  0  0  0  0  0  0  0  0  0
    9.3933    7.1869   24.4960 O   0  0  0  0  0  0  0  0  0  0  0  0
    6.1077   -0.5861   26.6348 O   0  0  0  0  0  0  0  0  0  0  0  0
    4.8039    0.2483   24.7876 O   0  0  0  0  0  0  0  0  0  0  0  0
   14.2915   -0.4851   21.6592 F   0  0  0  0  0  0  0  0  0  0  0  0
    8.6562   -0.0601   21.4161 Cl  0  0  0  0  0  0  0  0  0  0  0  0
  1  6  2  0
  1 13  1  0
  2  9  2  0
  2 11  1  0
  3 10  1  0
  3 13  2  0
  4 12  1  0
  4 14  2  0
  5  7  2  0
  5 21  1  0
  6  7  1  0
  6  8  1  0
  7 19  1  0
  8 10  2  0
  8 21  1  0
  9 14  1  0
  9 23  1  0
 10 23  1  0
 11 12  2  0
 11 25  1  0
 12 26  1  0
 13 27  1  0
 14 28  1  0
 15 17  1  0
 15 22  1  0
 15 24  2  0
 16 25  1  0
 16 26  1  0
 18 23  1  0
 19 20  1  0
 20 22  1  0
M  END
