GAB-REV-70cc3ca5-6
     RDKit          3D

 26 28  0  0  0  0  0  0  0  0999 V2000
   13.3759   -0.9557   20.9989 C   0  0  0  0  0  0  0  0  0  0  0  0
   12.0981   -0.9757   21.5544 C   0  0  0  0  0  0  0  0  0  0  0  0
   14.4924   -1.3433   21.7451 C   0  0  0  0  0  0  0  0  0  0  0  0
    5.5868    1.5546   18.3458 C   0  0  0  0  0  0  0  0  0  0  0  0
   13.1744   -2.2420   24.9856 C   0  0  0  0  0  0  0  0  0  0  0  0
    6.4714    1.0730   17.3943 C   0  0  0  0  0  0  0  0  0  0  0  0
    7.4984   -0.3065   18.9177 C   0  0  0  0  0  0  0  0  0  0  0  0
   14.5152   -2.4784   25.1842 C   0  0  0  0  0  0  0  0  0  0  0  0
   13.0092   -1.7812   23.6495 C   0  0  0  0  0  0  0  0  0  0  0  0
   11.8986   -1.3858   22.8777 C   0  0  0  0  0  0  0  0  0  0  0  0
    5.6906    1.0592   19.6408 C   0  0  0  0  0  0  0  0  0  0  0  0
   14.2779   -1.7509   23.0666 C   0  0  0  0  0  0  0  0  0  0  0  0
    6.6621    0.1107   19.9406 C   0  0  0  0  0  0  0  0  0  0  0  0
   10.5276   -1.3988   23.4498 C   0  0  0  0  0  0  0  0  0  0  0  0
    7.7349   -1.3699   21.6748 C   0  0  0  0  0  0  0  0  0  0  0  0
    4.7501    1.5615   20.6867 C   0  0  0  0  0  0  0  0  0  0  0  0
    7.9634   -4.1555   23.4526 C   0  0  0  0  0  0  0  0  0  0  0  0
    8.4778   -2.5623   25.3029 C   0  0  0  0  0  0  0  0  0  0  0  0
    7.5403   -1.6657   23.1627 C   0  0  0  0  0  0  0  0  0  0  0  0
    8.4660   -2.7404   23.7753 C   0  0  0  0  0  0  0  0  0  0  0  0
    7.4280    0.1519   17.6478 N   0  0  0  0  0  0  0  0  0  0  0  0
   15.1726   -2.1791   24.0212 N   0  0  0  0  0  0  0  0  0  0  0  0
    6.8073   -0.4241   21.2430 N   0  0  0  0  0  0  0  0  0  0  0  0
    9.8262   -2.5794   23.2929 N   0  0  0  0  0  0  0  0  0  0  0  0
   10.0956   -0.3870   23.9957 O   0  0  0  0  0  0  0  0  0  0  0  0
    8.6165   -1.8979   21.0063 O   0  0  0  0  0  0  0  0  0  0  0  0
  1  2  2  0
  1  3  1  0
  2 10  1  0
  3 12  2  0
  4  6  2  0
  4 11  1  0
  5  8  2  0
  5  9  1  0
  6 21  1  0
  7 13  1  0
  7 21  2  0
  8 22  1  0
  9 10  2  0
  9 12  1  0
 10 14  1  0
 11 13  2  0
 11 16  1  0
 12 22  1  0
 13 23  1  0
 14 24  1  0
 14 25  2  0
 15 19  1  0
 15 23  1  0
 15 26  2  0
 17 20  1  0
 18 20  1  0
 19 20  1  0
 20 24  1  0
M  END
