GAB-REV-70cc3ca5-21
     RDKit          3D

 22 23  0  0  0  0  0  0  0  0999 V2000
   11.7741   -2.1766   23.3055 C   0  0  0  0  0  0  0  0  0  0  0  0
   11.2293   -0.3974   24.8465 C   0  0  0  0  0  0  0  0  0  0  0  0
   10.4154   -2.3998   23.0828 C   0  0  0  0  0  0  0  0  0  0  0  0
    9.8706   -0.6205   24.6237 C   0  0  0  0  0  0  0  0  0  0  0  0
    5.7469    1.4082   18.6705 C   0  0  0  0  0  0  0  0  0  0  0  0
    6.4030    0.9479   17.5402 C   0  0  0  0  0  0  0  0  0  0  0  0
    7.3196   -0.8214   18.6837 C   0  0  0  0  0  0  0  0  0  0  0  0
    5.9068    0.6933   19.8523 C   0  0  0  0  0  0  0  0  0  0  0  0
   12.1811   -1.1754   24.1874 C   0  0  0  0  0  0  0  0  0  0  0  0
    9.4636   -1.6217   23.7419 C   0  0  0  0  0  0  0  0  0  0  0  0
    6.7067   -0.4439   19.8675 C   0  0  0  0  0  0  0  0  0  0  0  0
   14.6313   -1.6282   23.8473 C   0  0  0  0  0  0  0  0  0  0  0  0
    7.6700   -2.3558   21.1946 C   0  0  0  0  0  0  0  0  0  0  0  0
    5.2114    1.1675   21.0861 C   0  0  0  0  0  0  0  0  0  0  0  0
   15.9453   -1.0849   24.3502 C   0  0  0  0  0  0  0  0  0  0  0  0
    7.6045   -2.8554   22.6250 C   0  0  0  0  0  0  0  0  0  0  0  0
    7.1881   -0.1525   17.5163 N   0  0  0  0  0  0  0  0  0  0  0  0
   13.5402   -0.9536   24.4111 N   0  0  0  0  0  0  0  0  0  0  0  0
    6.9003   -1.2052   21.0447 N   0  0  0  0  0  0  0  0  0  0  0  0
    8.0898   -1.8471   23.5157 N   0  0  0  0  0  0  0  0  0  0  0  0
   14.6011   -2.5502   23.0386 O   0  0  0  0  0  0  0  0  0  0  0  0
    8.3354   -2.9228   20.3338 O   0  0  0  0  0  0  0  0  0  0  0  0
  1  3  2  0
  1  9  1  0
  2  4  1  0
  2  9  2  0
  3 10  1  0
  4 10  2  0
  5  6  2  0
  5  8  1  0
  6 17  1  0
  7 11  1  0
  7 17  2  0
  8 11  2  0
  8 14  1  0
  9 18  1  0
 10 20  1  0
 11 19  1  0
 12 15  1  0
 12 18  1  0
 12 21  2  0
 13 16  1  0
 13 19  1  0
 13 22  2  0
 16 20  1  0
M  END
