GAB-REV-4a4e2ff3-7
     RDKit          3D

 27 30  0  0  0  0  0  0  0  0999 V2000
    4.9151    1.1890   19.0709 C   0  0  0  0  0  0  0  0  0  0  0  0
    5.5675    0.7922   20.2293 C   0  0  0  0  0  0  0  0  0  0  0  0
    8.4619   -0.9590   18.7945 C   0  0  0  0  0  0  0  0  0  0  0  0
    9.1430   -1.3733   19.9418 C   0  0  0  0  0  0  0  0  0  0  0  0
    7.4492   -0.3493   21.3053 C   0  0  0  0  0  0  0  0  0  0  0  0
    9.7399    1.3147   25.4534 C   0  0  0  0  0  0  0  0  0  0  0  0
    8.9158   -0.8081   24.6098 C   0  0  0  0  0  0  0  0  0  0  0  0
    5.4893    0.8428   17.8646 C   0  0  0  0  0  0  0  0  0  0  0  0
   11.2801    2.4031   22.3224 C   0  0  0  0  0  0  0  0  0  0  0  0
    6.7644    0.0673   20.1512 C   0  0  0  0  0  0  0  0  0  0  0  0
   10.2831    1.5984   24.1847 C   0  0  0  0  0  0  0  0  0  0  0  0
   11.0142    2.6916   23.6411 C   0  0  0  0  0  0  0  0  0  0  0  0
    7.2729   -0.2390   18.8715 C   0  0  0  0  0  0  0  0  0  0  0  0
   10.1241    0.6622   23.1607 C   0  0  0  0  0  0  0  0  0  0  0  0
    8.6363   -1.0682   21.1990 C   0  0  0  0  0  0  0  0  0  0  0  0
    9.4462   -0.5484   23.3428 C   0  0  0  0  0  0  0  0  0  0  0  0
    9.0592    0.1077   25.6503 C   0  0  0  0  0  0  0  0  0  0  0  0
    9.2816    6.3157   23.4636 C   0  0  0  0  0  0  0  0  0  0  0  0
    8.0318    6.5028   22.6692 C   0  0  0  0  0  0  0  0  0  0  0  0
   11.4198    3.9194   24.3542 C   0  0  0  0  0  0  0  0  0  0  0  0
   11.4889    5.1709   23.4601 C   0  0  0  0  0  0  0  0  0  0  0  0
    6.6420    0.1448   17.7456 N   0  0  0  0  0  0  0  0  0  0  0  0
   10.7390    1.1772   22.0418 N   0  0  0  0  0  0  0  0  0  0  0  0
   10.2164    5.4846   22.8674 N   0  0  0  0  0  0  0  0  0  0  0  0
    9.4016    6.8824   24.5435 O   0  0  0  0  0  0  0  0  0  0  0  0
    9.2954   -1.4693   22.3189 O   0  0  0  0  0  0  0  0  0  0  0  0
    8.5394   -0.1692   26.8541 F   0  0  0  0  0  0  0  0  0  0  0  0
  1  2  2  0
  1  8  1  0
  2 10  1  0
  3  4  1  0
  3 13  2  0
  4 15  2  0
  5 10  2  0
  5 15  1  0
  6 11  2  0
  6 17  1  0
  7 16  1  0
  7 17  2  0
  8 22  2  0
  9 12  2  0
  9 23  1  0
 10 13  1  0
 11 12  1  0
 11 14  1  0
 12 20  1  0
 13 22  1  0
 14 16  2  0
 14 23  1  0
 15 26  1  0
 16 26  1  0
 17 27  1  0
 18 19  1  0
 18 24  1  0
 18 25  2  0
 20 21  1  0
 21 24  1  0
M  END
