GAB-REV-70cc3ca5-5
     RDKit          3D

 23 25  0  0  0  0  0  0  0  0999 V2000
    7.6754   -1.9832   25.0855 C   0  0  0  0  0  0  0  0  0  0  0  0
    7.0238   -2.9436   25.8695 C   0  0  0  0  0  0  0  0  0  0  0  0
    5.1870    0.2442   19.4556 C   0  0  0  0  0  0  0  0  0  0  0  0
    9.4386   -3.5586   24.4988 C   0  0  0  0  0  0  0  0  0  0  0  0
    5.8894    0.0495   18.2773 C   0  0  0  0  0  0  0  0  0  0  0  0
    7.9134    0.2229   19.3504 C   0  0  0  0  0  0  0  0  0  0  0  0
    8.0522   -6.2630   26.4097 C   0  0  0  0  0  0  0  0  0  0  0  0
    8.8613   -2.2874   24.4131 C   0  0  0  0  0  0  0  0  0  0  0  0
    5.9161    0.4352   20.6240 C   0  0  0  0  0  0  0  0  0  0  0  0
    7.5897   -4.2260   25.9665 C   0  0  0  0  0  0  0  0  0  0  0  0
    8.7723   -4.4991   25.2850 C   0  0  0  0  0  0  0  0  0  0  0  0
    7.3058    0.4259   20.5790 C   0  0  0  0  0  0  0  0  0  0  0  0
    9.5104   -1.2640   23.6075 C   0  0  0  0  0  0  0  0  0  0  0  0
    9.3593    1.1863   21.8238 C   0  0  0  0  0  0  0  0  0  0  0  0
    5.1844    0.6480   21.9086 C   0  0  0  0  0  0  0  0  0  0  0  0
    9.8434    1.1956   23.2609 C   0  0  0  0  0  0  0  0  0  0  0  0
    7.2387    0.0339   18.1943 N   0  0  0  0  0  0  0  0  0  0  0  0
    7.1575   -5.3334   26.6596 N   0  0  0  0  0  0  0  0  0  0  0  0
    9.0448   -5.8089   25.5864 N   0  0  0  0  0  0  0  0  0  0  0  0
    8.0921    0.6153   21.7404 N   0  0  0  0  0  0  0  0  0  0  0  0
    9.2886    0.0679   23.9745 N   0  0  0  0  0  0  0  0  0  0  0  0
   10.2093   -1.5810   22.6292 O   0  0  0  0  0  0  0  0  0  0  0  0
   10.0311    1.6432   20.9046 O   0  0  0  0  0  0  0  0  0  0  0  0
  1  2  2  0
  1  8  1  0
  2 10  1  0
  3  5  2  0
  3  9  1  0
  4  8  2  0
  4 11  1  0
  5 17  1  0
  6 12  1  0
  6 17  2  0
  7 18  2  0
  7 19  1  0
  8 13  1  0
  9 12  2  0
  9 15  1  0
 10 11  2  0
 10 18  1  0
 11 19  1  0
 12 20  1  0
 13 21  1  0
 13 22  2  0
 14 16  1  0
 14 20  1  0
 14 23  2  0
 16 21  1  0
M  END
