GAB-REV-4a4e2ff3-5
     RDKit          3D

 27 30  0  0  0  0  0  0  0  0999 V2000
    8.3434   -2.5185   21.9324 C   0  0  0  0  0  0  0  0  0  0  0  0
    9.3468   -1.5509   21.8820 C   0  0  0  0  0  0  0  0  0  0  0  0
    8.2936   -3.4167   22.9984 C   0  0  0  0  0  0  0  0  0  0  0  0
    8.1343   -4.4361   26.0228 C   0  0  0  0  0  0  0  0  0  0  0  0
   13.3588    1.5005   22.7543 C   0  0  0  0  0  0  0  0  0  0  0  0
   10.2506   -2.3797   23.9636 C   0  0  0  0  0  0  0  0  0  0  0  0
   12.5612   -0.7288   22.2147 C   0  0  0  0  0  0  0  0  0  0  0  0
    8.5609   -5.4290   26.8705 C   0  0  0  0  0  0  0  0  0  0  0  0
   10.3338    2.5817   24.4981 C   0  0  0  0  0  0  0  0  0  0  0  0
   12.1342    1.7744   23.3952 C   0  0  0  0  0  0  0  0  0  0  0  0
   10.3004   -1.4815   22.8976 C   0  0  0  0  0  0  0  0  0  0  0  0
    9.2472   -3.3474   24.0140 C   0  0  0  0  0  0  0  0  0  0  0  0
   11.3386   -0.4800   22.8449 C   0  0  0  0  0  0  0  0  0  0  0  0
   11.6026    2.9054   24.0758 C   0  0  0  0  0  0  0  0  0  0  0  0
   11.1543    0.7798   23.4257 C   0  0  0  0  0  0  0  0  0  0  0  0
   13.5571    0.2448   22.1689 C   0  0  0  0  0  0  0  0  0  0  0  0
    9.1945   -4.2721   25.1112 C   0  0  0  0  0  0  0  0  0  0  0  0
   10.3151    6.5642   23.0158 C   0  0  0  0  0  0  0  0  0  0  0  0
    8.9672    6.7257   22.3950 C   0  0  0  0  0  0  0  0  0  0  0  0
   12.2820    4.1980   24.2961 C   0  0  0  0  0  0  0  0  0  0  0  0
   12.3270    5.1035   23.0518 C   0  0  0  0  0  0  0  0  0  0  0  0
   10.2176   -5.0949   25.3568 N   0  0  0  0  0  0  0  0  0  0  0  0
   10.0725    1.2976   24.1015 N   0  0  0  0  0  0  0  0  0  0  0  0
    9.8024   -5.7853   26.4324 N   0  0  0  0  0  0  0  0  0  0  0  0
   11.0110    5.4468   22.5833 N   0  0  0  0  0  0  0  0  0  0  0  0
   10.7078    7.3907   23.8309 O   0  0  0  0  0  0  0  0  0  0  0  0
   14.7192   -0.0233   21.5580 F   0  0  0  0  0  0  0  0  0  0  0  0
  1  2  2  0
  1  3  1  0
  2 11  1  0
  3 12  2  0
  4  8  2  0
  4 17  1  0
  5 10  2  0
  5 16  1  0
  6 11  2  0
  6 12  1  0
  7 13  1  0
  7 16  2  0
  8 24  1  0
  9 14  2  0
  9 23  1  0
 10 14  1  0
 10 15  1  0
 11 13  1  0
 12 17  1  0
 13 15  2  0
 14 20  1  0
 15 23  1  0
 16 27  1  0
 17 22  2  0
 18 19  1  0
 18 25  1  0
 18 26  2  0
 20 21  1  0
 21 25  1  0
 22 24  1  0
M  END
