GAB-REV-4a4e2ff3-14
     RDKit          3D

 27 29  0  0  0  0  0  0  0  0999 V2000
    8.6119   -2.6640   21.7358 C   0  0  0  0  0  0  0  0  0  0  0  0
    9.2672   -2.0352   23.9747 C   0  0  0  0  0  0  0  0  0  0  0  0
    7.4157   -3.1825   22.2315 C   0  0  0  0  0  0  0  0  0  0  0  0
    8.0709   -2.5537   24.4704 C   0  0  0  0  0  0  0  0  0  0  0  0
   13.2965    1.5716   23.3744 C   0  0  0  0  0  0  0  0  0  0  0  0
   12.9603   -0.5751   22.2901 C   0  0  0  0  0  0  0  0  0  0  0  0
    9.7839    2.1346   24.2141 C   0  0  0  0  0  0  0  0  0  0  0  0
   11.9129    1.6499   23.6294 C   0  0  0  0  0  0  0  0  0  0  0  0
   11.0747    2.6078   24.2657 C   0  0  0  0  0  0  0  0  0  0  0  0
   11.0906    0.6047   23.2032 C   0  0  0  0  0  0  0  0  0  0  0  0
    9.5377   -2.0904   22.6074 C   0  0  0  0  0  0  0  0  0  0  0  0
    7.1452   -3.1273   23.5988 C   0  0  0  0  0  0  0  0  0  0  0  0
   11.5847   -0.5194   22.5320 C   0  0  0  0  0  0  0  0  0  0  0  0
   13.8048    0.4531   22.7040 C   0  0  0  0  0  0  0  0  0  0  0  0
    4.9077   -4.2544   23.3805 C   0  0  0  0  0  0  0  0  0  0  0  0
    9.7527    6.3048   23.3980 C   0  0  0  0  0  0  0  0  0  0  0  0
    3.7818   -4.6816   24.2885 C   0  0  0  0  0  0  0  0  0  0  0  0
    8.6447    6.4849   22.4141 C   0  0  0  0  0  0  0  0  0  0  0  0
   11.5027    3.8834   24.8749 C   0  0  0  0  0  0  0  0  0  0  0  0
   11.8150    4.9928   23.8541 C   0  0  0  0  0  0  0  0  0  0  0  0
    9.8036    0.9258   23.5717 N   0  0  0  0  0  0  0  0  0  0  0  0
   10.7487   -1.5676   22.1064 N   0  0  0  0  0  0  0  0  0  0  0  0
    5.9486   -3.6459   24.0946 N   0  0  0  0  0  0  0  0  0  0  0  0
   10.6705    5.3270   23.0495 N   0  0  0  0  0  0  0  0  0  0  0  0
    4.8491   -4.4527   22.1714 O   0  0  0  0  0  0  0  0  0  0  0  0
    9.7841    7.0002   24.4065 O   0  0  0  0  0  0  0  0  0  0  0  0
   15.1196    0.3713   22.4579 F   0  0  0  0  0  0  0  0  0  0  0  0
  1  3  2  0
  1 11  1  0
  2  4  1  0
  2 11  2  0
  3 12  1  0
  4 12  2  0
  5  8  2  0
  5 14  1  0
  6 13  1  0
  6 14  2  0
  7  9  2  0
  7 21  1  0
  8  9  1  0
  8 10  1  0
  9 19  1  0
 10 13  2  0
 10 21  1  0
 11 22  1  0
 12 23  1  0
 13 22  1  0
 14 27  1  0
 15 17  1  0
 15 23  1  0
 15 25  2  0
 16 18  1  0
 16 24  1  0
 16 26  2  0
 19 20  1  0
 20 24  1  0
M  END
