GAB-REV-df64cf17-10
     RDKit          3D

 25 27  0  0  0  0  0  0  0  0999 V2000
   14.0084   -2.5634   25.8486 C   0  0  0  0  0  0  0  0  0  0  0  0
    9.0967   -5.3523   24.7915 C   0  0  0  0  0  0  0  0  0  0  0  0
    7.9228   -5.8627   24.2530 C   0  0  0  0  0  0  0  0  0  0  0  0
    9.6580   -4.1817   24.2780 C   0  0  0  0  0  0  0  0  0  0  0  0
    7.2788   -5.2199   23.1906 C   0  0  0  0  0  0  0  0  0  0  0  0
   12.2048   -2.0390   24.2718 C   0  0  0  0  0  0  0  0  0  0  0  0
   12.4487   -0.7163   26.2333 C   0  0  0  0  0  0  0  0  0  0  0  0
    8.3590   -2.1682   21.5353 C   0  0  0  0  0  0  0  0  0  0  0  0
   12.8889   -1.7730   25.4528 C   0  0  0  0  0  0  0  0  0  0  0  0
    9.0266   -3.5163   23.2063 C   0  0  0  0  0  0  0  0  0  0  0  0
    7.8416   -4.0386   22.6695 C   0  0  0  0  0  0  0  0  0  0  0  0
   11.1169   -1.2512   23.9126 C   0  0  0  0  0  0  0  0  0  0  0  0
    9.3366   -2.3424   22.4825 C   0  0  0  0  0  0  0  0  0  0  0  0
   10.7559   -0.2179   24.7622 C   0  0  0  0  0  0  0  0  0  0  0  0
    6.2879   -3.3472   20.8248 C   0  0  0  0  0  0  0  0  0  0  0  0
    5.6730   -2.0815   20.3053 C   0  0  0  0  0  0  0  0  0  0  0  0
   10.5760    2.7998   24.6224 C   0  0  0  0  0  0  0  0  0  0  0  0
   11.1497   -0.9871   21.4925 C   0  0  0  0  0  0  0  0  0  0  0  0
    9.4380    1.8928   24.9463 C   0  0  0  0  0  0  0  0  0  0  0  0
   14.9192   -3.2065   26.1705 N   0  0  0  0  0  0  0  0  0  0  0  0
   11.3961    0.0710   25.9173 N   0  0  0  0  0  0  0  0  0  0  0  0
    7.4333   -3.1917   21.6307 N   0  0  0  0  0  0  0  0  0  0  0  0
    9.6476    0.5903   24.4041 N   0  0  0  0  0  0  0  0  0  0  0  0
   10.3969   -1.5283   22.6732 N   0  0  0  0  0  0  0  0  0  0  0  0
    5.8521   -4.4647   20.5875 O   0  0  0  0  0  0  0  0  0  0  0  0
  1  9  1  0
  1 20  3  0
  2  3  2  0
  2  4  1  0
  3  5  1  0
  4 10  2  0
  5 11  2  0
  6  9  2  0
  6 12  1  0
  7  9  1  0
  7 21  2  0
  8 13  2  0
  8 22  1  0
 10 11  1  0
 10 13  1  0
 11 22  1  0
 12 14  2  0
 12 24  1  0
 13 24  1  0
 14 21  1  0
 14 23  1  0
 15 16  1  0
 15 22  1  0
 15 25  2  0
 17 19  1  0
 18 24  1  0
 19 23  1  0
M  END
