GAB-REV-70cc3ca5-11
     RDKit          3D

 20 22  0  0  0  0  0  0  0  0999 V2000
   14.6626   -2.1792   22.8594 C   0  0  0  0  0  0  0  0  0  0  0  0
   13.8136   -1.5037   21.9853 C   0  0  0  0  0  0  0  0  0  0  0  0
    5.4114    0.9546   18.7290 C   0  0  0  0  0  0  0  0  0  0  0  0
   14.4407   -2.0953   24.2336 C   0  0  0  0  0  0  0  0  0  0  0  0
    6.1387    0.5910   17.6072 C   0  0  0  0  0  0  0  0  0  0  0  0
    8.0951    0.4680   18.8054 C   0  0  0  0  0  0  0  0  0  0  0  0
    6.0918    1.0722   19.9358 C   0  0  0  0  0  0  0  0  0  0  0  0
    7.4594    0.8261   19.9833 C   0  0  0  0  0  0  0  0  0  0  0  0
   12.7996   -0.7932   22.6047 C   0  0  0  0  0  0  0  0  0  0  0  0
   12.6312   -0.7490   23.9789 C   0  0  0  0  0  0  0  0  0  0  0  0
   11.1118    0.4197   23.1155 C   0  0  0  0  0  0  0  0  0  0  0  0
    9.5356    1.2836   21.3343 C   0  0  0  0  0  0  0  0  0  0  0  0
    5.3325    1.4634   21.1610 C   0  0  0  0  0  0  0  0  0  0  0  0
    9.9614    1.2844   22.8089 C   0  0  0  0  0  0  0  0  0  0  0  0
    7.4678    0.3437   17.6143 N   0  0  0  0  0  0  0  0  0  0  0  0
   13.4477   -1.3998   24.8425 N   0  0  0  0  0  0  0  0  0  0  0  0
   11.5488    0.0295   24.2941 N   0  0  0  0  0  0  0  0  0  0  0  0
    8.1962    0.9321   21.1870 N   0  0  0  0  0  0  0  0  0  0  0  0
   10.3315    1.5669   20.4447 O   0  0  0  0  0  0  0  0  0  0  0  0
   11.8164   -0.0365   22.0395 O   0  0  0  0  0  0  0  0  0  0  0  0
  1  2  2  0
  1  4  1  0
  2  9  1  0
  3  5  2  0
  3  7  1  0
  4 16  2  0
  5 15  1  0
  6  8  1  0
  6 15  2  0
  7  8  2  0
  7 13  1  0
  8 18  1  0
  9 10  2  0
  9 20  1  0
 10 16  1  0
 10 17  1  0
 11 14  1  0
 11 17  2  0
 11 20  1  0
 12 14  1  0
 12 18  1  0
 12 19  2  0
M  END
