GAB-REV-4a4e2ff3-16
     RDKit          3D

 27 30  0  0  0  0  0  0  0  0999 V2000
    7.6644   -5.7884   27.0606 C   0  0  0  0  0  0  0  0  0  0  0  0
    6.4589   -5.7796   26.3483 C   0  0  0  0  0  0  0  0  0  0  0  0
    8.7749   -5.0536   26.6205 C   0  0  0  0  0  0  0  0  0  0  0  0
    6.3125   -5.0391   25.1703 C   0  0  0  0  0  0  0  0  0  0  0  0
    9.2365    2.5180   24.7995 C   0  0  0  0  0  0  0  0  0  0  0  0
    8.6609    0.2402   24.1852 C   0  0  0  0  0  0  0  0  0  0  0  0
   12.6609    2.4080   23.5258 C   0  0  0  0  0  0  0  0  0  0  0  0
   10.5265    2.3270   24.2656 C   0  0  0  0  0  0  0  0  0  0  0  0
   11.6817    3.1493   24.1459 C   0  0  0  0  0  0  0  0  0  0  0  0
    8.6449   -4.3061   25.4414 C   0  0  0  0  0  0  0  0  0  0  0  0
   10.8449    1.0887   23.7040 C   0  0  0  0  0  0  0  0  0  0  0  0
    9.9342    0.0275   23.6494 C   0  0  0  0  0  0  0  0  0  0  0  0
    7.4335   -4.3248   24.7660 C   0  0  0  0  0  0  0  0  0  0  0  0
    8.3152    1.4655   24.7519 C   0  0  0  0  0  0  0  0  0  0  0  0
    8.8411   -3.0761   23.7393 C   0  0  0  0  0  0  0  0  0  0  0  0
    9.3879    6.2914   23.1290 C   0  0  0  0  0  0  0  0  0  0  0  0
    8.1938    6.0872   22.2568 C   0  0  0  0  0  0  0  0  0  0  0  0
   11.8163    4.5476   24.6017 C   0  0  0  0  0  0  0  0  0  0  0  0
    9.2795   -2.1566   22.6363 C   0  0  0  0  0  0  0  0  0  0  0  0
   11.7482    5.5867   23.4678 C   0  0  0  0  0  0  0  0  0  0  0  0
    9.5354   -3.5024   24.7715 N   0  0  0  0  0  0  0  0  0  0  0  0
   12.1467    1.1666   23.2629 N   0  0  0  0  0  0  0  0  0  0  0  0
   10.2639   -1.2165   23.0816 N   0  0  0  0  0  0  0  0  0  0  0  0
   10.4942    5.5407   22.7648 N   0  0  0  0  0  0  0  0  0  0  0  0
    9.3225    7.0745   24.0693 O   0  0  0  0  0  0  0  0  0  0  0  0
    7.5584   -3.5289   23.6635 O   0  0  0  0  0  0  0  0  0  0  0  0
    7.0864    1.6395   25.2576 F   0  0  0  0  0  0  0  0  0  0  0  0
  1  2  2  0
  1  3  1  0
  2  4  1  0
  3 10  2  0
  4 13  2  0
  5  8  2  0
  5 14  1  0
  6 12  1  0
  6 14  2  0
  7  9  2  0
  7 22  1  0
  8  9  1  0
  8 11  1  0
  9 18  1  0
 10 13  1  0
 10 21  1  0
 11 12  2  0
 11 22  1  0
 12 23  1  0
 13 26  1  0
 14 27  1  0
 15 19  1  0
 15 21  2  0
 15 26  1  0
 16 17  1  0
 16 24  1  0
 16 25  2  0
 18 20  1  0
 19 23  1  0
 20 24  1  0
M  END
