GAB-REV-df64cf17-4
     RDKit          3D

 23 25  0  0  1  0  0  0  0  0999 V2000
    8.0260   -0.4854   20.8383 C   0  0  0  0  0  0  0  0  0  0  0  0
   11.2304   -3.6974   25.0456 C   0  0  0  0  0  0  0  0  0  0  0  0
   12.4954   -3.1130   24.9244 C   0  0  0  0  0  0  0  0  0  0  0  0
    8.1752   -2.3546   22.4187 C   0  0  0  0  0  0  0  0  0  0  0  0
   10.1431   -1.5211   24.9808 C   0  0  0  0  0  0  0  0  0  0  0  0
    6.2135   -2.1104   21.0964 C   0  0  0  0  0  0  0  0  0  0  0  0
   11.9035    0.3967   24.7422 C   0  0  0  0  0  0  0  0  0  0  0  0
    7.4712   -1.6486   21.4496 C   0  0  0  0  0  0  0  0  0  0  0  0
   11.4067   -0.9193   24.8584 C   0  0  0  0  0  0  0  0  0  0  0  0
   10.0731   -2.9169   25.0735 C   0  0  0  0  0  0  0  0  0  0  0  0
   12.5430   -1.7202   24.8331 C   0  0  0  0  0  0  0  0  0  0  0  0
    7.6080   -3.4847   22.9970 C   0  0  0  0  0  0  0  0  0  0  0  0
    6.3441   -3.8642   22.5747 C   0  0  0  0  0  0  0  0  0  0  0  0
    4.2673   -6.8916   23.3787 C   0  0  0  0  0  0  0  0  0  0  0  0
    8.6515   -5.6077   23.7483 C   0  0  0  0  0  0  0  0  0  0  0  0
    8.7402   -3.5773   25.2038 C   0  0  0  0  0  0  0  0  0  0  0  0
    4.6899   -5.7319   22.5426 C   0  0  0  0  0  0  0  0  0  0  0  0
    8.4775    0.4610   20.3409 N   0  0  0  0  0  0  0  0  0  0  0  0
    5.6297   -3.2039   21.6359 N   0  0  0  0  0  0  0  0  0  0  0  0
   13.2345    0.4420   24.6503 N   0  0  0  0  0  0  0  0  0  0  0  0
   13.5933   -0.8514   24.7079 N   0  0  0  0  0  0  0  0  0  0  0  0
    5.7579   -5.0151   23.1590 N   0  0  0  0  0  0  0  0  0  0  0  0
    8.3167   -4.1991   23.9757 N   0  0  0  0  0  0  0  0  0  0  0  0
  1  8  1  0
  1 18  3  0
  2  3  2  0
  2 10  1  0
  3 11  1  0
  4  8  2  0
  4 12  1  0
  5  9  1  0
  5 10  2  0
  6  8  1  0
  6 19  2  0
  7  9  1  0
  7 20  2  0
  9 11  2  0
 10 16  1  0
 11 21  1  0
 12 13  2  0
 12 23  1  0
 13 19  1  0
 13 22  1  0
 14 17  1  0
 15 23  1  0
 16 23  1  0
 17 22  1  0
 20 21  1  0
M  END
