GAB-REV-70cc3ca5-7
     RDKit          3D

 22 24  0  0  1  0  0  0  0  0999 V2000
   14.5216   -0.5101   24.0977 C   0  0  0  0  0  0  0  0  0  0  0  0
   14.6029   -1.5246   23.1459 C   0  0  0  0  0  0  0  0  0  0  0  0
   13.2807   -0.0786   24.5804 C   0  0  0  0  0  0  0  0  0  0  0  0
   13.4507   -2.1389   22.6470 C   0  0  0  0  0  0  0  0  0  0  0  0
    5.9643    1.6984   18.8301 C   0  0  0  0  0  0  0  0  0  0  0  0
   10.7174   -0.5031   24.3495 C   0  0  0  0  0  0  0  0  0  0  0  0
    6.5687    1.3109   17.6450 C   0  0  0  0  0  0  0  0  0  0  0  0
    7.6084   -0.4721   18.6541 C   0  0  0  0  0  0  0  0  0  0  0  0
   12.1053   -0.6830   24.0921 C   0  0  0  0  0  0  0  0  0  0  0  0
    6.2161    0.9395   19.9676 C   0  0  0  0  0  0  0  0  0  0  0  0
   12.2172   -1.6972   23.1386 C   0  0  0  0  0  0  0  0  0  0  0  0
    7.0529   -0.1681   19.8865 C   0  0  0  0  0  0  0  0  0  0  0  0
   10.0264   -1.3946   23.5617 C   0  0  0  0  0  0  0  0  0  0  0  0
    8.1545   -2.0996   21.0696 C   0  0  0  0  0  0  0  0  0  0  0  0
    5.5780    1.3349   21.2588 C   0  0  0  0  0  0  0  0  0  0  0  0
    7.6724   -0.9011   24.1744 C   0  0  0  0  0  0  0  0  0  0  0  0
    8.1886   -2.6623   22.4774 C   0  0  0  0  0  0  0  0  0  0  0  0
    7.3872    0.2414   17.5273 N   0  0  0  0  0  0  0  0  0  0  0  0
   10.9396   -2.1106   22.8351 N   0  0  0  0  0  0  0  0  0  0  0  0
    7.3396   -0.9719   21.0154 N   0  0  0  0  0  0  0  0  0  0  0  0
    8.7091   -1.6409   23.4167 N   0  0  0  0  0  0  0  0  0  0  0  0
    8.7873   -2.6049   20.1480 O   0  0  0  0  0  0  0  0  0  0  0  0
  1  2  2  0
  1  3  1  0
  2  4  1  0
  3  9  2  0
  4 11  2  0
  5  7  2  0
  5 10  1  0
  6  9  1  0
  6 13  2  0
  7 18  1  0
  8 12  1  0
  8 18  2  0
  9 11  1  0
 10 12  2  0
 10 15  1  0
 11 19  1  0
 12 20  1  0
 13 19  1  0
 13 21  1  0
 14 17  1  0
 14 20  1  0
 14 22  2  0
 16 21  1  0
 17 21  1  0
M  END
