GAB-REV-70cc3ca5-3
     RDKit          3D

 23 24  0  0  0  0  0  0  0  0999 V2000
    9.2540   -1.8969   25.0676 C   0  0  0  0  0  0  0  0  0  0  0  0
    9.1509   -3.6080   23.3651 C   0  0  0  0  0  0  0  0  0  0  0  0
    8.2818   -2.5723   25.8053 C   0  0  0  0  0  0  0  0  0  0  0  0
    8.1788   -4.2835   24.1028 C   0  0  0  0  0  0  0  0  0  0  0  0
    5.0169    0.8488   19.1812 C   0  0  0  0  0  0  0  0  0  0  0  0
    5.6691    0.5053   18.0080 C   0  0  0  0  0  0  0  0  0  0  0  0
    7.6857    0.2887   19.0873 C   0  0  0  0  0  0  0  0  0  0  0  0
    5.7674    0.9062   20.3503 C   0  0  0  0  0  0  0  0  0  0  0  0
    9.6886   -2.4147   23.8474 C   0  0  0  0  0  0  0  0  0  0  0  0
    7.1280    0.6223   20.3110 C   0  0  0  0  0  0  0  0  0  0  0  0
    7.7442   -3.7656   25.3229 C   0  0  0  0  0  0  0  0  0  0  0  0
    9.2887    0.3989   21.5199 C   0  0  0  0  0  0  0  0  0  0  0  0
    5.0899    1.2745   21.6294 C   0  0  0  0  0  0  0  0  0  0  0  0
    9.7919    0.5535   22.9516 C   0  0  0  0  0  0  0  0  0  0  0  0
   10.9715   -0.3498   23.2853 C   0  0  0  0  0  0  0  0  0  0  0  0
    6.9889    0.2228   17.9306 N   0  0  0  0  0  0  0  0  0  0  0  0
    7.5001   -5.6309   27.2113 N   0  0  0  0  0  0  0  0  0  0  0  0
    7.9240    0.6662   21.4585 N   0  0  0  0  0  0  0  0  0  0  0  0
   10.6565   -1.7426   23.1126 N   0  0  0  0  0  0  0  0  0  0  0  0
   10.0341    0.0729   20.6025 O   0  0  0  0  0  0  0  0  0  0  0  0
    5.8532   -3.6503   27.1073 O   0  0  0  0  0  0  0  0  0  0  0  0
    5.7464   -5.4369   25.3341 O   0  0  0  0  0  0  0  0  0  0  0  0
    6.5268   -4.6115   26.2453 S   0  0  0  0  0  0  0  0  0  0  0  0
  1  3  2  0
  1  9  1  0
  2  4  1  0
  2  9  2  0
  3 11  1  0
  4 11  2  0
  5  6  2  0
  5  8  1  0
  6 16  1  0
  7 10  1  0
  7 16  2  0
  8 10  2  0
  8 13  1  0
  9 19  1  0
 10 18  1  0
 11 23  1  0
 12 14  1  0
 12 18  1  0
 12 20  2  0
 14 15  1  0
 15 19  1  0
 17 23  1  0
 21 23  2  0
 22 23  2  0
M  END
