GAB-REV-70cc3ca5-19
     RDKit          3D

 21 22  0  0  1  0  0  0  0  0999 V2000
   12.9539   -0.5529   22.9158 C   0  0  0  0  0  0  0  0  0  0  0  0
    9.6693    0.4926   24.3212 C   0  0  0  0  0  0  0  0  0  0  0  0
   11.0035    0.5308   23.9162 C   0  0  0  0  0  0  0  0  0  0  0  0
    8.9187   -0.6692   24.1408 C   0  0  0  0  0  0  0  0  0  0  0  0
    7.2970    0.8889   18.6125 C   0  0  0  0  0  0  0  0  0  0  0  0
   10.8365   -1.7544   23.1501 C   0  0  0  0  0  0  0  0  0  0  0  0
    6.4559    0.1753   17.7739 C   0  0  0  0  0  0  0  0  0  0  0  0
    6.1862   -1.4999   19.3229 C   0  0  0  0  0  0  0  0  0  0  0  0
   11.5871   -0.5927   23.3306 C   0  0  0  0  0  0  0  0  0  0  0  0
    7.5768    0.3520   19.8642 C   0  0  0  0  0  0  0  0  0  0  0  0
    9.5023   -1.7927   23.5552 C   0  0  0  0  0  0  0  0  0  0  0  0
    7.0148   -0.8649   20.2339 C   0  0  0  0  0  0  0  0  0  0  0  0
    6.7727   -2.6569   21.9873 C   0  0  0  0  0  0  0  0  0  0  0  0
    8.4809    1.0999   20.7882 C   0  0  0  0  0  0  0  0  0  0  0  0
    9.4007   -4.2444   23.1824 C   0  0  0  0  0  0  0  0  0  0  0  0
    7.2944   -2.9141   23.3878 C   0  0  0  0  0  0  0  0  0  0  0  0
   14.0640   -0.5206   22.5790 N   0  0  0  0  0  0  0  0  0  0  0  0
    5.8913   -1.0096   18.0980 N   0  0  0  0  0  0  0  0  0  0  0  0
    7.2687   -1.4521   21.4963 N   0  0  0  0  0  0  0  0  0  0  0  0
    8.7428   -2.9671   23.3730 N   0  0  0  0  0  0  0  0  0  0  0  0
    6.0274   -3.4439   21.4125 O   0  0  0  0  0  0  0  0  0  0  0  0
  1  9  1  0
  1 17  3  0
  2  3  2  0
  2  4  1  0
  3  9  1  0
  4 11  2  0
  5  7  2  0
  5 10  1  0
  6  9  2  0
  6 11  1  0
  7 18  1  0
  8 12  1  0
  8 18  2  0
 10 12  2  0
 10 14  1  0
 11 20  1  0
 12 19  1  0
 13 16  1  0
 13 19  1  0
 13 21  2  0
 15 20  1  0
 16 20  1  0
M  END
