GAB-REV-4a4e2ff3-21
     RDKit          3D

 24 26  0  0  0  0  0  0  0  0999 V2000
    6.2006   -4.3293   25.2845 C   0  0  0  0  0  0  0  0  0  0  0  0
   13.0525    1.0096   22.4642 C   0  0  0  0  0  0  0  0  0  0  0  0
   11.9361   -1.1299   22.7359 C   0  0  0  0  0  0  0  0  0  0  0  0
    7.2544   -3.9447   26.0882 C   0  0  0  0  0  0  0  0  0  0  0  0
    6.3876   -4.1512   23.9289 C   0  0  0  0  0  0  0  0  0  0  0  0
   10.5310    2.9870   24.2228 C   0  0  0  0  0  0  0  0  0  0  0  0
   12.0023    1.6367   23.1638 C   0  0  0  0  0  0  0  0  0  0  0  0
   11.7282    2.9801   23.5448 C   0  0  0  0  0  0  0  0  0  0  0  0
   10.9441    0.8542   23.6308 C   0  0  0  0  0  0  0  0  0  0  0  0
   10.8833   -0.5297   23.4325 C   0  0  0  0  0  0  0  0  0  0  0  0
   13.0050   -0.3740   22.2583 C   0  0  0  0  0  0  0  0  0  0  0  0
    8.4672   -3.3016   24.2764 C   0  0  0  0  0  0  0  0  0  0  0  0
    9.5786    6.3934   23.0789 C   0  0  0  0  0  0  0  0  0  0  0  0
    8.4731    6.4107   22.0760 C   0  0  0  0  0  0  0  0  0  0  0  0
   12.5699    4.1616   23.2675 C   0  0  0  0  0  0  0  0  0  0  0  0
    9.7345   -2.7269   23.7127 C   0  0  0  0  0  0  0  0  0  0  0  0
   11.8617    5.5072   23.5085 C   0  0  0  0  0  0  0  0  0  0  0  0
    8.4065   -3.4252   25.6160 N   0  0  0  0  0  0  0  0  0  0  0  0
    7.5123   -3.6381   23.3884 N   0  0  0  0  0  0  0  0  0  0  0  0
   10.0660    1.7002   24.2698 N   0  0  0  0  0  0  0  0  0  0  0  0
    9.8132   -1.3100   23.9066 N   0  0  0  0  0  0  0  0  0  0  0  0
   10.6855    5.6543   22.6937 N   0  0  0  0  0  0  0  0  0  0  0  0
    9.4483    7.0059   24.1323 O   0  0  0  0  0  0  0  0  0  0  0  0
   14.0000   -0.9778   21.5940 F   0  0  0  0  0  0  0  0  0  0  0  0
  1  4  2  0
  1  5  1  0
  2  7  2  0
  2 11  1  0
  3 10  1  0
  3 11  2  0
  4 18  1  0
  5 19  2  0
  6  8  2  0
  6 20  1  0
  7  8  1  0
  7  9  1  0
  8 15  1  0
  9 10  2  0
  9 20  1  0
 10 21  1  0
 11 24  1  0
 12 16  1  0
 12 18  2  0
 12 19  1  0
 13 14  1  0
 13 22  1  0
 13 23  2  0
 15 17  1  0
 16 21  1  0
 17 22  1  0
M  END
