GAB-REV-4a4e2ff3-10
     RDKit          3D

 30 33  0  0  0  0  0  0  0  0999 V2000
    6.9097    0.9280   20.9934 C   0  0  0  0  0  0  0  0  0  0  0  0
    7.0190    0.6172   22.3530 C   0  0  0  0  0  0  0  0  0  0  0  0
   11.8420   -0.9458   22.6234 C   0  0  0  0  0  0  0  0  0  0  0  0
    6.3123   -1.6796   21.9482 C   0  0  0  0  0  0  0  0  0  0  0  0
    9.9414   -2.4351   22.8812 C   0  0  0  0  0  0  0  0  0  0  0  0
   10.9244    1.3249   25.3368 C   0  0  0  0  0  0  0  0  0  0  0  0
   11.3625   -0.1626   23.6922 C   0  0  0  0  0  0  0  0  0  0  0  0
    6.2127   -1.3461   20.6118 C   0  0  0  0  0  0  0  0  0  0  0  0
    6.5028   -0.0695   20.1279 C   0  0  0  0  0  0  0  0  0  0  0  0
   11.8221    1.0179   24.3404 C   0  0  0  0  0  0  0  0  0  0  0  0
   10.1782   -0.5439   24.3264 C   0  0  0  0  0  0  0  0  0  0  0  0
    6.7229   -0.6750   22.8257 C   0  0  0  0  0  0  0  0  0  0  0  0
   11.1205   -2.0787   22.2298 C   0  0  0  0  0  0  0  0  0  0  0  0
    9.4465   -1.6737   23.9439 C   0  0  0  0  0  0  0  0  0  0  0  0
    5.8125   -2.1839   19.4773 C   0  0  0  0  0  0  0  0  0  0  0  0
   12.0858    4.9134   23.3793 C   0  0  0  0  0  0  0  0  0  0  0  0
    6.3042   -0.0166   18.6526 C   0  0  0  0  0  0  0  0  0  0  0  0
   10.8646    5.7711   23.4157 C   0  0  0  0  0  0  0  0  0  0  0  0
   13.0412    1.7837   24.0109 C   0  0  0  0  0  0  0  0  0  0  0  0
   12.9129    2.6551   22.7482 C   0  0  0  0  0  0  0  0  0  0  0  0
    9.9366    0.3771   25.3207 N   0  0  0  0  0  0  0  0  0  0  0  0
    5.8791   -1.3708   18.3528 N   0  0  0  0  0  0  0  0  0  0  0  0
    6.8449   -0.9600   24.2202 N   0  0  0  0  0  0  0  0  0  0  0  0
   11.8732    3.6411   22.8733 N   0  0  0  0  0  0  0  0  0  0  0  0
    5.4940   -3.3554   19.5568 O   0  0  0  0  0  0  0  0  0  0  0  0
   13.1530    5.3644   23.7786 O   0  0  0  0  0  0  0  0  0  0  0  0
    8.1517   -2.0774   26.1544 O   0  0  0  0  0  0  0  0  0  0  0  0
    7.5598   -3.4631   24.1472 O   0  0  0  0  0  0  0  0  0  0  0  0
   11.5701   -2.8285   21.2142 F   0  0  0  0  0  0  0  0  0  0  0  0
    7.9427   -2.1882   24.7228 S   0  0  0  0  0  0  0  0  0  0  0  0
  1  2  2  0
  1  9  1  0
  2 12  1  0
  3  7  2  0
  3 13  1  0
  4  8  1  0
  4 12  2  0
  5 13  2  0
  5 14  1  0
  6 10  2  0
  6 21  1  0
  7 10  1  0
  7 11  1  0
  8  9  2  0
  8 15  1  0
  9 17  1  0
 10 19  1  0
 11 14  2  0
 11 21  1  0
 12 23  1  0
 13 29  1  0
 14 30  1  0
 15 22  1  0
 15 25  2  0
 16 18  1  0
 16 24  1  0
 16 26  2  0
 17 22  1  0
 19 20  1  0
 20 24  1  0
 23 30  1  0
 27 30  2  0
 28 30  2  0
M  END
