GAB-REV-70cc3ca5-16
     RDKit          3D

 26 28  0  0  1  0  0  0  0  0999 V2000
   12.4854    3.7355   23.2464 C   0  0  0  0  0  0  0  0  0  0  0  0
   11.3386    4.5331   23.2967 C   0  0  0  0  0  0  0  0  0  0  0  0
    5.8613    1.1045   18.9062 C   0  0  0  0  0  0  0  0  0  0  0  0
    9.9087    2.5724   23.3860 C   0  0  0  0  0  0  0  0  0  0  0  0
    6.4628    0.9954   17.6628 C   0  0  0  0  0  0  0  0  0  0  0  0
    8.2330   -0.1892   18.5238 C   0  0  0  0  0  0  0  0  0  0  0  0
   11.0503    1.7480   23.3362 C   0  0  0  0  0  0  0  0  0  0  0  0
    6.5055    0.5255   19.9939 C   0  0  0  0  0  0  0  0  0  0  0  0
   12.3098    2.3474   23.2677 C   0  0  0  0  0  0  0  0  0  0  0  0
    7.7145   -0.1355   19.8076 C   0  0  0  0  0  0  0  0  0  0  0  0
   11.2574    0.3401   23.3384 C   0  0  0  0  0  0  0  0  0  0  0  0
   10.0691    3.9626   23.3654 C   0  0  0  0  0  0  0  0  0  0  0  0
   12.6133    0.1163   23.2721 C   0  0  0  0  0  0  0  0  0  0  0  0
   13.3181   -1.1284   23.2487 C   0  0  0  0  0  0  0  0  0  0  0  0
    9.7835   -0.9134   21.0153 C   0  0  0  0  0  0  0  0  0  0  0  0
    5.8798    0.6285   21.3461 C   0  0  0  0  0  0  0  0  0  0  0  0
    9.3480   -0.7091   24.5272 C   0  0  0  0  0  0  0  0  0  0  0  0
   10.1068   -1.6104   22.3227 C   0  0  0  0  0  0  0  0  0  0  0  0
    7.6362    0.3612   17.4428 N   0  0  0  0  0  0  0  0  0  0  0  0
   13.2397    1.3329   23.2301 N   0  0  0  0  0  0  0  0  0  0  0  0
   14.7192   -1.1053   23.1777 N   0  0  0  0  0  0  0  0  0  0  0  0
    8.4083   -0.7409   20.8823 N   0  0  0  0  0  0  0  0  0  0  0  0
   10.2958   -0.6080   23.3951 N   0  0  0  0  0  0  0  0  0  0  0  0
   12.7265   -2.2363   23.2727 O   0  0  0  0  0  0  0  0  0  0  0  0
   10.6566   -0.5631   20.2277 O   0  0  0  0  0  0  0  0  0  0  0  0
    8.6788    4.9787   23.4256 Cl  0  0  0  0  0  0  0  0  0  0  0  0
  1  2  2  0
  1  9  1  0
  2 12  1  0
  3  5  2  0
  3  8  1  0
  4  7  1  0
  4 12  2  0
  5 19  1  0
  6 10  1  0
  6 19  2  0
  7  9  2  0
  7 11  1  0
  8 10  2  0
  8 16  1  0
  9 20  1  0
 10 22  1  0
 11 13  2  0
 11 23  1  0
 12 26  1  0
 13 14  1  0
 13 20  1  0
 14 21  1  0
 14 24  2  0
 15 18  1  0
 15 22  1  0
 15 25  2  0
 17 23  1  0
 18 23  1  0
M  END
