GAB-REV-df64cf17-9
     RDKit          3D

 23 24  0  0  0  0  0  0  0  0999 V2000
    5.4108   -6.0807   25.2563 C   0  0  0  0  0  0  0  0  0  0  0  0
   13.1112   -1.4721   24.5383 C   0  0  0  0  0  0  0  0  0  0  0  0
   12.2606   -3.3207   25.8407 C   0  0  0  0  0  0  0  0  0  0  0  0
   11.8637   -1.3253   23.9319 C   0  0  0  0  0  0  0  0  0  0  0  0
   11.0130   -3.1739   25.2343 C   0  0  0  0  0  0  0  0  0  0  0  0
    7.1666   -5.2525   23.7571 C   0  0  0  0  0  0  0  0  0  0  0  0
    4.8880   -4.8558   23.2031 C   0  0  0  0  0  0  0  0  0  0  0  0
    5.8204   -5.3975   24.0732 C   0  0  0  0  0  0  0  0  0  0  0  0
    7.5341   -4.5798   22.5970 C   0  0  0  0  0  0  0  0  0  0  0  0
   13.3097   -2.4698   25.4927 C   0  0  0  0  0  0  0  0  0  0  0  0
   10.8146   -2.1762   24.2799 C   0  0  0  0  0  0  0  0  0  0  0  0
    6.5250   -4.0749   21.7930 C   0  0  0  0  0  0  0  0  0  0  0  0
    5.4368   -1.5156   20.2087 C   0  0  0  0  0  0  0  0  0  0  0  0
    8.9887   -4.4241   22.2592 C   0  0  0  0  0  0  0  0  0  0  0  0
    5.9367   -2.8296   19.7124 C   0  0  0  0  0  0  0  0  0  0  0  0
    5.0776   -6.6366   26.2190 N   0  0  0  0  0  0  0  0  0  0  0  0
    5.2067   -4.1958   22.0671 N   0  0  0  0  0  0  0  0  0  0  0  0
    6.8948   -3.3879   20.6096 N   0  0  0  0  0  0  0  0  0  0  0  0
    9.3816   -3.0114   22.1574 N   0  0  0  0  0  0  0  0  0  0  0  0
    8.2327   -2.5318   24.4128 O   0  0  0  0  0  0  0  0  0  0  0  0
    9.1406   -0.6130   23.0644 O   0  0  0  0  0  0  0  0  0  0  0  0
   14.5079   -2.6114   26.0744 F   0  0  0  0  0  0  0  0  0  0  0  0
    9.2525   -1.9914   23.5228 S   0  0  0  0  0  0  0  0  0  0  0  0
  1  8  1  0
  1 16  3  0
  2  4  2  0
  2 10  1  0
  3  5  1  0
  3 10  2  0
  4 11  1  0
  5 11  2  0
  6  8  2  0
  6  9  1  0
  7  8  1  0
  7 17  2  0
  9 12  2  0
  9 14  1  0
 10 22  1  0
 11 23  1  0
 12 17  1  0
 12 18  1  0
 13 15  1  0
 14 19  1  0
 15 18  1  0
 19 23  1  0
 20 23  2  0
 21 23  2  0
M  END
