GAB-REV-4a4e2ff3-6
     RDKit          3D

 27 29  0  0  0  0  0  0  0  0999 V2000
   12.9970    1.4359   23.1317 C   0  0  0  0  0  0  0  0  0  0  0  0
    8.4258   -3.2882   22.5704 C   0  0  0  0  0  0  0  0  0  0  0  0
    9.3076   -2.1711   24.5226 C   0  0  0  0  0  0  0  0  0  0  0  0
   12.4037   -0.7333   22.2154 C   0  0  0  0  0  0  0  0  0  0  0  0
    7.6191   -3.8814   24.7691 C   0  0  0  0  0  0  0  0  0  0  0  0
    9.6382    2.2992   24.2865 C   0  0  0  0  0  0  0  0  0  0  0  0
   11.6563    1.6292   23.5198 C   0  0  0  0  0  0  0  0  0  0  0  0
   10.9566    2.6779   24.1797 C   0  0  0  0  0  0  0  0  0  0  0  0
   10.7246    0.6269   23.2410 C   0  0  0  0  0  0  0  0  0  0  0  0
    9.2825   -2.3457   23.1389 C   0  0  0  0  0  0  0  0  0  0  0  0
   11.0680   -0.5638   22.5909 C   0  0  0  0  0  0  0  0  0  0  0  0
    7.5940   -4.0560   23.3855 C   0  0  0  0  0  0  0  0  0  0  0  0
    8.4759   -2.9389   25.3377 C   0  0  0  0  0  0  0  0  0  0  0  0
   13.3550    0.2498   22.4806 C   0  0  0  0  0  0  0  0  0  0  0  0
    9.8058    6.4126   23.2332 C   0  0  0  0  0  0  0  0  0  0  0  0
    8.6157    6.6229   22.3570 C   0  0  0  0  0  0  0  0  0  0  0  0
    5.9345   -5.7258   23.7227 C   0  0  0  0  0  0  0  0  0  0  0  0
    9.3984   -1.7864   27.2023 C   0  0  0  0  0  0  0  0  0  0  0  0
   11.5318    3.9481   24.6664 C   0  0  0  0  0  0  0  0  0  0  0  0
   11.8104    4.9772   23.5557 C   0  0  0  0  0  0  0  0  0  0  0  0
    9.5082    1.0607   23.7177 N   0  0  0  0  0  0  0  0  0  0  0  0
   10.1226   -1.5680   22.3142 N   0  0  0  0  0  0  0  0  0  0  0  0
   10.6134    5.3530   22.8523 N   0  0  0  0  0  0  0  0  0  0  0  0
    9.9900    7.1550   24.1907 O   0  0  0  0  0  0  0  0  0  0  0  0
    6.7575   -4.9753   22.8309 O   0  0  0  0  0  0  0  0  0  0  0  0
    8.4996   -2.7678   26.6877 O   0  0  0  0  0  0  0  0  0  0  0  0
   14.6282    0.0585   22.1085 F   0  0  0  0  0  0  0  0  0  0  0  0
  1  7  2  0
  1 14  1  0
  2 10  2  0
  2 12  1  0
  3 10  1  0
  3 13  2  0
  4 11  1  0
  4 14  2  0
  5 12  2  0
  5 13  1  0
  6  8  2  0
  6 21  1  0
  7  8  1  0
  7  9  1  0
  8 19  1  0
  9 11  2  0
  9 21  1  0
 10 22  1  0
 11 22  1  0
 12 25  1  0
 13 26  1  0
 14 27  1  0
 15 16  1  0
 15 23  1  0
 15 24  2  0
 17 25  1  0
 18 26  1  0
 19 20  1  0
 20 23  1  0
M  END
