GER-UNI-cfb91824-1
     RDKit          3D

 27 30  0  0  0  0  0  0  0  0999 V2000
   12.8678   -1.3759   22.2231 C   0  0  0  0  0  0  0  0  0  0  0  0
    5.3261   -0.8962   19.0471 C   0  0  0  0  0  0  0  0  0  0  0  0
   13.6741    1.9112   23.7507 C   0  0  0  0  0  0  0  0  0  0  0  0
   12.4404    2.2844   24.2840 C   0  0  0  0  0  0  0  0  0  0  0  0
    5.5134   -2.1291   19.6721 C   0  0  0  0  0  0  0  0  0  0  0  0
    6.0749    0.2101   19.4485 C   0  0  0  0  0  0  0  0  0  0  0  0
    9.0695   -5.3438   26.4777 C   0  0  0  0  0  0  0  0  0  0  0  0
    7.8654   -5.2140   27.1608 C   0  0  0  0  0  0  0  0  0  0  0  0
   13.8028    0.6994   23.0720 C   0  0  0  0  0  0  0  0  0  0  0  0
   11.3354    1.4457   24.1385 C   0  0  0  0  0  0  0  0  0  0  0  0
    6.4494   -2.2557   20.6985 C   0  0  0  0  0  0  0  0  0  0  0  0
    7.0109    0.0835   20.4750 C   0  0  0  0  0  0  0  0  0  0  0  0
    9.4092   -4.4186   25.4969 C   0  0  0  0  0  0  0  0  0  0  0  0
    7.0427   -4.1499   26.8284 C   0  0  0  0  0  0  0  0  0  0  0  0
   12.6977   -0.1393   22.9265 C   0  0  0  0  0  0  0  0  0  0  0  0
   11.4640    0.2338   23.4598 C   0  0  0  0  0  0  0  0  0  0  0  0
    7.1982   -1.1494   21.0999 C   0  0  0  0  0  0  0  0  0  0  0  0
    8.5172   -3.3902   25.2388 C   0  0  0  0  0  0  0  0  0  0  0  0
   10.0008   -1.5356   24.2731 C   0  0  0  0  0  0  0  0  0  0  0  0
    7.9769   -2.2150   23.1852 C   0  0  0  0  0  0  0  0  0  0  0  0
   10.2685   -0.6194   23.3311 C   0  0  0  0  0  0  0  0  0  0  0  0
    8.8325   -2.3822   24.2070 C   0  0  0  0  0  0  0  0  0  0  0  0
    9.3379   -0.4770   22.1535 C   0  0  0  0  0  0  0  0  0  0  0  0
   13.0056   -2.3774   21.6533 N   0  0  0  0  0  0  0  0  0  0  0  0
    7.3386   -3.2314   25.8816 N   0  0  0  0  0  0  0  0  0  0  0  0
    8.1716   -1.2813   22.1673 N   0  0  0  0  0  0  0  0  0  0  0  0
    9.6737    0.2824   21.2428 O   0  0  0  0  0  0  0  0  0  0  0  0
  1 15  1  0
  1 24  3  0
  2  5  2  0
  2  6  1  0
  3  4  2  0
  3  9  1  0
  4 10  1  0
  5 11  1  0
  6 12  2  0
  7  8  2  0
  7 13  1  0
  8 14  1  0
  9 15  2  0
 10 16  2  0
 11 17  2  0
 12 17  1  0
 13 18  2  0
 14 25  2  0
 15 16  1  0
 16 21  1  0
 17 26  1  0
 18 22  1  0
 18 25  1  0
 19 21  2  0
 19 22  1  0
 20 22  2  0
 20 26  1  0
 21 23  1  0
 23 26  1  0
 23 27  2  0
M  END
