GER-FIO-88d97d8c-1
     RDKit          3D

 35 38  0  0  0  0  0  0  0  0999 V2000
   10.6622    0.9768   24.1994 C   0  0  0  0  0  0  0  0  0  0  0  0
   10.1673    2.0753   23.5071 C   0  0  0  0  0  0  0  0  0  0  0  0
    9.9330   -4.8837   24.3833 C   0  0  0  0  0  0  0  0  0  0  0  0
    3.9224   -6.5906   22.2245 C   0  0  0  0  0  0  0  0  0  0  0  0
   10.0567   -0.2734   24.0525 C   0  0  0  0  0  0  0  0  0  0  0  0
    9.6207   -3.8033   23.5583 C   0  0  0  0  0  0  0  0  0  0  0  0
    9.0679    1.9214   22.6676 C   0  0  0  0  0  0  0  0  0  0  0  0
    9.2307   -5.0790   25.5726 C   0  0  0  0  0  0  0  0  0  0  0  0
    4.8199   -5.5363   22.0971 C   0  0  0  0  0  0  0  0  0  0  0  0
    7.9038   -3.1133   25.1117 C   0  0  0  0  0  0  0  0  0  0  0  0
    2.8378   -6.4205   23.0697 C   0  0  0  0  0  0  0  0  0  0  0  0
    3.4929   -4.2903   23.6278 C   0  0  0  0  0  0  0  0  0  0  0  0
    8.6061   -2.9181   23.9225 C   0  0  0  0  0  0  0  0  0  0  0  0
    8.9489   -0.4463   23.2042 C   0  0  0  0  0  0  0  0  0  0  0  0
    8.4629    0.6646   22.5074 C   0  0  0  0  0  0  0  0  0  0  0  0
    8.2161   -4.1938   25.9368 C   0  0  0  0  0  0  0  0  0  0  0  0
    4.6084   -4.3607   22.8088 C   0  0  0  0  0  0  0  0  0  0  0  0
    8.2735   -1.7651   23.0428 C   0  0  0  0  0  0  0  0  0  0  0  0
    7.3335   -1.8985   22.0691 C   0  0  0  0  0  0  0  0  0  0  0  0
    6.6492   -3.2047   21.9253 C   0  0  0  0  0  0  0  0  0  0  0  0
    6.1878   -1.0764   20.0457 C   0  0  0  0  0  0  0  0  0  0  0  0
    7.2599    0.5325   21.6249 C   0  0  0  0  0  0  0  0  0  0  0  0
    5.5250   -5.0355   29.5678 C   0  0  0  0  0  0  0  0  0  0  0  0
    7.4646   -4.4037   27.2077 C   0  0  0  0  0  0  0  0  0  0  0  0
    5.8334    0.1471   19.2288 C   0  0  0  0  0  0  0  0  0  0  0  0
    2.5991   -5.2935   23.7772 N   0  0  0  0  0  0  0  0  0  0  0  0
    6.9196   -0.8459   21.2327 N   0  0  0  0  0  0  0  0  0  0  0  0
    5.5050   -3.2699   22.6999 N   0  0  0  0  0  0  0  0  0  0  0  0
    6.5122   -5.4806   27.1096 N   0  0  0  0  0  0  0  0  0  0  0  0
    7.1273   -4.0507   21.1819 O   0  0  0  0  0  0  0  0  0  0  0  0
    5.8412   -2.1823   19.6223 O   0  0  0  0  0  0  0  0  0  0  0  0
    7.2435   -6.9558   29.1101 O   0  0  0  0  0  0  0  0  0  0  0  0
    4.8946   -7.1793   28.2217 O   0  0  0  0  0  0  0  0  0  0  0  0
    6.0591   -6.3667   28.5168 S   0  0  0  0  0  0  0  0  0  0  0  0
    7.1761    0.4155   18.1253 Cl  0  0  0  0  0  0  0  0  0  0  0  0
  1  2  2  0
  1  5  1  0
  2  7  1  0
  3  6  2  0
  3  8  1  0
  4  9  2  0
  4 11  1  0
  5 14  2  0
  6 13  1  0
  7 15  2  0
  8 16  2  0
  9 17  1  0
 10 13  2  0
 10 16  1  0
 11 26  2  0
 12 17  2  0
 12 26  1  0
 13 18  1  0
 14 15  1  0
 14 18  1  0
 15 22  1  0
 16 24  1  0
 17 28  1  0
 18 19  2  0
 19 20  1  0
 19 27  1  0
 20 28  1  0
 20 30  2  0
 21 25  1  0
 21 27  1  0
 21 31  2  0
 22 27  1  0
 23 34  1  0
 24 29  1  0
 25 35  1  0
 29 34  1  0
 32 34  2  0
 33 34  2  0
M  END
