GER-UNI-9e096ee1-1
     RDKit          3D

 30 33  0  0  0  0  0  0  0  0999 V2000
    7.7547   -4.1756   23.3729 C   0  0  0  0  0  0  0  0  0  0  0  0
    9.9050    5.9780   24.0734 C   0  0  0  0  0  0  0  0  0  0  0  0
    7.1879   -3.6723   22.2024 C   0  0  0  0  0  0  0  0  0  0  0  0
   10.9774    6.5728   23.4095 C   0  0  0  0  0  0  0  0  0  0  0  0
    8.8514   -3.5344   23.9490 C   0  0  0  0  0  0  0  0  0  0  0  0
    9.9033    4.6022   24.3039 C   0  0  0  0  0  0  0  0  0  0  0  0
    7.7181   -2.5270   21.6076 C   0  0  0  0  0  0  0  0  0  0  0  0
   12.0489    5.7916   22.9759 C   0  0  0  0  0  0  0  0  0  0  0  0
    9.3751   -2.3875   23.3454 C   0  0  0  0  0  0  0  0  0  0  0  0
   10.9817    3.8283   23.8658 C   0  0  0  0  0  0  0  0  0  0  0  0
    8.8156   -1.8853   22.1844 C   0  0  0  0  0  0  0  0  0  0  0  0
   12.0472    4.4147   23.2069 C   0  0  0  0  0  0  0  0  0  0  0  0
   10.5209   -1.6853   23.9165 C   0  0  0  0  0  0  0  0  0  0  0  0
   11.0203    2.3857   24.0882 C   0  0  0  0  0  0  0  0  0  0  0  0
   10.9965   -0.4718   23.1882 C   0  0  0  0  0  0  0  0  0  0  0  0
   12.2205    1.6589   23.5777 C   0  0  0  0  0  0  0  0  0  0  0  0
   10.3936   -0.0350   22.0448 C   0  0  0  0  0  0  0  0  0  0  0  0
   13.2353    2.3058   22.9346 C   0  0  0  0  0  0  0  0  0  0  0  0
   13.4248   -0.4355   23.2524 C   0  0  0  0  0  0  0  0  0  0  0  0
   13.8400   -1.7356   19.8536 C   0  0  0  0  0  0  0  0  0  0  0  0
   14.2727   -1.4018   21.2653 C   0  0  0  0  0  0  0  0  0  0  0  0
   12.1842    0.1964   23.8433 C   0  0  0  0  0  0  0  0  0  0  0  0
   10.7630    0.9893   21.3927 O   0  0  0  0  0  0  0  0  0  0  0  0
   14.2728    1.7302   22.4839 O   0  0  0  0  0  0  0  0  0  0  0  0
   11.0538   -2.0852   24.9441 O   0  0  0  0  0  0  0  0  0  0  0  0
   10.1047    1.8151   24.6679 O   0  0  0  0  0  0  0  0  0  0  0  0
   14.4841   -0.5937   23.8475 O   0  0  0  0  0  0  0  0  0  0  0  0
    9.2863   -0.7697   21.5541 O   0  0  0  0  0  0  0  0  0  0  0  0
   13.1249    3.7071   22.7584 O   0  0  0  0  0  0  0  0  0  0  0  0
   13.1775   -0.7928   21.9569 O   0  0  0  0  0  0  0  0  0  0  0  0
  1  3  2  0
  1  5  1  0
  2  4  2  0
  2  6  1  0
  3  7  1  0
  4  8  1  0
  5  9  2  0
  6 10  2  0
  7 11  2  0
  8 12  2  0
  9 11  1  0
  9 13  1  0
 10 12  1  0
 10 14  1  0
 11 28  1  0
 12 29  1  0
 13 15  1  0
 13 25  2  0
 14 16  1  0
 14 26  2  0
 15 17  2  0
 15 22  1  0
 16 18  2  0
 16 22  1  0
 17 23  1  0
 17 28  1  0
 18 24  1  0
 18 29  1  0
 19 22  1  0
 19 27  2  0
 19 30  1  0
 20 21  1  0
 21 30  1  0
M  CHG  2  23  -1  24  -1
M  END
