GIA-UNK-d2defdc3-3
     RDKit          3D

 25 27  0  0  1  0  0  0  0  0999 V2000
    7.6679    3.7295   23.5198 C   0  0  0  0  0  0  0  0  0  0  0  0
    8.9109    0.0737   21.9284 C   0  0  0  0  0  0  0  0  0  0  0  0
    8.1663    7.1525   25.0212 C   0  0  0  0  0  0  0  0  0  0  0  0
    7.9958    6.8999   23.5278 C   0  0  0  0  0  0  0  0  0  0  0  0
    8.0108    5.8671   25.8255 C   0  0  0  0  0  0  0  0  0  0  0  0
    4.5302    2.6754   20.0058 C   0  0  0  0  0  0  0  0  0  0  0  0
    5.0333    1.3840   19.3713 C   0  0  0  0  0  0  0  0  0  0  0  0
    8.9478    5.8171   23.0207 C   0  0  0  0  0  0  0  0  0  0  0  0
    8.9776    4.7838   25.3499 C   0  0  0  0  0  0  0  0  0  0  0  0
    5.6695    3.4633   20.6435 C   0  0  0  0  0  0  0  0  0  0  0  0
    5.7952    0.5295   20.3783 C   0  0  0  0  0  0  0  0  0  0  0  0
   10.4296   -1.7919   22.5970 C   0  0  0  0  0  0  0  0  0  0  0  0
    9.8857    0.0660   24.2267 C   0  0  0  0  0  0  0  0  0  0  0  0
   11.7819   -1.1428   22.3289 C   0  0  0  0  0  0  0  0  0  0  0  0
   11.2439    0.6955   23.9415 C   0  0  0  0  0  0  0  0  0  0  0  0
    8.8972    4.5281   23.8435 C   0  0  0  0  0  0  0  0  0  0  0  0
    9.3738   -0.7904   23.0676 C   0  0  0  0  0  0  0  0  0  0  0  0
    6.4511    2.6223   21.6590 C   0  0  0  0  0  0  0  0  0  0  0  0
    6.9421    1.3036   21.0352 C   0  0  0  0  0  0  0  0  0  0  0  0
   13.6166    0.1691   23.3894 C   0  0  0  0  0  0  0  0  0  0  0  0
    7.5572    3.3914   22.1872 N   0  0  0  0  0  0  0  0  0  0  0  0
    7.5899    0.4682   22.0222 N   0  0  0  0  0  0  0  0  0  0  0  0
   12.2265   -0.3814   23.5531 N   0  0  0  0  0  0  0  0  0  0  0  0
    6.8814    3.4419   24.4143 O   0  0  0  0  0  0  0  0  0  0  0  0
    9.6947    0.3622   21.0316 O   0  0  0  0  0  0  0  0  0  0  0  0
  1 16  1  0
  1 21  1  0
  1 24  2  0
  2 17  1  0
  2 22  1  0
  2 25  2  0
  3  4  1  0
  3  5  1  0
  4  8  1  0
  5  9  1  0
  6  7  1  0
  6 10  1  0
  7 11  1  0
  8 16  1  0
  9 16  1  0
 10 18  1  0
 11 19  1  0
 12 14  1  0
 12 17  1  0
 13 15  1  0
 13 17  1  0
 14 23  1  0
 15 23  1  0
 18 19  1  0
 18 21  1  0
 19 22  1  0
 20 23  1  0
M  CHG  1  23   1
M  END
