GIA-UNK-eaadd1d4-3
     RDKit          3D

 23 25  0  0  0  0  0  0  0  0999 V2000
   13.3785   -0.6750   23.8953 C   0  0  0  0  0  0  0  0  0  0  0  0
   12.3101    0.0640   24.4029 C   0  0  0  0  0  0  0  0  0  0  0  0
   13.1367   -1.7868   23.0883 C   0  0  0  0  0  0  0  0  0  0  0  0
   10.9996   -0.3088   24.1038 C   0  0  0  0  0  0  0  0  0  0  0  0
   11.8263   -2.1596   22.7891 C   0  0  0  0  0  0  0  0  0  0  0  0
   10.7577   -1.4206   23.2969 C   0  0  0  0  0  0  0  0  0  0  0  0
    6.8112   -4.9576   26.3708 C   0  0  0  0  0  0  0  0  0  0  0  0
    7.9145   -2.7832   25.9864 C   0  0  0  0  0  0  0  0  0  0  0  0
    6.5878   -3.8751   24.1130 C   0  0  0  0  0  0  0  0  0  0  0  0
    9.1960   -3.2419   25.2956 C   0  0  0  0  0  0  0  0  0  0  0  0
    7.9073   -4.2901   23.4667 C   0  0  0  0  0  0  0  0  0  0  0  0
    5.6239   -6.8061   27.5084 C   0  0  0  0  0  0  0  0  0  0  0  0
    4.2716   -5.0641   26.4177 C   0  0  0  0  0  0  0  0  0  0  0  0
    4.6650   -6.7426   28.6887 C   0  0  0  0  0  0  0  0  0  0  0  0
    3.3652   -5.0771   27.6423 C   0  0  0  0  0  0  0  0  0  0  0  0
    6.7053   -3.6414   25.6166 C   0  0  0  0  0  0  0  0  0  0  0  0
    5.6121   -5.5414   26.7733 N   0  0  0  0  0  0  0  0  0  0  0  0
    8.9910   -3.3372   23.8256 N   0  0  0  0  0  0  0  0  0  0  0  0
    7.9246   -5.4400   26.5930 O   0  0  0  0  0  0  0  0  0  0  0  0
    8.2145   -0.9073   23.5015 O   0  0  0  0  0  0  0  0  0  0  0  0
    9.0357   -2.2181   21.5127 O   0  0  0  0  0  0  0  0  0  0  0  0
    3.3570   -6.3748   28.2430 O   0  0  0  0  0  0  0  0  0  0  0  0
    9.0993   -1.8939   22.9213 S   0  0  0  0  0  0  0  0  0  0  0  0
  1  2  2  0
  1  3  1  0
  2  4  1  0
  3  5  2  0
  4  6  2  0
  5  6  1  0
  6 23  1  0
  7 16  1  0
  7 17  1  0
  7 19  2  0
  8 10  1  0
  8 16  1  0
  9 11  1  0
  9 16  1  0
 10 18  1  0
 11 18  1  0
 12 14  1  0
 12 17  1  0
 13 15  1  0
 13 17  1  0
 14 22  1  0
 15 22  1  0
 18 23  1  0
 20 23  2  0
 21 23  2  0
M  END
