GIA-UNK-995df016-15
     RDKit          3D

 20 21  0  0  0  0  0  0  0  0999 V2000
   11.7779    0.1783   24.7400 C   0  0  0  0  0  0  0  0  0  0  0  0
   10.5149   -0.3224   24.4243 C   0  0  0  0  0  0  0  0  0  0  0  0
   12.9196   -0.4278   24.2156 C   0  0  0  0  0  0  0  0  0  0  0  0
   11.5351   -2.0356   23.0599 C   0  0  0  0  0  0  0  0  0  0  0  0
   10.3935   -1.4293   23.5843 C   0  0  0  0  0  0  0  0  0  0  0  0
   12.7982   -1.5348   23.3756 C   0  0  0  0  0  0  0  0  0  0  0  0
    9.0734   -1.9535   23.2541 C   0  0  0  0  0  0  0  0  0  0  0  0
    6.9344   -5.4160   26.3395 C   0  0  0  0  0  0  0  0  0  0  0  0
    6.3109   -3.3796   25.0443 C   0  0  0  0  0  0  0  0  0  0  0  0
    8.3895   -3.4108   26.5134 C   0  0  0  0  0  0  0  0  0  0  0  0
    7.2211   -3.5082   23.8225 C   0  0  0  0  0  0  0  0  0  0  0  0
    9.2290   -3.5526   25.2447 C   0  0  0  0  0  0  0  0  0  0  0  0
    6.9515   -3.8962   26.3319 C   0  0  0  0  0  0  0  0  0  0  0  0
    5.2329   -7.0432   27.7462 C   0  0  0  0  0  0  0  0  0  0  0  0
    8.5417   -2.9442   24.0996 N   0  0  0  0  0  0  0  0  0  0  0  0
    8.4674   -1.5280   22.2691 O   0  0  0  0  0  0  0  0  0  0  0  0
    7.9498   -6.0953   26.4318 O   0  0  0  0  0  0  0  0  0  0  0  0
   13.8942   -2.1169   22.8719 F   0  0  0  0  0  0  0  0  0  0  0  0
    4.9594   -6.1987   28.7764 F   0  0  0  0  0  0  0  0  0  0  0  0
    5.3180   -6.1076   26.2057 S   0  0  0  0  0  0  0  0  0  0  0  0
  1  2  2  0
  1  3  1  0
  2  5  1  0
  3  6  2  0
  4  5  2  0
  4  6  1  0
  5  7  1  0
  6 18  1  0
  7 15  1  0
  7 16  2  0
  8 13  1  0
  8 17  2  0
  8 20  1  0
  9 11  1  0
  9 13  1  0
 10 12  1  0
 10 13  1  0
 11 15  1  0
 12 15  1  0
 14 19  1  0
 14 20  1  0
M  END
