GIA-UNK-5ec6c2b8-2
     RDKit          3D

 17 18  0  0  0  0  0  0  0  0999 V2000
   10.4028   -3.9990   24.9191 C   0  0  0  0  0  0  0  0  0  0  0  0
    6.2793   -4.4165   21.3401 C   0  0  0  0  0  0  0  0  0  0  0  0
   13.2492   -1.0246   26.2255 C   0  0  0  0  0  0  0  0  0  0  0  0
   11.9939   -0.5480   25.5009 C   0  0  0  0  0  0  0  0  0  0  0  0
   13.7882   -2.3182   25.6222 C   0  0  0  0  0  0  0  0  0  0  0  0
   10.9217   -1.6335   25.4585 C   0  0  0  0  0  0  0  0  0  0  0  0
   12.7202   -3.4078   25.5799 C   0  0  0  0  0  0  0  0  0  0  0  0
    8.2661   -3.0789   21.9303 C   0  0  0  0  0  0  0  0  0  0  0  0
    8.1926   -5.5882   22.4105 C   0  0  0  0  0  0  0  0  0  0  0  0
    9.5951   -3.1696   22.6721 C   0  0  0  0  0  0  0  0  0  0  0  0
    8.4747   -5.0851   23.8231 C   0  0  0  0  0  0  0  0  0  0  0  0
   11.4575   -2.9344   24.8565 C   0  0  0  0  0  0  0  0  0  0  0  0
    7.7731   -4.4538   21.4675 C   0  0  0  0  0  0  0  0  0  0  0  0
    9.5262   -4.0648   23.8343 N   0  0  0  0  0  0  0  0  0  0  0  0
   10.3506   -4.7475   25.8979 O   0  0  0  0  0  0  0  0  0  0  0  0
    5.6831   -4.5868   20.2847 O   0  0  0  0  0  0  0  0  0  0  0  0
    5.2468   -4.1075   22.7854 S   0  0  0  0  0  0  0  0  0  0  0  0
  1 12  1  0
  1 14  1  0
  1 15  2  0
  2 13  1  0
  2 16  2  0
  2 17  1  0
  3  4  1  0
  3  5  1  0
  4  6  1  0
  5  7  1  0
  6 12  1  0
  7 12  1  0
  8 10  1  0
  8 13  1  0
  9 11  1  0
  9 13  1  0
 10 14  1  0
 11 14  1  0
M  CHG  1  17  -1
M  END
