GIA-UNK-595fac82-5
     RDKit          3D

 18 19  0  0  0  0  0  0  0  0999 V2000
   14.3538   -0.3575   23.4739 C   0  0  0  0  0  0  0  0  0  0  0  0
   14.3667   -1.7151   23.1540 C   0  0  0  0  0  0  0  0  0  0  0  0
   13.1423    0.3297   23.5495 C   0  0  0  0  0  0  0  0  0  0  0  0
   13.1682   -2.3855   22.9096 C   0  0  0  0  0  0  0  0  0  0  0  0
   11.9437   -0.3406   23.3051 C   0  0  0  0  0  0  0  0  0  0  0  0
   11.9567   -1.6983   22.9852 C   0  0  0  0  0  0  0  0  0  0  0  0
    6.4713    0.6611   18.5641 C   0  0  0  0  0  0  0  0  0  0  0  0
    7.2267   -1.2916   21.4951 C   0  0  0  0  0  0  0  0  0  0  0  0
    8.9995    0.1115   20.3918 C   0  0  0  0  0  0  0  0  0  0  0  0
    8.2951   -2.2655   21.9672 C   0  0  0  0  0  0  0  0  0  0  0  0
   10.0638   -0.8654   20.8666 C   0  0  0  0  0  0  0  0  0  0  0  0
    7.6444   -0.5697   20.2175 C   0  0  0  0  0  0  0  0  0  0  0  0
    4.7791    2.2322   19.4963 C   0  0  0  0  0  0  0  0  0  0  0  0
   10.6671   -2.4187   22.7222 C   0  0  0  0  0  0  0  0  0  0  0  0
    5.4899    1.6158   18.3999 N   0  0  0  0  0  0  0  0  0  0  0  0
    9.6021   -1.5283   22.1433 N   0  0  0  0  0  0  0  0  0  0  0  0
    7.0972    0.1145   17.6619 O   0  0  0  0  0  0  0  0  0  0  0  0
    6.6553    0.4019   19.8973 O   0  0  0  0  0  0  0  0  0  0  0  0
  1  2  2  0
  1  3  1  0
  2  4  1  0
  3  5  2  0
  4  6  2  0
  5  6  1  0
  6 14  1  0
  7 15  1  0
  7 17  2  0
  7 18  1  0
  8 10  1  0
  8 12  1  0
  9 11  1  0
  9 12  1  0
 10 16  1  0
 11 16  1  0
 12 18  1  0
 13 15  1  0
 14 16  1  0
M  CHG  1  16   1
M  END
