GIA-UNK-995df016-3
     RDKit          3D

 16 17  0  0  0  0  0  0  0  0999 V2000
    6.7636   -4.7490   22.2493 C   0  0  0  0  0  0  0  0  0  0  0  0
   11.0729   -2.3778   24.6244 C   0  0  0  0  0  0  0  0  0  0  0  0
    5.6509   -5.4055   24.4791 C   0  0  0  0  0  0  0  0  0  0  0  0
    4.6679   -5.7182   23.3915 C   0  0  0  0  0  0  0  0  0  0  0  0
    9.5901   -4.3438   24.4089 C   0  0  0  0  0  0  0  0  0  0  0  0
    9.6658   -2.5977   22.5918 C   0  0  0  0  0  0  0  0  0  0  0  0
    8.8651   -5.2778   23.4435 C   0  0  0  0  0  0  0  0  0  0  0  0
    8.9388   -3.5680   21.6630 C   0  0  0  0  0  0  0  0  0  0  0  0
    6.1328   -5.8021   23.1247 C   0  0  0  0  0  0  0  0  0  0  0  0
   10.4745   -3.3482   23.6534 C   0  0  0  0  0  0  0  0  0  0  0  0
   13.4107   -1.3255   25.5985 C   0  0  0  0  0  0  0  0  0  0  0  0
    8.1257   -4.5158   22.4351 N   0  0  0  0  0  0  0  0  0  0  0  0
    6.0655   -4.1540   21.4243 O   0  0  0  0  0  0  0  0  0  0  0  0
   10.5439   -1.3120   24.9160 O   0  0  0  0  0  0  0  0  0  0  0  0
   13.5610   -0.6700   24.4166 F   0  0  0  0  0  0  0  0  0  0  0  0
   12.6068   -2.9146   25.3088 S   0  0  0  0  0  0  0  0  0  0  0  0
  1  9  1  0
  1 12  1  0
  1 13  2  0
  2 10  1  0
  2 14  2  0
  2 16  1  0
  3  4  1  0
  3  9  1  0
  4  9  1  0
  5  7  1  0
  5 10  1  0
  6  8  1  0
  6 10  1  0
  7 12  1  0
  8 12  1  0
 11 15  1  0
 11 16  1  0
M  END
