GIA-UNK-30c7cb75-2
     RDKit          3D

 20 22  0  0  0  0  0  0  0  0999 V2000
   12.0243   -2.0986   22.9321 C   0  0  0  0  0  0  0  0  0  0  0  0
   11.8667   -0.0532   24.1949 C   0  0  0  0  0  0  0  0  0  0  0  0
   13.4064   -1.9832   22.9759 C   0  0  0  0  0  0  0  0  0  0  0  0
   13.2528    0.0104   24.2069 C   0  0  0  0  0  0  0  0  0  0  0  0
   11.2501   -1.1210   23.5495 C   0  0  0  0  0  0  0  0  0  0  0  0
    7.8866   -3.5120   25.3804 C   0  0  0  0  0  0  0  0  0  0  0  0
    8.3399   -3.0286   22.9690 C   0  0  0  0  0  0  0  0  0  0  0  0
    7.6120   -1.1810   24.5816 C   0  0  0  0  0  0  0  0  0  0  0  0
    9.1284   -1.8389   22.4238 C   0  0  0  0  0  0  0  0  0  0  0  0
    9.0666   -0.6960   24.6418 C   0  0  0  0  0  0  0  0  0  0  0  0
    7.0020   -5.2980   26.8463 C   0  0  0  0  0  0  0  0  0  0  0  0
    6.8056   -5.5996   24.4125 C   0  0  0  0  0  0  0  0  0  0  0  0
    5.5739   -5.8082   26.9755 C   0  0  0  0  0  0  0  0  0  0  0  0
    5.3863   -6.1027   24.6439 C   0  0  0  0  0  0  0  0  0  0  0  0
    7.4953   -2.6605   24.1992 C   0  0  0  0  0  0  0  0  0  0  0  0
   13.9741   -0.9447   23.6043 N   0  0  0  0  0  0  0  0  0  0  0  0
    9.8615   -1.2096   23.5195 N   0  0  0  0  0  0  0  0  0  0  0  0
    7.2217   -4.7287   25.5168 N   0  0  0  0  0  0  0  0  0  0  0  0
    8.7531   -3.1059   26.1588 O   0  0  0  0  0  0  0  0  0  0  0  0
    5.2826   -6.7323   25.9237 O   0  0  0  0  0  0  0  0  0  0  0  0
  1  3  2  0
  1  5  1  0
  2  4  1  0
  2  5  2  0
  3 16  1  0
  4 16  2  0
  5 17  1  0
  6 15  1  0
  6 18  1  0
  6 19  2  0
  7  9  1  0
  7 15  1  0
  8 10  1  0
  8 15  1  0
  9 17  1  0
 10 17  1  0
 11 13  1  0
 11 18  1  0
 12 14  1  0
 12 18  1  0
 13 20  1  0
 14 20  1  0
M  CHG  1  16   1
M  END
