GIA-UNK-995df016-11
     RDKit          3D

 18 19  0  0  0  0  0  0  0  0999 V2000
   14.1255   -1.7825   22.4317 C   0  0  0  0  0  0  0  0  0  0  0  0
   12.8900   -1.0954   22.5004 C   0  0  0  0  0  0  0  0  0  0  0  0
   14.5342   -1.9644   23.7324 C   0  0  0  0  0  0  0  0  0  0  0  0
   12.6317   -0.9066   23.8382 C   0  0  0  0  0  0  0  0  0  0  0  0
   11.5183   -0.2651   24.5274 C   0  0  0  0  0  0  0  0  0  0  0  0
    8.0048    0.8370   20.5154 C   0  0  0  0  0  0  0  0  0  0  0  0
    8.8209    1.3493   22.7792 C   0  0  0  0  0  0  0  0  0  0  0  0
    9.2859   -0.8884   21.7125 C   0  0  0  0  0  0  0  0  0  0  0  0
    9.3045    0.7856   24.1142 C   0  0  0  0  0  0  0  0  0  0  0  0
    9.7498   -1.4068   23.0715 C   0  0  0  0  0  0  0  0  0  0  0  0
    8.2717    0.2407   21.8838 C   0  0  0  0  0  0  0  0  0  0  0  0
    6.5222    0.6184   18.2185 C   0  0  0  0  0  0  0  0  0  0  0  0
   10.2605   -0.3032   23.8981 N   0  0  0  0  0  0  0  0  0  0  0  0
   11.6978    0.2839   25.6160 O   0  0  0  0  0  0  0  0  0  0  0  0
    8.8797    1.3487   19.8272 O   0  0  0  0  0  0  0  0  0  0  0  0
   13.6292   -1.4335   24.5959 O   0  0  0  0  0  0  0  0  0  0  0  0
    7.2826   -0.4657   17.9092 F   0  0  0  0  0  0  0  0  0  0  0  0
    6.3199    0.7223   20.0084 S   0  0  0  0  0  0  0  0  0  0  0  0
  1  2  1  0
  1  3  2  0
  2  4  2  0
  3 16  1  0
  4  5  1  0
  4 16  1  0
  5 13  1  0
  5 14  2  0
  6 11  1  0
  6 15  2  0
  6 18  1  0
  7  9  1  0
  7 11  1  0
  8 10  1  0
  8 11  1  0
  9 13  1  0
 10 13  1  0
 12 17  1  0
 12 18  1  0
M  END
