GIA-UNK-20b63697-7
     RDKit          3D

 22 23  0  0  1  0  0  0  0  0999 V2000
   12.9639    0.8660   23.5069 C   0  0  0  0  0  0  0  0  0  0  0  0
   11.5946    1.0938   23.6439 C   0  0  0  0  0  0  0  0  0  0  0  0
   13.4224   -0.3626   23.0313 C   0  0  0  0  0  0  0  0  0  0  0  0
   10.6838    0.0931   23.3054 C   0  0  0  0  0  0  0  0  0  0  0  0
   12.5116   -1.3633   22.6928 C   0  0  0  0  0  0  0  0  0  0  0  0
   11.1422   -1.1355   22.8299 C   0  0  0  0  0  0  0  0  0  0  0  0
    6.1104   -1.2377   18.8034 C   0  0  0  0  0  0  0  0  0  0  0  0
    6.5843   -2.0011   21.1085 C   0  0  0  0  0  0  0  0  0  0  0  0
    7.8861   -0.1033   20.2274 C   0  0  0  0  0  0  0  0  0  0  0  0
    7.8595   -2.6820   21.5836 C   0  0  0  0  0  0  0  0  0  0  0  0
    9.1818   -0.7551   20.6912 C   0  0  0  0  0  0  0  0  0  0  0  0
    5.9080    0.0197   17.9961 C   0  0  0  0  0  0  0  0  0  0  0  0
   11.0101   -3.9505   24.1914 C   0  0  0  0  0  0  0  0  0  0  0  0
    9.1242   -2.3740   24.7858 C   0  0  0  0  0  0  0  0  0  0  0  0
   10.1519   -2.2247   22.4617 C   0  0  0  0  0  0  0  0  0  0  0  0
    9.7936   -3.1726   23.6454 C   0  0  0  0  0  0  0  0  0  0  0  0
    6.8524   -1.1134   19.9770 N   0  0  0  0  0  0  0  0  0  0  0  0
    8.8959   -1.6253   21.8947 N   0  0  0  0  0  0  0  0  0  0  0  0
    5.6252   -2.2978   18.4000 O   0  0  0  0  0  0  0  0  0  0  0  0
   10.6069   -4.8716   25.1949 O   0  0  0  0  0  0  0  0  0  0  0  0
    8.0000   -1.6442   24.3077 O   0  0  0  0  0  0  0  0  0  0  0  0
    5.0291    1.1438   19.0266 Cl  0  0  0  0  0  0  0  0  0  0  0  0
  1  2  2  0
  1  3  1  0
  2  4  1  0
  3  5  2  0
  4  6  2  0
  5  6  1  0
  6 15  1  0
  7 12  1  0
  7 17  1  0
  7 19  2  0
  8 10  1  0
  8 17  1  0
  9 11  1  0
  9 17  1  0
 10 18  1  0
 11 18  1  0
 12 22  1  0
 13 16  1  0
 13 20  1  0
 14 16  1  0
 14 21  1  0
 15 16  1  0
 15 18  1  0
M  CHG  1  18   1
M  END
