GIA-UNK-20b63697-8
     RDKit          3D

 27 29  0  0  1  0  0  0  0  0999 V2000
   11.5314   -0.6375   25.6863 C   0  0  0  0  0  0  0  0  0  0  0  0
   10.2101   -0.2562   25.4531 C   0  0  0  0  0  0  0  0  0  0  0  0
   12.0165   -1.8325   25.1550 C   0  0  0  0  0  0  0  0  0  0  0  0
    9.3739   -1.0700   24.6889 C   0  0  0  0  0  0  0  0  0  0  0  0
   11.1803   -2.6463   24.3908 C   0  0  0  0  0  0  0  0  0  0  0  0
    9.8589   -2.2651   24.1577 C   0  0  0  0  0  0  0  0  0  0  0  0
    7.6718   -5.6251   28.0971 C   0  0  0  0  0  0  0  0  0  0  0  0
    6.2164   -1.2810   18.8894 C   0  0  0  0  0  0  0  0  0  0  0  0
    7.2907   -3.4747   25.1976 C   0  0  0  0  0  0  0  0  0  0  0  0
    9.1754   -5.1183   24.8877 C   0  0  0  0  0  0  0  0  0  0  0  0
    6.5865   -4.4892   26.0971 C   0  0  0  0  0  0  0  0  0  0  0  0
    8.4322   -6.0995   25.7912 C   0  0  0  0  0  0  0  0  0  0  0  0
    5.9567   -2.4142   21.0733 C   0  0  0  0  0  0  0  0  0  0  0  0
    7.5374   -0.5292   20.9284 C   0  0  0  0  0  0  0  0  0  0  0  0
    7.0057   -3.2671   21.7717 C   0  0  0  0  0  0  0  0  0  0  0  0
    8.6104   -1.3536   21.6268 C   0  0  0  0  0  0  0  0  0  0  0  0
    8.1986   -4.1720   24.1732 C   0  0  0  0  0  0  0  0  0  0  0  0
    6.7093   -4.8852   28.9914 C   0  0  0  0  0  0  0  0  0  0  0  0
    6.3131    0.0945   18.2791 C   0  0  0  0  0  0  0  0  0  0  0  0
    8.9534   -3.1474   23.3298 C   0  0  0  0  0  0  0  0  0  0  0  0
    7.5595   -5.3892   26.7275 N   0  0  0  0  0  0  0  0  0  0  0  0
    6.5832   -1.3966   20.2295 N   0  0  0  0  0  0  0  0  0  0  0  0
    7.9465   -2.3630   22.5365 N   0  0  0  0  0  0  0  0  0  0  0  0
    8.4995   -6.3876   28.6027 O   0  0  0  0  0  0  0  0  0  0  0  0
    5.8288   -2.2233   18.1939 O   0  0  0  0  0  0  0  0  0  0  0  0
    6.9606   -5.2288   30.3384 O   0  0  0  0  0  0  0  0  0  0  0  0
    5.2161    1.1275   19.1887 Cl  0  0  0  0  0  0  0  0  0  0  0  0
  1  2  2  0
  1  3  1  0
  2  4  1  0
  3  5  2  0
  4  6  2  0
  5  6  1  0
  6 20  1  0
  7 18  1  0
  7 21  1  0
  7 24  2  0
  8 19  1  0
  8 22  1  0
  8 25  2  0
  9 11  1  0
  9 17  1  0
 10 12  1  0
 10 17  1  0
 11 21  1  0
 12 21  1  0
 13 15  1  0
 13 22  1  0
 14 16  1  0
 14 22  1  0
 15 23  1  0
 16 23  1  0
 17 20  1  0
 18 26  1  0
 19 27  1  0
 20 23  1  0
M  CHG  1  23   1
M  END
