GIA-UNK-995df016-12
     RDKit          3D

 18 19  0  0  0  0  0  0  0  0999 V2000
   13.5980    0.4486   22.6849 C   0  0  0  0  0  0  0  0  0  0  0  0
   12.5076   -0.2513   22.0921 C   0  0  0  0  0  0  0  0  0  0  0  0
   13.1751    1.5146   23.4481 C   0  0  0  0  0  0  0  0  0  0  0  0
   11.2927    0.3065   22.4250 C   0  0  0  0  0  0  0  0  0  0  0  0
    9.9542   -0.1120   22.0253 C   0  0  0  0  0  0  0  0  0  0  0  0
    7.3620   -3.3333   25.0232 C   0  0  0  0  0  0  0  0  0  0  0  0
    6.9853   -1.2743   23.6699 C   0  0  0  0  0  0  0  0  0  0  0  0
    8.9674   -1.4529   25.2569 C   0  0  0  0  0  0  0  0  0  0  0  0
    7.9492   -1.4982   22.5044 C   0  0  0  0  0  0  0  0  0  0  0  0
    9.8626   -1.6849   24.0406 C   0  0  0  0  0  0  0  0  0  0  0  0
    7.5065   -1.8205   24.9984 C   0  0  0  0  0  0  0  0  0  0  0  0
    9.2026   -5.1552   25.9258 C   0  0  0  0  0  0  0  0  0  0  0  0
    9.2945   -1.0409   22.8505 N   0  0  0  0  0  0  0  0  0  0  0  0
    9.4425    0.3457   21.0020 O   0  0  0  0  0  0  0  0  0  0  0  0
    6.9187   -3.9779   24.0804 O   0  0  0  0  0  0  0  0  0  0  0  0
   10.1499   -4.4130   25.2928 F   0  0  0  0  0  0  0  0  0  0  0  0
   11.4696    1.6683   23.4479 S   0  0  0  0  0  0  0  0  0  0  0  0
    7.8940   -4.0717   26.5335 S   0  0  0  0  0  0  0  0  0  0  0  0
  1  2  1  0
  1  3  2  0
  2  4  2  0
  3 17  1  0
  4  5  1  0
  4 17  1  0
  5 13  1  0
  5 14  2  0
  6 11  1  0
  6 15  2  0
  6 18  1  0
  7  9  1  0
  7 11  1  0
  8 10  1  0
  8 11  1  0
  9 13  1  0
 10 13  1  0
 12 16  1  0
 12 18  1  0
M  END
