GIA-UNK-eaadd1d4-1
     RDKit          3D

 22 24  0  0  0  0  0  0  0  0999 V2000
    9.7244    7.3841   25.1155 C   0  0  0  0  0  0  0  0  0  0  0  0
    9.3157    6.4153   24.1990 C   0  0  0  0  0  0  0  0  0  0  0  0
   11.0353    7.3842   25.5922 C   0  0  0  0  0  0  0  0  0  0  0  0
   10.2178    5.4465   23.7594 C   0  0  0  0  0  0  0  0  0  0  0  0
   11.9374    6.4155   25.1526 C   0  0  0  0  0  0  0  0  0  0  0  0
   11.5287    5.4465   24.2362 C   0  0  0  0  0  0  0  0  0  0  0  0
   12.4781    4.4268   23.7734 C   0  0  0  0  0  0  0  0  0  0  0  0
   11.3947   -0.9275   22.9827 C   0  0  0  0  0  0  0  0  0  0  0  0
    8.9451   -1.1857   22.9404 C   0  0  0  0  0  0  0  0  0  0  0  0
   10.4143   -3.0707   23.6997 C   0  0  0  0  0  0  0  0  0  0  0  0
   10.7746    2.5391   23.9750 C   0  0  0  0  0  0  0  0  0  0  0  0
   12.6183    2.4127   22.3443 C   0  0  0  0  0  0  0  0  0  0  0  0
   11.0943    1.1258   24.4560 C   0  0  0  0  0  0  0  0  0  0  0  0
   12.9413    0.9981   22.8163 C   0  0  0  0  0  0  0  0  0  0  0  0
    7.7609   -1.9892   23.4644 C   0  0  0  0  0  0  0  0  0  0  0  0
    9.1496   -3.7704   24.1829 C   0  0  0  0  0  0  0  0  0  0  0  0
   10.2151   -1.5601   23.6946 C   0  0  0  0  0  0  0  0  0  0  0  0
   11.9754    3.1749   23.4154 N   0  0  0  0  0  0  0  0  0  0  0  0
   11.7579    0.3538   23.3948 N   0  0  0  0  0  0  0  0  0  0  0  0
   13.6624    4.7582   23.7464 O   0  0  0  0  0  0  0  0  0  0  0  0
   11.9677   -1.5557   22.0888 O   0  0  0  0  0  0  0  0  0  0  0  0
    8.0262   -3.3901   23.3878 O   0  0  0  0  0  0  0  0  0  0  0  0
  1  2  2  0
  1  3  1  0
  2  4  1  0
  3  5  2  0
  4  6  2  0
  5  6  1  0
  6  7  1  0
  7 18  1  0
  7 20  2  0
  8 17  1  0
  8 19  1  0
  8 21  2  0
  9 15  1  0
  9 17  1  0
 10 16  1  0
 10 17  1  0
 11 13  1  0
 11 18  1  0
 12 14  1  0
 12 18  1  0
 13 19  1  0
 14 19  1  0
 15 22  1  0
 16 22  1  0
M  END
