GIA-UNK-3f36037a-1
     RDKit          3D

 18 19  0  0  0  0  0  0  0  0999 V2000
    9.3592   -0.7512   23.1439 C   0  0  0  0  0  0  0  0  0  0  0  0
    8.5040   -0.5508   20.8575 C   0  0  0  0  0  0  0  0  0  0  0  0
    5.1600    1.6346   18.2041 C   0  0  0  0  0  0  0  0  0  0  0  0
    4.8301    1.6980   19.6928 C   0  0  0  0  0  0  0  0  0  0  0  0
    5.3999    0.2005   17.7410 C   0  0  0  0  0  0  0  0  0  0  0  0
    5.8998    1.0074   20.5370 C   0  0  0  0  0  0  0  0  0  0  0  0
    6.4708   -0.4915   18.5826 C   0  0  0  0  0  0  0  0  0  0  0  0
   10.3152    0.8578   24.7620 C   0  0  0  0  0  0  0  0  0  0  0  0
   11.2429    0.8233   22.4836 C   0  0  0  0  0  0  0  0  0  0  0  0
   11.7403    0.9510   25.2881 C   0  0  0  0  0  0  0  0  0  0  0  0
   12.6302    0.9234   23.1051 C   0  0  0  0  0  0  0  0  0  0  0  0
    6.1294   -0.4361   20.0757 C   0  0  0  0  0  0  0  0  0  0  0  0
    9.4188   -1.3446   21.7591 C   0  0  0  0  0  0  0  0  0  0  0  0
   10.2999    0.2330   23.4394 N   0  0  0  0  0  0  0  0  0  0  0  0
    7.2082   -1.0408   20.8548 N   0  0  0  0  0  0  0  0  0  0  0  0
    8.5055   -1.1533   23.9384 O   0  0  0  0  0  0  0  0  0  0  0  0
    8.8929    0.4271   20.2211 O   0  0  0  0  0  0  0  0  0  0  0  0
   12.5712    1.6332   24.3452 O   0  0  0  0  0  0  0  0  0  0  0  0
  1 13  1  0
  1 14  1  0
  1 16  2  0
  2 13  1  0
  2 15  1  0
  2 17  2  0
  3  4  1  0
  3  5  1  0
  4  6  1  0
  5  7  1  0
  6 12  1  0
  7 12  1  0
  8 10  1  0
  8 14  1  0
  9 11  1  0
  9 14  1  0
 10 18  1  0
 11 18  1  0
 12 15  1  0
M  END
