GIA-UNK-5ec6c2b8-1
     RDKit          3D

 17 18  0  0  0  0  0  0  0  0999 V2000
   12.9062   -0.0336   25.1840 C   0  0  0  0  0  0  0  0  0  0  0  0
   11.6194   -0.1907   25.6987 C   0  0  0  0  0  0  0  0  0  0  0  0
   13.5641   -1.1198   24.6069 C   0  0  0  0  0  0  0  0  0  0  0  0
   10.9904   -1.4342   25.6365 C   0  0  0  0  0  0  0  0  0  0  0  0
   12.9351   -2.3633   24.5447 C   0  0  0  0  0  0  0  0  0  0  0  0
   11.6483   -2.5205   25.0595 C   0  0  0  0  0  0  0  0  0  0  0  0
   10.9907   -3.8204   24.9945 C   0  0  0  0  0  0  0  0  0  0  0  0
    6.3725   -3.9554   22.1118 C   0  0  0  0  0  0  0  0  0  0  0  0
    8.0459   -5.1781   23.4376 C   0  0  0  0  0  0  0  0  0  0  0  0
    8.6088   -2.9633   22.3701 C   0  0  0  0  0  0  0  0  0  0  0  0
    9.5307   -5.3854   23.7318 C   0  0  0  0  0  0  0  0  0  0  0  0
   10.0815   -3.2225   22.6779 C   0  0  0  0  0  0  0  0  0  0  0  0
    7.8499   -4.2801   22.2180 C   0  0  0  0  0  0  0  0  0  0  0  0
   10.2173   -4.0969   23.8523 N   0  0  0  0  0  0  0  0  0  0  0  0
   11.1209   -4.6267   25.9173 O   0  0  0  0  0  0  0  0  0  0  0  0
    5.6813   -4.2443   21.1437 O   0  0  0  0  0  0  0  0  0  0  0  0
    5.5275   -3.0961   23.4528 S   0  0  0  0  0  0  0  0  0  0  0  0
  1  2  2  0
  1  3  1  0
  2  4  1  0
  3  5  2  0
  4  6  2  0
  5  6  1  0
  6  7  1  0
  7 14  1  0
  7 15  2  0
  8 13  1  0
  8 16  2  0
  8 17  1  0
  9 11  1  0
  9 13  1  0
 10 12  1  0
 10 13  1  0
 11 14  1  0
 12 14  1  0
M  CHG  1  17  -1
M  END
