GIA-UNK-995df016-16
     RDKit          3D

 20 21  0  0  0  0  0  0  0  0999 V2000
   11.6419   -1.0806   23.0889 C   0  0  0  0  0  0  0  0  0  0  0  0
   13.7966   -1.6405   24.0274 C   0  0  0  0  0  0  0  0  0  0  0  0
   11.1243   -2.2883   23.5568 C   0  0  0  0  0  0  0  0  0  0  0  0
   13.2790   -2.8483   24.4953 C   0  0  0  0  0  0  0  0  0  0  0  0
   12.9781   -0.7567   23.3241 C   0  0  0  0  0  0  0  0  0  0  0  0
   11.9428   -3.1722   24.2600 C   0  0  0  0  0  0  0  0  0  0  0  0
   13.5190    0.5061   22.8350 C   0  0  0  0  0  0  0  0  0  0  0  0
   11.1478    4.6717   24.5982 C   0  0  0  0  0  0  0  0  0  0  0  0
   10.8654    2.1955   24.5597 C   0  0  0  0  0  0  0  0  0  0  0  0
   11.4621    3.4777   22.4433 C   0  0  0  0  0  0  0  0  0  0  0  0
   12.3180    1.7244   24.6362 C   0  0  0  0  0  0  0  0  0  0  0  0
   12.8970    2.9761   22.5980 C   0  0  0  0  0  0  0  0  0  0  0  0
   10.6903    3.4874   23.7626 C   0  0  0  0  0  0  0  0  0  0  0  0
    9.4257    6.3256   23.2489 C   0  0  0  0  0  0  0  0  0  0  0  0
   12.9215    1.6900   23.3045 N   0  0  0  0  0  0  0  0  0  0  0  0
   14.4635    0.5095   22.0435 O   0  0  0  0  0  0  0  0  0  0  0  0
   12.2973    4.8007   25.0017 O   0  0  0  0  0  0  0  0  0  0  0  0
   11.4457   -4.3319   24.7095 F   0  0  0  0  0  0  0  0  0  0  0  0
    8.6286    5.3721   22.6970 F   0  0  0  0  0  0  0  0  0  0  0  0
    9.8705    5.8414   24.9292 S   0  0  0  0  0  0  0  0  0  0  0  0
  1  3  2  0
  1  5  1  0
  2  4  1  0
  2  5  2  0
  3  6  1  0
  4  6  2  0
  5  7  1  0
  6 18  1  0
  7 15  1  0
  7 16  2  0
  8 13  1  0
  8 17  2  0
  8 20  1  0
  9 11  1  0
  9 13  1  0
 10 12  1  0
 10 13  1  0
 11 15  1  0
 12 15  1  0
 14 19  1  0
 14 20  1  0
M  END
