GIA-UNK-eaadd1d4-2
     RDKit          3D

 23 25  0  0  0  0  0  0  0  0999 V2000
   13.6842   -1.0314   24.1310 C   0  0  0  0  0  0  0  0  0  0  0  0
   13.4352   -1.8015   22.9949 C   0  0  0  0  0  0  0  0  0  0  0  0
   12.8155    0.0041   24.4758 C   0  0  0  0  0  0  0  0  0  0  0  0
   12.3177   -1.5359   22.2035 C   0  0  0  0  0  0  0  0  0  0  0  0
   11.6980    0.2697   23.6844 C   0  0  0  0  0  0  0  0  0  0  0  0
   11.4491   -0.5003   22.5483 C   0  0  0  0  0  0  0  0  0  0  0  0
    8.3399   -5.3279   24.6224 C   0  0  0  0  0  0  0  0  0  0  0  0
    7.9751   -3.4610   26.3354 C   0  0  0  0  0  0  0  0  0  0  0  0
    8.6217   -0.8896   23.7390 C   0  0  0  0  0  0  0  0  0  0  0  0
    9.0582   -2.6398   22.0473 C   0  0  0  0  0  0  0  0  0  0  0  0
    7.3678   -1.6216   24.1917 C   0  0  0  0  0  0  0  0  0  0  0  0
    7.8086   -3.3898   22.4821 C   0  0  0  0  0  0  0  0  0  0  0  0
    6.9901   -5.9809   24.8860 C   0  0  0  0  0  0  0  0  0  0  0  0
    6.5946   -3.9573   26.7428 C   0  0  0  0  0  0  0  0  0  0  0  0
    8.3825   -3.8228   24.9039 C   0  0  0  0  0  0  0  0  0  0  0  0
    8.8839   -1.1806   22.3002 N   0  0  0  0  0  0  0  0  0  0  0  0
    7.4907   -3.1031   23.9296 N   0  0  0  0  0  0  0  0  0  0  0  0
    7.4021   -6.3520   27.4514 O   0  0  0  0  0  0  0  0  0  0  0  0
    5.0377   -6.0577   26.6270 O   0  0  0  0  0  0  0  0  0  0  0  0
    9.6600    1.2176   21.7602 O   0  0  0  0  0  0  0  0  0  0  0  0
   10.3047   -0.6643   20.2142 O   0  0  0  0  0  0  0  0  0  0  0  0
    6.4467   -5.7218   26.5611 S   0  0  0  0  0  0  0  0  0  0  0  0
   10.0369   -0.1625   21.5446 S   0  0  0  0  0  0  0  0  0  0  0  0
  1  2  2  0
  1  3  1  0
  2  4  1  0
  3  5  2  0
  4  6  2  0
  5  6  1  0
  6 23  1  0
  7 13  1  0
  7 15  1  0
  8 14  1  0
  8 15  1  0
  9 11  1  0
  9 16  1  0
 10 12  1  0
 10 16  1  0
 11 17  1  0
 12 17  1  0
 13 22  1  0
 14 22  1  0
 15 17  1  0
 16 23  1  0
 18 22  2  0
 19 22  2  0
 20 23  2  0
 21 23  2  0
M  CHG  1  17   1
M  END
