GIA-UNK-a79af1bc-1
     RDKit          3D

 19 20  0  0  0  0  0  0  0  0999 V2000
   13.7004   -0.6337   25.3353 C   0  0  0  0  0  0  0  0  0  0  0  0
   13.8503   -1.9341   25.7721 C   0  0  0  0  0  0  0  0  0  0  0  0
   12.5542   -0.3753   24.6116 C   0  0  0  0  0  0  0  0  0  0  0  0
   11.8803   -2.5370   24.8114 C   0  0  0  0  0  0  0  0  0  0  0  0
    6.1326   -4.1818   22.0758 C   0  0  0  0  0  0  0  0  0  0  0  0
    9.2509   -2.6705   22.9897 C   0  0  0  0  0  0  0  0  0  0  0  0
    8.7070   -4.5169   24.6164 C   0  0  0  0  0  0  0  0  0  0  0  0
    7.7551   -2.4516   22.7792 C   0  0  0  0  0  0  0  0  0  0  0  0
    7.2210   -4.2612   24.3732 C   0  0  0  0  0  0  0  0  0  0  0  0
    9.5352   -3.2495   24.3793 C   0  0  0  0  0  0  0  0  0  0  0  0
   15.0585   -2.3096   26.5626 C   0  0  0  0  0  0  0  0  0  0  0  0
   12.3047    1.0026   24.0970 C   0  0  0  0  0  0  0  0  0  0  0  0
    5.9426   -5.6774   22.0483 C   0  0  0  0  0  0  0  0  0  0  0  0
   12.9566   -2.9148   25.5273 N   0  0  0  0  0  0  0  0  0  0  0  0
   11.6196   -1.3066   24.3299 N   0  0  0  0  0  0  0  0  0  0  0  0
    7.0034   -3.6802   23.0426 N   0  0  0  0  0  0  0  0  0  0  0  0
   10.9430   -3.5170   24.5418 N   0  0  0  0  0  0  0  0  0  0  0  0
    5.5262   -3.4823   21.2603 O   0  0  0  0  0  0  0  0  0  0  0  0
    7.5210   -6.3796   21.7117 Cl  0  0  0  0  0  0  0  0  0  0  0  0
  1  2  2  0
  1  3  1  0
  2 11  1  0
  2 14  1  0
  3 12  1  0
  3 15  2  0
  4 14  2  0
  4 15  1  0
  4 17  1  0
  5 13  1  0
  5 16  1  0
  5 18  2  0
  6  8  1  0
  6 10  1  0
  7  9  1  0
  7 10  1  0
  8 16  1  0
  9 16  1  0
 10 17  1  0
 13 19  1  0
M  END
