GIA-UNK-5ec6c2b8-5
     RDKit          3D

 18 19  0  0  0  0  0  0  0  0999 V2000
   14.2958   -1.4463   24.2971 C   0  0  0  0  0  0  0  0  0  0  0  0
   13.3631   -0.4606   24.6196 C   0  0  0  0  0  0  0  0  0  0  0  0
   14.2673   -2.0487   23.0393 C   0  0  0  0  0  0  0  0  0  0  0  0
   12.4019   -0.0772   23.6843 C   0  0  0  0  0  0  0  0  0  0  0  0
   13.3061   -1.6653   22.1040 C   0  0  0  0  0  0  0  0  0  0  0  0
   12.3734   -0.6796   22.4265 C   0  0  0  0  0  0  0  0  0  0  0  0
    6.2278    1.0685   18.5527 C   0  0  0  0  0  0  0  0  0  0  0  0
   10.0809   -1.0929   21.5288 C   0  0  0  0  0  0  0  0  0  0  0  0
    6.7159   -0.8624   20.0390 C   0  0  0  0  0  0  0  0  0  0  0  0
    7.4357    1.5006   20.6948 C   0  0  0  0  0  0  0  0  0  0  0  0
    7.6340   -1.2039   21.2067 C   0  0  0  0  0  0  0  0  0  0  0  0
    8.8368    0.9011   20.6015 C   0  0  0  0  0  0  0  0  0  0  0  0
    6.3878    0.6358   19.9826 C   0  0  0  0  0  0  0  0  0  0  0  0
   11.3400   -0.2680   21.4205 C   0  0  0  0  0  0  0  0  0  0  0  0
    8.8986   -0.4697   21.1248 N   0  0  0  0  0  0  0  0  0  0  0  0
    6.8566    0.5828   17.6215 O   0  0  0  0  0  0  0  0  0  0  0  0
   10.1437   -2.2461   21.9612 O   0  0  0  0  0  0  0  0  0  0  0  0
    5.0607    2.3721   18.1181 S   0  0  0  0  0  0  0  0  0  0  0  0
  1  2  2  0
  1  3  1  0
  2  4  1  0
  3  5  2  0
  4  6  2  0
  5  6  1  0
  6 14  1  0
  7 13  1  0
  7 16  2  0
  7 18  1  0
  8 14  1  0
  8 15  1  0
  8 17  2  0
  9 11  1  0
  9 13  1  0
 10 12  1  0
 10 13  1  0
 11 15  1  0
 12 15  1  0
M  CHG  1  18  -1
M  END
