GIA-UNK-995df016-4
     RDKit          3D

 17 18  0  0  0  0  0  0  0  0999 V2000
   12.0605   -0.0342   24.0307 C   0  0  0  0  0  0  0  0  0  0  0  0
    8.2002    0.0459   20.6914 C   0  0  0  0  0  0  0  0  0  0  0  0
   14.8259   -2.1732   23.5874 C   0  0  0  0  0  0  0  0  0  0  0  0
   14.4873   -0.9655   24.4809 C   0  0  0  0  0  0  0  0  0  0  0  0
   13.3718   -2.1175   23.0830 C   0  0  0  0  0  0  0  0  0  0  0  0
   10.1164   -1.3866   21.3748 C   0  0  0  0  0  0  0  0  0  0  0  0
    8.5757   -0.3791   23.1282 C   0  0  0  0  0  0  0  0  0  0  0  0
   11.1585   -0.3332   21.7465 C   0  0  0  0  0  0  0  0  0  0  0  0
    9.6742    0.6323   23.4587 C   0  0  0  0  0  0  0  0  0  0  0  0
   13.3618   -0.6157   23.4722 C   0  0  0  0  0  0  0  0  0  0  0  0
    8.6882   -0.9441   21.7085 C   0  0  0  0  0  0  0  0  0  0  0  0
    6.4150    0.4822   18.6555 C   0  0  0  0  0  0  0  0  0  0  0  0
   10.9969    0.0878   23.1375 N   0  0  0  0  0  0  0  0  0  0  0  0
   12.0088    0.2962   25.2182 O   0  0  0  0  0  0  0  0  0  0  0  0
    8.9381    0.8480   20.1318 O   0  0  0  0  0  0  0  0  0  0  0  0
    7.1792   -0.3475   17.8961 F   0  0  0  0  0  0  0  0  0  0  0  0
    6.4682   -0.0561   20.3769 S   0  0  0  0  0  0  0  0  0  0  0  0
  1 10  1  0
  1 13  1  0
  1 14  2  0
  2 11  1  0
  2 15  2  0
  2 17  1  0
  3  4  1  0
  3  5  1  0
  4 10  1  0
  5 10  1  0
  6  8  1  0
  6 11  1  0
  7  9  1  0
  7 11  1  0
  8 13  1  0
  9 13  1  0
 12 16  1  0
 12 17  1  0
M  END
