GIA-UNK-d2defdc3-9
     RDKit          3D

 22 23  0  0  1  0  0  0  0  0999 V2000
   14.4312   -1.4549   25.4509 C   0  0  0  0  0  0  0  0  0  0  0  0
   13.8263   -1.2568   24.2098 C   0  0  0  0  0  0  0  0  0  0  0  0
   13.6619   -1.8432   26.5478 C   0  0  0  0  0  0  0  0  0  0  0  0
   12.4520   -1.4469   24.0655 C   0  0  0  0  0  0  0  0  0  0  0  0
   12.2876   -2.0332   26.4035 C   0  0  0  0  0  0  0  0  0  0  0  0
   11.6826   -1.8351   25.1624 C   0  0  0  0  0  0  0  0  0  0  0  0
   10.2353   -2.0352   25.0104 C   0  0  0  0  0  0  0  0  0  0  0  0
    7.8626   -3.0967   23.3013 C   0  0  0  0  0  0  0  0  0  0  0  0
    5.6202   -2.9029   20.8802 C   0  0  0  0  0  0  0  0  0  0  0  0
    9.6945   -5.5566   23.9398 C   0  0  0  0  0  0  0  0  0  0  0  0
    8.3668   -5.1789   24.5928 C   0  0  0  0  0  0  0  0  0  0  0  0
   10.6474   -4.4832   24.4436 C   0  0  0  0  0  0  0  0  0  0  0  0
    8.3918   -3.6547   24.5884 C   0  0  0  0  0  0  0  0  0  0  0  0
    5.0402   -4.6437   22.6397 C   0  0  0  0  0  0  0  0  0  0  0  0
    6.4101   -2.6764   23.2101 C   0  0  0  0  0  0  0  0  0  0  0  0
    6.3428   -1.5993   20.6054 C   0  0  0  0  0  0  0  0  0  0  0  0
    9.8048   -3.3077   24.6610 N   0  0  0  0  0  0  0  0  0  0  0  0
    5.6857   -3.3936   22.2048 N   0  0  0  0  0  0  0  0  0  0  0  0
    9.5105   -1.0589   25.1888 O   0  0  0  0  0  0  0  0  0  0  0  0
    8.6004   -2.9806   22.3195 O   0  0  0  0  0  0  0  0  0  0  0  0
    5.0093   -3.4986   19.9894 O   0  0  0  0  0  0  0  0  0  0  0  0
    6.1336   -1.1074   18.9129 Cl  0  0  0  0  0  0  0  0  0  0  0  0
  1  2  2  0
  1  3  1  0
  2  4  1  0
  3  5  2  0
  4  6  2  0
  5  6  1  0
  6  7  1  0
  7 17  1  0
  7 19  2  0
  8 13  1  0
  8 15  1  0
  8 20  2  0
  9 16  1  0
  9 18  1  0
  9 21  2  0
 10 11  1  0
 10 12  1  0
 11 13  1  0
 12 17  1  0
 13 17  1  0
 14 18  1  0
 15 18  1  0
 16 22  1  0
M  END
