GIA-UNK-5ec6c2b8-3
     RDKit          3D

 16 17  0  0  0  0  0  0  0  0999 V2000
   14.2824   -0.7369   24.4681 C   0  0  0  0  0  0  0  0  0  0  0  0
   14.4883   -1.6268   23.4139 C   0  0  0  0  0  0  0  0  0  0  0  0
   13.0047   -0.2368   24.7194 C   0  0  0  0  0  0  0  0  0  0  0  0
   13.4164   -2.0166   22.6109 C   0  0  0  0  0  0  0  0  0  0  0  0
   11.9329   -0.6267   23.9164 C   0  0  0  0  0  0  0  0  0  0  0  0
   12.1387   -1.5165   22.8621 C   0  0  0  0  0  0  0  0  0  0  0  0
    7.7142    0.4793   19.2136 C   0  0  0  0  0  0  0  0  0  0  0  0
    7.5184   -0.3836   21.5483 C   0  0  0  0  0  0  0  0  0  0  0  0
    9.2850    1.3293   20.9580 C   0  0  0  0  0  0  0  0  0  0  0  0
    8.5837   -1.4728   21.5193 C   0  0  0  0  0  0  0  0  0  0  0  0
   10.3318    0.2220   20.9353 C   0  0  0  0  0  0  0  0  0  0  0  0
    7.8732    0.8167   20.6695 C   0  0  0  0  0  0  0  0  0  0  0  0
   10.9854   -1.9352   21.9987 C   0  0  0  0  0  0  0  0  0  0  0  0
    9.9218   -0.8782   21.8827 N   0  0  0  0  0  0  0  0  0  0  0  0
    8.6218    0.0521   18.5122 O   0  0  0  0  0  0  0  0  0  0  0  0
    6.1223    0.6941   18.3948 S   0  0  0  0  0  0  0  0  0  0  0  0
  1  2  2  0
  1  3  1  0
  2  4  1  0
  3  5  2  0
  4  6  2  0
  5  6  1  0
  6 13  1  0
  7 12  1  0
  7 15  2  0
  7 16  1  0
  8 10  1  0
  8 12  1  0
  9 11  1  0
  9 12  1  0
 10 14  1  0
 11 14  1  0
 13 14  1  0
M  CHG  2  14   1  16  -1
M  END
