GIA-UNK-995df016-8
     RDKit          3D

 17 17  0  0  0  0  0  0  0  0999 V2000
   11.1799   -1.9495   24.2944 C   0  0  0  0  0  0  0  0  0  0  0  0
    7.0735   -4.0700   22.1264 C   0  0  0  0  0  0  0  0  0  0  0  0
    8.9913   -1.3109   23.2976 C   0  0  0  0  0  0  0  0  0  0  0  0
    9.1327   -3.2168   24.9741 C   0  0  0  0  0  0  0  0  0  0  0  0
    8.8534   -2.3528   22.1889 C   0  0  0  0  0  0  0  0  0  0  0  0
    8.9712   -4.2000   23.8139 C   0  0  0  0  0  0  0  0  0  0  0  0
    9.7014   -1.8627   24.5379 C   0  0  0  0  0  0  0  0  0  0  0  0
    6.1867   -5.0981   24.1970 C   0  0  0  0  0  0  0  0  0  0  0  0
    7.5422   -6.4658   22.5886 C   0  0  0  0  0  0  0  0  0  0  0  0
    5.2311   -5.7290   21.9645 C   0  0  0  0  0  0  0  0  0  0  0  0
   13.6202   -2.4589   25.4378 C   0  0  0  0  0  0  0  0  0  0  0  0
    6.5099   -5.3377   22.7172 C   0  0  0  0  0  0  0  0  0  0  0  0
    8.2444   -3.5790   22.7025 N   0  0  0  0  0  0  0  0  0  0  0  0
   11.7714   -1.2208   23.5069 O   0  0  0  0  0  0  0  0  0  0  0  0
    6.4882   -3.5328   21.1825 O   0  0  0  0  0  0  0  0  0  0  0  0
   13.5076   -1.2538   26.0576 F   0  0  0  0  0  0  0  0  0  0  0  0
   11.9838   -3.1952   25.2489 S   0  0  0  0  0  0  0  0  0  0  0  0
  1  7  1  0
  1 14  2  0
  1 17  1  0
  2 12  1  0
  2 13  1  0
  2 15  2  0
  3  5  1  0
  3  7  1  0
  4  6  1  0
  4  7  1  0
  5 13  1  0
  6 13  1  0
  8 12  1  0
  9 12  1  0
 10 12  1  0
 11 16  1  0
 11 17  1  0
M  END
