GIA-UNK-d2defdc3-7
     RDKit          3D

 21 22  0  0  1  0  0  0  0  0999 V2000
   13.9105   -2.0322   24.9836 C   0  0  0  0  0  0  0  0  0  0  0  0
   13.0774   -2.6865   25.8910 C   0  0  0  0  0  0  0  0  0  0  0  0
   13.3711   -1.4478   23.8376 C   0  0  0  0  0  0  0  0  0  0  0  0
   11.7049   -2.7565   25.6524 C   0  0  0  0  0  0  0  0  0  0  0  0
   11.9986   -1.5178   23.5990 C   0  0  0  0  0  0  0  0  0  0  0  0
   11.1654   -2.1722   24.5063 C   0  0  0  0  0  0  0  0  0  0  0  0
    9.7200   -2.2461   24.2551 C   0  0  0  0  0  0  0  0  0  0  0  0
    7.3683   -3.3994   22.5767 C   0  0  0  0  0  0  0  0  0  0  0  0
    6.0485   -2.0763   19.8353 C   0  0  0  0  0  0  0  0  0  0  0  0
    8.8243   -5.8389   23.8969 C   0  0  0  0  0  0  0  0  0  0  0  0
    7.5092   -5.1882   24.3196 C   0  0  0  0  0  0  0  0  0  0  0  0
    9.8637   -4.7883   24.2579 C   0  0  0  0  0  0  0  0  0  0  0  0
    7.7251   -3.7138   23.9986 C   0  0  0  0  0  0  0  0  0  0  0  0
    6.3746   -2.2945   22.2823 C   0  0  0  0  0  0  0  0  0  0  0  0
    6.4313   -1.2294   18.6485 C   0  0  0  0  0  0  0  0  0  0  0  0
    9.1610   -3.5112   24.1384 N   0  0  0  0  0  0  0  0  0  0  0  0
    6.6188   -1.6463   21.0293 N   0  0  0  0  0  0  0  0  0  0  0  0
    9.1119   -1.1832   24.1513 O   0  0  0  0  0  0  0  0  0  0  0  0
    7.8760   -4.0346   21.6492 O   0  0  0  0  0  0  0  0  0  0  0  0
    5.2898   -3.0381   19.7282 O   0  0  0  0  0  0  0  0  0  0  0  0
    5.8861    0.4257   18.9621 Cl  0  0  0  0  0  0  0  0  0  0  0  0
  1  2  2  0
  1  3  1  0
  2  4  1  0
  3  5  2  0
  4  6  2  0
  5  6  1  0
  6  7  1  0
  7 16  1  0
  7 18  2  0
  8 13  1  0
  8 14  1  0
  8 19  2  0
  9 15  1  0
  9 17  1  0
  9 20  2  0
 10 11  1  0
 10 12  1  0
 11 13  1  0
 12 16  1  0
 13 16  1  0
 14 17  1  0
 15 21  1  0
M  END
