GIA-UNK-3f36037a-2
     RDKit          3D

 18 19  0  0  0  0  0  0  0  0999 V2000
   13.6172   -0.4127   23.8379 C   0  0  0  0  0  0  0  0  0  0  0  0
   13.3444   -1.6228   23.2003 C   0  0  0  0  0  0  0  0  0  0  0  0
   12.7095    0.6427   23.7490 C   0  0  0  0  0  0  0  0  0  0  0  0
   12.1639   -1.7777   22.4736 C   0  0  0  0  0  0  0  0  0  0  0  0
   11.5289    0.4879   23.0224 C   0  0  0  0  0  0  0  0  0  0  0  0
   11.2561   -0.7223   22.3847 C   0  0  0  0  0  0  0  0  0  0  0  0
    7.2389    0.5037   19.7618 C   0  0  0  0  0  0  0  0  0  0  0  0
    9.0514    0.0609   21.4557 C   0  0  0  0  0  0  0  0  0  0  0  0
    5.3290    0.4184   21.3322 C   0  0  0  0  0  0  0  0  0  0  0  0
    4.8613    0.9386   18.9735 C   0  0  0  0  0  0  0  0  0  0  0  0
    4.3591    1.5260   21.7179 C   0  0  0  0  0  0  0  0  0  0  0  0
    3.9060    2.0219   19.4581 C   0  0  0  0  0  0  0  0  0  0  0  0
    7.9526   -0.5233   20.6039 C   0  0  0  0  0  0  0  0  0  0  0  0
    5.8747    0.6608   19.9968 N   0  0  0  0  0  0  0  0  0  0  0  0
   10.0585   -0.8797   21.6476 N   0  0  0  0  0  0  0  0  0  0  0  0
    7.8740    1.1427   18.9192 O   0  0  0  0  0  0  0  0  0  0  0  0
    9.0075    1.2086   21.8868 O   0  0  0  0  0  0  0  0  0  0  0  0
    3.3421    1.6609   20.7217 O   0  0  0  0  0  0  0  0  0  0  0  0
  1  2  2  0
  1  3  1  0
  2  4  1  0
  3  5  2  0
  4  6  2  0
  5  6  1  0
  6 15  1  0
  7 13  1  0
  7 14  1  0
  7 16  2  0
  8 13  1  0
  8 15  1  0
  8 17  2  0
  9 11  1  0
  9 14  1  0
 10 12  1  0
 10 14  1  0
 11 18  1  0
 12 18  1  0
M  END
