GIA-UNK-20b63697-2
     RDKit          3D

 23 25  0  0  1  0  0  0  0  0999 V2000
    6.4086   -6.4031   23.3408 C   0  0  0  0  0  0  0  0  0  0  0  0
    6.5576   -5.3334   24.2235 C   0  0  0  0  0  0  0  0  0  0  0  0
    7.1303   -6.4283   22.1474 C   0  0  0  0  0  0  0  0  0  0  0  0
    7.4281   -4.2888   23.9127 C   0  0  0  0  0  0  0  0  0  0  0  0
    8.0008   -5.3837   21.8366 C   0  0  0  0  0  0  0  0  0  0  0  0
    8.1498   -4.3139   22.7193 C   0  0  0  0  0  0  0  0  0  0  0  0
   13.1375   -1.5509   25.7983 C   0  0  0  0  0  0  0  0  0  0  0  0
    7.2757   -1.4322   22.4174 C   0  0  0  0  0  0  0  0  0  0  0  0
    7.8695   -2.5700   20.2618 C   0  0  0  0  0  0  0  0  0  0  0  0
   11.1573   -0.7858   24.5276 C   0  0  0  0  0  0  0  0  0  0  0  0
   11.0259   -2.9630   25.6746 C   0  0  0  0  0  0  0  0  0  0  0  0
   10.6196   -1.4053   23.2459 C   0  0  0  0  0  0  0  0  0  0  0  0
   10.4841   -3.6153   24.4098 C   0  0  0  0  0  0  0  0  0  0  0  0
    6.5220   -0.4025   21.5844 C   0  0  0  0  0  0  0  0  0  0  0  0
    7.0822   -1.4768   19.5495 C   0  0  0  0  0  0  0  0  0  0  0  0
    8.4115   -2.0612   21.6024 C   0  0  0  0  0  0  0  0  0  0  0  0
   14.0132   -2.7624   25.9961 C   0  0  0  0  0  0  0  0  0  0  0  0
    9.0930   -3.1824   22.3818 C   0  0  0  0  0  0  0  0  0  0  0  0
   11.8387   -1.7860   25.3494 N   0  0  0  0  0  0  0  0  0  0  0  0
    9.7358   -2.5805   23.5996 N   0  0  0  0  0  0  0  0  0  0  0  0
   13.5965   -0.4302   26.0336 O   0  0  0  0  0  0  0  0  0  0  0  0
    6.0294   -0.9886   20.3800 O   0  0  0  0  0  0  0  0  0  0  0  0
   14.1017   -3.5796   24.4398 Cl  0  0  0  0  0  0  0  0  0  0  0  0
  1  2  2  0
  1  3  1  0
  2  4  1  0
  3  5  2  0
  4  6  2  0
  5  6  1  0
  6 18  1  0
  7 17  1  0
  7 19  1  0
  7 21  2  0
  8 14  1  0
  8 16  1  0
  9 15  1  0
  9 16  1  0
 10 12  1  0
 10 19  1  0
 11 13  1  0
 11 19  1  0
 12 20  1  0
 13 20  1  0
 14 22  1  0
 15 22  1  0
 16 18  1  0
 17 23  1  0
 18 20  1  0
M  CHG  1  20   1
M  END
