GUZ-UNI-5a173832-2
     RDKit          3D

 19 21  0  0  0  0  0  0  0  0999 V2000
   14.2365   -2.1977   22.9592 C   0  0  0  0  0  0  0  0  0  0  0  0
    8.8067    7.5465   24.1595 C   0  0  0  0  0  0  0  0  0  0  0  0
   14.1741   -0.9161   23.5566 C   0  0  0  0  0  0  0  0  0  0  0  0
    9.5821    6.7031   23.3285 C   0  0  0  0  0  0  0  0  0  0  0  0
   14.1837   -1.9889   21.6007 C   0  0  0  0  0  0  0  0  0  0  0  0
    9.5250    7.7022   25.3222 C   0  0  0  0  0  0  0  0  0  0  0  0
   14.0877   -0.0155   22.5205 C   0  0  0  0  0  0  0  0  0  0  0  0
   10.7190    6.4037   24.0424 C   0  0  0  0  0  0  0  0  0  0  0  0
   12.9347    3.5826   22.8190 C   0  0  0  0  0  0  0  0  0  0  0  0
   12.8505    2.0919   22.7299 C   0  0  0  0  0  0  0  0  0  0  0  0
   11.6958    4.2925   23.2652 C   0  0  0  0  0  0  0  0  0  0  0  0
   13.9994    1.4090   22.6156 C   0  0  0  0  0  0  0  0  0  0  0  0
   11.8113    5.5790   23.6268 C   0  0  0  0  0  0  0  0  0  0  0  0
   11.5184    1.4047   22.7938 C   0  0  0  0  0  0  0  0  0  0  0  0
   10.3855    3.5641   23.3223 C   0  0  0  0  0  0  0  0  0  0  0  0
   10.5627    2.1120   23.7450 C   0  0  0  0  0  0  0  0  0  0  0  0
   13.9656    4.1905   22.5437 O   0  0  0  0  0  0  0  0  0  0  0  0
   14.0930   -0.6614   21.3249 O   0  0  0  0  0  0  0  0  0  0  0  0
   10.6920    7.0089   25.2588 O   0  0  0  0  0  0  0  0  0  0  0  0
  1  3  1  0
  1  5  2  0
  2  4  1  0
  2  6  2  0
  3  7  2  0
  4  8  2  0
  5 18  1  0
  6 19  1  0
  7 12  1  0
  7 18  1  0
  8 13  1  0
  8 19  1  0
  9 10  1  0
  9 11  1  0
  9 17  2  0
 10 12  2  0
 10 14  1  0
 11 13  2  0
 11 15  1  0
 14 16  1  0
 15 16  1  0
M  END
