HAR-NEW-e34cb1ae-1
     RDKit          3D

 29 31  0  0  0  0  0  0  0  0999 V2000
    6.9095   -5.9605   23.5574 C   0  0  0  0  0  0  0  0  0  0  0  0
    7.6886   -5.6091   24.4004 C   0  0  0  0  0  0  0  0  0  0  0  0
    8.5660    7.5001   23.8062 C   0  0  0  0  0  0  0  0  0  0  0  0
    9.2647    6.4691   23.1879 C   0  0  0  0  0  0  0  0  0  0  0  0
   10.6992   -1.5487   24.2324 C   0  0  0  0  0  0  0  0  0  0  0  0
   11.2956   -0.3504   23.8450 C   0  0  0  0  0  0  0  0  0  0  0  0
    7.1052   -0.2959   24.0098 C   0  0  0  0  0  0  0  0  0  0  0  0
    9.1670    8.1387   24.8789 C   0  0  0  0  0  0  0  0  0  0  0  0
   11.0385    6.8141   24.7341 C   0  0  0  0  0  0  0  0  0  0  0  0
    8.5073   -0.5387   24.0224 C   0  0  0  0  0  0  0  0  0  0  0  0
    9.1325    0.6491   23.6369 C   0  0  0  0  0  0  0  0  0  0  0  0
   10.5251    6.1133   23.6546 C   0  0  0  0  0  0  0  0  0  0  0  0
    9.3070   -1.6585   24.3257 C   0  0  0  0  0  0  0  0  0  0  0  0
   10.5229    0.7736   23.5392 C   0  0  0  0  0  0  0  0  0  0  0  0
    6.9100    1.0104   23.6245 C   0  0  0  0  0  0  0  0  0  0  0  0
    8.6266   -5.1872   25.4160 C   0  0  0  0  0  0  0  0  0  0  0  0
   12.5153    4.6402   23.4334 C   0  0  0  0  0  0  0  0  0  0  0  0
    5.6689    1.7861   23.4447 C   0  0  0  0  0  0  0  0  0  0  0  0
    9.5279   -4.0409   25.0336 C   0  0  0  0  0  0  0  0  0  0  0  0
   12.9667    3.4959   22.5314 C   0  0  0  0  0  0  0  0  0  0  0  0
   12.5647    2.1193   23.0437 C   0  0  0  0  0  0  0  0  0  0  0  0
   10.3896    7.8211   25.3605 N   0  0  0  0  0  0  0  0  0  0  0  0
    8.1385    1.5721   23.4015 N   0  0  0  0  0  0  0  0  0  0  0  0
   11.2509    5.0815   23.0539 N   0  0  0  0  0  0  0  0  0  0  0  0
    8.7408   -2.8886   24.7207 N   0  0  0  0  0  0  0  0  0  0  0  0
   11.1438    1.9741   23.1495 N   0  0  0  0  0  0  0  0  0  0  0  0
    5.1002    1.7116   22.0632 N   0  0  0  0  0  0  0  0  0  0  0  0
    8.6382   -5.7638   26.4952 O   0  0  0  0  0  0  0  0  0  0  0  0
   13.2213    5.0680   24.3402 O   0  0  0  0  0  0  0  0  0  0  0  0
  1  2  3  0
  2 16  1  0
  3  4  2  0
  3  8  1  0
  4 12  1  0
  5  6  2  0
  5 13  1  0
  6 14  1  0
  7 10  1  0
  7 15  2  0
  8 22  2  0
  9 12  2  0
  9 22  1  0
 10 11  1  0
 10 13  2  0
 11 14  2  0
 11 23  1  0
 12 24  1  0
 13 25  1  0
 14 26  1  0
 15 18  1  0
 15 23  1  0
 16 19  1  0
 16 28  2  0
 17 20  1  0
 17 24  1  0
 17 29  2  0
 18 27  1  0
 19 25  1  0
 20 21  1  0
 21 26  1  0
M  CHG  1  27   1
M  END
