HAR-NEW-e34cb1ae-3
     RDKit          3D

 31 33  0  0  1  0  0  0  0  0999 V2000
    9.1689   -4.1474   22.5076 C   0  0  0  0  0  0  0  0  0  0  0  0
    9.5818   -5.6885   26.4923 C   0  0  0  0  0  0  0  0  0  0  0  0
    8.6301   -6.0604   27.4347 C   0  0  0  0  0  0  0  0  0  0  0  0
    7.3192   -0.1531   19.0038 C   0  0  0  0  0  0  0  0  0  0  0  0
    7.2199   -4.2460   26.6927 C   0  0  0  0  0  0  0  0  0  0  0  0
    6.6908   -1.0452   18.1499 C   0  0  0  0  0  0  0  0  0  0  0  0
    5.7001   -2.1591   19.8980 C   0  0  0  0  0  0  0  0  0  0  0  0
    7.1058   -0.2996   20.3699 C   0  0  0  0  0  0  0  0  0  0  0  0
    9.3542   -4.5961   25.6364 C   0  0  0  0  0  0  0  0  0  0  0  0
    8.1651   -3.8348   25.7318 C   0  0  0  0  0  0  0  0  0  0  0  0
    6.2822   -1.3193   20.8339 C   0  0  0  0  0  0  0  0  0  0  0  0
    7.4475   -5.3409   27.5325 C   0  0  0  0  0  0  0  0  0  0  0  0
    9.8973    1.5459   22.1040 C   0  0  0  0  0  0  0  0  0  0  0  0
    9.2533    0.6990   21.2949 C   0  0  0  0  0  0  0  0  0  0  0  0
    7.7561    0.6277   21.2866 C   0  0  0  0  0  0  0  0  0  0  0  0
    5.7609   -2.7237   22.8178 C   0  0  0  0  0  0  0  0  0  0  0  0
   10.4349   -4.2324   24.6439 C   0  0  0  0  0  0  0  0  0  0  0  0
    9.0502   -2.2291   24.0784 C   0  0  0  0  0  0  0  0  0  0  0  0
    9.9124   -3.3540   23.5067 C   0  0  0  0  0  0  0  0  0  0  0  0
    5.5494   -2.5138   24.3138 C   0  0  0  0  0  0  0  0  0  0  0  0
    6.7565   -1.9149   25.0232 C   0  0  0  0  0  0  0  0  0  0  0  0
    8.5847   -4.7709   21.7227 N   0  0  0  0  0  0  0  0  0  0  0  0
    5.8839   -2.0480   18.5633 N   0  0  0  0  0  0  0  0  0  0  0  0
    7.9443   -2.7465   24.8873 N   0  0  0  0  0  0  0  0  0  0  0  0
    6.7232   -4.8822   30.0563 N   0  0  0  0  0  0  0  0  0  0  0  0
    6.0352   -1.5089   22.1960 N   0  0  0  0  0  0  0  0  0  0  0  0
    7.0868    1.3622   22.0270 O   0  0  0  0  0  0  0  0  0  0  0  0
    5.6767   -3.8322   22.3004 O   0  0  0  0  0  0  0  0  0  0  0  0
    4.9442   -5.3247   28.2439 O   0  0  0  0  0  0  0  0  0  0  0  0
    6.4166   -7.2183   29.0146 O   0  0  0  0  0  0  0  0  0  0  0  0
    6.2387   -5.8070   28.7039 S   0  0  0  0  0  0  0  0  0  0  0  0
  1 19  1  0
  1 22  3  0
  2  3  2  0
  2  9  1  0
  3 12  1  0
  4  6  2  0
  4  8  1  0
  5 10  1  0
  5 12  2  0
  6 23  1  0
  7 11  1  0
  7 23  2  0
  8 11  2  0
  8 15  1  0
  9 10  2  0
  9 17  1  0
 10 24  1  0
 11 26  1  0
 12 31  1  0
 13 14  2  0
 14 15  1  0
 15 27  2  0
 16 20  1  0
 16 26  1  0
 16 28  2  0
 17 19  1  0
 18 19  1  0
 18 24  1  0
 20 21  1  0
 21 24  1  0
 25 31  1  0
 29 31  2  0
 30 31  2  0
M  END
