HAR-NEW-e34cb1ae-2
     RDKit          3D

 27 29  0  0  0  0  0  0  0  0999 V2000
    5.8331    2.1210   25.0656 C   0  0  0  0  0  0  0  0  0  0  0  0
    7.0104    2.1488   25.3002 C   0  0  0  0  0  0  0  0  0  0  0  0
    9.1894   -0.0561   24.8776 C   0  0  0  0  0  0  0  0  0  0  0  0
   10.0433   -0.9026   24.1732 C   0  0  0  0  0  0  0  0  0  0  0  0
   12.2037    1.8616   22.6809 C   0  0  0  0  0  0  0  0  0  0  0  0
   11.2743    1.0115   23.3430 C   0  0  0  0  0  0  0  0  0  0  0  0
    9.3529    1.3314   24.8343 C   0  0  0  0  0  0  0  0  0  0  0  0
   10.4033    1.8354   24.0591 C   0  0  0  0  0  0  0  0  0  0  0  0
   11.0898   -0.3842   23.4019 C   0  0  0  0  0  0  0  0  0  0  0  0
   11.8848    3.1610   23.0016 C   0  0  0  0  0  0  0  0  0  0  0  0
    8.4428    2.1799   25.5827 C   0  0  0  0  0  0  0  0  0  0  0  0
    8.3822    7.2030   22.6216 C   0  0  0  0  0  0  0  0  0  0  0  0
    7.3686    5.0228   21.8811 C   0  0  0  0  0  0  0  0  0  0  0  0
    9.0978    6.4827   23.7537 C   0  0  0  0  0  0  0  0  0  0  0  0
    8.0866    4.3075   23.0148 C   0  0  0  0  0  0  0  0  0  0  0  0
    7.0967    6.4866   22.2187 C   0  0  0  0  0  0  0  0  0  0  0  0
   12.5295    4.4227   22.5815 C   0  0  0  0  0  0  0  0  0  0  0  0
   10.1696    4.3214   24.3862 C   0  0  0  0  0  0  0  0  0  0  0  0
   10.7977    3.1350   23.8335 N   0  0  0  0  0  0  0  0  0  0  0  0
   11.2983   -1.6275   21.0533 N   0  0  0  0  0  0  0  0  0  0  0  0
    9.3589    5.0503   23.3502 N   0  0  0  0  0  0  0  0  0  0  0  0
   13.6238    4.8752   23.4933 N   0  0  0  0  0  0  0  0  0  0  0  0
    8.8131    2.9570   26.4756 O   0  0  0  0  0  0  0  0  0  0  0  0
   13.4079   -0.8496   22.3142 O   0  0  0  0  0  0  0  0  0  0  0  0
   12.0760   -2.7880   23.2179 O   0  0  0  0  0  0  0  0  0  0  0  0
    6.5414    7.1462   21.0868 O   0  0  0  0  0  0  0  0  0  0  0  0
   12.1282   -1.5022   22.5403 S   0  0  0  0  0  0  0  0  0  0  0  0
  1  2  3  0
  2 11  1  0
  3  4  2  0
  3  7  1  0
  4  9  1  0
  5  6  1  0
  5 10  2  0
  6  8  1  0
  6  9  2  0
  7  8  2  0
  7 11  1  0
  8 19  1  0
  9 27  1  0
 10 17  1  0
 10 19  1  0
 11 23  2  0
 12 14  1  0
 12 16  1  0
 13 15  1  0
 13 16  1  0
 14 21  1  0
 15 21  1  0
 16 26  1  0
 17 22  1  0
 18 19  1  0
 18 21  1  0
 20 27  1  0
 24 27  2  0
 25 27  2  0
M  CHG  2  21   1  22   1
M  END
