HEI-REL-0c990a45-1
     RDKit          3D

 25 27  0  0  1  0  0  0  0  0999 V2000
   12.0944    5.2348   24.1626 C   0  0  0  0  0  0  0  0  0  0  0  0
   10.9993    6.0887   24.2204 C   0  0  0  0  0  0  0  0  0  0  0  0
    9.6000    4.3135   23.3710 C   0  0  0  0  0  0  0  0  0  0  0  0
   11.9509    3.9149   23.6985 C   0  0  0  0  0  0  0  0  0  0  0  0
   10.6854    3.4167   23.3053 C   0  0  0  0  0  0  0  0  0  0  0  0
    9.7524    5.6287   23.8213 C   0  0  0  0  0  0  0  0  0  0  0  0
    8.9322   -4.3330   25.2393 C   0  0  0  0  0  0  0  0  0  0  0  0
   13.1770    3.0363   23.6708 C   0  0  0  0  0  0  0  0  0  0  0  0
   12.9837    1.8517   22.7350 C   0  0  0  0  0  0  0  0  0  0  0  0
    8.8377   -1.8878   25.6048 C   0  0  0  0  0  0  0  0  0  0  0  0
    9.6228   -2.7011   23.4150 C   0  0  0  0  0  0  0  0  0  0  0  0
   10.0312   -0.9494   25.7073 C   0  0  0  0  0  0  0  0  0  0  0  0
   10.8279   -1.7729   23.4836 C   0  0  0  0  0  0  0  0  0  0  0  0
   11.6484    1.1493   22.9860 C   0  0  0  0  0  0  0  0  0  0  0  0
    9.0633   -4.5312   26.7283 C   0  0  0  0  0  0  0  0  0  0  0  0
    9.2364    1.5855   22.4545 C   0  0  0  0  0  0  0  0  0  0  0  0
   11.5907    0.4441   24.3430 C   0  0  0  0  0  0  0  0  0  0  0  0
   10.5372    2.1018   22.8621 N   0  0  0  0  0  0  0  0  0  0  0  0
    9.1470   -3.0415   24.7601 N   0  0  0  0  0  0  0  0  0  0  0  0
    9.0873    8.1217   24.4902 N   0  0  0  0  0  0  0  0  0  0  0  0
   10.4729   -0.5599   24.3142 N   0  0  0  0  0  0  0  0  0  0  0  0
    8.6449   -5.2974   24.5257 O   0  0  0  0  0  0  0  0  0  0  0  0
    7.9135    6.9366   22.5246 O   0  0  0  0  0  0  0  0  0  0  0  0
    7.4380    6.1815   24.8808 O   0  0  0  0  0  0  0  0  0  0  0  0
    8.3697    6.6937   23.8859 S   0  0  0  0  0  0  0  0  0  0  0  0
  1  2  2  0
  1  4  1  0
  2  6  1  0
  3  5  1  0
  3  6  2  0
  4  5  2  0
  4  8  1  0
  5 18  1  0
  6 25  1  0
  7 15  1  0
  7 19  1  0
  7 22  2  0
  8  9  1  0
  9 14  1  0
 10 12  1  0
 10 19  1  0
 11 13  1  0
 11 19  1  0
 12 21  1  0
 13 21  1  0
 14 17  1  0
 14 18  1  0
 16 18  1  0
 17 21  1  0
 20 25  1  0
 23 25  2  0
 24 25  2  0
M  CHG  1  21   1
M  END
