HEI-REL-0c990a45-3
     RDKit          3D

 25 27  0  0  0  0  0  0  0  0999 V2000
   13.1390    2.6810   22.0339 C   0  0  0  0  0  0  0  0  0  0  0  0
   12.2914    3.7037   22.4594 C   0  0  0  0  0  0  0  0  0  0  0  0
   11.4350    2.2729   24.2087 C   0  0  0  0  0  0  0  0  0  0  0  0
   12.2808    1.2429   23.7807 C   0  0  0  0  0  0  0  0  0  0  0  0
   13.1324    1.4406   22.6835 C   0  0  0  0  0  0  0  0  0  0  0  0
   11.4400    3.4991   23.5434 C   0  0  0  0  0  0  0  0  0  0  0  0
   12.2903   -0.0530   24.5122 C   0  0  0  0  0  0  0  0  0  0  0  0
    7.9739   -4.6138   25.2996 C   0  0  0  0  0  0  0  0  0  0  0  0
   14.0709    0.3509   22.2537 C   0  0  0  0  0  0  0  0  0  0  0  0
   10.5089   -2.3479   24.0282 C   0  0  0  0  0  0  0  0  0  0  0  0
   11.5365   -4.4374   24.9914 C   0  0  0  0  0  0  0  0  0  0  0  0
   13.4346   -1.0043   22.5139 C   0  0  0  0  0  0  0  0  0  0  0  0
    9.2655   -3.1572   23.6630 C   0  0  0  0  0  0  0  0  0  0  0  0
   10.2739   -5.2040   24.6049 C   0  0  0  0  0  0  0  0  0  0  0  0
   11.7626   -3.2351   24.0623 C   0  0  0  0  0  0  0  0  0  0  0  0
    6.8087   -3.6664   25.1642 C   0  0  0  0  0  0  0  0  0  0  0  0
   12.9849   -2.4320   24.5004 C   0  0  0  0  0  0  0  0  0  0  0  0
   12.9537   -1.1132   23.8874 N   0  0  0  0  0  0  0  0  0  0  0  0
    9.1148   -4.3113   24.5571 N   0  0  0  0  0  0  0  0  0  0  0  0
    8.9849    4.4474   23.1217 N   0  0  0  0  0  0  0  0  0  0  0  0
   11.7350   -0.1225   25.6063 O   0  0  0  0  0  0  0  0  0  0  0  0
    7.8722   -5.5915   26.0451 O   0  0  0  0  0  0  0  0  0  0  0  0
   10.0474    4.5629   25.4676 O   0  0  0  0  0  0  0  0  0  0  0  0
   10.9328    6.0522   23.6385 O   0  0  0  0  0  0  0  0  0  0  0  0
   10.3709    4.7781   24.0644 S   0  0  0  0  0  0  0  0  0  0  0  0
  1  2  2  0
  1  5  1  0
  2  6  1  0
  3  4  1  0
  3  6  2  0
  4  5  2  0
  4  7  1  0
  5  9  1  0
  6 25  1  0
  7 18  1  0
  7 21  2  0
  8 16  1  0
  8 19  1  0
  8 22  2  0
  9 12  1  0
 10 13  1  0
 10 15  1  0
 11 14  1  0
 11 15  1  0
 12 18  1  0
 13 19  1  0
 14 19  1  0
 15 17  1  0
 17 18  1  0
 20 25  1  0
 23 25  2  0
 24 25  2  0
M  END
