HEN-UNK-30ca0e4e-1
     RDKit          3D

 35 38  0  0  1  0  0  0  0  0999 V2000
   10.4674    0.3404   23.8904 C   0  0  0  0  0  0  0  0  0  0  0  0
   11.4228    1.2712   24.3912 C   0  0  0  0  0  0  0  0  0  0  0  0
    5.3260   -4.4028   26.5175 C   0  0  0  0  0  0  0  0  0  0  0  0
    6.1411   -5.8033   24.2560 C   0  0  0  0  0  0  0  0  0  0  0  0
    6.6734   -4.3713   26.1280 C   0  0  0  0  0  0  0  0  0  0  0  0
    7.0902   -5.0592   24.9732 C   0  0  0  0  0  0  0  0  0  0  0  0
    4.3964   -5.1372   25.7847 C   0  0  0  0  0  0  0  0  0  0  0  0
    4.8046   -5.8407   24.6562 C   0  0  0  0  0  0  0  0  0  0  0  0
   11.0395   -0.5835   23.0438 C   0  0  0  0  0  0  0  0  0  0  0  0
   12.6891    1.0231   23.9084 C   0  0  0  0  0  0  0  0  0  0  0  0
    6.0952   -0.8940   18.8926 C   0  0  0  0  0  0  0  0  0  0  0  0
    7.6584   -3.5585   26.9324 C   0  0  0  0  0  0  0  0  0  0  0  0
    6.8517   -2.1462   20.8878 C   0  0  0  0  0  0  0  0  0  0  0  0
    7.5113    0.2198   20.6876 C   0  0  0  0  0  0  0  0  0  0  0  0
    8.2860   -2.5402   21.2090 C   0  0  0  0  0  0  0  0  0  0  0  0
    8.9561   -0.1386   21.0079 C   0  0  0  0  0  0  0  0  0  0  0  0
    9.1137   -3.9748   26.6789 C   0  0  0  0  0  0  0  0  0  0  0  0
    9.4149   -4.1999   25.1869 C   0  0  0  0  0  0  0  0  0  0  0  0
    6.1051    0.4065   18.1295 C   0  0  0  0  0  0  0  0  0  0  0  0
    9.4921   -2.8793   24.4163 C   0  0  0  0  0  0  0  0  0  0  0  0
   10.2944   -3.0348   23.1201 C   0  0  0  0  0  0  0  0  0  0  0  0
   10.3744   -1.7279   22.3109 C   0  0  0  0  0  0  0  0  0  0  0  0
    8.4147   -5.0533   24.5596 N   0  0  0  0  0  0  0  0  0  0  0  0
    6.8093   -0.9209   20.0897 N   0  0  0  0  0  0  0  0  0  0  0  0
    4.7671   -7.3871   22.4855 N   0  0  0  0  0  0  0  0  0  0  0  0
    8.9790   -1.3747   21.8789 N   0  0  0  0  0  0  0  0  0  0  0  0
    3.1739   -5.1470   26.1740 O   0  0  0  0  0  0  0  0  0  0  0  0
    5.4733   -1.8565   18.4356 O   0  0  0  0  0  0  0  0  0  0  0  0
    3.2329   -7.9085   24.4905 O   0  0  0  0  0  0  0  0  0  0  0  0
    2.7481   -5.8930   23.0585 O   0  0  0  0  0  0  0  0  0  0  0  0
   12.7221   -0.3271   22.8557 S   0  0  0  0  0  0  0  0  0  0  0  0
    3.6993   -6.7982   23.6789 S   0  0  0  0  0  0  0  0  0  0  0  0
    5.1668    0.1382   16.6648 Cl  0  0  0  0  0  0  0  0  0  0  0  0
   14.2269    2.0474   24.3480 Br  0  0  0  0  0  0  0  0  0  0  0  0
    9.5789   -5.8053   27.8239 I   0  0  0  0  0  0  0  0  0  0  0  0
  1  2  1  0
  1  9  2  0
  2 10  2  0
  3  5  2  0
  3  7  1  0
  4  6  2  0
  4  8  1  0
  5  6  1  0
  5 12  1  0
  6 23  1  0
  7  8  2  0
  7 27  1  0
  8 32  1  0
  9 22  1  0
  9 31  1  0
 10 31  1  0
 10 34  1  0
 11 19  1  0
 11 24  1  0
 11 28  2  0
 12 17  1  0
 13 15  1  0
 13 24  1  0
 14 16  1  0
 14 24  1  0
 15 26  1  0
 16 26  1  0
 17 18  1  0
 17 35  1  0
 18 20  1  0
 18 23  1  0
 19 33  1  0
 20 21  1  0
 21 22  1  0
 22 26  1  0
 25 32  1  0
 29 32  2  0
 30 32  2  0
M  CHG  2  26   1  27  -1
M  END
