HOL-KAN-bccba850-2
     RDKit          3D

 27 30  0  0  1  0  0  0  0  0999 V2000
   12.4548   -0.2374   24.9263 C   0  0  0  0  0  0  0  0  0  0  0  0
   11.9111   -1.2415   22.6753 C   0  0  0  0  0  0  0  0  0  0  0  0
   11.1581   -0.2929   25.2455 C   0  0  0  0  0  0  0  0  0  0  0  0
   10.6098   -1.3001   23.0015 C   0  0  0  0  0  0  0  0  0  0  0  0
   12.9168   -0.6818   23.6001 C   0  0  0  0  0  0  0  0  0  0  0  0
    6.0508   -6.1765   26.3380 C   0  0  0  0  0  0  0  0  0  0  0  0
    9.6361   -1.9654   22.0627 C   0  0  0  0  0  0  0  0  0  0  0  0
    8.9765   -3.1587   22.7539 C   0  0  0  0  0  0  0  0  0  0  0  0
    8.8414   -5.1983   24.9973 C   0  0  0  0  0  0  0  0  0  0  0  0
    8.5188   -5.9477   26.2896 C   0  0  0  0  0  0  0  0  0  0  0  0
    8.1385   -2.9661   27.1037 C   0  0  0  0  0  0  0  0  0  0  0  0
    7.7767   -4.0840   24.8234 C   0  0  0  0  0  0  0  0  0  0  0  0
    9.2852   -1.9938   25.0296 C   0  0  0  0  0  0  0  0  0  0  0  0
    8.6358   -1.6871   26.4075 C   0  0  0  0  0  0  0  0  0  0  0  0
   10.0390   -0.7866   24.3293 C   0  0  0  0  0  0  0  0  0  0  0  0
    7.2169   -5.3415   26.8054 C   0  0  0  0  0  0  0  0  0  0  0  0
    7.2070   -3.8813   26.2555 C   0  0  0  0  0  0  0  0  0  0  0  0
    8.3089   -2.8047   24.1040 C   0  0  0  0  0  0  0  0  0  0  0  0
    9.1825    0.4669   24.0555 C   0  0  0  0  0  0  0  0  0  0  0  0
    5.7700   -3.3204   26.2830 C   0  0  0  0  0  0  0  0  0  0  0  0
    5.1844   -6.7838   27.4208 C   0  0  0  0  0  0  0  0  0  0  0  0
    7.0985   -1.9693   23.7648 N   0  0  0  0  0  0  0  0  0  0  0  0
   14.0978   -0.6011   23.2801 O   0  0  0  0  0  0  0  0  0  0  0  0
    5.8262   -6.3470   25.1407 O   0  0  0  0  0  0  0  0  0  0  0  0
    7.5814   -0.7439   26.2943 O   0  0  0  0  0  0  0  0  0  0  0  0
    7.1558   -5.3782   28.2211 O   0  0  0  0  0  0  0  0  0  0  0  0
    5.9482   -7.6286   28.2553 O   0  0  0  0  0  0  0  0  0  0  0  0
  1  3  2  0
  1  5  1  0
  2  4  2  0
  2  5  1  0
  3 15  1  0
  4  7  1  0
  4 15  1  0
  5 23  2  0
  6 16  1  0
  6 21  1  0
  6 24  2  0
  7  8  1  0
  8 18  1  0
  9 10  1  0
  9 12  1  0
 10 16  1  0
 11 14  1  0
 11 17  1  0
 12 17  1  0
 12 18  1  0
 13 14  1  0
 13 15  1  0
 13 18  1  0
 14 25  1  0
 15 19  1  0
 16 17  1  0
 16 26  1  0
 17 20  1  0
 18 22  1  0
 21 27  1  0
M  CHG  1  22   1
M  END
