HOL-KAN-545e4d08-1
     RDKit          3D

 38 43  0  0  0  0  0  0  0  0999 V2000
    8.6778    4.1298   25.5336 C   0  0  0  0  0  0  0  0  0  0  0  0
    5.0674   -1.8341   19.9477 C   0  0  0  0  0  0  0  0  0  0  0  0
    8.4282    5.5108   25.4325 C   0  0  0  0  0  0  0  0  0  0  0  0
    4.5357   -0.5873   19.5704 C   0  0  0  0  0  0  0  0  0  0  0  0
   11.8048    0.2876   23.8761 C   0  0  0  0  0  0  0  0  0  0  0  0
    9.9927   -2.1237   23.0456 C   0  0  0  0  0  0  0  0  0  0  0  0
   10.2953    5.9652   23.8496 C   0  0  0  0  0  0  0  0  0  0  0  0
    6.1559    0.7621   20.8940 C   0  0  0  0  0  0  0  0  0  0  0  0
   13.9260    0.6753   22.1061 C   0  0  0  0  0  0  0  0  0  0  0  0
    9.4813   -4.6636   24.0800 C   0  0  0  0  0  0  0  0  0  0  0  0
   12.5917   -0.7948   23.4829 C   0  0  0  0  0  0  0  0  0  0  0  0
   10.9733   -2.7866   23.7836 C   0  0  0  0  0  0  0  0  0  0  0  0
    9.7671    3.6785   24.7652 C   0  0  0  0  0  0  0  0  0  0  0  0
    6.1695   -1.7560   20.8194 C   0  0  0  0  0  0  0  0  0  0  0  0
   10.5678    4.5870   23.9318 C   0  0  0  0  0  0  0  0  0  0  0  0
    6.7083   -0.4710   21.2879 C   0  0  0  0  0  0  0  0  0  0  0  0
   12.0784    1.5640   23.3842 C   0  0  0  0  0  0  0  0  0  0  0  0
    8.7564   -2.7308   22.8248 C   0  0  0  0  0  0  0  0  0  0  0  0
    9.2017    6.3886   24.6271 C   0  0  0  0  0  0  0  0  0  0  0  0
    5.0563    0.6543   20.0230 C   0  0  0  0  0  0  0  0  0  0  0  0
   13.6523   -0.6010   22.5979 C   0  0  0  0  0  0  0  0  0  0  0  0
   10.7176   -4.0565   24.3008 C   0  0  0  0  0  0  0  0  0  0  0  0
   13.1390    1.7578   22.4993 C   0  0  0  0  0  0  0  0  0  0  0  0
    8.5007   -4.0008   23.3420 C   0  0  0  0  0  0  0  0  0  0  0  0
   12.2898   -2.1194   24.0081 C   0  0  0  0  0  0  0  0  0  0  0  0
   10.2694    2.4397   24.6343 N   0  0  0  0  0  0  0  0  0  0  0  0
    6.9031   -2.7403   21.3645 N   0  0  0  0  0  0  0  0  0  0  0  0
   11.5253    3.8646   23.3272 N   0  0  0  0  0  0  0  0  0  0  0  0
    7.7481   -0.7248   22.0994 N   0  0  0  0  0  0  0  0  0  0  0  0
   11.2828    2.6344   23.7867 N   0  0  0  0  0  0  0  0  0  0  0  0
    7.7937   -2.0594   22.0902 N   0  0  0  0  0  0  0  0  0  0  0  0
   13.1382   -2.7361   24.6675 O   0  0  0  0  0  0  0  0  0  0  0  0
    8.8661    7.7159   24.6075 O   0  0  0  0  0  0  0  0  0  0  0  0
    4.4558    1.8060   19.5896 O   0  0  0  0  0  0  0  0  0  0  0  0
   14.4327   -1.6457   22.2016 O   0  0  0  0  0  0  0  0  0  0  0  0
   11.6625   -4.7204   25.0246 O   0  0  0  0  0  0  0  0  0  0  0  0
   13.4263    2.9956   22.0045 O   0  0  0  0  0  0  0  0  0  0  0  0
    7.3002   -4.6150   23.1400 O   0  0  0  0  0  0  0  0  0  0  0  0
  1  3  2  0
  1 13  1  0
  2  4  2  0
  2 14  1  0
  3 19  1  0
  4 20  1  0
  5 11  2  0
  5 17  1  0
  6 12  2  0
  6 18  1  0
  7 15  1  0
  7 19  2  0
  8 16  1  0
  8 20  2  0
  9 21  2  0
  9 23  1  0
 10 22  2  0
 10 24  1  0
 11 21  1  0
 11 25  1  0
 12 22  1  0
 12 25  1  0
 13 15  1  0
 13 26  2  0
 14 16  1  0
 14 27  2  0
 15 28  2  0
 16 29  2  0
 17 23  2  0
 17 30  1  0
 18 24  2  0
 18 31  1  0
 19 33  1  0
 20 34  1  0
 21 35  1  0
 22 36  1  0
 23 37  1  0
 24 38  1  0
 25 32  2  0
 26 30  1  0
 27 31  1  0
 28 30  1  0
 29 31  1  0
M  END
