HOL-KAN-b6135d2e-3
     RDKit          3D

 39 44  0  0  0  0  0  0  0  0999 V2000
    9.4905    7.6008   23.5093 C   0  0  0  0  0  0  0  0  0  0  0  0
    7.6148   -5.2231   27.6070 C   0  0  0  0  0  0  0  0  0  0  0  0
    8.1284    7.9452   23.5846 C   0  0  0  0  0  0  0  0  0  0  0  0
    6.5704   -6.1503   27.7781 C   0  0  0  0  0  0  0  0  0  0  0  0
   11.1165    2.0038   23.4414 C   0  0  0  0  0  0  0  0  0  0  0  0
    9.8512   -2.0038   24.1671 C   0  0  0  0  0  0  0  0  0  0  0  0
   13.5867    2.4672   22.2305 C   0  0  0  0  0  0  0  0  0  0  0  0
    7.2893    5.6142   23.3394 C   0  0  0  0  0  0  0  0  0  0  0  0
    5.6927   -5.9365   25.4581 C   0  0  0  0  0  0  0  0  0  0  0  0
    8.9577   -1.6805   21.5442 C   0  0  0  0  0  0  0  0  0  0  0  0
   12.0363    0.9631   23.3126 C   0  0  0  0  0  0  0  0  0  0  0  0
   10.5084   -1.1209   23.3103 C   0  0  0  0  0  0  0  0  0  0  0  0
   12.6669    3.5079   22.3593 C   0  0  0  0  0  0  0  0  0  0  0  0
    9.7335    6.2243   23.3455 C   0  0  0  0  0  0  0  0  0  0  0  0
    7.6801   -4.6520   26.3225 C   0  0  0  0  0  0  0  0  0  0  0  0
    8.6440    5.2410   23.2612 C   0  0  0  0  0  0  0  0  0  0  0  0
    6.7287   -5.0049   25.2588 C   0  0  0  0  0  0  0  0  0  0  0  0
   11.4318    3.2762   22.9647 C   0  0  0  0  0  0  0  0  0  0  0  0
    8.7473   -2.7251   23.7124 C   0  0  0  0  0  0  0  0  0  0  0  0
    7.0757    6.9952   23.5033 C   0  0  0  0  0  0  0  0  0  0  0  0
    5.6512   -6.4915   26.7504 C   0  0  0  0  0  0  0  0  0  0  0  0
   13.2713    1.1947   22.7072 C   0  0  0  0  0  0  0  0  0  0  0  0
   10.0617   -0.9592   21.9988 C   0  0  0  0  0  0  0  0  0  0  0  0
    8.3006   -2.5635   22.4010 C   0  0  0  0  0  0  0  0  0  0  0  0
   13.0321    4.8241   21.8483 C   0  0  0  0  0  0  0  0  0  0  0  0
   11.6878   -0.3581   23.8168 C   0  0  0  0  0  0  0  0  0  0  0  0
   10.8995    5.5660   23.2396 N   0  0  0  0  0  0  0  0  0  0  0  0
    8.5408   -3.7462   25.8295 N   0  0  0  0  0  0  0  0  0  0  0  0
    9.1906    4.0237   23.1074 N   0  0  0  0  0  0  0  0  0  0  0  0
    7.0485   -4.2998   24.1612 N   0  0  0  0  0  0  0  0  0  0  0  0
   10.4972    4.2998   23.1048 N   0  0  0  0  0  0  0  0  0  0  0  0
    8.1062   -3.5977   24.5755 N   0  0  0  0  0  0  0  0  0  0  0  0
   14.1951    5.2287   21.8100 O   0  0  0  0  0  0  0  0  0  0  0  0
   12.3779   -0.8910   24.6971 O   0  0  0  0  0  0  0  0  0  0  0  0
    5.7860    7.4473   23.5879 O   0  0  0  0  0  0  0  0  0  0  0  0
    4.6733   -7.4074   27.0326 O   0  0  0  0  0  0  0  0  0  0  0  0
   14.1835    0.1911   22.5720 O   0  0  0  0  0  0  0  0  0  0  0  0
   10.6903   -0.1016   21.1463 O   0  0  0  0  0  0  0  0  0  0  0  0
    7.2240   -3.2574   21.9331 O   0  0  0  0  0  0  0  0  0  0  0  0
  1  3  2  0
  1 14  1  0
  2  4  2  0
  2 15  1  0
  3 20  1  0
  4 21  1  0
  5 11  2  0
  5 18  1  0
  6 12  2  0
  6 19  1  0
  7 13  1  0
  7 22  2  0
  8 16  1  0
  8 20  2  0
  9 17  1  0
  9 21  2  0
 10 23  2  0
 10 24  1  0
 11 22  1  0
 11 26  1  0
 12 23  1  0
 12 26  1  0
 13 18  2  0
 13 25  1  0
 14 16  1  0
 14 27  2  0
 15 17  1  0
 15 28  2  0
 16 29  2  0
 17 30  2  0
 18 31  1  0
 19 24  2  0
 19 32  1  0
 20 35  1  0
 21 36  1  0
 22 37  1  0
 23 38  1  0
 24 39  1  0
 25 33  2  0
 26 34  2  0
 27 31  1  0
 28 32  1  0
 29 31  1  0
 30 32  1  0
M  END
