HUB-UNK-9845d277-3
     RDKit          3D

 23 25  0  0  0  0  0  0  0  0999 V2000
   14.1340   -1.6115   23.4533 C   0  0  0  0  0  0  0  0  0  0  0  0
   13.8341   -1.5270   22.0937 C   0  0  0  0  0  0  0  0  0  0  0  0
    5.5720    1.0761   18.8202 C   0  0  0  0  0  0  0  0  0  0  0  0
   13.1620   -1.2963   24.4028 C   0  0  0  0  0  0  0  0  0  0  0  0
   12.5623   -1.1273   21.6835 C   0  0  0  0  0  0  0  0  0  0  0  0
    6.3703    0.8298   19.9317 C   0  0  0  0  0  0  0  0  0  0  0  0
    6.1308    0.8895   17.5662 C   0  0  0  0  0  0  0  0  0  0  0  0
    8.1487    0.2533   18.4616 C   0  0  0  0  0  0  0  0  0  0  0  0
   11.8901   -0.8966   23.9926 C   0  0  0  0  0  0  0  0  0  0  0  0
    7.6845    0.4103   19.7576 C   0  0  0  0  0  0  0  0  0  0  0  0
   11.5902   -0.8121   22.6330 C   0  0  0  0  0  0  0  0  0  0  0  0
   10.0750    0.6975   26.9112 C   0  0  0  0  0  0  0  0  0  0  0  0
    8.9279    0.0091   26.9550 C   0  0  0  0  0  0  0  0  0  0  0  0
   11.0865    0.4091   25.9238 C   0  0  0  0  0  0  0  0  0  0  0  0
   10.8892   -0.5716   25.0257 C   0  0  0  0  0  0  0  0  0  0  0  0
    8.6906   -1.0795   25.9655 C   0  0  0  0  0  0  0  0  0  0  0  0
    9.8590   -0.2738   20.8632 C   0  0  0  0  0  0  0  0  0  0  0  0
    7.4031    0.4830   17.3574 N   0  0  0  0  0  0  0  0  0  0  0  0
    9.7112   -1.2940   25.0526 N   0  0  0  0  0  0  0  0  0  0  0  0
    8.5211    0.1520   20.8691 N   0  0  0  0  0  0  0  0  0  0  0  0
   10.3247   -0.4125   22.1912 N   0  0  0  0  0  0  0  0  0  0  0  0
    7.6445   -1.7230   25.9914 O   0  0  0  0  0  0  0  0  0  0  0  0
   10.5290   -0.4942   19.8594 O   0  0  0  0  0  0  0  0  0  0  0  0
  1  2  2  0
  1  4  1  0
  2  5  1  0
  3  6  2  0
  3  7  1  0
  4  9  2  0
  5 11  2  0
  6 10  1  0
  7 18  2  0
  8 10  2  0
  8 18  1  0
  9 11  1  0
  9 15  1  0
 10 20  1  0
 11 21  1  0
 12 13  2  0
 12 14  1  0
 13 16  1  0
 14 15  2  0
 15 19  1  0
 16 19  1  0
 16 22  2  0
 17 20  1  0
 17 21  1  0
 17 23  2  0
M  END
