HUB-UNK-9845d277-2
     RDKit          3D

 25 27  0  0  0  0  0  0  0  0999 V2000
   12.9931    0.4521   22.9538 C   0  0  0  0  0  0  0  0  0  0  0  0
    6.0958    0.9051   17.6521 C   0  0  0  0  0  0  0  0  0  0  0  0
    7.1026    0.0240   18.0466 C   0  0  0  0  0  0  0  0  0  0  0  0
   12.4109    0.5766   24.2152 C   0  0  0  0  0  0  0  0  0  0  0  0
   12.4503   -0.4296   22.0190 C   0  0  0  0  0  0  0  0  0  0  0  0
    5.2043    1.4136   18.5968 C   0  0  0  0  0  0  0  0  0  0  0  0
    7.2177   -0.3488   19.3858 C   0  0  0  0  0  0  0  0  0  0  0  0
   11.2860   -0.1806   24.5419 C   0  0  0  0  0  0  0  0  0  0  0  0
   11.3254   -1.1868   22.3458 C   0  0  0  0  0  0  0  0  0  0  0  0
    5.3195    1.0408   19.9359 C   0  0  0  0  0  0  0  0  0  0  0  0
    6.3262    0.1596   20.3305 C   0  0  0  0  0  0  0  0  0  0  0  0
   10.7432   -1.0624   23.6072 C   0  0  0  0  0  0  0  0  0  0  0  0
    2.6342    1.3940   22.5851 C   0  0  0  0  0  0  0  0  0  0  0  0
    2.5724    2.7188   22.7659 C   0  0  0  0  0  0  0  0  0  0  0  0
    3.5501    0.8074   21.6373 C   0  0  0  0  0  0  0  0  0  0  0  0
    4.3611    1.5952   20.9100 C   0  0  0  0  0  0  0  0  0  0  0  0
    3.4661    3.6074   21.9707 C   0  0  0  0  0  0  0  0  0  0  0  0
    6.4789   -0.2630   21.7564 C   0  0  0  0  0  0  0  0  0  0  0  0
    7.9299   -0.5533   22.1540 C   0  0  0  0  0  0  0  0  0  0  0  0
    4.3142    2.9658   21.0819 N   0  0  0  0  0  0  0  0  0  0  0  0
    8.0481   -0.9783   23.5230 N   0  0  0  0  0  0  0  0  0  0  0  0
    3.4223    4.8256   22.1220 O   0  0  0  0  0  0  0  0  0  0  0  0
    9.3121   -3.2015   23.1756 O   0  0  0  0  0  0  0  0  0  0  0  0
    9.3106   -2.1642   25.4665 O   0  0  0  0  0  0  0  0  0  0  0  0
    9.3196   -2.0243   24.0229 S   0  0  0  0  0  0  0  0  0  0  0  0
  1  4  2  0
  1  5  1  0
  2  3  2  0
  2  6  1  0
  3  7  1  0
  4  8  1  0
  5  9  2  0
  6 10  2  0
  7 11  2  0
  8 12  2  0
  9 12  1  0
 10 11  1  0
 10 16  1  0
 11 18  1  0
 12 25  1  0
 13 14  2  0
 13 15  1  0
 14 17  1  0
 15 16  2  0
 16 20  1  0
 17 20  1  0
 17 22  2  0
 18 19  1  0
 19 21  1  0
 21 25  1  0
 23 25  2  0
 24 25  2  0
M  END
