HUB-UNK-9845d277-7
     RDKit          3D

 42 45  0  0  1  0  0  0  0  0999 V2000
   14.2651   -0.8448   22.7317 C   0  0  0  0  0  0  0  0  0  0  0  0
   13.1175   -1.6140   22.9236 C   0  0  0  0  0  0  0  0  0  0  0  0
   14.1641    0.4341   22.1840 C   0  0  0  0  0  0  0  0  0  0  0  0
   11.7677    0.1744   22.0200 C   0  0  0  0  0  0  0  0  0  0  0  0
   11.8688   -1.1044   22.5678 C   0  0  0  0  0  0  0  0  0  0  0  0
   12.9153    0.9437   21.8282 C   0  0  0  0  0  0  0  0  0  0  0  0
   10.2863   -2.3527   23.9867 C   0  0  0  0  0  0  0  0  0  0  0  0
    9.0958   -3.1543   24.1383 C   0  0  0  0  0  0  0  0  0  0  0  0
   10.6556   -1.9179   22.7699 C   0  0  0  0  0  0  0  0  0  0  0  0
    8.3396   -3.4861   23.0825 C   0  0  0  0  0  0  0  0  0  0  0  0
    8.7368   -3.0137   21.7188 C   0  0  0  0  0  0  0  0  0  0  0  0
    8.0016    7.5126   23.2228 C   0  0  0  0  0  0  0  0  0  0  0  0
    8.1971    2.4760   22.7850 C   0  0  0  0  0  0  0  0  0  0  0  0
    7.2942    1.7990   23.7755 C   0  0  0  0  0  0  0  0  0  0  0  0
   11.3708    3.1527   23.1514 C   0  0  0  0  0  0  0  0  0  0  0  0
    6.7314   -4.7418   24.3911 C   0  0  0  0  0  0  0  0  0  0  0  0
    6.9970   -0.8007   25.9389 C   0  0  0  0  0  0  0  0  0  0  0  0
    8.0544   -0.2900   26.8716 C   0  0  0  0  0  0  0  0  0  0  0  0
    9.1302    6.2991   24.9259 C   0  0  0  0  0  0  0  0  0  0  0  0
    9.1908    7.7817   25.2373 C   0  0  0  0  0  0  0  0  0  0  0  0
    8.8474    6.2676   23.4216 C   0  0  0  0  0  0  0  0  0  0  0  0
    7.3141    0.6692   25.9802 C   0  0  0  0  0  0  0  0  0  0  0  0
    4.6058   -4.9163   26.2896 C   0  0  0  0  0  0  0  0  0  0  0  0
    3.7209   -6.7752   24.8507 C   0  0  0  0  0  0  0  0  0  0  0  0
    5.9631   -7.0097   25.9577 C   0  0  0  0  0  0  0  0  0  0  0  0
   12.8065    2.3257   21.2378 C   0  0  0  0  0  0  0  0  0  0  0  0
   12.6183    3.3886   22.3186 C   0  0  0  0  0  0  0  0  0  0  0  0
    8.1489    5.0003   22.9691 C   0  0  0  0  0  0  0  0  0  0  0  0
    8.9559    3.7218   23.2130 C   0  0  0  0  0  0  0  0  0  0  0  0
    4.9733   -6.0370   25.3182 C   0  0  0  0  0  0  0  0  0  0  0  0
    9.8925   -2.2482   21.6667 N   0  0  0  0  0  0  0  0  0  0  0  0
    8.2602    8.3525   24.3032 N   0  0  0  0  0  0  0  0  0  0  0  0
    7.2114   -4.2424   23.1965 N   0  0  0  0  0  0  0  0  0  0  0  0
    7.9724    1.3248   24.8746 N   0  0  0  0  0  0  0  0  0  0  0  0
   10.2611    3.7898   22.6094 N   0  0  0  0  0  0  0  0  0  0  0  0
    8.0687   -3.2963   20.7265 O   0  0  0  0  0  0  0  0  0  0  0  0
    7.2706    7.7410   22.2717 O   0  0  0  0  0  0  0  0  0  0  0  0
    8.2082    2.0111   21.6521 O   0  0  0  0  0  0  0  0  0  0  0  0
    6.0995    1.7665   23.5289 O   0  0  0  0  0  0  0  0  0  0  0  0
   11.3631    2.4786   24.1780 O   0  0  0  0  0  0  0  0  0  0  0  0
    7.2395   -4.5805   25.4964 O   0  0  0  0  0  0  0  0  0  0  0  0
    5.5878   -5.4552   24.1628 O   0  0  0  0  0  0  0  0  0  0  0  0
  1  2  2  0
  1  3  1  0
  2  5  1  0
  3  6  2  0
  4  5  2  0
  4  6  1  0
  5  9  1  0
  6 26  1  0
  7  8  1  0
  7  9  2  0
  8 10  2  0
  9 31  1  0
 10 11  1  0
 10 33  1  0
 11 31  1  0
 11 36  2  0
 12 21  1  0
 12 32  1  0
 12 37  2  0
 13 14  1  0
 13 29  1  0
 13 38  2  0
 14 34  1  0
 14 39  2  0
 15 27  1  0
 15 35  1  0
 15 40  2  0
 16 33  1  0
 16 41  2  0
 16 42  1  0
 17 18  1  0
 17 22  1  0
 18 22  1  0
 19 20  1  0
 19 21  1  0
 20 32  1  0
 21 28  1  0
 22 34  1  0
 23 30  1  0
 24 30  1  0
 25 30  1  0
 26 27  1  0
 28 29  1  0
 29 35  1  0
 30 42  1  0
M  END
