HUB-UNK-9845d277-15
     RDKit          3D

 34 36  0  0  0  0  0  0  0  0999 V2000
    6.0234   -6.4178   22.9741 C   0  0  0  0  0  0  0  0  0  0  0  0
    6.5359   -5.7351   24.0772 C   0  0  0  0  0  0  0  0  0  0  0  0
    6.0012   -5.8032   21.7221 C   0  0  0  0  0  0  0  0  0  0  0  0
   14.2053   -3.5953   25.0343 C   0  0  0  0  0  0  0  0  0  0  0  0
   13.2245   -3.4573   24.0522 C   0  0  0  0  0  0  0  0  0  0  0  0
   14.6534   -2.4754   25.7348 C   0  0  0  0  0  0  0  0  0  0  0  0
    7.0261   -4.4377   23.9283 C   0  0  0  0  0  0  0  0  0  0  0  0
    6.4914   -4.5058   21.5732 C   0  0  0  0  0  0  0  0  0  0  0  0
   13.1397   -1.0794   24.4712 C   0  0  0  0  0  0  0  0  0  0  0  0
   12.6916   -2.1993   23.7706 C   0  0  0  0  0  0  0  0  0  0  0  0
   14.1206   -1.2174   25.4532 C   0  0  0  0  0  0  0  0  0  0  0  0
    7.0039   -3.8230   22.6764 C   0  0  0  0  0  0  0  0  0  0  0  0
   11.5193    0.7408   24.8415 C   0  0  0  0  0  0  0  0  0  0  0  0
   11.0119    2.0554   24.5299 C   0  0  0  0  0  0  0  0  0  0  0  0
   12.5933    0.2614   24.1913 C   0  0  0  0  0  0  0  0  0  0  0  0
   11.5881    2.8210   23.5927 C   0  0  0  0  0  0  0  0  0  0  0  0
   12.7834    2.3027   22.8556 C   0  0  0  0  0  0  0  0  0  0  0  0
   10.0398    4.6642   23.8783 C   0  0  0  0  0  0  0  0  0  0  0  0
    8.9637    6.8514   25.3652 C   0  0  0  0  0  0  0  0  0  0  0  0
    8.7012    7.9923   23.1429 C   0  0  0  0  0  0  0  0  0  0  0  0
    7.4551    5.8623   23.6101 C   0  0  0  0  0  0  0  0  0  0  0  0
   11.6429   -2.0899   22.7107 C   0  0  0  0  0  0  0  0  0  0  0  0
   10.2626   -2.5738   23.1669 C   0  0  0  0  0  0  0  0  0  0  0  0
    8.7398    6.6485   23.8674 C   0  0  0  0  0  0  0  0  0  0  0  0
   13.2033    1.0319   23.2204 N   0  0  0  0  0  0  0  0  0  0  0  0
   11.1295    4.0653   23.2775 N   0  0  0  0  0  0  0  0  0  0  0  0
    9.2766   -2.4786   22.1240 N   0  0  0  0  0  0  0  0  0  0  0  0
   13.3399    2.9753   21.9903 O   0  0  0  0  0  0  0  0  0  0  0  0
    9.3433    4.1737   24.7616 O   0  0  0  0  0  0  0  0  0  0  0  0
    6.9890   -1.5920   21.3227 O   0  0  0  0  0  0  0  0  0  0  0  0
    7.5072   -1.5327   23.7829 O   0  0  0  0  0  0  0  0  0  0  0  0
    9.8402    5.9067   23.3398 O   0  0  0  0  0  0  0  0  0  0  0  0
   14.5622   -0.1515   26.1371 F   0  0  0  0  0  0  0  0  0  0  0  0
    7.6222   -2.1777   22.4889 S   0  0  0  0  0  0  0  0  0  0  0  0
  1  2  2  0
  1  3  1  0
  2  7  1  0
  3  8  2  0
  4  5  2  0
  4  6  1  0
  5 10  1  0
  6 11  2  0
  7 12  2  0
  8 12  1  0
  9 10  2  0
  9 11  1  0
  9 15  1  0
 10 22  1  0
 11 33  1  0
 12 34  1  0
 13 14  1  0
 13 15  2  0
 14 16  2  0
 15 25  1  0
 16 17  1  0
 16 26  1  0
 17 25  1  0
 17 28  2  0
 18 26  1  0
 18 29  2  0
 18 32  1  0
 19 24  1  0
 20 24  1  0
 21 24  1  0
 22 23  1  0
 23 27  1  0
 24 32  1  0
 27 34  1  0
 30 34  2  0
 31 34  2  0
M  END
