HUB-UNK-9845d277-14
     RDKit          3D

 24 26  0  0  0  0  0  0  0  0999 V2000
   10.3244   -1.4961   22.9950 C   0  0  0  0  0  0  0  0  0  0  0  0
    4.3989   -7.0887   24.5943 C   0  0  0  0  0  0  0  0  0  0  0  0
    9.1155   -2.1918   22.9910 C   0  0  0  0  0  0  0  0  0  0  0  0
    5.1162   -6.0050   24.0999 C   0  0  0  0  0  0  0  0  0  0  0  0
   10.4722   -0.3500   22.2137 C   0  0  0  0  0  0  0  0  0  0  0  0
    3.0938   -7.2552   24.1596 C   0  0  0  0  0  0  0  0  0  0  0  0
    3.2049   -5.3875   22.8264 C   0  0  0  0  0  0  0  0  0  0  0  0
    8.2021   -0.5954   21.4244 C   0  0  0  0  0  0  0  0  0  0  0  0
    4.5151   -5.1333   23.1987 C   0  0  0  0  0  0  0  0  0  0  0  0
    8.0543   -1.7414   22.2057 C   0  0  0  0  0  0  0  0  0  0  0  0
    9.4111    0.1003   21.4284 C   0  0  0  0  0  0  0  0  0  0  0  0
    4.8688    0.7676   20.2473 C   0  0  0  0  0  0  0  0  0  0  0  0
    5.0468    0.8774   18.9252 C   0  0  0  0  0  0  0  0  0  0  0  0
    5.9162    0.2733   21.1074 C   0  0  0  0  0  0  0  0  0  0  0  0
    7.0992   -0.0930   20.5842 C   0  0  0  0  0  0  0  0  0  0  0  0
    6.3526    0.4789   18.3280 C   0  0  0  0  0  0  0  0  0  0  0  0
    6.5393   -3.6296   22.9531 C   0  0  0  0  0  0  0  0  0  0  0  0
    2.4761   -6.4296   23.2853 N   0  0  0  0  0  0  0  0  0  0  0  0
    7.3043    0.0134   19.2215 N   0  0  0  0  0  0  0  0  0  0  0  0
    5.2194   -4.0218   22.6786 N   0  0  0  0  0  0  0  0  0  0  0  0
    6.8544   -2.4599   22.2235 N   0  0  0  0  0  0  0  0  0  0  0  0
    6.5335    0.5713   17.1165 O   0  0  0  0  0  0  0  0  0  0  0  0
    7.3089   -4.2106   23.7115 O   0  0  0  0  0  0  0  0  0  0  0  0
    9.5706    1.2046   20.6840 F   0  0  0  0  0  0  0  0  0  0  0  0
  1  3  2  0
  1  5  1  0
  2  4  2  0
  2  6  1  0
  3 10  1  0
  4  9  1  0
  5 11  2  0
  6 18  2  0
  7  9  2  0
  7 18  1  0
  8 10  2  0
  8 11  1  0
  8 15  1  0
  9 20  1  0
 10 21  1  0
 11 24  1  0
 12 13  2  0
 12 14  1  0
 13 16  1  0
 14 15  2  0
 15 19  1  0
 16 19  1  0
 16 22  2  0
 17 20  1  0
 17 21  1  0
 17 23  2  0
M  END
