HUB-UNK-9845d277-1
     RDKit          3D

 33 35  0  0  0  0  0  0  0  0999 V2000
    5.6664    1.1247   17.5386 C   0  0  0  0  0  0  0  0  0  0  0  0
   12.5102    1.5152   24.0932 C   0  0  0  0  0  0  0  0  0  0  0  0
   11.8989    2.7131   23.7232 C   0  0  0  0  0  0  0  0  0  0  0  0
    6.5607    0.0742   17.7439 C   0  0  0  0  0  0  0  0  0  0  0  0
    5.0181    1.7113   18.6255 C   0  0  0  0  0  0  0  0  0  0  0  0
   11.7332    0.4389   24.5218 C   0  0  0  0  0  0  0  0  0  0  0  0
   10.5106    2.8348   23.7819 C   0  0  0  0  0  0  0  0  0  0  0  0
    6.8067   -0.3899   19.0361 C   0  0  0  0  0  0  0  0  0  0  0  0
    5.2641    1.2472   19.9177 C   0  0  0  0  0  0  0  0  0  0  0  0
   10.3449    0.5606   24.5805 C   0  0  0  0  0  0  0  0  0  0  0  0
    9.7335    1.7586   24.2105 C   0  0  0  0  0  0  0  0  0  0  0  0
    6.1584    0.1966   20.1230 C   0  0  0  0  0  0  0  0  0  0  0  0
    9.0914   -1.5244   24.1838 C   0  0  0  0  0  0  0  0  0  0  0  0
    8.3110   -2.6351   24.6739 C   0  0  0  0  0  0  0  0  0  0  0  0
    9.5517   -0.5950   25.0385 C   0  0  0  0  0  0  0  0  0  0  0  0
    8.0244   -2.7647   25.9767 C   0  0  0  0  0  0  0  0  0  0  0  0
    8.5257   -1.7376   26.9435 C   0  0  0  0  0  0  0  0  0  0  0  0
    6.3025   -4.4564   25.7552 C   0  0  0  0  0  0  0  0  0  0  0  0
    5.2775   -6.8897   24.6683 C   0  0  0  0  0  0  0  0  0  0  0  0
    4.2566   -7.2554   26.9340 C   0  0  0  0  0  0  0  0  0  0  0  0
    3.5667   -5.2716   25.5568 C   0  0  0  0  0  0  0  0  0  0  0  0
    8.2488    1.9257   24.2621 C   0  0  0  0  0  0  0  0  0  0  0  0
    7.5800    1.8611   22.8850 C   0  0  0  0  0  0  0  0  0  0  0  0
    4.7156   -6.2123   25.9174 C   0  0  0  0  0  0  0  0  0  0  0  0
    9.2680   -0.7069   26.3859 N   0  0  0  0  0  0  0  0  0  0  0  0
    7.2889   -3.8024   26.4667 N   0  0  0  0  0  0  0  0  0  0  0  0
    7.7927    0.5975   22.2316 N   0  0  0  0  0  0  0  0  0  0  0  0
    8.2845   -1.8223   28.1457 O   0  0  0  0  0  0  0  0  0  0  0  0
    5.9538   -4.2032   24.6062 O   0  0  0  0  0  0  0  0  0  0  0  0
    5.3209   -0.0572   22.5815 O   0  0  0  0  0  0  0  0  0  0  0  0
    6.8977   -1.7739   21.6376 O   0  0  0  0  0  0  0  0  0  0  0  0
    5.7561   -5.4468   26.5262 O   0  0  0  0  0  0  0  0  0  0  0  0
    6.4679   -0.3941   21.7601 S   0  0  0  0  0  0  0  0  0  0  0  0
  1  4  2  0
  1  5  1  0
  2  3  2  0
  2  6  1  0
  3  7  1  0
  4  8  1  0
  5  9  2  0
  6 10  2  0
  7 11  2  0
  8 12  2  0
  9 12  1  0
 10 11  1  0
 10 15  1  0
 11 22  1  0
 12 33  1  0
 13 14  1  0
 13 15  2  0
 14 16  2  0
 15 25  1  0
 16 17  1  0
 16 26  1  0
 17 25  1  0
 17 28  2  0
 18 26  1  0
 18 29  2  0
 18 32  1  0
 19 24  1  0
 20 24  1  0
 21 24  1  0
 22 23  1  0
 23 27  1  0
 24 32  1  0
 27 33  1  0
 30 33  2  0
 31 33  2  0
M  END
