HUN-WAB-7263dfed-1
     RDKit          3D

 14 14  0  0  1  0  0  0  0  0999 V2000
   13.8850    0.1535   22.4959 C   0  0  0  0  0  0  0  0  0  0  0  0
   13.4170    1.3668   23.0003 C   0  0  0  0  0  0  0  0  0  0  0  0
   12.9863   -0.8700   22.1954 C   0  0  0  0  0  0  0  0  0  0  0  0
   11.1515    0.5330   22.9039 C   0  0  0  0  0  0  0  0  0  0  0  0
   12.0502    1.5566   23.2044 C   0  0  0  0  0  0  0  0  0  0  0  0
   11.6195   -0.6803   22.3994 C   0  0  0  0  0  0  0  0  0  0  0  0
   11.9490    5.4447   23.8971 C   0  0  0  0  0  0  0  0  0  0  0  0
   11.5414    2.8762   23.7535 C   0  0  0  0  0  0  0  0  0  0  0  0
   12.4133    4.0808   23.3468 C   0  0  0  0  0  0  0  0  0  0  0  0
   12.5520    4.1050   21.8542 N   0  0  0  0  0  0  0  0  0  0  0  0
   10.7819    5.8115   23.5884 O   0  0  0  0  0  0  0  0  0  0  0  0
   12.8088    6.0381   24.6116 O   0  0  0  0  0  0  0  0  0  0  0  0
   10.7425   -1.6790   22.1056 O   0  0  0  0  0  0  0  0  0  0  0  0
   10.1814    3.0867   23.3700 O   0  0  0  0  0  0  0  0  0  0  0  0
  1  2  2  0
  1  3  1  0
  2  5  1  0
  3  6  2  0
  4  5  2  0
  4  6  1  0
  5  8  1  0
  6 13  1  0
  7  9  1  0
  7 11  1  0
  7 12  2  0
  8  9  1  0
  8 14  1  0
  9 10  1  0
M  CHG  2  10   1  11  -1
M  END
