IAN-BAS-daf5a467-1
     RDKit          3D

 16 16  0  0  0  0  0  0  0  0999 V2000
    7.7993    0.4223   20.6673 C   0  0  0  0  0  0  0  0  0  0  0  0
    6.9202    0.7463   18.4813 C   0  0  0  0  0  0  0  0  0  0  0  0
    8.9604   -0.2838   18.7155 C   0  0  0  0  0  0  0  0  0  0  0  0
    6.7787    0.8974   19.8513 C   0  0  0  0  0  0  0  0  0  0  0  0
    8.9145   -0.1808   20.0965 C   0  0  0  0  0  0  0  0  0  0  0  0
   10.3913   -0.1983   22.1394 C   0  0  0  0  0  0  0  0  0  0  0  0
   12.7821   -0.9025   21.7578 C   0  0  0  0  0  0  0  0  0  0  0  0
   11.2073   -2.4738   22.8888 C   0  0  0  0  0  0  0  0  0  0  0  0
   12.0079   -0.3991   24.0762 C   0  0  0  0  0  0  0  0  0  0  0  0
    6.5734    3.0859   21.8992 C   0  0  0  0  0  0  0  0  0  0  0  0
    5.5731    1.5470   20.4315 C   0  0  0  0  0  0  0  0  0  0  0  0
   11.5854   -0.9934   22.7235 C   0  0  0  0  0  0  0  0  0  0  0  0
    7.9886    0.1659   17.8902 N   0  0  0  0  0  0  0  0  0  0  0  0
    9.9708   -0.6738   20.9009 N   0  0  0  0  0  0  0  0  0  0  0  0
    9.9022    0.7489   22.7525 O   0  0  0  0  0  0  0  0  0  0  0  0
    5.8223    1.8853   21.7918 O   0  0  0  0  0  0  0  0  0  0  0  0
  1  4  2  0
  1  5  1  0
  2  4  1  0
  2 13  2  0
  3  5  2  0
  3 13  1  0
  4 11  1  0
  5 14  1  0
  6 12  1  0
  6 14  1  0
  6 15  2  0
  7 12  1  0
  8 12  1  0
  9 12  1  0
 10 16  1  0
 11 16  1  0
M  END
