IAN-BAS-44680fdf-1
     RDKit          3D

 29 32  0  0  0  0  0  0  0  0999 V2000
   11.2039    4.4369   25.3009 C   0  0  0  0  0  0  0  0  0  0  0  0
   12.2620    3.8784   24.5896 C   0  0  0  0  0  0  0  0  0  0  0  0
   13.2384    1.9656   23.4109 C   0  0  0  0  0  0  0  0  0  0  0  0
   10.0702    3.6751   25.5546 C   0  0  0  0  0  0  0  0  0  0  0  0
   13.1348    0.6542   22.9698 C   0  0  0  0  0  0  0  0  0  0  0  0
    7.5575    2.0528   24.9258 C   0  0  0  0  0  0  0  0  0  0  0  0
    8.8609    0.4321   26.1337 C   0  0  0  0  0  0  0  0  0  0  0  0
    6.4361    1.2984   25.2308 C   0  0  0  0  0  0  0  0  0  0  0  0
    7.6811   -0.2496   26.3847 C   0  0  0  0  0  0  0  0  0  0  0  0
   12.1881    2.5528   24.1292 C   0  0  0  0  0  0  0  0  0  0  0  0
    9.9969    2.3572   25.0968 C   0  0  0  0  0  0  0  0  0  0  0  0
    8.7893    1.6046   25.3896 C   0  0  0  0  0  0  0  0  0  0  0  0
   11.0400    1.7734   24.3830 C   0  0  0  0  0  0  0  0  0  0  0  0
   11.9727   -0.0288   23.2663 C   0  0  0  0  0  0  0  0  0  0  0  0
   10.4894   -2.0360   23.2207 C   0  0  0  0  0  0  0  0  0  0  0  0
    6.0910   -1.7574   19.6035 C   0  0  0  0  0  0  0  0  0  0  0  0
    8.1306   -2.4568   22.6350 C   0  0  0  0  0  0  0  0  0  0  0  0
    9.5822   -1.2784   20.9843 C   0  0  0  0  0  0  0  0  0  0  0  0
    7.3615   -2.8850   21.3922 C   0  0  0  0  0  0  0  0  0  0  0  0
    8.2519   -0.7533   20.4520 C   0  0  0  0  0  0  0  0  0  0  0  0
   11.8171   -1.4488   22.8095 C   0  0  0  0  0  0  0  0  0  0  0  0
    6.0004   -0.5938   18.6471 C   0  0  0  0  0  0  0  0  0  0  0  0
    6.4662    0.1546   25.9508 N   0  0  0  0  0  0  0  0  0  0  0  0
   10.9366    0.5006   23.9563 N   0  0  0  0  0  0  0  0  0  0  0  0
    9.4478   -1.9139   22.3001 N   0  0  0  0  0  0  0  0  0  0  0  0
    7.2060   -1.7826   20.4421 N   0  0  0  0  0  0  0  0  0  0  0  0
   10.3783   -2.5808   24.3216 O   0  0  0  0  0  0  0  0  0  0  0  0
    5.2061   -2.6164   19.6045 O   0  0  0  0  0  0  0  0  0  0  0  0
    6.8515   -1.0766   17.1841 Cl  0  0  0  0  0  0  0  0  0  0  0  0
  1  2  2  0
  1  4  1  0
  2 10  1  0
  3  5  1  0
  3 10  2  0
  4 11  2  0
  5 14  2  0
  6  8  2  0
  6 12  1  0
  7  9  1  0
  7 12  2  0
  8 23  1  0
  9 23  2  0
 10 13  1  0
 11 12  1  0
 11 13  1  0
 13 24  2  0
 14 21  1  0
 14 24  1  0
 15 21  1  0
 15 25  1  0
 15 27  2  0
 16 22  1  0
 16 26  1  0
 16 28  2  0
 17 19  1  0
 17 25  1  0
 18 20  1  0
 18 25  1  0
 19 26  1  0
 20 26  1  0
 22 29  1  0
M  END
