IAN-BAS-0bc4bd27-1
     RDKit          3D

 29 31  0  0  0  0  0  0  0  0999 V2000
    8.6386   -5.1766   25.7901 C   0  0  0  0  0  0  0  0  0  0  0  0
    9.5099   -4.5011   24.9356 C   0  0  0  0  0  0  0  0  0  0  0  0
    7.3596   -3.1488   26.0889 C   0  0  0  0  0  0  0  0  0  0  0  0
   10.2775    2.4887   23.9724 C   0  0  0  0  0  0  0  0  0  0  0  0
    5.8603   -6.7004   28.3201 C   0  0  0  0  0  0  0  0  0  0  0  0
    5.1166   -5.5246   28.4929 C   0  0  0  0  0  0  0  0  0  0  0  0
    9.9536    4.7994   23.5114 C   0  0  0  0  0  0  0  0  0  0  0  0
    8.1214    3.4923   23.9724 C   0  0  0  0  0  0  0  0  0  0  0  0
    7.5634   -4.5004   26.3667 C   0  0  0  0  0  0  0  0  0  0  0  0
    8.2309   -2.4733   25.2344 C   0  0  0  0  0  0  0  0  0  0  0  0
   10.8209    3.7283   23.6539 C   0  0  0  0  0  0  0  0  0  0  0  0
    8.9028    2.3599   24.1363 C   0  0  0  0  0  0  0  0  0  0  0  0
    9.3061   -3.1495   24.6577 C   0  0  0  0  0  0  0  0  0  0  0  0
   12.9055    5.0582   23.1614 C   0  0  0  0  0  0  0  0  0  0  0  0
    8.9672   -0.1184   24.6591 C   0  0  0  0  0  0  0  0  0  0  0  0
    9.8082   -2.5478   22.4638 C   0  0  0  0  0  0  0  0  0  0  0  0
    8.6130    4.7130   23.6630 N   0  0  0  0  0  0  0  0  0  0  0  0
    6.8842   -6.4715   27.4931 N   0  0  0  0  0  0  0  0  0  0  0  0
    5.6608   -4.5355   27.7786 N   0  0  0  0  0  0  0  0  0  0  0  0
    6.7007   -5.1707   27.2148 N   0  0  0  0  0  0  0  0  0  0  0  0
   14.2708    4.8217   23.0741 N   0  0  0  0  0  0  0  0  0  0  0  0
   10.7219   -1.8829   21.6827 N   0  0  0  0  0  0  0  0  0  0  0  0
    8.0152   -1.1194   24.9666 N   0  0  0  0  0  0  0  0  0  0  0  0
   12.1935    3.8883   23.4816 N   0  0  0  0  0  0  0  0  0  0  0  0
    8.3202    1.1119   24.4602 N   0  0  0  0  0  0  0  0  0  0  0  0
   12.4334    6.1762   22.9716 O   0  0  0  0  0  0  0  0  0  0  0  0
   10.1772   -0.3047   24.5795 O   0  0  0  0  0  0  0  0  0  0  0  0
    8.8054   -3.1053   22.0285 O   0  0  0  0  0  0  0  0  0  0  0  0
   10.1697   -2.5079   23.8208 O   0  0  0  0  0  0  0  0  0  0  0  0
  1  2  2  0
  1  9  1  0
  2 13  1  0
  3  9  2  0
  3 10  1  0
  4 11  2  0
  4 12  1  0
  5  6  1  0
  5 18  2  0
  6 19  2  0
  7 11  1  0
  7 17  2  0
  8 12  2  0
  8 17  1  0
  9 20  1  0
 10 13  2  0
 10 23  1  0
 11 24  1  0
 12 25  1  0
 13 29  1  0
 14 21  1  0
 14 24  1  0
 14 26  2  0
 15 23  1  0
 15 25  1  0
 15 27  2  0
 16 22  1  0
 16 28  2  0
 16 29  1  0
 18 20  1  0
 19 20  1  0
M  END
