IAN-BAS-e945b602-1
     RDKit          3D

 25 27  0  0  0  0  0  0  0  0999 V2000
    7.6532   -2.2925   22.0800 C   0  0  0  0  0  0  0  0  0  0  0  0
    8.6276   -2.9622   24.1744 C   0  0  0  0  0  0  0  0  0  0  0  0
   12.7468   -0.3489   22.8484 C   0  0  0  0  0  0  0  0  0  0  0  0
    6.4978   -2.9511   22.4687 C   0  0  0  0  0  0  0  0  0  0  0  0
    7.4285   -3.5906   24.4694 C   0  0  0  0  0  0  0  0  0  0  0  0
   12.0777    5.9151   25.1080 C   0  0  0  0  0  0  0  0  0  0  0  0
   13.5323   -2.5717   23.1627 C   0  0  0  0  0  0  0  0  0  0  0  0
   15.0630   -0.8889   22.8413 C   0  0  0  0  0  0  0  0  0  0  0  0
   11.0069    5.9318   24.2492 C   0  0  0  0  0  0  0  0  0  0  0  0
    8.7339   -2.3029   22.9548 C   0  0  0  0  0  0  0  0  0  0  0  0
   12.4654   -1.6927   23.0682 C   0  0  0  0  0  0  0  0  0  0  0  0
   14.0678    0.0689   22.7315 C   0  0  0  0  0  0  0  0  0  0  0  0
   12.7888    5.3788   23.2028 C   0  0  0  0  0  0  0  0  0  0  0  0
    9.9698   -1.6266   22.5958 C   0  0  0  0  0  0  0  0  0  0  0  0
   13.5042    2.5054   22.3755 C   0  0  0  0  0  0  0  0  0  0  0  0
   13.5745    4.9741   21.9890 C   0  0  0  0  0  0  0  0  0  0  0  0
    6.3571   -3.6022   23.6451 N   0  0  0  0  0  0  0  0  0  0  0  0
   14.8285   -2.2031   23.0545 N   0  0  0  0  0  0  0  0  0  0  0  0
   13.2167    5.5598   24.4317 N   0  0  0  0  0  0  0  0  0  0  0  0
   11.1290   -2.1499   23.1900 N   0  0  0  0  0  0  0  0  0  0  0  0
   14.3808    1.4080   22.5109 N   0  0  0  0  0  0  0  0  0  0  0  0
   14.2151    3.6909   22.1628 N   0  0  0  0  0  0  0  0  0  0  0  0
    9.9789   -0.6398   21.8466 O   0  0  0  0  0  0  0  0  0  0  0  0
   12.2777    2.4590   22.4321 O   0  0  0  0  0  0  0  0  0  0  0  0
   11.4571    5.5855   23.0111 O   0  0  0  0  0  0  0  0  0  0  0  0
  1  4  2  0
  1 10  1  0
  2  5  1  0
  2 10  2  0
  3 11  2  0
  3 12  1  0
  4 17  1  0
  5 17  2  0
  6  9  2  0
  6 19  1  0
  7 11  1  0
  7 18  2  0
  8 12  2  0
  8 18  1  0
  9 25  1  0
 10 14  1  0
 11 20  1  0
 12 21  1  0
 13 16  1  0
 13 19  2  0
 13 25  1  0
 14 20  1  0
 14 23  2  0
 15 21  1  0
 15 22  1  0
 15 24  2  0
 16 22  1  0
M  END
