IND-SYN-6c8299e8-9
     RDKit          3D

 20 21  0  0  0  0  0  0  0  0999 V2000
    8.4942   -5.5613   22.7734 C   0  0  0  0  0  0  0  0  0  0  0  0
    7.8223   -4.5792   22.0456 C   0  0  0  0  0  0  0  0  0  0  0  0
    9.3683   -5.1954   23.7970 C   0  0  0  0  0  0  0  0  0  0  0  0
    8.8987   -2.8652   23.3649 C   0  0  0  0  0  0  0  0  0  0  0  0
    8.0246   -3.2312   22.3413 C   0  0  0  0  0  0  0  0  0  0  0  0
    9.5705   -3.8473   24.0927 C   0  0  0  0  0  0  0  0  0  0  0  0
    6.4573   -2.4698   20.5731 C   0  0  0  0  0  0  0  0  0  0  0  0
   13.2895   -3.3217   24.5785 C   0  0  0  0  0  0  0  0  0  0  0  0
   11.9760   -1.2247   24.3241 C   0  0  0  0  0  0  0  0  0  0  0  0
   14.0030   -2.8797   25.8472 C   0  0  0  0  0  0  0  0  0  0  0  0
   12.5486   -0.5566   25.5650 C   0  0  0  0  0  0  0  0  0  0  0  0
    5.9178   -1.1744   20.0126 C   0  0  0  0  0  0  0  0  0  0  0  0
   11.9406   -2.7051   24.4648 N   0  0  0  0  0  0  0  0  0  0  0  0
    7.3525   -2.2488   21.6136 N   0  0  0  0  0  0  0  0  0  0  0  0
    6.1077   -3.5440   20.0914 O   0  0  0  0  0  0  0  0  0  0  0  0
   10.0454   -2.3382   26.1592 O   0  0  0  0  0  0  0  0  0  0  0  0
   11.1589   -4.5938   26.0174 O   0  0  0  0  0  0  0  0  0  0  0  0
   14.2635   -1.0797   25.8711 S   0  0  0  0  0  0  0  0  0  0  0  0
   10.6772   -3.3849   25.3872 S   0  0  0  0  0  0  0  0  0  0  0  0
    6.3588   -1.1020   18.2992 Cl  0  0  0  0  0  0  0  0  0  0  0  0
  1  2  2  0
  1  3  1  0
  2  5  1  0
  3  6  2  0
  4  5  2  0
  4  6  1  0
  5 14  1  0
  6 19  1  0
  7 12  1  0
  7 14  1  0
  7 15  2  0
  8 10  1  0
  8 13  1  0
  9 11  1  0
  9 13  1  0
 10 18  1  0
 11 18  1  0
 12 20  1  0
 13 19  1  0
 16 19  2  0
 17 19  2  0
M  END
