IND-SYN-8bc6954a-1
     RDKit          3D

 19 21  0  0  0  0  0  0  0  0999 V2000
   14.4075   -2.6025   26.2898 C   0  0  0  0  0  0  0  0  0  0  0  0
   14.6646   -1.2766   25.9415 C   0  0  0  0  0  0  0  0  0  0  0  0
   13.1887   -3.1894   25.9492 C   0  0  0  0  0  0  0  0  0  0  0  0
   13.7030   -0.5374   25.2527 C   0  0  0  0  0  0  0  0  0  0  0  0
    6.2448   -4.8647   23.5264 C   0  0  0  0  0  0  0  0  0  0  0  0
    7.6338   -5.6244   21.7159 C   0  0  0  0  0  0  0  0  0  0  0  0
    5.2238   -4.7028   22.6038 C   0  0  0  0  0  0  0  0  0  0  0  0
    6.5506   -5.4287   20.8744 C   0  0  0  0  0  0  0  0  0  0  0  0
    8.8677   -3.0224   24.5059 C   0  0  0  0  0  0  0  0  0  0  0  0
   12.2271   -2.4502   25.2603 C   0  0  0  0  0  0  0  0  0  0  0  0
    7.4696   -5.3348   23.0659 C   0  0  0  0  0  0  0  0  0  0  0  0
   12.4842   -1.1242   24.9120 C   0  0  0  0  0  0  0  0  0  0  0  0
    9.3522   -4.3012   24.3858 C   0  0  0  0  0  0  0  0  0  0  0  0
   10.9678   -3.0613   24.9109 C   0  0  0  0  0  0  0  0  0  0  0  0
    8.6284   -5.5311   24.0372 C   0  0  0  0  0  0  0  0  0  0  0  0
    5.3456   -4.9736   21.2849 N   0  0  0  0  0  0  0  0  0  0  0  0
   10.6986   -4.3198   24.6463 N   0  0  0  0  0  0  0  0  0  0  0  0
    9.9073   -2.2105   24.8461 O   0  0  0  0  0  0  0  0  0  0  0  0
   11.5702   -0.4001   24.2496 F   0  0  0  0  0  0  0  0  0  0  0  0
  1  2  2  0
  1  3  1  0
  2  4  1  0
  3 10  2  0
  4 12  2  0
  5  7  2  0
  5 11  1  0
  6  8  1  0
  6 11  2  0
  7 16  1  0
  8 16  2  0
  9 13  2  0
  9 18  1  0
 10 12  1  0
 10 14  1  0
 11 15  1  0
 12 19  1  0
 13 15  1  0
 13 17  1  0
 14 17  2  0
 14 18  1  0
M  END
