IND-SYN-6c8299e8-8
     RDKit          3D

 18 19  0  0  1  0  0  0  0  0999 V2000
    8.1956   -5.2412   22.8532 C   0  0  0  0  0  0  0  0  0  0  0  0
    9.2176   -4.7590   23.6708 C   0  0  0  0  0  0  0  0  0  0  0  0
    7.4629   -4.3592   22.0589 C   0  0  0  0  0  0  0  0  0  0  0  0
    8.7741   -2.5125   22.9002 C   0  0  0  0  0  0  0  0  0  0  0  0
    9.5068   -3.3947   23.6944 C   0  0  0  0  0  0  0  0  0  0  0  0
    7.7522   -2.9948   22.0824 C   0  0  0  0  0  0  0  0  0  0  0  0
    5.9795   -2.4538   20.4308 C   0  0  0  0  0  0  0  0  0  0  0  0
   12.8926   -2.7484   25.1996 C   0  0  0  0  0  0  0  0  0  0  0  0
   11.7569   -3.7256   24.8792 C   0  0  0  0  0  0  0  0  0  0  0  0
   12.2588   -1.5162   25.8270 C   0  0  0  0  0  0  0  0  0  0  0  0
    5.4125   -1.2429   19.7268 C   0  0  0  0  0  0  0  0  0  0  0  0
   10.5659   -2.8956   24.5417 N   0  0  0  0  0  0  0  0  0  0  0  0
    7.0193   -2.1124   21.2881 N   0  0  0  0  0  0  0  0  0  0  0  0
    5.5280   -3.5716   20.1971 O   0  0  0  0  0  0  0  0  0  0  0  0
   11.2420   -0.5684   23.6048 O   0  0  0  0  0  0  0  0  0  0  0  0
    9.7556   -0.6887   25.6544 O   0  0  0  0  0  0  0  0  0  0  0  0
   10.8168   -1.2220   24.8266 S   0  0  0  0  0  0  0  0  0  0  0  0
    6.7186   -0.5036   18.7871 Cl  0  0  0  0  0  0  0  0  0  0  0  0
  1  2  2  0
  1  3  1  0
  2  5  1  0
  3  6  2  0
  4  5  2  0
  4  6  1  0
  5 12  1  0
  6 13  1  0
  7 11  1  0
  7 13  1  0
  7 14  2  0
  8  9  1  0
  8 10  1  0
  9 12  1  0
 10 17  1  0
 11 18  1  0
 12 17  1  0
 15 17  2  0
 16 17  2  0
M  END
