IND-SYN-6c8299e8-6
     RDKit          3D

 16 17  0  0  1  0  0  0  0  0999 V2000
   13.2678    0.2777   23.4132 C   0  0  0  0  0  0  0  0  0  0  0  0
   14.1821   -0.1296   22.4441 C   0  0  0  0  0  0  0  0  0  0  0  0
   12.5210   -1.6108   21.5054 C   0  0  0  0  0  0  0  0  0  0  0  0
   11.5799   -1.1934   22.4602 C   0  0  0  0  0  0  0  0  0  0  0  0
   11.9794   -0.2651   23.4345 C   0  0  0  0  0  0  0  0  0  0  0  0
   13.8116   -1.0786   21.4952 C   0  0  0  0  0  0  0  0  0  0  0  0
    9.4304   -0.6458   20.3934 C   0  0  0  0  0  0  0  0  0  0  0  0
    9.2728   -0.9503   23.3881 C   0  0  0  0  0  0  0  0  0  0  0  0
   10.0106   -0.6332   24.6770 C   0  0  0  0  0  0  0  0  0  0  0  0
   10.1833   -1.7683   22.4730 C   0  0  0  0  0  0  0  0  0  0  0  0
    8.8238   -0.9160   19.0402 C   0  0  0  0  0  0  0  0  0  0  0  0
    9.6000   -1.7933   21.1480 N   0  0  0  0  0  0  0  0  0  0  0  0
    9.7448    0.4889   20.7485 O   0  0  0  0  0  0  0  0  0  0  0  0
   11.1569    0.1874   24.4355 O   0  0  0  0  0  0  0  0  0  0  0  0
   14.9464   -1.5982   20.3099 Cl  0  0  0  0  0  0  0  0  0  0  0  0
    7.3024   -0.0164   18.9361 Cl  0  0  0  0  0  0  0  0  0  0  0  0
  1  2  2  0
  1  5  1  0
  2  6  1  0
  3  4  1  0
  3  6  2  0
  4  5  2  0
  4 10  1  0
  5 14  1  0
  6 15  1  0
  7 11  1  0
  7 12  1  0
  7 13  2  0
  8  9  1  0
  8 10  1  0
  9 14  1  0
 10 12  1  0
 11 16  1  0
M  END
