IND-SYN-5e5c1c3e-3
     RDKit          3D

 16 17  0  0  0  0  0  0  0  0999 V2000
    9.6783   -5.2812   24.9084 C   0  0  0  0  0  0  0  0  0  0  0  0
   10.7159   -4.3631   25.0698 C   0  0  0  0  0  0  0  0  0  0  0  0
    8.5830   -4.9618   24.1059 C   0  0  0  0  0  0  0  0  0  0  0  0
    9.5630   -2.8062   23.6262 C   0  0  0  0  0  0  0  0  0  0  0  0
   13.0724   -0.5561   24.5910 C   0  0  0  0  0  0  0  0  0  0  0  0
   13.6122   -1.5347   25.3882 C   0  0  0  0  0  0  0  0  0  0  0  0
   10.6583   -3.1256   24.4287 C   0  0  0  0  0  0  0  0  0  0  0  0
    8.5253   -3.7243   23.4648 C   0  0  0  0  0  0  0  0  0  0  0  0
   11.7315   -2.1763   24.5962 C   0  0  0  0  0  0  0  0  0  0  0  0
    8.2515   -5.2031   20.8448 C   0  0  0  0  0  0  0  0  0  0  0  0
   11.8673   -0.9731   24.0861 N   0  0  0  0  0  0  0  0  0  0  0  0
    7.4039   -3.3981   22.6438 N   0  0  0  0  0  0  0  0  0  0  0  0
    6.2716   -5.7077   22.4550 O   0  0  0  0  0  0  0  0  0  0  0  0
    5.9159   -4.0506   20.5915 O   0  0  0  0  0  0  0  0  0  0  0  0
   12.7506   -2.5897   25.3983 O   0  0  0  0  0  0  0  0  0  0  0  0
    6.7591   -4.6248   21.6212 S   0  0  0  0  0  0  0  0  0  0  0  0
  1  2  2  0
  1  3  1  0
  2  7  1  0
  3  8  2  0
  4  7  2  0
  4  8  1  0
  5  6  2  0
  5 11  1  0
  6 15  1  0
  7  9  1  0
  8 12  1  0
  9 11  2  0
  9 15  1  0
 10 16  1  0
 12 16  1  0
 13 16  2  0
 14 16  2  0
M  END
