IND-SYN-5e5c1c3e-4
     RDKit          3D

 17 18  0  0  0  0  0  0  0  0999 V2000
    7.9668   -1.5847   22.7292 C   0  0  0  0  0  0  0  0  0  0  0  0
    9.2821   -1.1238   22.7847 C   0  0  0  0  0  0  0  0  0  0  0  0
    7.6551   -2.8619   23.1955 C   0  0  0  0  0  0  0  0  0  0  0  0
    9.9740   -3.2171   23.7727 C   0  0  0  0  0  0  0  0  0  0  0  0
   13.7457   -1.2397   23.0950 C   0  0  0  0  0  0  0  0  0  0  0  0
   13.3646   -0.1920   23.8997 C   0  0  0  0  0  0  0  0  0  0  0  0
   10.2857   -1.9400   23.3065 C   0  0  0  0  0  0  0  0  0  0  0  0
    8.6587   -3.6781   23.7172 C   0  0  0  0  0  0  0  0  0  0  0  0
   11.6460   -1.4630   23.3634 C   0  0  0  0  0  0  0  0  0  0  0  0
   11.1631    0.5222   24.8380 C   0  0  0  0  0  0  0  0  0  0  0  0
    8.7144   -4.8463   26.8498 C   0  0  0  0  0  0  0  0  0  0  0  0
   12.6712   -2.0270   22.7645 N   0  0  0  0  0  0  0  0  0  0  0  0
   12.0169   -0.3481   24.0625 N   0  0  0  0  0  0  0  0  0  0  0  0
    8.3389   -4.9851   24.1941 N   0  0  0  0  0  0  0  0  0  0  0  0
    6.5265   -3.9880   25.7345 O   0  0  0  0  0  0  0  0  0  0  0  0
    6.9357   -6.4717   25.8290 O   0  0  0  0  0  0  0  0  0  0  0  0
    7.4295   -5.1207   25.6505 S   0  0  0  0  0  0  0  0  0  0  0  0
  1  2  2  0
  1  3  1  0
  2  7  1  0
  3  8  2  0
  4  7  2  0
  4  8  1  0
  5  6  2  0
  5 12  1  0
  6 13  1  0
  7  9  1  0
  8 14  1  0
  9 12  2  0
  9 13  1  0
 10 13  1  0
 11 17  1  0
 14 17  1  0
 15 17  2  0
 16 17  2  0
M  END
