INS-INS-714f82db-1
     RDKit          3D

 40 44  0  0  1  0  0  0  0  0999 V2000
   12.4597   -2.0154   22.3242 C   0  0  0  0  0  0  0  0  0  0  0  0
   13.6687   -1.3249   22.2217 C   0  0  0  0  0  0  0  0  0  0  0  0
    7.3255   -5.2373   27.2651 C   0  0  0  0  0  0  0  0  0  0  0  0
    9.7964   -2.8862   24.0795 C   0  0  0  0  0  0  0  0  0  0  0  0
    9.1882   -2.1298   21.8671 C   0  0  0  0  0  0  0  0  0  0  0  0
    7.7115   -3.6003   23.0894 C   0  0  0  0  0  0  0  0  0  0  0  0
    8.4444   -6.0338   27.1587 C   0  0  0  0  0  0  0  0  0  0  0  0
   11.3198   -1.3869   22.8531 C   0  0  0  0  0  0  0  0  0  0  0  0
   10.0859   -2.1439   22.9346 C   0  0  0  0  0  0  0  0  0  0  0  0
    8.6092   -3.6144   24.1569 C   0  0  0  0  0  0  0  0  0  0  0  0
    7.2473   -4.2809   26.2119 C   0  0  0  0  0  0  0  0  0  0  0  0
   12.5800    0.6102   23.1865 C   0  0  0  0  0  0  0  0  0  0  0  0
   11.3738   -0.0586   23.2839 C   0  0  0  0  0  0  0  0  0  0  0  0
    8.0009   -2.8580   21.9445 C   0  0  0  0  0  0  0  0  0  0  0  0
   13.7017   -0.0173   22.6654 C   0  0  0  0  0  0  0  0  0  0  0  0
    8.3097   -4.3827   25.3407 C   0  0  0  0  0  0  0  0  0  0  0  0
    6.1899   -3.3136   26.0598 C   0  0  0  0  0  0  0  0  0  0  0  0
    6.7582   -4.0663   20.2158 C   0  0  0  0  0  0  0  0  0  0  0  0
   12.9076    2.0173   23.5029 C   0  0  0  0  0  0  0  0  0  0  0  0
    6.2127   -0.6880   21.6636 C   0  0  0  0  0  0  0  0  0  0  0  0
   14.4330    1.9296   23.4358 C   0  0  0  0  0  0  0  0  0  0  0  0
    5.6818    0.6099   21.0661 C   0  0  0  0  0  0  0  0  0  0  0  0
    7.2143   -0.8484   19.4413 C   0  0  0  0  0  0  0  0  0  0  0  0
    6.4258   -1.6399   20.4839 C   0  0  0  0  0  0  0  0  0  0  0  0
    3.6736   -3.4666   24.3143 C   0  0  0  0  0  0  0  0  0  0  0  0
    9.7589    1.8523   22.9767 C   0  0  0  0  0  0  0  0  0  0  0  0
   10.3652    1.0749   25.2969 C   0  0  0  0  0  0  0  0  0  0  0  0
    4.7771   -3.6628   26.5719 C   0  0  0  0  0  0  0  0  0  0  0  0
    7.5166   -5.3057   20.6570 C   0  0  0  0  0  0  0  0  0  0  0  0
    3.6527   -3.0129   25.7651 C   0  0  0  0  0  0  0  0  0  0  0  0
   10.1745    0.6406   23.8317 C   0  0  0  0  0  0  0  0  0  0  0  0
    7.1028   -2.8442   20.8766 N   0  0  0  0  0  0  0  0  0  0  0  0
    6.3528   -2.1928   25.5310 O   0  0  0  0  0  0  0  0  0  0  0  0
    5.9092   -4.1447   19.3243 O   0  0  0  0  0  0  0  0  0  0  0  0
    5.6010    0.9949   18.4608 O   0  0  0  0  0  0  0  0  0  0  0  0
    7.6660    1.7310   19.7378 O   0  0  0  0  0  0  0  0  0  0  0  0
   14.8083    0.7922   22.6230 O   0  0  0  0  0  0  0  0  0  0  0  0
    9.3948   -5.6276   25.7935 S   0  0  0  0  0  0  0  0  0  0  0  0
    6.5648    0.8146   19.5263 S   0  0  0  0  0  0  0  0  0  0  0  0
    7.6825   -6.4357   19.2965 Cl  0  0  0  0  0  0  0  0  0  0  0  0
  1  2  2  0
  1  8  1  0
  2 15  1  0
  3  7  2  0
  3 11  1  0
  4  9  2  0
  4 10  1  0
  5  9  1  0
  5 14  2  0
  6 10  2  0
  6 14  1  0
  7 38  1  0
  8  9  1  0
  8 13  2  0
 10 16  1  0
 11 16  2  0
 11 17  1  0
 12 13  1  0
 12 15  2  0
 12 19  1  0
 13 31  1  0
 14 32  1  0
 15 37  1  0
 16 38  1  0
 17 28  1  0
 17 33  2  0
 18 29  1  0
 18 32  1  0
 18 34  2  0
 19 21  1  0
 20 22  1  0
 20 24  1  0
 21 37  1  0
 22 39  1  0
 23 24  1  0
 23 39  1  0
 24 32  1  0
 25 30  1  0
 26 31  1  0
 27 31  1  0
 28 30  1  0
 29 40  1  0
 35 39  2  0
 36 39  2  0
M  END
