INS-INS-68e9753a-1
     RDKit          3D

 42 47  0  0  1  0  0  0  0  0999 V2000
   13.6846   -1.7714   21.9655 C   0  0  0  0  0  0  0  0  0  0  0  0
    8.8226   -0.0742   18.6831 C   0  0  0  0  0  0  0  0  0  0  0  0
   13.9303   -0.4781   22.4265 C   0  0  0  0  0  0  0  0  0  0  0  0
   12.3727   -2.2163   21.8025 C   0  0  0  0  0  0  0  0  0  0  0  0
    9.6058   -0.6682   19.6737 C   0  0  0  0  0  0  0  0  0  0  0  0
    7.4447   -0.0004   18.8401 C   0  0  0  0  0  0  0  0  0  0  0  0
   11.5520   -0.0746   22.5619 C   0  0  0  0  0  0  0  0  0  0  0  0
   12.3635    2.8891   23.0482 C   0  0  0  0  0  0  0  0  0  0  0  0
    8.6798    0.3902   23.9219 C   0  0  0  0  0  0  0  0  0  0  0  0
   14.2277    2.0449   23.9362 C   0  0  0  0  0  0  0  0  0  0  0  0
    9.9441    0.0152   26.2609 C   0  0  0  0  0  0  0  0  0  0  0  0
   12.8640    0.3703   22.7247 C   0  0  0  0  0  0  0  0  0  0  0  0
   13.1179    1.7013   23.1998 C   0  0  0  0  0  0  0  0  0  0  0  0
   11.3064   -1.3680   22.1008 C   0  0  0  0  0  0  0  0  0  0  0  0
    9.0287   -1.1738   20.8533 C   0  0  0  0  0  0  0  0  0  0  0  0
    6.8509   -0.5405   19.9779 C   0  0  0  0  0  0  0  0  0  0  0  0
    7.6293   -1.1465   20.9800 C   0  0  0  0  0  0  0  0  0  0  0  0
    9.2421   -0.8217   24.2674 C   0  0  0  0  0  0  0  0  0  0  0  0
   13.0659    3.8740   23.7029 C   0  0  0  0  0  0  0  0  0  0  0  0
    8.8095    1.3967   24.8570 C   0  0  0  0  0  0  0  0  0  0  0  0
    7.2352   -3.3804   24.0535 C   0  0  0  0  0  0  0  0  0  0  0  0
    8.2551    3.8110   25.3265 C   0  0  0  0  0  0  0  0  0  0  0  0
    6.9109   -1.7604   22.1528 C   0  0  0  0  0  0  0  0  0  0  0  0
    4.6514    0.4679   21.1844 C   0  0  0  0  0  0  0  0  0  0  0  0
    4.4804    0.3910   19.0676 C   0  0  0  0  0  0  0  0  0  0  0  0
    9.8692   -1.8559   21.9207 C   0  0  0  0  0  0  0  0  0  0  0  0
    5.2739   -0.4571   20.1011 C   0  0  0  0  0  0  0  0  0  0  0  0
    9.1502   -1.9990   23.2969 C   0  0  0  0  0  0  0  0  0  0  0  0
    3.4925    0.7439   20.2014 C   0  0  0  0  0  0  0  0  0  0  0  0
   12.8275    5.3088   23.9139 C   0  0  0  0  0  0  0  0  0  0  0  0
    5.7514   -3.6474   23.9757 C   0  0  0  0  0  0  0  0  0  0  0  0
    9.8840   -1.0452   25.4329 N   0  0  0  0  0  0  0  0  0  0  0  0
    9.4376    1.2435   26.0412 N   0  0  0  0  0  0  0  0  0  0  0  0
    7.7529   -2.4508   23.1374 N   0  0  0  0  0  0  0  0  0  0  0  0
    7.6019    4.8528   24.6817 N   0  0  0  0  0  0  0  0  0  0  0  0
    8.2541    2.6442   24.5493 N   0  0  0  0  0  0  0  0  0  0  0  0
    7.9116   -3.9790   24.8939 O   0  0  0  0  0  0  0  0  0  0  0  0
    8.7525    3.9555   26.4403 O   0  0  0  0  0  0  0  0  0  0  0  0
   14.2035    3.3676   24.2470 O   0  0  0  0  0  0  0  0  0  0  0  0
    3.0154    2.0077   20.1942 F   0  0  0  0  0  0  0  0  0  0  0  0
    2.4250   -0.0791   20.3176 F   0  0  0  0  0  0  0  0  0  0  0  0
    5.5369   -4.9562   22.8194 Cl  0  0  0  0  0  0  0  0  0  0  0  0
  1  3  2  0
  1  4  1  0
  2  5  2  0
  2  6  1  0
  3 12  1  0
  4 14  2  0
  5 15  1  0
  6 16  2  0
  7 12  2  0
  7 14  1  0
  8 13  1  0
  8 19  2  0
  9 18  2  0
  9 20  1  0
 10 13  2  0
 10 39  1  0
 11 32  2  0
 11 33  1  0
 12 13  1  0
 14 26  1  0
 15 17  2  0
 15 26  1  0
 16 17  1  0
 16 27  1  0
 17 23  1  0
 18 28  1  0
 18 32  1  0
 19 30  1  0
 19 39  1  0
 20 33  2  0
 20 36  1  0
 21 31  1  0
 21 34  1  0
 21 37  2  0
 22 35  1  0
 22 36  1  0
 22 38  2  0
 23 34  1  0
 24 27  1  0
 24 29  1  0
 25 27  1  0
 25 29  1  0
 26 28  1  0
 28 34  1  0
 29 40  1  0
 29 41  1  0
 31 42  1  0
M  END
