JAC-SHE-fb00f511-1
     RDKit          3D

 30 33  0  0  1  0  0  0  0  0999 V2000
    7.7034   -3.7044   23.5799 C   0  0  0  0  0  0  0  0  0  0  0  0
    7.7401   -2.9109   22.4334 C   0  0  0  0  0  0  0  0  0  0  0  0
    8.7834   -3.7050   24.4627 C   0  0  0  0  0  0  0  0  0  0  0  0
    8.8570   -2.1180   22.1695 C   0  0  0  0  0  0  0  0  0  0  0  0
    9.9003   -2.9122   24.1987 C   0  0  0  0  0  0  0  0  0  0  0  0
    5.7612    0.1117   20.4066 C   0  0  0  0  0  0  0  0  0  0  0  0
    9.9371   -2.1187   23.0521 C   0  0  0  0  0  0  0  0  0  0  0  0
   11.0879   -1.3022   22.7804 C   0  0  0  0  0  0  0  0  0  0  0  0
    6.7152    1.0733   20.6262 C   0  0  0  0  0  0  0  0  0  0  0  0
   11.2173   -0.0023   23.2227 C   0  0  0  0  0  0  0  0  0  0  0  0
   13.0639   -0.8620   21.9367 C   0  0  0  0  0  0  0  0  0  0  0  0
    6.8230    3.4610   21.5253 C   0  0  0  0  0  0  0  0  0  0  0  0
    8.1507    4.0382   21.9957 C   0  0  0  0  0  0  0  0  0  0  0  0
    6.9131    1.9586   21.8349 C   0  0  0  0  0  0  0  0  0  0  0  0
    8.6115    3.0419   23.0463 C   0  0  0  0  0  0  0  0  0  0  0  0
   14.3443   -1.0246   21.2143 C   0  0  0  0  0  0  0  0  0  0  0  0
    5.3833   -1.3934   18.4274 C   0  0  0  0  0  0  0  0  0  0  0  0
   12.3256    4.6278   24.0288 C   0  0  0  0  0  0  0  0  0  0  0  0
   10.5732    2.1117   24.3811 C   0  0  0  0  0  0  0  0  0  0  0  0
   10.1025    3.1145   23.3245 C   0  0  0  0  0  0  0  0  0  0  0  0
   12.1456   -1.7967   22.0425 N   0  0  0  0  0  0  0  0  0  0  0  0
    7.5453    1.1530   19.5427 N   0  0  0  0  0  0  0  0  0  0  0  0
    7.1332    0.2630   18.6465 N   0  0  0  0  0  0  0  0  0  0  0  0
    6.0633   -0.3601   19.1663 N   0  0  0  0  0  0  0  0  0  0  0  0
    8.2389    1.7618   22.4435 N   0  0  0  0  0  0  0  0  0  0  0  0
   10.3272    0.7479   23.9738 N   0  0  0  0  0  0  0  0  0  0  0  0
   10.3820    5.6043   22.5791 O   0  0  0  0  0  0  0  0  0  0  0  0
    9.9520    5.1023   25.0152 O   0  0  0  0  0  0  0  0  0  0  0  0
   12.7213    0.6359   22.7009 S   0  0  0  0  0  0  0  0  0  0  0  0
   10.5778    4.7723   23.7500 S   0  0  0  0  0  0  0  0  0  0  0  0
  1  2  2  0
  1  3  1  0
  2  4  1  0
  3  5  2  0
  4  7  2  0
  5  7  1  0
  6  9  2  0
  6 24  1  0
  7  8  1  0
  8 10  2  0
  8 21  1  0
  9 14  1  0
  9 22  1  0
 10 26  1  0
 10 29  1  0
 11 16  1  0
 11 21  2  0
 11 29  1  0
 12 13  1  0
 12 14  1  0
 13 15  1  0
 14 25  1  0
 15 20  1  0
 15 25  1  0
 17 24  1  0
 18 30  1  0
 19 20  1  0
 19 26  1  0
 20 30  1  0
 22 23  2  0
 23 24  1  0
 27 30  2  0
 28 30  2  0
M  END
