JAC-SHE-db4d8af4-1
     RDKit          3D

 32 36  0  0  1  0  0  0  0  0999 V2000
    8.8378   -0.6875   26.8673 C   0  0  0  0  0  0  0  0  0  0  0  0
    4.4051    0.5183   18.9775 C   0  0  0  0  0  0  0  0  0  0  0  0
    8.2810   -1.9273   26.5328 C   0  0  0  0  0  0  0  0  0  0  0  0
    9.3443    0.1563   25.8808 C   0  0  0  0  0  0  0  0  0  0  0  0
    5.0508    0.7886   20.1789 C   0  0  0  0  0  0  0  0  0  0  0  0
    5.1754    0.4523   17.8277 C   0  0  0  0  0  0  0  0  0  0  0  0
    7.1075    0.8948   18.9894 C   0  0  0  0  0  0  0  0  0  0  0  0
    7.9869   -3.2855   23.1521 C   0  0  0  0  0  0  0  0  0  0  0  0
    8.2364   -2.3181   25.1798 C   0  0  0  0  0  0  0  0  0  0  0  0
    7.7577   -3.4707   24.4961 C   0  0  0  0  0  0  0  0  0  0  0  0
    9.3110   -0.2101   24.5322 C   0  0  0  0  0  0  0  0  0  0  0  0
    5.8379   -5.0775   24.8557 C   0  0  0  0  0  0  0  0  0  0  0  0
    8.7513   -1.4522   24.2127 C   0  0  0  0  0  0  0  0  0  0  0  0
    6.4277    0.9818   20.1936 C   0  0  0  0  0  0  0  0  0  0  0  0
    7.1429   -4.6212   25.1216 C   0  0  0  0  0  0  0  0  0  0  0  0
    5.6872   -6.1772   25.6647 C   0  0  0  0  0  0  0  0  0  0  0  0
    8.4745    1.4739   21.5692 C   0  0  0  0  0  0  0  0  0  0  0  0
   11.0091    1.5683   24.0738 C   0  0  0  0  0  0  0  0  0  0  0  0
    9.4475    3.1205   23.1649 C   0  0  0  0  0  0  0  0  0  0  0  0
    9.8623    0.7179   23.5026 C   0  0  0  0  0  0  0  0  0  0  0  0
    8.8058    1.7361   23.0080 C   0  0  0  0  0  0  0  0  0  0  0  0
   10.9490    2.8471   23.2445 C   0  0  0  0  0  0  0  0  0  0  0  0
    4.8439   -4.5151   23.9231 C   0  0  0  0  0  0  0  0  0  0  0  0
    4.5653   -7.1093   25.8672 C   0  0  0  0  0  0  0  0  0  0  0  0
   11.7336    3.9948   23.8568 C   0  0  0  0  0  0  0  0  0  0  0  0
    6.5148    0.6342   17.8026 N   0  0  0  0  0  0  0  0  0  0  0  0
    7.7761   -5.3698   26.0287 N   0  0  0  0  0  0  0  0  0  0  0  0
    8.5867   -2.0654   22.9911 N   0  0  0  0  0  0  0  0  0  0  0  0
    6.8650   -6.3075   26.3399 N   0  0  0  0  0  0  0  0  0  0  0  0
    7.1127    1.2585   21.4005 N   0  0  0  0  0  0  0  0  0  0  0  0
    9.3529    1.4711   20.7129 O   0  0  0  0  0  0  0  0  0  0  0  0
   11.6241    5.1267   23.0098 O   0  0  0  0  0  0  0  0  0  0  0  0
  1  3  2  0
  1  4  1  0
  2  5  2  0
  2  6  1  0
  3  9  1  0
  4 11  2  0
  5 14  1  0
  6 26  2  0
  7 14  2  0
  7 26  1  0
  8 10  2  0
  8 28  1  0
  9 10  1  0
  9 13  2  0
 10 15  1  0
 11 13  1  0
 11 20  1  0
 12 15  1  0
 12 16  2  0
 12 23  1  0
 13 28  1  0
 14 30  1  0
 15 27  2  0
 16 24  1  0
 16 29  1  0
 17 21  1  0
 17 30  1  0
 17 31  2  0
 18 20  1  0
 18 22  1  0
 19 21  1  0
 19 22  1  0
 20 21  1  0
 22 25  1  0
 25 32  1  0
 27 29  1  0
M  END
