JAG-SYN-9c2cd0bd-9
     RDKit          3D

 18 19  0  0  0  0  0  0  0  0999 V2000
   13.3985   -1.0151   25.3280 C   0  0  0  0  0  0  0  0  0  0  0  0
   13.3911   -2.2963   25.8792 C   0  0  0  0  0  0  0  0  0  0  0  0
   12.4066   -0.6400   24.4218 C   0  0  0  0  0  0  0  0  0  0  0  0
   12.3919   -3.2025   25.5243 C   0  0  0  0  0  0  0  0  0  0  0  0
   11.4073   -1.5462   24.0668 C   0  0  0  0  0  0  0  0  0  0  0  0
   11.4000   -2.8275   24.6181 C   0  0  0  0  0  0  0  0  0  0  0  0
    9.3320   -3.5409   23.3775 C   0  0  0  0  0  0  0  0  0  0  0  0
    7.3857   -4.7190   24.3387 C   0  0  0  0  0  0  0  0  0  0  0  0
    7.8754   -4.8508   21.8636 C   0  0  0  0  0  0  0  0  0  0  0  0
    6.4094   -5.8788   24.1989 C   0  0  0  0  0  0  0  0  0  0  0  0
    6.8967   -6.0103   21.7404 C   0  0  0  0  0  0  0  0  0  0  0  0
    8.4744   -4.7638   23.2670 C   0  0  0  0  0  0  0  0  0  0  0  0
    4.7880   -4.8793   22.5430 C   0  0  0  0  0  0  0  0  0  0  0  0
    3.4538   -5.3120   23.1214 C   0  0  0  0  0  0  0  0  0  0  0  0
   10.3863   -3.7469   24.2583 N   0  0  0  0  0  0  0  0  0  0  0  0
    5.8308   -5.9319   22.8060 N   0  0  0  0  0  0  0  0  0  0  0  0
    9.0693   -2.5293   22.7353 O   0  0  0  0  0  0  0  0  0  0  0  0
    2.8770   -6.8230   22.3769 Cl  0  0  0  0  0  0  0  0  0  0  0  0
  1  2  2  0
  1  3  1  0
  2  4  1  0
  3  5  2  0
  4  6  2  0
  5  6  1  0
  6 15  1  0
  7 12  1  0
  7 15  1  0
  7 17  2  0
  8 10  1  0
  8 12  1  0
  9 11  1  0
  9 12  1  0
 10 16  1  0
 11 16  1  0
 13 14  1  0
 13 16  1  0
 14 18  1  0
M  CHG  1  16   1
M  END
