JAG-SYN-9c2cd0bd-6
     RDKit          3D

 18 20  0  0  0  0  0  0  0  0999 V2000
    9.9272    8.0918   24.7125 C   0  0  0  0  0  0  0  0  0  0  0  0
    9.1527    7.5070   23.7107 C   0  0  0  0  0  0  0  0  0  0  0  0
   11.1319    7.5026   25.0961 C   0  0  0  0  0  0  0  0  0  0  0  0
    9.5827    6.3328   23.0926 C   0  0  0  0  0  0  0  0  0  0  0  0
   11.5620    6.3284   24.4781 C   0  0  0  0  0  0  0  0  0  0  0  0
   14.1571   -0.9051   22.8404 C   0  0  0  0  0  0  0  0  0  0  0  0
   13.6831   -2.0814   23.3810 C   0  0  0  0  0  0  0  0  0  0  0  0
   13.2144    0.1622   22.9553 C   0  0  0  0  0  0  0  0  0  0  0  0
   10.7874    5.7435   23.4763 C   0  0  0  0  0  0  0  0  0  0  0  0
   12.0583   -0.2639   23.5766 C   0  0  0  0  0  0  0  0  0  0  0  0
   12.3940    3.8336   23.1074 C   0  0  0  0  0  0  0  0  0  0  0  0
   13.4118    1.5667   22.4766 C   0  0  0  0  0  0  0  0  0  0  0  0
   10.8843    0.6142   23.8454 C   0  0  0  0  0  0  0  0  0  0  0  0
   10.9390    1.8250   22.9082 C   0  0  0  0  0  0  0  0  0  0  0  0
   12.2808    2.4401   22.8752 N   0  0  0  0  0  0  0  0  0  0  0  0
   11.2241    4.5507   22.8482 N   0  0  0  0  0  0  0  0  0  0  0  0
   13.4375    4.3413   23.5247 O   0  0  0  0  0  0  0  0  0  0  0  0
   12.1062   -1.9024   24.0247 S   0  0  0  0  0  0  0  0  0  0  0  0
  1  2  2  0
  1  3  1  0
  2  4  1  0
  3  5  2  0
  4  9  2  0
  5  9  1  0
  6  7  2  0
  6  8  1  0
  7 18  1  0
  8 10  2  0
  8 12  1  0
  9 16  1  0
 10 13  1  0
 10 18  1  0
 11 15  1  0
 11 16  1  0
 11 17  2  0
 12 15  1  0
 13 14  1  0
 14 15  1  0
M  END
