JAG-SYN-9c2cd0bd-5
     RDKit          3D

 18 20  0  0  1  0  0  0  0  0999 V2000
   13.4038   -0.7380   25.2663 C   0  0  0  0  0  0  0  0  0  0  0  0
   13.6144   -1.8339   26.1031 C   0  0  0  0  0  0  0  0  0  0  0  0
   12.3784   -0.7690   24.3211 C   0  0  0  0  0  0  0  0  0  0  0  0
   12.7996   -2.9608   25.9948 C   0  0  0  0  0  0  0  0  0  0  0  0
   11.5637   -1.8960   24.2128 C   0  0  0  0  0  0  0  0  0  0  0  0
    6.7005   -5.8886   21.3360 C   0  0  0  0  0  0  0  0  0  0  0  0
    5.4352   -5.3426   21.3498 C   0  0  0  0  0  0  0  0  0  0  0  0
    7.3607   -5.7532   22.5949 C   0  0  0  0  0  0  0  0  0  0  0  0
   11.7742   -2.9919   25.0496 C   0  0  0  0  0  0  0  0  0  0  0  0
    6.5570   -5.1103   23.5160 C   0  0  0  0  0  0  0  0  0  0  0  0
    9.8906   -4.3329   24.0607 C   0  0  0  0  0  0  0  0  0  0  0  0
    8.7357   -6.2487   22.9307 C   0  0  0  0  0  0  0  0  0  0  0  0
    6.9489   -4.7828   24.9206 C   0  0  0  0  0  0  0  0  0  0  0  0
    8.1769   -5.6045   25.3470 C   0  0  0  0  0  0  0  0  0  0  0  0
    9.2650   -5.6839   24.2615 C   0  0  0  0  0  0  0  0  0  0  0  0
   10.9477   -4.1352   24.9399 N   0  0  0  0  0  0  0  0  0  0  0  0
    9.4640   -3.5641   23.2052 O   0  0  0  0  0  0  0  0  0  0  0  0
    5.0427   -4.6694   22.8741 S   0  0  0  0  0  0  0  0  0  0  0  0
  1  2  2  0
  1  3  1  0
  2  4  1  0
  3  5  2  0
  4  9  2  0
  5  9  1  0
  6  7  2  0
  6  8  1  0
  7 18  1  0
  8 10  2  0
  8 12  1  0
  9 16  1  0
 10 13  1  0
 10 18  1  0
 11 15  1  0
 11 16  1  0
 11 17  2  0
 12 15  1  0
 13 14  1  0
 14 15  1  0
M  END
