JAG-SYN-9c2cd0bd-1
     RDKit          3D

 21 22  0  0  0  0  0  0  0  0999 V2000
   13.0195    1.5591   23.7204 C   0  0  0  0  0  0  0  0  0  0  0  0
   13.1249    0.4810   22.8416 C   0  0  0  0  0  0  0  0  0  0  0  0
   11.9806    1.6020   24.6502 C   0  0  0  0  0  0  0  0  0  0  0  0
   12.1912   -0.5540   22.8924 C   0  0  0  0  0  0  0  0  0  0  0  0
   11.0469    0.5670   24.7010 C   0  0  0  0  0  0  0  0  0  0  0  0
   11.1521   -0.5110   23.8221 C   0  0  0  0  0  0  0  0  0  0  0  0
    5.5844   -0.2192   17.3880 C   0  0  0  0  0  0  0  0  0  0  0  0
    6.6490   -0.5607   18.1168 C   0  0  0  0  0  0  0  0  0  0  0  0
    6.5277   -1.6816   19.0809 C   0  0  0  0  0  0  0  0  0  0  0  0
    8.2540   -0.4893   20.4651 C   0  0  0  0  0  0  0  0  0  0  0  0
    7.3030   -2.6680   21.2022 C   0  0  0  0  0  0  0  0  0  0  0  0
    8.6964   -0.4406   21.9218 C   0  0  0  0  0  0  0  0  0  0  0  0
    8.6916   -2.9558   21.7565 C   0  0  0  0  0  0  0  0  0  0  0  0
    7.3368   -1.6018   20.2053 N   0  0  0  0  0  0  0  0  0  0  0  0
    9.3371   -1.7271   22.3056 N   0  0  0  0  0  0  0  0  0  0  0  0
    5.7357   -2.5642   18.7790 O   0  0  0  0  0  0  0  0  0  0  0  0
   10.6956   -3.0647   24.0309 O   0  0  0  0  0  0  0  0  0  0  0  0
    8.9385   -1.4447   24.8283 O   0  0  0  0  0  0  0  0  0  0  0  0
   12.3025   -1.5842   22.0422 F   0  0  0  0  0  0  0  0  0  0  0  0
   10.0534    0.6193   25.5993 F   0  0  0  0  0  0  0  0  0  0  0  0
    9.9706   -1.8209   23.8866 S   0  0  0  0  0  0  0  0  0  0  0  0
  1  2  2  0
  1  3  1  0
  2  4  1  0
  3  5  2  0
  4  6  2  0
  4 19  1  0
  5  6  1  0
  5 20  1  0
  6 21  1  0
  7  8  2  0
  8  9  1  0
  9 14  1  0
  9 16  2  0
 10 12  1  0
 10 14  1  0
 11 13  1  0
 11 14  1  0
 12 15  1  0
 13 15  1  0
 15 21  1  0
 17 21  2  0
 18 21  2  0
M  END
