JAG-SYN-9c2cd0bd-8
     RDKit          3D

 21 22  0  0  0  0  0  0  0  0999 V2000
    4.8621    1.6555   19.9835 B   0  0  0  0  0  0  0  0  0  0  0  0
    5.7991   -5.5855   26.3426 C   0  0  0  0  0  0  0  0  0  0  0  0
    6.9322   -4.7750   26.4110 C   0  0  0  0  0  0  0  0  0  0  0  0
    5.0823   -5.6832   25.1499 C   0  0  0  0  0  0  0  0  0  0  0  0
    7.3485   -4.0620   25.2867 C   0  0  0  0  0  0  0  0  0  0  0  0
    5.4987   -4.9702   24.0256 C   0  0  0  0  0  0  0  0  0  0  0  0
    6.6318   -4.1597   24.0940 C   0  0  0  0  0  0  0  0  0  0  0  0
    6.4624   -3.4178   21.6971 C   0  0  0  0  0  0  0  0  0  0  0  0
    6.7140    0.8546   18.3034 C   0  0  0  0  0  0  0  0  0  0  0  0
    6.5462   -2.5550   19.3821 C   0  0  0  0  0  0  0  0  0  0  0  0
    7.2578   -1.0984   21.3131 C   0  0  0  0  0  0  0  0  0  0  0  0
    7.2099   -1.5663   18.4272 C   0  0  0  0  0  0  0  0  0  0  0  0
    7.9074   -0.1389   20.3180 C   0  0  0  0  0  0  0  0  0  0  0  0
    7.2148   -2.5252   20.7593 C   0  0  0  0  0  0  0  0  0  0  0  0
    6.1454    1.9844   19.1240 C   0  0  0  0  0  0  0  0  0  0  0  0
    7.2480   -0.2230   19.0089 N   0  0  0  0  0  0  0  0  0  0  0  0
    7.0545   -3.4364   22.9535 N   0  0  0  0  0  0  0  0  0  0  0  0
    5.4590   -4.0172   21.3245 O   0  0  0  0  0  0  0  0  0  0  0  0
    6.6819    0.9286   17.0723 O   0  0  0  0  0  0  0  0  0  0  0  0
    4.2373    2.6629   20.6739 O   0  0  0  0  0  0  0  0  0  0  0  0
    4.3965    0.3662   20.0356 O   0  0  0  0  0  0  0  0  0  0  0  0
  1 15  1  0
  1 20  1  0
  1 21  1  0
  2  3  2  0
  2  4  1  0
  3  5  1  0
  4  6  2  0
  5  7  2  0
  6  7  1  0
  7 17  1  0
  8 14  1  0
  8 17  1  0
  8 18  2  0
  9 15  1  0
  9 16  1  0
  9 19  2  0
 10 12  1  0
 10 14  1  0
 11 13  1  0
 11 14  1  0
 12 16  1  0
 13 16  1  0
M  END
