JAG-SYN-9c2cd0bd-3
     RDKit          3D

 19 20  0  0  0  0  0  0  0  0999 V2000
   14.2582   -0.9583   25.4488 C   0  0  0  0  0  0  0  0  0  0  0  0
   14.1486   -2.1708   26.1296 C   0  0  0  0  0  0  0  0  0  0  0  0
   13.3411   -0.6344   24.4490 C   0  0  0  0  0  0  0  0  0  0  0  0
   13.1218   -3.0594   25.8106 C   0  0  0  0  0  0  0  0  0  0  0  0
   12.3144   -1.5230   24.1299 C   0  0  0  0  0  0  0  0  0  0  0  0
   12.2047   -2.7355   24.8107 C   0  0  0  0  0  0  0  0  0  0  0  0
    2.8676   -5.6782   23.2452 C   0  0  0  0  0  0  0  0  0  0  0  0
    4.1786   -5.9100   23.3403 C   0  0  0  0  0  0  0  0  0  0  0  0
    5.0899   -5.2623   22.3739 C   0  0  0  0  0  0  0  0  0  0  0  0
   10.1730   -3.4753   23.5265 C   0  0  0  0  0  0  0  0  0  0  0  0
    8.1312   -4.4448   24.5098 C   0  0  0  0  0  0  0  0  0  0  0  0
    8.7346   -4.8816   22.0659 C   0  0  0  0  0  0  0  0  0  0  0  0
    6.8841   -5.2524   24.1652 C   0  0  0  0  0  0  0  0  0  0  0  0
    7.3204   -4.3396   21.8810 C   0  0  0  0  0  0  0  0  0  0  0  0
    9.2549   -4.6605   23.4918 C   0  0  0  0  0  0  0  0  0  0  0  0
    6.3805   -4.9697   22.8128 N   0  0  0  0  0  0  0  0  0  0  0  0
   11.1631   -3.6371   24.4872 N   0  0  0  0  0  0  0  0  0  0  0  0
    4.6620   -5.0281   21.2429 O   0  0  0  0  0  0  0  0  0  0  0  0
   10.0034   -2.5270   22.7670 O   0  0  0  0  0  0  0  0  0  0  0  0
  1  2  2  0
  1  3  1  0
  2  4  1  0
  3  5  2  0
  4  6  2  0
  5  6  1  0
  6 17  1  0
  7  8  2  0
  8  9  1  0
  9 16  1  0
  9 18  2  0
 10 15  1  0
 10 17  1  0
 10 19  2  0
 11 13  1  0
 11 15  1  0
 12 14  1  0
 12 15  1  0
 13 16  1  0
 14 16  1  0
M  END
