JAN-LUN-04aedcc0-1
     RDKit          3D

 33 35  0  0  1  0  0  0  0  0999 V2000
    6.5921   -4.6122   20.6056 C   0  0  0  0  0  0  0  0  0  0  0  0
    6.1102   -5.9211   20.6079 C   0  0  0  0  0  0  0  0  0  0  0  0
    5.0715   -3.8561   28.2933 C   0  0  0  0  0  0  0  0  0  0  0  0
    5.2352   -5.5951   22.8362 C   0  0  0  0  0  0  0  0  0  0  0  0
    4.7223   -2.5237   30.2322 C   0  0  0  0  0  0  0  0  0  0  0  0
    4.8404   -1.4917   28.1830 C   0  0  0  0  0  0  0  0  0  0  0  0
    6.3956   -3.7947   21.7187 C   0  0  0  0  0  0  0  0  0  0  0  0
    4.9124   -3.7768   29.6723 C   0  0  0  0  0  0  0  0  0  0  0  0
    5.0362   -2.6963   27.5271 C   0  0  0  0  0  0  0  0  0  0  0  0
    5.7172   -4.2861   22.8339 C   0  0  0  0  0  0  0  0  0  0  0  0
    5.4318   -6.4126   21.7232 C   0  0  0  0  0  0  0  0  0  0  0  0
   10.0091   -0.4295   22.1098 C   0  0  0  0  0  0  0  0  0  0  0  0
    7.0587   -6.7806   28.9746 C   0  0  0  0  0  0  0  0  0  0  0  0
    5.4015   -3.8738   25.3137 C   0  0  0  0  0  0  0  0  0  0  0  0
    8.2514   -0.1034   20.4029 C   0  0  0  0  0  0  0  0  0  0  0  0
    8.4484   -2.3315   21.4651 C   0  0  0  0  0  0  0  0  0  0  0  0
    6.7461   -0.1171   20.6071 C   0  0  0  0  0  0  0  0  0  0  0  0
    6.9295   -2.3790   21.6878 C   0  0  0  0  0  0  0  0  0  0  0  0
    4.9452   -4.9991   30.5191 C   0  0  0  0  0  0  0  0  0  0  0  0
   10.6594   -1.3534   23.1087 C   0  0  0  0  0  0  0  0  0  0  0  0
    7.3734   -5.6268   29.9312 C   0  0  0  0  0  0  0  0  0  0  0  0
    6.3468   -5.3840   31.0365 C   0  0  0  0  0  0  0  0  0  0  0  0
    4.6821   -1.3750   29.5206 N   0  0  0  0  0  0  0  0  0  0  0  0
    8.9329   -0.9461   21.3873 N   0  0  0  0  0  0  0  0  0  0  0  0
    5.1959   -2.7443   26.1220 N   0  0  0  0  0  0  0  0  0  0  0  0
    5.5104   -3.4827   23.9581 N   0  0  0  0  0  0  0  0  0  0  0  0
    6.2665   -1.5314   20.6307 N   0  0  0  0  0  0  0  0  0  0  0  0
    6.4821   -7.7816   29.4829 O   0  0  0  0  0  0  0  0  0  0  0  0
   10.4440    0.7177   21.9792 O   0  0  0  0  0  0  0  0  0  0  0  0
    7.4061   -6.5766   27.7763 O   0  0  0  0  0  0  0  0  0  0  0  0
    5.4765   -5.0303   25.7164 O   0  0  0  0  0  0  0  0  0  0  0  0
    4.9616   -7.6899   21.7250 O   0  0  0  0  0  0  0  0  0  0  0  0
   11.9896   -0.4566   23.8326 Cl  0  0  0  0  0  0  0  0  0  0  0  0
  1  2  2  0
  1  7  1  0
  2 11  1  0
  3  8  2  0
  3  9  1  0
  4 10  1  0
  4 11  2  0
  5  8  1  0
  5 23  2  0
  6  9  2  0
  6 23  1  0
  7 10  2  0
  7 18  1  0
  8 19  1  0
  9 25  1  0
 10 26  1  0
 11 32  1  0
 12 20  1  0
 12 24  1  0
 12 29  2  0
 13 21  1  0
 13 28  1  0
 13 30  2  0
 14 25  1  0
 14 26  1  0
 14 31  2  0
 15 17  1  0
 15 24  1  0
 16 18  1  0
 16 24  1  0
 17 27  1  0
 18 27  1  0
 19 22  1  0
 20 33  1  0
 21 22  1  0
M  CHG  2  27   1  28  -1
M  END
