JAN-GHE-1d98ec1c-5
     RDKit          3D

 24 26  0  0  0  0  0  0  0  0999 V2000
   11.9388   -1.4102   22.8224 C   0  0  0  0  0  0  0  0  0  0  0  0
   12.8084    0.8744   22.6625 C   0  0  0  0  0  0  0  0  0  0  0  0
   10.9623   -2.2938   23.2732 C   0  0  0  0  0  0  0  0  0  0  0  0
   12.6820    2.2243   22.9570 C   0  0  0  0  0  0  0  0  0  0  0  0
    9.7869   -0.4449   24.2852 C   0  0  0  0  0  0  0  0  0  0  0  0
   11.8398   -0.0370   23.1040 C   0  0  0  0  0  0  0  0  0  0  0  0
   10.7490    0.4610   23.8470 C   0  0  0  0  0  0  0  0  0  0  0  0
    9.8851   -1.8101   24.0054 C   0  0  0  0  0  0  0  0  0  0  0  0
   11.5804    2.6172   23.6897 C   0  0  0  0  0  0  0  0  0  0  0  0
    6.4686    6.2493   22.7720 C   0  0  0  0  0  0  0  0  0  0  0  0
    8.8946    6.7185   22.8956 C   0  0  0  0  0  0  0  0  0  0  0  0
    8.1827    4.5278   22.0197 C   0  0  0  0  0  0  0  0  0  0  0  0
    9.8922    6.0452   23.8267 C   0  0  0  0  0  0  0  0  0  0  0  0
    9.1716    3.8211   22.9369 C   0  0  0  0  0  0  0  0  0  0  0  0
    5.3811    5.2637   22.4260 C   0  0  0  0  0  0  0  0  0  0  0  0
   11.4024    4.0672   24.0316 C   0  0  0  0  0  0  0  0  0  0  0  0
   10.6237    1.7705   24.1343 N   0  0  0  0  0  0  0  0  0  0  0  0
    7.7819    5.8225   22.5806 N   0  0  0  0  0  0  0  0  0  0  0  0
    7.5614   -2.8839   23.2624 N   0  0  0  0  0  0  0  0  0  0  0  0
   10.3415    4.7406   23.2074 N   0  0  0  0  0  0  0  0  0  0  0  0
    6.1582    7.3633   23.2017 O   0  0  0  0  0  0  0  0  0  0  0  0
    9.2361   -4.2390   24.6782 O   0  0  0  0  0  0  0  0  0  0  0  0
    8.0037   -2.3125   25.7352 O   0  0  0  0  0  0  0  0  0  0  0  0
    8.6534   -2.9085   24.5762 S   0  0  0  0  0  0  0  0  0  0  0  0
  1  3  2  0
  1  6  1  0
  2  4  1  0
  2  6  2  0
  3  8  1  0
  4  9  2  0
  5  7  1  0
  5  8  2  0
  6  7  1  0
  7 17  2  0
  8 24  1  0
  9 16  1  0
  9 17  1  0
 10 15  1  0
 10 18  1  0
 10 21  2  0
 11 13  1  0
 11 18  1  0
 12 14  1  0
 12 18  1  0
 13 20  1  0
 14 20  1  0
 16 20  1  0
 19 24  1  0
 22 24  2  0
 23 24  2  0
M  CHG  1  20   1
M  END
