JAN-GHE-4287bd1a-4
     RDKit          3D

 27 29  0  0  1  0  0  0  0  0999 V2000
    5.9868   -1.3703   18.4689 C   0  0  0  0  0  0  0  0  0  0  0  0
    9.5847   -4.2924   24.7169 C   0  0  0  0  0  0  0  0  0  0  0  0
   13.1227    1.5505   23.9335 C   0  0  0  0  0  0  0  0  0  0  0  0
   13.6670    0.9122   22.8245 C   0  0  0  0  0  0  0  0  0  0  0  0
   12.0298    0.9967   24.6065 C   0  0  0  0  0  0  0  0  0  0  0  0
   13.1358   -0.2932   22.3589 C   0  0  0  0  0  0  0  0  0  0  0  0
   11.4737   -0.2205   24.1569 C   0  0  0  0  0  0  0  0  0  0  0  0
   12.0380   -0.8437   23.0396 C   0  0  0  0  0  0  0  0  0  0  0  0
   10.1523   -1.9835   24.0447 C   0  0  0  0  0  0  0  0  0  0  0  0
    6.8383    0.3603   19.8904 C   0  0  0  0  0  0  0  0  0  0  0  0
    6.4219   -0.8991   19.7383 C   0  0  0  0  0  0  0  0  0  0  0  0
    6.4219   -1.8057   20.9165 C   0  0  0  0  0  0  0  0  0  0  0  0
    7.3121    0.1150   22.2654 C   0  0  0  0  0  0  0  0  0  0  0  0
    8.0208   -3.0508   23.2394 C   0  0  0  0  0  0  0  0  0  0  0  0
    6.5339    3.1974   21.0487 C   0  0  0  0  0  0  0  0  0  0  0  0
    6.8656   -2.0673   23.3054 C   0  0  0  0  0  0  0  0  0  0  0  0
    7.7032    2.2740   21.1004 C   0  0  0  0  0  0  0  0  0  0  0  0
    9.0439   -2.9628   24.3729 C   0  0  0  0  0  0  0  0  0  0  0  0
    5.6318   -1.7543   17.4334 N   0  0  0  0  0  0  0  0  0  0  0  0
   10.0086   -5.3376   24.9905 N   0  0  0  0  0  0  0  0  0  0  0  0
   10.3947   -0.8852   24.7211 N   0  0  0  0  0  0  0  0  0  0  0  0
    7.2735    0.8785   21.0889 N   0  0  0  0  0  0  0  0  0  0  0  0
    6.8647   -1.2244   22.1143 N   0  0  0  0  0  0  0  0  0  0  0  0
    6.0520   -2.9724   20.7902 O   0  0  0  0  0  0  0  0  0  0  0  0
    7.7037    0.5645   23.3469 O   0  0  0  0  0  0  0  0  0  0  0  0
    8.1339   -3.8635   22.3206 O   0  0  0  0  0  0  0  0  0  0  0  0
   11.1741   -2.2989   22.7096 S   0  0  0  0  0  0  0  0  0  0  0  0
  1 11  1  0
  1 19  3  0
  2 18  1  0
  2 20  3  0
  3  4  2  0
  3  5  1  0
  4  6  1  0
  5  7  2  0
  6  8  2  0
  7  8  1  0
  7 21  1  0
  8 27  1  0
  9 18  1  0
  9 21  2  0
  9 27  1  0
 10 11  2  0
 10 22  1  0
 11 12  1  0
 12 23  1  0
 12 24  2  0
 13 22  1  0
 13 23  1  0
 13 25  2  0
 14 16  1  0
 14 18  1  0
 14 26  2  0
 15 17  1  0
 16 23  1  0
 17 22  1  0
M  END
