JAN-GHE-fd8d85a5-2
     RDKit          3D

 26 28  0  0  0  0  0  0  0  0999 V2000
   13.4408   -0.6551   24.4562 C   0  0  0  0  0  0  0  0  0  0  0  0
   14.0547   -1.6333   24.7859 C   0  0  0  0  0  0  0  0  0  0  0  0
    9.5517    7.3943   24.9548 C   0  0  0  0  0  0  0  0  0  0  0  0
    9.2465    7.2588   23.6006 C   0  0  0  0  0  0  0  0  0  0  0  0
   10.2378    6.3783   25.6202 C   0  0  0  0  0  0  0  0  0  0  0  0
    9.6272    6.1073   22.9116 C   0  0  0  0  0  0  0  0  0  0  0  0
   10.6185    5.2268   24.9313 C   0  0  0  0  0  0  0  0  0  0  0  0
   11.3252    0.5500   24.1576 C   0  0  0  0  0  0  0  0  0  0  0  0
   13.3639    1.6254   23.5712 C   0  0  0  0  0  0  0  0  0  0  0  0
   12.7117    0.5060   24.0624 C   0  0  0  0  0  0  0  0  0  0  0  0
   10.6430    1.6959   23.7643 C   0  0  0  0  0  0  0  0  0  0  0  0
   10.3132    5.0912   23.5770 C   0  0  0  0  0  0  0  0  0  0  0  0
   11.3878    2.7622   23.2867 C   0  0  0  0  0  0  0  0  0  0  0  0
    5.3515    1.2220   19.8649 C   0  0  0  0  0  0  0  0  0  0  0  0
    6.5026    2.8430   21.3375 C   0  0  0  0  0  0  0  0  0  0  0  0
    7.8418    1.0288   20.3434 C   0  0  0  0  0  0  0  0  0  0  0  0
    7.0866    2.5491   22.7116 C   0  0  0  0  0  0  0  0  0  0  0  0
    8.4479    0.7086   21.7031 C   0  0  0  0  0  0  0  0  0  0  0  0
   14.8019   -2.8246   25.1863 C   0  0  0  0  0  0  0  0  0  0  0  0
    5.4560   -0.0186   19.0142 C   0  0  0  0  0  0  0  0  0  0  0  0
    9.1468    1.7397   23.8673 C   0  0  0  0  0  0  0  0  0  0  0  0
   12.7355    2.7564   23.1795 N   0  0  0  0  0  0  0  0  0  0  0  0
    6.5210    1.6492   20.4921 N   0  0  0  0  0  0  0  0  0  0  0  0
   10.6966    3.9323   22.8840 N   0  0  0  0  0  0  0  0  0  0  0  0
    8.4718    1.9656   22.5438 N   0  0  0  0  0  0  0  0  0  0  0  0
    4.2620    1.7911   19.9697 O   0  0  0  0  0  0  0  0  0  0  0  0
  1  2  3  0
  1 10  1  0
  2 19  1  0
  3  4  2  0
  3  5  1  0
  4  6  1  0
  5  7  2  0
  6 12  2  0
  7 12  1  0
  8 10  2  0
  8 11  1  0
  9 10  1  0
  9 22  2  0
 11 13  2  0
 11 21  1  0
 12 24  1  0
 13 22  1  0
 13 24  1  0
 14 20  1  0
 14 23  1  0
 14 26  2  0
 15 17  1  0
 15 23  1  0
 16 18  1  0
 16 23  1  0
 17 25  1  0
 18 25  1  0
 21 25  1  0
M  CHG  1  25   1
M  END
