JAN-UNI-2e92c4b1-4
     RDKit          3D

 18 19  0  0  0  0  0  0  0  0999 V2000
    6.6864    0.3094   18.4774 C   0  0  0  0  0  0  0  0  0  0  0  0
    9.9493   -4.6722   24.3183 C   0  0  0  0  0  0  0  0  0  0  0  0
    7.4183   -0.7038   20.5879 C   0  0  0  0  0  0  0  0  0  0  0  0
    9.2700   -5.3251   25.3613 C   0  0  0  0  0  0  0  0  0  0  0  0
    5.7981   -1.8319   19.2617 C   0  0  0  0  0  0  0  0  0  0  0  0
    6.6333   -0.7410   19.4409 C   0  0  0  0  0  0  0  0  0  0  0  0
    7.3451   -1.7440   21.5078 C   0  0  0  0  0  0  0  0  0  0  0  0
    6.4778   -2.7899   21.2362 C   0  0  0  0  0  0  0  0  0  0  0  0
    9.0323   -3.7707   23.8464 C   0  0  0  0  0  0  0  0  0  0  0  0
    6.6951   -5.7680   20.7437 C   0  0  0  0  0  0  0  0  0  0  0  0
    8.1890   -1.7015   22.7362 C   0  0  0  0  0  0  0  0  0  0  0  0
    5.8905   -5.1408   21.8308 C   0  0  0  0  0  0  0  0  0  0  0  0
    6.7296    1.1640   17.6934 N   0  0  0  0  0  0  0  0  0  0  0  0
    5.6997   -2.8610   20.1329 N   0  0  0  0  0  0  0  0  0  0  0  0
    8.0267   -4.8639   25.5238 N   0  0  0  0  0  0  0  0  0  0  0  0
    6.4002   -3.8527   22.1707 N   0  0  0  0  0  0  0  0  0  0  0  0
    9.0805   -2.8299   22.8281 N   0  0  0  0  0  0  0  0  0  0  0  0
    7.8808   -3.8755   24.5579 O   0  0  0  0  0  0  0  0  0  0  0  0
  1  6  1  0
  1 13  3  0
  2  4  1  0
  2  9  2  0
  3  6  2  0
  3  7  1  0
  4 15  2  0
  5  6  1  0
  5 14  2  0
  7  8  2  0
  7 11  1  0
  8 14  1  0
  8 16  1  0
  9 17  1  0
  9 18  1  0
 10 12  1  0
 11 17  1  0
 12 16  1  0
 15 18  1  0
M  END
