JAN-LUN-04aedcc0-2
     RDKit          3D

 37 40  0  0  1  0  0  0  0  0999 V2000
    9.4000   -0.7020   20.8908 C   0  0  0  0  0  0  0  0  0  0  0  0
    8.2350   -0.4054   20.1835 C   0  0  0  0  0  0  0  0  0  0  0  0
    5.1318   -5.4136   25.6300 C   0  0  0  0  0  0  0  0  0  0  0  0
    6.9749   -1.8511   21.6529 C   0  0  0  0  0  0  0  0  0  0  0  0
    4.9740   -6.9087   27.4729 C   0  0  0  0  0  0  0  0  0  0  0  0
    7.0237   -6.0200   26.9373 C   0  0  0  0  0  0  0  0  0  0  0  0
    9.3525   -1.5733   21.9791 C   0  0  0  0  0  0  0  0  0  0  0  0
    4.3495   -6.2309   26.4383 C   0  0  0  0  0  0  0  0  0  0  0  0
    6.4954   -5.3007   25.8775 C   0  0  0  0  0  0  0  0  0  0  0  0
    8.1400   -2.1478   22.3601 C   0  0  0  0  0  0  0  0  0  0  0  0
    7.0224   -0.9799   20.5646 C   0  0  0  0  0  0  0  0  0  0  0  0
   12.7938   -0.2818   20.2189 C   0  0  0  0  0  0  0  0  0  0  0  0
    2.7417   -6.1631   23.0432 C   0  0  0  0  0  0  0  0  0  0  0  0
    6.9410   -3.6927   23.9711 C   0  0  0  0  0  0  0  0  0  0  0  0
   10.6727    1.3223   25.8019 C   0  0  0  0  0  0  0  0  0  0  0  0
   10.0660   -0.0314   26.1573 C   0  0  0  0  0  0  0  0  0  0  0  0
   11.8741    1.1758   24.8712 C   0  0  0  0  0  0  0  0  0  0  0  0
    9.7063   -0.8332   24.9078 C   0  0  0  0  0  0  0  0  0  0  0  0
   11.8786   -1.9312   21.8128 C   0  0  0  0  0  0  0  0  0  0  0  0
   12.7496    0.2133   22.7097 C   0  0  0  0  0  0  0  0  0  0  0  0
   10.6413   -1.8788   22.7328 C   0  0  0  0  0  0  0  0  0  0  0  0
   11.5159    0.3812   23.6054 C   0  0  0  0  0  0  0  0  0  0  0  0
   10.9183   -0.9912   23.9755 C   0  0  0  0  0  0  0  0  0  0  0  0
    2.8883   -6.3724   26.1993 C   0  0  0  0  0  0  0  0  0  0  0  0
   13.3719    1.0927   19.9947 C   0  0  0  0  0  0  0  0  0  0  0  0
    3.1334   -7.4035   23.8513 C   0  0  0  0  0  0  0  0  0  0  0  0
    2.5030   -7.5166   25.2386 C   0  0  0  0  0  0  0  0  0  0  0  0
    6.2956   -6.8240   27.7442 N   0  0  0  0  0  0  0  0  0  0  0  0
   12.4552   -0.6138   21.5332 N   0  0  0  0  0  0  0  0  0  0  0  0
    7.3180   -4.4779   25.0722 N   0  0  0  0  0  0  0  0  0  0  0  0
    8.0721   -3.0227   23.4473 N   0  0  0  0  0  0  0  0  0  0  0  0
    1.5580   -5.7524   23.1953 O   0  0  0  0  0  0  0  0  0  0  0  0
   12.6393   -1.0340   19.2532 O   0  0  0  0  0  0  0  0  0  0  0  0
    3.6702   -5.6899   22.3276 O   0  0  0  0  0  0  0  0  0  0  0  0
    5.8024   -3.5971   23.5243 O   0  0  0  0  0  0  0  0  0  0  0  0
    5.8857   -0.6901   19.8742 O   0  0  0  0  0  0  0  0  0  0  0  0
   13.7307    1.2139   18.2759 Cl  0  0  0  0  0  0  0  0  0  0  0  0
  1  2  2  0
  1  7  1  0
  2 11  1  0
  3  8  2  0
  3  9  1  0
  4 10  1  0
  4 11  2  0
  5  8  1  0
  5 28  2  0
  6  9  2  0
  6 28  1  0
  7 10  2  0
  7 21  1  0
  8 24  1  0
  9 30  1  0
 10 31  1  0
 11 36  1  0
 12 25  1  0
 12 29  1  0
 12 33  2  0
 13 26  1  0
 13 32  1  0
 13 34  2  0
 14 30  1  0
 14 31  1  0
 14 35  2  0
 15 16  1  0
 15 17  1  0
 16 18  1  0
 17 22  1  0
 18 23  1  0
 19 21  1  0
 19 29  1  0
 20 22  1  0
 20 29  1  0
 21 23  1  0
 22 23  1  0
 24 27  1  0
 25 37  1  0
 26 27  1  0
M  CHG  1  32  -1
M  END
