JAN-GHE-bf40f168-6
     RDKit          3D

 33 36  0  0  0  0  0  0  0  0999 V2000
   13.9342    1.8691   25.5861 C   0  0  0  0  0  0  0  0  0  0  0  0
    3.9621   -4.8823   25.1138 C   0  0  0  0  0  0  0  0  0  0  0  0
    3.4041   -5.3557   23.9263 C   0  0  0  0  0  0  0  0  0  0  0  0
   13.9726   -0.5813   25.5187 C   0  0  0  0  0  0  0  0  0  0  0  0
    5.3002   -4.4899   25.1478 C   0  0  0  0  0  0  0  0  0  0  0  0
    8.4565   -5.0817   24.3992 C   0  0  0  0  0  0  0  0  0  0  0  0
    7.8131   -2.8298   23.8056 C   0  0  0  0  0  0  0  0  0  0  0  0
    9.7910   -4.6819   24.4693 C   0  0  0  0  0  0  0  0  0  0  0  0
    9.1476   -2.4300   23.8758 C   0  0  0  0  0  0  0  0  0  0  0  0
    4.1842   -5.4369   22.7729 C   0  0  0  0  0  0  0  0  0  0  0  0
   13.3543   -1.7824   25.1896 C   0  0  0  0  0  0  0  0  0  0  0  0
   12.0712    0.5695   24.6722 C   0  0  0  0  0  0  0  0  0  0  0  0
   13.3256    0.6215   25.2584 C   0  0  0  0  0  0  0  0  0  0  0  0
    7.4675   -4.1556   24.0673 C   0  0  0  0  0  0  0  0  0  0  0  0
    6.0804   -4.5711   23.9944 C   0  0  0  0  0  0  0  0  0  0  0  0
   10.1365   -3.3561   24.2076 C   0  0  0  0  0  0  0  0  0  0  0  0
    5.5224   -5.0446   22.8069 C   0  0  0  0  0  0  0  0  0  0  0  0
   12.0986   -1.7268   24.6066 C   0  0  0  0  0  0  0  0  0  0  0  0
    5.6774    2.7065   21.2780 C   0  0  0  0  0  0  0  0  0  0  0  0
    6.4381    1.6075   21.2779 C   0  0  0  0  0  0  0  0  0  0  0  0
    6.1299    0.4788   20.3598 C   0  0  0  0  0  0  0  0  0  0  0  0
    5.7561   -2.6933   20.0975 C   0  0  0  0  0  0  0  0  0  0  0  0
    7.8411   -2.9267   20.2212 C   0  0  0  0  0  0  0  0  0  0  0  0
    6.9399   -1.7804   19.7197 C   0  0  0  0  0  0  0  0  0  0  0  0
   14.4295    2.8843   25.8526 N   0  0  0  0  0  0  0  0  0  0  0  0
   11.4388   -0.5778   24.3384 N   0  0  0  0  0  0  0  0  0  0  0  0
    6.6718   -3.5294   20.9399 N   0  0  0  0  0  0  0  0  0  0  0  0
   11.4858   -2.9518   24.2784 N   0  0  0  0  0  0  0  0  0  0  0  0
    7.0276   -0.5581   20.5114 N   0  0  0  0  0  0  0  0  0  0  0  0
    5.1866    0.5042   19.5758 O   0  0  0  0  0  0  0  0  0  0  0  0
    7.7486   -5.7569   21.6623 O   0  0  0  0  0  0  0  0  0  0  0  0
    5.6201   -5.7960   20.3148 O   0  0  0  0  0  0  0  0  0  0  0  0
    6.4658   -5.1687   21.3162 S   0  0  0  0  0  0  0  0  0  0  0  0
  1 13  1  0
  1 25  3  0
  2  3  2  0
  2  5  1  0
  3 10  1  0
  4 11  2  0
  4 13  1  0
  5 15  2  0
  6  8  2  0
  6 14  1  0
  7  9  1  0
  7 14  2  0
  8 16  1  0
  9 16  2  0
 10 17  2  0
 11 18  1  0
 12 13  2  0
 12 26  1  0
 14 15  1  0
 15 17  1  0
 16 28  1  0
 17 33  1  0
 18 26  2  0
 18 28  1  0
 19 20  2  0
 20 21  1  0
 21 29  1  0
 21 30  2  0
 22 24  1  0
 22 27  1  0
 23 24  1  0
 23 27  1  0
 24 29  1  0
 27 33  1  0
 31 33  2  0
 32 33  2  0
M  END
