JAN-LUN-8953ce76-7
     RDKit          3D

 23 24  0  0  0  0  0  0  0  0999 V2000
   12.5768   -0.3612   25.6062 C   0  0  0  0  0  0  0  0  0  0  0  0
   11.7348   -1.3500   25.0973 C   0  0  0  0  0  0  0  0  0  0  0  0
   13.8477   -0.6990   26.0714 C   0  0  0  0  0  0  0  0  0  0  0  0
    7.3178   -4.0852   22.8311 C   0  0  0  0  0  0  0  0  0  0  0  0
   13.4346   -3.0144   25.5189 C   0  0  0  0  0  0  0  0  0  0  0  0
    5.8518   -5.7402   21.9546 C   0  0  0  0  0  0  0  0  0  0  0  0
    7.9276   -6.3804   22.7026 C   0  0  0  0  0  0  0  0  0  0  0  0
    6.0878   -4.4122   22.2713 C   0  0  0  0  0  0  0  0  0  0  0  0
   12.1637   -2.6765   25.0537 C   0  0  0  0  0  0  0  0  0  0  0  0
    8.2610   -5.0823   23.0541 C   0  0  0  0  0  0  0  0  0  0  0  0
   14.2766   -2.0256   26.0278 C   0  0  0  0  0  0  0  0  0  0  0  0
    5.8028   -2.3442   19.1624 C   0  0  0  0  0  0  0  0  0  0  0  0
   10.0093   -3.5289   24.0286 C   0  0  0  0  0  0  0  0  0  0  0  0
    5.0440   -3.3541   22.0172 C   0  0  0  0  0  0  0  0  0  0  0  0
    6.4881   -1.9022   20.4586 C   0  0  0  0  0  0  0  0  0  0  0  0
    5.6261   -1.9661   21.7187 C   0  0  0  0  0  0  0  0  0  0  0  0
    6.7432   -6.7364   22.1566 N   0  0  0  0  0  0  0  0  0  0  0  0
   11.3093   -3.6792   24.5371 N   0  0  0  0  0  0  0  0  0  0  0  0
    9.5019   -4.7858   23.6123 N   0  0  0  0  0  0  0  0  0  0  0  0
    5.4629   -3.5580   19.1000 O   0  0  0  0  0  0  0  0  0  0  0  0
    5.6469   -1.4218   18.3120 O   0  0  0  0  0  0  0  0  0  0  0  0
    9.3954   -2.4694   23.9520 O   0  0  0  0  0  0  0  0  0  0  0  0
   15.5167   -2.3553   26.4819 O   0  0  0  0  0  0  0  0  0  0  0  0
  1  2  2  0
  1  3  1  0
  2  9  1  0
  3 11  2  0
  4  8  2  0
  4 10  1  0
  5  9  2  0
  5 11  1  0
  6  8  1  0
  6 17  2  0
  7 10  2  0
  7 17  1  0
  8 14  1  0
  9 18  1  0
 10 19  1  0
 11 23  1  0
 12 15  1  0
 12 20  1  0
 12 21  2  0
 13 18  1  0
 13 19  1  0
 13 22  2  0
 14 16  1  0
 15 16  1  0
M  CHG  1  20  -1
M  END
