JAN-GHE-1d98ec1c-9
     RDKit          3D

 24 25  0  0  0  0  0  0  0  0999 V2000
    9.6744   -4.5172   25.1308 C   0  0  0  0  0  0  0  0  0  0  0  0
    9.2265   -4.7825   23.8367 C   0  0  0  0  0  0  0  0  0  0  0  0
    8.8232   -4.7159   26.2179 C   0  0  0  0  0  0  0  0  0  0  0  0
    7.0762   -5.4449   24.7167 C   0  0  0  0  0  0  0  0  0  0  0  0
    7.9274   -5.2463   23.6297 C   0  0  0  0  0  0  0  0  0  0  0  0
    7.5241   -5.1797   26.0108 C   0  0  0  0  0  0  0  0  0  0  0  0
    9.3936    0.9033   24.3869 C   0  0  0  0  0  0  0  0  0  0  0  0
    9.9875   -1.1398   22.9979 C   0  0  0  0  0  0  0  0  0  0  0  0
    7.8738   -1.0424   24.2577 C   0  0  0  0  0  0  0  0  0  0  0  0
    9.2240   -1.7381   21.8150 C   0  0  0  0  0  0  0  0  0  0  0  0
    7.1503   -1.6363   23.0496 C   0  0  0  0  0  0  0  0  0  0  0  0
   10.7401    1.4841   24.0352 C   0  0  0  0  0  0  0  0  0  0  0  0
    7.3479   -3.0921   21.1388 C   0  0  0  0  0  0  0  0  0  0  0  0
    9.0982   -0.3516   23.8562 N   0  0  0  0  0  0  0  0  0  0  0  0
    8.0532   -2.4996   22.2745 N   0  0  0  0  0  0  0  0  0  0  0  0
    5.7176   -3.8929   27.4891 N   0  0  0  0  0  0  0  0  0  0  0  0
    7.4657   -5.5199   22.2947 N   0  0  0  0  0  0  0  0  0  0  0  0
    8.6276    1.5477   25.1077 O   0  0  0  0  0  0  0  0  0  0  0  0
    5.4512   -6.4087   26.9938 O   0  0  0  0  0  0  0  0  0  0  0  0
    7.2709   -5.6466   28.5608 O   0  0  0  0  0  0  0  0  0  0  0  0
    5.8034   -5.0675   20.3922 O   0  0  0  0  0  0  0  0  0  0  0  0
    5.3733   -3.9877   22.6281 O   0  0  0  0  0  0  0  0  0  0  0  0
    6.4590   -5.4278   27.3718 S   0  0  0  0  0  0  0  0  0  0  0  0
    6.2961   -4.4596   21.6145 S   0  0  0  0  0  0  0  0  0  0  0  0
  1  2  2  0
  1  3  1  0
  2  5  1  0
  3  6  2  0
  4  5  2  0
  4  6  1  0
  5 17  1  0
  6 23  1  0
  7 12  1  0
  7 14  1  0
  7 18  2  0
  8 10  1  0
  8 14  1  0
  9 11  1  0
  9 14  1  0
 10 15  1  0
 11 15  1  0
 13 15  1  0
 13 24  1  0
 16 23  1  0
 17 24  1  0
 19 23  2  0
 20 23  2  0
 21 24  2  0
 22 24  2  0
M  END
