JAN-GHE-4287bd1a-8
     RDKit          3D

 23 25  0  0  1  0  0  0  0  0999 V2000
    8.6444   -2.5210   25.2456 C   0  0  0  0  0  0  0  0  0  0  0  0
    8.4114   -1.1546   25.4007 C   0  0  0  0  0  0  0  0  0  0  0  0
    9.3510   -2.9866   24.1367 C   0  0  0  0  0  0  0  0  0  0  0  0
    8.8848   -0.2537   24.4469 C   0  0  0  0  0  0  0  0  0  0  0  0
    9.8244   -2.0857   23.1828 C   0  0  0  0  0  0  0  0  0  0  0  0
    7.1355   -1.5230   18.5463 C   0  0  0  0  0  0  0  0  0  0  0  0
    6.8758   -1.1196   19.8348 C   0  0  0  0  0  0  0  0  0  0  0  0
    7.2236    0.6033   18.5055 C   0  0  0  0  0  0  0  0  0  0  0  0
    9.5914   -0.7192   23.3379 C   0  0  0  0  0  0  0  0  0  0  0  0
   11.9980   -1.0572   21.6500 C   0  0  0  0  0  0  0  0  0  0  0  0
   13.1290   -1.5033   22.2059 C   0  0  0  0  0  0  0  0  0  0  0  0
    9.1573    1.0324   21.6592 C   0  0  0  0  0  0  0  0  0  0  0  0
   12.2757    0.6630   23.3556 C   0  0  0  0  0  0  0  0  0  0  0  0
   11.4975    0.2849   22.0971 C   0  0  0  0  0  0  0  0  0  0  0  0
    7.6956    0.8716   22.0679 C   0  0  0  0  0  0  0  0  0  0  0  0
    6.7308    1.1533   20.9159 C   0  0  0  0  0  0  0  0  0  0  0  0
    7.3514   -0.4457   17.7237 N   0  0  0  0  0  0  0  0  0  0  0  0
    6.9361    0.2449   19.7932 N   0  0  0  0  0  0  0  0  0  0  0  0
   10.0833    0.2169   22.3472 N   0  0  0  0  0  0  0  0  0  0  0  0
    9.4537    1.8639   20.7974 O   0  0  0  0  0  0  0  0  0  0  0  0
   13.8921   -0.9799   24.6438 O   0  0  0  0  0  0  0  0  0  0  0  0
   14.8259    0.3962   22.7342 O   0  0  0  0  0  0  0  0  0  0  0  0
   13.7489   -0.3586   23.3429 S   0  0  0  0  0  0  0  0  0  0  0  0
  1  2  2  0
  1  3  1  0
  2  4  1  0
  3  5  2  0
  4  9  2  0
  5  9  1  0
  6  7  2  0
  6 17  1  0
  7 18  1  0
  8 17  2  0
  8 18  1  0
  9 19  1  0
 10 11  2  0
 10 14  1  0
 11 23  1  0
 12 15  1  0
 12 19  1  0
 12 20  2  0
 13 14  1  0
 13 23  1  0
 14 19  1  0
 15 16  1  0
 16 18  1  0
 21 23  2  0
 22 23  2  0
M  END
