JAN-GHE-6413aaf8-4
     RDKit          3D

 32 36  0  0  1  0  0  0  0  0999 V2000
   13.3984   -0.9311   21.8068 C   0  0  0  0  0  0  0  0  0  0  0  0
    9.2258    6.7653   23.8240 C   0  0  0  0  0  0  0  0  0  0  0  0
   13.7474    0.1076   22.6775 C   0  0  0  0  0  0  0  0  0  0  0  0
   12.1663   -1.5723   21.9191 C   0  0  0  0  0  0  0  0  0  0  0  0
   10.4918    6.1899   24.0945 C   0  0  0  0  0  0  0  0  0  0  0  0
    8.6317    6.0077   22.8389 C   0  0  0  0  0  0  0  0  0  0  0  0
   11.6606    1.4093   25.3815 C   0  0  0  0  0  0  0  0  0  0  0  0
   12.8355    0.5027   23.6764 C   0  0  0  0  0  0  0  0  0  0  0  0
   11.2458   -1.1978   22.9021 C   0  0  0  0  0  0  0  0  0  0  0  0
   12.8545    1.4886   24.7024 C   0  0  0  0  0  0  0  0  0  0  0  0
   11.6082   -0.1578   23.7655 C   0  0  0  0  0  0  0  0  0  0  0  0
   10.6329    5.0983   23.2664 C   0  0  0  0  0  0  0  0  0  0  0  0
    5.7790   -0.7792   15.8999 C   0  0  0  0  0  0  0  0  0  0  0  0
    6.1151   -0.4315   17.1439 C   0  0  0  0  0  0  0  0  0  0  0  0
   11.7808    4.1609   23.1628 C   0  0  0  0  0  0  0  0  0  0  0  0
    6.0586   -1.4518   18.2094 C   0  0  0  0  0  0  0  0  0  0  0  0
    6.8507    0.2925   19.8932 C   0  0  0  0  0  0  0  0  0  0  0  0
    6.4116   -1.9689   20.6036 C   0  0  0  0  0  0  0  0  0  0  0  0
    8.7590   -0.2515   21.5017 C   0  0  0  0  0  0  0  0  0  0  0  0
    7.4079   -1.6816   22.9487 C   0  0  0  0  0  0  0  0  0  0  0  0
    7.2995    0.1371   21.3379 C   0  0  0  0  0  0  0  0  0  0  0  0
    6.5439   -1.0895   21.8454 C   0  0  0  0  0  0  0  0  0  0  0  0
   13.9531    2.4316   24.9947 C   0  0  0  0  0  0  0  0  0  0  0  0
    9.9282   -1.9093   22.9947 C   0  0  0  0  0  0  0  0  0  0  0  0
   14.0473    3.6103   24.0090 C   0  0  0  0  0  0  0  0  0  0  0  0
   10.9157    0.4132   24.8093 N   0  0  0  0  0  0  0  0  0  0  0  0
    9.4963    4.9973   22.5075 N   0  0  0  0  0  0  0  0  0  0  0  0
    6.4163   -1.0417   19.4799 N   0  0  0  0  0  0  0  0  0  0  0  0
   12.8540    4.4134   24.0085 N   0  0  0  0  0  0  0  0  0  0  0  0
    8.7573   -0.9993   22.8124 N   0  0  0  0  0  0  0  0  0  0  0  0
   11.7368    3.2465   22.3441 O   0  0  0  0  0  0  0  0  0  0  0  0
    5.6994   -2.5924   17.9185 O   0  0  0  0  0  0  0  0  0  0  0  0
  1  3  2  0
  1  4  1  0
  2  5  1  0
  2  6  2  0
  3  8  1  0
  4  9  2  0
  5 12  2  0
  6 27  1  0
  7 10  2  0
  7 26  1  0
  8 10  1  0
  8 11  2  0
  9 11  1  0
  9 24  1  0
 10 23  1  0
 11 26  1  0
 12 15  1  0
 12 27  1  0
 13 14  2  0
 14 16  1  0
 15 29  1  0
 15 31  2  0
 16 28  1  0
 16 32  2  0
 17 21  1  0
 17 28  1  0
 18 22  1  0
 18 28  1  0
 19 21  1  0
 19 30  1  0
 20 22  1  0
 20 30  1  0
 21 22  1  0
 23 25  1  0
 24 30  1  0
 25 29  1  0
M  CHG  1  30   1
M  END
