JAN-GHE-6413aaf8-2
     RDKit          3D

 29 32  0  0  0  0  0  0  0  0999 V2000
   10.9472   -1.7687   21.8531 C   0  0  0  0  0  0  0  0  0  0  0  0
    6.6159    0.5914   18.0874 C   0  0  0  0  0  0  0  0  0  0  0  0
    9.7465   -2.4588   22.0556 C   0  0  0  0  0  0  0  0  0  0  0  0
   11.5378   -1.0462   22.8880 C   0  0  0  0  0  0  0  0  0  0  0  0
    6.3070   -0.7663   18.3483 C   0  0  0  0  0  0  0  0  0  0  0  0
    6.7207    1.2305   19.3031 C   0  0  0  0  0  0  0  0  0  0  0  0
    7.8684   -2.5876   25.1887 C   0  0  0  0  0  0  0  0  0  0  0  0
    9.1351   -2.4166   23.3244 C   0  0  0  0  0  0  0  0  0  0  0  0
   10.9497   -0.9898   24.1548 C   0  0  0  0  0  0  0  0  0  0  0  0
    7.9492   -2.9806   23.8727 C   0  0  0  0  0  0  0  0  0  0  0  0
    9.7495   -1.6845   24.3426 C   0  0  0  0  0  0  0  0  0  0  0  0
    6.2322   -0.9157   19.7157 C   0  0  0  0  0  0  0  0  0  0  0  0
   11.7523    7.3836   23.3852 C   0  0  0  0  0  0  0  0  0  0  0  0
   11.3407    6.1918   23.8229 C   0  0  0  0  0  0  0  0  0  0  0  0
    5.9347   -2.1452   20.4946 C   0  0  0  0  0  0  0  0  0  0  0  0
   12.1013    4.9897   23.4362 C   0  0  0  0  0  0  0  0  0  0  0  0
   10.4877    3.4437   24.7621 C   0  0  0  0  0  0  0  0  0  0  0  0
   12.1349    2.4608   23.8067 C   0  0  0  0  0  0  0  0  0  0  0  0
   10.7900    1.9890   24.3753 C   0  0  0  0  0  0  0  0  0  0  0  0
    6.9736   -3.8345   23.1652 C   0  0  0  0  0  0  0  0  0  0  0  0
   11.6127   -0.2026   25.2464 C   0  0  0  0  0  0  0  0  0  0  0  0
    5.6763   -3.1077   22.7668 C   0  0  0  0  0  0  0  0  0  0  0  0
    8.9586   -1.8060   25.4628 N   0  0  0  0  0  0  0  0  0  0  0  0
    6.4852    0.3046   20.2857 N   0  0  0  0  0  0  0  0  0  0  0  0
   11.6148    3.8118   23.9249 N   0  0  0  0  0  0  0  0  0  0  0  0
    5.9240   -2.0051   21.8770 N   0  0  0  0  0  0  0  0  0  0  0  0
   10.9276    1.0949   25.5318 N   0  0  0  0  0  0  0  0  0  0  0  0
    5.7385   -3.2007   19.8980 O   0  0  0  0  0  0  0  0  0  0  0  0
   13.0966    5.0968   22.7241 O   0  0  0  0  0  0  0  0  0  0  0  0
  1  3  2  0
  1  4  1  0
  2  5  1  0
  2  6  2  0
  3  8  1  0
  4  9  2  0
  5 12  2  0
  6 24  1  0
  7 10  2  0
  7 23  1  0
  8 10  1  0
  8 11  2  0
  9 11  1  0
  9 21  1  0
 10 20  1  0
 11 23  1  0
 12 15  1  0
 12 24  1  0
 13 14  2  0
 14 16  1  0
 15 26  1  0
 15 28  2  0
 16 25  1  0
 16 29  2  0
 17 19  1  0
 17 25  1  0
 18 19  1  0
 18 25  1  0
 19 27  1  0
 20 22  1  0
 21 27  1  0
 22 26  1  0
M  CHG  1  27   1
M  END
