JAN-GHE-bf40f168-4
     RDKit          3D

 36 40  0  0  1  0  0  0  0  0999 V2000
    4.1005    4.6033   26.6835 C   0  0  0  0  0  0  0  0  0  0  0  0
   13.7687   -1.3219   21.1424 C   0  0  0  0  0  0  0  0  0  0  0  0
   13.4662   -2.6288   21.5247 C   0  0  0  0  0  0  0  0  0  0  0  0
    6.1050    5.5248   25.6141 C   0  0  0  0  0  0  0  0  0  0  0  0
   13.0653   -0.2525   21.6968 C   0  0  0  0  0  0  0  0  0  0  0  0
   10.1943    1.1185   22.5632 C   0  0  0  0  0  0  0  0  0  0  0  0
   11.8190    1.2654   24.3453 C   0  0  0  0  0  0  0  0  0  0  0  0
    9.5106    2.2110   23.0964 C   0  0  0  0  0  0  0  0  0  0  0  0
   11.1352    2.3580   24.8786 C   0  0  0  0  0  0  0  0  0  0  0  0
   12.4602   -2.8663   22.4612 C   0  0  0  0  0  0  0  0  0  0  0  0
    7.4020    5.3506   25.1443 C   0  0  0  0  0  0  0  0  0  0  0  0
    6.0930    3.2401   26.2749 C   0  0  0  0  0  0  0  0  0  0  0  0
    5.4310    4.4545   26.1915 C   0  0  0  0  0  0  0  0  0  0  0  0
   11.3485    0.6456   23.1876 C   0  0  0  0  0  0  0  0  0  0  0  0
   12.0593   -0.4901   22.6334 C   0  0  0  0  0  0  0  0  0  0  0  0
    9.9810    2.8308   24.2541 C   0  0  0  0  0  0  0  0  0  0  0  0
   11.7567   -1.7970   23.0156 C   0  0  0  0  0  0  0  0  0  0  0  0
    7.9758    4.0961   25.2747 C   0  0  0  0  0  0  0  0  0  0  0  0
    4.8889    1.8098   19.0236 C   0  0  0  0  0  0  0  0  0  0  0  0
    5.7722    1.2014   19.8181 C   0  0  0  0  0  0  0  0  0  0  0  0
    6.0375   -0.2373   19.6194 C   0  0  0  0  0  0  0  0  0  0  0  0
    6.6880   -2.3873   20.6593 C   0  0  0  0  0  0  0  0  0  0  0  0
    6.5513   -0.4662   22.1068 C   0  0  0  0  0  0  0  0  0  0  0  0
    8.8538   -2.4918   22.0293 C   0  0  0  0  0  0  0  0  0  0  0  0
    7.8251   -1.5920   24.0341 C   0  0  0  0  0  0  0  0  0  0  0  0
    7.3422   -2.7384   21.9861 C   0  0  0  0  0  0  0  0  0  0  0  0
    6.7595   -1.7181   22.9606 C   0  0  0  0  0  0  0  0  0  0  0  0
    3.0180    4.7245   27.0838 N   0  0  0  0  0  0  0  0  0  0  0  0
    7.3525    3.0326   25.8297 N   0  0  0  0  0  0  0  0  0  0  0  0
    6.3989   -0.9614   20.7397 N   0  0  0  0  0  0  0  0  0  0  0  0
    9.1077   -1.7531   23.3002 N   0  0  0  0  0  0  0  0  0  0  0  0
    9.2897    3.9355   24.7934 N   0  0  0  0  0  0  0  0  0  0  0  0
    5.9287   -0.7087   18.4877 O   0  0  0  0  0  0  0  0  0  0  0  0
   10.5150   -3.5859   24.4409 O   0  0  0  0  0  0  0  0  0  0  0  0
   10.6426   -1.2202   25.2982 O   0  0  0  0  0  0  0  0  0  0  0  0
   10.4916   -2.1547   24.1975 S   0  0  0  0  0  0  0  0  0  0  0  0
  1 13  1  0
  1 28  3  0
  2  3  2  0
  2  5  1  0
  3 10  1  0
  4 11  2  0
  4 13  1  0
  5 15  2  0
  6  8  2  0
  6 14  1  0
  7  9  1  0
  7 14  2  0
  8 16  1  0
  9 16  2  0
 10 17  2  0
 11 18  1  0
 12 13  2  0
 12 29  1  0
 14 15  1  0
 15 17  1  0
 16 32  1  0
 17 36  1  0
 18 29  2  0
 18 32  1  0
 19 20  2  0
 20 21  1  0
 21 30  1  0
 21 33  2  0
 22 26  1  0
 22 30  1  0
 23 27  1  0
 23 30  1  0
 24 26  1  0
 24 31  1  0
 25 27  1  0
 25 31  1  0
 26 27  1  0
 31 36  1  0
 34 36  2  0
 35 36  2  0
M  END
