JAN-GHE-fd8d85a5-6
     RDKit          3D

 22 23  0  0  1  0  0  0  0  0999 V2000
   14.4504   -2.6864   25.9693 C   0  0  0  0  0  0  0  0  0  0  0  0
   12.5020   -2.3538   24.5168 C   0  0  0  0  0  0  0  0  0  0  0  0
   13.0577   -0.6791   26.1115 C   0  0  0  0  0  0  0  0  0  0  0  0
   13.3380   -1.9070   25.5340 C   0  0  0  0  0  0  0  0  0  0  0  0
   11.4264   -1.5702   24.1139 C   0  0  0  0  0  0  0  0  0  0  0  0
   11.2316   -0.3574   24.7551 C   0  0  0  0  0  0  0  0  0  0  0  0
    6.8070   -5.9016   22.0115 C   0  0  0  0  0  0  0  0  0  0  0  0
    9.8566   -4.9148   24.1421 C   0  0  0  0  0  0  0  0  0  0  0  0
    8.8038   -5.8446   23.5407 C   0  0  0  0  0  0  0  0  0  0  0  0
    8.5214   -4.1579   21.6895 C   0  0  0  0  0  0  0  0  0  0  0  0
    9.2955   -3.5807   24.6183 C   0  0  0  0  0  0  0  0  0  0  0  0
    8.2088   -2.8598   22.4194 C   0  0  0  0  0  0  0  0  0  0  0  0
    6.3380   -7.1034   22.7964 C   0  0  0  0  0  0  0  0  0  0  0  0
   10.7199    2.7797   24.3806 C   0  0  0  0  0  0  0  0  0  0  0  0
   10.5269   -2.0548   23.0152 C   0  0  0  0  0  0  0  0  0  0  0  0
    9.8461    1.7094   24.9404 C   0  0  0  0  0  0  0  0  0  0  0  0
   15.3556   -3.3206   26.3233 N   0  0  0  0  0  0  0  0  0  0  0  0
   12.0223    0.1100   25.7469 N   0  0  0  0  0  0  0  0  0  0  0  0
    8.0170   -5.3223   22.4201 N   0  0  0  0  0  0  0  0  0  0  0  0
   10.1367    0.4451   24.3473 N   0  0  0  0  0  0  0  0  0  0  0  0
    9.1953   -2.5519   23.5180 N   0  0  0  0  0  0  0  0  0  0  0  0
    6.1204   -5.4880   21.0738 O   0  0  0  0  0  0  0  0  0  0  0  0
  1  4  1  0
  1 17  3  0
  2  4  2  0
  2  5  1  0
  3  4  1  0
  3 18  2  0
  5  6  2  0
  5 15  1  0
  6 18  1  0
  6 20  1  0
  7 13  1  0
  7 19  1  0
  7 22  2  0
  8  9  1  0
  8 11  1  0
  9 19  1  0
 10 12  1  0
 10 19  1  0
 11 21  1  0
 12 21  1  0
 14 16  1  0
 15 21  1  0
 16 20  1  0
M  CHG  1  21   1
M  END
