JAN-GHE-4287bd1a-6
     RDKit          3D

 24 25  0  0  0  0  0  0  0  0999 V2000
    6.3684   -3.4623   21.0495 C   0  0  0  0  0  0  0  0  0  0  0  0
    8.0891   -0.4124   19.4115 C   0  0  0  0  0  0  0  0  0  0  0  0
    5.8903   -0.0882   20.3588 C   0  0  0  0  0  0  0  0  0  0  0  0
    7.6251    0.0444   18.1780 C   0  0  0  0  0  0  0  0  0  0  0  0
    5.4263    0.3687   19.1252 C   0  0  0  0  0  0  0  0  0  0  0  0
    7.2217   -0.4787   20.5019 C   0  0  0  0  0  0  0  0  0  0  0  0
    6.2937    0.4350   18.0348 C   0  0  0  0  0  0  0  0  0  0  0  0
   12.7058    0.4445   24.5141 C   0  0  0  0  0  0  0  0  0  0  0  0
   11.2310    0.1738   24.3850 C   0  0  0  0  0  0  0  0  0  0  0  0
    9.0584   -0.7434   22.1256 C   0  0  0  0  0  0  0  0  0  0  0  0
   13.5514    0.5669   23.2646 C   0  0  0  0  0  0  0  0  0  0  0  0
   12.8679    0.1553   21.9651 C   0  0  0  0  0  0  0  0  0  0  0  0
   12.5315   -1.3378   21.8952 C   0  0  0  0  0  0  0  0  0  0  0  0
   11.8960   -1.8997   23.1655 C   0  0  0  0  0  0  0  0  0  0  0  0
    6.7639   -3.1422   22.4291 C   0  0  0  0  0  0  0  0  0  0  0  0
    9.4937   -1.3182   23.4661 C   0  0  0  0  0  0  0  0  0  0  0  0
    6.7668   -1.6392   22.6872 C   0  0  0  0  0  0  0  0  0  0  0  0
    6.0566   -3.7170   19.9613 N   0  0  0  0  0  0  0  0  0  0  0  0
   10.8891   -0.9970   23.7179 N   0  0  0  0  0  0  0  0  0  0  0  0
    7.7036   -0.9536   21.7835 N   0  0  0  0  0  0  0  0  0  0  0  0
   13.1451    0.5966   25.6471 O   0  0  0  0  0  0  0  0  0  0  0  0
   10.4796    0.9975   24.8901 O   0  0  0  0  0  0  0  0  0  0  0  0
    9.8868   -0.1761   21.4087 O   0  0  0  0  0  0  0  0  0  0  0  0
    5.8481    0.8748   16.8506 F   0  0  0  0  0  0  0  0  0  0  0  0
  1 15  1  0
  1 18  3  0
  2  4  2  0
  2  6  1  0
  3  5  1  0
  3  6  2  0
  4  7  1  0
  5  7  2  0
  6 20  1  0
  7 24  1  0
  8  9  1  0
  8 11  1  0
  8 21  2  0
  9 19  1  0
  9 22  2  0
 10 16  1  0
 10 20  1  0
 10 23  2  0
 11 12  1  0
 12 13  1  0
 13 14  1  0
 14 19  1  0
 15 17  1  0
 16 19  1  0
 17 20  1  0
M  END
