JAN-LUN-3e0f9c09-3
     RDKit          3D

 24 25  0  0  1  0  0  0  0  0999 V2000
   11.9166   -0.1356   23.2388 C   0  0  0  0  0  0  0  0  0  0  0  0
   13.1838   -1.9495   22.3667 C   0  0  0  0  0  0  0  0  0  0  0  0
   14.0966    0.1586   22.3347 C   0  0  0  0  0  0  0  0  0  0  0  0
   12.0166   -1.4937   22.9579 C   0  0  0  0  0  0  0  0  0  0  0  0
   12.9720    0.7132   22.9243 C   0  0  0  0  0  0  0  0  0  0  0  0
    8.4664   -0.6064   22.8794 C   0  0  0  0  0  0  0  0  0  0  0  0
   11.8450    2.8047   23.7822 C   0  0  0  0  0  0  0  0  0  0  0  0
   10.3332    5.6955   23.3619 C   0  0  0  0  0  0  0  0  0  0  0  0
   10.1846    7.8906   24.6126 C   0  0  0  0  0  0  0  0  0  0  0  0
   12.0592    6.2683   25.1218 C   0  0  0  0  0  0  0  0  0  0  0  0
    9.3897    6.7676   23.9268 C   0  0  0  0  0  0  0  0  0  0  0  0
   11.2687    5.1449   24.4417 C   0  0  0  0  0  0  0  0  0  0  0  0
   11.1391    7.3557   25.6806 C   0  0  0  0  0  0  0  0  0  0  0  0
    8.4994    7.3366   22.8228 C   0  0  0  0  0  0  0  0  0  0  0  0
   10.9051   -2.4272   23.2823 C   0  0  0  0  0  0  0  0  0  0  0  0
    9.2395   -1.2467   21.7416 C   0  0  0  0  0  0  0  0  0  0  0  0
    9.9033   -2.5694   22.1213 C   0  0  0  0  0  0  0  0  0  0  0  0
   14.2301   -1.1555   22.0467 N   0  0  0  0  0  0  0  0  0  0  0  0
    8.4464    0.7691   22.7904 N   0  0  0  0  0  0  0  0  0  0  0  0
   12.9000    2.0993   23.1967 N   0  0  0  0  0  0  0  0  0  0  0  0
   12.1643    4.1630   23.8781 N   0  0  0  0  0  0  0  0  0  0  0  0
    7.9025   -1.2391   23.7673 O   0  0  0  0  0  0  0  0  0  0  0  0
   10.7769    2.3371   24.1697 O   0  0  0  0  0  0  0  0  0  0  0  0
   10.3707    6.8320   26.7618 O   0  0  0  0  0  0  0  0  0  0  0  0
  1  4  2  0
  1  5  1  0
  2  4  1  0
  2 18  2  0
  3  5  2  0
  3 18  1  0
  4 15  1  0
  5 20  1  0
  6 16  1  0
  6 19  1  0
  6 22  2  0
  7 20  1  0
  7 21  1  0
  7 23  2  0
  8 11  1  0
  8 12  1  0
  9 11  1  0
  9 13  1  0
 10 12  1  0
 10 13  1  0
 11 14  1  0
 12 21  1  0
 13 24  1  0
 15 17  1  0
 16 17  1  0
M  END
