JAN-GHE-fd8d85a5-4
     RDKit          3D

 22 24  0  0  0  0  0  0  0  0999 V2000
    5.6711   -6.6221   24.1412 C   0  0  0  0  0  0  0  0  0  0  0  0
    7.1855   -4.9871   23.1164 C   0  0  0  0  0  0  0  0  0  0  0  0
    4.9096   -5.0481   22.4288 C   0  0  0  0  0  0  0  0  0  0  0  0
    5.9210   -5.5541   23.2293 C   0  0  0  0  0  0  0  0  0  0  0  0
    7.3971   -3.9462   22.2192 C   0  0  0  0  0  0  0  0  0  0  0  0
    6.3196   -3.5123   21.4638 C   0  0  0  0  0  0  0  0  0  0  0  0
   13.1268   -1.0209   26.5593 C   0  0  0  0  0  0  0  0  0  0  0  0
   10.8017   -1.1078   25.4704 C   0  0  0  0  0  0  0  0  0  0  0  0
   12.2492   -2.4525   24.5802 C   0  0  0  0  0  0  0  0  0  0  0  0
   10.3477   -1.6814   22.9830 C   0  0  0  0  0  0  0  0  0  0  0  0
    9.7704   -3.1985   24.3356 C   0  0  0  0  0  0  0  0  0  0  0  0
   10.8086   -2.1100   24.3493 C   0  0  0  0  0  0  0  0  0  0  0  0
   14.4847   -1.6563   26.4244 C   0  0  0  0  0  0  0  0  0  0  0  0
    6.1215   -1.0272   18.6515 C   0  0  0  0  0  0  0  0  0  0  0  0
    8.7625   -3.3359   22.1007 C   0  0  0  0  0  0  0  0  0  0  0  0
    5.6562   -2.1970   19.4499 C   0  0  0  0  0  0  0  0  0  0  0  0
    5.4678   -7.4910   24.8832 N   0  0  0  0  0  0  0  0  0  0  0  0
    5.0769   -4.0382   21.5458 N   0  0  0  0  0  0  0  0  0  0  0  0
   12.2018   -1.4717   25.6586 N   0  0  0  0  0  0  0  0  0  0  0  0
    6.5303   -2.4511   20.5481 N   0  0  0  0  0  0  0  0  0  0  0  0
    9.1033   -2.4522   23.2376 N   0  0  0  0  0  0  0  0  0  0  0  0
   12.8984   -0.1700   27.4175 O   0  0  0  0  0  0  0  0  0  0  0  0
  1  4  1  0
  1 17  3  0
  2  4  2  0
  2  5  1  0
  3  4  1  0
  3 18  2  0
  5  6  2  0
  5 15  1  0
  6 18  1  0
  6 20  1  0
  7 13  1  0
  7 19  1  0
  7 22  2  0
  8 12  1  0
  8 19  1  0
  9 12  1  0
  9 19  1  0
 10 12  1  0
 10 21  1  0
 11 12  1  0
 11 21  1  0
 14 16  1  0
 15 21  1  0
 16 20  1  0
M  CHG  1  21   1
M  END
