JAN-GHE-4287bd1a-1
     RDKit          3D

 21 22  0  0  0  0  0  0  0  0999 V2000
   12.0518    1.4933   24.6023 C   0  0  0  0  0  0  0  0  0  0  0  0
   11.1008    0.4748   24.6639 C   0  0  0  0  0  0  0  0  0  0  0  0
   13.2091    0.3065   22.8446 C   0  0  0  0  0  0  0  0  0  0  0  0
   13.1059    1.4092   23.6926 C   0  0  0  0  0  0  0  0  0  0  0  0
   12.2580   -0.7121   22.9063 C   0  0  0  0  0  0  0  0  0  0  0  0
   11.2039   -0.6279   23.8159 C   0  0  0  0  0  0  0  0  0  0  0  0
    5.2997   -0.0032   17.7140 C   0  0  0  0  0  0  0  0  0  0  0  0
    6.3907   -0.3968   18.3743 C   0  0  0  0  0  0  0  0  0  0  0  0
    6.2842   -1.5344   19.3205 C   0  0  0  0  0  0  0  0  0  0  0  0
    8.1256   -0.4327   20.6291 C   0  0  0  0  0  0  0  0  0  0  0  0
    7.1415   -2.5940   21.3738 C   0  0  0  0  0  0  0  0  0  0  0  0
    8.6500   -0.4318   22.0592 C   0  0  0  0  0  0  0  0  0  0  0  0
    8.5479   -2.9409   21.8428 C   0  0  0  0  0  0  0  0  0  0  0  0
   14.1227    2.4986   23.6272 C   0  0  0  0  0  0  0  0  0  0  0  0
   12.3969   -1.8788   21.9839 C   0  0  0  0  0  0  0  0  0  0  0  0
    7.1570   -1.5073   20.3988 N   0  0  0  0  0  0  0  0  0  0  0  0
    9.2657   -1.7474   22.3797 N   0  0  0  0  0  0  0  0  0  0  0  0
    5.4461   -2.3827   19.0457 O   0  0  0  0  0  0  0  0  0  0  0  0
   10.6705   -3.1687   23.9975 O   0  0  0  0  0  0  0  0  0  0  0  0
    9.0184   -1.5086   24.9261 O   0  0  0  0  0  0  0  0  0  0  0  0
    9.9827   -1.8981   23.9201 S   0  0  0  0  0  0  0  0  0  0  0  0
  1  2  2  0
  1  4  1  0
  2  6  1  0
  3  4  2  0
  3  5  1  0
  4 14  1  0
  5  6  2  0
  5 15  1  0
  6 21  1  0
  7  8  2  0
  8  9  1  0
  9 16  1  0
  9 18  2  0
 10 12  1  0
 10 16  1  0
 11 13  1  0
 11 16  1  0
 12 17  1  0
 13 17  1  0
 17 21  1  0
 19 21  2  0
 20 21  2  0
M  END
