JAN-GHE-6413aaf8-8
     RDKit          3D

 31 33  0  0  0  0  0  0  0  0999 V2000
   11.7545   -2.7430   22.2531 C   0  0  0  0  0  0  0  0  0  0  0  0
   10.4573   -3.2151   22.0220 C   0  0  0  0  0  0  0  0  0  0  0  0
   11.9932   -1.7473   23.1983 C   0  0  0  0  0  0  0  0  0  0  0  0
    7.4369   -2.0585   23.7250 C   0  0  0  0  0  0  0  0  0  0  0  0
    9.3865   -2.6710   22.7587 C   0  0  0  0  0  0  0  0  0  0  0  0
   10.9469   -1.1926   23.9409 C   0  0  0  0  0  0  0  0  0  0  0  0
    7.9827   -2.9029   22.7858 C   0  0  0  0  0  0  0  0  0  0  0  0
    9.6554   -1.6743   23.6992 C   0  0  0  0  0  0  0  0  0  0  0  0
   12.0344    7.2323   25.5138 C   0  0  0  0  0  0  0  0  0  0  0  0
   11.1649    6.2865   25.1520 C   0  0  0  0  0  0  0  0  0  0  0  0
   11.5302    5.3618   24.0602 C   0  0  0  0  0  0  0  0  0  0  0  0
    5.8085   -2.1588   19.4833 C   0  0  0  0  0  0  0  0  0  0  0  0
   10.1055    3.5290   25.1254 C   0  0  0  0  0  0  0  0  0  0  0  0
   11.2872    3.1548   22.9919 C   0  0  0  0  0  0  0  0  0  0  0  0
   10.6119    2.1901   25.6488 C   0  0  0  0  0  0  0  0  0  0  0  0
   11.8190    1.8231   23.4976 C   0  0  0  0  0  0  0  0  0  0  0  0
   10.7383   -0.1967   19.1300 C   0  0  0  0  0  0  0  0  0  0  0  0
    9.2541    1.8023   19.1717 C   0  0  0  0  0  0  0  0  0  0  0  0
    7.2360   -3.8722   21.9586 C   0  0  0  0  0  0  0  0  0  0  0  0
   11.2395   -0.1222   24.9506 C   0  0  0  0  0  0  0  0  0  0  0  0
    5.7689   -0.7326   18.9635 C   0  0  0  0  0  0  0  0  0  0  0  0
    6.9468    0.1028   19.4591 C   0  0  0  0  0  0  0  0  0  0  0  0
    5.8003   -3.4324   21.6188 C   0  0  0  0  0  0  0  0  0  0  0  0
    8.2684   -0.4761   18.9778 C   0  0  0  0  0  0  0  0  0  0  0  0
    8.4536   -1.3213   24.2703 N   0  0  0  0  0  0  0  0  0  0  0  0
   11.0007    4.0741   24.0952 N   0  0  0  0  0  0  0  0  0  0  0  0
    5.7723   -2.2029   20.8728 N   0  0  0  0  0  0  0  0  0  0  0  0
   10.8342    1.2493   24.4891 N   0  0  0  0  0  0  0  0  0  0  0  0
    9.3820    0.3391   19.5197 N   0  0  0  0  0  0  0  0  0  0  0  0
   12.2797    5.7883   23.1800 O   0  0  0  0  0  0  0  0  0  0  0  0
    5.8672   -3.1414   18.7491 O   0  0  0  0  0  0  0  0  0  0  0  0
  1  2  2  0
  1  3  1  0
  2  5  1  0
  3  6  2  0
  4  7  2  0
  4 25  1  0
  5  7  1  0
  5  8  2  0
  6  8  1  0
  6 20  1  0
  7 19  1  0
  8 25  1  0
  9 10  2  0
 10 11  1  0
 11 26  1  0
 11 30  2  0
 12 21  1  0
 12 27  1  0
 12 31  2  0
 13 15  1  0
 13 26  1  0
 14 16  1  0
 14 26  1  0
 15 28  1  0
 16 28  1  0
 17 29  1  0
 18 29  1  0
 19 23  1  0
 20 28  1  0
 21 22  1  0
 22 24  1  0
 23 27  1  0
 24 29  1  0
M  CHG  2  28   1  29   1
M  END
