JAN-GHE-1d98ec1c-6
     RDKit          3D

 23 24  0  0  0  0  0  0  0  0999 V2000
    7.0428   -4.8247   27.3124 C   0  0  0  0  0  0  0  0  0  0  0  0
    8.3097   -4.8129   26.7290 C   0  0  0  0  0  0  0  0  0  0  0  0
    5.9039   -4.8097   26.5072 C   0  0  0  0  0  0  0  0  0  0  0  0
    7.2988   -4.7708   24.5350 C   0  0  0  0  0  0  0  0  0  0  0  0
    8.4377   -4.7859   25.3403 C   0  0  0  0  0  0  0  0  0  0  0  0
    6.0319   -4.7827   25.1185 C   0  0  0  0  0  0  0  0  0  0  0  0
    9.7926   -4.7738   24.7167 C   0  0  0  0  0  0  0  0  0  0  0  0
   10.0826    1.3714   22.4242 C   0  0  0  0  0  0  0  0  0  0  0  0
    8.6801   -0.6610   22.2707 C   0  0  0  0  0  0  0  0  0  0  0  0
   10.0763   -0.3675   24.2801 C   0  0  0  0  0  0  0  0  0  0  0  0
    9.1831   -2.0875   22.1044 C   0  0  0  0  0  0  0  0  0  0  0  0
   10.5993   -1.7912   24.1450 C   0  0  0  0  0  0  0  0  0  0  0  0
   11.0973    2.1582   23.2148 C   0  0  0  0  0  0  0  0  0  0  0  0
    4.8141   -4.7665   24.2573 C   0  0  0  0  0  0  0  0  0  0  0  0
    9.9671   -4.0837   23.3834 C   0  0  0  0  0  0  0  0  0  0  0  0
    9.6607    0.1632   22.9773 N   0  0  0  0  0  0  0  0  0  0  0  0
    3.2249   -6.1187   22.6150 N   0  0  0  0  0  0  0  0  0  0  0  0
    9.5514   -2.6417   23.4625 N   0  0  0  0  0  0  0  0  0  0  0  0
   10.7282   -5.3214   25.2953 O   0  0  0  0  0  0  0  0  0  0  0  0
    9.6803    1.8176   21.3466 O   0  0  0  0  0  0  0  0  0  0  0  0
    5.7565   -6.5743   22.6230 O   0  0  0  0  0  0  0  0  0  0  0  0
    4.3555   -7.3173   24.5904 O   0  0  0  0  0  0  0  0  0  0  0  0
    4.6418   -6.3645   23.5313 S   0  0  0  0  0  0  0  0  0  0  0  0
  1  2  2  0
  1  3  1  0
  2  5  1  0
  3  6  2  0
  4  5  2  0
  4  6  1  0
  5  7  1  0
  6 14  1  0
  7 15  1  0
  7 19  2  0
  8 13  1  0
  8 16  1  0
  8 20  2  0
  9 11  1  0
  9 16  1  0
 10 12  1  0
 10 16  1  0
 11 18  1  0
 12 18  1  0
 14 23  1  0
 15 18  1  0
 17 23  1  0
 21 23  2  0
 22 23  2  0
M  CHG  1  18   1
M  END
