JAN-UNI-2e92c4b1-2
     RDKit          3D

 20 21  0  0  0  0  0  0  0  0999 V2000
    7.6107    0.2064   20.0421 C   0  0  0  0  0  0  0  0  0  0  0  0
    8.7934   -4.6090   25.6720 C   0  0  0  0  0  0  0  0  0  0  0  0
   12.8249   -0.2162   22.7584 C   0  0  0  0  0  0  0  0  0  0  0  0
   12.0591   -1.3395   22.4671 C   0  0  0  0  0  0  0  0  0  0  0  0
    7.7638   -1.5691   21.7267 C   0  0  0  0  0  0  0  0  0  0  0  0
   12.3906    0.6189   23.7752 C   0  0  0  0  0  0  0  0  0  0  0  0
    6.1077   -1.7257   20.0268 C   0  0  0  0  0  0  0  0  0  0  0  0
   10.5508   -0.6934   24.1888 C   0  0  0  0  0  0  0  0  0  0  0  0
    6.2459   -3.3956   21.5986 C   0  0  0  0  0  0  0  0  0  0  0  0
    7.1595   -1.0274   20.5977 C   0  0  0  0  0  0  0  0  0  0  0  0
   10.8988   -1.5899   23.1913 C   0  0  0  0  0  0  0  0  0  0  0  0
    7.3043   -2.7756   22.2430 C   0  0  0  0  0  0  0  0  0  0  0  0
    9.2413   -3.4133   23.7649 C   0  0  0  0  0  0  0  0  0  0  0  0
    7.9779    1.2102   19.5901 N   0  0  0  0  0  0  0  0  0  0  0  0
    8.0445   -5.1531   26.3718 N   0  0  0  0  0  0  0  0  0  0  0  0
   11.2693    0.4085   24.5005 N   0  0  0  0  0  0  0  0  0  0  0  0
    5.6336   -2.9000   20.4999 N   0  0  0  0  0  0  0  0  0  0  0  0
    9.6664   -3.9835   24.8693 N   0  0  0  0  0  0  0  0  0  0  0  0
   10.1013   -2.7219   22.9185 N   0  0  0  0  0  0  0  0  0  0  0  0
    7.8937   -3.3472   23.3821 N   0  0  0  0  0  0  0  0  0  0  0  0
  1 10  1  0
  1 14  3  0
  2 15  3  0
  2 18  1  0
  3  4  2  0
  3  6  1  0
  4 11  1  0
  5 10  2  0
  5 12  1  0
  6 16  2  0
  7 10  1  0
  7 17  2  0
  8 11  2  0
  8 16  1  0
  9 12  2  0
  9 17  1  0
 11 19  1  0
 12 20  1  0
 13 18  2  0
 13 19  1  0
 13 20  1  0
M  END
