JAN-GHE-bf40f168-12
     RDKit          3D

 24 27  0  0  1  0  0  0  0  0999 V2000
    7.3118   -4.7133   26.6676 C   0  0  0  0  0  0  0  0  0  0  0  0
    5.6783   -4.9674   24.8312 C   0  0  0  0  0  0  0  0  0  0  0  0
    5.3710   -5.0613   23.5292 C   0  0  0  0  0  0  0  0  0  0  0  0
    7.9642   -4.2733   24.4000 C   0  0  0  0  0  0  0  0  0  0  0  0
    6.4942   -2.8761   21.4222 C   0  0  0  0  0  0  0  0  0  0  0  0
    7.0191   -4.6521   25.2770 C   0  0  0  0  0  0  0  0  0  0  0  0
   11.3996    5.1245   23.8735 C   0  0  0  0  0  0  0  0  0  0  0  0
   11.0757    3.8771   23.5264 C   0  0  0  0  0  0  0  0  0  0  0  0
   12.1427    2.8600   23.4440 C   0  0  0  0  0  0  0  0  0  0  0  0
   12.6364    0.3711   23.7033 C   0  0  0  0  0  0  0  0  0  0  0  0
   10.4038    1.2092   24.0567 C   0  0  0  0  0  0  0  0  0  0  0  0
   11.1230   -1.3593   22.5897 C   0  0  0  0  0  0  0  0  0  0  0  0
    9.2991   -1.1007   24.1932 C   0  0  0  0  0  0  0  0  0  0  0  0
    7.7017   -4.1731   22.9191 C   0  0  0  0  0  0  0  0  0  0  0  0
    6.3951   -4.8491   22.4491 C   0  0  0  0  0  0  0  0  0  0  0  0
    7.5387   -2.7197   22.4785 C   0  0  0  0  0  0  0  0  0  0  0  0
   11.6936   -0.8082   23.8853 C   0  0  0  0  0  0  0  0  0  0  0  0
   10.4737   -0.2197   24.5915 C   0  0  0  0  0  0  0  0  0  0  0  0
    8.8122   -2.1075   21.9227 C   0  0  0  0  0  0  0  0  0  0  0  0
    7.5507   -4.7631   27.8017 N   0  0  0  0  0  0  0  0  0  0  0  0
    5.8437   -3.9914   21.3771 N   0  0  0  0  0  0  0  0  0  0  0  0
   11.7780    1.5555   23.7190 N   0  0  0  0  0  0  0  0  0  0  0  0
    9.8007   -1.9379   23.0301 N   0  0  0  0  0  0  0  0  0  0  0  0
   13.2795    3.2180   23.1373 O   0  0  0  0  0  0  0  0  0  0  0  0
  1  6  1  0
  1 20  3  0
  2  3  2  0
  2  6  1  0
  3 15  1  0
  4  6  2  0
  4 14  1  0
  5 16  1  0
  5 21  2  0
  7  8  2  0
  8  9  1  0
  9 22  1  0
  9 24  2  0
 10 17  1  0
 10 22  1  0
 11 18  1  0
 11 22  1  0
 12 17  1  0
 12 23  1  0
 13 18  1  0
 13 23  1  0
 14 15  1  0
 14 16  1  0
 15 21  1  0
 16 19  1  0
 17 18  1  0
 19 23  1  0
M  CHG  1  23   1
M  END
