JAN-GHE-bf40f168-2
     RDKit          3D

 34 37  0  0  0  0  0  0  0  0999 V2000
   14.0789    1.8450   25.5263 C   0  0  0  0  0  0  0  0  0  0  0  0
    4.6673   -6.0166   25.5853 C   0  0  0  0  0  0  0  0  0  0  0  0
    4.1165   -6.2448   24.3243 C   0  0  0  0  0  0  0  0  0  0  0  0
   14.1882   -0.5374   26.0945 C   0  0  0  0  0  0  0  0  0  0  0  0
    5.9687   -5.5277   25.6999 C   0  0  0  0  0  0  0  0  0  0  0  0
    9.1403   -5.6485   24.8060 C   0  0  0  0  0  0  0  0  0  0  0  0
    8.2953   -3.3855   24.7673 C   0  0  0  0  0  0  0  0  0  0  0  0
   10.4384   -5.1612   24.9574 C   0  0  0  0  0  0  0  0  0  0  0  0
    9.5934   -2.8981   24.9188 C   0  0  0  0  0  0  0  0  0  0  0  0
    4.8671   -5.9841   23.1779 C   0  0  0  0  0  0  0  0  0  0  0  0
   13.6570   -1.8189   26.0005 C   0  0  0  0  0  0  0  0  0  0  0  0
   12.4085    0.2445   24.7241 C   0  0  0  0  0  0  0  0  0  0  0  0
   13.5581    0.5195   25.4471 C   0  0  0  0  0  0  0  0  0  0  0  0
    8.0687   -4.7606   24.7109 C   0  0  0  0  0  0  0  0  0  0  0  0
    6.7193   -5.2671   24.5535 C   0  0  0  0  0  0  0  0  0  0  0  0
   10.6650   -3.7860   25.0138 C   0  0  0  0  0  0  0  0  0  0  0  0
    6.1685   -5.4953   23.2924 C   0  0  0  0  0  0  0  0  0  0  0  0
   12.5029   -1.9892   25.2530 C   0  0  0  0  0  0  0  0  0  0  0  0
    4.9412    1.6879   18.7932 C   0  0  0  0  0  0  0  0  0  0  0  0
    5.3357    0.4283   18.9910 C   0  0  0  0  0  0  0  0  0  0  0  0
    6.6506    0.1817   19.6311 C   0  0  0  0  0  0  0  0  0  0  0  0
    5.6493   -1.9298   20.5681 C   0  0  0  0  0  0  0  0  0  0  0  0
    8.0224   -1.3234   21.0144 C   0  0  0  0  0  0  0  0  0  0  0  0
    5.8193   -2.7559   21.8359 C   0  0  0  0  0  0  0  0  0  0  0  0
    8.2200   -2.8316   21.0712 C   0  0  0  0  0  0  0  0  0  0  0  0
   14.5027    2.9234   25.5907 N   0  0  0  0  0  0  0  0  0  0  0  0
   11.8627   -0.9870   24.6100 N   0  0  0  0  0  0  0  0  0  0  0  0
    6.7516   -0.9822   20.3796 N   0  0  0  0  0  0  0  0  0  0  0  0
    7.1234   -3.4784   21.8452 N   0  0  0  0  0  0  0  0  0  0  0  0
   11.9775   -3.2932   25.1669 N   0  0  0  0  0  0  0  0  0  0  0  0
    7.5139    1.0235   19.4224 O   0  0  0  0  0  0  0  0  0  0  0  0
    8.4138   -5.6977   21.9921 O   0  0  0  0  0  0  0  0  0  0  0  0
    6.2579   -5.6053   20.6916 O   0  0  0  0  0  0  0  0  0  0  0  0
    7.0738   -5.1833   21.8096 S   0  0  0  0  0  0  0  0  0  0  0  0
  1 13  1  0
  1 26  3  0
  2  3  2  0
  2  5  1  0
  3 10  1  0
  4 11  2  0
  4 13  1  0
  5 15  2  0
  6  8  2  0
  6 14  1  0
  7  9  1  0
  7 14  2  0
  8 16  1  0
  9 16  2  0
 10 17  2  0
 11 18  1  0
 12 13  2  0
 12 27  1  0
 14 15  1  0
 15 17  1  0
 16 30  1  0
 17 34  1  0
 18 27  2  0
 18 30  1  0
 19 20  2  0
 20 21  1  0
 21 28  1  0
 21 31  2  0
 22 24  1  0
 22 28  1  0
 23 25  1  0
 23 28  1  0
 24 29  1  0
 25 29  1  0
 29 34  1  0
 32 34  2  0
 33 34  2  0
M  END
