JAN-GHE-6413aaf8-1
     RDKit          3D

 30 33  0  0  0  0  0  0  0  0999 V2000
   13.2974    0.2753   23.2012 C   0  0  0  0  0  0  0  0  0  0  0  0
    6.2796    5.9536   23.2822 C   0  0  0  0  0  0  0  0  0  0  0  0
   12.8681    1.2090   24.1514 C   0  0  0  0  0  0  0  0  0  0  0  0
   12.4398   -0.7239   22.7452 C   0  0  0  0  0  0  0  0  0  0  0  0
    7.3733    5.5892   24.1057 C   0  0  0  0  0  0  0  0  0  0  0  0
    6.7052    5.8747   21.9745 C   0  0  0  0  0  0  0  0  0  0  0  0
    9.5436    1.3293   25.6658 C   0  0  0  0  0  0  0  0  0  0  0  0
   11.5515    1.1296   24.6470 C   0  0  0  0  0  0  0  0  0  0  0  0
   11.1297   -0.8225   23.2224 C   0  0  0  0  0  0  0  0  0  0  0  0
   10.7994    1.8860   25.5889 C   0  0  0  0  0  0  0  0  0  0  0  0
   10.7143    0.1178   24.1720 C   0  0  0  0  0  0  0  0  0  0  0  0
    8.4340    5.2990   23.2762 C   0  0  0  0  0  0  0  0  0  0  0  0
    5.6742    0.6638   17.2306 C   0  0  0  0  0  0  0  0  0  0  0  0
    6.6950   -0.0620   17.6916 C   0  0  0  0  0  0  0  0  0  0  0  0
    9.8062    4.8687   23.6492 C   0  0  0  0  0  0  0  0  0  0  0  0
    6.4352   -1.0790   18.7302 C   0  0  0  0  0  0  0  0  0  0  0  0
    8.0426    0.1171   20.3143 C   0  0  0  0  0  0  0  0  0  0  0  0
    6.8071   -1.8973   21.0245 C   0  0  0  0  0  0  0  0  0  0  0  0
    9.3300   -0.4610   20.8901 C   0  0  0  0  0  0  0  0  0  0  0  0
    8.0815   -2.5028   21.5912 C   0  0  0  0  0  0  0  0  0  0  0  0
   11.2722    3.0586   26.3525 C   0  0  0  0  0  0  0  0  0  0  0  0
   10.2330   -1.9107   22.7097 C   0  0  0  0  0  0  0  0  0  0  0  0
   11.3432    4.3570   25.5285 C   0  0  0  0  0  0  0  0  0  0  0  0
    9.5020    0.2632   24.8078 N   0  0  0  0  0  0  0  0  0  0  0  0
    8.0164    5.4761   21.9830 N   0  0  0  0  0  0  0  0  0  0  0  0
    7.0951   -0.9454   19.9495 N   0  0  0  0  0  0  0  0  0  0  0  0
   10.0578    4.7410   25.0098 N   0  0  0  0  0  0  0  0  0  0  0  0
    8.9966   -1.3861   22.0357 N   0  0  0  0  0  0  0  0  0  0  0  0
   10.6347    4.6722   22.7642 O   0  0  0  0  0  0  0  0  0  0  0  0
    5.6450   -1.9838   18.4558 O   0  0  0  0  0  0  0  0  0  0  0  0
  1  3  2  0
  1  4  1  0
  2  5  1  0
  2  6  2  0
  3  8  1  0
  4  9  2  0
  5 12  2  0
  6 25  1  0
  7 10  2  0
  7 24  1  0
  8 10  1  0
  8 11  2  0
  9 11  1  0
  9 22  1  0
 10 21  1  0
 11 24  1  0
 12 15  1  0
 12 25  1  0
 13 14  2  0
 14 16  1  0
 15 27  1  0
 15 29  2  0
 16 26  1  0
 16 30  2  0
 17 19  1  0
 17 26  1  0
 18 20  1  0
 18 26  1  0
 19 28  1  0
 20 28  1  0
 21 23  1  0
 22 28  1  0
 23 27  1  0
M  CHG  1  28   1
M  END
