JAN-GHE-bf40f168-1
     RDKit          3D

 33 35  0  0  0  0  0  0  0  0999 V2000
    3.6349    1.5294   19.2372 C   0  0  0  0  0  0  0  0  0  0  0  0
   12.1371    2.2961   23.9826 C   0  0  0  0  0  0  0  0  0  0  0  0
    4.7205    2.9741   20.8941 C   0  0  0  0  0  0  0  0  0  0  0  0
   10.9653    1.8117   24.5637 C   0  0  0  0  0  0  0  0  0  0  0  0
   12.9156    1.4604   23.1818 C   0  0  0  0  0  0  0  0  0  0  0  0
    5.2613    3.1485   22.1631 C   0  0  0  0  0  0  0  0  0  0  0  0
    4.2386    0.7165   21.4665 C   0  0  0  0  0  0  0  0  0  0  0  0
    4.1973    1.7380   20.5313 C   0  0  0  0  0  0  0  0  0  0  0  0
   10.5719    0.4916   24.3441 C   0  0  0  0  0  0  0  0  0  0  0  0
   12.5223    0.1403   22.9621 C   0  0  0  0  0  0  0  0  0  0  0  0
   11.3504   -0.3441   23.5433 C   0  0  0  0  0  0  0  0  0  0  0  0
    5.2547    2.0640   23.0254 C   0  0  0  0  0  0  0  0  0  0  0  0
    6.6064   -1.5291   17.3931 C   0  0  0  0  0  0  0  0  0  0  0  0
    6.2537   -1.0844   18.6010 C   0  0  0  0  0  0  0  0  0  0  0  0
    6.2407   -2.0344   19.7373 C   0  0  0  0  0  0  0  0  0  0  0  0
    7.9591   -0.5586   20.8652 C   0  0  0  0  0  0  0  0  0  0  0  0
    7.0755   -2.5677   21.9956 C   0  0  0  0  0  0  0  0  0  0  0  0
    9.3786   -0.9702   21.2430 C   0  0  0  0  0  0  0  0  0  0  0  0
    8.4927   -2.9840   22.3723 C   0  0  0  0  0  0  0  0  0  0  0  0
    7.0431    0.2848   25.0886 C   0  0  0  0  0  0  0  0  0  0  0  0
    5.8668    1.2297   25.2958 C   0  0  0  0  0  0  0  0  0  0  0  0
    8.3893    0.9969   25.1421 C   0  0  0  0  0  0  0  0  0  0  0  0
    3.1773    1.3598   18.1843 N   0  0  0  0  0  0  0  0  0  0  0  0
    4.7557    0.8481   22.7087 N   0  0  0  0  0  0  0  0  0  0  0  0
    7.0796   -1.7299   20.7984 N   0  0  0  0  0  0  0  0  0  0  0  0
    9.3472   -1.7653   22.5083 N   0  0  0  0  0  0  0  0  0  0  0  0
    5.7991    2.2537   24.2894 N   0  0  0  0  0  0  0  0  0  0  0  0
    5.4855   -2.9902   19.6188 O   0  0  0  0  0  0  0  0  0  0  0  0
   11.7827   -2.5784   22.2806 O   0  0  0  0  0  0  0  0  0  0  0  0
   10.6641   -2.6519   24.5370 O   0  0  0  0  0  0  0  0  0  0  0  0
    9.4236    0.0400   24.9220 O   0  0  0  0  0  0  0  0  0  0  0  0
   13.2795   -0.6524   22.1907 F   0  0  0  0  0  0  0  0  0  0  0  0
   10.8696   -2.0175   23.2528 S   0  0  0  0  0  0  0  0  0  0  0  0
  1  8  1  0
  1 23  3  0
  2  4  2  0
  2  5  1  0
  3  6  2  0
  3  8  1  0
  4  9  1  0
  5 10  2  0
  6 12  1  0
  7  8  2  0
  7 24  1  0
  9 11  2  0
  9 31  1  0
 10 11  1  0
 10 32  1  0
 11 33  1  0
 12 24  2  0
 12 27  1  0
 13 14  2  0
 14 15  1  0
 15 25  1  0
 15 28  2  0
 16 18  1  0
 16 25  1  0
 17 19  1  0
 17 25  1  0
 18 26  1  0
 19 26  1  0
 20 21  1  0
 20 22  1  0
 21 27  1  0
 22 31  1  0
 26 33  1  0
 29 33  2  0
 30 33  2  0
M  END
