JAN-GHE-bf40f168-8
     RDKit          3D

 32 34  0  0  0  0  0  0  0  0999 V2000
    6.5833   -1.2472   19.1449 C   0  0  0  0  0  0  0  0  0  0  0  0
    9.7558   -5.4824   27.1761 C   0  0  0  0  0  0  0  0  0  0  0  0
    8.5302   -1.9802   20.4421 C   0  0  0  0  0  0  0  0  0  0  0  0
   10.0553   -4.1203   27.1567 C   0  0  0  0  0  0  0  0  0  0  0  0
    8.4307   -5.9068   27.0773 C   0  0  0  0  0  0  0  0  0  0  0  0
    9.3153   -1.8843   21.5857 C   0  0  0  0  0  0  0  0  0  0  0  0
    7.1140   -0.2914   21.3358 C   0  0  0  0  0  0  0  0  0  0  0  0
    7.4069   -1.1721   20.3070 C   0  0  0  0  0  0  0  0  0  0  0  0
    9.0296   -3.1823   27.0388 C   0  0  0  0  0  0  0  0  0  0  0  0
    7.4050   -4.9688   26.9593 C   0  0  0  0  0  0  0  0  0  0  0  0
    7.7044   -3.6066   26.9400 C   0  0  0  0  0  0  0  0  0  0  0  0
    8.9371   -0.9716   22.5571 C   0  0  0  0  0  0  0  0  0  0  0  0
    7.9162   -6.3433   19.9952 C   0  0  0  0  0  0  0  0  0  0  0  0
    7.6700   -5.6761   21.1246 C   0  0  0  0  0  0  0  0  0  0  0  0
    6.5118   -4.7656   21.1756 C   0  0  0  0  0  0  0  0  0  0  0  0
    5.3628   -3.1681   22.8714 C   0  0  0  0  0  0  0  0  0  0  0  0
    7.1339   -4.1380   23.5733 C   0  0  0  0  0  0  0  0  0  0  0  0
    5.9488   -3.4463   24.2663 C   0  0  0  0  0  0  0  0  0  0  0  0
   10.5208   -0.0995   25.8889 C   0  0  0  0  0  0  0  0  0  0  0  0
    9.4729    0.0069   24.7889 C   0  0  0  0  0  0  0  0  0  0  0  0
   10.6158   -1.5006   26.4809 C   0  0  0  0  0  0  0  0  0  0  0  0
    5.9132   -1.3084   18.1993 N   0  0  0  0  0  0  0  0  0  0  0  0
    7.8528   -0.1699   22.4614 N   0  0  0  0  0  0  0  0  0  0  0  0
    6.3301   -4.1224   22.3654 N   0  0  0  0  0  0  0  0  0  0  0  0
    9.7311   -0.8880   23.6941 N   0  0  0  0  0  0  0  0  0  0  0  0
    6.2665   -2.2528   25.1130 N   0  0  0  0  0  0  0  0  0  0  0  0
    5.7921   -4.6333   20.1888 O   0  0  0  0  0  0  0  0  0  0  0  0
    5.1818   -3.0475   27.3058 O   0  0  0  0  0  0  0  0  0  0  0  0
    6.8716   -1.1855   27.3494 O   0  0  0  0  0  0  0  0  0  0  0  0
    9.3455   -1.8570   27.0223 O   0  0  0  0  0  0  0  0  0  0  0  0
    6.1359   -5.3898   26.8654 F   0  0  0  0  0  0  0  0  0  0  0  0
    6.3904   -2.4339   26.7894 S   0  0  0  0  0  0  0  0  0  0  0  0
  1  8  1  0
  1 22  3  0
  2  4  2  0
  2  5  1  0
  3  6  2  0
  3  8  1  0
  4  9  1  0
  5 10  2  0
  6 12  1  0
  7  8  2  0
  7 23  1  0
  9 11  2  0
  9 30  1  0
 10 11  1  0
 10 31  1  0
 11 32  1  0
 12 23  2  0
 12 25  1  0
 13 14  2  0
 14 15  1  0
 15 24  1  0
 15 27  2  0
 16 18  1  0
 16 24  1  0
 17 18  1  0
 17 24  1  0
 18 26  1  0
 19 20  1  0
 19 21  1  0
 20 25  1  0
 21 30  1  0
 26 32  1  0
 28 32  2  0
 29 32  2  0
M  END
