JAN-GHE-6413aaf8-5
     RDKit          3D

 26 28  0  0  0  0  0  0  0  0999 V2000
   13.6054    0.3196   22.6290 C   0  0  0  0  0  0  0  0  0  0  0  0
   13.2427    1.1683   23.6813 C   0  0  0  0  0  0  0  0  0  0  0  0
   12.7633   -0.7142   22.2240 C   0  0  0  0  0  0  0  0  0  0  0  0
   10.1420    0.9662   25.6062 C   0  0  0  0  0  0  0  0  0  0  0  0
   12.0096    0.9672   24.3326 C   0  0  0  0  0  0  0  0  0  0  0  0
   11.5354   -0.9328   22.8551 C   0  0  0  0  0  0  0  0  0  0  0  0
   11.3381    1.6162   25.4063 C   0  0  0  0  0  0  0  0  0  0  0  0
   11.1860   -0.0766   23.9054 C   0  0  0  0  0  0  0  0  0  0  0  0
    5.5394    0.8214   18.1029 C   0  0  0  0  0  0  0  0  0  0  0  0
    6.3805   -0.2079   17.9831 C   0  0  0  0  0  0  0  0  0  0  0  0
    6.3249   -1.2943   18.9817 C   0  0  0  0  0  0  0  0  0  0  0  0
    9.5031    5.1543   25.9385 C   0  0  0  0  0  0  0  0  0  0  0  0
    8.0423   -0.0691   20.4215 C   0  0  0  0  0  0  0  0  0  0  0  0
    7.0441   -2.2027   21.1563 C   0  0  0  0  0  0  0  0  0  0  0  0
    9.4286   -0.5814   20.7943 C   0  0  0  0  0  0  0  0  0  0  0  0
    8.4181   -2.7427   21.5199 C   0  0  0  0  0  0  0  0  0  0  0  0
    8.1294    5.3672   25.3944 C   0  0  0  0  0  0  0  0  0  0  0  0
   11.8280    2.7783   26.1751 C   0  0  0  0  0  0  0  0  0  0  0  0
   10.6531   -2.0550   22.3933 C   0  0  0  0  0  0  0  0  0  0  0  0
   11.7063    4.1200   25.4300 C   0  0  0  0  0  0  0  0  0  0  0  0
   10.0595   -0.0535   24.6963 N   0  0  0  0  0  0  0  0  0  0  0  0
    7.1272   -1.1772   20.1142 N   0  0  0  0  0  0  0  0  0  0  0  0
   10.3421    4.4360   25.1017 N   0  0  0  0  0  0  0  0  0  0  0  0
    9.3079   -1.5873   21.9137 N   0  0  0  0  0  0  0  0  0  0  0  0
    5.5668   -2.2386   18.7537 O   0  0  0  0  0  0  0  0  0  0  0  0
    9.7938    5.6072   27.0394 O   0  0  0  0  0  0  0  0  0  0  0  0
  1  2  2  0
  1  3  1  0
  2  5  1  0
  3  6  2  0
  4  7  2  0
  4 21  1  0
  5  7  1  0
  5  8  2  0
  6  8  1  0
  6 19  1  0
  7 18  1  0
  8 21  1  0
  9 10  2  0
 10 11  1  0
 11 22  1  0
 11 25  2  0
 12 17  1  0
 12 23  1  0
 12 26  2  0
 13 15  1  0
 13 22  1  0
 14 16  1  0
 14 22  1  0
 15 24  1  0
 16 24  1  0
 18 20  1  0
 19 24  1  0
 20 23  1  0
M  CHG  1  24   1
M  END
