JAN-GHE-bf40f168-3
     RDKit          3D

 35 38  0  0  1  0  0  0  0  0999 V2000
   11.1571    5.5892   24.7720 C   0  0  0  0  0  0  0  0  0  0  0  0
    9.7369   -5.4832   25.2776 C   0  0  0  0  0  0  0  0  0  0  0  0
   12.3545    3.4921   25.1950 C   0  0  0  0  0  0  0  0  0  0  0  0
   10.2995   -4.7110   24.2614 C   0  0  0  0  0  0  0  0  0  0  0  0
    8.8907   -4.8919   26.2158 C   0  0  0  0  0  0  0  0  0  0  0  0
   12.6677    2.1916   24.8155 C   0  0  0  0  0  0  0  0  0  0  0  0
   10.9845    3.6716   23.2592 C   0  0  0  0  0  0  0  0  0  0  0  0
   11.4976    4.2529   24.4076 C   0  0  0  0  0  0  0  0  0  0  0  0
   10.0161   -3.3475   24.1834 C   0  0  0  0  0  0  0  0  0  0  0  0
    8.6073   -3.5284   26.1377 C   0  0  0  0  0  0  0  0  0  0  0  0
    9.1700   -2.7561   25.1215 C   0  0  0  0  0  0  0  0  0  0  0  0
   12.1020    1.7026   23.6490 C   0  0  0  0  0  0  0  0  0  0  0  0
    7.2979   -2.5928   16.8345 C   0  0  0  0  0  0  0  0  0  0  0  0
    7.3330   -1.9151   17.9838 C   0  0  0  0  0  0  0  0  0  0  0  0
    6.2583   -2.1319   18.9726 C   0  0  0  0  0  0  0  0  0  0  0  0
    5.3366   -1.5444   21.1935 C   0  0  0  0  0  0  0  0  0  0  0  0
    7.3734   -0.4444   20.5258 C   0  0  0  0  0  0  0  0  0  0  0  0
    6.8515   -1.7480   23.2531 C   0  0  0  0  0  0  0  0  0  0  0  0
    7.9132    0.4034   22.8910 C   0  0  0  0  0  0  0  0  0  0  0  0
    5.9323   -0.8567   22.4116 C   0  0  0  0  0  0  0  0  0  0  0  0
    6.8615    0.1980   21.8161 C   0  0  0  0  0  0  0  0  0  0  0  0
   12.4232   -1.6796   21.9675 C   0  0  0  0  0  0  0  0  0  0  0  0
   11.9214   -0.2482   22.1038 C   0  0  0  0  0  0  0  0  0  0  0  0
   12.0016   -2.5669   23.1326 C   0  0  0  0  0  0  0  0  0  0  0  0
   10.8802    6.6764   25.0686 N   0  0  0  0  0  0  0  0  0  0  0  0
   11.2656    2.4116   22.8582 N   0  0  0  0  0  0  0  0  0  0  0  0
    6.3402   -1.4066   20.1461 N   0  0  0  0  0  0  0  0  0  0  0  0
    8.0805   -0.9405   23.5038 N   0  0  0  0  0  0  0  0  0  0  0  0
   12.4250    0.4019   23.2828 N   0  0  0  0  0  0  0  0  0  0  0  0
    5.3636   -2.9345   18.7081 O   0  0  0  0  0  0  0  0  0  0  0  0
    7.8026   -0.7498   26.0587 O   0  0  0  0  0  0  0  0  0  0  0  0
   10.0587   -0.3096   25.0272 O   0  0  0  0  0  0  0  0  0  0  0  0
   10.5771   -2.6128   23.1823 O   0  0  0  0  0  0  0  0  0  0  0  0
    7.7928   -2.9724   27.0457 F   0  0  0  0  0  0  0  0  0  0  0  0
    8.7981   -1.0298   25.0396 S   0  0  0  0  0  0  0  0  0  0  0  0
  1  8  1  0
  1 25  3  0
  2  4  2  0
  2  5  1  0
  3  6  2  0
  3  8  1  0
  4  9  1  0
  5 10  2  0
  6 12  1  0
  7  8  2  0
  7 26  1  0
  9 11  2  0
  9 33  1  0
 10 11  1  0
 10 34  1  0
 11 35  1  0
 12 26  2  0
 12 29  1  0
 13 14  2  0
 14 15  1  0
 15 27  1  0
 15 30  2  0
 16 20  1  0
 16 27  1  0
 17 21  1  0
 17 27  1  0
 18 20  1  0
 18 28  1  0
 19 21  1  0
 19 28  1  0
 20 21  1  0
 22 23  1  0
 22 24  1  0
 23 29  1  0
 24 33  1  0
 28 35  1  0
 31 35  2  0
 32 35  2  0
M  END
