JAR-KUA-672ec752-7
     RDKit          3D

 27 30  0  0  1  0  0  0  0  0999 V2000
    7.9302    1.6966   23.7526 C   0  0  0  0  0  0  0  0  0  0  0  0
    8.7236    1.9567   24.8699 C   0  0  0  0  0  0  0  0  0  0  0  0
    8.4655    1.8276   22.4712 C   0  0  0  0  0  0  0  0  0  0  0  0
   14.1305   -0.8490   21.7130 C   0  0  0  0  0  0  0  0  0  0  0  0
   14.0639    0.4294   22.2670 C   0  0  0  0  0  0  0  0  0  0  0  0
   13.2155   -1.8268   22.1033 C   0  0  0  0  0  0  0  0  0  0  0  0
   10.0523    2.3480   24.7059 C   0  0  0  0  0  0  0  0  0  0  0  0
    9.7943    2.2190   22.3072 C   0  0  0  0  0  0  0  0  0  0  0  0
   12.8372    5.5595   24.5453 C   0  0  0  0  0  0  0  0  0  0  0  0
   12.1674   -0.2480   23.6018 C   0  0  0  0  0  0  0  0  0  0  0  0
   12.5144    6.7665   25.1254 C   0  0  0  0  0  0  0  0  0  0  0  0
   11.2341    6.3602   23.0650 C   0  0  0  0  0  0  0  0  0  0  0  0
   13.0823    0.7299   23.2115 C   0  0  0  0  0  0  0  0  0  0  0  0
   12.2340   -1.5263   23.0477 C   0  0  0  0  0  0  0  0  0  0  0  0
   12.0957    5.3241   23.3516 C   0  0  0  0  0  0  0  0  0  0  0  0
   10.5877    2.4792   23.4246 C   0  0  0  0  0  0  0  0  0  0  0  0
    8.8514   -2.9505   24.0605 C   0  0  0  0  0  0  0  0  0  0  0  0
    9.4722   -2.3665   21.7249 C   0  0  0  0  0  0  0  0  0  0  0  0
    7.4480   -2.4643   23.7407 C   0  0  0  0  0  0  0  0  0  0  0  0
    8.0366   -1.9110   21.5256 C   0  0  0  0  0  0  0  0  0  0  0  0
   13.0109    2.0974   23.8023 C   0  0  0  0  0  0  0  0  0  0  0  0
   12.2375    4.0907   22.5073 C   0  0  0  0  0  0  0  0  0  0  0  0
   11.2503   -2.5784   23.4680 C   0  0  0  0  0  0  0  0  0  0  0  0
   11.9245    2.8727   23.2592 N   0  0  0  0  0  0  0  0  0  0  0  0
    9.8254   -2.1986   23.1841 N   0  0  0  0  0  0  0  0  0  0  0  0
    7.1521   -2.6631   22.3576 O   0  0  0  0  0  0  0  0  0  0  0  0
   11.3217    7.6101   24.2322 S   0  0  0  0  0  0  0  0  0  0  0  0
  1  2  2  0
  1  3  1  0
  2  7  1  0
  3  8  2  0
  4  5  2  0
  4  6  1  0
  5 13  1  0
  6 14  2  0
  7 16  2  0
  8 16  1  0
  9 11  2  0
  9 15  1  0
 10 13  2  0
 10 14  1  0
 11 27  1  0
 12 15  2  0
 12 27  1  0
 13 21  1  0
 14 23  1  0
 15 22  1  0
 16 24  1  0
 17 19  1  0
 17 25  1  0
 18 20  1  0
 18 25  1  0
 19 26  1  0
 20 26  1  0
 21 24  1  0
 22 24  1  0
 23 25  1  0
M  CHG  1  25   1
M  END
