JAR-IMP-ed466bb3-4
     RDKit          3D

 36 40  0  0  1  0  0  0  0  0999 V2000
   13.2637    0.0363   23.6771 C   0  0  0  0  0  0  0  0  0  0  0  0
   13.3341   -0.9244   22.6682 C   0  0  0  0  0  0  0  0  0  0  0  0
   12.0415    0.3188   24.2871 C   0  0  0  0  0  0  0  0  0  0  0  0
    7.0386   -2.9839   25.7207 C   0  0  0  0  0  0  0  0  0  0  0  0
    8.2305   -3.6856   25.5669 C   0  0  0  0  0  0  0  0  0  0  0  0
   12.1823   -1.6025   22.2693 C   0  0  0  0  0  0  0  0  0  0  0  0
   10.8897   -0.3594   23.8882 C   0  0  0  0  0  0  0  0  0  0  0  0
    6.7006   -1.9773   24.8167 C   0  0  0  0  0  0  0  0  0  0  0  0
    9.0844   -3.3837   24.5070 C   0  0  0  0  0  0  0  0  0  0  0  0
   10.9791    6.2605   23.2399 C   0  0  0  0  0  0  0  0  0  0  0  0
   11.9329    4.5557   24.6615 C   0  0  0  0  0  0  0  0  0  0  0  0
   12.0156    6.0771   22.3246 C   0  0  0  0  0  0  0  0  0  0  0  0
   12.9693    4.3723   23.7462 C   0  0  0  0  0  0  0  0  0  0  0  0
   10.9601   -1.3200   22.8793 C   0  0  0  0  0  0  0  0  0  0  0  0
    7.5534   -1.6583   23.7491 C   0  0  0  0  0  0  0  0  0  0  0  0
    8.7543   -2.3740   23.5881 C   0  0  0  0  0  0  0  0  0  0  0  0
   10.9378    5.4999   24.4084 C   0  0  0  0  0  0  0  0  0  0  0  0
   13.0107    5.1330   22.5777 C   0  0  0  0  0  0  0  0  0  0  0  0
    8.3080    1.0432   21.2385 C   0  0  0  0  0  0  0  0  0  0  0  0
    7.3361    2.0696   21.6872 C   0  0  0  0  0  0  0  0  0  0  0  0
    7.1445   -0.5632   22.7952 C   0  0  0  0  0  0  0  0  0  0  0  0
    8.9931    2.6602   23.4885 C   0  0  0  0  0  0  0  0  0  0  0  0
    6.8416    3.8930   23.2656 C   0  0  0  0  0  0  0  0  0  0  0  0
    8.9205    3.1724   24.9206 C   0  0  0  0  0  0  0  0  0  0  0  0
    7.6437    5.0549   23.8344 C   0  0  0  0  0  0  0  0  0  0  0  0
    8.9811   -1.3235   21.3032 C   0  0  0  0  0  0  0  0  0  0  0  0
    9.7021   -2.0599   22.4441 C   0  0  0  0  0  0  0  0  0  0  0  0
    8.1680   -0.2186   21.8024 N   0  0  0  0  0  0  0  0  0  0  0  0
    7.7218    2.8332   22.7796 N   0  0  0  0  0  0  0  0  0  0  0  0
    8.4977    4.6013   24.9680 N   0  0  0  0  0  0  0  0  0  0  0  0
    9.1276    1.4159   20.4094 O   0  0  0  0  0  0  0  0  0  0  0  0
    6.3005    2.1455   21.0398 O   0  0  0  0  0  0  0  0  0  0  0  0
   10.0955    5.2893   26.8619 O   0  0  0  0  0  0  0  0  0  0  0  0
    9.0974    7.0659   25.3803 O   0  0  0  0  0  0  0  0  0  0  0  0
    9.6262    5.7320   25.5667 S   0  0  0  0  0  0  0  0  0  0  0  0
   14.2893    4.9067   21.4485 Cl  0  0  0  0  0  0  0  0  0  0  0  0
  1  2  2  0
  1  3  1  0
  2  6  1  0
  3  7  2  0
  4  5  2  0
  4  8  1  0
  5  9  1  0
  6 14  2  0
  7 14  1  0
  8 15  2  0
  9 16  2  0
 10 12  2  0
 10 17  1  0
 11 13  1  0
 11 17  2  0
 12 18  1  0
 13 18  2  0
 14 27  1  0
 15 16  1  0
 15 21  1  0
 16 27  1  0
 17 35  1  0
 18 36  1  0
 19 20  1  0
 19 28  1  0
 19 31  2  0
 20 29  1  0
 20 32  2  0
 21 28  1  0
 22 24  1  0
 22 29  1  0
 23 25  1  0
 23 29  1  0
 24 30  1  0
 25 30  1  0
 26 27  1  0
 26 28  1  0
 30 35  1  0
 33 35  2  0
 34 35  2  0
M  END
