JAR-IMP-ed466bb3-15
     RDKit          3D

 34 38  0  0  1  0  0  0  0  0999 V2000
    3.7922    2.4042   20.4479 C   0  0  0  0  0  0  0  0  0  0  0  0
    4.5142    1.3553   19.8896 C   0  0  0  0  0  0  0  0  0  0  0  0
   10.4030   -4.1963   24.9303 C   0  0  0  0  0  0  0  0  0  0  0  0
   11.7180   -3.8321   25.2193 C   0  0  0  0  0  0  0  0  0  0  0  0
    4.4438    3.4155   21.1599 C   0  0  0  0  0  0  0  0  0  0  0  0
    5.9030    1.2880   20.0269 C   0  0  0  0  0  0  0  0  0  0  0  0
   10.4349   -2.7666   22.9830 C   0  0  0  0  0  0  0  0  0  0  0  0
    9.7614   -3.6636   23.8121 C   0  0  0  0  0  0  0  0  0  0  0  0
   12.3916   -2.9351   24.3903 C   0  0  0  0  0  0  0  0  0  0  0  0
    5.8464    3.3717   21.3136 C   0  0  0  0  0  0  0  0  0  0  0  0
    6.5510    2.3070   20.7434 C   0  0  0  0  0  0  0  0  0  0  0  0
   11.7500   -2.4023   23.2721 C   0  0  0  0  0  0  0  0  0  0  0  0
    7.8863    3.9417   21.9308 C   0  0  0  0  0  0  0  0  0  0  0  0
   12.2385    4.2789   23.8659 C   0  0  0  0  0  0  0  0  0  0  0  0
    9.7011    6.7664   23.8725 C   0  0  0  0  0  0  0  0  0  0  0  0
    8.5366    6.0099   23.2367 C   0  0  0  0  0  0  0  0  0  0  0  0
   10.5179    5.8825   24.8174 C   0  0  0  0  0  0  0  0  0  0  0  0
   11.8930    1.8891   24.6582 C   0  0  0  0  0  0  0  0  0  0  0  0
   13.3401    2.4104   22.7047 C   0  0  0  0  0  0  0  0  0  0  0  0
   11.5556    0.6493   23.8379 C   0  0  0  0  0  0  0  0  0  0  0  0
   13.8840    1.0118   22.9497 C   0  0  0  0  0  0  0  0  0  0  0  0
    9.8181    3.8649   23.5631 C   0  0  0  0  0  0  0  0  0  0  0  0
    9.0273    4.7185   22.5609 C   0  0  0  0  0  0  0  0  0  0  0  0
    8.3558   -4.0545   23.5028 C   0  0  0  0  0  0  0  0  0  0  0  0
   13.7990   -2.5658   24.7280 C   0  0  0  0  0  0  0  0  0  0  0  0
    6.6249    4.2993   21.9904 N   0  0  0  0  0  0  0  0  0  0  0  0
   10.9148    4.6307   24.1608 N   0  0  0  0  0  0  0  0  0  0  0  0
   12.5530    2.9102   23.8321 N   0  0  0  0  0  0  0  0  0  0  0  0
   12.7910    0.0495   23.2642 N   0  0  0  0  0  0  0  0  0  0  0  0
   13.0949    5.1394   23.6225 O   0  0  0  0  0  0  0  0  0  0  0  0
   13.8663   -1.8302   21.8695 O   0  0  0  0  0  0  0  0  0  0  0  0
   11.6422   -0.8841   21.1583 O   0  0  0  0  0  0  0  0  0  0  0  0
    8.2312    2.4987   21.0795 S   0  0  0  0  0  0  0  0  0  0  0  0
   12.5737   -1.2656   22.2003 S   0  0  0  0  0  0  0  0  0  0  0  0
  1  2  2  0
  1  5  1  0
  2  6  1  0
  3  4  2  0
  3  8  1  0
  4  9  1  0
  5 10  2  0
  6 11  2  0
  7  8  2  0
  7 12  1  0
  8 24  1  0
  9 12  2  0
  9 25  1  0
 10 11  1  0
 10 26  1  0
 11 33  1  0
 12 34  1  0
 13 23  1  0
 13 26  2  0
 13 33  1  0
 14 27  1  0
 14 28  1  0
 14 30  2  0
 15 16  1  0
 15 17  1  0
 16 23  1  0
 17 27  1  0
 18 20  1  0
 18 28  1  0
 19 21  1  0
 19 28  1  0
 20 29  1  0
 21 29  1  0
 22 23  1  0
 22 27  1  0
 29 34  1  0
 31 34  2  0
 32 34  2  0
M  END
