JAR-IMP-ed466bb3-18
     RDKit          3D

 31 33  0  0  1  0  0  0  0  0999 V2000
    5.3122    0.4086   18.6643 C   0  0  0  0  0  0  0  0  0  0  0  0
    5.8003   -0.7240   19.3157 C   0  0  0  0  0  0  0  0  0  0  0  0
    5.2124    1.6191   19.3503 C   0  0  0  0  0  0  0  0  0  0  0  0
   10.7863   -1.3695   22.8472 C   0  0  0  0  0  0  0  0  0  0  0  0
    9.8795   -0.4340   24.8818 C   0  0  0  0  0  0  0  0  0  0  0  0
   11.6012   -0.2479   22.6946 C   0  0  0  0  0  0  0  0  0  0  0  0
   10.6945    0.6877   24.7292 C   0  0  0  0  0  0  0  0  0  0  0  0
    6.0887    0.5641   21.3393 C   0  0  0  0  0  0  0  0  0  0  0  0
    6.1885   -0.6464   20.6532 C   0  0  0  0  0  0  0  0  0  0  0  0
    9.9254   -1.4626   23.9408 C   0  0  0  0  0  0  0  0  0  0  0  0
    5.6007    1.6968   20.6878 C   0  0  0  0  0  0  0  0  0  0  0  0
   11.5554    0.7808   23.6356 C   0  0  0  0  0  0  0  0  0  0  0  0
    9.5701   -4.8521   24.9021 C   0  0  0  0  0  0  0  0  0  0  0  0
    8.9146   -5.8384   25.5224 C   0  0  0  0  0  0  0  0  0  0  0  0
    7.6019   -1.7537   22.3407 C   0  0  0  0  0  0  0  0  0  0  0  0
    6.7042   -1.8453   21.3425 C   0  0  0  0  0  0  0  0  0  0  0  0
    8.1226   -2.9462   23.0768 C   0  0  0  0  0  0  0  0  0  0  0  0
    7.9166   -3.5089   26.0882 C   0  0  0  0  0  0  0  0  0  0  0  0
    9.2140   -3.4456   25.2850 C   0  0  0  0  0  0  0  0  0  0  0  0
    3.5644    2.5192   23.2082 C   0  0  0  0  0  0  0  0  0  0  0  0
    5.4966    2.9356   21.3899 N   0  0  0  0  0  0  0  0  0  0  0  0
    9.0676   -2.6427   24.1014 N   0  0  0  0  0  0  0  0  0  0  0  0
    7.7108   -4.0613   22.7578 O   0  0  0  0  0  0  0  0  0  0  0  0
    6.4488   -5.6871   26.3568 O   0  0  0  0  0  0  0  0  0  0  0  0
    8.3354   -5.2819   27.9966 O   0  0  0  0  0  0  0  0  0  0  0  0
    4.0463    4.8882   22.2474 O   0  0  0  0  0  0  0  0  0  0  0  0
    2.9709    3.1755   20.7455 O   0  0  0  0  0  0  0  0  0  0  0  0
    6.2125   -3.0335   20.8418 O   0  0  0  0  0  0  0  0  0  0  0  0
   12.3387    1.8576   23.4898 F   0  0  0  0  0  0  0  0  0  0  0  0
    7.7799   -5.2024   26.6604 S   0  0  0  0  0  0  0  0  0  0  0  0
    3.9244    3.5193   21.7817 S   0  0  0  0  0  0  0  0  0  0  0  0
  1  2  2  0
  1  3  1  0
  2  9  1  0
  3 11  2  0
  4  6  2  0
  4 10  1  0
  5  7  1  0
  5 10  2  0
  6 12  1  0
  7 12  2  0
  8  9  2  0
  8 11  1  0
  9 16  1  0
 10 22  1  0
 11 21  1  0
 12 29  1  0
 13 14  2  0
 13 19  1  0
 14 30  1  0
 15 16  2  0
 15 17  1  0
 16 28  1  0
 17 22  1  0
 17 23  2  0
 18 19  1  0
 18 30  1  0
 19 22  1  0
 20 31  1  0
 21 31  1  0
 24 30  2  0
 25 30  2  0
 26 31  2  0
 27 31  2  0
M  END
