JAR-IMP-ed466bb3-1
     RDKit          3D

 32 36  0  0  1  0  0  0  0  0999 V2000
    6.5738    0.6767   24.2327 C   0  0  0  0  0  0  0  0  0  0  0  0
    7.6754    0.1805   24.9296 C   0  0  0  0  0  0  0  0  0  0  0  0
    6.2360    0.1413   22.9897 C   0  0  0  0  0  0  0  0  0  0  0  0
   10.3577   -5.3593   25.4655 C   0  0  0  0  0  0  0  0  0  0  0  0
    9.0174   -5.3512   25.0908 C   0  0  0  0  0  0  0  0  0  0  0  0
    8.4394   -0.8509   24.3836 C   0  0  0  0  0  0  0  0  0  0  0  0
    6.9999   -0.8902   22.4436 C   0  0  0  0  0  0  0  0  0  0  0  0
   11.2447   -4.4428   24.9015 C   0  0  0  0  0  0  0  0  0  0  0  0
    8.5637   -4.4299   24.1481 C   0  0  0  0  0  0  0  0  0  0  0  0
   12.8005    4.4367   22.7348 C   0  0  0  0  0  0  0  0  0  0  0  0
   13.0497    3.0723   22.8298 C   0  0  0  0  0  0  0  0  0  0  0  0
   11.0474    2.8205   24.1574 C   0  0  0  0  0  0  0  0  0  0  0  0
    8.1016   -1.3863   23.1406 C   0  0  0  0  0  0  0  0  0  0  0  0
   10.8005   -3.5052   23.9568 C   0  0  0  0  0  0  0  0  0  0  0  0
    9.4481   -3.5049   23.5701 C   0  0  0  0  0  0  0  0  0  0  0  0
   11.6760    5.0040   23.3594 C   0  0  0  0  0  0  0  0  0  0  0  0
   10.7580    4.1969   24.0752 C   0  0  0  0  0  0  0  0  0  0  0  0
   12.1749    2.2650   23.5440 C   0  0  0  0  0  0  0  0  0  0  0  0
   11.6652   -0.2035   22.3024 C   0  0  0  0  0  0  0  0  0  0  0  0
   11.4489    6.4887   23.2080 C   0  0  0  0  0  0  0  0  0  0  0  0
   11.7971   -2.5290   23.3769 C   0  0  0  0  0  0  0  0  0  0  0  0
   10.5183    7.0163   24.2907 C   0  0  0  0  0  0  0  0  0  0  0  0
    9.2754    6.1427   24.3697 C   0  0  0  0  0  0  0  0  0  0  0  0
   10.0844   -1.9680   21.6800 C   0  0  0  0  0  0  0  0  0  0  0  0
    8.9353   -2.5122   22.5438 C   0  0  0  0  0  0  0  0  0  0  0  0
    8.6409    3.9330   25.3509 C   0  0  0  0  0  0  0  0  0  0  0  0
    9.6356    4.7610   24.6842 N   0  0  0  0  0  0  0  0  0  0  0  0
   11.2043   -1.5065   22.5002 N   0  0  0  0  0  0  0  0  0  0  0  0
   11.5522    0.4722   21.2876 O   0  0  0  0  0  0  0  0  0  0  0  0
   13.9050    0.3373   23.4696 O   0  0  0  0  0  0  0  0  0  0  0  0
   11.7918    0.0329   24.8443 O   0  0  0  0  0  0  0  0  0  0  0  0
   12.4839    0.5320   23.6733 S   0  0  0  0  0  0  0  0  0  0  0  0
  1  2  2  0
  1  3  1  0
  2  6  1  0
  3  7  2  0
  4  5  2  0
  4  8  1  0
  5  9  1  0
  6 13  2  0
  7 13  1  0
  8 14  2  0
  9 15  2  0
 10 11  2  0
 10 16  1  0
 11 18  1  0
 12 17  1  0
 12 18  2  0
 13 25  1  0
 14 15  1  0
 14 21  1  0
 15 25  1  0
 16 17  2  0
 16 20  1  0
 17 27  1  0
 18 32  1  0
 19 28  1  0
 19 29  2  0
 19 32  1  0
 20 22  1  0
 21 28  1  0
 22 23  1  0
 23 27  1  0
 24 25  1  0
 24 28  1  0
 26 27  1  0
 30 32  2  0
 31 32  2  0
M  END
