JAR-IMP-ed466bb3-12
     RDKit          3D

 38 42  0  0  1  0  0  0  0  0999 V2000
   10.1718    5.9513   28.5338 C   0  0  0  0  0  0  0  0  0  0  0  0
    9.5059    5.2276   27.5448 C   0  0  0  0  0  0  0  0  0  0  0  0
   10.9931    7.0221   28.1809 C   0  0  0  0  0  0  0  0  0  0  0  0
    7.0179    6.6111   22.0818 C   0  0  0  0  0  0  0  0  0  0  0  0
    7.1543    7.6522   22.9954 C   0  0  0  0  0  0  0  0  0  0  0  0
    7.1023   -6.1183   27.4529 C   0  0  0  0  0  0  0  0  0  0  0  0
    5.9840   -6.8544   27.0616 C   0  0  0  0  0  0  0  0  0  0  0  0
    9.6613    5.5745   26.2027 C   0  0  0  0  0  0  0  0  0  0  0  0
   11.1485    7.3691   26.8388 C   0  0  0  0  0  0  0  0  0  0  0  0
    8.0564    5.6973   21.9057 C   0  0  0  0  0  0  0  0  0  0  0  0
    8.3305    7.7825   23.7324 C   0  0  0  0  0  0  0  0  0  0  0  0
    7.4851   -4.9914   26.7252 C   0  0  0  0  0  0  0  0  0  0  0  0
    5.2485   -6.4638   25.9426 C   0  0  0  0  0  0  0  0  0  0  0  0
   10.4826    6.6453   25.8497 C   0  0  0  0  0  0  0  0  0  0  0  0
    9.2425    5.8116   22.6461 C   0  0  0  0  0  0  0  0  0  0  0  0
    9.3844    6.8698   23.5634 C   0  0  0  0  0  0  0  0  0  0  0  0
    6.7496   -4.6008   25.6062 C   0  0  0  0  0  0  0  0  0  0  0  0
    5.6313   -5.3370   25.2149 C   0  0  0  0  0  0  0  0  0  0  0  0
    8.2337   -2.6254   25.1379 C   0  0  0  0  0  0  0  0  0  0  0  0
   12.1281    3.7496   23.7540 C   0  0  0  0  0  0  0  0  0  0  0  0
   12.0735    0.0022   23.0374 C   0  0  0  0  0  0  0  0  0  0  0  0
   10.3461    4.8097   22.4136 C   0  0  0  0  0  0  0  0  0  0  0  0
    8.9004   -0.2443   24.7552 C   0  0  0  0  0  0  0  0  0  0  0  0
    9.1163   -1.9736   22.9045 C   0  0  0  0  0  0  0  0  0  0  0  0
   10.4170   -0.3084   24.9414 C   0  0  0  0  0  0  0  0  0  0  0  0
   10.6222   -1.9974   23.1603 C   0  0  0  0  0  0  0  0  0  0  0  0
   11.8339    6.2729   23.7442 C   0  0  0  0  0  0  0  0  0  0  0  0
   10.6530    7.0247   24.3839 C   0  0  0  0  0  0  0  0  0  0  0  0
    8.3187   -1.5163   24.1299 C   0  0  0  0  0  0  0  0  0  0  0  0
   11.6582    2.4546   23.1406 C   0  0  0  0  0  0  0  0  0  0  0  0
   12.4952    1.3064   23.6657 C   0  0  0  0  0  0  0  0  0  0  0  0
   11.4525    4.9082   23.3682 N   0  0  0  0  0  0  0  0  0  0  0  0
   11.0774   -0.7158   23.6976 N   0  0  0  0  0  0  0  0  0  0  0  0
    7.1510   -3.4559   24.8779 N   0  0  0  0  0  0  0  0  0  0  0  0
    9.0573   -2.7166   26.0424 O   0  0  0  0  0  0  0  0  0  0  0  0
   13.0702    3.7331   24.5506 O   0  0  0  0  0  0  0  0  0  0  0  0
   12.6130   -0.3646   21.9903 O   0  0  0  0  0  0  0  0  0  0  0  0
    4.8990   -4.9727   24.1245 O   0  0  0  0  0  0  0  0  0  0  0  0
  1  2  2  0
  1  3  1  0
  2  8  1  0
  3  9  2  0
  4  5  2  0
  4 10  1  0
  5 11  1  0
  6  7  2  0
  6 12  1  0
  7 13  1  0
  8 14  2  0
  9 14  1  0
 10 15  2  0
 11 16  2  0
 12 17  2  0
 13 18  2  0
 14 28  1  0
 15 16  1  0
 15 22  1  0
 16 28  1  0
 17 18  1  0
 17 34  1  0
 18 38  1  0
 19 29  1  0
 19 34  1  0
 19 35  2  0
 20 30  1  0
 20 32  1  0
 20 36  2  0
 21 31  1  0
 21 33  1  0
 21 37  2  0
 22 32  1  0
 23 25  1  0
 23 29  1  0
 24 26  1  0
 24 29  1  0
 25 33  1  0
 26 33  1  0
 27 28  1  0
 27 32  1  0
 30 31  1  0
M  END
