JAR-KUA-672ec752-14
     RDKit          3D

 19 20  0  0  0  0  0  0  0  0999 V2000
   11.6753    2.6066   24.1023 C   0  0  0  0  0  0  0  0  0  0  0  0
   11.9180    3.7473   23.3792 C   0  0  0  0  0  0  0  0  0  0  0  0
   12.0300   -0.5963   22.9021 C   0  0  0  0  0  0  0  0  0  0  0  0
    9.9861   -1.7908   22.1832 C   0  0  0  0  0  0  0  0  0  0  0  0
    9.8663   -0.4186   24.2267 C   0  0  0  0  0  0  0  0  0  0  0  0
    9.3293   -2.9588   22.9043 C   0  0  0  0  0  0  0  0  0  0  0  0
    9.2055   -1.5662   24.9786 C   0  0  0  0  0  0  0  0  0  0  0  0
    7.8689    6.4648   22.6474 C   0  0  0  0  0  0  0  0  0  0  0  0
    7.6782   -3.5207   24.6913 C   0  0  0  0  0  0  0  0  0  0  0  0
   11.3097    5.0768   23.5175 C   0  0  0  0  0  0  0  0  0  0  0  0
   12.6849    0.3012   23.9215 C   0  0  0  0  0  0  0  0  0  0  0  0
    9.2848    6.4996   23.1798 C   0  0  0  0  0  0  0  0  0  0  0  0
   12.8733    3.4972   22.4334 N   0  0  0  0  0  0  0  0  0  0  0  0
   13.2355    2.2240   22.5458 N   0  0  0  0  0  0  0  0  0  0  0  0
   12.5159    1.6917   23.5469 N   0  0  0  0  0  0  0  0  0  0  0  0
   10.6929   -0.9222   23.1246 N   0  0  0  0  0  0  0  0  0  0  0  0
    8.4342   -2.4219   23.9988 N   0  0  0  0  0  0  0  0  0  0  0  0
    9.9123    5.1708   22.9853 N   0  0  0  0  0  0  0  0  0  0  0  0
   12.6893   -0.9967   21.9392 O   0  0  0  0  0  0  0  0  0  0  0  0
  1  2  2  0
  1 15  1  0
  2 10  1  0
  2 13  1  0
  3 11  1  0
  3 16  1  0
  3 19  2  0
  4  6  1  0
  4 16  1  0
  5  7  1  0
  5 16  1  0
  6 17  1  0
  7 17  1  0
  8 12  1  0
  9 17  1  0
 10 18  1  0
 11 15  1  0
 12 18  1  0
 13 14  2  0
 14 15  1  0
M  CHG  2  17   1  18   1
M  END
