JAR-IMP-ed466bb3-7
     RDKit          3D

 25 28  0  0  1  0  0  0  0  0999 V2000
    7.7870   -1.7496   25.9403 C   0  0  0  0  0  0  0  0  0  0  0  0
    8.7239   -0.7581   25.6494 C   0  0  0  0  0  0  0  0  0  0  0  0
    7.7338   -2.9079   25.1649 C   0  0  0  0  0  0  0  0  0  0  0  0
   14.4864   -0.7646   23.4868 C   0  0  0  0  0  0  0  0  0  0  0  0
   14.0148   -1.9033   24.1335 C   0  0  0  0  0  0  0  0  0  0  0  0
    9.6075   -0.9247   24.5830 C   0  0  0  0  0  0  0  0  0  0  0  0
    8.6174   -3.0746   24.0985 C   0  0  0  0  0  0  0  0  0  0  0  0
   13.6814   -0.1071   22.5572 C   0  0  0  0  0  0  0  0  0  0  0  0
   12.7378   -2.3861   23.8510 C   0  0  0  0  0  0  0  0  0  0  0  0
    9.5543   -2.0830   23.8076 C   0  0  0  0  0  0  0  0  0  0  0  0
   12.3909   -0.5765   22.2711 C   0  0  0  0  0  0  0  0  0  0  0  0
   11.9156   -1.7320   22.9184 C   0  0  0  0  0  0  0  0  0  0  0  0
    9.1671    0.7346   21.3813 C   0  0  0  0  0  0  0  0  0  0  0  0
   11.5664    0.1355   21.2298 C   0  0  0  0  0  0  0  0  0  0  0  0
    7.7313   -0.2803   19.5448 C   0  0  0  0  0  0  0  0  0  0  0  0
    9.9181   -1.6950   21.3381 C   0  0  0  0  0  0  0  0  0  0  0  0
    6.8003    1.3661   21.1401 C   0  0  0  0  0  0  0  0  0  0  0  0
    6.8174    0.4681   18.5821 C   0  0  0  0  0  0  0  0  0  0  0  0
   10.5201   -2.2658   22.6412 C   0  0  0  0  0  0  0  0  0  0  0  0
    5.4922    0.8282   20.5650 C   0  0  0  0  0  0  0  0  0  0  0  0
    4.3155    1.7156   20.9469 C   0  0  0  0  0  0  0  0  0  0  0  0
   10.1537   -0.2503   21.2383 N   0  0  0  0  0  0  0  0  0  0  0  0
    7.9269    0.5094   20.7678 N   0  0  0  0  0  0  0  0  0  0  0  0
    9.3808    1.7743   22.0192 O   0  0  0  0  0  0  0  0  0  0  0  0
    5.5307    0.7508   19.1355 O   0  0  0  0  0  0  0  0  0  0  0  0
  1  2  2  0
  1  3  1  0
  2  6  1  0
  3  7  2  0
  4  5  2  0
  4  8  1  0
  5  9  1  0
  6 10  2  0
  7 10  1  0
  8 11  2  0
  9 12  2  0
 10 19  1  0
 11 12  1  0
 11 14  1  0
 12 19  1  0
 13 22  1  0
 13 23  1  0
 13 24  2  0
 14 22  1  0
 15 18  1  0
 15 23  1  0
 16 19  1  0
 16 22  1  0
 17 20  1  0
 17 23  1  0
 18 25  1  0
 20 21  1  0
 20 25  1  0
M  END
