JAR-KUA-672ec752-10
     RDKit          3D

 18 20  0  0  1  0  0  0  0  0999 V2000
   12.8823   -0.3479   23.9740 C   0  0  0  0  0  0  0  0  0  0  0  0
   10.5377   -0.1607   23.4717 C   0  0  0  0  0  0  0  0  0  0  0  0
   12.8541   -1.6002   23.3817 C   0  0  0  0  0  0  0  0  0  0  0  0
   11.6978    0.3791   24.0158 C   0  0  0  0  0  0  0  0  0  0  0  0
   10.6145   -1.4213   22.9017 C   0  0  0  0  0  0  0  0  0  0  0  0
    6.4882   -2.0050   24.7996 C   0  0  0  0  0  0  0  0  0  0  0  0
    7.1177   -2.8248   25.9251 C   0  0  0  0  0  0  0  0  0  0  0  0
    8.7822   -4.6092   26.5725 C   0  0  0  0  0  0  0  0  0  0  0  0
    7.5314   -1.4273   23.8571 C   0  0  0  0  0  0  0  0  0  0  0  0
    9.1206   -3.2655   24.4582 C   0  0  0  0  0  0  0  0  0  0  0  0
    7.7544   -5.6349   27.0075 C   0  0  0  0  0  0  0  0  0  0  0  0
    7.3576   -5.0861   24.7778 C   0  0  0  0  0  0  0  0  0  0  0  0
    8.0989   -3.9015   25.4061 C   0  0  0  0  0  0  0  0  0  0  0  0
   11.6726    1.7319   24.6422 C   0  0  0  0  0  0  0  0  0  0  0  0
    9.3823   -2.0350   22.3050 C   0  0  0  0  0  0  0  0  0  0  0  0
   11.7467   -2.1576   22.8425 N   0  0  0  0  0  0  0  0  0  0  0  0
    8.4129   -2.5365   23.3404 N   0  0  0  0  0  0  0  0  0  0  0  0
    6.9579   -5.9459   25.8571 O   0  0  0  0  0  0  0  0  0  0  0  0
  1  3  2  0
  1  4  1  0
  2  4  2  0
  2  5  1  0
  3 16  1  0
  4 14  1  0
  5 15  1  0
  5 16  2  0
  6  7  1  0
  6  9  1  0
  7 13  1  0
  8 11  1  0
  8 13  1  0
  9 17  1  0
 10 13  1  0
 10 17  1  0
 11 18  1  0
 12 13  1  0
 12 18  1  0
 15 17  1  0
M  CHG  1  17   1
M  END
