JAR-KUA-672ec752-2
     RDKit          3D

 17 19  0  0  0  0  0  0  0  0999 V2000
   13.3335   -2.1299   23.1008 C   0  0  0  0  0  0  0  0  0  0  0  0
   13.7627   -1.3474   22.0288 C   0  0  0  0  0  0  0  0  0  0  0  0
   12.9305   -1.5226   24.2902 C   0  0  0  0  0  0  0  0  0  0  0  0
   13.7890    0.0422   22.1462 C   0  0  0  0  0  0  0  0  0  0  0  0
   12.9569   -0.1330   24.4075 C   0  0  0  0  0  0  0  0  0  0  0  0
    8.9032    6.7841   23.8966 C   0  0  0  0  0  0  0  0  0  0  0  0
    7.8166    6.5331   22.0837 C   0  0  0  0  0  0  0  0  0  0  0  0
   13.3861    0.6495   23.3355 C   0  0  0  0  0  0  0  0  0  0  0  0
    9.7708    6.1600   23.0316 C   0  0  0  0  0  0  0  0  0  0  0  0
   12.9519    4.2275   22.3295 C   0  0  0  0  0  0  0  0  0  0  0  0
   11.2526    3.2539   23.0555 C   0  0  0  0  0  0  0  0  0  0  0  0
   12.6010    2.7412   22.5204 C   0  0  0  0  0  0  0  0  0  0  0  0
   11.1901    5.6971   23.1804 C   0  0  0  0  0  0  0  0  0  0  0  0
    7.6884    7.0133   23.3007 N   0  0  0  0  0  0  0  0  0  0  0  0
    9.0604    6.0054   21.8746 N   0  0  0  0  0  0  0  0  0  0  0  0
   11.5066    4.5196   22.3427 N   0  0  0  0  0  0  0  0  0  0  0  0
   13.4132    2.0080   23.4514 O   0  0  0  0  0  0  0  0  0  0  0  0
  1  2  2  0
  1  3  1  0
  2  4  1  0
  3  5  2  0
  4  8  2  0
  5  8  1  0
  6  9  2  0
  6 14  1  0
  7 14  2  0
  7 15  1  0
  8 17  1  0
  9 13  1  0
  9 15  1  0
 10 12  1  0
 10 16  1  0
 11 12  1  0
 11 16  1  0
 12 17  1  0
 13 16  1  0
M  CHG  1  16   1
M  END
