JAR-IMP-ed466bb3-13
     RDKit          3D

 28 31  0  0  1  0  0  0  0  0999 V2000
    7.9438    1.4456   22.2401 C   0  0  0  0  0  0  0  0  0  0  0  0
    9.0495    1.5010   21.3916 C   0  0  0  0  0  0  0  0  0  0  0  0
    8.1194    1.5339   23.6211 C   0  0  0  0  0  0  0  0  0  0  0  0
   14.5040    4.4052   21.5203 C   0  0  0  0  0  0  0  0  0  0  0  0
   13.4853    4.9701   22.2823 C   0  0  0  0  0  0  0  0  0  0  0  0
   10.3607   -1.5160   21.6844 C   0  0  0  0  0  0  0  0  0  0  0  0
   11.0135   -2.5442   23.7710 C   0  0  0  0  0  0  0  0  0  0  0  0
   10.3307    1.6445   21.9240 C   0  0  0  0  0  0  0  0  0  0  0  0
    9.4006    1.6774   24.1535 C   0  0  0  0  0  0  0  0  0  0  0  0
   14.6902    3.0231   21.5195 C   0  0  0  0  0  0  0  0  0  0  0  0
   12.6526    4.1541   23.0468 C   0  0  0  0  0  0  0  0  0  0  0  0
    9.0533   -1.9641   21.8726 C   0  0  0  0  0  0  0  0  0  0  0  0
    9.7060   -2.9923   23.9592 C   0  0  0  0  0  0  0  0  0  0  0  0
   11.3409   -1.8061   22.6336 C   0  0  0  0  0  0  0  0  0  0  0  0
   10.5063    1.7328   23.3050 C   0  0  0  0  0  0  0  0  0  0  0  0
   13.8554    2.1891   22.2781 C   0  0  0  0  0  0  0  0  0  0  0  0
   12.8310    2.7613   23.0565 C   0  0  0  0  0  0  0  0  0  0  0  0
    8.7259   -2.7023   23.0100 C   0  0  0  0  0  0  0  0  0  0  0  0
   12.7174   -1.3377   22.4338 C   0  0  0  0  0  0  0  0  0  0  0  0
   14.0997    0.7004   22.2583 C   0  0  0  0  0  0  0  0  0  0  0  0
   12.5397    0.5163   24.1722 C   0  0  0  0  0  0  0  0  0  0  0  0
   11.9060    1.8894   23.8874 C   0  0  0  0  0  0  0  0  0  0  0  0
   13.0677   -0.0824   22.9408 N   0  0  0  0  0  0  0  0  0  0  0  0
    7.1534   -4.7867   22.4742 N   0  0  0  0  0  0  0  0  0  0  0  0
   13.4663   -2.0980   21.8220 O   0  0  0  0  0  0  0  0  0  0  0  0
    6.8736   -3.4665   24.6707 O   0  0  0  0  0  0  0  0  0  0  0  0
    6.1912   -2.3970   22.4940 O   0  0  0  0  0  0  0  0  0  0  0  0
    7.0891   -3.2632   23.2450 S   0  0  0  0  0  0  0  0  0  0  0  0
  1  2  2  0
  1  3  1  0
  2  8  1  0
  3  9  2  0
  4  5  2  0
  4 10  1  0
  5 11  1  0
  6 12  2  0
  6 14  1  0
  7 13  1  0
  7 14  2  0
  8 15  2  0
  9 15  1  0
 10 16  2  0
 11 17  2  0
 12 18  1  0
 13 18  2  0
 14 19  1  0
 15 22  1  0
 16 17  1  0
 16 20  1  0
 17 22  1  0
 18 28  1  0
 19 23  1  0
 19 25  2  0
 20 23  1  0
 21 22  1  0
 21 23  1  0
 24 28  1  0
 26 28  2  0
 27 28  2  0
M  END
