JAR-KUA-672ec752-3
     RDKit          3D

 25 27  0  0  0  0  0  0  0  0999 V2000
   14.3130   -1.3055   22.1975 C   0  0  0  0  0  0  0  0  0  0  0  0
   13.0534   -1.6258   22.6954 C   0  0  0  0  0  0  0  0  0  0  0  0
   14.6916    0.0305   22.0623 C   0  0  0  0  0  0  0  0  0  0  0  0
   12.1677   -0.6113   23.0600 C   0  0  0  0  0  0  0  0  0  0  0  0
   14.1774    2.4146   22.2948 C   0  0  0  0  0  0  0  0  0  0  0  0
   13.2917    3.4290   22.6593 C   0  0  0  0  0  0  0  0  0  0  0  0
   13.8129    1.0645   22.4242 C   0  0  0  0  0  0  0  0  0  0  0  0
   12.5321    0.7388   22.9305 C   0  0  0  0  0  0  0  0  0  0  0  0
   11.6534    1.7728   23.2924 C   0  0  0  0  0  0  0  0  0  0  0  0
   12.0321    3.1088   23.1572 C   0  0  0  0  0  0  0  0  0  0  0  0
    8.6309    0.9569   25.2865 C   0  0  0  0  0  0  0  0  0  0  0  0
    6.9037   -0.8142   25.3206 C   0  0  0  0  0  0  0  0  0  0  0  0
    9.2633   -1.5021   25.1407 C   0  0  0  0  0  0  0  0  0  0  0  0
    6.5286   -1.7238   24.1598 C   0  0  0  0  0  0  0  0  0  0  0  0
    8.9232   -2.4241   23.9776 C   0  0  0  0  0  0  0  0  0  0  0  0
    7.1199   -3.8808   23.0493 C   0  0  0  0  0  0  0  0  0  0  0  0
   10.0951    1.3019   25.1834 C   0  0  0  0  0  0  0  0  0  0  0  0
    8.3030   -0.3970   25.2307 N   0  0  0  0  0  0  0  0  0  0  0  0
   11.9304    5.7713   23.2298 N   0  0  0  0  0  0  0  0  0  0  0  0
   10.3870    1.4821   23.7937 N   0  0  0  0  0  0  0  0  0  0  0  0
    7.4910   -2.8897   24.1164 N   0  0  0  0  0  0  0  0  0  0  0  0
    7.8048    1.8648   25.4103 O   0  0  0  0  0  0  0  0  0  0  0  0
    9.8163    4.3948   22.6991 O   0  0  0  0  0  0  0  0  0  0  0  0
   10.7481    4.3703   25.0398 O   0  0  0  0  0  0  0  0  0  0  0  0
   10.9566    4.4189   23.6014 S   0  0  0  0  0  0  0  0  0  0  0  0
  1  2  2  0
  1  3  1  0
  2  4  1  0
  3  7  2  0
  4  8  2  0
  5  6  2  0
  5  7  1  0
  6 10  1  0
  7  8  1  0
  8  9  1  0
  9 10  2  0
  9 20  1  0
 10 25  1  0
 11 17  1  0
 11 18  1  0
 11 22  2  0
 12 14  1  0
 12 18  1  0
 13 15  1  0
 13 18  1  0
 14 21  1  0
 15 21  1  0
 16 21  1  0
 17 20  1  0
 19 25  1  0
 23 25  2  0
 24 25  2  0
M  CHG  1  21   1
M  END
