JAR-IMP-ed466bb3-10
     RDKit          3D

 33 36  0  0  0  0  0  0  0  0999 V2000
    7.2706   -0.6682   21.0953 C   0  0  0  0  0  0  0  0  0  0  0  0
    8.3046   -1.4470   20.5757 C   0  0  0  0  0  0  0  0  0  0  0  0
    6.9598   -0.7377   22.4533 C   0  0  0  0  0  0  0  0  0  0  0  0
   12.3730    7.3773   25.5657 C   0  0  0  0  0  0  0  0  0  0  0  0
   11.2066    8.1371   25.6539 C   0  0  0  0  0  0  0  0  0  0  0  0
    9.0277   -2.2954   21.4142 C   0  0  0  0  0  0  0  0  0  0  0  0
    7.6829   -1.5861   23.2918 C   0  0  0  0  0  0  0  0  0  0  0  0
   12.3775    6.1885   24.8359 C   0  0  0  0  0  0  0  0  0  0  0  0
   10.0446    7.7081   25.0125 C   0  0  0  0  0  0  0  0  0  0  0  0
    8.7169   -2.3649   22.7722 C   0  0  0  0  0  0  0  0  0  0  0  0
   11.2155    5.7595   24.1945 C   0  0  0  0  0  0  0  0  0  0  0  0
   10.0490    6.5193   24.2828 C   0  0  0  0  0  0  0  0  0  0  0  0
    9.4611   -3.2385   23.6357 C   0  0  0  0  0  0  0  0  0  0  0  0
   10.8227   -3.1277   23.8255 C   0  0  0  0  0  0  0  0  0  0  0  0
    9.7343   -4.8996   25.0414 C   0  0  0  0  0  0  0  0  0  0  0  0
   13.8577   -1.1648   22.8594 C   0  0  0  0  0  0  0  0  0  0  0  0
   13.1541   -2.2406   23.5856 C   0  0  0  0  0  0  0  0  0  0  0  0
   12.3095    3.6885   23.2791 C   0  0  0  0  0  0  0  0  0  0  0  0
   13.1191    2.0519   21.5895 C   0  0  0  0  0  0  0  0  0  0  0  0
   11.3421    1.3808   23.2870 C   0  0  0  0  0  0  0  0  0  0  0  0
   14.1322    1.2422   22.3991 C   0  0  0  0  0  0  0  0  0  0  0  0
   12.4183    0.5911   24.0318 C   0  0  0  0  0  0  0  0  0  0  0  0
   11.9226    2.5123   22.4302 C   0  0  0  0  0  0  0  0  0  0  0  0
    9.4381   -6.0522   25.9202 C   0  0  0  0  0  0  0  0  0  0  0  0
    8.8354   -4.2542   24.3318 N   0  0  0  0  0  0  0  0  0  0  0  0
   13.4641    0.1475   23.1029 N   0  0  0  0  0  0  0  0  0  0  0  0
   11.2356    4.5510   23.4586 N   0  0  0  0  0  0  0  0  0  0  0  0
   11.7990   -2.2415   23.3086 N   0  0  0  0  0  0  0  0  0  0  0  0
   14.7498   -1.4953   22.0763 O   0  0  0  0  0  0  0  0  0  0  0  0
   13.7936   -2.9841   24.3168 O   0  0  0  0  0  0  0  0  0  0  0  0
   13.4488    3.7964   23.7210 O   0  0  0  0  0  0  0  0  0  0  0  0
    8.9028    6.1180   23.6639 O   0  0  0  0  0  0  0  0  0  0  0  0
   11.3514   -4.3381   24.9195 S   0  0  0  0  0  0  0  0  0  0  0  0
  1  2  2  0
  1  3  1  0
  2  6  1  0
  3  7  2  0
  4  5  2  0
  4  8  1  0
  5  9  1  0
  6 10  2  0
  7 10  1  0
  8 11  2  0
  9 12  2  0
 10 13  1  0
 11 12  1  0
 11 27  1  0
 12 32  1  0
 13 14  2  0
 13 25  1  0
 14 28  1  0
 14 33  1  0
 15 24  1  0
 15 25  2  0
 15 33  1  0
 16 17  1  0
 16 26  1  0
 16 29  2  0
 17 28  1  0
 17 30  2  0
 18 23  1  0
 18 27  1  0
 18 31  2  0
 19 21  1  0
 19 23  1  0
 20 22  1  0
 20 23  1  0
 21 26  1  0
 22 26  1  0
M  END
