JAR-KUA-672ec752-12
     RDKit          3D

 20 22  0  0  0  0  0  0  0  0999 V2000
   12.9992   -0.7912   25.9592 C   0  0  0  0  0  0  0  0  0  0  0  0
   13.9527   -1.8022   26.0991 C   0  0  0  0  0  0  0  0  0  0  0  0
   11.7092   -1.0756   25.4937 C   0  0  0  0  0  0  0  0  0  0  0  0
   13.6539   -3.1310   25.7802 C   0  0  0  0  0  0  0  0  0  0  0  0
    7.6780   -2.7064   23.4258 C   0  0  0  0  0  0  0  0  0  0  0  0
    7.1228   -1.9903   22.3262 C   0  0  0  0  0  0  0  0  0  0  0  0
   11.3917   -2.4052   25.1685 C   0  0  0  0  0  0  0  0  0  0  0  0
   12.3632   -3.3909   25.3186 C   0  0  0  0  0  0  0  0  0  0  0  0
    7.6903   -4.0660   23.2047 C   0  0  0  0  0  0  0  0  0  0  0  0
    6.7322   -2.8300   21.3062 C   0  0  0  0  0  0  0  0  0  0  0  0
   10.4603   -4.2284   24.5621 C   0  0  0  0  0  0  0  0  0  0  0  0
    7.3869   -2.3546   18.6418 C   0  0  0  0  0  0  0  0  0  0  0  0
    8.1885   -5.1556   24.1095 C   0  0  0  0  0  0  0  0  0  0  0  0
   10.2164   -2.9442   24.6978 N   0  0  0  0  0  0  0  0  0  0  0  0
   11.7398   -4.5467   24.9235 N   0  0  0  0  0  0  0  0  0  0  0  0
    9.6499   -5.2214   24.1341 N   0  0  0  0  0  0  0  0  0  0  0  0
    5.2962   -3.7657   19.3577 O   0  0  0  0  0  0  0  0  0  0  0  0
    5.2972   -1.2806   19.7705 O   0  0  0  0  0  0  0  0  0  0  0  0
    7.0346   -4.4743   21.6764 S   0  0  0  0  0  0  0  0  0  0  0  0
    5.9998   -2.5517   19.7329 S   0  0  0  0  0  0  0  0  0  0  0  0
  1  2  2  0
  1  3  1  0
  2  4  1  0
  3  7  2  0
  4  8  2  0
  5  6  1  0
  5  9  2  0
  6 10  2  0
  7  8  1  0
  7 14  1  0
  8 15  1  0
  9 13  1  0
  9 19  1  0
 10 19  1  0
 10 20  1  0
 11 14  2  0
 11 15  1  0
 11 16  1  0
 12 20  1  0
 13 16  1  0
 17 20  2  0
 18 20  2  0
M  END
