JAR-KUA-672ec752-9
     RDKit          3D

 21 24  0  0  0  0  0  0  0  0999 V2000
    3.7570    1.6706   20.4575 C   0  0  0  0  0  0  0  0  0  0  0  0
    3.7328    1.3607   19.1034 C   0  0  0  0  0  0  0  0  0  0  0  0
    4.9262    1.4735   21.1866 C   0  0  0  0  0  0  0  0  0  0  0  0
    4.8771    0.8546   18.4817 C   0  0  0  0  0  0  0  0  0  0  0  0
    7.9794   -4.7514   25.9443 C   0  0  0  0  0  0  0  0  0  0  0  0
    7.2671    0.7562   21.2712 C   0  0  0  0  0  0  0  0  0  0  0  0
    8.2734   -0.0277   19.2779 C   0  0  0  0  0  0  0  0  0  0  0  0
    6.8558   -5.4857   25.6440 C   0  0  0  0  0  0  0  0  0  0  0  0
    7.2088   -4.1902   23.9275 C   0  0  0  0  0  0  0  0  0  0  0  0
    6.0770    0.9645   20.5611 C   0  0  0  0  0  0  0  0  0  0  0  0
    8.2086   -3.9099   24.8297 C   0  0  0  0  0  0  0  0  0  0  0  0
    8.3865    0.2523   20.6246 C   0  0  0  0  0  0  0  0  0  0  0  0
    6.0597    0.6478   19.1866 C   0  0  0  0  0  0  0  0  0  0  0  0
    8.7670   -2.0734   22.2583 C   0  0  0  0  0  0  0  0  0  0  0  0
   10.7045   -1.6018   22.8810 C   0  0  0  0  0  0  0  0  0  0  0  0
    9.7547   -2.7709   23.2176 C   0  0  0  0  0  0  0  0  0  0  0  0
    9.3237   -2.9073   24.6624 C   0  0  0  0  0  0  0  0  0  0  0  0
    9.6715    0.0193   21.3631 C   0  0  0  0  0  0  0  0  0  0  0  0
    7.1444    0.1585   18.5565 N   0  0  0  0  0  0  0  0  0  0  0  0
    9.9316   -1.4108   21.6368 N   0  0  0  0  0  0  0  0  0  0  0  0
    6.3800   -5.1497   24.4163 O   0  0  0  0  0  0  0  0  0  0  0  0
  1  2  2  0
  1  3  1  0
  2  4  1  0
  3 10  2  0
  4 13  2  0
  5  8  2  0
  5 11  1  0
  6 10  1  0
  6 12  2  0
  7 12  1  0
  7 19  2  0
  8 21  1  0
  9 11  2  0
  9 21  1  0
 10 13  1  0
 11 17  1  0
 12 18  1  0
 13 19  1  0
 14 16  1  0
 14 20  1  0
 15 16  1  0
 15 20  1  0
 16 17  1  0
 18 20  1  0
M  CHG  1  20   1
M  END
