JAR-KUA-672ec752-8
     RDKit          3D

 20 23  0  0  0  0  0  0  0  0999 V2000
    7.9213    8.6730   24.6929 C   0  0  0  0  0  0  0  0  0  0  0  0
    7.4607    8.2690   23.4413 C   0  0  0  0  0  0  0  0  0  0  0  0
    9.4216   -2.5816   23.2762 C   0  0  0  0  0  0  0  0  0  0  0  0
    9.0866    8.1229   25.2392 C   0  0  0  0  0  0  0  0  0  0  0  0
    8.1473    7.3053   22.6973 C   0  0  0  0  0  0  0  0  0  0  0  0
   10.7732   -2.2045   23.4612 C   0  0  0  0  0  0  0  0  0  0  0  0
   10.9810    6.3990   24.7452 C   0  0  0  0  0  0  0  0  0  0  0  0
    8.7214   -1.4130   23.0869 C   0  0  0  0  0  0  0  0  0  0  0  0
    9.7956    7.1496   24.5075 C   0  0  0  0  0  0  0  0  0  0  0  0
    9.3105    6.7640   23.2559 C   0  0  0  0  0  0  0  0  0  0  0  0
   11.1886    5.5873   23.6540 C   0  0  0  0  0  0  0  0  0  0  0  0
   10.8025   -0.8322   23.3716 C   0  0  0  0  0  0  0  0  0  0  0  0
   10.8985    2.5714   23.2233 C   0  0  0  0  0  0  0  0  0  0  0  0
   12.8270    2.3933   22.4402 C   0  0  0  0  0  0  0  0  0  0  0  0
   11.6645    1.3895   22.5920 C   0  0  0  0  0  0  0  0  0  0  0  0
   12.2743    4.5929   23.3650 C   0  0  0  0  0  0  0  0  0  0  0  0
   11.9121    0.1851   23.4752 C   0  0  0  0  0  0  0  0  0  0  0  0
   10.1760    5.8147   22.7610 N   0  0  0  0  0  0  0  0  0  0  0  0
   11.8230    3.4747   22.5084 N   0  0  0  0  0  0  0  0  0  0  0  0
    9.5559   -0.3420   23.1435 O   0  0  0  0  0  0  0  0  0  0  0  0
  1  2  2  0
  1  4  1  0
  2  5  1  0
  3  6  1  0
  3  8  2  0
  4  9  2  0
  5 10  2  0
  6 12  2  0
  7  9  1  0
  7 11  2  0
  8 20  1  0
  9 10  1  0
 10 18  1  0
 11 16  1  0
 11 18  1  0
 12 17  1  0
 12 20  1  0
 13 15  1  0
 13 19  1  0
 14 15  1  0
 14 19  1  0
 15 17  1  0
 16 19  1  0
M  CHG  1  19   1
M  END
