JAR-IMP-ed466bb3-2
     RDKit          3D

 33 37  0  0  1  0  0  0  0  0999 V2000
    4.3906   -4.7037   25.9718 C   0  0  0  0  0  0  0  0  0  0  0  0
    5.4739   -5.5394   26.2431 C   0  0  0  0  0  0  0  0  0  0  0  0
    4.4165   -3.8687   24.8547 C   0  0  0  0  0  0  0  0  0  0  0  0
   10.1799    3.0517   24.2858 C   0  0  0  0  0  0  0  0  0  0  0  0
    9.4430    2.4590   23.2646 C   0  0  0  0  0  0  0  0  0  0  0  0
    6.5832   -5.5401   25.3974 C   0  0  0  0  0  0  0  0  0  0  0  0
    5.5257   -3.8694   24.0090 C   0  0  0  0  0  0  0  0  0  0  0  0
   11.2640    2.3761   24.8453 C   0  0  0  0  0  0  0  0  0  0  0  0
    9.7903    1.1907   22.8008 C   0  0  0  0  0  0  0  0  0  0  0  0
    6.6091   -4.7050   24.2803 C   0  0  0  0  0  0  0  0  0  0  0  0
   11.6236    1.0988   24.3892 C   0  0  0  0  0  0  0  0  0  0  0  0
   10.8817    0.5021   23.3540 C   0  0  0  0  0  0  0  0  0  0  0  0
    9.3454   -3.3434   24.9434 C   0  0  0  0  0  0  0  0  0  0  0  0
   10.2787   -2.2584   24.7763 C   0  0  0  0  0  0  0  0  0  0  0  0
    8.8760   -3.7157   23.7427 C   0  0  0  0  0  0  0  0  0  0  0  0
   10.3834   -1.9438   23.4750 C   0  0  0  0  0  0  0  0  0  0  0  0
   13.8451   -1.8937   25.1601 C   0  0  0  0  0  0  0  0  0  0  0  0
    6.1736   -2.6460   20.7754 C   0  0  0  0  0  0  0  0  0  0  0  0
   12.8054    0.4065   25.0217 C   0  0  0  0  0  0  0  0  0  0  0  0
   12.7315   -1.1534   23.0805 C   0  0  0  0  0  0  0  0  0  0  0  0
    7.4037   -4.4917   21.8817 C   0  0  0  0  0  0  0  0  0  0  0  0
    8.4079   -2.1776   21.8560 C   0  0  0  0  0  0  0  0  0  0  0  0
    7.8179   -4.7051   23.3583 C   0  0  0  0  0  0  0  0  0  0  0  0
   11.2396   -0.8797   22.8487 C   0  0  0  0  0  0  0  0  0  0  0  0
    9.5074   -2.8681   22.6652 C   0  0  0  0  0  0  0  0  0  0  0  0
   14.3371   -1.5136   26.5353 C   0  0  0  0  0  0  0  0  0  0  0  0
    6.1296   -1.1768   20.4306 C   0  0  0  0  0  0  0  0  0  0  0  0
   13.1055   -0.9242   24.4775 N   0  0  0  0  0  0  0  0  0  0  0  0
    7.2902   -3.0743   21.4999 N   0  0  0  0  0  0  0  0  0  0  0  0
   14.1029   -3.0138   24.7128 O   0  0  0  0  0  0  0  0  0  0  0  0
    5.2500   -3.3819   20.4206 O   0  0  0  0  0  0  0  0  0  0  0  0
   15.8189   -2.4227   26.8079 Cl  0  0  0  0  0  0  0  0  0  0  0  0
    6.9621   -0.9956   18.8904 Cl  0  0  0  0  0  0  0  0  0  0  0  0
  1  2  2  0
  1  3  1  0
  2  6  1  0
  3  7  2  0
  4  5  2  0
  4  8  1  0
  5  9  1  0
  6 10  2  0
  7 10  1  0
  8 11  2  0
  9 12  2  0
 10 23  1  0
 11 12  1  0
 11 19  1  0
 12 24  1  0
 13 14  1  0
 13 15  2  0
 14 16  2  0
 15 23  1  0
 15 25  1  0
 16 24  1  0
 16 25  1  0
 17 26  1  0
 17 28  1  0
 17 30  2  0
 18 27  1  0
 18 29  1  0
 18 31  2  0
 19 28  1  0
 20 24  1  0
 20 28  1  0
 21 23  1  0
 21 29  1  0
 22 25  1  0
 22 29  1  0
 26 32  1  0
 27 33  1  0
M  END
