JAS-UND-c13ee042-4
     RDKit          3D

 13 13  0  0  0  0  0  0  0  0999 V2000
    4.8494    1.3944   19.3446 C   0  0  0  0  0  0  0  0  0  0  0  0
    5.7145    1.2918   18.3294 C   0  0  0  0  0  0  0  0  0  0  0  0
    6.5819   -0.6893   19.0709 C   0  0  0  0  0  0  0  0  0  0  0  0
    5.6421   -0.6677   20.2583 C   0  0  0  0  0  0  0  0  0  0  0  0
    3.9386    2.5320   19.4501 C   0  0  0  0  0  0  0  0  0  0  0  0
    7.5632   -1.7884   18.8420 C   0  0  0  0  0  0  0  0  0  0  0  0
    6.5933    0.2511   18.1748 N   0  0  0  0  0  0  0  0  0  0  0  0
    4.8073    0.4260   20.3054 N   0  0  0  0  0  0  0  0  0  0  0  0
    8.7687   -1.5424   19.4331 N   0  0  0  0  0  0  0  0  0  0  0  0
    5.6845   -1.5845   21.0641 O   0  0  0  0  0  0  0  0  0  0  0  0
    3.1337    2.6540   20.3678 O   0  0  0  0  0  0  0  0  0  0  0  0
    7.2567   -2.7681   18.1909 O   0  0  0  0  0  0  0  0  0  0  0  0
    5.7478    2.2586   17.3838 F   0  0  0  0  0  0  0  0  0  0  0  0
  1  2  2  0
  1  5  1  0
  1  8  1  0
  2  7  1  0
  2 13  1  0
  3  4  1  0
  3  6  1  0
  3  7  2  0
  4  8  1  0
  4 10  2  0
  5 11  2  0
  6  9  1  0
  6 12  2  0
M  END
