JAS-UND-c13ee042-1
     RDKit          3D

 11 11  0  0  0  0  0  0  0  0999 V2000
   14.5054   -0.1101   22.1051 C   0  0  0  0  0  0  0  0  0  0  0  0
   13.3014   -0.3383   22.6408 C   0  0  0  0  0  0  0  0  0  0  0  0
   12.7463    1.8774   22.7297 C   0  0  0  0  0  0  0  0  0  0  0  0
   14.0851    2.2451   22.1252 C   0  0  0  0  0  0  0  0  0  0  0  0
   11.7245    2.8970   23.1027 C   0  0  0  0  0  0  0  0  0  0  0  0
   12.4031    0.6463   22.9621 N   0  0  0  0  0  0  0  0  0  0  0  0
   14.8988    1.1705   21.8475 N   0  0  0  0  0  0  0  0  0  0  0  0
   12.1376    4.1707   22.8373 N   0  0  0  0  0  0  0  0  0  0  0  0
   14.3445    3.4227   21.9316 O   0  0  0  0  0  0  0  0  0  0  0  0
   10.6605    2.5613   23.5857 O   0  0  0  0  0  0  0  0  0  0  0  0
   12.8053   -1.9637   22.9662 Cl  0  0  0  0  0  0  0  0  0  0  0  0
  1  2  2  0
  1  7  1  0
  2  6  1  0
  2 11  1  0
  3  4  1  0
  3  5  1  0
  3  6  2  0
  4  7  1  0
  4  9  2  0
  5  8  1  0
  5 10  2  0
M  END
