JAS-UND-c13ee042-2
     RDKit          3D

 11 11  0  0  0  0  0  0  0  0999 V2000
   14.1482    0.0528   22.1642 C   0  0  0  0  0  0  0  0  0  0  0  0
   12.9557   -0.0831   22.7568 C   0  0  0  0  0  0  0  0  0  0  0  0
   12.7248    2.1632   23.1376 C   0  0  0  0  0  0  0  0  0  0  0  0
   14.0640    2.4223   22.4819 C   0  0  0  0  0  0  0  0  0  0  0  0
   11.8788    3.2545   23.6999 C   0  0  0  0  0  0  0  0  0  0  0  0
   12.2268    0.9691   23.2527 N   0  0  0  0  0  0  0  0  0  0  0  0
   14.7017    1.2919   22.0258 N   0  0  0  0  0  0  0  0  0  0  0  0
   12.4499    4.4856   23.5523 N   0  0  0  0  0  0  0  0  0  0  0  0
   14.4733    3.5702   22.4035 O   0  0  0  0  0  0  0  0  0  0  0  0
   10.8081    3.0049   24.2187 O   0  0  0  0  0  0  0  0  0  0  0  0
   12.1659   -1.7663   22.9621 Br  0  0  0  0  0  0  0  0  0  0  0  0
  1  2  2  0
  1  7  1  0
  2  6  1  0
  2 11  1  0
  3  4  1  0
  3  5  1  0
  3  6  2  0
  4  7  1  0
  4  9  2  0
  5  8  1  0
  5 10  2  0
M  END
