JEF-THE-add32b9a-1
     RDKit          3D

 18 20  0  0  0  0  0  0  0  0999 V2000
    6.3124   -5.5873   23.9893 C   0  0  0  0  0  0  0  0  0  0  0  0
    6.9176   -5.7510   22.6773 C   0  0  0  0  0  0  0  0  0  0  0  0
    6.7956   -4.7415   24.9121 C   0  0  0  0  0  0  0  0  0  0  0  0
    8.1574   -5.3254   22.3907 C   0  0  0  0  0  0  0  0  0  0  0  0
   12.4759   -0.5547   25.4237 C   0  0  0  0  0  0  0  0  0  0  0  0
   13.1394   -1.6499   25.8141 C   0  0  0  0  0  0  0  0  0  0  0  0
   10.5140   -1.9887   24.7233 C   0  0  0  0  0  0  0  0  0  0  0  0
   11.1979   -3.0930   25.0763 C   0  0  0  0  0  0  0  0  0  0  0  0
    7.9819   -3.9699   24.4916 C   0  0  0  0  0  0  0  0  0  0  0  0
    8.8754   -4.6920   23.5145 C   0  0  0  0  0  0  0  0  0  0  0  0
    9.1431   -2.0366   24.1377 C   0  0  0  0  0  0  0  0  0  0  0  0
   10.6374   -4.4692   24.9484 C   0  0  0  0  0  0  0  0  0  0  0  0
   11.1008   -0.6004   24.8291 C   0  0  0  0  0  0  0  0  0  0  0  0
   12.5747   -3.0333   25.6959 C   0  0  0  0  0  0  0  0  0  0  0  0
    8.2139   -2.7502   24.8625 N   0  0  0  0  0  0  0  0  0  0  0  0
   10.1533   -4.7981   23.7013 N   0  0  0  0  0  0  0  0  0  0  0  0
    8.8836   -1.4001   23.1202 O   0  0  0  0  0  0  0  0  0  0  0  0
   10.6988   -5.2512   25.8931 O   0  0  0  0  0  0  0  0  0  0  0  0
  1  2  1  0
  1  3  2  0
  2  4  2  0
  3  9  1  0
  4 10  1  0
  5  6  2  0
  5 13  1  0
  6 14  1  0
  7  8  2  0
  7 11  1  0
  7 13  1  0
  8 12  1  0
  8 14  1  0
  9 10  1  0
  9 15  2  0
 10 16  2  0
 11 15  1  0
 11 17  2  0
 12 16  1  0
 12 18  2  0
M  END
