JIA-UNI-9972d268-2
     RDKit          3D

 31 32  0  0  1  0  0  0  0  0999 V2000
   14.2264    4.8177   22.4362 C   0  0  0  0  0  0  0  0  0  0  0  0
   13.8837    3.7088   21.6625 C   0  0  0  0  0  0  0  0  0  0  0  0
   13.3504    5.2809   23.4179 C   0  0  0  0  0  0  0  0  0  0  0  0
   12.6649    3.0632   21.8705 C   0  0  0  0  0  0  0  0  0  0  0  0
   12.1315    4.6353   23.6258 C   0  0  0  0  0  0  0  0  0  0  0  0
   11.7888    3.5264   22.8521 C   0  0  0  0  0  0  0  0  0  0  0  0
    8.8104   -2.9077   24.4165 C   0  0  0  0  0  0  0  0  0  0  0  0
   13.3071   -0.8988   23.5787 C   0  0  0  0  0  0  0  0  0  0  0  0
    8.0806    3.3581   22.6644 C   0  0  0  0  0  0  0  0  0  0  0  0
   10.5670    1.3367   22.6834 C   0  0  0  0  0  0  0  0  0  0  0  0
    9.6873   -2.6703   22.2208 C   0  0  0  0  0  0  0  0  0  0  0  0
    8.3634   -3.4066   22.1590 C   0  0  0  0  0  0  0  0  0  0  0  0
    9.6239   -1.9466   23.5685 C   0  0  0  0  0  0  0  0  0  0  0  0
    7.1519    4.0416   21.7164 C   0  0  0  0  0  0  0  0  0  0  0  0
   11.2099    5.1481   24.6833 C   0  0  0  0  0  0  0  0  0  0  0  0
   14.0458   -1.9239   22.7443 C   0  0  0  0  0  0  0  0  0  0  0  0
   10.9902   -1.6514   24.1558 C   0  0  0  0  0  0  0  0  0  0  0  0
   10.4739    2.8110   23.0584 C   0  0  0  0  0  0  0  0  0  0  0  0
   11.8249   -0.7366   23.2614 C   0  0  0  0  0  0  0  0  0  0  0  0
    8.0933   -3.7145   23.5363 N   0  0  0  0  0  0  0  0  0  0  0  0
    9.4106    3.4060   22.2865 N   0  0  0  0  0  0  0  0  0  0  0  0
   11.5111    0.6561   23.4454 N   0  0  0  0  0  0  0  0  0  0  0  0
    8.7682   -2.9312   25.6368 O   0  0  0  0  0  0  0  0  0  0  0  0
   13.8433   -0.2600   24.4844 O   0  0  0  0  0  0  0  0  0  0  0  0
    7.6307    2.8237   23.6712 O   0  0  0  0  0  0  0  0  0  0  0  0
    9.9018    0.8358   21.7789 O   0  0  0  0  0  0  0  0  0  0  0  0
    9.7527    6.3542   22.8710 O   0  0  0  0  0  0  0  0  0  0  0  0
   11.4764    7.6988   24.1497 O   0  0  0  0  0  0  0  0  0  0  0  0
    9.3791    7.0436   25.1581 F   0  0  0  0  0  0  0  0  0  0  0  0
   10.4846    6.6417   24.0902 S   0  0  0  0  0  0  0  0  0  0  0  0
   14.7300   -1.1759   21.2929 Cl  0  0  0  0  0  0  0  0  0  0  0  0
  1  2  2  0
  1  3  1  0
  2  4  1  0
  3  5  2  0
  4  6  2  0
  5  6  1  0
  5 15  1  0
  6 18  1  0
  7 13  1  0
  7 20  1  0
  7 23  2  0
  8 16  1  0
  8 19  1  0
  8 24  2  0
  9 14  1  0
  9 21  1  0
  9 25  2  0
 10 18  1  0
 10 22  1  0
 10 26  2  0
 11 12  1  0
 11 13  1  0
 12 20  1  0
 13 17  1  0
 15 30  1  0
 16 31  1  0
 17 19  1  0
 18 21  1  0
 19 22  1  0
 27 30  2  0
 28 30  2  0
 29 30  1  0
M  END
