JIA-UNI-9972d268-3
     RDKit          3D

 31 32  0  0  1  0  0  0  0  0999 V2000
   13.9258    5.1744   23.2679 C   0  0  0  0  0  0  0  0  0  0  0  0
   13.9552    4.0720   22.4139 C   0  0  0  0  0  0  0  0  0  0  0  0
    7.7150   -2.9378   24.7407 C   0  0  0  0  0  0  0  0  0  0  0  0
   12.8013    5.4151   24.0576 C   0  0  0  0  0  0  0  0  0  0  0  0
   12.8603    3.2103   22.3494 C   0  0  0  0  0  0  0  0  0  0  0  0
    9.0914   -2.9165   24.5445 C   0  0  0  0  0  0  0  0  0  0  0  0
    7.1546   -1.9342   25.5144 C   0  0  0  0  0  0  0  0  0  0  0  0
    9.1983   -0.9491   25.8764 C   0  0  0  0  0  0  0  0  0  0  0  0
    9.8545   -1.9066   25.1198 C   0  0  0  0  0  0  0  0  0  0  0  0
   11.7064    4.5534   23.9931 C   0  0  0  0  0  0  0  0  0  0  0  0
   11.7358    3.4510   23.1390 C   0  0  0  0  0  0  0  0  0  0  0  0
   13.2791   -0.9413   23.5706 C   0  0  0  0  0  0  0  0  0  0  0  0
    8.2360    2.6439   22.1833 C   0  0  0  0  0  0  0  0  0  0  0  0
   10.9987    1.0948   22.6689 C   0  0  0  0  0  0  0  0  0  0  0  0
    7.4048    3.2098   21.0800 C   0  0  0  0  0  0  0  0  0  0  0  0
   11.3498   -1.8555   24.9251 C   0  0  0  0  0  0  0  0  0  0  0  0
   10.5138    4.8302   24.8486 C   0  0  0  0  0  0  0  0  0  0  0  0
   13.9416   -1.9750   22.6856 C   0  0  0  0  0  0  0  0  0  0  0  0
   10.5617    2.5039   23.0514 C   0  0  0  0  0  0  0  0  0  0  0  0
   11.7627   -1.0452   23.6945 C   0  0  0  0  0  0  0  0  0  0  0  0
    7.8634   -0.9368   26.0893 N   0  0  0  0  0  0  0  0  0  0  0  0
    9.5823    2.9483   22.0904 N   0  0  0  0  0  0  0  0  0  0  0  0
   11.2865    0.3121   23.7812 N   0  0  0  0  0  0  0  0  0  0  0  0
   13.9087   -0.0519   24.1445 O   0  0  0  0  0  0  0  0  0  0  0  0
    7.7011    1.9780   23.0620 O   0  0  0  0  0  0  0  0  0  0  0  0
   11.1149    0.7268   21.5015 O   0  0  0  0  0  0  0  0  0  0  0  0
    8.4935    6.4932   24.9703 O   0  0  0  0  0  0  0  0  0  0  0  0
    9.5517    6.0151   22.7196 O   0  0  0  0  0  0  0  0  0  0  0  0
   10.6193    7.4571   24.3401 F   0  0  0  0  0  0  0  0  0  0  0  0
    9.6579    6.2061   24.1538 S   0  0  0  0  0  0  0  0  0  0  0  0
   14.0350   -1.3927   21.0169 Cl  0  0  0  0  0  0  0  0  0  0  0  0
  1  2  2  0
  1  4  1  0
  2  5  1  0
  3  6  2  0
  3  7  1  0
  4 10  2  0
  5 11  2  0
  6  9  1  0
  7 21  2  0
  8  9  2  0
  8 21  1  0
  9 16  1  0
 10 11  1  0
 10 17  1  0
 11 19  1  0
 12 18  1  0
 12 20  1  0
 12 24  2  0
 13 15  1  0
 13 22  1  0
 13 25  2  0
 14 19  1  0
 14 23  1  0
 14 26  2  0
 16 20  1  0
 17 30  1  0
 18 31  1  0
 19 22  1  0
 20 23  1  0
 27 30  2  0
 28 30  2  0
 29 30  1  0
M  END
