JIG-UNK-11bede03-3
     RDKit          3D

 33 37  0  0  1  0  0  0  0  0999 V2000
    7.1320    0.0528   19.6510 C   0  0  0  0  0  0  0  0  0  0  0  0
    6.4886   -0.0719   18.4355 C   0  0  0  0  0  0  0  0  0  0  0  0
    6.9299   -1.1616   20.3307 C   0  0  0  0  0  0  0  0  0  0  0  0
    6.1777   -1.9989   19.5344 C   0  0  0  0  0  0  0  0  0  0  0  0
    7.3436   -1.6271   21.6051 C   0  0  0  0  0  0  0  0  0  0  0  0
    6.9932   -2.8644   22.0000 C   0  0  0  0  0  0  0  0  0  0  0  0
    5.7728   -3.3395   19.9093 C   0  0  0  0  0  0  0  0  0  0  0  0
    0.7415   -5.5525   22.8279 C   0  0  0  0  0  0  0  0  0  0  0  0
    4.1083   -6.8330   25.6433 C   0  0  0  0  0  0  0  0  0  0  0  0
    5.5572   -6.5593   25.9263 C   0  0  0  0  0  0  0  0  0  0  0  0
    4.8359   -4.9138   22.7801 C   0  0  0  0  0  0  0  0  0  0  0  0
    8.8439   -3.1343   26.4994 C   0  0  0  0  0  0  0  0  0  0  0  0
    7.3498   -3.1938   26.1489 C   0  0  0  0  0  0  0  0  0  0  0  0
    0.7624   -7.7605   21.9500 C   0  0  0  0  0  0  0  0  0  0  0  0
    7.9128   -5.1824   27.4778 C   0  0  0  0  0  0  0  0  0  0  0  0
    8.3944   -5.3046   25.4476 C   0  0  0  0  0  0  0  0  0  0  0  0
   -0.2262   -6.9161   21.1698 C   0  0  0  0  0  0  0  0  0  0  0  0
    1.6833   -6.7195   22.5919 C   0  0  0  0  0  0  0  0  0  0  0  0
    9.1256   -4.6318   26.6565 C   0  0  0  0  0  0  0  0  0  0  0  0
    7.1762   -4.7038   26.1984 C   0  0  0  0  0  0  0  0  0  0  0  0
    5.9131   -5.0382   21.7331 C   0  0  0  0  0  0  0  0  0  0  0  0
    2.3477   -7.2092   23.8637 C   0  0  0  0  0  0  0  0  0  0  0  0
    3.5044   -6.3274   24.3430 C   0  0  0  0  0  0  0  0  0  0  0  0
    5.9129   -1.3199   18.3740 N   0  0  0  0  0  0  0  0  0  0  0  0
   -0.3356   -5.7219   21.9612 N   0  0  0  0  0  0  0  0  0  0  0  0
    6.2333   -3.7082   21.1944 N   0  0  0  0  0  0  0  0  0  0  0  0
    5.8558   -5.2163   25.9165 N   0  0  0  0  0  0  0  0  0  0  0  0
    4.5019   -6.1510   23.3202 N   0  0  0  0  0  0  0  0  0  0  0  0
    5.1019   -4.0596   19.1733 O   0  0  0  0  0  0  0  0  0  0  0  0
    0.9245   -4.6258   23.6018 O   0  0  0  0  0  0  0  0  0  0  0  0
    3.4773   -7.3956   26.5293 O   0  0  0  0  0  0  0  0  0  0  0  0
    6.2837   -7.5127   26.1555 O   0  0  0  0  0  0  0  0  0  0  0  0
    4.3295   -3.8430   23.1048 O   0  0  0  0  0  0  0  0  0  0  0  0
  1  2  2  0
  1  3  1  0
  2 24  1  0
  3  4  2  0
  3  5  1  0
  4  7  1  0
  4 24  1  0
  5  6  2  0
  6 26  1  0
  7 26  1  0
  7 29  2  0
  8 18  1  0
  8 25  1  0
  8 30  2  0
  9 10  1  0
  9 23  1  0
  9 31  2  0
 10 27  1  0
 10 32  2  0
 11 21  1  0
 11 28  1  0
 11 33  2  0
 12 13  1  0
 12 19  1  0
 13 20  1  0
 14 17  1  0
 14 18  1  0
 15 19  1  0
 15 20  1  0
 16 19  1  0
 16 20  1  0
 17 25  1  0
 18 22  1  0
 20 27  1  0
 21 26  1  0
 22 23  1  0
 23 28  1  0
M  END
