JIM-PRI-216d613d-1
     RDKit          3D

 38 39  0  0  1  0  0  0  0  0999 V2000
    6.3998   -6.1318   22.9140 C   0  0  0  0  0  0  0  0  0  0  0  0
    6.3269   -4.7853   22.5176 C   0  0  0  0  0  0  0  0  0  0  0  0
    5.1700   -6.3761   23.4654 C   0  0  0  0  0  0  0  0  0  0  0  0
    7.7341    5.4995   21.8587 C   0  0  0  0  0  0  0  0  0  0  0  0
    9.5051    1.8928   25.0365 C   0  0  0  0  0  0  0  0  0  0  0  0
    8.3311    1.2757   25.2178 C   0  0  0  0  0  0  0  0  0  0  0  0
    7.3807   -3.9742   21.8552 C   0  0  0  0  0  0  0  0  0  0  0  0
   10.7214    1.7756   21.9695 C   0  0  0  0  0  0  0  0  0  0  0  0
    8.8602   -1.1343   21.9672 C   0  0  0  0  0  0  0  0  0  0  0  0
    9.0658    6.0259   23.7550 C   0  0  0  0  0  0  0  0  0  0  0  0
    8.6683    7.3058   23.0458 C   0  0  0  0  0  0  0  0  0  0  0  0
    8.8955    4.9571   22.6723 C   0  0  0  0  0  0  0  0  0  0  0  0
    4.5472   -7.5564   24.0774 C   0  0  0  0  0  0  0  0  0  0  0  0
   14.0380   -1.9499   21.5003 C   0  0  0  0  0  0  0  0  0  0  0  0
   12.3511   -2.1858   23.3328 C   0  0  0  0  0  0  0  0  0  0  0  0
    6.3355   -1.2823   18.9695 C   0  0  0  0  0  0  0  0  0  0  0  0
    6.4046    0.2549   20.9493 C   0  0  0  0  0  0  0  0  0  0  0  0
    6.5790   -0.5120   26.3030 C   0  0  0  0  0  0  0  0  0  0  0  0
   11.0107    2.6628   23.1778 C   0  0  0  0  0  0  0  0  0  0  0  0
    8.6297    3.5734   23.2320 C   0  0  0  0  0  0  0  0  0  0  0  0
   12.3161   -0.1447   21.8012 C   0  0  0  0  0  0  0  0  0  0  0  0
    9.8051    3.0228   24.0709 C   0  0  0  0  0  0  0  0  0  0  0  0
   10.8981    0.2774   22.1941 C   0  0  0  0  0  0  0  0  0  0  0  0
    7.9512   -1.7533   20.9074 C   0  0  0  0  0  0  0  0  0  0  0  0
   12.5945   -1.6567   21.9188 C   0  0  0  0  0  0  0  0  0  0  0  0
    7.2280   -0.6836   20.0619 C   0  0  0  0  0  0  0  0  0  0  0  0
    5.1424   -4.2364   22.8014 N   0  0  0  0  0  0  0  0  0  0  0  0
    7.6686    6.8675   22.1116 N   0  0  0  0  0  0  0  0  0  0  0  0
    7.0456   -2.6578   21.5694 N   0  0  0  0  0  0  0  0  0  0  0  0
    9.8854   -0.3780   21.4095 N   0  0  0  0  0  0  0  0  0  0  0  0
    7.0266    4.8570   21.0985 O   0  0  0  0  0  0  0  0  0  0  0  0
    8.4576   -4.4977   21.5819 O   0  0  0  0  0  0  0  0  0  0  0  0
   10.3882    2.2274   20.8747 O   0  0  0  0  0  0  0  0  0  0  0  0
    8.7074   -1.3241   23.1722 O   0  0  0  0  0  0  0  0  0  0  0  0
    9.0870   -1.1005   25.9264 O   0  0  0  0  0  0  0  0  0  0  0  0
    8.4812    0.5753   27.7092 O   0  0  0  0  0  0  0  0  0  0  0  0
    4.4105   -5.2525   23.4040 O   0  0  0  0  0  0  0  0  0  0  0  0
    8.2736    0.0132   26.3851 S   0  0  0  0  0  0  0  0  0  0  0  0
  1  2  1  0
  1  3  2  0
  2  7  1  0
  2 27  2  0
  3 13  1  0
  3 37  1  0
  4 12  1  0
  4 28  1  0
  4 31  2  0
  5  6  2  0
  5 22  1  0
  6 38  1  0
  7 29  1  0
  7 32  2  0
  8 19  1  0
  8 23  1  0
  8 33  2  0
  9 24  1  0
  9 30  1  0
  9 34  2  0
 10 11  1  0
 10 12  1  0
 11 28  1  0
 12 20  1  0
 14 25  1  0
 15 25  1  0
 16 26  1  0
 17 26  1  0
 18 38  1  0
 19 22  1  0
 20 22  1  0
 21 23  1  0
 21 25  1  0
 23 30  1  0
 24 26  1  0
 24 29  1  0
 27 37  1  0
 35 38  2  0
 36 38  2  0
M  END
