JOH-MEM-5e386bbd-6
     RDKit          3D

 18 20  0  0  0  0  0  0  0  0999 V2000
   11.3255   -3.6171   25.0026 C   0  0  0  0  0  0  0  0  0  0  0  0
   10.0387   -1.1525   24.4414 C   0  0  0  0  0  0  0  0  0  0  0  0
   10.1728   -3.5959   24.1959 C   0  0  0  0  0  0  0  0  0  0  0  0
    9.4096   -4.5669   23.5256 C   0  0  0  0  0  0  0  0  0  0  0  0
    9.5486   -2.3595   23.9294 C   0  0  0  0  0  0  0  0  0  0  0  0
   11.8190   -2.4129   25.5171 C   0  0  0  0  0  0  0  0  0  0  0  0
   11.1852   -1.2027   25.2400 C   0  0  0  0  0  0  0  0  0  0  0  0
    8.3851   -3.9275   22.8953 C   0  0  0  0  0  0  0  0  0  0  0  0
    6.4636   -4.3376   21.4895 C   0  0  0  0  0  0  0  0  0  0  0  0
    9.3589   -6.0303   23.2869 C   0  0  0  0  0  0  0  0  0  0  0  0
    8.0849   -6.1687   22.3723 C   0  0  0  0  0  0  0  0  0  0  0  0
    5.8140   -3.0978   22.0513 C   0  0  0  0  0  0  0  0  0  0  0  0
   14.1919   -2.3085   25.6354 C   0  0  0  0  0  0  0  0  0  0  0  0
    8.4436   -2.5985   23.1208 N   0  0  0  0  0  0  0  0  0  0  0  0
    7.5617   -4.7745   22.1994 N   0  0  0  0  0  0  0  0  0  0  0  0
    6.0070   -4.8717   20.4783 O   0  0  0  0  0  0  0  0  0  0  0  0
   11.6811   -0.0378   25.7505 O   0  0  0  0  0  0  0  0  0  0  0  0
   12.9371   -2.4394   26.2985 O   0  0  0  0  0  0  0  0  0  0  0  0
  1  3  2  0
  1  6  1  0
  2  5  2  0
  2  7  1  0
  3  4  1  0
  3  5  1  0
  4  8  2  0
  4 10  1  0
  5 14  1  0
  6  7  2  0
  6 18  1  0
  7 17  1  0
  8 14  1  0
  8 15  1  0
  9 12  1  0
  9 15  1  0
  9 16  2  0
 10 11  1  0
 11 15  1  0
 13 18  1  0
M  END
