JOH-UNI-abdb2f0c-1
     RDKit          3D

 22 24  0  0  1  0  0  0  0  0999 V2000
    4.9950    1.8849   18.8174 C   0  0  0  0  0  0  0  0  0  0  0  0
    7.3283   -5.1210   23.0225 C   0  0  0  0  0  0  0  0  0  0  0  0
    5.1041    0.9245   19.8169 C   0  0  0  0  0  0  0  0  0  0  0  0
    7.4764   -4.3477   21.8764 C   0  0  0  0  0  0  0  0  0  0  0  0
    5.7352    1.7037   17.6602 C   0  0  0  0  0  0  0  0  0  0  0  0
    5.7774   -3.5150   23.8426 C   0  0  0  0  0  0  0  0  0  0  0  0
    6.6362   -0.2615   18.4377 C   0  0  0  0  0  0  0  0  0  0  0  0
    6.4645   -4.7037   24.0291 C   0  0  0  0  0  0  0  0  0  0  0  0
    5.9384   -0.1722   19.6313 C   0  0  0  0  0  0  0  0  0  0  0  0
    6.7439   -3.1751   21.7863 C   0  0  0  0  0  0  0  0  0  0  0  0
    6.8600   -2.3287   20.6113 C   0  0  0  0  0  0  0  0  0  0  0  0
    6.5365   -4.2044   27.3158 C   0  0  0  0  0  0  0  0  0  0  0  0
    7.1305   -5.2618   26.3819 C   0  0  0  0  0  0  0  0  0  0  0  0
    5.0937   -6.2665   25.4140 C   0  0  0  0  0  0  0  0  0  0  0  0
    5.0781   -4.4651   27.6972 C   0  0  0  0  0  0  0  0  0  0  0  0
    3.9002   -5.3978   25.8133 C   0  0  0  0  0  0  0  0  0  0  0  0
    6.5560    0.6515   17.4438 N   0  0  0  0  0  0  0  0  0  0  0  0
    5.8953   -2.7372   22.7432 N   0  0  0  0  0  0  0  0  0  0  0  0
    6.2969   -5.4586   25.1898 N   0  0  0  0  0  0  0  0  0  0  0  0
    6.0706   -1.1676   20.6322 N   0  0  0  0  0  0  0  0  0  0  0  0
    7.5809   -2.6391   19.6517 O   0  0  0  0  0  0  0  0  0  0  0  0
    4.2254   -4.2391   26.5791 O   0  0  0  0  0  0  0  0  0  0  0  0
  1  3  2  0
  1  5  1  0
  2  4  2  0
  2  8  1  0
  3  9  1  0
  4 10  1  0
  5 17  2  0
  6  8  2  0
  6 18  1  0
  7  9  2  0
  7 17  1  0
  8 19  1  0
  9 20  1  0
 10 11  1  0
 10 18  2  0
 11 20  1  0
 11 21  2  0
 12 13  1  0
 12 15  1  0
 13 19  1  0
 14 16  1  0
 14 19  1  0
 15 22  1  0
 16 22  1  0
M  END
