JOH-UNI-27ac80fd-9
     RDKit          3D

 19 20  0  0  1  0  0  0  0  0999 V2000
    7.2093   -5.1061   26.6405 C   0  0  0  0  0  0  0  0  0  0  0  0
    8.4026    0.2875   20.6927 C   0  0  0  0  0  0  0  0  0  0  0  0
    7.5240   -2.9760   25.3049 C   0  0  0  0  0  0  0  0  0  0  0  0
    8.7303   -2.3467   24.6089 C   0  0  0  0  0  0  0  0  0  0  0  0
    9.4072   -4.4777   23.7258 C   0  0  0  0  0  0  0  0  0  0  0  0
    8.6844   -1.0519   21.3671 C   0  0  0  0  0  0  0  0  0  0  0  0
   11.0684   -0.2740   21.8157 C   0  0  0  0  0  0  0  0  0  0  0  0
    8.6713    1.5209   21.5416 C   0  0  0  0  0  0  0  0  0  0  0  0
   10.9421    1.1878   22.2231 C   0  0  0  0  0  0  0  0  0  0  0  0
    8.2133   -5.1912   24.3800 C   0  0  0  0  0  0  0  0  0  0  0  0
    7.0956   -5.4860   23.3735 C   0  0  0  0  0  0  0  0  0  0  0  0
    6.4850   -4.2855   27.6781 C   0  0  0  0  0  0  0  0  0  0  0  0
   10.2235   -2.4450   22.7227 C   0  0  0  0  0  0  0  0  0  0  0  0
    7.6891   -4.4192   25.5206 N   0  0  0  0  0  0  0  0  0  0  0  0
    9.0914   -3.0835   23.3928 N   0  0  0  0  0  0  0  0  0  0  0  0
    9.8608   -1.0396   22.3096 N   0  0  0  0  0  0  0  0  0  0  0  0
    7.3490   -6.3188   26.8200 O   0  0  0  0  0  0  0  0  0  0  0  0
   10.0323    1.9237   21.4164 O   0  0  0  0  0  0  0  0  0  0  0  0
    5.4010   -3.6974   27.1299 F   0  0  0  0  0  0  0  0  0  0  0  0
  1 12  1  0
  1 14  1  0
  1 17  2  0
  2  6  1  0
  2  8  1  0
  3  4  1  0
  3 14  1  0
  4 15  1  0
  5 10  1  0
  5 15  1  0
  6 16  1  0
  7  9  1  0
  7 16  1  0
  8 18  1  0
  9 18  1  0
 10 11  1  0
 10 14  1  0
 12 19  1  0
 13 15  1  0
 13 16  1  0
M  CHG  1  16   1
M  END
