JOH-UNI-27ac80fd-14
     RDKit          3D

 17 18  0  0  1  0  0  0  0  0999 V2000
    6.1925   -3.8389   21.4356 C   0  0  0  0  0  0  0  0  0  0  0  0
   12.9935   -0.5531   24.5594 C   0  0  0  0  0  0  0  0  0  0  0  0
    7.8505   -2.5596   22.7561 C   0  0  0  0  0  0  0  0  0  0  0  0
    8.4492   -2.7546   24.1465 C   0  0  0  0  0  0  0  0  0  0  0  0
    8.9074   -5.0732   23.6671 C   0  0  0  0  0  0  0  0  0  0  0  0
   12.5519   -1.7692   23.7567 C   0  0  0  0  0  0  0  0  0  0  0  0
   12.0574   -3.3700   25.6792 C   0  0  0  0  0  0  0  0  0  0  0  0
   14.0711   -0.8287   25.6059 C   0  0  0  0  0  0  0  0  0  0  0  0
   12.7323   -2.4763   26.7047 C   0  0  0  0  0  0  0  0  0  0  0  0
    8.3118   -4.9404   22.2536 C   0  0  0  0  0  0  0  0  0  0  0  0
    7.7163   -6.2831   21.8241 C   0  0  0  0  0  0  0  0  0  0  0  0
   10.7155   -3.4455   23.5929 C   0  0  0  0  0  0  0  0  0  0  0  0
    5.2717   -3.8308   20.7302 N   0  0  0  0  0  0  0  0  0  0  0  0
    7.2656   -3.8486   22.2575 N   0  0  0  0  0  0  0  0  0  0  0  0
    9.4496   -3.8242   24.2150 N   0  0  0  0  0  0  0  0  0  0  0  0
   11.5116   -2.5625   24.5238 N   0  0  0  0  0  0  0  0  0  0  0  0
   14.0172   -2.1045   26.2261 O   0  0  0  0  0  0  0  0  0  0  0  0
  1 13  3  0
  1 14  1  0
  2  6  1  0
  2  8  1  0
  3  4  1  0
  3 14  1  0
  4 15  1  0
  5 10  1  0
  5 15  1  0
  6 16  1  0
  7  9  1  0
  7 16  1  0
  8 17  1  0
  9 17  1  0
 10 11  1  0
 10 14  1  0
 12 15  1  0
 12 16  1  0
M  CHG  1  16   1
M  END
