JOH-UNI-9dc98897-8
     RDKit          3D

 18 19  0  0  1  0  0  0  0  0999 V2000
    6.3490   -3.1151   21.1599 C   0  0  0  0  0  0  0  0  0  0  0  0
    8.0716   -3.3348   22.8881 C   0  0  0  0  0  0  0  0  0  0  0  0
    9.3505   -1.2459   21.6853 C   0  0  0  0  0  0  0  0  0  0  0  0
    7.5745   -2.7013   21.7604 C   0  0  0  0  0  0  0  0  0  0  0  0
    9.2727   -2.8749   23.4164 C   0  0  0  0  0  0  0  0  0  0  0  0
    9.9307   -1.8110   22.8095 C   0  0  0  0  0  0  0  0  0  0  0  0
   13.0686   -0.9067   21.8324 C   0  0  0  0  0  0  0  0  0  0  0  0
   12.4197   -1.8533   22.8410 C   0  0  0  0  0  0  0  0  0  0  0  0
   11.1240   -0.2897   24.3559 C   0  0  0  0  0  0  0  0  0  0  0  0
   13.6939    0.3321   22.4670 C   0  0  0  0  0  0  0  0  0  0  0  0
   12.4200    0.5064   24.4696 C   0  0  0  0  0  0  0  0  0  0  0  0
    9.8322   -3.5379   24.6322 C   0  0  0  0  0  0  0  0  0  0  0  0
    5.3517   -3.4519   20.6711 N   0  0  0  0  0  0  0  0  0  0  0  0
    8.1852   -1.6651   21.1432 N   0  0  0  0  0  0  0  0  0  0  0  0
   11.1406   -1.3138   23.3057 N   0  0  0  0  0  0  0  0  0  0  0  0
   12.7668    1.1043   23.2238 O   0  0  0  0  0  0  0  0  0  0  0  0
   11.0493   -4.0798   24.3680 F   0  0  0  0  0  0  0  0  0  0  0  0
    9.0327   -4.5598   25.0336 F   0  0  0  0  0  0  0  0  0  0  0  0
  1  4  1  0
  1 13  3  0
  2  4  2  0
  2  5  1  0
  3  6  1  0
  3 14  2  0
  4 14  1  0
  5  6  2  0
  5 12  1  0
  6 15  1  0
  7  8  1  0
  7 10  1  0
  8 15  1  0
  9 11  1  0
  9 15  1  0
 10 16  1  0
 11 16  1  0
 12 17  1  0
 12 18  1  0
M  END
