JOH-UNI-27ac80fd-12
     RDKit          3D

 16 17  0  0  1  0  0  0  0  0999 V2000
   12.8782   -1.2801   25.4296 C   0  0  0  0  0  0  0  0  0  0  0  0
    5.5776   -5.5483   24.1519 C   0  0  0  0  0  0  0  0  0  0  0  0
   10.5503   -1.7314   24.6428 C   0  0  0  0  0  0  0  0  0  0  0  0
   12.0348   -3.6304   25.3314 C   0  0  0  0  0  0  0  0  0  0  0  0
    9.9008   -2.8601   23.8474 C   0  0  0  0  0  0  0  0  0  0  0  0
   10.6931   -4.2649   25.6895 C   0  0  0  0  0  0  0  0  0  0  0  0
    7.0277   -5.2674   24.5342 C   0  0  0  0  0  0  0  0  0  0  0  0
    7.7652   -6.3238   22.3365 C   0  0  0  0  0  0  0  0  0  0  0  0
    5.1243   -4.9692   22.8202 C   0  0  0  0  0  0  0  0  0  0  0  0
    6.7588   -5.8383   21.3019 C   0  0  0  0  0  0  0  0  0  0  0  0
    9.4128   -5.2201   23.8587 C   0  0  0  0  0  0  0  0  0  0  0  0
   13.7304   -0.5284   25.6626 N   0  0  0  0  0  0  0  0  0  0  0  0
   11.8884   -2.1531   25.1588 N   0  0  0  0  0  0  0  0  0  0  0  0
    9.6467   -4.0387   24.6850 N   0  0  0  0  0  0  0  0  0  0  0  0
    7.9852   -5.2414   23.3701 N   0  0  0  0  0  0  0  0  0  0  0  0
    5.4137   -5.8758   21.7597 O   0  0  0  0  0  0  0  0  0  0  0  0
  1 12  3  0
  1 13  1  0
  2  7  1  0
  2  9  1  0
  3  5  1  0
  3 13  1  0
  4  6  1  0
  4 13  1  0
  5 14  1  0
  6 14  1  0
  7 15  1  0
  8 10  1  0
  8 15  1  0
  9 16  1  0
 10 16  1  0
 11 14  1  0
 11 15  1  0
M  CHG  1  15   1
M  END
