JOH-UNI-27ac80fd-18
     RDKit          3D

 19 21  0  0  1  0  0  0  0  0999 V2000
    5.2310   -0.8296   18.4279 C   0  0  0  0  0  0  0  0  0  0  0  0
   13.0052   -2.1192   21.8352 C   0  0  0  0  0  0  0  0  0  0  0  0
    8.8750   -1.6951   23.6627 C   0  0  0  0  0  0  0  0  0  0  0  0
    5.8262   -0.8401   20.8468 C   0  0  0  0  0  0  0  0  0  0  0  0
    7.5288   -0.2252   19.1762 C   0  0  0  0  0  0  0  0  0  0  0  0
    6.9004   -1.5941   21.6279 C   0  0  0  0  0  0  0  0  0  0  0  0
    8.5691   -0.9912   19.9910 C   0  0  0  0  0  0  0  0  0  0  0  0
   11.6486   -2.2440   22.5152 C   0  0  0  0  0  0  0  0  0  0  0  0
   10.8360    0.1585   22.2499 C   0  0  0  0  0  0  0  0  0  0  0  0
   13.8752   -0.9700   22.3397 C   0  0  0  0  0  0  0  0  0  0  0  0
    8.7784   -3.2156   23.5422 C   0  0  0  0  0  0  0  0  0  0  0  0
   12.2047    0.6609   21.8256 C   0  0  0  0  0  0  0  0  0  0  0  0
    9.2333   -1.7348   22.1743 C   0  0  0  0  0  0  0  0  0  0  0  0
    4.4198   -0.8362   17.5988 N   0  0  0  0  0  0  0  0  0  0  0  0
    6.1743   -0.8220   19.3921 N   0  0  0  0  0  0  0  0  0  0  0  0
    8.2188   -0.9816   21.4175 N   0  0  0  0  0  0  0  0  0  0  0  0
   10.6483   -1.2957   21.8827 N   0  0  0  0  0  0  0  0  0  0  0  0
   13.1791    0.1972   22.7497 O   0  0  0  0  0  0  0  0  0  0  0  0
    9.0511   -3.1676   22.1218 O   0  0  0  0  0  0  0  0  0  0  0  0
  1 14  3  0
  1 15  1  0
  2  8  1  0
  2 10  1  0
  3 11  1  0
  3 13  1  0
  4  6  1  0
  4 15  1  0
  5  7  1  0
  5 15  1  0
  6 16  1  0
  7 16  1  0
  8 17  1  0
  9 12  1  0
  9 17  1  0
 10 18  1  0
 11 19  1  0
 12 18  1  0
 13 16  1  0
 13 17  1  0
 13 19  1  0
M  CHG  1  17   1
M  END
