JOH-UNI-c7afdb96-13
     RDKit          3D

 19 19  0  0  0  0  0  0  0  0999 V2000
    7.4820   -1.6152   21.0609 C   0  0  0  0  0  0  0  0  0  0  0  0
   11.6556   -4.0551   25.4154 C   0  0  0  0  0  0  0  0  0  0  0  0
   12.6377   -3.0666   25.4779 C   0  0  0  0  0  0  0  0  0  0  0  0
   10.5310   -3.8712   24.6108 C   0  0  0  0  0  0  0  0  0  0  0  0
   11.3708   -1.7102   23.9312 C   0  0  0  0  0  0  0  0  0  0  0  0
   12.4953   -1.8941   24.7358 C   0  0  0  0  0  0  0  0  0  0  0  0
   10.3886   -2.6987   23.8688 C   0  0  0  0  0  0  0  0  0  0  0  0
    7.3439   -2.9152   21.6351 C   0  0  0  0  0  0  0  0  0  0  0  0
    6.2284   -3.6567   21.4696 C   0  0  0  0  0  0  0  0  0  0  0  0
    8.4886   -3.4939   22.4251 C   0  0  0  0  0  0  0  0  0  0  0  0
   13.5456   -0.8377   24.8029 C   0  0  0  0  0  0  0  0  0  0  0  0
    4.8499   -4.1833   24.1075 C   0  0  0  0  0  0  0  0  0  0  0  0
    5.8141   -6.4935   24.1351 C   0  0  0  0  0  0  0  0  0  0  0  0
    6.0073   -5.0414   22.0461 C   0  0  0  0  0  0  0  0  0  0  0  0
    5.9817   -5.0737   23.5883 C   0  0  0  0  0  0  0  0  0  0  0  0
    7.6027   -0.5590   20.5954 N   0  0  0  0  0  0  0  0  0  0  0  0
    9.2469   -2.5125   23.0513 N   0  0  0  0  0  0  0  0  0  0  0  0
    8.6671   -4.7072   22.4607 O   0  0  0  0  0  0  0  0  0  0  0  0
    5.1831   -3.1966   20.6814 O   0  0  0  0  0  0  0  0  0  0  0  0
  1  8  1  0
  1 16  3  0
  2  3  2  0
  2  4  1  0
  3  6  1  0
  4  7  2  0
  5  6  2  0
  5  7  1  0
  6 11  1  0
  7 17  1  0
  8  9  2  0
  8 10  1  0
  9 14  1  0
  9 19  1  0
 10 17  1  0
 10 18  2  0
 12 15  1  0
 13 15  1  0
 14 15  1  0
M  END
