JOH-MSK-a63bdd1d-4
     RDKit          3D

 16 17  0  0  0  0  0  0  0  0999 V2000
   11.4498   -1.1368   23.4760 C   0  0  0  0  0  0  0  0  0  0  0  0
   12.4260   -2.0541   23.0767 C   0  0  0  0  0  0  0  0  0  0  0  0
   13.8727   -0.2647   22.3006 C   0  0  0  0  0  0  0  0  0  0  0  0
   11.6149    2.4696   23.1875 C   0  0  0  0  0  0  0  0  0  0  0  0
   12.9032    0.6787   22.6951 C   0  0  0  0  0  0  0  0  0  0  0  0
   12.8250    2.0988   22.6481 C   0  0  0  0  0  0  0  0  0  0  0  0
   11.7166    0.2218   23.2725 C   0  0  0  0  0  0  0  0  0  0  0  0
   13.6195   -1.6270   22.4979 C   0  0  0  0  0  0  0  0  0  0  0  0
   12.1863    5.9700   23.6946 C   0  0  0  0  0  0  0  0  0  0  0  0
   10.8613    6.5845   23.3862 C   0  0  0  0  0  0  0  0  0  0  0  0
   13.8518    3.0189   22.1192 C   0  0  0  0  0  0  0  0  0  0  0  0
   13.8949    4.3854   22.8272 C   0  0  0  0  0  0  0  0  0  0  0  0
   10.9535    1.3306   23.5615 N   0  0  0  0  0  0  0  0  0  0  0  0
   12.6424    5.0860   22.7300 N   0  0  0  0  0  0  0  0  0  0  0  0
   12.7649    6.2706   24.7321 O   0  0  0  0  0  0  0  0  0  0  0  0
   14.5530   -2.5453   22.1195 O   0  0  0  0  0  0  0  0  0  0  0  0
  1  2  2  0
  1  7  1  0
  2  8  1  0
  3  5  1  0
  3  8  2  0
  4  6  2  0
  4 13  1  0
  5  6  1  0
  5  7  2  0
  6 11  1  0
  7 13  1  0
  8 16  1  0
  9 10  1  0
  9 14  1  0
  9 15  2  0
 11 12  1  0
 12 14  1  0
M  END
