JOH-UNI-9dc98897-5
     RDKit          3D

 18 19  0  0  1  0  0  0  0  0999 V2000
   12.2572   -1.7469   25.1114 C   0  0  0  0  0  0  0  0  0  0  0  0
   11.1387   -3.9230   25.2263 C   0  0  0  0  0  0  0  0  0  0  0  0
   10.0937   -4.7326   24.7953 C   0  0  0  0  0  0  0  0  0  0  0  0
   11.2147   -2.6365   24.7175 C   0  0  0  0  0  0  0  0  0  0  0  0
    9.1696   -4.2379   23.8816 C   0  0  0  0  0  0  0  0  0  0  0  0
    9.3337   -2.9372   23.4332 C   0  0  0  0  0  0  0  0  0  0  0  0
    5.8363   -4.7875   24.3355 C   0  0  0  0  0  0  0  0  0  0  0  0
    7.1385   -5.5847   24.3904 C   0  0  0  0  0  0  0  0  0  0  0  0
    8.0273   -5.4104   22.0243 C   0  0  0  0  0  0  0  0  0  0  0  0
    4.9809   -5.0920   23.1093 C   0  0  0  0  0  0  0  0  0  0  0  0
    6.6374   -5.8549   21.5803 C   0  0  0  0  0  0  0  0  0  0  0  0
    8.3737   -2.3495   22.4504 C   0  0  0  0  0  0  0  0  0  0  0  0
   13.1057   -1.0230   25.4320 N   0  0  0  0  0  0  0  0  0  0  0  0
   10.3360   -2.1209   23.8289 N   0  0  0  0  0  0  0  0  0  0  0  0
    8.1144   -5.0444   23.4422 N   0  0  0  0  0  0  0  0  0  0  0  0
    5.6605   -4.8617   21.8790 O   0  0  0  0  0  0  0  0  0  0  0  0
    8.7982   -2.5617   21.1780 F   0  0  0  0  0  0  0  0  0  0  0  0
    8.2865   -1.0039   22.6103 F   0  0  0  0  0  0  0  0  0  0  0  0
  1  4  1  0
  1 13  3  0
  2  3  2  0
  2  4  1  0
  3  5  1  0
  4 14  2  0
  5  6  2  0
  5 15  1  0
  6 12  1  0
  6 14  1  0
  7  8  1  0
  7 10  1  0
  8 15  1  0
  9 11  1  0
  9 15  1  0
 10 16  1  0
 11 16  1  0
 12 17  1  0
 12 18  1  0
M  END
