JOH-UNI-522b0723-10
     RDKit          3D

 23 25  0  0  0  0  0  0  0  0999 V2000
    6.2176   -1.8197   20.7179 C   0  0  0  0  0  0  0  0  0  0  0  0
   12.0540    2.3353   23.7299 C   0  0  0  0  0  0  0  0  0  0  0  0
   10.8104    2.5120   23.1233 C   0  0  0  0  0  0  0  0  0  0  0  0
   12.4278    1.0767   24.2007 C   0  0  0  0  0  0  0  0  0  0  0  0
    9.9406    1.4301   22.9877 C   0  0  0  0  0  0  0  0  0  0  0  0
   11.5580   -0.0053   24.0651 C   0  0  0  0  0  0  0  0  0  0  0  0
    7.7436   -3.1115   23.8440 C   0  0  0  0  0  0  0  0  0  0  0  0
    6.2047   -4.6520   22.8874 C   0  0  0  0  0  0  0  0  0  0  0  0
    6.5633   -2.6424   21.8333 C   0  0  0  0  0  0  0  0  0  0  0  0
    7.4755   -2.2391   22.7951 C   0  0  0  0  0  0  0  0  0  0  0  0
    7.1003   -4.3429   23.8984 C   0  0  0  0  0  0  0  0  0  0  0  0
   10.3144    0.1714   23.4586 C   0  0  0  0  0  0  0  0  0  0  0  0
    8.1511   -0.9499   22.7453 C   0  0  0  0  0  0  0  0  0  0  0  0
    8.6356   -5.3045   25.6274 C   0  0  0  0  0  0  0  0  0  0  0  0
    6.2416   -5.8310   25.6912 C   0  0  0  0  0  0  0  0  0  0  0  0
    8.4918   -4.6328   26.9888 C   0  0  0  0  0  0  0  0  0  0  0  0
    6.1806   -5.1511   27.0598 C   0  0  0  0  0  0  0  0  0  0  0  0
    5.9366   -1.1513   19.8117 N   0  0  0  0  0  0  0  0  0  0  0  0
    5.9186   -3.8306   21.8525 N   0  0  0  0  0  0  0  0  0  0  0  0
    7.3474   -5.2347   24.9343 N   0  0  0  0  0  0  0  0  0  0  0  0
    9.4302   -0.9282   23.3206 N   0  0  0  0  0  0  0  0  0  0  0  0
    7.6069    0.0500   22.2591 O   0  0  0  0  0  0  0  0  0  0  0  0
    7.4397   -5.2585   27.7334 O   0  0  0  0  0  0  0  0  0  0  0  0
  1  9  1  0
  1 18  3  0
  2  3  2  0
  2  4  1  0
  3  5  1  0
  4  6  2  0
  5 12  2  0
  6 12  1  0
  7 10  2  0
  7 11  1  0
  8 11  2  0
  8 19  1  0
  9 10  1  0
  9 19  2  0
 10 13  1  0
 11 20  1  0
 12 21  1  0
 13 21  1  0
 13 22  2  0
 14 16  1  0
 14 20  1  0
 15 17  1  0
 15 20  1  0
 16 23  1  0
 17 23  1  0
M  END
