JOH-UNI-27ac80fd-40
     RDKit          3D

 20 22  0  0  0  0  0  0  0  0999 V2000
    6.3623   -1.3079   19.9260 C   0  0  0  0  0  0  0  0  0  0  0  0
   10.7059   -0.8594   24.6741 C   0  0  0  0  0  0  0  0  0  0  0  0
   11.8509   -0.3278   24.0132 C   0  0  0  0  0  0  0  0  0  0  0  0
   10.0978   -1.8521   23.9377 C   0  0  0  0  0  0  0  0  0  0  0  0
   12.0743   -0.9348   22.7968 C   0  0  0  0  0  0  0  0  0  0  0  0
    8.6181   -2.8076   25.8756 C   0  0  0  0  0  0  0  0  0  0  0  0
    9.0266   -3.9761   25.0319 C   0  0  0  0  0  0  0  0  0  0  0  0
    6.3060   -3.1834   21.5797 C   0  0  0  0  0  0  0  0  0  0  0  0
    6.1035   -0.8619   22.3733 C   0  0  0  0  0  0  0  0  0  0  0  0
    7.6138   -3.3521   22.3384 C   0  0  0  0  0  0  0  0  0  0  0  0
    7.4078   -0.9890   23.1462 C   0  0  0  0  0  0  0  0  0  0  0  0
    8.8364   -2.6178   24.3885 C   0  0  0  0  0  0  0  0  0  0  0  0
   11.5054    2.6530   23.8699 C   0  0  0  0  0  0  0  0  0  0  0  0
   12.6856    0.7537   24.5926 C   0  0  0  0  0  0  0  0  0  0  0  0
    6.5543   -0.9227   18.8488 N   0  0  0  0  0  0  0  0  0  0  0  0
    6.1394   -1.7553   21.1778 N   0  0  0  0  0  0  0  0  0  0  0  0
    7.6077   -2.4355   23.5422 N   0  0  0  0  0  0  0  0  0  0  0  0
   12.6864    1.8794   23.7192 O   0  0  0  0  0  0  0  0  0  0  0  0
   10.9065   -2.1399   22.4559 S   0  0  0  0  0  0  0  0  0  0  0  0
   13.4967   -0.5184   21.6023 Br  0  0  0  0  0  0  0  0  0  0  0  0
  1 15  3  0
  1 16  1  0
  2  3  1  0
  2  4  2  0
  3  5  2  0
  3 14  1  0
  4 12  1  0
  4 19  1  0
  5 19  1  0
  5 20  1  0
  6  7  1  0
  6 12  1  0
  7 12  1  0
  8 10  1  0
  8 16  1  0
  9 11  1  0
  9 16  1  0
 10 17  1  0
 11 17  1  0
 12 17  1  0
 13 18  1  0
 14 18  1  0
M  CHG  1  17   1
M  END
