JOH-UNI-a5c0a47e-3
     RDKit          3D

 23 24  0  0  1  0  0  0  0  0999 V2000
   11.1196    2.5434   24.1894 C   0  0  0  0  0  0  0  0  0  0  0  0
   10.5819    2.1507   25.4150 C   0  0  0  0  0  0  0  0  0  0  0  0
   11.3521    1.5946   23.1937 C   0  0  0  0  0  0  0  0  0  0  0  0
   10.2768    0.8092   25.6451 C   0  0  0  0  0  0  0  0  0  0  0  0
   11.0470    0.2531   23.4237 C   0  0  0  0  0  0  0  0  0  0  0  0
   10.5093   -0.1396   24.6494 C   0  0  0  0  0  0  0  0  0  0  0  0
    7.9581   -2.2740   21.2400 C   0  0  0  0  0  0  0  0  0  0  0  0
    7.5869   -3.5192   20.9041 C   0  0  0  0  0  0  0  0  0  0  0  0
    6.3500   -3.7862   20.0409 C   0  0  0  0  0  0  0  0  0  0  0  0
   12.4852   -0.3402   21.4437 C   0  0  0  0  0  0  0  0  0  0  0  0
    9.1742   -2.0152   22.0883 C   0  0  0  0  0  0  0  0  0  0  0  0
    8.2109    0.0013   20.2004 C   0  0  0  0  0  0  0  0  0  0  0  0
    9.3788    0.3000   21.1391 C   0  0  0  0  0  0  0  0  0  0  0  0
    7.2283   -1.0556   20.7273 C   0  0  0  0  0  0  0  0  0  0  0  0
   14.8202    0.0478   21.4787 C   0  0  0  0  0  0  0  0  0  0  0  0
   11.3160   -0.7436   22.3198 C   0  0  0  0  0  0  0  0  0  0  0  0
   10.0995   -0.9863   21.4706 N   0  0  0  0  0  0  0  0  0  0  0  0
    6.5906   -3.8123   18.7979 O   0  0  0  0  0  0  0  0  0  0  0  0
    5.2511   -3.9461   20.6419 O   0  0  0  0  0  0  0  0  0  0  0  0
   12.4087   -0.1025   20.2450 O   0  0  0  0  0  0  0  0  0  0  0  0
   13.6293   -0.3027   22.1906 O   0  0  0  0  0  0  0  0  0  0  0  0
    6.1419   -0.3798   22.0365 S   0  0  0  0  0  0  0  0  0  0  0  0
   10.1191   -1.7901   24.9704 Cl  0  0  0  0  0  0  0  0  0  0  0  0
  1  2  2  0
  1  3  1  0
  2  4  1  0
  3  5  2  0
  4  6  2  0
  5  6  1  0
  5 16  1  0
  6 23  1  0
  7  8  2  0
  7 11  1  0
  7 14  1  0
  8  9  1  0
  9 18  1  0
  9 19  2  0
 10 16  1  0
 10 20  2  0
 10 21  1  0
 11 17  1  0
 12 13  1  0
 12 14  1  0
 13 17  1  0
 14 22  1  0
 15 21  1  0
 16 17  1  0
M  CHG  2  17   1  18  -1
M  END
