JOH-UNI-c7afdb96-9
     RDKit          3D

 20 20  0  0  0  0  0  0  0  0999 V2000
    8.2252   -5.5405   24.1970 C   0  0  0  0  0  0  0  0  0  0  0  0
   12.4061   -0.6784   24.4060 C   0  0  0  0  0  0  0  0  0  0  0  0
   13.4653   -1.1639   25.1727 C   0  0  0  0  0  0  0  0  0  0  0  0
   11.3570   -1.5260   24.0498 C   0  0  0  0  0  0  0  0  0  0  0  0
   13.4757   -2.4969   25.5832 C   0  0  0  0  0  0  0  0  0  0  0  0
   11.3673   -2.8590   24.4603 C   0  0  0  0  0  0  0  0  0  0  0  0
   12.4266   -3.3445   25.2270 C   0  0  0  0  0  0  0  0  0  0  0  0
    8.2566   -4.5631   23.1595 C   0  0  0  0  0  0  0  0  0  0  0  0
    7.4572   -4.6267   22.0749 C   0  0  0  0  0  0  0  0  0  0  0  0
    9.1805   -3.3960   23.3453 C   0  0  0  0  0  0  0  0  0  0  0  0
    5.7909    0.7346   18.5435 C   0  0  0  0  0  0  0  0  0  0  0  0
    7.4445   -3.6257   20.9477 C   0  0  0  0  0  0  0  0  0  0  0  0
    5.5885   -0.1023   19.7982 C   0  0  0  0  0  0  0  0  0  0  0  0
    6.4815   -1.3379   19.7838 C   0  0  0  0  0  0  0  0  0  0  0  0
    8.2071   -6.3331   25.0445 N   0  0  0  0  0  0  0  0  0  0  0  0
   10.3013   -3.7167   24.0976 N   0  0  0  0  0  0  0  0  0  0  0  0
    8.8634   -2.3021   22.8893 O   0  0  0  0  0  0  0  0  0  0  0  0
    6.5947   -5.7007   21.8989 O   0  0  0  0  0  0  0  0  0  0  0  0
   12.4473   -4.6240   25.6273 F   0  0  0  0  0  0  0  0  0  0  0  0
    6.2320   -2.3172   21.2824 S   0  0  0  0  0  0  0  0  0  0  0  0
  1  8  1  0
  1 15  3  0
  2  3  2  0
  2  4  1  0
  3  5  1  0
  4  6  2  0
  5  7  2  0
  6  7  1  0
  6 16  1  0
  7 19  1  0
  8  9  2  0
  8 10  1  0
  9 12  1  0
  9 18  1  0
 10 16  1  0
 10 17  2  0
 11 13  1  0
 12 20  1  0
 13 14  1  0
 14 20  1  0
M  END
