JOH-UNI-27ac80fd-36
     RDKit          3D

 17 18  0  0  0  0  0  0  0  0999 V2000
    6.3367   -4.2315   21.5636 C   0  0  0  0  0  0  0  0  0  0  0  0
   11.0154   -1.1697   24.4290 C   0  0  0  0  0  0  0  0  0  0  0  0
   11.9809   -0.1219   24.4389 C   0  0  0  0  0  0  0  0  0  0  0  0
   11.5976   -2.4110   24.5627 C   0  0  0  0  0  0  0  0  0  0  0  0
   13.2643   -0.6023   24.5800 C   0  0  0  0  0  0  0  0  0  0  0  0
    8.6167   -3.2273   21.6875 C   0  0  0  0  0  0  0  0  0  0  0  0
    8.1775   -5.4491   22.7215 C   0  0  0  0  0  0  0  0  0  0  0  0
    9.9483   -3.4446   22.4089 C   0  0  0  0  0  0  0  0  0  0  0  0
    8.9702   -5.0326   23.9641 C   0  0  0  0  0  0  0  0  0  0  0  0
   10.9293   -3.7621   24.5985 C   0  0  0  0  0  0  0  0  0  0  0  0
    5.2576   -4.2122   21.1382 N   0  0  0  0  0  0  0  0  0  0  0  0
    7.5907   -4.2539   22.0577 N   0  0  0  0  0  0  0  0  0  0  0  0
    9.7009   -3.7671   23.8118 N   0  0  0  0  0  0  0  0  0  0  0  0
   11.7407   -4.7482   24.1160 F   0  0  0  0  0  0  0  0  0  0  0  0
   10.6183   -4.1546   25.8680 F   0  0  0  0  0  0  0  0  0  0  0  0
   13.3016   -2.3101   24.6995 S   0  0  0  0  0  0  0  0  0  0  0  0
   14.8194    0.4867   24.6370 Br  0  0  0  0  0  0  0  0  0  0  0  0
  1 11  3  0
  1 12  1  0
  2  3  1  0
  2  4  2  0
  3  5  2  0
  4 10  1  0
  4 16  1  0
  5 16  1  0
  5 17  1  0
  6  8  1  0
  6 12  1  0
  7  9  1  0
  7 12  1  0
  8 13  1  0
  9 13  1  0
 10 13  1  0
 10 14  1  0
 10 15  1  0
M  END
