JOH-MSK-a63bdd1d-5
     RDKit          3D

 20 21  0  0  0  0  0  0  0  0999 V2000
    8.4111   -2.9575   22.3152 C   0  0  0  0  0  0  0  0  0  0  0  0
    7.6782   -3.3666   23.4328 C   0  0  0  0  0  0  0  0  0  0  0  0
    9.3395   -2.4314   24.9369 C   0  0  0  0  0  0  0  0  0  0  0  0
   11.5697   -1.1855   22.3226 C   0  0  0  0  0  0  0  0  0  0  0  0
   10.0958   -2.0092   23.8254 C   0  0  0  0  0  0  0  0  0  0  0  0
   11.3296   -1.3172   23.6709 C   0  0  0  0  0  0  0  0  0  0  0  0
    9.6151   -2.2815   22.5428 C   0  0  0  0  0  0  0  0  0  0  0  0
    8.1333   -3.1087   24.7244 C   0  0  0  0  0  0  0  0  0  0  0  0
    9.8279    1.4922   24.4321 C   0  0  0  0  0  0  0  0  0  0  0  0
    8.5214    1.8871   25.0365 C   0  0  0  0  0  0  0  0  0  0  0  0
   12.2027   -0.8237   24.7547 C   0  0  0  0  0  0  0  0  0  0  0  0
   12.1171    0.6959   24.9870 C   0  0  0  0  0  0  0  0  0  0  0  0
   10.5300   -1.7699   21.6503 N   0  0  0  0  0  0  0  0  0  0  0  0
   10.7908    1.1144   25.3541 N   0  0  0  0  0  0  0  0  0  0  0  0
    8.2187   -5.8207   25.7741 O   0  0  0  0  0  0  0  0  0  0  0  0
    9.9642    1.5227   23.2147 O   0  0  0  0  0  0  0  0  0  0  0  0
    5.8754   -5.3711   25.2221 O   0  0  0  0  0  0  0  0  0  0  0  0
    6.6783   -5.1050   27.5382 O   0  0  0  0  0  0  0  0  0  0  0  0
    7.3961   -3.5193   25.7947 O   0  0  0  0  0  0  0  0  0  0  0  0
    7.0004   -5.0847   26.1117 S   0  0  0  0  0  0  0  0  0  0  0  0
  1  2  2  0
  1  7  1  0
  2  8  1  0
  3  5  1  0
  3  8  2  0
  4  6  2  0
  4 13  1  0
  5  6  1  0
  5  7  2  0
  6 11  1  0
  7 13  1  0
  8 19  1  0
  9 10  1  0
  9 14  1  0
  9 16  2  0
 11 12  1  0
 12 14  1  0
 15 20  1  0
 17 20  2  0
 18 20  2  0
 19 20  1  0
M  CHG  1  15  -1
M  END
