JOH-UNI-27ac80fd-4
     RDKit          3D

 18 19  0  0  1  0  0  0  0  0999 V2000
    6.3663   -4.9847   21.5003 C   0  0  0  0  0  0  0  0  0  0  0  0
   13.6157   -3.0544   25.5039 C   0  0  0  0  0  0  0  0  0  0  0  0
    8.4604   -5.6408   22.7811 C   0  0  0  0  0  0  0  0  0  0  0  0
    8.2266   -3.3872   21.8162 C   0  0  0  0  0  0  0  0  0  0  0  0
    9.0338   -5.0087   24.0508 C   0  0  0  0  0  0  0  0  0  0  0  0
    8.7981   -2.7984   23.1055 C   0  0  0  0  0  0  0  0  0  0  0  0
   12.6945   -2.9193   24.2988 C   0  0  0  0  0  0  0  0  0  0  0  0
   11.4494   -1.0634   25.6033 C   0  0  0  0  0  0  0  0  0  0  0  0
   14.4617   -1.8036   25.7332 C   0  0  0  0  0  0  0  0  0  0  0  0
   12.6956   -0.2142   25.4377 C   0  0  0  0  0  0  0  0  0  0  0  0
    5.5534   -6.0499   22.1920 C   0  0  0  0  0  0  0  0  0  0  0  0
   10.2920   -3.1653   24.9611 C   0  0  0  0  0  0  0  0  0  0  0  0
    7.6110   -4.6916   22.0557 N   0  0  0  0  0  0  0  0  0  0  0  0
    9.7220   -3.7458   23.7460 N   0  0  0  0  0  0  0  0  0  0  0  0
   11.4007   -2.2022   24.6099 N   0  0  0  0  0  0  0  0  0  0  0  0
    5.9065   -4.4285   20.4998 O   0  0  0  0  0  0  0  0  0  0  0  0
   13.7362   -0.7092   26.2753 O   0  0  0  0  0  0  0  0  0  0  0  0
    5.3100   -5.5025   23.8469 Cl  0  0  0  0  0  0  0  0  0  0  0  0
  1 11  1  0
  1 13  1  0
  1 16  2  0
  2  7  1  0
  2  9  1  0
  3  5  1  0
  3 13  1  0
  4  6  1  0
  4 13  1  0
  5 14  1  0
  6 14  1  0
  7 15  1  0
  8 10  1  0
  8 15  1  0
  9 17  1  0
 10 17  1  0
 11 18  1  0
 12 14  1  0
 12 15  1  0
M  CHG  1  15   1
M  END
