JOH-UNI-9dc98897-2
     RDKit          3D

 19 20  0  0  1  0  0  0  0  0999 V2000
    6.3810   -3.4489   21.5653 C   0  0  0  0  0  0  0  0  0  0  0  0
    9.6245   -3.8660   23.3163 C   0  0  0  0  0  0  0  0  0  0  0  0
    9.0810   -1.5782   22.9597 C   0  0  0  0  0  0  0  0  0  0  0  0
    7.6218   -3.1931   22.2243 C   0  0  0  0  0  0  0  0  0  0  0  0
    8.4340   -4.2152   22.6885 C   0  0  0  0  0  0  0  0  0  0  0  0
    9.9616   -2.5245   23.4585 C   0  0  0  0  0  0  0  0  0  0  0  0
   12.8435   -2.8514   25.7980 C   0  0  0  0  0  0  0  0  0  0  0  0
   11.3816   -2.5388   25.4775 C   0  0  0  0  0  0  0  0  0  0  0  0
   12.1377   -1.3646   23.3269 C   0  0  0  0  0  0  0  0  0  0  0  0
   13.6921   -1.6089   26.0264 C   0  0  0  0  0  0  0  0  0  0  0  0
   12.8802   -0.3438   24.1807 C   0  0  0  0  0  0  0  0  0  0  0  0
    8.0730   -5.6537   22.5385 C   0  0  0  0  0  0  0  0  0  0  0  0
    5.3727   -3.6568   21.0297 N   0  0  0  0  0  0  0  0  0  0  0  0
    7.9156   -1.8790   22.3440 N   0  0  0  0  0  0  0  0  0  0  0  0
   11.1547   -2.1429   24.0855 N   0  0  0  0  0  0  0  0  0  0  0  0
   14.0056   -0.9290   24.8206 O   0  0  0  0  0  0  0  0  0  0  0  0
    9.0008   -6.5092   23.0619 F   0  0  0  0  0  0  0  0  0  0  0  0
    6.8969   -5.9893   23.1473 F   0  0  0  0  0  0  0  0  0  0  0  0
    7.9282   -6.0261   21.2331 F   0  0  0  0  0  0  0  0  0  0  0  0
  1  4  1  0
  1 13  3  0
  2  5  2  0
  2  6  1  0
  3  6  2  0
  3 14  1  0
  4  5  1  0
  4 14  2  0
  5 12  1  0
  6 15  1  0
  7  8  1  0
  7 10  1  0
  8 15  1  0
  9 11  1  0
  9 15  1  0
 10 16  1  0
 11 16  1  0
 12 17  1  0
 12 18  1  0
 12 19  1  0
M  END
