JOH-CHE-3504ac3d-3
     RDKit          3D

 25 27  0  0  1  0  0  0  0  0999 V2000
    7.4160   -3.6785   22.0448 C   0  0  0  0  0  0  0  0  0  0  0  0
    7.8646   -2.8315   21.0505 C   0  0  0  0  0  0  0  0  0  0  0  0
    8.8106   -1.9728   21.6468 C   0  0  0  0  0  0  0  0  0  0  0  0
    8.8946   -2.2929   22.9784 C   0  0  0  0  0  0  0  0  0  0  0  0
   10.4789   -0.2365   21.8516 C   0  0  0  0  0  0  0  0  0  0  0  0
    6.6852    0.8072   20.0993 C   0  0  0  0  0  0  0  0  0  0  0  0
    5.9647   -0.0532   19.3631 C   0  0  0  0  0  0  0  0  0  0  0  0
   12.0653    4.9040   24.7716 C   0  0  0  0  0  0  0  0  0  0  0  0
   11.2943    0.2701   24.2227 C   0  0  0  0  0  0  0  0  0  0  0  0
    9.7422   -1.6066   23.9701 C   0  0  0  0  0  0  0  0  0  0  0  0
   10.8483   -0.8178   23.2442 C   0  0  0  0  0  0  0  0  0  0  0  0
   10.0306    0.9740   24.7125 C   0  0  0  0  0  0  0  0  0  0  0  0
    5.7579    0.1646   17.8918 C   0  0  0  0  0  0  0  0  0  0  0  0
    7.4330   -2.8410   19.6395 C   0  0  0  0  0  0  0  0  0  0  0  0
    5.3672   -1.3024   19.9679 C   0  0  0  0  0  0  0  0  0  0  0  0
   11.0137    3.8631   24.8525 C   0  0  0  0  0  0  0  0  0  0  0  0
   10.2474    1.7279   26.0136 C   0  0  0  0  0  0  0  0  0  0  0  0
    5.9176   -2.6222   19.4068 C   0  0  0  0  0  0  0  0  0  0  0  0
   11.3527    2.7773   25.8753 C   0  0  0  0  0  0  0  0  0  0  0  0
    8.0558   -3.3461   23.2155 N   0  0  0  0  0  0  0  0  0  0  0  0
    9.5469   -0.9420   21.1042 N   0  0  0  0  0  0  0  0  0  0  0  0
   13.0136    4.7501   23.8588 N   0  0  0  0  0  0  0  0  0  0  0  0
   11.9971    5.9203   25.6191 N   0  0  0  0  0  0  0  0  0  0  0  0
   11.0557    0.7535   21.3960 O   0  0  0  0  0  0  0  0  0  0  0  0
    8.8077   -0.3602   24.9137 S   0  0  0  0  0  0  0  0  0  0  0  0
  1  2  2  0
  1 20  1  0
  2  3  1  0
  2 14  1  0
  3  4  2  0
  3 21  1  0
  4 10  1  0
  4 20  1  0
  5 11  1  0
  5 21  1  0
  5 24  2  0
  6  7  2  0
  7 13  1  0
  7 15  1  0
  8 16  1  0
  8 22  1  0
  8 23  2  0
  9 11  1  0
  9 12  1  0
 10 11  1  0
 10 25  1  0
 12 17  1  0
 12 25  1  0
 14 18  1  0
 15 18  1  0
 16 19  1  0
 17 19  1  0
M  CHG  1  23   1
M  END
