JOH-UNI-c7afdb96-8
     RDKit          3D

 18 19  0  0  0  0  0  0  0  0999 V2000
    7.2523   -1.9109   21.3193 C   0  0  0  0  0  0  0  0  0  0  0  0
   12.1235    0.8619   24.0218 C   0  0  0  0  0  0  0  0  0  0  0  0
   13.0183    0.0158   24.6768 C   0  0  0  0  0  0  0  0  0  0  0  0
   11.0325    0.3274   23.3365 C   0  0  0  0  0  0  0  0  0  0  0  0
   11.7310   -1.8994   23.9611 C   0  0  0  0  0  0  0  0  0  0  0  0
   12.8220   -1.3649   24.6465 C   0  0  0  0  0  0  0  0  0  0  0  0
   10.8362   -1.0532   23.3061 C   0  0  0  0  0  0  0  0  0  0  0  0
    7.9031   -3.0173   21.9449 C   0  0  0  0  0  0  0  0  0  0  0  0
    7.5529   -4.2937   21.6842 C   0  0  0  0  0  0  0  0  0  0  0  0
    9.0278   -2.7571   22.9134 C   0  0  0  0  0  0  0  0  0  0  0  0
    7.6660   -5.9605   23.6109 C   0  0  0  0  0  0  0  0  0  0  0  0
    7.3642   -6.7431   22.3673 C   0  0  0  0  0  0  0  0  0  0  0  0
    8.1858   -5.5124   22.2983 C   0  0  0  0  0  0  0  0  0  0  0  0
   13.7789   -2.2691   25.3469 C   0  0  0  0  0  0  0  0  0  0  0  0
    6.7292   -1.0055   20.8159 N   0  0  0  0  0  0  0  0  0  0  0  0
    9.7277   -1.5957   22.6106 N   0  0  0  0  0  0  0  0  0  0  0  0
    9.2406   -3.5325   23.8401 O   0  0  0  0  0  0  0  0  0  0  0  0
    6.5513   -4.5853   20.7707 O   0  0  0  0  0  0  0  0  0  0  0  0
  1  8  1  0
  1 15  3  0
  2  3  2  0
  2  4  1  0
  3  6  1  0
  4  7  2  0
  5  6  2  0
  5  7  1  0
  6 14  1  0
  7 16  1  0
  8  9  2  0
  8 10  1  0
  9 13  1  0
  9 18  1  0
 10 16  1  0
 10 17  2  0
 11 12  1  0
 11 13  1  0
 12 13  1  0
M  END
