JOH-UNI-27ac80fd-37
     RDKit          3D

 17 19  0  0  0  0  0  0  0  0999 V2000
    6.2849   -3.4441   20.3540 C   0  0  0  0  0  0  0  0  0  0  0  0
   12.9280   -0.4713   22.6295 C   0  0  0  0  0  0  0  0  0  0  0  0
   13.4377    0.8582   22.6839 C   0  0  0  0  0  0  0  0  0  0  0  0
   11.6539   -0.5585   23.1456 C   0  0  0  0  0  0  0  0  0  0  0  0
   12.5333    1.7366   23.2394 C   0  0  0  0  0  0  0  0  0  0  0  0
   10.3935   -2.3412   24.5919 C   0  0  0  0  0  0  0  0  0  0  0  0
   11.4871   -3.0688   23.8717 C   0  0  0  0  0  0  0  0  0  0  0  0
    7.7922   -1.5469   20.9352 C   0  0  0  0  0  0  0  0  0  0  0  0
    8.7213   -3.8209   20.7136 C   0  0  0  0  0  0  0  0  0  0  0  0
    8.6430   -1.3035   22.1712 C   0  0  0  0  0  0  0  0  0  0  0  0
    9.5829   -3.6054   21.9473 C   0  0  0  0  0  0  0  0  0  0  0  0
   10.8356   -1.8643   23.2236 C   0  0  0  0  0  0  0  0  0  0  0  0
    5.2628   -3.8234   19.9578 N   0  0  0  0  0  0  0  0  0  0  0  0
    7.4734   -3.0032   20.8148 N   0  0  0  0  0  0  0  0  0  0  0  0
    9.9007   -2.1347   22.0781 N   0  0  0  0  0  0  0  0  0  0  0  0
   11.0770    0.9581   23.6926 S   0  0  0  0  0  0  0  0  0  0  0  0
   12.8473    3.5949   23.4771 Br  0  0  0  0  0  0  0  0  0  0  0  0
  1 13  3  0
  1 14  1  0
  2  3  1  0
  2  4  2  0
  3  5  2  0
  4 12  1  0
  4 16  1  0
  5 16  1  0
  5 17  1  0
  6  7  1  0
  6 12  1  0
  7 12  1  0
  8 10  1  0
  8 14  1  0
  9 11  1  0
  9 14  1  0
 10 15  1  0
 11 15  1  0
 12 15  1  0
M  CHG  1  15   1
M  END
