JOH-UNI-522b0723-13
     RDKit          3D

 25 27  0  0  1  0  0  0  0  0999 V2000
    5.8796   -5.5064   23.5098 C   0  0  0  0  0  0  0  0  0  0  0  0
    6.2083    0.2003   18.2958 C   0  0  0  0  0  0  0  0  0  0  0  0
    5.3653   -0.7643   18.8477 C   0  0  0  0  0  0  0  0  0  0  0  0
    7.4978    0.3703   18.7997 C   0  0  0  0  0  0  0  0  0  0  0  0
    5.8119   -1.5588   19.9036 C   0  0  0  0  0  0  0  0  0  0  0  0
    7.9444   -0.4243   19.8556 C   0  0  0  0  0  0  0  0  0  0  0  0
    9.0702   -3.6167   23.3709 C   0  0  0  0  0  0  0  0  0  0  0  0
    8.9619   -5.0679   25.2521 C   0  0  0  0  0  0  0  0  0  0  0  0
    7.1810   -4.9954   23.8026 C   0  0  0  0  0  0  0  0  0  0  0  0
    7.8032   -4.0530   22.9998 C   0  0  0  0  0  0  0  0  0  0  0  0
    9.6677   -4.1289   24.5172 C   0  0  0  0  0  0  0  0  0  0  0  0
    7.1014   -1.3888   20.4076 C   0  0  0  0  0  0  0  0  0  0  0  0
    7.1822   -3.5107   21.7993 C   0  0  0  0  0  0  0  0  0  0  0  0
   11.5451   -4.2673   26.1303 C   0  0  0  0  0  0  0  0  0  0  0  0
   13.0641   -4.1750   26.0548 C   0  0  0  0  0  0  0  0  0  0  0  0
   11.4544   -2.4001   24.4566 C   0  0  0  0  0  0  0  0  0  0  0  0
   12.9972   -2.4542   24.4535 C   0  0  0  0  0  0  0  0  0  0  0  0
   10.8846   -1.2887   25.3496 C   0  0  0  0  0  0  0  0  0  0  0  0
   13.6510   -1.1224   24.1026 C   0  0  0  0  0  0  0  0  0  0  0  0
    4.8223   -5.9215   23.2719 N   0  0  0  0  0  0  0  0  0  0  0  0
    7.7296   -5.5159   24.9232 N   0  0  0  0  0  0  0  0  0  0  0  0
   10.9402   -3.7089   24.9158 N   0  0  0  0  0  0  0  0  0  0  0  0
    7.5551   -2.1966   21.4807 N   0  0  0  0  0  0  0  0  0  0  0  0
    6.3617   -4.1634   21.1413 O   0  0  0  0  0  0  0  0  0  0  0  0
   13.4837   -2.8504   25.7393 O   0  0  0  0  0  0  0  0  0  0  0  0
  1  9  1  0
  1 20  3  0
  2  3  2  0
  2  4  1  0
  3  5  1  0
  4  6  2  0
  5 12  2  0
  6 12  1  0
  7 10  2  0
  7 11  1  0
  8 11  2  0
  8 21  1  0
  9 10  1  0
  9 21  2  0
 10 13  1  0
 11 22  1  0
 12 23  1  0
 13 23  1  0
 13 24  2  0
 14 15  1  0
 14 22  1  0
 15 25  1  0
 16 17  1  0
 16 18  1  0
 16 22  1  0
 17 19  1  0
 17 25  1  0
M  END
