JOH-UNI-522b0723-3
     RDKit          3D

 15 16  0  0  1  0  0  0  0  0999 V2000
   12.5201   -2.4977   25.4828 C   0  0  0  0  0  0  0  0  0  0  0  0
   11.2624   -4.4069   24.6025 C   0  0  0  0  0  0  0  0  0  0  0  0
   10.0660   -4.8878   24.0824 C   0  0  0  0  0  0  0  0  0  0  0  0
    9.1549   -2.7011   24.2948 C   0  0  0  0  0  0  0  0  0  0  0  0
   11.3283   -3.0657   24.9443 C   0  0  0  0  0  0  0  0  0  0  0  0
    8.9873   -4.0251   23.9224 C   0  0  0  0  0  0  0  0  0  0  0  0
    6.7233   -5.0011   24.2857 C   0  0  0  0  0  0  0  0  0  0  0  0
    6.1803   -6.3084   23.7312 C   0  0  0  0  0  0  0  0  0  0  0  0
    6.8334   -5.6014   21.4355 C   0  0  0  0  0  0  0  0  0  0  0  0
    7.4278   -4.2975   21.9832 C   0  0  0  0  0  0  0  0  0  0  0  0
    6.4841   -3.1067   21.7947 C   0  0  0  0  0  0  0  0  0  0  0  0
   13.4902   -2.0353   25.9211 N   0  0  0  0  0  0  0  0  0  0  0  0
   10.3017   -2.1974   24.8035 N   0  0  0  0  0  0  0  0  0  0  0  0
    7.7767   -4.4781   23.4053 N   0  0  0  0  0  0  0  0  0  0  0  0
    5.7355   -6.0894   22.3226 N   0  0  0  0  0  0  0  0  0  0  0  0
  1  5  1  0
  1 12  3  0
  2  3  2  0
  2  5  1  0
  3  6  1  0
  4  6  2  0
  4 13  1  0
  5 13  2  0
  6 14  1  0
  7  8  1  0
  7 14  1  0
  8 15  1  0
  9 10  1  0
  9 15  1  0
 10 11  1  0
 10 14  1  0
M  CHG  1  15   1
M  END
