JOH-UNI-27ac80fd-34
     RDKit          3D

 20 22  0  0  1  0  0  0  0  0999 V2000
   11.0934   -2.0921   22.7273 C   0  0  0  0  0  0  0  0  0  0  0  0
   11.8616   -0.9102   22.5197 C   0  0  0  0  0  0  0  0  0  0  0  0
   10.1994   -1.9524   23.7659 C   0  0  0  0  0  0  0  0  0  0  0  0
   11.5253    0.0880   23.4076 C   0  0  0  0  0  0  0  0  0  0  0  0
    7.3292   -0.1802   19.4435 C   0  0  0  0  0  0  0  0  0  0  0  0
    6.1723   -0.8346   19.3225 C   0  0  0  0  0  0  0  0  0  0  0  0
    6.1209   -2.2653   19.6843 C   0  0  0  0  0  0  0  0  0  0  0  0
    8.7841   -3.1324   25.7298 C   0  0  0  0  0  0  0  0  0  0  0  0
    6.2459   -1.7863   22.1901 C   0  0  0  0  0  0  0  0  0  0  0  0
    6.9782   -3.9524   21.2624 C   0  0  0  0  0  0  0  0  0  0  0  0
    7.5184   -1.7059   23.0251 C   0  0  0  0  0  0  0  0  0  0  0  0
    8.2633   -3.8869   22.0725 C   0  0  0  0  0  0  0  0  0  0  0  0
    9.2799   -4.5720   25.6964 C   0  0  0  0  0  0  0  0  0  0  0  0
    9.2022   -3.0877   24.2429 C   0  0  0  0  0  0  0  0  0  0  0  0
    6.4428   -2.6162   20.9932 N   0  0  0  0  0  0  0  0  0  0  0  0
    8.0038   -3.1012   23.3363 N   0  0  0  0  0  0  0  0  0  0  0  0
    5.7912   -3.0633   18.8052 O   0  0  0  0  0  0  0  0  0  0  0  0
    9.7987   -4.4123   24.3584 O   0  0  0  0  0  0  0  0  0  0  0  0
   10.2883   -0.4012   24.4859 S   0  0  0  0  0  0  0  0  0  0  0  0
   12.3262    1.8103   23.4420 Br  0  0  0  0  0  0  0  0  0  0  0  0
  1  2  1  0
  1  3  2  0
  2  4  2  0
  3 14  1  0
  3 19  1  0
  4 19  1  0
  4 20  1  0
  5  6  2  0
  6  7  1  0
  7 15  1  0
  7 17  2  0
  8 13  1  0
  8 14  1  0
  9 11  1  0
  9 15  1  0
 10 12  1  0
 10 15  1  0
 11 16  1  0
 12 16  1  0
 13 18  1  0
 14 16  1  0
 14 18  1  0
M  CHG  1  16   1
M  END
