JOH-UNI-9dc98897-9
     RDKit          3D

 16 17  0  0  1  0  0  0  0  0999 V2000
   13.0287   -1.2950   25.5392 C   0  0  0  0  0  0  0  0  0  0  0  0
   11.9704   -3.5034   25.4759 C   0  0  0  0  0  0  0  0  0  0  0  0
   10.8969   -4.2817   25.0573 C   0  0  0  0  0  0  0  0  0  0  0  0
   11.9632   -2.1576   25.1465 C   0  0  0  0  0  0  0  0  0  0  0  0
    9.8636   -3.6986   24.3324 C   0  0  0  0  0  0  0  0  0  0  0  0
    9.9506   -2.3440   24.0543 C   0  0  0  0  0  0  0  0  0  0  0  0
    7.9745   -5.9595   22.0509 C   0  0  0  0  0  0  0  0  0  0  0  0
    8.5052   -4.5894   22.4738 C   0  0  0  0  0  0  0  0  0  0  0  0
    7.9672   -5.1699   24.9130 C   0  0  0  0  0  0  0  0  0  0  0  0
    6.4922   -6.1496   22.3385 C   0  0  0  0  0  0  0  0  0  0  0  0
    6.4916   -5.2421   24.5390 C   0  0  0  0  0  0  0  0  0  0  0  0
   13.8958   -0.5931   25.8588 N   0  0  0  0  0  0  0  0  0  0  0  0
   10.9774   -1.5557   24.4440 N   0  0  0  0  0  0  0  0  0  0  0  0
    8.7822   -4.4815   23.9082 N   0  0  0  0  0  0  0  0  0  0  0  0
    6.2237   -6.3679   23.7150 O   0  0  0  0  0  0  0  0  0  0  0  0
    8.7388   -1.5038   23.1661 Cl  0  0  0  0  0  0  0  0  0  0  0  0
  1  4  1  0
  1 12  3  0
  2  3  2  0
  2  4  1  0
  3  5  1  0
  4 13  2  0
  5  6  2  0
  5 14  1  0
  6 13  1  0
  6 16  1  0
  7  8  1  0
  7 10  1  0
  8 14  1  0
  9 11  1  0
  9 14  1  0
 10 15  1  0
 11 15  1  0
M  END
