JOH-UNI-27ac80fd-17
     RDKit          3D

 17 18  0  0  0  0  0  0  0  0999 V2000
   13.0438   -2.3747   25.3567 C   0  0  0  0  0  0  0  0  0  0  0  0
    7.9572   -3.5611   24.0939 C   0  0  0  0  0  0  0  0  0  0  0  0
    7.2737   -6.2511   21.5590 C   0  0  0  0  0  0  0  0  0  0  0  0
    8.1838   -5.6122   22.6133 C   0  0  0  0  0  0  0  0  0  0  0  0
   11.2184   -4.0899   25.4149 C   0  0  0  0  0  0  0  0  0  0  0  0
   10.6324   -1.6925   25.3596 C   0  0  0  0  0  0  0  0  0  0  0  0
   10.3723   -4.3352   24.1653 C   0  0  0  0  0  0  0  0  0  0  0  0
    9.8159   -1.9255   24.0957 C   0  0  0  0  0  0  0  0  0  0  0  0
    6.1826   -5.2722   24.0852 C   0  0  0  0  0  0  0  0  0  0  0  0
    6.1348   -5.3548   21.0908 C   0  0  0  0  0  0  0  0  0  0  0  0
    5.0812   -4.7662   23.1591 C   0  0  0  0  0  0  0  0  0  0  0  0
   14.1698   -2.1009   25.3050 N   0  0  0  0  0  0  0  0  0  0  0  0
   11.7371   -2.6925   25.4168 N   0  0  0  0  0  0  0  0  0  0  0  0
    7.5067   -4.8217   23.6511 N   0  0  0  0  0  0  0  0  0  0  0  0
    9.3332   -3.3061   24.0235 N   0  0  0  0  0  0  0  0  0  0  0  0
    7.1680   -2.7032   24.5109 O   0  0  0  0  0  0  0  0  0  0  0  0
    4.9997   -5.4959   21.9411 O   0  0  0  0  0  0  0  0  0  0  0  0
  1 12  3  0
  1 13  1  0
  2 14  1  0
  2 15  1  0
  2 16  2  0
  3  4  1  0
  3 10  1  0
  4 14  1  0
  5  7  1  0
  5 13  1  0
  6  8  1  0
  6 13  1  0
  7 15  1  0
  8 15  1  0
  9 11  1  0
  9 14  1  0
 10 17  1  0
 11 17  1  0
M  END
