JOH-MSK-a63bdd1d-8
     RDKit          3D

 15 17  0  0  0  0  0  0  0  0999 V2000
   11.7297   -0.5875   23.5773 C   0  0  0  0  0  0  0  0  0  0  0  0
   12.6554   -1.4998   23.0633 C   0  0  0  0  0  0  0  0  0  0  0  0
   13.9848    0.2959   22.1130 C   0  0  0  0  0  0  0  0  0  0  0  0
   13.0667    1.2365   22.6218 C   0  0  0  0  0  0  0  0  0  0  0  0
   12.9714    2.6551   22.5848 C   0  0  0  0  0  0  0  0  0  0  0  0
   11.9586    0.7729   23.3414 C   0  0  0  0  0  0  0  0  0  0  0  0
   13.7661   -1.0671   22.3421 C   0  0  0  0  0  0  0  0  0  0  0  0
   11.8255    3.0080   23.2650 C   0  0  0  0  0  0  0  0  0  0  0  0
   13.8521    3.6785   21.9501 C   0  0  0  0  0  0  0  0  0  0  0  0
   11.3499    4.3914   23.4834 C   0  0  0  0  0  0  0  0  0  0  0  0
   13.6061    5.0744   22.5455 C   0  0  0  0  0  0  0  0  0  0  0  0
   15.7670   -1.4745   21.1230 C   0  0  0  0  0  0  0  0  0  0  0  0
   11.2208    1.8748   23.7222 N   0  0  0  0  0  0  0  0  0  0  0  0
   12.1233    5.3555   22.6080 N   0  0  0  0  0  0  0  0  0  0  0  0
   14.6512   -1.9807   21.8523 O   0  0  0  0  0  0  0  0  0  0  0  0
  1  2  2  0
  1  6  1  0
  2  7  1  0
  3  4  1  0
  3  7  2  0
  4  5  1  0
  4  6  2  0
  5  8  2  0
  5  9  1  0
  6 13  1  0
  7 15  1  0
  8 10  1  0
  8 13  1  0
  9 11  1  0
 10 14  1  0
 11 14  1  0
 12 15  1  0
M  CHG  1  14   1
M  END
