JOH-UNI-c7afdb96-4
     RDKit          3D

 21 22  0  0  0  0  0  0  0  0999 V2000
   13.0109   -1.0153   21.8247 C   0  0  0  0  0  0  0  0  0  0  0  0
    6.2638   -2.2094   20.2361 C   0  0  0  0  0  0  0  0  0  0  0  0
    6.8274   -1.0688   19.6642 C   0  0  0  0  0  0  0  0  0  0  0  0
    6.9665   -2.9227   21.2072 C   0  0  0  0  0  0  0  0  0  0  0  0
    9.9170    0.8249   26.4556 C   0  0  0  0  0  0  0  0  0  0  0  0
   10.8208    0.2829   25.5418 C   0  0  0  0  0  0  0  0  0  0  0  0
    8.0939   -0.6417   20.0633 C   0  0  0  0  0  0  0  0  0  0  0  0
    8.2330   -2.4956   21.6062 C   0  0  0  0  0  0  0  0  0  0  0  0
    9.5752    2.1752   26.3811 C   0  0  0  0  0  0  0  0  0  0  0  0
   11.0410    2.4415   24.4792 C   0  0  0  0  0  0  0  0  0  0  0  0
   11.3828    1.0912   24.5536 C   0  0  0  0  0  0  0  0  0  0  0  0
    8.7967   -1.3551   21.0343 C   0  0  0  0  0  0  0  0  0  0  0  0
   10.1372    2.9835   25.3930 C   0  0  0  0  0  0  0  0  0  0  0  0
   12.0489   -0.4954   22.7414 C   0  0  0  0  0  0  0  0  0  0  0  0
   12.3252    0.5252   23.6013 C   0  0  0  0  0  0  0  0  0  0  0  0
   10.6732   -1.0900   22.6821 C   0  0  0  0  0  0  0  0  0  0  0  0
   13.7916   -1.4403   21.0789 N   0  0  0  0  0  0  0  0  0  0  0  0
   10.0812   -0.9216   21.4390 N   0  0  0  0  0  0  0  0  0  0  0  0
   10.1976   -1.6067   23.6874 O   0  0  0  0  0  0  0  0  0  0  0  0
   13.5709    1.1430   23.6454 O   0  0  0  0  0  0  0  0  0  0  0  0
    9.7148    4.6495   25.3021 Cl  0  0  0  0  0  0  0  0  0  0  0  0
  1 14  1  0
  1 17  3  0
  2  3  2  0
  2  4  1  0
  3  7  1  0
  4  8  2  0
  5  6  2  0
  5  9  1  0
  6 11  1  0
  7 12  2  0
  8 12  1  0
  9 13  2  0
 10 11  2  0
 10 13  1  0
 11 15  1  0
 12 18  1  0
 13 21  1  0
 14 15  2  0
 14 16  1  0
 15 20  1  0
 16 18  1  0
 16 19  2  0
M  END
