JOH-UNI-c7afdb96-7
     RDKit          3D

 19 20  0  0  0  0  0  0  0  0999 V2000
    6.8793   -4.6828   21.3171 C   0  0  0  0  0  0  0  0  0  0  0  0
   10.4388   -0.2576   24.7380 C   0  0  0  0  0  0  0  0  0  0  0  0
   11.7217   -0.0540   24.2298 C   0  0  0  0  0  0  0  0  0  0  0  0
    9.4969   -0.9651   23.9911 C   0  0  0  0  0  0  0  0  0  0  0  0
   11.1208   -1.2653   22.2276 C   0  0  0  0  0  0  0  0  0  0  0  0
   12.0627   -0.5578   22.9746 C   0  0  0  0  0  0  0  0  0  0  0  0
    9.8379   -1.4690   22.7359 C   0  0  0  0  0  0  0  0  0  0  0  0
    6.8463   -3.2563   21.2630 C   0  0  0  0  0  0  0  0  0  0  0  0
    6.1776   -2.5925   20.2976 C   0  0  0  0  0  0  0  0  0  0  0  0
    7.5642   -2.4635   22.3244 C   0  0  0  0  0  0  0  0  0  0  0  0
    7.0117    0.6003   19.3181 C   0  0  0  0  0  0  0  0  0  0  0  0
    7.4043   -0.3519   20.4669 C   0  0  0  0  0  0  0  0  0  0  0  0
    6.1958   -0.5693   18.7293 C   0  0  0  0  0  0  0  0  0  0  0  0
    6.0949   -1.1271   20.1719 C   0  0  0  0  0  0  0  0  0  0  0  0
   13.4344   -0.3398   22.4318 C   0  0  0  0  0  0  0  0  0  0  0  0
    6.9118   -5.8417   21.3692 N   0  0  0  0  0  0  0  0  0  0  0  0
    8.8813   -2.1881   21.9779 N   0  0  0  0  0  0  0  0  0  0  0  0
    6.9831   -2.1364   23.3543 O   0  0  0  0  0  0  0  0  0  0  0  0
    5.4688   -3.2772   19.3222 O   0  0  0  0  0  0  0  0  0  0  0  0
  1  8  1  0
  1 16  3  0
  2  3  2  0
  2  4  1  0
  3  6  1  0
  4  7  2  0
  5  6  2  0
  5  7  1  0
  6 15  1  0
  7 17  1  0
  8  9  2  0
  8 10  1  0
  9 14  1  0
  9 19  1  0
 10 17  1  0
 10 18  2  0
 11 12  1  0
 11 13  1  0
 12 14  1  0
 13 14  1  0
M  END
