JOH-UNI-27ac80fd-22
     RDKit          3D

 17 18  0  0  1  0  0  0  0  0999 V2000
   13.5675   -1.8390   25.8695 C   0  0  0  0  0  0  0  0  0  0  0  0
    7.5693   -6.1826   21.9674 C   0  0  0  0  0  0  0  0  0  0  0  0
    8.5593   -5.0123   22.0371 C   0  0  0  0  0  0  0  0  0  0  0  0
   12.2499   -3.9468   25.7125 C   0  0  0  0  0  0  0  0  0  0  0  0
   11.9592   -2.2011   24.0023 C   0  0  0  0  0  0  0  0  0  0  0  0
   10.7452   -4.2050   25.6710 C   0  0  0  0  0  0  0  0  0  0  0  0
   10.4601   -2.4927   23.9933 C   0  0  0  0  0  0  0  0  0  0  0  0
    6.7990   -3.5997   23.0452 C   0  0  0  0  0  0  0  0  0  0  0  0
    6.1730   -5.8241   21.4473 C   0  0  0  0  0  0  0  0  0  0  0  0
    6.0959   -3.4370   21.6917 C   0  0  0  0  0  0  0  0  0  0  0  0
    8.7639   -4.1774   24.2992 C   0  0  0  0  0  0  0  0  0  0  0  0
   14.4587   -1.2490   26.3204 N   0  0  0  0  0  0  0  0  0  0  0  0
   12.5312   -2.5250   25.3453 N   0  0  0  0  0  0  0  0  0  0  0  0
    8.2280   -3.9209   22.9610 N   0  0  0  0  0  0  0  0  0  0  0  0
   10.1981   -3.8954   24.3431 N   0  0  0  0  0  0  0  0  0  0  0  0
    6.1634   -4.5554   20.8073 O   0  0  0  0  0  0  0  0  0  0  0  0
    8.5646   -5.4872   24.6069 F   0  0  0  0  0  0  0  0  0  0  0  0
  1 12  3  0
  1 13  1  0
  2  3  1  0
  2  9  1  0
  3 14  1  0
  4  6  1  0
  4 13  1  0
  5  7  1  0
  5 13  1  0
  6 15  1  0
  7 15  1  0
  8 10  1  0
  8 14  1  0
  9 16  1  0
 10 16  1  0
 11 14  1  0
 11 15  1  0
 11 17  1  0
M  END
