JOH-MSK-a63bdd1d-1
     RDKit          3D

 18 19  0  0  0  0  0  0  0  0999 V2000
   12.9269    0.6195   22.5416 C   0  0  0  0  0  0  0  0  0  0  0  0
   10.6430   -0.7404   23.5147 C   0  0  0  0  0  0  0  0  0  0  0  0
   10.5403    2.8066   24.2390 C   0  0  0  0  0  0  0  0  0  0  0  0
   11.9190    1.3340   23.2192 C   0  0  0  0  0  0  0  0  0  0  0  0
   11.7398    2.7004   23.5736 C   0  0  0  0  0  0  0  0  0  0  0  0
   10.8025    0.6389   23.6891 C   0  0  0  0  0  0  0  0  0  0  0  0
   12.7808   -0.7605   22.3598 C   0  0  0  0  0  0  0  0  0  0  0  0
   11.6556   -1.4280   22.8396 C   0  0  0  0  0  0  0  0  0  0  0  0
    9.8475    6.2510   23.0247 C   0  0  0  0  0  0  0  0  0  0  0  0
    8.7551    6.3294   22.0104 C   0  0  0  0  0  0  0  0  0  0  0  0
   13.6293   -1.5635   20.2883 C   0  0  0  0  0  0  0  0  0  0  0  0
   12.6674    3.8126   23.2838 C   0  0  0  0  0  0  0  0  0  0  0  0
   12.0564    5.2101   23.4934 C   0  0  0  0  0  0  0  0  0  0  0  0
    9.9825    1.5580   24.3040 N   0  0  0  0  0  0  0  0  0  0  0  0
   10.9014    5.4267   22.6641 N   0  0  0  0  0  0  0  0  0  0  0  0
    9.7526    6.8907   24.0656 O   0  0  0  0  0  0  0  0  0  0  0  0
   11.5268   -2.7741   22.6552 O   0  0  0  0  0  0  0  0  0  0  0  0
   13.7599   -1.4470   21.7028 O   0  0  0  0  0  0  0  0  0  0  0  0
  1  4  2  0
  1  7  1  0
  2  6  2  0
  2  8  1  0
  3  5  2  0
  3 14  1  0
  4  5  1  0
  4  6  1  0
  5 12  1  0
  6 14  1  0
  7  8  2  0
  7 18  1  0
  8 17  1  0
  9 10  1  0
  9 15  1  0
  9 16  2  0
 11 18  1  0
 12 13  1  0
 13 15  1  0
M  END
