JOH-UNI-27ac80fd-27
     RDKit          3D

 15 16  0  0  0  0  0  0  0  0999 V2000
    6.4798   -4.3228   21.8320 C   0  0  0  0  0  0  0  0  0  0  0  0
   12.7863   -2.7649   25.3351 C   0  0  0  0  0  0  0  0  0  0  0  0
   13.6524   -1.6337   25.3192 C   0  0  0  0  0  0  0  0  0  0  0  0
   11.4768   -2.4177   25.0857 C   0  0  0  0  0  0  0  0  0  0  0  0
   12.9717   -0.4647   25.0579 C   0  0  0  0  0  0  0  0  0  0  0  0
    7.4988   -4.5500   24.1050 C   0  0  0  0  0  0  0  0  0  0  0  0
    8.9084   -3.8550   22.2053 C   0  0  0  0  0  0  0  0  0  0  0  0
    7.7545   -3.2247   24.8072 C   0  0  0  0  0  0  0  0  0  0  0  0
    9.1886   -2.5177   22.8748 C   0  0  0  0  0  0  0  0  0  0  0  0
   10.2713   -3.3082   25.0170 C   0  0  0  0  0  0  0  0  0  0  0  0
    5.5432   -4.2931   21.1482 N   0  0  0  0  0  0  0  0  0  0  0  0
    7.5676   -4.3574   22.6265 N   0  0  0  0  0  0  0  0  0  0  0  0
    9.0826   -2.6430   24.3781 N   0  0  0  0  0  0  0  0  0  0  0  0
   11.2956   -0.7336   24.8336 S   0  0  0  0  0  0  0  0  0  0  0  0
   13.7812    1.2504   24.9554 Br  0  0  0  0  0  0  0  0  0  0  0  0
  1 11  3  0
  1 12  1  0
  2  3  1  0
  2  4  2  0
  3  5  2  0
  4 10  1  0
  4 14  1  0
  5 14  1  0
  5 15  1  0
  6  8  1  0
  6 12  1  0
  7  9  1  0
  7 12  1  0
  8 13  1  0
  9 13  1  0
 10 13  1  0
M  CHG  1  13   1
M  END
