JOH-UNI-c7afdb96-18
     RDKit          3D

 19 20  0  0  0  0  0  0  0  0999 V2000
   13.5739    1.0973   22.2264 C   0  0  0  0  0  0  0  0  0  0  0  0
   12.2439    0.1110   23.9857 C   0  0  0  0  0  0  0  0  0  0  0  0
   13.0790    2.3582   22.5591 C   0  0  0  0  0  0  0  0  0  0  0  0
   11.7490    1.3719   24.3185 C   0  0  0  0  0  0  0  0  0  0  0  0
   11.8270    7.0899   25.3006 C   0  0  0  0  0  0  0  0  0  0  0  0
   11.5211    6.1588   24.2931 C   0  0  0  0  0  0  0  0  0  0  0  0
   13.1563   -0.0264   22.9396 C   0  0  0  0  0  0  0  0  0  0  0  0
   12.1666    2.4955   23.6052 C   0  0  0  0  0  0  0  0  0  0  0  0
   10.2927    6.5612   23.8399 C   0  0  0  0  0  0  0  0  0  0  0  0
   12.3036    5.0097   23.8065 C   0  0  0  0  0  0  0  0  0  0  0  0
    9.3716    6.0657   22.8080 C   0  0  0  0  0  0  0  0  0  0  0  0
   13.6855   -1.3745   22.5837 C   0  0  0  0  0  0  0  0  0  0  0  0
   10.8622    8.0001   25.4601 N   0  0  0  0  0  0  0  0  0  0  0  0
   11.6716    3.7566   23.9384 N   0  0  0  0  0  0  0  0  0  0  0  0
   13.4369    5.1616   23.3553 O   0  0  0  0  0  0  0  0  0  0  0  0
    9.8888    7.6592   24.5286 O   0  0  0  0  0  0  0  0  0  0  0  0
   14.5687   -1.3585   21.5418 F   0  0  0  0  0  0  0  0  0  0  0  0
   14.3523   -1.9875   23.6061 F   0  0  0  0  0  0  0  0  0  0  0  0
   12.7007   -2.2447   22.2152 F   0  0  0  0  0  0  0  0  0  0  0  0
  1  3  2  0
  1  7  1  0
  2  4  1  0
  2  7  2  0
  3  8  1  0
  4  8  2  0
  5  6  1  0
  5 13  2  0
  6  9  2  0
  6 10  1  0
  7 12  1  0
  8 14  1  0
  9 11  1  0
  9 16  1  0
 10 14  1  0
 10 15  2  0
 12 17  1  0
 12 18  1  0
 12 19  1  0
 13 16  1  0
M  END
