JOH-UNI-27ac80fd-30
     RDKit          3D

 19 20  0  0  0  0  0  0  0  0999 V2000
    9.9541   -4.7634   24.7672 C   0  0  0  0  0  0  0  0  0  0  0  0
    9.5120   -5.6096   25.8248 C   0  0  0  0  0  0  0  0  0  0  0  0
    9.2087   -3.6079   24.6831 C   0  0  0  0  0  0  0  0  0  0  0  0
    8.4456   -5.0686   26.5090 C   0  0  0  0  0  0  0  0  0  0  0  0
    6.1407   -2.2780   19.2005 C   0  0  0  0  0  0  0  0  0  0  0  0
    7.0166   -0.9376   21.1734 C   0  0  0  0  0  0  0  0  0  0  0  0
    6.5003   -3.3341   21.4069 C   0  0  0  0  0  0  0  0  0  0  0  0
    8.2969   -1.1620   21.9802 C   0  0  0  0  0  0  0  0  0  0  0  0
    7.7923   -3.5137   22.2032 C   0  0  0  0  0  0  0  0  0  0  0  0
    6.7292   -1.3000   18.2151 C   0  0  0  0  0  0  0  0  0  0  0  0
    9.3548   -2.4657   23.7098 C   0  0  0  0  0  0  0  0  0  0  0  0
    6.5807   -2.1749   20.5194 N   0  0  0  0  0  0  0  0  0  0  0  0
    8.1365   -2.2789   22.9229 N   0  0  0  0  0  0  0  0  0  0  0  0
    5.3187   -3.1099   18.8081 O   0  0  0  0  0  0  0  0  0  0  0  0
    9.6319   -1.2871   24.3405 F   0  0  0  0  0  0  0  0  0  0  0  0
   10.3922   -2.6511   22.8427 F   0  0  0  0  0  0  0  0  0  0  0  0
    7.9817   -3.5466   25.8759 S   0  0  0  0  0  0  0  0  0  0  0  0
    5.6581    0.0964   18.1907 Cl  0  0  0  0  0  0  0  0  0  0  0  0
    7.5806   -5.8990   27.9819 Br  0  0  0  0  0  0  0  0  0  0  0  0
  1  2  1  0
  1  3  2  0
  2  4  2  0
  3 11  1  0
  3 17  1  0
  4 17  1  0
  4 19  1  0
  5 10  1  0
  5 12  1  0
  5 14  2  0
  6  8  1  0
  6 12  1  0
  7  9  1  0
  7 12  1  0
  8 13  1  0
  9 13  1  0
 10 18  1  0
 11 13  1  0
 11 15  1  0
 11 16  1  0
M  END
