JOH-UNI-9dc98897-4
     RDKit          3D

 18 19  0  0  1  0  0  0  0  0999 V2000
    6.3375   -3.6693   21.2604 C   0  0  0  0  0  0  0  0  0  0  0  0
    9.3283   -4.1054   23.4110 C   0  0  0  0  0  0  0  0  0  0  0  0
    8.8654   -1.8155   22.9655 C   0  0  0  0  0  0  0  0  0  0  0  0
    7.4886   -3.4210   22.0682 C   0  0  0  0  0  0  0  0  0  0  0  0
    8.2219   -4.4474   22.6415 C   0  0  0  0  0  0  0  0  0  0  0  0
    9.6630   -2.7667   23.5811 C   0  0  0  0  0  0  0  0  0  0  0  0
   12.9317   -1.4759   23.6296 C   0  0  0  0  0  0  0  0  0  0  0  0
   11.4890   -1.1606   24.0098 C   0  0  0  0  0  0  0  0  0  0  0  0
   11.0293   -3.0324   25.6392 C   0  0  0  0  0  0  0  0  0  0  0  0
   13.8656   -1.6393   24.8283 C   0  0  0  0  0  0  0  0  0  0  0  0
   12.5144   -3.3366   25.8282 C   0  0  0  0  0  0  0  0  0  0  0  0
    7.8631   -5.8831   22.4616 C   0  0  0  0  0  0  0  0  0  0  0  0
    5.4021   -3.8710   20.6039 N   0  0  0  0  0  0  0  0  0  0  0  0
    7.7829   -2.1092   22.2108 N   0  0  0  0  0  0  0  0  0  0  0  0
   10.7681   -2.3939   24.3467 N   0  0  0  0  0  0  0  0  0  0  0  0
   13.2488   -2.1344   26.0107 O   0  0  0  0  0  0  0  0  0  0  0  0
    7.2378   -6.0805   21.2710 F   0  0  0  0  0  0  0  0  0  0  0  0
    6.9937   -6.2886   23.4244 F   0  0  0  0  0  0  0  0  0  0  0  0
  1  4  1  0
  1 13  3  0
  2  5  2  0
  2  6  1  0
  3  6  2  0
  3 14  1  0
  4  5  1  0
  4 14  2  0
  5 12  1  0
  6 15  1  0
  7  8  1  0
  7 10  1  0
  8 15  1  0
  9 11  1  0
  9 15  1  0
 10 16  1  0
 11 16  1  0
 12 17  1  0
 12 18  1  0
M  END
