JOH-UNI-27ac80fd-33
     RDKit          3D

 20 22  0  0  1  0  0  0  0  0999 V2000
    9.7398   -4.5956   25.2397 C   0  0  0  0  0  0  0  0  0  0  0  0
    9.3012   -5.5029   26.2470 C   0  0  0  0  0  0  0  0  0  0  0  0
    8.8518   -3.5588   25.0549 C   0  0  0  0  0  0  0  0  0  0  0  0
    8.0946   -5.1247   26.7940 C   0  0  0  0  0  0  0  0  0  0  0  0
    5.9374   -1.6754   19.4845 C   0  0  0  0  0  0  0  0  0  0  0  0
   10.3253   -2.3885   23.1285 C   0  0  0  0  0  0  0  0  0  0  0  0
    6.3982   -3.1946   21.3820 C   0  0  0  0  0  0  0  0  0  0  0  0
    6.3654   -0.7701   21.8222 C   0  0  0  0  0  0  0  0  0  0  0  0
    7.7217   -3.3316   22.1205 C   0  0  0  0  0  0  0  0  0  0  0  0
    7.6884   -0.8710   22.5694 C   0  0  0  0  0  0  0  0  0  0  0  0
   10.5521   -0.9839   23.6717 C   0  0  0  0  0  0  0  0  0  0  0  0
    9.0551   -2.3866   24.0084 C   0  0  0  0  0  0  0  0  0  0  0  0
    5.7929   -0.2546   19.0004 C   0  0  0  0  0  0  0  0  0  0  0  0
    6.2386   -1.8473   20.8348 N   0  0  0  0  0  0  0  0  0  0  0  0
    7.8118   -2.2513   23.1750 N   0  0  0  0  0  0  0  0  0  0  0  0
    5.7892   -2.6029   18.6846 O   0  0  0  0  0  0  0  0  0  0  0  0
    9.4472   -1.1104   24.5927 O   0  0  0  0  0  0  0  0  0  0  0  0
    7.4958   -3.6815   26.0934 S   0  0  0  0  0  0  0  0  0  0  0  0
    7.3979    0.2765   18.5108 Cl  0  0  0  0  0  0  0  0  0  0  0  0
    7.1913   -6.0779   28.1666 Br  0  0  0  0  0  0  0  0  0  0  0  0
  1  2  1  0
  1  3  2  0
  2  4  2  0
  3 12  1  0
  3 18  1  0
  4 18  1  0
  4 20  1  0
  5 13  1  0
  5 14  1  0
  5 16  2  0
  6 11  1  0
  6 12  1  0
  7  9  1  0
  7 14  1  0
  8 10  1  0
  8 14  1  0
  9 15  1  0
 10 15  1  0
 11 17  1  0
 12 15  1  0
 12 17  1  0
 13 19  1  0
M  CHG  1  15   1
M  END
