JOH-UNI-c7afdb96-2
     RDKit          3D

 22 23  0  0  0  0  0  0  0  0999 V2000
    7.8343   -5.3266   22.1256 C   0  0  0  0  0  0  0  0  0  0  0  0
    9.2419   -3.8598   25.1244 C   0  0  0  0  0  0  0  0  0  0  0  0
    7.0889   -4.8299   25.6351 C   0  0  0  0  0  0  0  0  0  0  0  0
    7.9362    0.0236   19.8714 C   0  0  0  0  0  0  0  0  0  0  0  0
    6.1445   -1.3636   19.0333 C   0  0  0  0  0  0  0  0  0  0  0  0
    7.6847    0.9563   18.8653 C   0  0  0  0  0  0  0  0  0  0  0  0
    5.8930   -0.4309   18.0272 C   0  0  0  0  0  0  0  0  0  0  0  0
    9.7777   -4.4451   26.2715 C   0  0  0  0  0  0  0  0  0  0  0  0
    7.6247   -5.4153   26.7821 C   0  0  0  0  0  0  0  0  0  0  0  0
    7.8974   -4.0521   24.8062 C   0  0  0  0  0  0  0  0  0  0  0  0
    7.1662   -1.1364   19.9554 C   0  0  0  0  0  0  0  0  0  0  0  0
    6.6631    0.7291   17.9432 C   0  0  0  0  0  0  0  0  0  0  0  0
    8.9692   -5.2229   27.1003 C   0  0  0  0  0  0  0  0  0  0  0  0
    7.3078   -4.0246   22.3779 C   0  0  0  0  0  0  0  0  0  0  0  0
    7.3383   -3.4424   23.6097 C   0  0  0  0  0  0  0  0  0  0  0  0
    6.7582   -3.2809   21.1971 C   0  0  0  0  0  0  0  0  0  0  0  0
    8.2612   -6.3854   21.9181 N   0  0  0  0  0  0  0  0  0  0  0  0
    7.4213   -2.0827   20.9757 N   0  0  0  0  0  0  0  0  0  0  0  0
    5.7998   -3.7437   20.5880 O   0  0  0  0  0  0  0  0  0  0  0  0
    6.8170   -2.1745   23.8457 O   0  0  0  0  0  0  0  0  0  0  0  0
    6.4207    1.6253   16.9775 F   0  0  0  0  0  0  0  0  0  0  0  0
    9.6305   -5.9450   28.5152 Cl  0  0  0  0  0  0  0  0  0  0  0  0
  1 14  1  0
  1 17  3  0
  2  8  2  0
  2 10  1  0
  3  9  1  0
  3 10  2  0
  4  6  2  0
  4 11  1  0
  5  7  1  0
  5 11  2  0
  6 12  1  0
  7 12  2  0
  8 13  1  0
  9 13  2  0
 10 15  1  0
 11 18  1  0
 12 21  1  0
 13 22  1  0
 14 15  2  0
 14 16  1  0
 15 20  1  0
 16 18  1  0
 16 19  2  0
M  END
