JOH-UNI-c7afdb96-1
     RDKit          3D

 19 19  0  0  0  0  0  0  0  0999 V2000
    5.8535   -5.0492   25.6933 C   0  0  0  0  0  0  0  0  0  0  0  0
   11.2446   -4.3047   25.3799 C   0  0  0  0  0  0  0  0  0  0  0  0
   10.1346   -2.4081   24.3761 C   0  0  0  0  0  0  0  0  0  0  0  0
   12.4398   -3.5865   25.4154 C   0  0  0  0  0  0  0  0  0  0  0  0
   11.3297   -1.6898   24.4116 C   0  0  0  0  0  0  0  0  0  0  0  0
   10.0920   -3.7155   24.8602 C   0  0  0  0  0  0  0  0  0  0  0  0
   12.4824   -2.2790   24.9313 C   0  0  0  0  0  0  0  0  0  0  0  0
    6.5870   -5.0653   24.4707 C   0  0  0  0  0  0  0  0  0  0  0  0
    6.3325   -5.9119   23.4427 C   0  0  0  0  0  0  0  0  0  0  0  0
    7.6512   -4.0115   24.3449 C   0  0  0  0  0  0  0  0  0  0  0  0
    6.1271   -5.7358   20.9120 C   0  0  0  0  0  0  0  0  0  0  0  0
    7.8059   -7.3361   21.9166 C   0  0  0  0  0  0  0  0  0  0  0  0
    8.1877   -4.8914   22.0064 C   0  0  0  0  0  0  0  0  0  0  0  0
    7.0868   -5.9826   22.0931 C   0  0  0  0  0  0  0  0  0  0  0  0
    5.2717   -5.0128   26.6970 N   0  0  0  0  0  0  0  0  0  0  0  0
    8.8791   -4.4443   24.8246 N   0  0  0  0  0  0  0  0  0  0  0  0
    7.3562   -2.9073   23.9003 O   0  0  0  0  0  0  0  0  0  0  0  0
    5.3164   -6.8608   23.5312 O   0  0  0  0  0  0  0  0  0  0  0  0
   13.9573   -1.3928   24.9752 Cl  0  0  0  0  0  0  0  0  0  0  0  0
  1  8  1  0
  1 15  3  0
  2  4  2  0
  2  6  1  0
  3  5  1  0
  3  6  2  0
  4  7  1  0
  5  7  2  0
  6 16  1  0
  7 19  1  0
  8  9  2  0
  8 10  1  0
  9 14  1  0
  9 18  1  0
 10 16  1  0
 10 17  2  0
 11 14  1  0
 12 14  1  0
 13 14  1  0
M  END
