JOH-UNI-27ac80fd-3
     RDKit          3D

 18 19  0  0  1  0  0  0  0  0999 V2000
    4.7830   -5.8259   23.1171 C   0  0  0  0  0  0  0  0  0  0  0  0
    5.3097   -6.0522   21.9118 C   0  0  0  0  0  0  0  0  0  0  0  0
    6.2701   -5.0764   21.3583 C   0  0  0  0  0  0  0  0  0  0  0  0
   13.6492   -2.5116   24.7519 C   0  0  0  0  0  0  0  0  0  0  0  0
    8.1320   -5.8018   22.9437 C   0  0  0  0  0  0  0  0  0  0  0  0
    8.1548   -3.5786   21.8751 C   0  0  0  0  0  0  0  0  0  0  0  0
    8.6228   -5.1448   24.2366 C   0  0  0  0  0  0  0  0  0  0  0  0
    8.6199   -2.9719   23.1969 C   0  0  0  0  0  0  0  0  0  0  0  0
   12.3496   -3.3108   24.7754 C   0  0  0  0  0  0  0  0  0  0  0  0
   11.2115   -1.3416   25.9229 C   0  0  0  0  0  0  0  0  0  0  0  0
   13.5738   -1.1530   24.0718 C   0  0  0  0  0  0  0  0  0  0  0  0
   11.7594   -0.1025   25.2278 C   0  0  0  0  0  0  0  0  0  0  0  0
    9.9070   -3.3476   25.1990 C   0  0  0  0  0  0  0  0  0  0  0  0
    7.4401   -4.8398   22.0765 N   0  0  0  0  0  0  0  0  0  0  0  0
    9.4193   -3.9432   23.9555 N   0  0  0  0  0  0  0  0  0  0  0  0
   11.1054   -2.4727   24.9240 N   0  0  0  0  0  0  0  0  0  0  0  0
    5.9811   -4.5344   20.2902 O   0  0  0  0  0  0  0  0  0  0  0  0
   13.1615   -0.1543   25.0007 O   0  0  0  0  0  0  0  0  0  0  0  0
  1  2  2  0
  2  3  1  0
  3 14  1  0
  3 17  2  0
  4  9  1  0
  4 11  1  0
  5  7  1  0
  5 14  1  0
  6  8  1  0
  6 14  1  0
  7 15  1  0
  8 15  1  0
  9 16  1  0
 10 12  1  0
 10 16  1  0
 11 18  1  0
 12 18  1  0
 13 15  1  0
 13 16  1  0
M  CHG  1  16   1
M  END
