JOH-UNI-9dc98897-1
     RDKit          3D

 16 17  0  0  1  0  0  0  0  0999 V2000
    6.6702   -4.2211   21.5350 C   0  0  0  0  0  0  0  0  0  0  0  0
    9.3626   -4.5118   24.0590 C   0  0  0  0  0  0  0  0  0  0  0  0
    9.2772   -2.3394   23.0948 C   0  0  0  0  0  0  0  0  0  0  0  0
    7.7681   -3.9241   22.3952 C   0  0  0  0  0  0  0  0  0  0  0  0
    9.8709   -3.2198   23.9848 C   0  0  0  0  0  0  0  0  0  0  0  0
    8.2912   -4.8788   23.2523 C   0  0  0  0  0  0  0  0  0  0  0  0
   12.1400   -0.7075   24.3836 C   0  0  0  0  0  0  0  0  0  0  0  0
   11.0861   -1.4319   25.2197 C   0  0  0  0  0  0  0  0  0  0  0  0
   11.9097   -3.8272   25.2512 C   0  0  0  0  0  0  0  0  0  0  0  0
   13.5745   -1.0829   24.7431 C   0  0  0  0  0  0  0  0  0  0  0  0
   13.2566   -3.2498   25.6740 C   0  0  0  0  0  0  0  0  0  0  0  0
    5.7768   -4.4628   20.8349 N   0  0  0  0  0  0  0  0  0  0  0  0
    8.2352   -2.6594   22.2952 N   0  0  0  0  0  0  0  0  0  0  0  0
   10.9482   -2.8228   24.7840 N   0  0  0  0  0  0  0  0  0  0  0  0
   13.8366   -2.4781   24.6262 O   0  0  0  0  0  0  0  0  0  0  0  0
    7.7905   -6.1193   23.3130 F   0  0  0  0  0  0  0  0  0  0  0  0
  1  4  1  0
  1 12  3  0
  2  5  2  0
  2  6  1  0
  3  5  1  0
  3 13  2  0
  4  6  2  0
  4 13  1  0
  5 14  1  0
  6 16  1  0
  7  8  1  0
  7 10  1  0
  8 14  1  0
  9 11  1  0
  9 14  1  0
 10 15  1  0
 11 15  1  0
M  END
