JOH-UNI-27ac80fd-8
     RDKit          3D

 19 20  0  0  1  0  0  0  0  0999 V2000
    6.0850   -4.6705   22.5497 C   0  0  0  0  0  0  0  0  0  0  0  0
   11.1901   -0.1662   25.0267 C   0  0  0  0  0  0  0  0  0  0  0  0
    7.8993   -4.9552   24.2775 C   0  0  0  0  0  0  0  0  0  0  0  0
    9.4077   -4.7625   24.4379 C   0  0  0  0  0  0  0  0  0  0  0  0
    8.4666   -4.3939   21.9323 C   0  0  0  0  0  0  0  0  0  0  0  0
   10.6449   -1.3680   25.7868 C   0  0  0  0  0  0  0  0  0  0  0  0
   12.7962   -2.6619   26.0570 C   0  0  0  0  0  0  0  0  0  0  0  0
   12.6782    0.0916   25.2253 C   0  0  0  0  0  0  0  0  0  0  0  0
   13.8160   -2.0247   25.1231 C   0  0  0  0  0  0  0  0  0  0  0  0
    9.4997   -3.3614   22.4270 C   0  0  0  0  0  0  0  0  0  0  0  0
    8.9892   -1.9401   22.1649 C   0  0  0  0  0  0  0  0  0  0  0  0
    5.0999   -5.0261   23.6370 C   0  0  0  0  0  0  0  0  0  0  0  0
   11.2228   -3.2044   24.1376 C   0  0  0  0  0  0  0  0  0  0  0  0
    7.4283   -4.6501   22.9255 N   0  0  0  0  0  0  0  0  0  0  0  0
    9.8122   -3.4771   23.8664 N   0  0  0  0  0  0  0  0  0  0  0  0
   11.3883   -2.6534   25.5253 N   0  0  0  0  0  0  0  0  0  0  0  0
    5.6760   -4.4157   21.4150 O   0  0  0  0  0  0  0  0  0  0  0  0
   13.4259   -0.8354   24.4545 O   0  0  0  0  0  0  0  0  0  0  0  0
    4.6601   -3.5181   24.4308 Cl  0  0  0  0  0  0  0  0  0  0  0  0
  1 12  1  0
  1 14  1  0
  1 17  2  0
  2  6  1  0
  2  8  1  0
  3  4  1  0
  3 14  1  0
  4 15  1  0
  5 10  1  0
  5 14  1  0
  6 16  1  0
  7  9  1  0
  7 16  1  0
  8 18  1  0
  9 18  1  0
 10 11  1  0
 10 15  1  0
 12 19  1  0
 13 15  1  0
 13 16  1  0
M  CHG  1  16   1
M  END
