JOH-CHE-3504ac3d-2
     RDKit          3D

 25 27  0  0  0  0  0  0  0  0999 V2000
    9.7694    2.6501   24.7315 C   0  0  0  0  0  0  0  0  0  0  0  0
    9.1177   -0.9744   23.7117 C   0  0  0  0  0  0  0  0  0  0  0  0
   13.0509    2.9451   22.9291 C   0  0  0  0  0  0  0  0  0  0  0  0
   10.9690    2.6065   24.0142 C   0  0  0  0  0  0  0  0  0  0  0  0
    9.5729    0.3924   23.9741 C   0  0  0  0  0  0  0  0  0  0  0  0
   12.0593    3.5336   23.7357 C   0  0  0  0  0  0  0  0  0  0  0  0
   11.5377    1.5291   23.2659 C   0  0  0  0  0  0  0  0  0  0  0  0
   10.8074    0.3374   23.2320 C   0  0  0  0  0  0  0  0  0  0  0  0
    9.0271    1.4656   24.7074 C   0  0  0  0  0  0  0  0  0  0  0  0
    9.9482   -1.7766   22.9168 C   0  0  0  0  0  0  0  0  0  0  0  0
    9.0306   -5.0998   25.8399 C   0  0  0  0  0  0  0  0  0  0  0  0
    9.3438    6.4546   23.2113 C   0  0  0  0  0  0  0  0  0  0  0  0
    8.0602    6.1563   22.5101 C   0  0  0  0  0  0  0  0  0  0  0  0
   12.1215    4.9264   24.2378 C   0  0  0  0  0  0  0  0  0  0  0  0
    9.7050   -3.1841   22.5152 C   0  0  0  0  0  0  0  0  0  0  0  0
    9.7421   -4.2205   24.8822 C   0  0  0  0  0  0  0  0  0  0  0  0
    8.9763   -4.0510   23.5663 C   0  0  0  0  0  0  0  0  0  0  0  0
   11.7856    5.9866   23.1761 C   0  0  0  0  0  0  0  0  0  0  0  0
   12.7240    1.6429   22.6171 N   0  0  0  0  0  0  0  0  0  0  0  0
    8.2398   -4.5292   26.7367 N   0  0  0  0  0  0  0  0  0  0  0  0
   10.4524    5.8340   22.6582 N   0  0  0  0  0  0  0  0  0  0  0  0
    9.2383   -6.4055   25.7481 N   0  0  0  0  0  0  0  0  0  0  0  0
    9.3412    7.1963   24.1868 O   0  0  0  0  0  0  0  0  0  0  0  0
   11.4174   -1.0209   22.3509 S   0  0  0  0  0  0  0  0  0  0  0  0
    7.5386    1.2555   25.4951 Cl  0  0  0  0  0  0  0  0  0  0  0  0
  1  4  2  0
  1  9  1  0
  2  5  1  0
  2 10  2  0
  3  6  2  0
  3 19  1  0
  4  6  1  0
  4  7  1  0
  5  8  1  0
  5  9  2  0
  6 14  1  0
  7  8  2  0
  7 19  1  0
  8 24  1  0
  9 25  1  0
 10 15  1  0
 10 24  1  0
 11 16  1  0
 11 20  1  0
 11 22  2  0
 12 13  1  0
 12 21  1  0
 12 23  2  0
 14 18  1  0
 15 17  1  0
 16 17  1  0
 18 21  1  0
M  CHG  1  22   1
M  END
