JOH-MSK-35a8745a-1
     RDKit          3D

 17 18  0  0  0  0  0  0  0  0999 V2000
   10.7268   -0.2504   23.9310 C   0  0  0  0  0  0  0  0  0  0  0  0
   11.7849   -0.8493   23.2412 C   0  0  0  0  0  0  0  0  0  0  0  0
   12.8509    1.3042   22.8900 C   0  0  0  0  0  0  0  0  0  0  0  0
   10.3060    3.2810   24.6152 C   0  0  0  0  0  0  0  0  0  0  0  0
   11.7950    1.9302   23.5818 C   0  0  0  0  0  0  0  0  0  0  0  0
   11.4955    3.2786   23.9239 C   0  0  0  0  0  0  0  0  0  0  0  0
   10.7594    1.1400   24.0853 C   0  0  0  0  0  0  0  0  0  0  0  0
   12.8316   -0.0859   22.7280 C   0  0  0  0  0  0  0  0  0  0  0  0
    9.2671    6.6294   23.3799 C   0  0  0  0  0  0  0  0  0  0  0  0
    8.1507    6.5924   22.3897 C   0  0  0  0  0  0  0  0  0  0  0  0
   13.7766   -2.1162   21.9276 C   0  0  0  0  0  0  0  0  0  0  0  0
   12.3081    4.4688   23.6014 C   0  0  0  0  0  0  0  0  0  0  0  0
   11.5735    5.8057   23.8097 C   0  0  0  0  0  0  0  0  0  0  0  0
    9.8699    1.9865   24.7078 N   0  0  0  0  0  0  0  0  0  0  0  0
   10.3856    5.9028   23.0044 N   0  0  0  0  0  0  0  0  0  0  0  0
    9.1350    7.2708   24.4157 O   0  0  0  0  0  0  0  0  0  0  0  0
   13.8500   -0.6984   22.0606 O   0  0  0  0  0  0  0  0  0  0  0  0
  1  2  2  0
  1  7  1  0
  2  8  1  0
  3  5  1  0
  3  8  2  0
  4  6  2  0
  4 14  1  0
  5  6  1  0
  5  7  2  0
  6 12  1  0
  7 14  1  0
  8 17  1  0
  9 10  1  0
  9 15  1  0
  9 16  2  0
 11 17  1  0
 12 13  1  0
 13 15  1  0
M  END
