JOH-UNI-27ac80fd-28
     RDKit          3D

 18 19  0  0  1  0  0  0  0  0999 V2000
    9.7444   -4.7714   23.9215 C   0  0  0  0  0  0  0  0  0  0  0  0
    9.2279   -5.6187   24.9440 C   0  0  0  0  0  0  0  0  0  0  0  0
    9.4477   -3.4456   24.1493 C   0  0  0  0  0  0  0  0  0  0  0  0
    8.5562   -4.9082   25.9145 C   0  0  0  0  0  0  0  0  0  0  0  0
    6.3855   -1.6030   19.0043 C   0  0  0  0  0  0  0  0  0  0  0  0
    6.5203   -2.2793   21.3757 C   0  0  0  0  0  0  0  0  0  0  0  0
    7.7831   -0.2897   20.6712 C   0  0  0  0  0  0  0  0  0  0  0  0
    7.7471   -2.8387   22.0737 C   0  0  0  0  0  0  0  0  0  0  0  0
    9.0496   -0.7992   21.3717 C   0  0  0  0  0  0  0  0  0  0  0  0
    9.8716    0.3841   21.8784 C   0  0  0  0  0  0  0  0  0  0  0  0
    9.8083   -2.2513   23.3158 C   0  0  0  0  0  0  0  0  0  0  0  0
    6.8288   -0.6437   17.9285 C   0  0  0  0  0  0  0  0  0  0  0  0
    6.9004   -1.3910   20.2830 N   0  0  0  0  0  0  0  0  0  0  0  0
    8.6411   -1.7031   22.5322 N   0  0  0  0  0  0  0  0  0  0  0  0
    5.6066   -2.5147   18.7139 O   0  0  0  0  0  0  0  0  0  0  0  0
    8.5500   -3.2266   25.5910 S   0  0  0  0  0  0  0  0  0  0  0  0
    5.6513    0.6642   17.9036 Cl  0  0  0  0  0  0  0  0  0  0  0  0
    7.7292   -5.6858   27.4372 Br  0  0  0  0  0  0  0  0  0  0  0  0
  1  2  1  0
  1  3  2  0
  2  4  2  0
  3 11  1  0
  3 16  1  0
  4 16  1  0
  4 18  1  0
  5 12  1  0
  5 13  1  0
  5 15  2  0
  6  8  1  0
  6 13  1  0
  7  9  1  0
  7 13  1  0
  8 14  1  0
  9 10  1  0
  9 14  1  0
 11 14  1  0
 12 17  1  0
M  CHG  1  14   1
M  END
