JOH-UNI-27ac80fd-41
     RDKit          3D

 21 23  0  0  0  0  0  0  0  0999 V2000
    6.2974   -3.0064   20.2041 C   0  0  0  0  0  0  0  0  0  0  0  0
   12.7710    1.3435   23.8569 C   0  0  0  0  0  0  0  0  0  0  0  0
   11.6199    0.5692   24.1817 C   0  0  0  0  0  0  0  0  0  0  0  0
   11.6152   -0.6473   23.5355 C   0  0  0  0  0  0  0  0  0  0  0  0
   13.6026    0.6890   22.9747 C   0  0  0  0  0  0  0  0  0  0  0  0
   10.2394   -2.2795   25.0523 C   0  0  0  0  0  0  0  0  0  0  0  0
   10.9280   -3.1259   24.0259 C   0  0  0  0  0  0  0  0  0  0  0  0
    6.9192   -1.9891   22.3920 C   0  0  0  0  0  0  0  0  0  0  0  0
    8.4378   -1.7577   20.4623 C   0  0  0  0  0  0  0  0  0  0  0  0
    8.1010   -2.2618   23.3085 C   0  0  0  0  0  0  0  0  0  0  0  0
    9.6380   -2.0283   21.3552 C   0  0  0  0  0  0  0  0  0  0  0  0
   10.5085   -1.7135   23.6730 C   0  0  0  0  0  0  0  0  0  0  0  0
   10.5917    4.6871   24.5067 C   0  0  0  0  0  0  0  0  0  0  0  0
   10.5586    1.0366   25.1066 C   0  0  0  0  0  0  0  0  0  0  0  0
   10.6526    2.5305   25.4386 C   0  0  0  0  0  0  0  0  0  0  0  0
    5.4942   -3.4809   19.5147 N   0  0  0  0  0  0  0  0  0  0  0  0
    7.2316   -2.4549   21.0055 N   0  0  0  0  0  0  0  0  0  0  0  0
    9.3244   -1.5673   22.7588 N   0  0  0  0  0  0  0  0  0  0  0  0
   10.5071    3.2926   24.2470 O   0  0  0  0  0  0  0  0  0  0  0  0
   12.9947   -0.8522   22.5418 S   0  0  0  0  0  0  0  0  0  0  0  0
   15.2331    1.3978   22.3073 Br  0  0  0  0  0  0  0  0  0  0  0  0
  1 16  3  0
  1 17  1  0
  2  3  1  0
  2  5  2  0
  3  4  2  0
  3 14  1  0
  4 12  1  0
  4 20  1  0
  5 20  1  0
  5 21  1  0
  6  7  1  0
  6 12  1  0
  7 12  1  0
  8 10  1  0
  8 17  1  0
  9 11  1  0
  9 17  1  0
 10 18  1  0
 11 18  1  0
 12 18  1  0
 13 19  1  0
 14 15  1  0
 15 19  1  0
M  CHG  1  18   1
M  END
