JOH-MEM-5e386bbd-7
     RDKit          3D

 13 14  0  0  0  0  0  0  0  0999 V2000
   12.0472    0.5201   24.4956 C   0  0  0  0  0  0  0  0  0  0  0  0
   12.7045    0.2279   23.2971 C   0  0  0  0  0  0  0  0  0  0  0  0
   11.2663   -1.6898   22.9086 C   0  0  0  0  0  0  0  0  0  0  0  0
    9.2771   -1.3036   25.9507 C   0  0  0  0  0  0  0  0  0  0  0  0
   10.5888   -1.4151   24.1131 C   0  0  0  0  0  0  0  0  0  0  0  0
    9.5046   -2.0268   24.8025 C   0  0  0  0  0  0  0  0  0  0  0  0
   10.9941   -0.3187   24.8773 C   0  0  0  0  0  0  0  0  0  0  0  0
   12.3217   -0.8594   22.5142 C   0  0  0  0  0  0  0  0  0  0  0  0
    8.7813   -4.3751   25.3602 C   0  0  0  0  0  0  0  0  0  0  0  0
    8.7511   -3.2217   24.3723 C   0  0  0  0  0  0  0  0  0  0  0  0
   10.1802   -0.2752   25.9868 N   0  0  0  0  0  0  0  0  0  0  0  0
    7.7904   -4.8138   25.9348 O   0  0  0  0  0  0  0  0  0  0  0  0
   12.9812   -1.1186   21.3499 O   0  0  0  0  0  0  0  0  0  0  0  0
  1  2  2  0
  1  7  1  0
  2  8  1  0
  3  5  1  0
  3  8  2  0
  4  6  2  0
  4 11  1  0
  5  6  1  0
  5  7  2  0
  6 10  1  0
  7 11  1  0
  8 13  1  0
  9 10  1  0
  9 12  2  0
M  END
