JOH-UNI-522b0723-12
     RDKit          3D

 24 26  0  0  1  0  0  0  0  0999 V2000
    6.2217   -4.0734   23.4340 C   0  0  0  0  0  0  0  0  0  0  0  0
    4.9068    0.5562   17.3761 C   0  0  0  0  0  0  0  0  0  0  0  0
    4.3167   -0.3991   18.2036 C   0  0  0  0  0  0  0  0  0  0  0  0
    6.2042    0.9979   17.6357 C   0  0  0  0  0  0  0  0  0  0  0  0
    5.0239   -0.9127   19.2907 C   0  0  0  0  0  0  0  0  0  0  0  0
    6.9114    0.4843   18.7228 C   0  0  0  0  0  0  0  0  0  0  0  0
    9.0049   -1.8087   22.4879 C   0  0  0  0  0  0  0  0  0  0  0  0
    9.3876   -2.8866   24.5731 C   0  0  0  0  0  0  0  0  0  0  0  0
    7.4461   -3.3376   23.4307 C   0  0  0  0  0  0  0  0  0  0  0  0
    7.7915   -2.4815   22.3974 C   0  0  0  0  0  0  0  0  0  0  0  0
    9.8241   -2.0096   23.5933 C   0  0  0  0  0  0  0  0  0  0  0  0
    6.3213   -0.4710   19.5503 C   0  0  0  0  0  0  0  0  0  0  0  0
    6.9372   -2.2649   21.2379 C   0  0  0  0  0  0  0  0  0  0  0  0
   11.9743   -1.6561   22.6075 C   0  0  0  0  0  0  0  0  0  0  0  0
   13.3745   -1.1563   22.9238 C   0  0  0  0  0  0  0  0  0  0  0  0
   12.5824    0.4437   24.4365 C   0  0  0  0  0  0  0  0  0  0  0  0
   11.1133    0.0329   24.2463 C   0  0  0  0  0  0  0  0  0  0  0  0
   10.4090    0.1596   25.6011 C   0  0  0  0  0  0  0  0  0  0  0  0
    5.2270   -4.6713   23.4368 N   0  0  0  0  0  0  0  0  0  0  0  0
    8.2155   -3.5581   24.5202 N   0  0  0  0  0  0  0  0  0  0  0  0
   11.0547   -1.3437   23.7129 N   0  0  0  0  0  0  0  0  0  0  0  0
    7.0399   -0.9932   20.6552 N   0  0  0  0  0  0  0  0  0  0  0  0
    6.1589   -3.1380   20.8327 O   0  0  0  0  0  0  0  0  0  0  0  0
   13.3372    0.2303   23.2468 O   0  0  0  0  0  0  0  0  0  0  0  0
  1  9  1  0
  1 19  3  0
  2  3  2  0
  2  4  1  0
  3  5  1  0
  4  6  2  0
  5 12  2  0
  6 12  1  0
  7 10  2  0
  7 11  1  0
  8 11  2  0
  8 20  1  0
  9 10  1  0
  9 20  2  0
 10 13  1  0
 11 21  1  0
 12 22  1  0
 13 22  1  0
 13 23  2  0
 14 15  1  0
 14 21  1  0
 15 24  1  0
 16 17  1  0
 16 24  1  0
 17 18  1  0
 17 21  1  0
M  END
