JOH-UNI-522b0723-7
     RDKit          3D

 25 27  0  0  1  0  0  0  0  0999 V2000
    6.7942   -4.0612   23.6663 C   0  0  0  0  0  0  0  0  0  0  0  0
    4.9286    0.2564   17.5231 C   0  0  0  0  0  0  0  0  0  0  0  0
    4.8092   -1.0474   18.0041 C   0  0  0  0  0  0  0  0  0  0  0  0
    5.8249    1.1415   18.1223 C   0  0  0  0  0  0  0  0  0  0  0  0
    5.5860   -1.4661   19.0844 C   0  0  0  0  0  0  0  0  0  0  0  0
    6.6016    0.7229   19.2026 C   0  0  0  0  0  0  0  0  0  0  0  0
    9.3466   -1.5967   22.5793 C   0  0  0  0  0  0  0  0  0  0  0  0
    9.8747   -2.5752   24.6817 C   0  0  0  0  0  0  0  0  0  0  0  0
    7.9502   -3.2240   23.6078 C   0  0  0  0  0  0  0  0  0  0  0  0
    8.1936   -2.3729   22.5419 C   0  0  0  0  0  0  0  0  0  0  0  0
   10.2085   -1.6938   23.6660 C   0  0  0  0  0  0  0  0  0  0  0  0
    6.4822   -0.5809   19.6837 C   0  0  0  0  0  0  0  0  0  0  0  0
    7.2940   -2.2646   21.4018 C   0  0  0  0  0  0  0  0  0  0  0  0
   11.9039   -0.5180   25.0331 C   0  0  0  0  0  0  0  0  0  0  0  0
   12.4447    0.9084   25.0159 C   0  0  0  0  0  0  0  0  0  0  0  0
   12.2323   -0.7691   22.5343 C   0  0  0  0  0  0  0  0  0  0  0  0
   13.3333    0.2978   22.7372 C   0  0  0  0  0  0  0  0  0  0  0  0
   12.8034   -2.1187   22.0889 C   0  0  0  0  0  0  0  0  0  0  0  0
   14.6904   -0.1686   23.2595 C   0  0  0  0  0  0  0  0  0  0  0  0
    5.8551   -4.7413   23.7139 N   0  0  0  0  0  0  0  0  0  0  0  0
    8.7638   -3.3456   24.6806 N   0  0  0  0  0  0  0  0  0  0  0  0
   11.3747   -0.9255   23.7318 N   0  0  0  0  0  0  0  0  0  0  0  0
    7.2716   -1.0067   20.7816 N   0  0  0  0  0  0  0  0  0  0  0  0
   12.7845    1.3600   23.6378 N   0  0  0  0  0  0  0  0  0  0  0  0
    6.5834   -3.2126   21.0431 O   0  0  0  0  0  0  0  0  0  0  0  0
  1  9  1  0
  1 20  3  0
  2  3  2  0
  2  4  1  0
  3  5  1  0
  4  6  2  0
  5 12  2  0
  6 12  1  0
  7 10  2  0
  7 11  1  0
  8 11  2  0
  8 21  1  0
  9 10  1  0
  9 21  2  0
 10 13  1  0
 11 22  1  0
 12 23  1  0
 13 23  1  0
 13 25  2  0
 14 15  1  0
 14 22  1  0
 15 24  1  0
 16 17  1  0
 16 18  1  0
 16 22  1  0
 17 19  1  0
 17 24  1  0
M  CHG  1  24   1
M  END
