JOH-UNI-c7afdb96-6
     RDKit          3D

 20 21  0  0  0  0  0  0  0  0999 V2000
    7.7886   -4.0181   22.2303 C   0  0  0  0  0  0  0  0  0  0  0  0
   13.7014   -1.2861   22.3295 C   0  0  0  0  0  0  0  0  0  0  0  0
   13.6765   -0.1595   23.1515 C   0  0  0  0  0  0  0  0  0  0  0  0
   12.5094   -1.9203   21.9792 C   0  0  0  0  0  0  0  0  0  0  0  0
   11.2678   -0.3013   23.2730 C   0  0  0  0  0  0  0  0  0  0  0  0
   12.4598    0.3329   23.6233 C   0  0  0  0  0  0  0  0  0  0  0  0
   11.2926   -1.4279   22.4510 C   0  0  0  0  0  0  0  0  0  0  0  0
    7.7506   -2.6324   21.8879 C   0  0  0  0  0  0  0  0  0  0  0  0
    6.7992   -2.1214   21.0795 C   0  0  0  0  0  0  0  0  0  0  0  0
    8.7924   -1.7051   22.4583 C   0  0  0  0  0  0  0  0  0  0  0  0
    6.0996   -0.5487   18.3296 C   0  0  0  0  0  0  0  0  0  0  0  0
    7.4102    0.1967   18.5071 C   0  0  0  0  0  0  0  0  0  0  0  0
    5.4951   -0.5173   19.7265 C   0  0  0  0  0  0  0  0  0  0  0  0
    7.9266   -0.2735   19.8633 C   0  0  0  0  0  0  0  0  0  0  0  0
    6.6871   -0.6650   20.6671 C   0  0  0  0  0  0  0  0  0  0  0  0
   12.4337    1.5374   24.5021 C   0  0  0  0  0  0  0  0  0  0  0  0
    7.8277   -5.1427   22.5141 N   0  0  0  0  0  0  0  0  0  0  0  0
   10.0822   -2.0718   22.0944 N   0  0  0  0  0  0  0  0  0  0  0  0
    8.4602   -0.7545   23.1592 O   0  0  0  0  0  0  0  0  0  0  0  0
    5.7960   -2.9267   20.5621 O   0  0  0  0  0  0  0  0  0  0  0  0
  1  8  1  0
  1 17  3  0
  2  3  2  0
  2  4  1  0
  3  6  1  0
  4  7  2  0
  5  6  2  0
  5  7  1  0
  6 16  1  0
  7 18  1  0
  8  9  2  0
  8 10  1  0
  9 15  1  0
  9 20  1  0
 10 18  1  0
 10 19  2  0
 11 12  1  0
 11 13  1  0
 12 14  1  0
 13 15  1  0
 14 15  1  0
M  END
