JOH-UNI-27ac80fd-39
     RDKit          3D

 21 22  0  0  0  0  0  0  0  0999 V2000
    8.8179   -3.3268   26.9225 C   0  0  0  0  0  0  0  0  0  0  0  0
    9.2064   -2.6758   25.7160 C   0  0  0  0  0  0  0  0  0  0  0  0
    9.1746   -3.5285   24.6346 C   0  0  0  0  0  0  0  0  0  0  0  0
    8.5038   -4.6523   26.7171 C   0  0  0  0  0  0  0  0  0  0  0  0
    6.0645   -1.7240   19.1343 C   0  0  0  0  0  0  0  0  0  0  0  0
    6.1798   -2.4418   21.4992 C   0  0  0  0  0  0  0  0  0  0  0  0
    7.8862   -0.8612   20.6851 C   0  0  0  0  0  0  0  0  0  0  0  0
    7.2580   -3.3187   22.1189 C   0  0  0  0  0  0  0  0  0  0  0  0
    8.9908   -1.7140   21.2946 C   0  0  0  0  0  0  0  0  0  0  0  0
    6.4091    0.3068   24.5931 C   0  0  0  0  0  0  0  0  0  0  0  0
    9.5973   -1.2476   25.6456 C   0  0  0  0  0  0  0  0  0  0  0  0
    9.5077   -3.2431   23.1998 C   0  0  0  0  0  0  0  0  0  0  0  0
    6.1731   -0.4939   18.2691 C   0  0  0  0  0  0  0  0  0  0  0  0
    8.4044   -0.2846   25.6848 C   0  0  0  0  0  0  0  0  0  0  0  0
    6.7088   -1.6772   20.3698 N   0  0  0  0  0  0  0  0  0  0  0  0
    8.4412   -2.4544   22.4933 N   0  0  0  0  0  0  0  0  0  0  0  0
    5.4280   -2.6970   18.7218 O   0  0  0  0  0  0  0  0  0  0  0  0
    7.5298   -0.5667   24.5997 O   0  0  0  0  0  0  0  0  0  0  0  0
    8.6779   -5.1069   25.0753 S   0  0  0  0  0  0  0  0  0  0  0  0
    5.4309    0.8231   19.1704 Cl  0  0  0  0  0  0  0  0  0  0  0  0
    7.9424   -5.8479   28.0821 Br  0  0  0  0  0  0  0  0  0  0  0  0
  1  2  1  0
  1  4  2  0
  2  3  2  0
  2 11  1  0
  3 12  1  0
  3 19  1  0
  4 19  1  0
  4 21  1  0
  5 13  1  0
  5 15  1  0
  5 17  2  0
  6  8  1  0
  6 15  1  0
  7  9  1  0
  7 15  1  0
  8 16  1  0
  9 16  1  0
 10 18  1  0
 11 14  1  0
 12 16  1  0
 13 20  1  0
 14 18  1  0
M  CHG  1  16   1
M  END
