JOH-PRI-13a2d501-1
     RDKit          3D

 27 29  0  0  1  0  0  0  0  0999 V2000
    9.2105   -2.5493   22.3647 C   0  0  0  0  0  0  0  0  0  0  0  0
    9.4536   -2.1437   23.6557 C   0  0  0  0  0  0  0  0  0  0  0  0
    8.5519   -1.4582   21.7722 C   0  0  0  0  0  0  0  0  0  0  0  0
    7.7602   -5.3254   26.6587 C   0  0  0  0  0  0  0  0  0  0  0  0
    6.0396   -2.8735   20.8163 C   0  0  0  0  0  0  0  0  0  0  0  0
    6.3056   -6.7325   29.1414 C   0  0  0  0  0  0  0  0  0  0  0  0
    9.6135   -3.8813   21.8552 C   0  0  0  0  0  0  0  0  0  0  0  0
   10.7211   -4.4951   22.7298 C   0  0  0  0  0  0  0  0  0  0  0  0
    9.3066   -5.2616   24.7063 C   0  0  0  0  0  0  0  0  0  0  0  0
   10.1590   -2.9280   24.6943 C   0  0  0  0  0  0  0  0  0  0  0  0
    9.0994   -4.9020   26.1619 C   0  0  0  0  0  0  0  0  0  0  0  0
    9.0621    0.0227   24.8830 C   0  0  0  0  0  0  0  0  0  0  0  0
    5.2602   -3.9637   22.9052 C   0  0  0  0  0  0  0  0  0  0  0  0
    8.0489   -1.3460   20.3925 C   0  0  0  0  0  0  0  0  0  0  0  0
    6.5229   -1.5321   20.2943 C   0  0  0  0  0  0  0  0  0  0  0  0
    4.9946   -7.3349   29.5762 C   0  0  0  0  0  0  0  0  0  0  0  0
    8.4011   -0.4311   22.6168 N   0  0  0  0  0  0  0  0  0  0  0  0
    8.9723   -0.8735   23.7538 N   0  0  0  0  0  0  0  0  0  0  0  0
    7.7910   -6.5460   27.3014 N   0  0  0  0  0  0  0  0  0  0  0  0
    5.7392   -2.8172   22.1695 N   0  0  0  0  0  0  0  0  0  0  0  0
    6.6297   -7.0453   27.8360 N   0  0  0  0  0  0  0  0  0  0  0  0
   10.4178   -4.3651   24.2175 N   0  0  0  0  0  0  0  0  0  0  0  0
    6.7665   -4.6169   26.5115 O   0  0  0  0  0  0  0  0  0  0  0  0
    5.9358   -3.8736   20.1112 O   0  0  0  0  0  0  0  0  0  0  0  0
    6.9777   -6.0284   29.8930 O   0  0  0  0  0  0  0  0  0  0  0  0
    9.1970   -3.0992   26.2219 S   0  0  0  0  0  0  0  0  0  0  0  0
    3.7108   -6.1760   29.1979 Cl  0  0  0  0  0  0  0  0  0  0  0  0
  1  2  2  0
  1  3  1  0
  1  7  1  0
  2 10  1  0
  2 18  1  0
  3 14  1  0
  3 17  2  0
  4 11  1  0
  4 19  1  0
  4 23  2  0
  5 15  1  0
  5 20  1  0
  5 24  2  0
  6 16  1  0
  6 21  1  0
  6 25  2  0
  7  8  1  0
  8 22  1  0
  9 11  1  0
  9 22  1  0
 10 22  1  0
 10 26  1  0
 11 26  1  0
 12 18  1  0
 13 20  1  0
 14 15  1  0
 16 27  1  0
 17 18  1  0
 19 21  1  0
M  CHG  1  22   1
M  END
