JOH-UNI-522b0723-9
     RDKit          3D

 25 27  0  0  1  0  0  0  0  0999 V2000
    7.0583   -5.8538   22.0861 C   0  0  0  0  0  0  0  0  0  0  0  0
    6.0517    0.5578   17.8107 C   0  0  0  0  0  0  0  0  0  0  0  0
    5.6258   -0.7632   17.9486 C   0  0  0  0  0  0  0  0  0  0  0  0
    7.0708    1.0507   18.6257 C   0  0  0  0  0  0  0  0  0  0  0  0
    6.2189   -1.5914   18.9015 C   0  0  0  0  0  0  0  0  0  0  0  0
    7.6639    0.2226   19.5787 C   0  0  0  0  0  0  0  0  0  0  0  0
    9.1336   -2.9106   22.9811 C   0  0  0  0  0  0  0  0  0  0  0  0
    9.7864   -4.8683   24.1634 C   0  0  0  0  0  0  0  0  0  0  0  0
    8.0402   -5.0005   22.6764 C   0  0  0  0  0  0  0  0  0  0  0  0
    8.1456   -3.6581   22.3499 C   0  0  0  0  0  0  0  0  0  0  0  0
    9.9739   -3.5197   23.9064 C   0  0  0  0  0  0  0  0  0  0  0  0
    7.2379   -1.0985   19.7166 C   0  0  0  0  0  0  0  0  0  0  0  0
    7.2675   -3.0133   21.3834 C   0  0  0  0  0  0  0  0  0  0  0  0
   11.3905   -3.1784   25.9085 C   0  0  0  0  0  0  0  0  0  0  0  0
   12.0028   -2.1535   23.7252 C   0  0  0  0  0  0  0  0  0  0  0  0
   11.9828   -1.9865   26.6475 C   0  0  0  0  0  0  0  0  0  0  0  0
   12.6233   -0.9463   24.4337 C   0  0  0  0  0  0  0  0  0  0  0  0
   11.6727    0.2496   24.5017 C   0  0  0  0  0  0  0  0  0  0  0  0
   14.3670   -2.0950   25.8551 C   0  0  0  0  0  0  0  0  0  0  0  0
    6.2606   -6.5469   21.6065 N   0  0  0  0  0  0  0  0  0  0  0  0
    8.8378   -5.6271   23.5701 N   0  0  0  0  0  0  0  0  0  0  0  0
   10.9763   -2.7933   24.5579 N   0  0  0  0  0  0  0  0  0  0  0  0
    7.8407   -1.9404   20.6849 N   0  0  0  0  0  0  0  0  0  0  0  0
   13.0697   -1.3267   25.8352 N   0  0  0  0  0  0  0  0  0  0  0  0
    6.0943   -3.3765   21.2287 O   0  0  0  0  0  0  0  0  0  0  0  0
  1  9  1  0
  1 20  3  0
  2  3  2  0
  2  4  1  0
  3  5  1  0
  4  6  2  0
  5 12  2  0
  6 12  1  0
  7 10  2  0
  7 11  1  0
  8 11  2  0
  8 21  1  0
  9 10  1  0
  9 21  2  0
 10 13  1  0
 11 22  1  0
 12 23  1  0
 13 23  1  0
 13 25  2  0
 14 16  1  0
 14 22  1  0
 15 17  1  0
 15 22  1  0
 16 24  1  0
 17 18  1  0
 17 24  1  0
 19 24  1  0
M  CHG  1  24   1
M  END
