JOH-MSK-1fa17de7-1
     RDKit          3D

 15 16  0  0  0  0  0  0  0  0999 V2000
   13.4474   -2.3525   25.7755 C   0  0  0  0  0  0  0  0  0  0  0  0
   11.8141   -1.3957   24.2337 C   0  0  0  0  0  0  0  0  0  0  0  0
   10.6587   -1.4890   23.4525 C   0  0  0  0  0  0  0  0  0  0  0  0
   11.5639   -3.6925   24.9815 C   0  0  0  0  0  0  0  0  0  0  0  0
    9.4645   -4.8591   23.9639 C   0  0  0  0  0  0  0  0  0  0  0  0
   12.2616   -2.4791   24.9871 C   0  0  0  0  0  0  0  0  0  0  0  0
   10.3963   -3.8103   24.2016 C   0  0  0  0  0  0  0  0  0  0  0  0
    9.9715   -2.7080   23.4566 C   0  0  0  0  0  0  0  0  0  0  0  0
    8.5097   -4.3822   23.0956 C   0  0  0  0  0  0  0  0  0  0  0  0
   14.4100   -2.2499   26.4156 N   0  0  0  0  0  0  0  0  0  0  0  0
    8.8241   -3.0840   22.7952 N   0  0  0  0  0  0  0  0  0  0  0  0
    6.4801   -3.8604   21.4484 N   0  0  0  0  0  0  0  0  0  0  0  0
    7.5376   -6.2104   21.5189 O   0  0  0  0  0  0  0  0  0  0  0  0
    6.1515   -5.4231   23.4700 O   0  0  0  0  0  0  0  0  0  0  0  0
    7.0806   -5.1470   22.3919 S   0  0  0  0  0  0  0  0  0  0  0  0
  1  6  1  0
  1 10  3  0
  2  3  2  0
  2  6  1  0
  3  8  1  0
  4  6  2  0
  4  7  1  0
  5  7  1  0
  5  9  2  0
  7  8  2  0
  8 11  1  0
  9 11  1  0
  9 15  1  0
 12 15  1  0
 13 15  2  0
 14 15  2  0
M  END
