JOH-UNI-27ac80fd-32
     RDKit          3D

 19 21  0  0  0  0  0  0  0  0999 V2000
   11.3832   -1.9117   22.8973 C   0  0  0  0  0  0  0  0  0  0  0  0
   12.2119   -0.7739   22.6766 C   0  0  0  0  0  0  0  0  0  0  0  0
   10.3206   -1.6250   23.7258 C   0  0  0  0  0  0  0  0  0  0  0  0
   11.7510    0.3393   23.3446 C   0  0  0  0  0  0  0  0  0  0  0  0
    5.9752   -1.9414   19.7361 C   0  0  0  0  0  0  0  0  0  0  0  0
    9.0897   -2.9375   25.6285 C   0  0  0  0  0  0  0  0  0  0  0  0
    9.7198   -3.9640   24.7378 C   0  0  0  0  0  0  0  0  0  0  0  0
    6.8549   -3.6165   21.3302 C   0  0  0  0  0  0  0  0  0  0  0  0
    6.1887   -1.4151   22.2151 C   0  0  0  0  0  0  0  0  0  0  0  0
    8.1800   -3.5375   22.0741 C   0  0  0  0  0  0  0  0  0  0  0  0
    7.5039   -1.3037   22.9744 C   0  0  0  0  0  0  0  0  0  0  0  0
    9.2480   -2.6500   24.1495 C   0  0  0  0  0  0  0  0  0  0  0  0
    6.1254   -0.4916   19.3497 C   0  0  0  0  0  0  0  0  0  0  0  0
    6.3346   -2.2804   21.0398 N   0  0  0  0  0  0  0  0  0  0  0  0
    7.9991   -2.6916   23.3147 N   0  0  0  0  0  0  0  0  0  0  0  0
    5.5535   -2.7470   18.9024 O   0  0  0  0  0  0  0  0  0  0  0  0
   10.3249    0.0104   24.2337 S   0  0  0  0  0  0  0  0  0  0  0  0
    7.2846   -0.4404   18.0262 Cl  0  0  0  0  0  0  0  0  0  0  0  0
   12.5843    2.0456   23.2924 Br  0  0  0  0  0  0  0  0  0  0  0  0
  1  2  1  0
  1  3  2  0
  2  4  2  0
  3 12  1  0
  3 17  1  0
  4 17  1  0
  4 19  1  0
  5 13  1  0
  5 14  1  0
  5 16  2  0
  6  7  1  0
  6 12  1  0
  7 12  1  0
  8 10  1  0
  8 14  1  0
  9 11  1  0
  9 14  1  0
 10 15  1  0
 11 15  1  0
 12 15  1  0
 13 18  1  0
M  CHG  1  15   1
M  END
