JOH-UNI-27ac80fd-21
     RDKit          3D

 18 19  0  0  1  0  0  0  0  0999 V2000
    6.0896   -3.2025   19.8991 C   0  0  0  0  0  0  0  0  0  0  0  0
    6.8250   -2.9407   22.2643 C   0  0  0  0  0  0  0  0  0  0  0  0
    7.9707   -1.6798   20.4883 C   0  0  0  0  0  0  0  0  0  0  0  0
    8.1750   -3.1687   22.9410 C   0  0  0  0  0  0  0  0  0  0  0  0
    9.2989   -1.9316   21.1989 C   0  0  0  0  0  0  0  0  0  0  0  0
   11.9037   -0.6496   22.2376 C   0  0  0  0  0  0  0  0  0  0  0  0
   13.3759   -0.5085   22.6003 C   0  0  0  0  0  0  0  0  0  0  0  0
   13.1090    0.8803   24.5468 C   0  0  0  0  0  0  0  0  0  0  0  0
   11.7095    1.4659   24.4601 C   0  0  0  0  0  0  0  0  0  0  0  0
   10.3783   -2.2714   23.3269 C   0  0  0  0  0  0  0  0  0  0  0  0
    5.2934   -3.5571   19.1337 N   0  0  0  0  0  0  0  0  0  0  0  0
    7.0156   -2.7902   20.7890 N   0  0  0  0  0  0  0  0  0  0  0  0
    9.0995   -2.0649   22.6484 N   0  0  0  0  0  0  0  0  0  0  0  0
   11.1547   -1.0148   23.4719 N   0  0  0  0  0  0  0  0  0  0  0  0
    9.3370    0.8112   23.5577 O   0  0  0  0  0  0  0  0  0  0  0  0
   10.1419   -0.2328   25.7013 O   0  0  0  0  0  0  0  0  0  0  0  0
   13.6709    0.7288   23.2428 O   0  0  0  0  0  0  0  0  0  0  0  0
   10.4073    0.2430   24.3561 S   0  0  0  0  0  0  0  0  0  0  0  0
  1 11  3  0
  1 12  1  0
  2  4  1  0
  2 12  1  0
  3  5  1  0
  3 12  1  0
  4 13  1  0
  5 13  1  0
  6  7  1  0
  6 14  1  0
  7 17  1  0
  8  9  1  0
  8 17  1  0
  9 18  1  0
 10 13  1  0
 10 14  1  0
 14 18  1  0
 15 18  2  0
 16 18  2  0
M  END
