JOH-UNI-27ac80fd-35
     RDKit          3D

 20 21  0  0  1  0  0  0  0  0999 V2000
   10.1196   -4.6339   24.9165 C   0  0  0  0  0  0  0  0  0  0  0  0
    9.6651   -5.4734   25.9742 C   0  0  0  0  0  0  0  0  0  0  0  0
    9.4499   -3.4305   24.8868 C   0  0  0  0  0  0  0  0  0  0  0  0
    8.6654   -4.8794   26.7129 C   0  0  0  0  0  0  0  0  0  0  0  0
    6.2684   -1.6703   19.5523 C   0  0  0  0  0  0  0  0  0  0  0  0
    6.6835   -2.9736   21.6884 C   0  0  0  0  0  0  0  0  0  0  0  0
    8.0018   -3.1852   22.4287 C   0  0  0  0  0  0  0  0  0  0  0  0
    7.1946   -0.5711   21.5626 C   0  0  0  0  0  0  0  0  0  0  0  0
    8.5185   -0.8147   22.3121 C   0  0  0  0  0  0  0  0  0  0  0  0
    8.8757    0.4659   23.0795 C   0  0  0  0  0  0  0  0  0  0  0  0
    6.4126   -0.3265   18.8831 C   0  0  0  0  0  0  0  0  0  0  0  0
    9.6323   -2.2782   23.9316 C   0  0  0  0  0  0  0  0  0  0  0  0
    6.7334   -1.7676   20.8636 N   0  0  0  0  0  0  0  0  0  0  0  0
    8.3959   -1.9933   23.1985 N   0  0  0  0  0  0  0  0  0  0  0  0
    5.7545   -2.6026   18.9287 O   0  0  0  0  0  0  0  0  0  0  0  0
   10.0123   -1.1352   24.5739 F   0  0  0  0  0  0  0  0  0  0  0  0
   10.6194   -2.5113   23.0185 F   0  0  0  0  0  0  0  0  0  0  0  0
    8.2786   -3.3162   26.1307 S   0  0  0  0  0  0  0  0  0  0  0  0
    5.7843   -0.5078   17.2491 Cl  0  0  0  0  0  0  0  0  0  0  0  0
    7.8070   -5.6850   28.2034 Br  0  0  0  0  0  0  0  0  0  0  0  0
  1  2  1  0
  1  3  2  0
  2  4  2  0
  3 12  1  0
  3 18  1  0
  4 18  1  0
  4 20  1  0
  5 11  1  0
  5 13  1  0
  5 15  2  0
  6  7  1  0
  6 13  1  0
  7 14  1  0
  8  9  1  0
  8 13  1  0
  9 10  1  0
  9 14  1  0
 11 19  1  0
 12 14  1  0
 12 16  1  0
 12 17  1  0
M  END
