JOH-UNI-27ac80fd-20
     RDKit          3D

 19 20  0  0  1  0  0  0  0  0999 V2000
    6.9119   -5.0828   21.8625 C   0  0  0  0  0  0  0  0  0  0  0  0
   13.4694   -2.7176   24.5136 C   0  0  0  0  0  0  0  0  0  0  0  0
   12.6718   -1.6991   23.6966 C   0  0  0  0  0  0  0  0  0  0  0  0
    9.0434   -5.1949   23.2411 C   0  0  0  0  0  0  0  0  0  0  0  0
    8.5680   -3.2478   21.8103 C   0  0  0  0  0  0  0  0  0  0  0  0
    9.5154   -4.2396   24.3387 C   0  0  0  0  0  0  0  0  0  0  0  0
    9.0429   -2.3304   22.9365 C   0  0  0  0  0  0  0  0  0  0  0  0
   11.7693   -0.0408   25.2414 C   0  0  0  0  0  0  0  0  0  0  0  0
   13.8384   -2.3359   25.9443 C   0  0  0  0  0  0  0  0  0  0  0  0
   12.5509   -0.4212   26.4949 C   0  0  0  0  0  0  0  0  0  0  0  0
    6.5762   -6.4724   22.3422 C   0  0  0  0  0  0  0  0  0  0  0  0
   10.5339   -2.1080   24.8173 C   0  0  0  0  0  0  0  0  0  0  0  0
    8.1035   -4.5321   22.3323 N   0  0  0  0  0  0  0  0  0  0  0  0
   11.4737   -1.1225   24.3027 N   0  0  0  0  0  0  0  0  0  0  0  0
   10.0582   -3.0011   23.7616 N   0  0  0  0  0  0  0  0  0  0  0  0
    6.1365   -4.5043   21.0972 O   0  0  0  0  0  0  0  0  0  0  0  0
   13.8432   -0.9346   26.1812 O   0  0  0  0  0  0  0  0  0  0  0  0
    9.4778   -1.4742   25.3880 F   0  0  0  0  0  0  0  0  0  0  0  0
   11.1288   -2.8371   25.7956 F   0  0  0  0  0  0  0  0  0  0  0  0
  1 11  1  0
  1 13  1  0
  1 16  2  0
  2  3  1  0
  2  9  1  0
  3 14  1  0
  4  6  1  0
  4 13  1  0
  5  7  1  0
  5 13  1  0
  6 15  1  0
  7 15  1  0
  8 10  1  0
  8 14  1  0
  9 17  1  0
 10 17  1  0
 12 14  1  0
 12 15  1  0
 12 18  1  0
 12 19  1  0
M  END
