JOH-UNI-522b0723-2
     RDKit          3D

 16 17  0  0  1  0  0  0  0  0999 V2000
    6.7362   -4.1175   21.7569 C   0  0  0  0  0  0  0  0  0  0  0  0
    8.5351   -4.6922   23.3175 C   0  0  0  0  0  0  0  0  0  0  0  0
    9.7173   -4.3097   23.9416 C   0  0  0  0  0  0  0  0  0  0  0  0
    9.6061   -2.2428   22.7702 C   0  0  0  0  0  0  0  0  0  0  0  0
    7.9492   -3.7987   22.4353 C   0  0  0  0  0  0  0  0  0  0  0  0
   10.2695   -3.0633   23.6682 C   0  0  0  0  0  0  0  0  0  0  0  0
   11.7956   -3.1420   25.6205 C   0  0  0  0  0  0  0  0  0  0  0  0
   13.3032   -3.0961   25.8357 C   0  0  0  0  0  0  0  0  0  0  0  0
   12.1020   -1.3917   23.8489 C   0  0  0  0  0  0  0  0  0  0  0  0
   13.6133   -1.4875   24.1486 C   0  0  0  0  0  0  0  0  0  0  0  0
   11.4160   -0.2069   24.5440 C   0  0  0  0  0  0  0  0  0  0  0  0
   14.3747   -0.2010   23.8497 C   0  0  0  0  0  0  0  0  0  0  0  0
    5.7489   -4.3769   21.2049 N   0  0  0  0  0  0  0  0  0  0  0  0
    8.4560   -2.5796   22.1445 N   0  0  0  0  0  0  0  0  0  0  0  0
   11.4576   -2.6516   24.2795 N   0  0  0  0  0  0  0  0  0  0  0  0
   13.8279   -1.8080   25.5264 O   0  0  0  0  0  0  0  0  0  0  0  0
  1  5  1  0
  1 13  3  0
  2  3  2  0
  2  5  1  0
  3  6  1  0
  4  6  2  0
  4 14  1  0
  5 14  2  0
  6 15  1  0
  7  8  1  0
  7 15  1  0
  8 16  1  0
  9 10  1  0
  9 11  1  0
  9 15  1  0
 10 12  1  0
 10 16  1  0
M  END
