JON-UIO-066ce08b-8
     RDKit          3D

 22 23  0  0  1  0  0  0  0  0999 V2000
   12.4308   -0.6468   22.7187 C   0  0  0  0  0  0  0  0  0  0  0  0
   10.0112    0.5929   25.9474 C   0  0  0  0  0  0  0  0  0  0  0  0
    9.9127   -0.7146   25.4719 C   0  0  0  0  0  0  0  0  0  0  0  0
   10.9060    1.4846   25.3558 C   0  0  0  0  0  0  0  0  0  0  0  0
   11.6038   -0.2390   23.8133 C   0  0  0  0  0  0  0  0  0  0  0  0
   10.7090   -1.1306   24.4049 C   0  0  0  0  0  0  0  0  0  0  0  0
   11.7023    1.0687   24.2888 C   0  0  0  0  0  0  0  0  0  0  0  0
    9.1546   -3.0234   24.1045 C   0  0  0  0  0  0  0  0  0  0  0  0
    5.9824   -2.9446   19.4369 C   0  0  0  0  0  0  0  0  0  0  0  0
    8.6829   -2.1236   21.7934 C   0  0  0  0  0  0  0  0  0  0  0  0
    6.8847   -3.2045   23.1408 C   0  0  0  0  0  0  0  0  0  0  0  0
    7.4878   -1.6902   20.9514 C   0  0  0  0  0  0  0  0  0  0  0  0
    6.3603   -3.7406   21.8128 C   0  0  0  0  0  0  0  0  0  0  0  0
   10.5740   -2.5445   23.9195 C   0  0  0  0  0  0  0  0  0  0  0  0
   13.1013   -0.9775   21.8311 N   0  0  0  0  0  0  0  0  0  0  0  0
    8.2837   -2.7881   23.0397 N   0  0  0  0  0  0  0  0  0  0  0  0
    6.5821   -2.8114   20.6968 N   0  0  0  0  0  0  0  0  0  0  0  0
    5.7459   -1.7617   18.7638 N   0  0  0  0  0  0  0  0  0  0  0  0
    8.8307   -3.5805   25.1558 O   0  0  0  0  0  0  0  0  0  0  0  0
    5.6685   -4.0278   18.9362 O   0  0  0  0  0  0  0  0  0  0  0  0
   12.5581    1.9388   23.7326 F   0  0  0  0  0  0  0  0  0  0  0  0
   11.4194   -3.4088   24.5415 F   0  0  0  0  0  0  0  0  0  0  0  0
  1  5  1  0
  1 15  3  0
  2  3  2  0
  2  4  1  0
  3  6  1  0
  4  7  2  0
  5  6  2  0
  5  7  1  0
  6 14  1  0
  7 21  1  0
  8 14  1  0
  8 16  1  0
  8 19  2  0
  9 17  1  0
  9 18  1  0
  9 20  2  0
 10 12  1  0
 10 16  1  0
 11 13  1  0
 11 16  1  0
 12 17  1  0
 13 17  1  0
 14 22  1  0
M  END
