JON-UIO-066ce08b-13
     RDKit          3D

 19 19  0  0  1  0  0  0  0  0999 V2000
    9.6784   -1.6637   23.0736 C   0  0  0  0  0  0  0  0  0  0  0  0
    9.5026   -2.4401   25.3546 C   0  0  0  0  0  0  0  0  0  0  0  0
    8.2461   -3.5352   23.6056 C   0  0  0  0  0  0  0  0  0  0  0  0
   10.0386   -1.5575   24.4169 C   0  0  0  0  0  0  0  0  0  0  0  0
    8.7820   -2.6526   22.6679 C   0  0  0  0  0  0  0  0  0  0  0  0
    8.6064   -3.4290   24.9490 C   0  0  0  0  0  0  0  0  0  0  0  0
    9.4986    1.4621   24.5263 C   0  0  0  0  0  0  0  0  0  0  0  0
    8.8796    2.6270   25.2250 C   0  0  0  0  0  0  0  0  0  0  0  0
   12.9080   -1.3181   23.3697 C   0  0  0  0  0  0  0  0  0  0  0  0
   11.0127   -0.4821   24.8582 C   0  0  0  0  0  0  0  0  0  0  0  0
   12.0279   -0.1396   23.7566 C   0  0  0  0  0  0  0  0  0  0  0  0
    6.5277   -3.6840   26.5979 N   0  0  0  0  0  0  0  0  0  0  0  0
   10.3160    0.6931   25.3319 N   0  0  0  0  0  0  0  0  0  0  0  0
    9.2544    1.2690   23.3411 O   0  0  0  0  0  0  0  0  0  0  0  0
    7.5343   -5.7509   25.4317 O   0  0  0  0  0  0  0  0  0  0  0  0
    8.8394   -4.6089   27.2594 O   0  0  0  0  0  0  0  0  0  0  0  0
    8.4358   -2.7538   21.3779 F   0  0  0  0  0  0  0  0  0  0  0  0
   12.8445    0.8639   24.1852 F   0  0  0  0  0  0  0  0  0  0  0  0
    7.9326   -4.5323   26.1224 S   0  0  0  0  0  0  0  0  0  0  0  0
  1  4  2  0
  1  5  1  0
  2  4  1  0
  2  6  2  0
  3  5  2  0
  3  6  1  0
  4 10  1  0
  5 17  1  0
  6 19  1  0
  7  8  1  0
  7 13  1  0
  7 14  2  0
  9 11  1  0
 10 11  1  0
 10 13  1  0
 11 18  1  0
 12 19  1  0
 15 19  2  0
 16 19  2  0
M  END
