JON-MED-9b53ef5c-1
     RDKit          3D

 52 57  0  0  1  0  0  0  0  0999 V2000
    9.8082    6.5828   25.2997 C   0  0  0  0  0  0  0  0  0  0  0  0
    9.7215    6.4949   23.9103 C   0  0  0  0  0  0  0  0  0  0  0  0
    9.9805    5.4275   26.0622 C   0  0  0  0  0  0  0  0  0  0  0  0
    9.8070    5.2519   23.2834 C   0  0  0  0  0  0  0  0  0  0  0  0
   10.0660    4.1844   25.4352 C   0  0  0  0  0  0  0  0  0  0  0  0
    4.5650    1.0624   20.5912 C   0  0  0  0  0  0  0  0  0  0  0  0
    7.5517   -0.0918   18.6096 C   0  0  0  0  0  0  0  0  0  0  0  0
    6.0952    1.2095   17.3398 C   0  0  0  0  0  0  0  0  0  0  0  0
    3.6486    1.8392   19.9198 C   0  0  0  0  0  0  0  0  0  0  0  0
    5.6056    0.7337   19.6783 C   0  0  0  0  0  0  0  0  0  0  0  0
    6.7891   -0.0127   19.7674 C   0  0  0  0  0  0  0  0  0  0  0  0
    9.9792    4.0965   24.0458 C   0  0  0  0  0  0  0  0  0  0  0  0
    5.2825    1.3319   18.4592 C   0  0  0  0  0  0  0  0  0  0  0  0
    7.0191    1.7987   25.0326 C   0  0  0  0  0  0  0  0  0  0  0  0
    6.2493   -1.7586   21.5111 C   0  0  0  0  0  0  0  0  0  0  0  0
    5.7549   -2.9510   24.9404 C   0  0  0  0  0  0  0  0  0  0  0  0
    5.5255   -0.8177   27.2043 C   0  0  0  0  0  0  0  0  0  0  0  0
    8.7174    0.9868   22.1416 C   0  0  0  0  0  0  0  0  0  0  0  0
    4.7433   -7.1435   29.0118 C   0  0  0  0  0  0  0  0  0  0  0  0
    6.8215    1.1192   26.3667 C   0  0  0  0  0  0  0  0  0  0  0  0
   13.4905    0.1527   24.1848 C   0  0  0  0  0  0  0  0  0  0  0  0
   12.1049   -0.4813   24.1102 C   0  0  0  0  0  0  0  0  0  0  0  0
   13.4447    1.5241   24.8512 C   0  0  0  0  0  0  0  0  0  0  0  0
    5.5221   -5.8105   23.5917 C   0  0  0  0  0  0  0  0  0  0  0  0
    5.4612   -5.4506   22.1334 C   0  0  0  0  0  0  0  0  0  0  0  0
   11.0995    0.4411   23.4246 C   0  0  0  0  0  0  0  0  0  0  0  0
   12.4415    2.4499   24.1670 C   0  0  0  0  0  0  0  0  0  0  0  0
    7.2544   -0.7107   21.0304 C   0  0  0  0  0  0  0  0  0  0  0  0
    5.6762   -3.2239   23.4478 C   0  0  0  0  0  0  0  0  0  0  0  0
    4.4711   -1.8495   26.8013 C   0  0  0  0  0  0  0  0  0  0  0  0
    8.7055    2.0869   23.2033 C   0  0  0  0  0  0  0  0  0  0  0  0
    6.2137   -4.5805   23.0915 C   0  0  0  0  0  0  0  0  0  0  0  0
   11.0442    1.8191   24.0979 C   0  0  0  0  0  0  0  0  0  0  0  0
    4.4137   -3.0361   27.7549 C   0  0  0  0  0  0  0  0  0  0  0  0
    3.3260   -4.0299   27.3428 C   0  0  0  0  0  0  0  0  0  0  0  0
    3.2845   -5.2586   28.2452 C   0  0  0  0  0  0  0  0  0  0  0  0
   10.0723    2.7401   23.3626 C   0  0  0  0  0  0  0  0  0  0  0  0
    7.2371    0.4886   17.4289 N   0  0  0  0  0  0  0  0  0  0  0  0
    4.0908    1.9961   18.6332 N   0  0  0  0  0  0  0  0  0  0  0  0
    5.8308    0.0816   26.1937 N   0  0  0  0  0  0  0  0  0  0  0  0
    7.5370    0.2570   22.0870 N   0  0  0  0  0  0  0  0  0  0  0  0
    6.4707   -2.1786   22.8154 N   0  0  0  0  0  0  0  0  0  0  0  0
    8.2626    1.5395   24.4781 N   0  0  0  0  0  0  0  0  0  0  0  0
    4.6499   -2.2543   25.4116 N   0  0  0  0  0  0  0  0  0  0  0  0
    5.9715   -7.7958   28.9827 N   0  0  0  0  0  0  0  0  0  0  0  0
    4.5305   -5.9738   28.2551 N   0  0  0  0  0  0  0  0  0  0  0  0
    3.7196   -7.6598   29.7993 N   0  0  0  0  0  0  0  0  0  0  0  0
    6.1259    2.4572   24.5035 O   0  0  0  0  0  0  0  0  0  0  0  0
    5.4280   -2.2768   20.7541 O   0  0  0  0  0  0  0  0  0  0  0  0
    6.7419   -3.2492   25.6105 O   0  0  0  0  0  0  0  0  0  0  0  0
    5.9511   -0.7316   28.3556 O   0  0  0  0  0  0  0  0  0  0  0  0
    9.6296    0.8799   21.3219 O   0  0  0  0  0  0  0  0  0  0  0  0
  1  2  2  0
  1  3  1  0
  2  4  1  0
  3  5  2  0
  4 12  2  0
  5 12  1  0
  6  9  2  0
  6 10  1  0
  7 11  1  0
  7 38  2  0
  8 13  2  0
  8 38  1  0
  9 39  1  0
 10 11  2  0
 10 13  1  0
 11 28  1  0
 12 37  1  0
 13 39  1  0
 14 20  1  0
 14 43  1  0
 14 48  2  0
 15 28  1  0
 15 42  1  0
 15 49  2  0
 16 29  1  0
 16 44  1  0
 16 50  2  0
 17 30  1  0
 17 40  1  0
 17 51  2  0
 18 31  1  0
 18 41  1  0
 18 52  2  0
 19 45  1  0
 19 46  1  0
 19 47  2  0
 20 40  1  0
 21 22  1  0
 21 23  1  0
 22 26  1  0
 23 27  1  0
 24 25  1  0
 24 32  1  0
 25 32  1  0
 26 33  1  0
 27 33  1  0
 28 41  1  0
 29 32  1  0
 29 42  1  0
 30 34  1  0
 30 44  1  0
 31 37  1  0
 31 43  1  0
 33 37  1  0
 34 35  1  0
 35 36  1  0
 36 46  1  0
M  CHG  1  47   1
M  END
