JON-UIO-066ce08b-12
     RDKit          3D

 25 27  0  0  1  0  0  0  0  0999 V2000
   11.6764   -0.1838   25.3750 C   0  0  0  0  0  0  0  0  0  0  0  0
    7.1187   -6.8598   22.2161 C   0  0  0  0  0  0  0  0  0  0  0  0
    7.2078   -5.5503   21.7441 C   0  0  0  0  0  0  0  0  0  0  0  0
    6.6316   -7.1069   23.4997 C   0  0  0  0  0  0  0  0  0  0  0  0
    6.3229   -4.7349   23.8392 C   0  0  0  0  0  0  0  0  0  0  0  0
    6.8100   -4.4878   22.5556 C   0  0  0  0  0  0  0  0  0  0  0  0
    6.2338   -6.0444   24.3112 C   0  0  0  0  0  0  0  0  0  0  0  0
   14.4008   -1.9255   26.4753 C   0  0  0  0  0  0  0  0  0  0  0  0
   14.1813   -1.3319   25.2928 C   0  0  0  0  0  0  0  0  0  0  0  0
   12.7019   -3.1376   25.5365 C   0  0  0  0  0  0  0  0  0  0  0  0
   13.4908   -3.0247   26.6092 C   0  0  0  0  0  0  0  0  0  0  0  0
   10.6558   -2.5597   22.5992 C   0  0  0  0  0  0  0  0  0  0  0  0
    9.3734   -1.0574   24.1625 C   0  0  0  0  0  0  0  0  0  0  0  0
    9.3745   -3.3224   22.2914 C   0  0  0  0  0  0  0  0  0  0  0  0
    8.0987   -1.8281   23.8468 C   0  0  0  0  0  0  0  0  0  0  0  0
   13.0669   -2.0460   24.5599 C   0  0  0  0  0  0  0  0  0  0  0  0
   10.6217   -1.9322   23.9976 C   0  0  0  0  0  0  0  0  0  0  0  0
    6.7920   -2.9853   20.5185 C   0  0  0  0  0  0  0  0  0  0  0  0
   11.8896   -1.1222   24.2592 C   0  0  0  0  0  0  0  0  0  0  0  0
    6.9070   -3.0695   22.0431 C   0  0  0  0  0  0  0  0  0  0  0  0
   11.5090    0.5575   26.2520 N   0  0  0  0  0  0  0  0  0  0  0  0
    8.1901   -2.4008   22.4533 N   0  0  0  0  0  0  0  0  0  0  0  0
    5.5486   -3.5246   20.0830 O   0  0  0  0  0  0  0  0  0  0  0  0
    5.7664   -6.2815   25.5439 F   0  0  0  0  0  0  0  0  0  0  0  0
   13.4604   -3.8245   27.6840 F   0  0  0  0  0  0  0  0  0  0  0  0
  1 19  1  0
  1 21  3  0
  2  3  2  0
  2  4  1  0
  3  6  1  0
  4  7  2  0
  5  6  2  0
  5  7  1  0
  6 20  1  0
  7 24  1  0
  8  9  2  0
  8 11  1  0
  9 16  1  0
 10 11  2  0
 10 16  1  0
 11 25  1  0
 12 14  1  0
 12 17  1  0
 13 15  1  0
 13 17  1  0
 14 22  1  0
 15 22  1  0
 16 19  1  0
 17 19  1  0
 18 20  1  0
 18 23  1  0
 20 22  1  0
M  CHG  1  22   1
M  END
