JON-UIO-cc955e79-2
     RDKit          3D

 24 26  0  0  1  0  0  0  0  0999 V2000
   13.2572   -1.0706   22.0765 C   0  0  0  0  0  0  0  0  0  0  0  0
    7.6141    2.3191   22.0051 C   0  0  0  0  0  0  0  0  0  0  0  0
   14.1362   -0.1401   22.4618 C   0  0  0  0  0  0  0  0  0  0  0  0
    8.2360    2.7208   23.1190 C   0  0  0  0  0  0  0  0  0  0  0  0
   12.4721    1.5121   22.8583 C   0  0  0  0  0  0  0  0  0  0  0  0
   11.8078   -0.7296   21.9318 C   0  0  0  0  0  0  0  0  0  0  0  0
    7.6645    0.8947   21.5458 C   0  0  0  0  0  0  0  0  0  0  0  0
    8.9953    1.7636   23.9838 C   0  0  0  0  0  0  0  0  0  0  0  0
    9.2976   -1.0653   25.6891 C   0  0  0  0  0  0  0  0  0  0  0  0
    8.2574   -2.1624   25.5153 C   0  0  0  0  0  0  0  0  0  0  0  0
    9.6996   -1.9943   23.5477 C   0  0  0  0  0  0  0  0  0  0  0  0
   11.3987    0.4716   22.8000 C   0  0  0  0  0  0  0  0  0  0  0  0
    9.6794   -0.6455   24.2668 C   0  0  0  0  0  0  0  0  0  0  0  0
    8.6313    0.3030   23.6616 C   0  0  0  0  0  0  0  0  0  0  0  0
   12.3318    5.1606   23.3798 C   0  0  0  0  0  0  0  0  0  0  0  0
    8.6661   -4.2250   24.1073 C   0  0  0  0  0  0  0  0  0  0  0  0
   11.0521    0.0285   24.2263 C   0  0  0  0  0  0  0  0  0  0  0  0
   13.0294    3.8654   23.1385 C   0  0  0  0  0  0  0  0  0  0  0  0
   13.7500    1.1495   22.7492 N   0  0  0  0  0  0  0  0  0  0  0  0
   12.0800    2.7632   23.0627 N   0  0  0  0  0  0  0  0  0  0  0  0
    8.5181   -2.7376   24.1364 N   0  0  0  0  0  0  0  0  0  0  0  0
    8.6435    0.1131   22.2403 O   0  0  0  0  0  0  0  0  0  0  0  0
    7.3595    0.0018   24.2415 O   0  0  0  0  0  0  0  0  0  0  0  0
    8.1577    4.0188   23.4847 F   0  0  0  0  0  0  0  0  0  0  0  0
  1  3  2  0
  1  6  1  0
  2  4  2  0
  2  7  1  0
  3 19  1  0
  4  8  1  0
  4 24  1  0
  5 12  1  0
  5 19  2  0
  5 20  1  0
  6 12  1  0
  7 22  1  0
  8 14  1  0
  9 10  1  0
  9 13  1  0
 10 21  1  0
 11 13  1  0
 11 21  1  0
 12 17  1  0
 13 14  1  0
 13 17  1  0
 14 22  1  0
 14 23  1  0
 15 18  1  0
 16 21  1  0
 18 20  1  0
M  CHG  2  19   1  21   1
M  END
