JON-UIO-066ce08b-14
     RDKit          3D

 15 15  0  0  1  0  0  0  0  0999 V2000
   13.5437   -1.4248   21.3321 C   0  0  0  0  0  0  0  0  0  0  0  0
   12.3020   -0.8333   21.5640 C   0  0  0  0  0  0  0  0  0  0  0  0
   14.3746   -1.7461   22.4055 C   0  0  0  0  0  0  0  0  0  0  0  0
   12.7221   -0.8841   23.9427 C   0  0  0  0  0  0  0  0  0  0  0  0
   11.8912   -0.5629   22.8693 C   0  0  0  0  0  0  0  0  0  0  0  0
   13.9638   -1.4757   23.7108 C   0  0  0  0  0  0  0  0  0  0  0  0
    9.5237    0.5791   20.9136 C   0  0  0  0  0  0  0  0  0  0  0  0
    9.9440   -0.3265   24.4646 C   0  0  0  0  0  0  0  0  0  0  0  0
   10.5633    0.0696   23.1160 C   0  0  0  0  0  0  0  0  0  0  0  0
    8.4977    0.0470   19.9525 C   0  0  0  0  0  0  0  0  0  0  0  0
    9.6200   -0.2043   22.0451 N   0  0  0  0  0  0  0  0  0  0  0  0
   10.1941    1.5768   20.6631 O   0  0  0  0  0  0  0  0  0  0  0  0
   14.7617   -1.7838   24.7416 F   0  0  0  0  0  0  0  0  0  0  0  0
    9.0582   -0.2855   18.7601 F   0  0  0  0  0  0  0  0  0  0  0  0
    7.5391    0.9712   19.6810 F   0  0  0  0  0  0  0  0  0  0  0  0
  1  2  2  0
  1  3  1  0
  2  5  1  0
  3  6  2  0
  4  5  2  0
  4  6  1  0
  5  9  1  0
  6 13  1  0
  7 10  1  0
  7 11  1  0
  7 12  2  0
  8  9  1  0
  9 11  1  0
 10 14  1  0
 10 15  1  0
M  END
