JON-UIO-066ce08b-7
     RDKit          3D

 22 23  0  0  1  0  0  0  0  0999 V2000
    9.6834    3.4402   24.3598 C   0  0  0  0  0  0  0  0  0  0  0  0
   10.8141    2.7543   23.9165 C   0  0  0  0  0  0  0  0  0  0  0  0
   10.7524   -1.9685   22.0600 C   0  0  0  0  0  0  0  0  0  0  0  0
    9.6671    4.8350   24.3546 C   0  0  0  0  0  0  0  0  0  0  0  0
    9.5840   -2.3124   22.7398 C   0  0  0  0  0  0  0  0  0  0  0  0
   11.6627   -1.0379   24.0953 C   0  0  0  0  0  0  0  0  0  0  0  0
   11.9124    4.8579   23.4630 C   0  0  0  0  0  0  0  0  0  0  0  0
   11.7918   -1.3313   22.7378 C   0  0  0  0  0  0  0  0  0  0  0  0
   11.9286    3.4631   23.4682 C   0  0  0  0  0  0  0  0  0  0  0  0
   10.7816    5.5438   23.9062 C   0  0  0  0  0  0  0  0  0  0  0  0
    9.4549   -2.0190   24.0973 C   0  0  0  0  0  0  0  0  0  0  0  0
   10.4942   -1.3817   24.7751 C   0  0  0  0  0  0  0  0  0  0  0  0
   13.6806    0.3198   22.5707 C   0  0  0  0  0  0  0  0  0  0  0  0
   14.0682   -2.1127   22.0113 C   0  0  0  0  0  0  0  0  0  0  0  0
   13.9320    3.4940   21.9261 C   0  0  0  0  0  0  0  0  0  0  0  0
   13.0641   -0.9574   21.9993 C   0  0  0  0  0  0  0  0  0  0  0  0
   13.1549    2.7176   22.9874 C   0  0  0  0  0  0  0  0  0  0  0  0
   12.8117    1.4002   22.5039 N   0  0  0  0  0  0  0  0  0  0  0  0
   14.8168    0.3581   23.0383 O   0  0  0  0  0  0  0  0  0  0  0  0
   10.7663    6.8832   23.9016 F   0  0  0  0  0  0  0  0  0  0  0  0
    8.3323   -2.3485   24.7494 F   0  0  0  0  0  0  0  0  0  0  0  0
   10.3709   -1.1010   26.0789 F   0  0  0  0  0  0  0  0  0  0  0  0
  1  2  2  0
  1  4  1  0
  2  9  1  0
  3  5  2  0
  3  8  1  0
  4 10  2  0
  5 11  1  0
  6  8  2  0
  6 12  1  0
  7  9  2  0
  7 10  1  0
  8 16  1  0
  9 17  1  0
 10 20  1  0
 11 12  2  0
 11 21  1  0
 12 22  1  0
 13 16  1  0
 13 18  1  0
 13 19  2  0
 14 16  1  0
 15 17  1  0
 17 18  1  0
M  END
