JON-UIO-066ce08b-4
     RDKit          3D

 20 21  0  0  1  0  0  0  0  0999 V2000
   11.8638    1.7635   24.5547 C   0  0  0  0  0  0  0  0  0  0  0  0
   12.6246    1.2023   23.5351 C   0  0  0  0  0  0  0  0  0  0  0  0
   10.8434    0.9997   25.0982 C   0  0  0  0  0  0  0  0  0  0  0  0
   12.3456   -0.0873   23.0963 C   0  0  0  0  0  0  0  0  0  0  0  0
   11.3038   -0.7682   23.7051 C   0  0  0  0  0  0  0  0  0  0  0  0
    6.0860   -1.3707   18.9666 C   0  0  0  0  0  0  0  0  0  0  0  0
    9.4631   -2.3904   23.4458 C   0  0  0  0  0  0  0  0  0  0  0  0
    7.0607   -2.8881   20.6493 C   0  0  0  0  0  0  0  0  0  0  0  0
    7.7631   -0.4949   20.6455 C   0  0  0  0  0  0  0  0  0  0  0  0
    7.4215   -2.8117   22.1270 C   0  0  0  0  0  0  0  0  0  0  0  0
    8.9975   -1.0372   21.3602 C   0  0  0  0  0  0  0  0  0  0  0  0
    5.4783    0.0034   18.8286 C   0  0  0  0  0  0  0  0  0  0  0  0
   10.9461   -2.1637   23.2838 C   0  0  0  0  0  0  0  0  0  0  0  0
   10.5427   -0.2561   24.6982 N   0  0  0  0  0  0  0  0  0  0  0  0
    6.9494   -1.5591   20.0465 N   0  0  0  0  0  0  0  0  0  0  0  0
    8.6657   -2.0726   22.3456 N   0  0  0  0  0  0  0  0  0  0  0  0
    5.8081   -2.2460   18.1433 O   0  0  0  0  0  0  0  0  0  0  0  0
    9.0262   -2.8303   24.5119 O   0  0  0  0  0  0  0  0  0  0  0  0
   11.6202   -3.1223   23.9733 F   0  0  0  0  0  0  0  0  0  0  0  0
   13.2882   -0.7787   21.8343 Cl  0  0  0  0  0  0  0  0  0  0  0  0
  1  2  2  0
  1  3  1  0
  2  4  1  0
  3 14  2  0
  4  5  2  0
  4 20  1  0
  5 13  1  0
  5 14  1  0
  6 12  1  0
  6 15  1  0
  6 17  2  0
  7 13  1  0
  7 16  1  0
  7 18  2  0
  8 10  1  0
  8 15  1  0
  9 11  1  0
  9 15  1  0
 10 16  1  0
 11 16  1  0
 13 19  1  0
M  END
