JON-UIO-f971c856-1
     RDKit          3D

 24 25  0  0  1  0  0  0  0  0999 V2000
   14.7612   -0.7020   22.4560 C   0  0  0  0  0  0  0  0  0  0  0  0
   12.6378   -2.0081   22.0737 C   0  0  0  0  0  0  0  0  0  0  0  0
   14.0163    0.3302   22.8960 C   0  0  0  0  0  0  0  0  0  0  0  0
   11.9461   -0.9211   22.5070 C   0  0  0  0  0  0  0  0  0  0  0  0
   11.1032    6.2119   25.1806 C   0  0  0  0  0  0  0  0  0  0  0  0
    9.8381   -1.4927   23.6794 C   0  0  0  0  0  0  0  0  0  0  0  0
    9.0234   -0.8287   24.5009 C   0  0  0  0  0  0  0  0  0  0  0  0
   14.1520   -2.0035   22.0403 C   0  0  0  0  0  0  0  0  0  0  0  0
   10.2526    5.0362   24.7718 C   0  0  0  0  0  0  0  0  0  0  0  0
   12.3700    6.3147   24.3672 C   0  0  0  0  0  0  0  0  0  0  0  0
   11.2546    4.2297   23.9614 C   0  0  0  0  0  0  0  0  0  0  0  0
   12.1427    5.2643   23.2810 C   0  0  0  0  0  0  0  0  0  0  0  0
   12.0359   -3.3043   21.5977 C   0  0  0  0  0  0  0  0  0  0  0  0
   14.7158    1.6108   23.2751 C   0  0  0  0  0  0  0  0  0  0  0  0
   14.0713    5.5061   21.9750 C   0  0  0  0  0  0  0  0  0  0  0  0
   11.8331    1.3732   23.5317 C   0  0  0  0  0  0  0  0  0  0  0  0
   11.3852    2.2891   22.4083 C   0  0  0  0  0  0  0  0  0  0  0  0
   10.4330   -0.8883   22.4532 C   0  0  0  0  0  0  0  0  0  0  0  0
   12.6081    0.2444   22.9909 N   0  0  0  0  0  0  0  0  0  0  0  0
   10.5611    3.3927   22.9601 N   0  0  0  0  0  0  0  0  0  0  0  0
   10.7945    7.0026   26.0631 O   0  0  0  0  0  0  0  0  0  0  0  0
   10.0058   -1.6379   21.3268 O   0  0  0  0  0  0  0  0  0  0  0  0
   13.3677    4.6741   22.8844 O   0  0  0  0  0  0  0  0  0  0  0  0
    8.4894   -1.4125   25.5893 F   0  0  0  0  0  0  0  0  0  0  0  0
  1  3  2  0
  1  8  1  0
  2  4  2  0
  2  8  1  0
  2 13  1  0
  3 14  1  0
  3 19  1  0
  4 18  1  0
  4 19  1  0
  5  9  1  0
  5 10  1  0
  5 21  2  0
  6  7  2  0
  6 18  1  0
  7 24  1  0
  9 11  1  0
 10 12  1  0
 11 12  1  0
 11 20  1  0
 12 23  1  0
 15 23  1  0
 16 17  1  0
 16 19  1  0
 17 20  1  0
 18 22  1  0
M  CHG  1  20   1
M  END
