JON-UIO-066ce08b-6
     RDKit          3D

 25 26  0  0  1  0  0  0  0  0999 V2000
   12.5392   -0.9795   22.4171 C   0  0  0  0  0  0  0  0  0  0  0  0
   10.2566    0.5521   26.0349 C   0  0  0  0  0  0  0  0  0  0  0  0
   10.4319   -0.1593   24.8480 C   0  0  0  0  0  0  0  0  0  0  0  0
   10.6764    1.8795   26.1209 C   0  0  0  0  0  0  0  0  0  0  0  0
   11.0270    0.4567   23.7471 C   0  0  0  0  0  0  0  0  0  0  0  0
   11.2716    2.4955   25.0201 C   0  0  0  0  0  0  0  0  0  0  0  0
   11.4469    1.7841   23.8331 C   0  0  0  0  0  0  0  0  0  0  0  0
    6.2863   -1.2114   18.8466 C   0  0  0  0  0  0  0  0  0  0  0  0
    7.6300   -1.9493   22.1490 C   0  0  0  0  0  0  0  0  0  0  0  0
    8.4598    0.2705   21.2914 C   0  0  0  0  0  0  0  0  0  0  0  0
    7.5138   -2.4376   20.7053 C   0  0  0  0  0  0  0  0  0  0  0  0
    8.3296   -0.2611   19.8654 C   0  0  0  0  0  0  0  0  0  0  0  0
    8.6875   -0.8473   22.3213 C   0  0  0  0  0  0  0  0  0  0  0  0
    5.8122    0.1794   18.5077 C   0  0  0  0  0  0  0  0  0  0  0  0
   11.2029   -0.3478   22.4709 C   0  0  0  0  0  0  0  0  0  0  0  0
   10.1097   -1.4081   22.2460 C   0  0  0  0  0  0  0  0  0  0  0  0
   13.5876   -1.4750   22.3710 N   0  0  0  0  0  0  0  0  0  0  0  0
    7.3124   -1.3110   19.7862 N   0  0  0  0  0  0  0  0  0  0  0  0
   10.8284    3.2397   21.6875 N   0  0  0  0  0  0  0  0  0  0  0  0
    5.7607   -2.1789   18.2900 O   0  0  0  0  0  0  0  0  0  0  0  0
   13.0208    3.6702   22.9735 O   0  0  0  0  0  0  0  0  0  0  0  0
   12.7848    1.5654   21.6090 O   0  0  0  0  0  0  0  0  0  0  0  0
   11.6722    3.7711   25.1160 F   0  0  0  0  0  0  0  0  0  0  0  0
   10.2168   -2.3974   23.1737 F   0  0  0  0  0  0  0  0  0  0  0  0
   12.1977    2.5822   22.4682 S   0  0  0  0  0  0  0  0  0  0  0  0
  1 15  1  0
  1 17  3  0
  2  3  2  0
  2  4  1  0
  3  5  1  0
  4  6  2  0
  5  7  2  0
  5 15  1  0
  6  7  1  0
  6 23  1  0
  7 25  1  0
  8 14  1  0
  8 18  1  0
  8 20  2  0
  9 11  1  0
  9 13  1  0
 10 12  1  0
 10 13  1  0
 11 18  1  0
 12 18  1  0
 13 16  1  0
 15 16  1  0
 16 24  1  0
 19 25  1  0
 21 25  2  0
 22 25  2  0
M  END
