JON-MED-9b53ef5c-2
     RDKit          3D

 53 58  0  0  1  0  0  0  0  0999 V2000
   12.0656    5.6652   25.2473 C   0  0  0  0  0  0  0  0  0  0  0  0
   12.0962    5.6451   23.8529 C   0  0  0  0  0  0  0  0  0  0  0  0
   11.7764    4.4987   25.9555 C   0  0  0  0  0  0  0  0  0  0  0  0
   11.8376    4.4586   23.1667 C   0  0  0  0  0  0  0  0  0  0  0  0
   11.5178    3.3122   25.2692 C   0  0  0  0  0  0  0  0  0  0  0  0
    4.9882    0.8337   21.2249 C   0  0  0  0  0  0  0  0  0  0  0  0
    7.3516    0.1709   18.3693 C   0  0  0  0  0  0  0  0  0  0  0  0
    5.4987    1.4214   17.7136 C   0  0  0  0  0  0  0  0  0  0  0  0
    3.8623    1.5677   20.9291 C   0  0  0  0  0  0  0  0  0  0  0  0
    5.7419    0.6949   20.0261 C   0  0  0  0  0  0  0  0  0  0  0  0
    6.9524    0.0695   19.6954 C   0  0  0  0  0  0  0  0  0  0  0  0
   11.5484    3.2921   23.8748 C   0  0  0  0  0  0  0  0  0  0  0  0
    5.0372    1.3611   19.0220 C   0  0  0  0  0  0  0  0  0  0  0  0
    7.0755   -1.8585   21.3358 C   0  0  0  0  0  0  0  0  0  0  0  0
    7.7926   -3.3529   24.6159 C   0  0  0  0  0  0  0  0  0  0  0  0
    9.5570    0.8228   21.6851 C   0  0  0  0  0  0  0  0  0  0  0  0
    8.0349    2.1693   24.5707 C   0  0  0  0  0  0  0  0  0  0  0  0
    5.9301   -0.5559   25.9374 C   0  0  0  0  0  0  0  0  0  0  0  0
    2.3923   -7.2237   25.6703 C   0  0  0  0  0  0  0  0  0  0  0  0
   13.5580   -1.5883   24.0976 C   0  0  0  0  0  0  0  0  0  0  0  0
   12.0570   -1.7301   23.8655 C   0  0  0  0  0  0  0  0  0  0  0  0
   13.8920   -0.2950   24.8345 C   0  0  0  0  0  0  0  0  0  0  0  0
    7.0100   -6.0647   22.7869 C   0  0  0  0  0  0  0  0  0  0  0  0
    6.9250   -5.3936   21.4444 C   0  0  0  0  0  0  0  0  0  0  0  0
   11.4803   -0.5119   23.1479 C   0  0  0  0  0  0  0  0  0  0  0  0
   13.3183    0.9257   24.1187 C   0  0  0  0  0  0  0  0  0  0  0  0
    7.8116   -0.6836   20.6889 C   0  0  0  0  0  0  0  0  0  0  0  0
    7.2439   -3.5112   23.2058 C   0  0  0  0  0  0  0  0  0  0  0  0
    9.7861    1.8335   22.8125 C   0  0  0  0  0  0  0  0  0  0  0  0
    7.3537    1.4975   25.7560 C   0  0  0  0  0  0  0  0  0  0  0  0
    5.7702   -1.9442   25.3230 C   0  0  0  0  0  0  0  0  0  0  0  0
    7.7289   -4.7739   22.5449 C   0  0  0  0  0  0  0  0  0  0  0  0
   11.8066    0.7905   23.8911 C   0  0  0  0  0  0  0  0  0  0  0  0
    8.2564    1.5075   26.9822 C   0  0  0  0  0  0  0  0  0  0  0  0
    4.6317   -2.7349   25.9482 C   0  0  0  0  0  0  0  0  0  0  0  0
    4.4757   -4.1053   25.2870 C   0  0  0  0  0  0  0  0  0  0  0  0
    3.3748   -4.9358   25.9312 C   0  0  0  0  0  0  0  0  0  0  0  0
   11.2661    1.9977   23.1270 C   0  0  0  0  0  0  0  0  0  0  0  0
    6.6674    0.8168   17.3974 N   0  0  0  0  0  0  0  0  0  0  0  0
    3.9011    1.8812   19.5966 N   0  0  0  0  0  0  0  0  0  0  0  0
    8.3106    0.2164   21.7233 N   0  0  0  0  0  0  0  0  0  0  0  0
    7.7161   -2.3474   22.4668 N   0  0  0  0  0  0  0  0  0  0  0  0
    7.0427   -2.6375   25.5237 N   0  0  0  0  0  0  0  0  0  0  0  0
    9.0586    1.4239   24.0054 N   0  0  0  0  0  0  0  0  0  0  0  0
    6.9953    0.1386   25.3786 N   0  0  0  0  0  0  0  0  0  0  0  0
    2.3623   -8.4342   24.9859 N   0  0  0  0  0  0  0  0  0  0  0  0
    1.5305   -7.0310   26.7452 N   0  0  0  0  0  0  0  0  0  0  0  0
    3.2855   -6.2334   25.2611 N   0  0  0  0  0  0  0  0  0  0  0  0
    6.1026   -2.3982   20.8094 O   0  0  0  0  0  0  0  0  0  0  0  0
    8.9014   -3.7998   24.9239 O   0  0  0  0  0  0  0  0  0  0  0  0
   10.3601    0.6917   20.7614 O   0  0  0  0  0  0  0  0  0  0  0  0
    7.7379    3.3172   24.2403 O   0  0  0  0  0  0  0  0  0  0  0  0
    5.1386   -0.0895   26.7531 O   0  0  0  0  0  0  0  0  0  0  0  0
  1  2  2  0
  1  3  1  0
  2  4  1  0
  3  5  2  0
  4 12  2  0
  5 12  1  0
  6  9  2  0
  6 10  1  0
  7 11  1  0
  7 39  2  0
  8 13  2  0
  8 39  1  0
  9 40  1  0
 10 11  2  0
 10 13  1  0
 11 27  1  0
 12 38  1  0
 13 40  1  0
 14 27  1  0
 14 42  1  0
 14 49  2  0
 15 28  1  0
 15 43  1  0
 15 50  2  0
 16 29  1  0
 16 41  1  0
 16 51  2  0
 17 30  1  0
 17 44  1  0
 17 52  2  0
 18 31  1  0
 18 45  1  0
 18 53  2  0
 19 46  1  0
 19 47  1  0
 19 48  2  3
 20 21  1  0
 20 22  1  0
 21 25  1  0
 22 26  1  0
 23 24  1  0
 23 32  1  0
 24 32  1  0
 25 33  1  0
 26 33  1  0
 27 41  1  0
 28 32  1  0
 28 42  1  0
 29 38  1  0
 29 44  1  0
 30 34  1  0
 30 45  1  0
 31 35  1  0
 31 43  1  0
 33 38  1  0
 35 36  1  0
 36 37  1  0
 37 48  1  0
M  CHG  1  48   1
M  END
