JON-UIO-cc955e79-3
     RDKit          3D

 23 25  0  0  1  0  0  0  0  0999 V2000
    7.2531   -0.4948   18.8104 C   0  0  0  0  0  0  0  0  0  0  0  0
    8.7348   -0.8769   20.6864 C   0  0  0  0  0  0  0  0  0  0  0  0
   12.8081    1.1289   23.6711 C   0  0  0  0  0  0  0  0  0  0  0  0
    8.3090   -1.6182   21.7245 C   0  0  0  0  0  0  0  0  0  0  0  0
    6.8880   -1.4681   22.1966 C   0  0  0  0  0  0  0  0  0  0  0  0
   10.8609    0.1218   24.2728 C   0  0  0  0  0  0  0  0  0  0  0  0
   13.0386    0.1928   22.5092 C   0  0  0  0  0  0  0  0  0  0  0  0
   12.2439   -1.0950   22.6627 C   0  0  0  0  0  0  0  0  0  0  0  0
    6.7751    0.6630   20.9469 C   0  0  0  0  0  0  0  0  0  0  0  0
    7.8516    0.1265   20.0035 C   0  0  0  0  0  0  0  0  0  0  0  0
   10.8183   -0.7474   23.0526 C   0  0  0  0  0  0  0  0  0  0  0  0
    9.9686   -1.9322   23.5370 C   0  0  0  0  0  0  0  0  0  0  0  0
    9.0445   -1.2821   24.5792 C   0  0  0  0  0  0  0  0  0  0  0  0
    8.6857   -2.1922   25.7380 C   0  0  0  0  0  0  0  0  0  0  0  0
    3.2760   -3.4732   24.9138 C   0  0  0  0  0  0  0  0  0  0  0  0
    9.2012   -2.6067   22.4092 C   0  0  0  0  0  0  0  0  0  0  0  0
    4.7042   -3.4867   24.3889 C   0  0  0  0  0  0  0  0  0  0  0  0
    5.0045   -2.2981   23.4886 C   0  0  0  0  0  0  0  0  0  0  0  0
    6.7815   -0.9845   17.8702 N   0  0  0  0  0  0  0  0  0  0  0  0
   11.7919    1.0926   24.4769 N   0  0  0  0  0  0  0  0  0  0  0  0
    6.1914   -0.4184   21.7617 N   0  0  0  0  0  0  0  0  0  0  0  0
    9.8943   -0.1711   25.0566 N   0  0  0  0  0  0  0  0  0  0  0  0
    6.3757   -2.3915   22.9998 N   0  0  0  0  0  0  0  0  0  0  0  0
  1 10  1  0
  1 19  3  0
  2  4  2  0
  2 10  1  0
  3  7  1  0
  3 20  2  0
  4  5  1  0
  4 16  1  0
  5 21  1  0
  5 23  2  0
  6 11  1  0
  6 20  1  0
  6 22  2  0
  7  8  1  0
  8 11  1  0
  9 10  1  0
  9 21  1  0
 11 12  1  0
 12 13  1  0
 12 16  1  0
 13 14  1  0
 13 22  1  0
 15 17  1  0
 17 18  1  0
 18 23  1  0
M  CHG  2  22   1  23   1
M  END
