JON-UIO-f971c856-8
     RDKit          3D

 20 20  0  0  1  0  0  0  0  0999 V2000
    9.1028    2.5711   23.7129 C   0  0  0  0  0  0  0  0  0  0  0  0
   10.0435    1.6515   23.9748 C   0  0  0  0  0  0  0  0  0  0  0  0
   14.3235   -2.0995   22.5927 C   0  0  0  0  0  0  0  0  0  0  0  0
   14.3239   -1.1715   23.8016 C   0  0  0  0  0  0  0  0  0  0  0  0
   13.3708   -1.6154   21.5044 C   0  0  0  0  0  0  0  0  0  0  0  0
   12.9252   -0.8954   24.3574 C   0  0  0  0  0  0  0  0  0  0  0  0
   11.9533   -1.3933   22.0408 C   0  0  0  0  0  0  0  0  0  0  0  0
   12.3154   -2.0927   25.0853 C   0  0  0  0  0  0  0  0  0  0  0  0
    7.6328    2.3228   23.8074 C   0  0  0  0  0  0  0  0  0  0  0  0
   11.5178    1.9178   23.8744 C   0  0  0  0  0  0  0  0  0  0  0  0
   12.2142    1.0077   22.8701 C   0  0  0  0  0  0  0  0  0  0  0  0
    9.6667   -1.2088   21.3300 C   0  0  0  0  0  0  0  0  0  0  0  0
    9.3138   -0.2867   18.8537 N   0  0  0  0  0  0  0  0  0  0  0  0
   11.0581   -0.9788   20.9604 N   0  0  0  0  0  0  0  0  0  0  0  0
   11.9929   -0.4433   23.2383 N   0  0  0  0  0  0  0  0  0  0  0  0
    7.2715   -0.8927   20.2903 O   0  0  0  0  0  0  0  0  0  0  0  0
    8.6288    1.1618   20.8623 O   0  0  0  0  0  0  0  0  0  0  0  0
    7.0498    2.5440   22.5307 O   0  0  0  0  0  0  0  0  0  0  0  0
    9.6540    0.4152   24.3653 F   0  0  0  0  0  0  0  0  0  0  0  0
    8.5420   -0.1994   20.3714 S   0  0  0  0  0  0  0  0  0  0  0  0
  1  2  2  0
  1  9  1  0
  2 10  1  0
  2 19  1  0
  3  4  1  0
  3  5  1  0
  4  6  1  0
  5  7  1  0
  6  8  1  0
  6 15  1  0
  7 14  1  0
  7 15  1  0
  9 18  1  0
 10 11  1  0
 11 15  1  0
 12 14  1  0
 12 20  1  0
 13 20  1  0
 16 20  2  0
 17 20  2  0
M  CHG  1  15   1
M  END
