JON-UIO-f971c856-5
     RDKit          3D

 26 27  0  0  1  0  0  0  0  0999 V2000
   10.1809   -3.4394   24.2087 C   0  0  0  0  0  0  0  0  0  0  0  0
    8.9692   -3.3310   23.4651 C   0  0  0  0  0  0  0  0  0  0  0  0
    8.0854   -4.4812   23.4438 C   0  0  0  0  0  0  0  0  0  0  0  0
    8.6337   -2.2183   22.7785 C   0  0  0  0  0  0  0  0  0  0  0  0
    6.8272   -4.3951   22.9916 C   0  0  0  0  0  0  0  0  0  0  0  0
    6.2612   -3.1076   22.4641 C   0  0  0  0  0  0  0  0  0  0  0  0
   11.7297   -0.2198   22.2616 C   0  0  0  0  0  0  0  0  0  0  0  0
   10.8344   -1.4524   22.2175 C   0  0  0  0  0  0  0  0  0  0  0  0
    9.6371   -0.5794   24.2147 C   0  0  0  0  0  0  0  0  0  0  0  0
    7.3495   -2.1218   21.9721 C   0  0  0  0  0  0  0  0  0  0  0  0
   10.5710    0.6441   24.2214 C   0  0  0  0  0  0  0  0  0  0  0  0
   10.6887    1.1363   25.6710 C   0  0  0  0  0  0  0  0  0  0  0  0
   14.2462    0.9291   23.5641 C   0  0  0  0  0  0  0  0  0  0  0  0
    7.6564   -2.3500   20.4867 C   0  0  0  0  0  0  0  0  0  0  0  0
   12.8109    1.4337   23.6161 C   0  0  0  0  0  0  0  0  0  0  0  0
   11.1667   -3.5279   24.8138 N   0  0  0  0  0  0  0  0  0  0  0  0
   11.8846    0.2980   23.6321 N   0  0  0  0  0  0  0  0  0  0  0  0
    6.8086   -2.0037   17.9871 N   0  0  0  0  0  0  0  0  0  0  0  0
    9.5039   -1.0923   22.8091 N   0  0  0  0  0  0  0  0  0  0  0  0
    5.5779   -3.6474   19.5269 O   0  0  0  0  0  0  0  0  0  0  0  0
    5.3678   -1.1637   19.9414 O   0  0  0  0  0  0  0  0  0  0  0  0
    8.5929   -1.3721   20.0606 O   0  0  0  0  0  0  0  0  0  0  0  0
   12.5731    2.2757   22.4929 O   0  0  0  0  0  0  0  0  0  0  0  0
    8.5552   -5.6503   23.9338 F   0  0  0  0  0  0  0  0  0  0  0  0
    6.1470   -2.3140   19.5278 S   0  0  0  0  0  0  0  0  0  0  0  0
    5.7679   -5.7542   23.0014 Cl  0  0  0  0  0  0  0  0  0  0  0  0
  1  2  1  0
  1 16  3  0
  2  3  1  0
  2  4  2  0
  3  5  2  0
  3 24  1  0
  4 10  1  0
  4 19  1  0
  5  6  1  0
  5 26  1  0
  6 10  1  0
  7  8  1  0
  7 17  1  0
  8 19  1  0
  9 11  1  0
  9 19  1  0
 10 14  1  0
 11 12  1  0
 11 17  1  0
 13 15  1  0
 14 22  1  0
 14 25  1  0
 15 17  1  0
 15 23  1  0
 18 25  1  0
 20 25  2  0
 21 25  2  0
M  CHG  1  19   1
M  END
