JOO-IND-b13e14cc-2
     RDKit          3D

 20 22  0  0  1  0  0  0  0  0999 V2000
   13.8761   -0.6760   25.8114 C   0  0  0  0  0  0  0  0  0  0  0  0
   14.3839   -1.8999   26.2331 C   0  0  0  0  0  0  0  0  0  0  0  0
   12.6443   -0.6065   25.1541 C   0  0  0  0  0  0  0  0  0  0  0  0
   13.6771   -3.0843   26.0103 C   0  0  0  0  0  0  0  0  0  0  0  0
   11.9096   -1.7882   24.9163 C   0  0  0  0  0  0  0  0  0  0  0  0
   12.4405   -3.0070   25.3495 C   0  0  0  0  0  0  0  0  0  0  0  0
   10.2940   -3.1269   24.2345 C   0  0  0  0  0  0  0  0  0  0  0  0
    6.6571   -2.8792   20.9308 C   0  0  0  0  0  0  0  0  0  0  0  0
    7.4905   -5.5738   23.1175 C   0  0  0  0  0  0  0  0  0  0  0  0
    8.7977   -5.1210   23.7702 C   0  0  0  0  0  0  0  0  0  0  0  0
    7.4124   -5.1190   21.6629 C   0  0  0  0  0  0  0  0  0  0  0  0
    8.8802   -3.1886   22.1310 C   0  0  0  0  0  0  0  0  0  0  0  0
    8.9926   -3.6018   23.6088 C   0  0  0  0  0  0  0  0  0  0  0  0
    6.9416   -1.3998   20.8662 C   0  0  0  0  0  0  0  0  0  0  0  0
   10.6800   -1.8732   24.2795 N   0  0  0  0  0  0  0  0  0  0  0  0
    7.6169   -3.6731   21.5572 N   0  0  0  0  0  0  0  0  0  0  0  0
    5.6116   -3.3137   20.4408 O   0  0  0  0  0  0  0  0  0  0  0  0
    5.7884   -0.7003   20.8535 F   0  0  0  0  0  0  0  0  0  0  0  0
   11.3497   -4.2762   24.9349 S   0  0  0  0  0  0  0  0  0  0  0  0
    7.8463   -1.1221   19.3829 Cl  0  0  0  0  0  0  0  0  0  0  0  0
  1  2  2  0
  1  3  1  0
  2  4  1  0
  3  5  2  0
  4  6  2  0
  5  6  1  0
  5 15  1  0
  6 19  1  0
  7 13  1  0
  7 15  2  0
  7 19  1  0
  8 14  1  0
  8 16  1  0
  8 17  2  0
  9 10  1  0
  9 11  1  0
 10 13  1  0
 11 16  1  0
 12 13  1  0
 12 16  1  0
 14 18  1  0
 14 20  1  0
M  END
