JOO-PER-74f994a9-1
     RDKit          3D

 16 17  0  0  0  0  0  0  0  0999 V2000
    5.9026   -5.6613   21.7987 C   0  0  0  0  0  0  0  0  0  0  0  0
   12.3338   -3.3243   25.2328 C   0  0  0  0  0  0  0  0  0  0  0  0
   12.8190   -2.0226   25.1066 C   0  0  0  0  0  0  0  0  0  0  0  0
   10.9672   -3.5743   25.1086 C   0  0  0  0  0  0  0  0  0  0  0  0
   10.5708   -1.2210   24.7323 C   0  0  0  0  0  0  0  0  0  0  0  0
   11.9374   -0.9710   24.8564 C   0  0  0  0  0  0  0  0  0  0  0  0
   10.0856   -2.5227   24.8584 C   0  0  0  0  0  0  0  0  0  0  0  0
    6.7256   -6.0597   24.1037 C   0  0  0  0  0  0  0  0  0  0  0  0
    8.3480   -5.6620   22.2101 C   0  0  0  0  0  0  0  0  0  0  0  0
    6.9308   -4.6220   24.5687 C   0  0  0  0  0  0  0  0  0  0  0  0
    8.5412   -4.2274   22.6896 C   0  0  0  0  0  0  0  0  0  0  0  0
    6.9887   -6.2498   22.6056 C   0  0  0  0  0  0  0  0  0  0  0  0
   12.4571    0.4203   24.7202 C   0  0  0  0  0  0  0  0  0  0  0  0
    8.6156   -2.7917   24.7256 C   0  0  0  0  0  0  0  0  0  0  0  0
    5.0486   -5.1985   21.1641 N   0  0  0  0  0  0  0  0  0  0  0  0
    8.3139   -4.1603   24.1799 N   0  0  0  0  0  0  0  0  0  0  0  0
  1 12  1  0
  1 15  3  0
  2  3  2  0
  2  4  1  0
  3  6  1  0
  4  7  2  0
  5  6  2  0
  5  7  1  0
  6 13  1  0
  7 14  1  0
  8 10  1  0
  8 12  1  0
  9 11  1  0
  9 12  1  0
 10 16  1  0
 11 16  1  0
 14 16  1  0
M  CHG  1  16   1
M  END
