JOO-IND-b2fae8f6-1
     RDKit          3D

 17 19  0  0  0  0  0  0  0  0999 V2000
   12.2800    1.0287   24.4155 C   0  0  0  0  0  0  0  0  0  0  0  0
    6.3609   -4.6558   21.8479 C   0  0  0  0  0  0  0  0  0  0  0  0
    6.6802   -5.8965   22.3883 C   0  0  0  0  0  0  0  0  0  0  0  0
    7.1639   -3.5408   22.1052 C   0  0  0  0  0  0  0  0  0  0  0  0
    7.8072   -6.0569   23.1984 C   0  0  0  0  0  0  0  0  0  0  0  0
   12.1914   -2.9622   25.3821 C   0  0  0  0  0  0  0  0  0  0  0  0
   13.1809   -2.1167   25.8407 C   0  0  0  0  0  0  0  0  0  0  0  0
   12.2494   -0.3532   24.7501 C   0  0  0  0  0  0  0  0  0  0  0  0
    8.3086   -3.6753   22.9206 C   0  0  0  0  0  0  0  0  0  0  0  0
    8.6093   -4.9327   23.4528 C   0  0  0  0  0  0  0  0  0  0  0  0
   11.2336   -2.3794   24.5776 C   0  0  0  0  0  0  0  0  0  0  0  0
   10.1398   -3.1474   24.0318 C   0  0  0  0  0  0  0  0  0  0  0  0
   12.3050    2.1564   24.1424 N   0  0  0  0  0  0  0  0  0  0  0  0
   13.2408   -0.8021   25.5433 N   0  0  0  0  0  0  0  0  0  0  0  0
   11.2318   -1.0730   24.2403 N   0  0  0  0  0  0  0  0  0  0  0  0
    9.1940   -2.6631   23.2613 N   0  0  0  0  0  0  0  0  0  0  0  0
   10.0445   -4.8149   24.4011 S   0  0  0  0  0  0  0  0  0  0  0  0
  1  8  1  0
  1 13  3  0
  2  3  2  0
  2  4  1  0
  3  5  1  0
  4  9  2  0
  5 10  2  0
  6  7  2  0
  6 11  1  0
  7 14  1  0
  8 14  2  0
  8 15  1  0
  9 10  1  0
  9 16  1  0
 10 17  1  0
 11 12  1  0
 11 15  2  0
 12 16  2  0
 12 17  1  0
M  END
