JOO-IND-6372a4f3-1
     RDKit          3D

 19 20  0  0  0  0  0  0  0  0999 V2000
    7.3455   -3.2777   22.7484 C   0  0  0  0  0  0  0  0  0  0  0  0
    8.2446   -2.6447   23.6066 C   0  0  0  0  0  0  0  0  0  0  0  0
    6.8729   -2.6108   21.6180 C   0  0  0  0  0  0  0  0  0  0  0  0
    8.1984   -0.6778   22.2042 C   0  0  0  0  0  0  0  0  0  0  0  0
    8.6710   -1.3448   23.3345 C   0  0  0  0  0  0  0  0  0  0  0  0
    7.2993   -1.3109   21.3460 C   0  0  0  0  0  0  0  0  0  0  0  0
    5.1547    1.0963   18.5044 C   0  0  0  0  0  0  0  0  0  0  0  0
    5.6746   -0.0942   18.1897 C   0  0  0  0  0  0  0  0  0  0  0  0
    9.6171   -0.6800   24.2384 C   0  0  0  0  0  0  0  0  0  0  0  0
    5.9285   -1.1150   19.2475 C   0  0  0  0  0  0  0  0  0  0  0  0
   11.6136   -2.0008   23.3639 C   0  0  0  0  0  0  0  0  0  0  0  0
   11.8976    0.2715   24.2981 C   0  0  0  0  0  0  0  0  0  0  0  0
   12.1722   -1.6641   21.9865 C   0  0  0  0  0  0  0  0  0  0  0  0
   12.4919    0.8745   23.0308 C   0  0  0  0  0  0  0  0  0  0  0  0
   10.9842   -0.8283   23.9863 N   0  0  0  0  0  0  0  0  0  0  0  0
    6.8266   -0.6441   20.2152 N   0  0  0  0  0  0  0  0  0  0  0  0
    9.1218   -0.0287   25.1568 O   0  0  0  0  0  0  0  0  0  0  0  0
    5.3856   -2.2130   19.2143 O   0  0  0  0  0  0  0  0  0  0  0  0
   13.4408   -0.3605   22.0860 S   0  0  0  0  0  0  0  0  0  0  0  0
  1  2  2  0
  1  3  1  0
  2  5  1  0
  3  6  2  0
  4  5  2  0
  4  6  1  0
  5  9  1  0
  6 16  1  0
  7  8  2  0
  8 10  1  0
  9 15  1  0
  9 17  2  0
 10 16  1  0
 10 18  2  0
 11 13  1  0
 11 15  1  0
 12 14  1  0
 12 15  1  0
 13 19  1  0
 14 19  1  0
M  END
