JOO-IND-6372a4f3-2
     RDKit          3D

 20 21  0  0  1  0  0  0  0  0999 V2000
    8.7518   -3.6139   23.6356 C   0  0  0  0  0  0  0  0  0  0  0  0
    9.8184   -2.9204   24.2075 C   0  0  0  0  0  0  0  0  0  0  0  0
    7.9438   -2.9900   22.6850 C   0  0  0  0  0  0  0  0  0  0  0  0
    9.2689   -0.9791   22.8784 C   0  0  0  0  0  0  0  0  0  0  0  0
   10.0769   -1.6030   23.8289 C   0  0  0  0  0  0  0  0  0  0  0  0
    8.2023   -1.6726   22.3065 C   0  0  0  0  0  0  0  0  0  0  0  0
   11.2030   -0.8724   24.4333 C   0  0  0  0  0  0  0  0  0  0  0  0
    7.7506   -0.0542   20.4343 C   0  0  0  0  0  0  0  0  0  0  0  0
   13.5823   -0.2297   24.4103 C   0  0  0  0  0  0  0  0  0  0  0  0
   12.7026   -1.6684   22.5503 C   0  0  0  0  0  0  0  0  0  0  0  0
   14.8970   -0.9850   24.2870 C   0  0  0  0  0  0  0  0  0  0  0  0
   13.8279   -1.0696   21.7179 C   0  0  0  0  0  0  0  0  0  0  0  0
    6.5903    0.3699   19.5665 C   0  0  0  0  0  0  0  0  0  0  0  0
   12.4554   -0.9466   23.8082 N   0  0  0  0  0  0  0  0  0  0  0  0
    7.3941   -1.0489   21.3554 N   0  0  0  0  0  0  0  0  0  0  0  0
   10.9585   -0.2463   25.4641 O   0  0  0  0  0  0  0  0  0  0  0  0
    8.8558    0.4610   20.2919 O   0  0  0  0  0  0  0  0  0  0  0  0
    5.9182    1.4117   20.1260 F   0  0  0  0  0  0  0  0  0  0  0  0
   15.4382   -1.1673   22.5590 S   0  0  0  0  0  0  0  0  0  0  0  0
    7.2480    0.8806   18.0022 Cl  0  0  0  0  0  0  0  0  0  0  0  0
  1  2  2  0
  1  3  1  0
  2  5  1  0
  3  6  2  0
  4  5  2  0
  4  6  1  0
  5  7  1  0
  6 15  1  0
  7 14  1  0
  7 16  2  0
  8 13  1  0
  8 15  1  0
  8 17  2  0
  9 11  1  0
  9 14  1  0
 10 12  1  0
 10 14  1  0
 11 19  1  0
 12 19  1  0
 13 18  1  0
 13 20  1  0
M  END
