JOO-IND-b13e14cc-3
     RDKit          3D

 20 22  0  0  1  0  0  0  0  0999 V2000
    6.6528   -2.1104   20.3124 C   0  0  0  0  0  0  0  0  0  0  0  0
    6.9894   -1.0101   19.9697 C   0  0  0  0  0  0  0  0  0  0  0  0
   13.4671   -0.6968   25.0804 C   0  0  0  0  0  0  0  0  0  0  0  0
   13.8879   -1.6908   25.9570 C   0  0  0  0  0  0  0  0  0  0  0  0
   12.3607   -0.9026   24.2513 C   0  0  0  0  0  0  0  0  0  0  0  0
   13.2167   -2.9141   26.0290 C   0  0  0  0  0  0  0  0  0  0  0  0
   11.6644   -2.1296   24.3040 C   0  0  0  0  0  0  0  0  0  0  0  0
   12.1062   -3.1140   25.1932 C   0  0  0  0  0  0  0  0  0  0  0  0
   10.1709   -3.6903   23.8562 C   0  0  0  0  0  0  0  0  0  0  0  0
    6.2470   -3.4367   20.7254 C   0  0  0  0  0  0  0  0  0  0  0  0
    6.7609   -5.5755   23.6173 C   0  0  0  0  0  0  0  0  0  0  0  0
    7.9340   -4.8269   24.2595 C   0  0  0  0  0  0  0  0  0  0  0  0
    6.7030   -5.4462   22.0973 C   0  0  0  0  0  0  0  0  0  0  0  0
    8.3320   -3.5490   22.1267 C   0  0  0  0  0  0  0  0  0  0  0  0
    8.9875   -4.4020   23.2260 C   0  0  0  0  0  0  0  0  0  0  0  0
    7.3994    0.3301   19.5524 C   0  0  0  0  0  0  0  0  0  0  0  0
   10.5555   -2.4745   23.5452 N   0  0  0  0  0  0  0  0  0  0  0  0
    7.0594   -4.1042   21.6459 N   0  0  0  0  0  0  0  0  0  0  0  0
    5.2156   -3.8832   20.2337 O   0  0  0  0  0  0  0  0  0  0  0  0
   11.0870   -4.4977   25.0540 S   0  0  0  0  0  0  0  0  0  0  0  0
  1  2  3  0
  1 10  1  0
  2 16  1  0
  3  4  2  0
  3  5  1  0
  4  6  1  0
  5  7  2  0
  6  8  2  0
  7  8  1  0
  7 17  1  0
  8 20  1  0
  9 15  1  0
  9 17  2  0
  9 20  1  0
 10 18  1  0
 10 19  2  0
 11 12  1  0
 11 13  1  0
 12 15  1  0
 13 18  1  0
 14 15  1  0
 14 18  1  0
M  END
