JOO-IND-b2fae8f6-2
     RDKit          3D

 17 19  0  0  0  0  0  0  0  0999 V2000
   13.8590   -1.7687   26.2277 C   0  0  0  0  0  0  0  0  0  0  0  0
    6.4550   -4.7517   21.5572 C   0  0  0  0  0  0  0  0  0  0  0  0
    6.9180   -5.9074   22.1763 C   0  0  0  0  0  0  0  0  0  0  0  0
    7.1155   -3.5336   21.7416 C   0  0  0  0  0  0  0  0  0  0  0  0
    8.0503   -5.8779   22.9942 C   0  0  0  0  0  0  0  0  0  0  0  0
   11.8308    0.3495   24.2314 C   0  0  0  0  0  0  0  0  0  0  0  0
   12.8265   -1.3137   25.3623 C   0  0  0  0  0  0  0  0  0  0  0  0
    8.2622   -3.4759   22.5631 C   0  0  0  0  0  0  0  0  0  0  0  0
    8.7088   -4.6510   23.1751 C   0  0  0  0  0  0  0  0  0  0  0  0
   10.9973   -1.7319   24.1311 C   0  0  0  0  0  0  0  0  0  0  0  0
   10.0082   -2.6601   23.6368 C   0  0  0  0  0  0  0  0  0  0  0  0
   14.7017   -2.1400   26.9339 N   0  0  0  0  0  0  0  0  0  0  0  0
   12.8339   -0.0080   25.0496 N   0  0  0  0  0  0  0  0  0  0  0  0
   10.8782   -0.4550   23.7330 N   0  0  0  0  0  0  0  0  0  0  0  0
   11.9426   -2.2331   24.9423 N   0  0  0  0  0  0  0  0  0  0  0  0
    9.0164   -2.3443   22.8372 N   0  0  0  0  0  0  0  0  0  0  0  0
   10.1125   -4.2997   24.1128 S   0  0  0  0  0  0  0  0  0  0  0  0
  1  7  1  0
  1 12  3  0
  2  3  2  0
  2  4  1  0
  3  5  1  0
  4  8  2  0
  5  9  2  0
  6 13  2  0
  6 14  1  0
  7 13  1  0
  7 15  2  0
  8  9  1  0
  8 16  1  0
  9 17  1  0
 10 11  1  0
 10 14  2  0
 10 15  1  0
 11 16  2  0
 11 17  1  0
M  END
