JOR-UNI-61e7b1d5-23
     RDKit          3D

 29 31  0  0  0  0  0  0  0  0999 V2000
   12.4781   -1.0047   22.2232 C   0  0  0  0  0  0  0  0  0  0  0  0
    6.4622    0.1244   18.4210 C   0  0  0  0  0  0  0  0  0  0  0  0
    6.8525   -0.1436   19.7283 C   0  0  0  0  0  0  0  0  0  0  0  0
   10.3192   -2.0628   22.7068 C   0  0  0  0  0  0  0  0  0  0  0  0
    6.0042   -0.9326   17.6512 C   0  0  0  0  0  0  0  0  0  0  0  0
   10.9231   -0.0793   23.8718 C   0  0  0  0  0  0  0  0  0  0  0  0
    6.3019   -2.4292   19.3687 C   0  0  0  0  0  0  0  0  0  0  0  0
   11.2420   -1.0478   22.9337 C   0  0  0  0  0  0  0  0  0  0  0  0
    6.7740   -1.4423   20.2190 C   0  0  0  0  0  0  0  0  0  0  0  0
    9.1226   -2.0780   23.4149 C   0  0  0  0  0  0  0  0  0  0  0  0
    8.8988   -1.0635   24.3316 C   0  0  0  0  0  0  0  0  0  0  0  0
    7.1435   -2.9954   22.1794 C   0  0  0  0  0  0  0  0  0  0  0  0
    7.2366   -5.1154   27.5478 C   0  0  0  0  0  0  0  0  0  0  0  0
    5.2397   -4.2868   26.2550 C   0  0  0  0  0  0  0  0  0  0  0  0
    7.9941   -5.3087   26.2413 C   0  0  0  0  0  0  0  0  0  0  0  0
    6.0075   -4.4846   24.9551 C   0  0  0  0  0  0  0  0  0  0  0  0
    5.7216   -5.2446   27.3509 C   0  0  0  0  0  0  0  0  0  0  0  0
    4.9809   -4.9861   28.6611 C   0  0  0  0  0  0  0  0  0  0  0  0
    7.8367   -0.4597   27.3809 C   0  0  0  0  0  0  0  0  0  0  0  0
    7.3559   -0.0727   26.0238 C   0  0  0  0  0  0  0  0  0  0  0  0
    8.2834   -4.3894   23.9423 C   0  0  0  0  0  0  0  0  0  0  0  0
   13.4837   -0.9696   21.6451 N   0  0  0  0  0  0  0  0  0  0  0  0
    5.9137   -2.2071   18.0929 N   0  0  0  0  0  0  0  0  0  0  0  0
    9.7712   -0.0609   24.5791 N   0  0  0  0  0  0  0  0  0  0  0  0
    7.1645   -1.7463   21.5461 N   0  0  0  0  0  0  0  0  0  0  0  0
    7.6815   -1.0708   25.0585 N   0  0  0  0  0  0  0  0  0  0  0  0
    8.1581   -3.1387   23.1779 N   0  0  0  0  0  0  0  0  0  0  0  0
    7.4857   -4.3250   25.2156 N   0  0  0  0  0  0  0  0  0  0  0  0
    6.3366   -3.8864   21.9078 O   0  0  0  0  0  0  0  0  0  0  0  0
  1  8  1  0
  1 22  3  0
  2  3  2  0
  2  5  1  0
  3  9  1  0
  4  8  2  0
  4 10  1  0
  5 23  2  0
  6  8  1  0
  6 24  2  0
  7  9  2  0
  7 23  1  0
  9 25  1  0
 10 11  2  0
 10 27  1  0
 11 24  1  0
 11 26  1  0
 12 25  1  0
 12 27  1  0
 12 29  2  0
 13 15  1  0
 13 17  1  0
 14 16  1  0
 14 17  1  0
 15 28  1  0
 16 28  1  0
 17 18  1  0
 19 20  1  0
 20 26  1  0
 21 27  1  0
 21 28  1  0
M  CHG  1  28   1
M  END
