JOR-UNI-61e7b1d5-21
     RDKit          3D

 28 30  0  0  0  0  0  0  0  0999 V2000
    7.0209    0.0614   18.8420 C   0  0  0  0  0  0  0  0  0  0  0  0
    4.7311   -4.2909   26.7466 C   0  0  0  0  0  0  0  0  0  0  0  0
    5.7345   -3.7678   25.9387 C   0  0  0  0  0  0  0  0  0  0  0  0
    7.7063   -1.2201   20.8174 C   0  0  0  0  0  0  0  0  0  0  0  0
    3.4195   -3.9573   26.4497 C   0  0  0  0  0  0  0  0  0  0  0  0
    5.9593   -2.0615   19.4402 C   0  0  0  0  0  0  0  0  0  0  0  0
    4.0588   -2.6659   24.6604 C   0  0  0  0  0  0  0  0  0  0  0  0
    6.8947   -1.0724   19.6981 C   0  0  0  0  0  0  0  0  0  0  0  0
    5.4004   -2.9388   24.8735 C   0  0  0  0  0  0  0  0  0  0  0  0
    7.5597   -2.3366   21.6331 C   0  0  0  0  0  0  0  0  0  0  0  0
    6.5944   -3.2690   21.2887 C   0  0  0  0  0  0  0  0  0  0  0  0
    7.7856   -2.5738   24.1223 C   0  0  0  0  0  0  0  0  0  0  0  0
   12.7412    0.4547   23.6262 C   0  0  0  0  0  0  0  0  0  0  0  0
   11.4002    0.4672   24.3533 C   0  0  0  0  0  0  0  0  0  0  0  0
   12.5829    0.0484   22.1643 C   0  0  0  0  0  0  0  0  0  0  0  0
   10.6741   -0.8693   24.2192 C   0  0  0  0  0  0  0  0  0  0  0  0
   11.8586   -1.2889   22.0265 C   0  0  0  0  0  0  0  0  0  0  0  0
   10.5050   -1.2772   22.7494 C   0  0  0  0  0  0  0  0  0  0  0  0
    5.5255   -6.5023   22.8787 C   0  0  0  0  0  0  0  0  0  0  0  0
    9.8248   -2.6408   22.6429 C   0  0  0  0  0  0  0  0  0  0  0  0
    5.4738   -5.4272   21.8471 C   0  0  0  0  0  0  0  0  0  0  0  0
    7.1235    0.9839   18.1454 N   0  0  0  0  0  0  0  0  0  0  0  0
    3.0561   -3.1555   25.4237 N   0  0  0  0  0  0  0  0  0  0  0  0
    5.7876   -3.1599   20.2094 N   0  0  0  0  0  0  0  0  0  0  0  0
    6.3999   -2.3909   24.0334 N   0  0  0  0  0  0  0  0  0  0  0  0
    6.4376   -4.4106   22.1147 N   0  0  0  0  0  0  0  0  0  0  0  0
    8.4195   -2.4932   22.8189 N   0  0  0  0  0  0  0  0  0  0  0  0
    8.3841   -2.7730   25.1805 O   0  0  0  0  0  0  0  0  0  0  0  0
  1  8  1  0
  1 22  3  0
  2  3  2  0
  2  5  1  0
  3  9  1  0
  4  8  2  0
  4 10  1  0
  5 23  2  0
  6  8  1  0
  6 24  2  0
  7  9  2  0
  7 23  1  0
  9 25  1  0
 10 11  2  0
 10 27  1  0
 11 24  1  0
 11 26  1  0
 12 25  1  0
 12 27  1  0
 12 28  2  0
 13 14  1  0
 13 15  1  0
 14 16  1  0
 15 17  1  0
 16 18  1  0
 17 18  1  0
 18 20  1  0
 19 21  1  0
 20 27  1  0
 21 26  1  0
M  END
