JOR-WAB-2fd4136b-1
     RDKit          3D

 28 30  0  0  1  0  0  0  0  0999 V2000
    7.7432    0.5485   19.3124 C   0  0  0  0  0  0  0  0  0  0  0  0
    6.6339    0.3635   18.4873 C   0  0  0  0  0  0  0  0  0  0  0  0
   12.6443    5.3772   23.1862 C   0  0  0  0  0  0  0  0  0  0  0  0
   11.2714    5.5876   23.3140 C   0  0  0  0  0  0  0  0  0  0  0  0
    7.6090    1.2391   20.5169 C   0  0  0  0  0  0  0  0  0  0  0  0
   13.1330    4.0956   22.9325 C   0  0  0  0  0  0  0  0  0  0  0  0
    5.3904    0.8691   18.8666 C   0  0  0  0  0  0  0  0  0  0  0  0
   10.8756    3.2346   22.9347 C   0  0  0  0  0  0  0  0  0  0  0  0
   10.3870    4.5162   23.1883 C   0  0  0  0  0  0  0  0  0  0  0  0
   12.2486    3.0242   22.8068 C   0  0  0  0  0  0  0  0  0  0  0  0
    6.3656    1.7447   20.8962 C   0  0  0  0  0  0  0  0  0  0  0  0
    5.2563    1.5597   20.0711 C   0  0  0  0  0  0  0  0  0  0  0  0
   13.8788   -1.0215   22.4764 C   0  0  0  0  0  0  0  0  0  0  0  0
   14.4439   -2.2321   22.3659 C   0  0  0  0  0  0  0  0  0  0  0  0
    7.9840    3.5964   23.1895 C   0  0  0  0  0  0  0  0  0  0  0  0
    8.9556    4.7360   23.3211 C   0  0  0  0  0  0  0  0  0  0  0  0
   13.0639    0.8891   23.8087 C   0  0  0  0  0  0  0  0  0  0  0  0
   13.9396   -1.1266   24.9122 C   0  0  0  0  0  0  0  0  0  0  0  0
   13.9754   -2.6329   24.7108 C   0  0  0  0  0  0  0  0  0  0  0  0
   14.9480   -4.4145   23.2542 C   0  0  0  0  0  0  0  0  0  0  0  0
   12.7735    1.6472   22.5344 C   0  0  0  0  0  0  0  0  0  0  0  0
    6.2251    2.4882   22.1950 C   0  0  0  0  0  0  0  0  0  0  0  0
    7.1089    3.6474   22.2556 N   0  0  0  0  0  0  0  0  0  0  0  0
   13.6012   -0.3996   23.6830 N   0  0  0  0  0  0  0  0  0  0  0  0
   14.8687   -2.9417   23.5384 N   0  0  0  0  0  0  0  0  0  0  0  0
    8.4397    5.8349   23.5514 O   0  0  0  0  0  0  0  0  0  0  0  0
   12.8233    1.4264   24.8942 O   0  0  0  0  0  0  0  0  0  0  0  0
    4.0574    2.0417   20.4272 F   0  0  0  0  0  0  0  0  0  0  0  0
  1  2  2  0
  1  5  1  0
  2  7  1  0
  3  4  2  0
  3  6  1  0
  4  9  1  0
  5 11  2  0
  6 10  2  0
  7 12  2  0
  8  9  2  0
  8 10  1  0
  9 16  1  0
 10 21  1  0
 11 12  1  0
 11 22  1  0
 12 28  1  0
 13 14  2  0
 13 24  1  0
 14 25  1  0
 15 16  1  0
 15 23  2  0
 16 26  2  0
 17 21  1  0
 17 24  1  0
 17 27  2  0
 18 19  1  0
 18 24  1  0
 19 25  1  0
 20 25  1  0
 22 23  1  0
M  CHG  1  25   1
M  END
