JOR-UNI-2fc98d0b-16
     RDKit          3D

 24 26  0  0  0  0  0  0  0  0999 V2000
   13.8103   -1.6565   21.9147 C   0  0  0  0  0  0  0  0  0  0  0  0
    5.7046    1.1520   19.0967 C   0  0  0  0  0  0  0  0  0  0  0  0
   12.5169   -1.1763   21.7098 C   0  0  0  0  0  0  0  0  0  0  0  0
    6.5321    1.1849   20.2136 C   0  0  0  0  0  0  0  0  0  0  0  0
   14.3992   -1.5583   23.1754 C   0  0  0  0  0  0  0  0  0  0  0  0
   12.4011   -0.4997   24.0262 C   0  0  0  0  0  0  0  0  0  0  0  0
    6.2435    0.6986   17.9034 C   0  0  0  0  0  0  0  0  0  0  0  0
    8.2971    0.3329   18.8663 C   0  0  0  0  0  0  0  0  0  0  0  0
   11.8123   -0.5978   22.7655 C   0  0  0  0  0  0  0  0  0  0  0  0
    7.8545    0.7693   20.1046 C   0  0  0  0  0  0  0  0  0  0  0  0
   13.6945   -0.9799   24.2312 C   0  0  0  0  0  0  0  0  0  0  0  0
   10.0677    0.4078   21.2721 C   0  0  0  0  0  0  0  0  0  0  0  0
    7.9116   -4.1162   24.5485 C   0  0  0  0  0  0  0  0  0  0  0  0
    8.1995   -3.1446   25.6881 C   0  0  0  0  0  0  0  0  0  0  0  0
    8.9149   -3.9478   23.4125 C   0  0  0  0  0  0  0  0  0  0  0  0
    8.2705   -1.7056   25.1974 C   0  0  0  0  0  0  0  0  0  0  0  0
    8.9837   -2.5060   22.9301 C   0  0  0  0  0  0  0  0  0  0  0  0
    9.4984   -0.1767   23.6564 C   0  0  0  0  0  0  0  0  0  0  0  0
    7.5229    0.2868   17.7589 N   0  0  0  0  0  0  0  0  0  0  0  0
    8.7215    0.7916   21.2244 N   0  0  0  0  0  0  0  0  0  0  0  0
   10.4653   -0.0971   22.5504 N   0  0  0  0  0  0  0  0  0  0  0  0
    9.3000   -1.6008   24.0971 N   0  0  0  0  0  0  0  0  0  0  0  0
   10.8381    0.4951   20.3142 O   0  0  0  0  0  0  0  0  0  0  0  0
   14.4209   -0.8588   25.7868 Cl  0  0  0  0  0  0  0  0  0  0  0  0
  1  3  2  0
  1  5  1  0
  2  4  2  0
  2  7  1  0
  3  9  1  0
  4 10  1  0
  5 11  2  0
  6  9  2  0
  6 11  1  0
  7 19  2  0
  8 10  2  0
  8 19  1  0
  9 21  1  0
 10 20  1  0
 11 24  1  0
 12 20  1  0
 12 21  1  0
 12 23  2  0
 13 14  1  0
 13 15  1  0
 14 16  1  0
 15 17  1  0
 16 22  1  0
 17 22  1  0
 18 21  1  0
 18 22  1  0
M  CHG  1  22   1
M  END
