JOR-UNI-61e7b1d5-14
     RDKit          3D

 26 28  0  0  0  0  0  0  0  0999 V2000
    5.7208   -6.2539   20.9210 C   0  0  0  0  0  0  0  0  0  0  0  0
    6.5928   -5.5436   24.4694 C   0  0  0  0  0  0  0  0  0  0  0  0
   13.6192   -2.3170   26.4943 C   0  0  0  0  0  0  0  0  0  0  0  0
    5.9428   -6.0594   23.3482 C   0  0  0  0  0  0  0  0  0  0  0  0
    7.6870   -4.6930   24.3113 C   0  0  0  0  0  0  0  0  0  0  0  0
   12.5686   -2.7132   25.6742 C   0  0  0  0  0  0  0  0  0  0  0  0
    7.4811   -4.8740   21.9110 C   0  0  0  0  0  0  0  0  0  0  0  0
   14.1045   -1.0274   26.3492 C   0  0  0  0  0  0  0  0  0  0  0  0
   12.5985   -0.5528   24.6803 C   0  0  0  0  0  0  0  0  0  0  0  0
    6.3869   -5.7247   22.0690 C   0  0  0  0  0  0  0  0  0  0  0  0
    8.1311   -4.3582   23.0322 C   0  0  0  0  0  0  0  0  0  0  0  0
   12.0428   -1.8203   24.7471 C   0  0  0  0  0  0  0  0  0  0  0  0
   10.3120   -3.4288   23.8477 C   0  0  0  0  0  0  0  0  0  0  0  0
    6.7390   -1.4866   20.2947 C   0  0  0  0  0  0  0  0  0  0  0  0
    8.7487   -0.3802   19.5211 C   0  0  0  0  0  0  0  0  0  0  0  0
    7.1941   -1.3745   21.7462 C   0  0  0  0  0  0  0  0  0  0  0  0
    9.2619   -0.2367   20.9504 C   0  0  0  0  0  0  0  0  0  0  0  0
    6.8033   -0.4869   18.1033 C   0  0  0  0  0  0  0  0  0  0  0  0
    9.3625   -2.6615   21.6431 C   0  0  0  0  0  0  0  0  0  0  0  0
    5.1798   -6.6838   19.9886 N   0  0  0  0  0  0  0  0  0  0  0  0
   13.6195   -0.1318   25.4602 N   0  0  0  0  0  0  0  0  0  0  0  0
    7.2808   -0.3900   19.4822 N   0  0  0  0  0  0  0  0  0  0  0  0
   10.9729   -2.1949   23.8979 N   0  0  0  0  0  0  0  0  0  0  0  0
    9.2701   -3.4710   22.8680 N   0  0  0  0  0  0  0  0  0  0  0  0
    8.6985   -1.3245   21.8293 N   0  0  0  0  0  0  0  0  0  0  0  0
   10.5929   -4.3851   24.5723 O   0  0  0  0  0  0  0  0  0  0  0  0
  1 10  1  0
  1 20  3  0
  2  4  2  0
  2  5  1  0
  3  6  2  0
  3  8  1  0
  4 10  1  0
  5 11  2  0
  6 12  1  0
  7 10  2  0
  7 11  1  0
  8 21  2  0
  9 12  2  0
  9 21  1  0
 11 24  1  0
 12 23  1  0
 13 23  1  0
 13 24  1  0
 13 26  2  0
 14 16  1  0
 14 22  1  0
 15 17  1  0
 15 22  1  0
 16 25  1  0
 17 25  1  0
 18 22  1  0
 19 24  1  0
 19 25  1  0
M  CHG  1  25   1
M  END
