JOR-UNI-61e7b1d5-15
     RDKit          3D

 29 31  0  0  0  0  0  0  0  0999 V2000
    5.6431    0.4268   27.1320 C   0  0  0  0  0  0  0  0  0  0  0  0
    6.2508   -0.3478   18.6405 C   0  0  0  0  0  0  0  0  0  0  0  0
    5.9597   -0.5257   19.9884 C   0  0  0  0  0  0  0  0  0  0  0  0
    5.6400   -1.4073   25.5040 C   0  0  0  0  0  0  0  0  0  0  0  0
    6.3285   -1.4757   17.8395 C   0  0  0  0  0  0  0  0  0  0  0  0
    7.4242    0.1651   25.4734 C   0  0  0  0  0  0  0  0  0  0  0  0
    5.8574   -2.8703   19.6033 C   0  0  0  0  0  0  0  0  0  0  0  0
    6.2360   -0.2701   26.0378 C   0  0  0  0  0  0  0  0  0  0  0  0
    5.7579   -1.8078   20.4871 C   0  0  0  0  0  0  0  0  0  0  0  0
    6.2420   -2.0653   24.4373 C   0  0  0  0  0  0  0  0  0  0  0  0
    7.4298   -1.5496   23.9444 C   0  0  0  0  0  0  0  0  0  0  0  0
    5.2327   -3.2453   22.5001 C   0  0  0  0  0  0  0  0  0  0  0  0
    7.6849   -5.0299   25.2683 C   0  0  0  0  0  0  0  0  0  0  0  0
    5.9646   -5.2441   26.9540 C   0  0  0  0  0  0  0  0  0  0  0  0
    8.7779   -5.0415   26.3318 C   0  0  0  0  0  0  0  0  0  0  0  0
    7.0076   -5.2620   28.0665 C   0  0  0  0  0  0  0  0  0  0  0  0
    9.6914   -2.6450   21.1496 C   0  0  0  0  0  0  0  0  0  0  0  0
    9.3529   -5.9373   28.5893 C   0  0  0  0  0  0  0  0  0  0  0  0
    9.2739   -1.7637   22.2772 C   0  0  0  0  0  0  0  0  0  0  0  0
    5.4094   -4.4247   24.7573 C   0  0  0  0  0  0  0  0  0  0  0  0
    5.1607    0.9939   28.0222 N   0  0  0  0  0  0  0  0  0  0  0  0
    6.1386   -2.7369   18.2877 N   0  0  0  0  0  0  0  0  0  0  0  0
    8.0387   -0.4476   24.4367 N   0  0  0  0  0  0  0  0  0  0  0  0
    6.4353   -4.4689   25.7987 N   0  0  0  0  0  0  0  0  0  0  0  0
    5.4598   -2.0209   21.8565 N   0  0  0  0  0  0  0  0  0  0  0  0
    8.0509   -2.2138   22.8565 N   0  0  0  0  0  0  0  0  0  0  0  0
    5.6205   -3.2514   23.8804 N   0  0  0  0  0  0  0  0  0  0  0  0
    8.2972   -5.8266   27.5262 N   0  0  0  0  0  0  0  0  0  0  0  0
    4.6990   -4.2047   21.9399 O   0  0  0  0  0  0  0  0  0  0  0  0
  1  8  1  0
  1 21  3  0
  2  3  2  0
  2  5  1  0
  3  9  1  0
  4  8  2  0
  4 10  1  0
  5 22  2  0
  6  8  1  0
  6 23  2  0
  7  9  2  0
  7 22  1  0
  9 25  1  0
 10 11  2  0
 10 27  1  0
 11 23  1  0
 11 26  1  0
 12 25  1  0
 12 27  1  0
 12 29  2  0
 13 15  1  0
 13 24  1  0
 14 16  1  0
 14 24  1  0
 15 28  1  0
 16 28  1  0
 17 19  1  0
 18 28  1  0
 19 26  1  0
 20 24  1  0
 20 27  1  0
M  CHG  1  28   1
M  END
