JOR-UNI-61e7b1d5-31
     RDKit          3D

 29 31  0  0  0  0  0  0  0  0999 V2000
   12.9719   -1.6773   25.5910 C   0  0  0  0  0  0  0  0  0  0  0  0
    6.6222   -0.3604   19.6371 C   0  0  0  0  0  0  0  0  0  0  0  0
    7.5819   -0.8545   20.5134 C   0  0  0  0  0  0  0  0  0  0  0  0
   11.0213   -2.8360   24.6599 C   0  0  0  0  0  0  0  0  0  0  0  0
    5.5853   -1.2025   19.2689 C   0  0  0  0  0  0  0  0  0  0  0  0
   10.7702   -0.6143   25.4709 C   0  0  0  0  0  0  0  0  0  0  0  0
    6.4017   -2.9187   20.5597 C   0  0  0  0  0  0  0  0  0  0  0  0
   11.5894   -1.7080   25.2415 C   0  0  0  0  0  0  0  0  0  0  0  0
    7.4770   -2.1571   20.9882 C   0  0  0  0  0  0  0  0  0  0  0  0
    9.6706   -2.8359   24.3302 C   0  0  0  0  0  0  0  0  0  0  0  0
    8.9373   -1.6918   24.6006 C   0  0  0  0  0  0  0  0  0  0  0  0
    8.4683   -3.9716   22.4414 C   0  0  0  0  0  0  0  0  0  0  0  0
    4.1107   -6.3235   23.5567 C   0  0  0  0  0  0  0  0  0  0  0  0
    5.3762   -6.7486   22.8196 C   0  0  0  0  0  0  0  0  0  0  0  0
    4.3324   -5.0306   24.3343 C   0  0  0  0  0  0  0  0  0  0  0  0
    6.5700   -6.8446   23.7588 C   0  0  0  0  0  0  0  0  0  0  0  0
    5.5301   -5.1325   25.2677 C   0  0  0  0  0  0  0  0  0  0  0  0
    5.3195   -0.8255   24.0649 C   0  0  0  0  0  0  0  0  0  0  0  0
    6.7180   -0.5554   24.5054 C   0  0  0  0  0  0  0  0  0  0  0  0
    9.2121   -5.2887   24.4572 C   0  0  0  0  0  0  0  0  0  0  0  0
    7.9918   -5.5255   25.3268 C   0  0  0  0  0  0  0  0  0  0  0  0
   14.0968   -1.6523   25.8754 N   0  0  0  0  0  0  0  0  0  0  0  0
    5.4498   -2.4735   19.7092 N   0  0  0  0  0  0  0  0  0  0  0  0
    9.4541   -0.5770   25.1643 N   0  0  0  0  0  0  0  0  0  0  0  0
    8.4389   -2.6883   21.8813 N   0  0  0  0  0  0  0  0  0  0  0  0
    7.5590   -1.6824   24.2680 N   0  0  0  0  0  0  0  0  0  0  0  0
    9.0794   -4.0094   23.7251 N   0  0  0  0  0  0  0  0  0  0  0  0
    6.7531   -5.5268   24.4740 N   0  0  0  0  0  0  0  0  0  0  0  0
    8.0259   -4.9749   21.8795 O   0  0  0  0  0  0  0  0  0  0  0  0
  1  8  1  0
  1 22  3  0
  2  3  2  0
  2  5  1  0
  3  9  1  0
  4  8  2  0
  4 10  1  0
  5 23  2  0
  6  8  1  0
  6 24  2  0
  7  9  2  0
  7 23  1  0
  9 25  1  0
 10 11  2  0
 10 27  1  0
 11 24  1  0
 11 26  1  0
 12 25  1  0
 12 27  1  0
 12 29  2  0
 13 14  1  0
 13 15  1  0
 14 16  1  0
 15 17  1  0
 16 28  1  0
 17 28  1  0
 18 19  1  0
 19 26  1  0
 20 21  1  0
 20 27  1  0
 21 28  1  0
M  CHG  1  28   1
M  END
