JOR-UNI-61e7b1d5-17
     RDKit          3D

 29 31  0  0  0  0  0  0  0  0999 V2000
   13.4028    1.0915   23.8852 C   0  0  0  0  0  0  0  0  0  0  0  0
    6.4148   -0.1334   18.6725 C   0  0  0  0  0  0  0  0  0  0  0  0
    7.5112   -0.2350   19.5217 C   0  0  0  0  0  0  0  0  0  0  0  0
   11.5616   -0.4995   23.5805 C   0  0  0  0  0  0  0  0  0  0  0  0
    5.4800   -1.1558   18.6952 C   0  0  0  0  0  0  0  0  0  0  0  0
   11.0699    1.8211   23.7534 C   0  0  0  0  0  0  0  0  0  0  0  0
    6.6477   -2.3086   20.3032 C   0  0  0  0  0  0  0  0  0  0  0  0
   12.0129    0.8059   23.7399 C   0  0  0  0  0  0  0  0  0  0  0  0
    7.6374   -1.3403   20.3557 C   0  0  0  0  0  0  0  0  0  0  0  0
   10.2003   -0.7464   23.4412 C   0  0  0  0  0  0  0  0  0  0  0  0
    9.3385    0.3381   23.4682 C   0  0  0  0  0  0  0  0  0  0  0  0
    9.0062   -2.5186   22.1234 C   0  0  0  0  0  0  0  0  0  0  0  0
    6.5329   -3.2467   25.5851 C   0  0  0  0  0  0  0  0  0  0  0  0
    7.7080   -5.0320   24.3149 C   0  0  0  0  0  0  0  0  0  0  0  0
    5.2721   -3.6269   24.8277 C   0  0  0  0  0  0  0  0  0  0  0  0
    6.3862   -5.3204   23.6234 C   0  0  0  0  0  0  0  0  0  0  0  0
    5.6005    0.6012   23.1798 C   0  0  0  0  0  0  0  0  0  0  0  0
    6.9801    1.1427   23.3415 C   0  0  0  0  0  0  0  0  0  0  0  0
   10.1111   -3.0849   24.3166 C   0  0  0  0  0  0  0  0  0  0  0  0
    9.0215   -3.1849   25.3674 C   0  0  0  0  0  0  0  0  0  0  0  0
   14.5336    1.3239   24.0034 N   0  0  0  0  0  0  0  0  0  0  0  0
    5.5685   -2.2447   19.4915 N   0  0  0  0  0  0  0  0  0  0  0  0
    9.7396    1.6201   23.6211 N   0  0  0  0  0  0  0  0  0  0  0  0
    8.7426   -1.4719   21.2311 N   0  0  0  0  0  0  0  0  0  0  0  0
    7.9486    0.0960   23.3272 N   0  0  0  0  0  0  0  0  0  0  0  0
    9.7306   -2.1046   23.2753 N   0  0  0  0  0  0  0  0  0  0  0  0
    7.7252   -3.5761   24.7180 N   0  0  0  0  0  0  0  0  0  0  0  0
    8.6627   -3.6860   21.9310 O   0  0  0  0  0  0  0  0  0  0  0  0
    5.2911   -5.0141   24.4878 O   0  0  0  0  0  0  0  0  0  0  0  0
  1  8  1  0
  1 21  3  0
  2  3  2  0
  2  5  1  0
  3  9  1  0
  4  8  2  0
  4 10  1  0
  5 22  2  0
  6  8  1  0
  6 23  2  0
  7  9  2  0
  7 22  1  0
  9 24  1  0
 10 11  2  0
 10 26  1  0
 11 23  1  0
 11 25  1  0
 12 24  1  0
 12 26  1  0
 12 28  2  0
 13 15  1  0
 13 27  1  0
 14 16  1  0
 14 27  1  0
 15 29  1  0
 16 29  1  0
 17 18  1  0
 18 25  1  0
 19 20  1  0
 19 26  1  0
 20 27  1  0
M  CHG  1  27   1
M  END
