JOR-UNI-2fc98d0b-13
     RDKit          3D

 26 28  0  0  0  0  0  0  0  0999 V2000
   13.5984    0.4193   23.5270 C   0  0  0  0  0  0  0  0  0  0  0  0
    5.6838    0.2427   18.9270 C   0  0  0  0  0  0  0  0  0  0  0  0
   12.3456    0.2545   22.9365 C   0  0  0  0  0  0  0  0  0  0  0  0
    6.4372    0.0540   20.0803 C   0  0  0  0  0  0  0  0  0  0  0  0
   14.2534   -0.6758   24.0905 C   0  0  0  0  0  0  0  0  0  0  0  0
   12.4024   -2.1005   23.4730 C   0  0  0  0  0  0  0  0  0  0  0  0
    6.3569    0.3225   17.7185 C   0  0  0  0  0  0  0  0  0  0  0  0
    8.3984    0.0448   18.7350 C   0  0  0  0  0  0  0  0  0  0  0  0
   11.7476   -1.0054   22.9095 C   0  0  0  0  0  0  0  0  0  0  0  0
    7.8210   -0.0478   19.9911 C   0  0  0  0  0  0  0  0  0  0  0  0
   13.6554   -1.9357   24.0635 C   0  0  0  0  0  0  0  0  0  0  0  0
   10.0085   -0.3601   21.2176 C   0  0  0  0  0  0  0  0  0  0  0  0
    6.6306   -3.9567   26.3073 C   0  0  0  0  0  0  0  0  0  0  0  0
    8.1570   -5.6271   25.2079 C   0  0  0  0  0  0  0  0  0  0  0  0
    7.6018   -2.8409   25.9545 C   0  0  0  0  0  0  0  0  0  0  0  0
    9.1246   -4.5075   24.8574 C   0  0  0  0  0  0  0  0  0  0  0  0
    7.3410   -5.2988   26.4557 C   0  0  0  0  0  0  0  0  0  0  0  0
    9.6132   -2.2978   22.7799 C   0  0  0  0  0  0  0  0  0  0  0  0
    9.2512   -2.0947   24.2390 C   0  0  0  0  0  0  0  0  0  0  0  0
    7.6995    0.2280   17.5923 N   0  0  0  0  0  0  0  0  0  0  0  0
    8.6149   -0.2399   21.1478 N   0  0  0  0  0  0  0  0  0  0  0  0
   10.4477   -1.1747   22.2976 N   0  0  0  0  0  0  0  0  0  0  0  0
    8.3595   -3.2140   24.7016 N   0  0  0  0  0  0  0  0  0  0  0  0
   10.7840    0.1930   20.4363 O   0  0  0  0  0  0  0  0  0  0  0  0
    6.3648   -6.3112   26.6721 O   0  0  0  0  0  0  0  0  0  0  0  0
   14.4633   -3.2870   24.7587 Cl  0  0  0  0  0  0  0  0  0  0  0  0
  1  3  2  0
  1  5  1  0
  2  4  2  0
  2  7  1  0
  3  9  1  0
  4 10  1  0
  5 11  2  0
  6  9  2  0
  6 11  1  0
  7 20  2  0
  8 10  2  0
  8 20  1  0
  9 22  1  0
 10 21  1  0
 11 26  1  0
 12 21  1  0
 12 22  1  0
 12 24  2  0
 13 15  1  0
 13 17  1  0
 14 16  1  0
 14 17  1  0
 15 23  1  0
 16 23  1  0
 17 25  1  0
 18 19  1  0
 18 22  1  0
 19 23  1  0
M  CHG  1  23   1
M  END
