JOR-UNI-61e7b1d5-22
     RDKit          3D

 26 28  0  0  0  0  0  0  0  0999 V2000
    6.0298   -6.4608   25.3888 C   0  0  0  0  0  0  0  0  0  0  0  0
    5.8959   -6.2201   21.6766 C   0  0  0  0  0  0  0  0  0  0  0  0
   13.2200   -2.2723   25.4532 C   0  0  0  0  0  0  0  0  0  0  0  0
    5.6110   -6.6122   22.9845 C   0  0  0  0  0  0  0  0  0  0  0  0
    6.8926   -5.2751   21.4332 C   0  0  0  0  0  0  0  0  0  0  0  0
   12.1298   -2.7443   24.7308 C   0  0  0  0  0  0  0  0  0  0  0  0
    7.3193   -5.1140   23.8058 C   0  0  0  0  0  0  0  0  0  0  0  0
   13.5792   -0.9439   25.2914 C   0  0  0  0  0  0  0  0  0  0  0  0
   11.8805   -0.5746   23.7894 C   0  0  0  0  0  0  0  0  0  0  0  0
    6.3226   -6.0591   24.0491 C   0  0  0  0  0  0  0  0  0  0  0  0
    7.6043   -4.7220   22.4978 C   0  0  0  0  0  0  0  0  0  0  0  0
   11.4418   -1.8857   23.8806 C   0  0  0  0  0  0  0  0  0  0  0  0
    9.7703   -3.6223   23.1175 C   0  0  0  0  0  0  0  0  0  0  0  0
    5.7079   -1.9714   19.9832 C   0  0  0  0  0  0  0  0  0  0  0  0
    7.6251   -0.6301   19.0339 C   0  0  0  0  0  0  0  0  0  0  0  0
    6.2974   -1.8130   21.3791 C   0  0  0  0  0  0  0  0  0  0  0  0
    8.2039   -0.4787   20.4351 C   0  0  0  0  0  0  0  0  0  0  0  0
    6.1049   -0.8385   19.0272 C   0  0  0  0  0  0  0  0  0  0  0  0
    5.3561    0.4583   19.3482 C   0  0  0  0  0  0  0  0  0  0  0  0
    8.5457   -2.9058   21.0348 C   0  0  0  0  0  0  0  0  0  0  0  0
    5.7918   -6.7870   26.4768 N   0  0  0  0  0  0  0  0  0  0  0  0
   12.9353   -0.0798   24.4752 N   0  0  0  0  0  0  0  0  0  0  0  0
   10.3278   -2.3374   23.1316 N   0  0  0  0  0  0  0  0  0  0  0  0
    8.6433   -3.7385   22.2437 N   0  0  0  0  0  0  0  0  0  0  0  0
    7.7939   -1.6324   21.3164 N   0  0  0  0  0  0  0  0  0  0  0  0
   10.2006   -4.5619   23.7887 O   0  0  0  0  0  0  0  0  0  0  0  0
  1 10  1  0
  1 21  3  0
  2  4  2  0
  2  5  1  0
  3  6  2  0
  3  8  1  0
  4 10  1  0
  5 11  2  0
  6 12  1  0
  7 10  2  0
  7 11  1  0
  8 22  2  0
  9 12  2  0
  9 22  1  0
 11 24  1  0
 12 23  1  0
 13 23  1  0
 13 24  1  0
 13 26  2  0
 14 16  1  0
 14 18  1  0
 15 17  1  0
 15 18  1  0
 16 25  1  0
 17 25  1  0
 18 19  1  0
 20 24  1  0
 20 25  1  0
M  CHG  1  25   1
M  END
