JOR-UNI-2fc98d0b-3
     RDKit          3D

 25 27  0  0  0  0  0  0  0  0999 V2000
   13.7731   -1.1380   24.3778 C   0  0  0  0  0  0  0  0  0  0  0  0
    5.7288    0.9446   19.3093 C   0  0  0  0  0  0  0  0  0  0  0  0
   12.4519   -0.7313   24.1917 C   0  0  0  0  0  0  0  0  0  0  0  0
    6.5349    0.9194   20.4419 C   0  0  0  0  0  0  0  0  0  0  0  0
   14.5358   -1.5518   23.2857 C   0  0  0  0  0  0  0  0  0  0  0  0
   12.6560   -1.1525   21.8215 C   0  0  0  0  0  0  0  0  0  0  0  0
    6.3172    0.6587   18.0879 C   0  0  0  0  0  0  0  0  0  0  0  0
    8.3776    0.3419   19.0537 C   0  0  0  0  0  0  0  0  0  0  0  0
   11.8933   -0.7386   22.9136 C   0  0  0  0  0  0  0  0  0  0  0  0
    7.8857    0.6133   20.3203 C   0  0  0  0  0  0  0  0  0  0  0  0
   13.9773   -1.5592   22.0076 C   0  0  0  0  0  0  0  0  0  0  0  0
   10.1019    0.2906   21.4935 C   0  0  0  0  0  0  0  0  0  0  0  0
    7.7154   -3.7184   22.5965 C   0  0  0  0  0  0  0  0  0  0  0  0
    8.2424   -3.9492   25.0455 C   0  0  0  0  0  0  0  0  0  0  0  0
    8.0579   -2.2383   22.6650 C   0  0  0  0  0  0  0  0  0  0  0  0
    8.5839   -2.4687   25.1084 C   0  0  0  0  0  0  0  0  0  0  0  0
    7.2309   -4.2496   23.9423 C   0  0  0  0  0  0  0  0  0  0  0  0
    9.5418   -0.5800   23.7911 C   0  0  0  0  0  0  0  0  0  0  0  0
    7.6255    0.3569   17.9304 N   0  0  0  0  0  0  0  0  0  0  0  0
    8.7320    0.5800   21.4556 N   0  0  0  0  0  0  0  0  0  0  0  0
   10.5165   -0.3157   22.7213 N   0  0  0  0  0  0  0  0  0  0  0  0
    9.0778   -2.0102   23.7561 N   0  0  0  0  0  0  0  0  0  0  0  0
   10.8780    0.5328   20.5674 O   0  0  0  0  0  0  0  0  0  0  0  0
    7.0382   -5.6554   23.8361 O   0  0  0  0  0  0  0  0  0  0  0  0
   14.9183   -2.0698   20.6600 Cl  0  0  0  0  0  0  0  0  0  0  0  0
  1  3  2  0
  1  5  1  0
  2  4  2  0
  2  7  1  0
  3  9  1  0
  4 10  1  0
  5 11  2  0
  6  9  2  0
  6 11  1  0
  7 19  2  0
  8 10  2  0
  8 19  1  0
  9 21  1  0
 10 20  1  0
 11 25  1  0
 12 20  1  0
 12 21  1  0
 12 23  2  0
 13 15  1  0
 13 17  1  0
 14 16  1  0
 14 17  1  0
 15 22  1  0
 16 22  1  0
 17 24  1  0
 18 21  1  0
 18 22  1  0
M  CHG  1  22   1
M  END
