JOR-UNI-61e7b1d5-25
     RDKit          3D

 30 32  0  0  0  0  0  0  0  0999 V2000
   12.0099   -1.0754   22.2737 C   0  0  0  0  0  0  0  0  0  0  0  0
    7.0995   -0.2242   18.4836 C   0  0  0  0  0  0  0  0  0  0  0  0
    7.3601   -0.1541   19.8475 C   0  0  0  0  0  0  0  0  0  0  0  0
    9.8080   -1.5886   23.2239 C   0  0  0  0  0  0  0  0  0  0  0  0
    6.3564   -1.2977   18.0196 C   0  0  0  0  0  0  0  0  0  0  0  0
   11.1915    0.0142   24.3071 C   0  0  0  0  0  0  0  0  0  0  0  0
    6.1432   -2.1777   20.1311 C   0  0  0  0  0  0  0  0  0  0  0  0
   11.0051   -0.8827   23.2676 C   0  0  0  0  0  0  0  0  0  0  0  0
    6.8764   -1.1455   20.6939 C   0  0  0  0  0  0  0  0  0  0  0  0
    8.8475   -1.3791   24.2071 C   0  0  0  0  0  0  0  0  0  0  0  0
    9.1305   -0.4601   25.2047 C   0  0  0  0  0  0  0  0  0  0  0  0
    6.7082   -2.0190   23.0594 C   0  0  0  0  0  0  0  0  0  0  0  0
    5.3904   -6.1223   22.7419 C   0  0  0  0  0  0  0  0  0  0  0  0
    7.6859   -6.4109   21.7538 C   0  0  0  0  0  0  0  0  0  0  0  0
    6.0140   -5.6465   24.0447 C   0  0  0  0  0  0  0  0  0  0  0  0
    8.3042   -5.9342   23.0588 C   0  0  0  0  0  0  0  0  0  0  0  0
    6.3219   -7.0588   21.9781 C   0  0  0  0  0  0  0  0  0  0  0  0
    7.2642    0.4450   28.3388 C   0  0  0  0  0  0  0  0  0  0  0  0
    8.4756    0.3369   27.4766 C   0  0  0  0  0  0  0  0  0  0  0  0
    7.3261   -3.0486   25.2752 C   0  0  0  0  0  0  0  0  0  0  0  0
    7.9546   -4.4004   24.9941 C   0  0  0  0  0  0  0  0  0  0  0  0
   12.8273   -1.2323   21.4650 N   0  0  0  0  0  0  0  0  0  0  0  0
    5.8698   -2.2798   18.8110 N   0  0  0  0  0  0  0  0  0  0  0  0
   10.2818    0.2445   25.2803 N   0  0  0  0  0  0  0  0  0  0  0  0
    7.1257   -1.1015   22.0871 N   0  0  0  0  0  0  0  0  0  0  0  0
    8.1571   -0.2400   26.2118 N   0  0  0  0  0  0  0  0  0  0  0  0
    7.6020   -2.1135   24.1618 N   0  0  0  0  0  0  0  0  0  0  0  0
    7.3460   -4.9954   23.7540 N   0  0  0  0  0  0  0  0  0  0  0  0
    5.6802   -2.6921   22.9700 O   0  0  0  0  0  0  0  0  0  0  0  0
    5.7267   -7.3730   20.7244 O   0  0  0  0  0  0  0  0  0  0  0  0
  1  8  1  0
  1 22  3  0
  2  3  2  0
  2  5  1  0
  3  9  1  0
  4  8  2  0
  4 10  1  0
  5 23  2  0
  6  8  1  0
  6 24  2  0
  7  9  2  0
  7 23  1  0
  9 25  1  0
 10 11  2  0
 10 27  1  0
 11 24  1  0
 11 26  1  0
 12 25  1  0
 12 27  1  0
 12 29  2  0
 13 15  1  0
 13 17  1  0
 14 16  1  0
 14 17  1  0
 15 28  1  0
 16 28  1  0
 17 30  1  0
 18 19  1  0
 19 26  1  0
 20 21  1  0
 20 27  1  0
 21 28  1  0
M  CHG  1  28   1
M  END
