JOR-UNI-61e7b1d5-13
     RDKit          3D

 28 30  0  0  0  0  0  0  0  0999 V2000
    9.9920   -5.8874   25.5821 C   0  0  0  0  0  0  0  0  0  0  0  0
    6.3069    1.0903   18.3641 C   0  0  0  0  0  0  0  0  0  0  0  0
    6.7180    0.7462   19.6470 C   0  0  0  0  0  0  0  0  0  0  0  0
    8.7781   -4.1020   24.4191 C   0  0  0  0  0  0  0  0  0  0  0  0
    5.8645    0.0755   17.5308 C   0  0  0  0  0  0  0  0  0  0  0  0
    7.5677   -5.9712   25.2542 C   0  0  0  0  0  0  0  0  0  0  0  0
    6.2157   -1.5231   19.1430 C   0  0  0  0  0  0  0  0  0  0  0  0
    8.7801   -5.3219   25.0862 C   0  0  0  0  0  0  0  0  0  0  0  0
    6.6747   -0.5833   20.0518 C   0  0  0  0  0  0  0  0  0  0  0  0
    7.5806   -3.5760   23.9471 C   0  0  0  0  0  0  0  0  0  0  0  0
    6.4219   -4.3036   24.1659 C   0  0  0  0  0  0  0  0  0  0  0  0
    7.1006   -2.2554   21.9003 C   0  0  0  0  0  0  0  0  0  0  0  0
   10.0419   -0.1841   24.9995 C   0  0  0  0  0  0  0  0  0  0  0  0
   10.0110   -0.6200   22.6163 C   0  0  0  0  0  0  0  0  0  0  0  0
   11.5658   -0.1611   25.0069 C   0  0  0  0  0  0  0  0  0  0  0  0
   11.5341   -0.6085   22.5629 C   0  0  0  0  0  0  0  0  0  0  0  0
    4.3093   -5.6613   22.4847 C   0  0  0  0  0  0  0  0  0  0  0  0
    4.0397   -4.5833   23.4787 C   0  0  0  0  0  0  0  0  0  0  0  0
    8.0691   -1.1014   23.9612 C   0  0  0  0  0  0  0  0  0  0  0  0
   10.9781   -6.3475   25.9857 N   0  0  0  0  0  0  0  0  0  0  0  0
    5.8081   -1.2270   17.8885 N   0  0  0  0  0  0  0  0  0  0  0  0
    6.3845   -5.4918   24.8096 N   0  0  0  0  0  0  0  0  0  0  0  0
    9.5307   -1.0600   23.9347 N   0  0  0  0  0  0  0  0  0  0  0  0
    7.0873   -0.9648   21.3532 N   0  0  0  0  0  0  0  0  0  0  0  0
    5.1961   -3.7753   23.6879 N   0  0  0  0  0  0  0  0  0  0  0  0
    7.5783   -2.3036   23.2513 N   0  0  0  0  0  0  0  0  0  0  0  0
   12.0520    0.2597   23.6604 N   0  0  0  0  0  0  0  0  0  0  0  0
    6.6876   -3.2433   21.2898 O   0  0  0  0  0  0  0  0  0  0  0  0
  1  8  1  0
  1 20  3  0
  2  3  2  0
  2  5  1  0
  3  9  1  0
  4  8  2  0
  4 10  1  0
  5 21  2  0
  6  8  1  0
  6 22  2  0
  7  9  2  0
  7 21  1  0
  9 24  1  0
 10 11  2  0
 10 26  1  0
 11 22  1  0
 11 25  1  0
 12 24  1  0
 12 26  1  0
 12 28  2  0
 13 15  1  0
 13 23  1  0
 14 16  1  0
 14 23  1  0
 15 27  1  0
 16 27  1  0
 17 18  1  0
 18 25  1  0
 19 23  1  0
 19 26  1  0
M  CHG  1  27   1
M  END
