JOR-WAB-5f511e4e-1
     RDKit          3D

 28 30  0  0  1  0  0  0  0  0999 V2000
    9.1271    1.7739   24.6537 C   0  0  0  0  0  0  0  0  0  0  0  0
    8.4042    1.7520   25.8464 C   0  0  0  0  0  0  0  0  0  0  0  0
    7.4679    0.0555   17.7800 C   0  0  0  0  0  0  0  0  0  0  0  0
    8.6954    2.5676   23.5909 C   0  0  0  0  0  0  0  0  0  0  0  0
    8.4419   -0.4934   18.6141 C   0  0  0  0  0  0  0  0  0  0  0  0
    6.4128    0.7861   18.3266 C   0  0  0  0  0  0  0  0  0  0  0  0
    7.2495    2.5236   25.9763 C   0  0  0  0  0  0  0  0  0  0  0  0
    7.3057    0.4189   20.5413 C   0  0  0  0  0  0  0  0  0  0  0  0
    8.3608   -0.3117   19.9947 C   0  0  0  0  0  0  0  0  0  0  0  0
    6.3318    0.9678   19.7072 C   0  0  0  0  0  0  0  0  0  0  0  0
    7.5406    3.3392   23.7209 C   0  0  0  0  0  0  0  0  0  0  0  0
    6.8177    3.3173   24.9136 C   0  0  0  0  0  0  0  0  0  0  0  0
   11.6880   -1.6789   22.4932 C   0  0  0  0  0  0  0  0  0  0  0  0
   12.7192    0.4174   22.1639 C   0  0  0  0  0  0  0  0  0  0  0  0
   12.7362   -2.0686   23.2402 C   0  0  0  0  0  0  0  0  0  0  0  0
   13.7622    0.0186   22.9120 C   0  0  0  0  0  0  0  0  0  0  0  0
   10.5600    0.0518   21.1166 C   0  0  0  0  0  0  0  0  0  0  0  0
    8.1230    5.2227   22.1378 C   0  0  0  0  0  0  0  0  0  0  0  0
   14.9346   -1.6569   24.3249 C   0  0  0  0  0  0  0  0  0  0  0  0
    9.4084   -0.9004   20.8899 C   0  0  0  0  0  0  0  0  0  0  0  0
    5.2031    1.7486   20.2915 C   0  0  0  0  0  0  0  0  0  0  0  0
    5.5518    2.4775   21.5900 C   0  0  0  0  0  0  0  0  0  0  0  0
    7.0762    4.1979   22.5672 C   0  0  0  0  0  0  0  0  0  0  0  0
   11.6204   -0.4116   21.9060 N   0  0  0  0  0  0  0  0  0  0  0  0
   13.8275   -1.2465   23.4744 N   0  0  0  0  0  0  0  0  0  0  0  0
    6.6957    3.3970   21.3719 N   0  0  0  0  0  0  0  0  0  0  0  0
   10.5159    1.1748   20.6049 O   0  0  0  0  0  0  0  0  0  0  0  0
    5.7071    4.0554   25.0479 F   0  0  0  0  0  0  0  0  0  0  0  0
  1  2  2  0
  1  4  1  0
  2  7  1  0
  3  5  2  0
  3  6  1  0
  4 11  2  0
  5  9  1  0
  6 10  2  0
  7 12  2  0
  8  9  2  0
  8 10  1  0
  9 20  1  0
 10 21  1  0
 11 12  1  0
 11 23  1  0
 12 28  1  0
 13 15  2  0
 13 24  1  0
 14 16  2  0
 14 24  1  0
 15 25  1  0
 16 25  1  0
 17 20  1  0
 17 24  1  0
 17 27  2  0
 18 23  1  0
 19 25  1  0
 21 22  1  0
 22 26  1  0
 23 26  1  0
M  CHG  1  26   1
M  END
