JOR-UNI-61e7b1d5-7
     RDKit          3D

 23 24  0  0  0  0  0  0  0  0999 V2000
    9.6307   -5.6052   26.3425 C   0  0  0  0  0  0  0  0  0  0  0  0
    8.8461   -6.0003   22.7253 C   0  0  0  0  0  0  0  0  0  0  0  0
    6.4587    1.0073   18.3075 C   0  0  0  0  0  0  0  0  0  0  0  0
    9.2547   -6.2929   24.0264 C   0  0  0  0  0  0  0  0  0  0  0  0
    8.3952   -4.7191   22.4073 C   0  0  0  0  0  0  0  0  0  0  0  0
    6.7795    0.6981   19.6246 C   0  0  0  0  0  0  0  0  0  0  0  0
    8.7615   -4.0233   24.6918 C   0  0  0  0  0  0  0  0  0  0  0  0
    6.0207   -0.0207   17.4882 C   0  0  0  0  0  0  0  0  0  0  0  0
    6.2072   -1.5665   19.1775 C   0  0  0  0  0  0  0  0  0  0  0  0
    9.2124   -5.3045   25.0097 C   0  0  0  0  0  0  0  0  0  0  0  0
    8.3529   -3.7307   23.3906 C   0  0  0  0  0  0  0  0  0  0  0  0
    6.6542   -0.6111   20.0758 C   0  0  0  0  0  0  0  0  0  0  0  0
   10.2449   -0.7921   22.3027 C   0  0  0  0  0  0  0  0  0  0  0  0
    6.8989   -2.2214   22.0081 C   0  0  0  0  0  0  0  0  0  0  0  0
    9.8523   -1.0702   23.7054 C   0  0  0  0  0  0  0  0  0  0  0  0
    8.3481   -1.2726   23.8387 C   0  0  0  0  0  0  0  0  0  0  0  0
    9.9704   -5.8493   27.4250 N   0  0  0  0  0  0  0  0  0  0  0  0
    5.8861   -1.3042   17.8907 N   0  0  0  0  0  0  0  0  0  0  0  0
   10.5998   -1.8192   21.5445 N   0  0  0  0  0  0  0  0  0  0  0  0
    6.9735   -0.9566   21.4114 N   0  0  0  0  0  0  0  0  0  0  0  0
    7.8801   -2.3835   23.0556 N   0  0  0  0  0  0  0  0  0  0  0  0
   10.2178    0.4687   21.8952 N   0  0  0  0  0  0  0  0  0  0  0  0
    6.0905   -3.0895   21.6754 O   0  0  0  0  0  0  0  0  0  0  0  0
  1 10  1  0
  1 17  3  0
  2  4  2  0
  2  5  1  0
  3  6  2  0
  3  8  1  0
  4 10  1  0
  5 11  2  0
  6 12  1  0
  7 10  2  0
  7 11  1  0
  8 18  2  0
  9 12  2  0
  9 18  1  0
 11 21  1  0
 12 20  1  0
 13 15  1  0
 13 19  1  0
 13 22  2  0
 14 20  1  0
 14 21  1  0
 14 23  2  0
 15 16  1  0
 16 21  1  0
M  CHG  1  22   1
M  END
