JOR-UNI-61e7b1d5-24
     RDKit          3D

 27 29  0  0  0  0  0  0  0  0999 V2000
   12.5739   -1.4242   21.5453 C   0  0  0  0  0  0  0  0  0  0  0  0
   11.7239    0.5131   24.6080 C   0  0  0  0  0  0  0  0  0  0  0  0
    7.1795   -0.1326   18.6530 C   0  0  0  0  0  0  0  0  0  0  0  0
   12.4271    0.0330   23.5032 C   0  0  0  0  0  0  0  0  0  0  0  0
   10.4466    0.0268   24.8869 C   0  0  0  0  0  0  0  0  0  0  0  0
    7.7223    0.0404   19.9213 C   0  0  0  0  0  0  0  0  0  0  0  0
   10.5758   -1.4197   22.9560 C   0  0  0  0  0  0  0  0  0  0  0  0
    6.2043   -1.1035   18.4918 C   0  0  0  0  0  0  0  0  0  0  0  0
    6.2998   -1.6949   20.7097 C   0  0  0  0  0  0  0  0  0  0  0  0
   11.8531   -0.9333   22.6772 C   0  0  0  0  0  0  0  0  0  0  0  0
    9.8726   -0.9396   24.0608 C   0  0  0  0  0  0  0  0  0  0  0  0
    7.2796   -0.7518   20.9748 C   0  0  0  0  0  0  0  0  0  0  0  0
    7.4718   -1.3167   23.4306 C   0  0  0  0  0  0  0  0  0  0  0  0
    5.5157   -5.1350   23.9492 C   0  0  0  0  0  0  0  0  0  0  0  0
    7.4892   -5.9285   22.6058 C   0  0  0  0  0  0  0  0  0  0  0  0
    6.4579   -4.6356   25.0333 C   0  0  0  0  0  0  0  0  0  0  0  0
    8.4269   -5.4271   23.6930 C   0  0  0  0  0  0  0  0  0  0  0  0
    6.1189   -6.2986   23.1679 C   0  0  0  0  0  0  0  0  0  0  0  0
    8.3699   -2.1887   25.6180 C   0  0  0  0  0  0  0  0  0  0  0  0
    8.7170   -3.6523   25.4210 C   0  0  0  0  0  0  0  0  0  0  0  0
   13.1593   -1.8230   20.6260 N   0  0  0  0  0  0  0  0  0  0  0  0
    5.7488   -1.8920   19.4910 N   0  0  0  0  0  0  0  0  0  0  0  0
    7.8135   -0.5992   22.2774 N   0  0  0  0  0  0  0  0  0  0  0  0
    8.5484   -1.4446   24.3511 N   0  0  0  0  0  0  0  0  0  0  0  0
    7.7842   -4.2641   24.4121 N   0  0  0  0  0  0  0  0  0  0  0  0
    6.3581   -1.8048   23.6292 O   0  0  0  0  0  0  0  0  0  0  0  0
    5.2384   -6.6394   22.1033 O   0  0  0  0  0  0  0  0  0  0  0  0
  1 10  1  0
  1 21  3  0
  2  4  2  0
  2  5  1  0
  3  6  2  0
  3  8  1  0
  4 10  1  0
  5 11  2  0
  6 12  1  0
  7 10  2  0
  7 11  1  0
  8 22  2  0
  9 12  2  0
  9 22  1  0
 11 24  1  0
 12 23  1  0
 13 23  1  0
 13 24  1  0
 13 26  2  0
 14 16  1  0
 14 18  1  0
 15 17  1  0
 15 18  1  0
 16 25  1  0
 17 25  1  0
 18 27  1  0
 19 20  1  0
 19 24  1  0
 20 25  1  0
M  CHG  1  25   1
M  END
