JOR-UNI-61e7b1d5-9
     RDKit          3D

 23 25  0  0  0  0  0  0  0  0999 V2000
    6.3213   -2.6467   20.2347 C   0  0  0  0  0  0  0  0  0  0  0  0
    8.0333    0.6501   20.4715 C   0  0  0  0  0  0  0  0  0  0  0  0
    8.9130   -5.2266   26.5284 C   0  0  0  0  0  0  0  0  0  0  0  0
    7.1034   -0.3323   20.1314 C   0  0  0  0  0  0  0  0  0  0  0  0
    9.1346    0.3240   21.2631 C   0  0  0  0  0  0  0  0  0  0  0  0
    9.4104   -4.3476   25.5728 C   0  0  0  0  0  0  0  0  0  0  0  0
    8.3759   -1.9670   21.3747 C   0  0  0  0  0  0  0  0  0  0  0  0
    7.5915   -5.0807   26.9185 C   0  0  0  0  0  0  0  0  0  0  0  0
    7.2760   -3.3011   25.5002 C   0  0  0  0  0  0  0  0  0  0  0  0
    7.2747   -1.6409   20.5830 C   0  0  0  0  0  0  0  0  0  0  0  0
    9.3058   -0.9846   21.7147 C   0  0  0  0  0  0  0  0  0  0  0  0
    8.5828   -3.3635   25.0439 C   0  0  0  0  0  0  0  0  0  0  0  0
   10.3452   -2.3925   23.5149 C   0  0  0  0  0  0  0  0  0  0  0  0
   11.7600    2.1426   25.0590 C   0  0  0  0  0  0  0  0  0  0  0  0
   11.3323    2.4993   23.6627 C   0  0  0  0  0  0  0  0  0  0  0  0
   11.2696    1.0703   24.1260 C   0  0  0  0  0  0  0  0  0  0  0  0
   12.2390    0.0398   23.5647 C   0  0  0  0  0  0  0  0  0  0  0  0
   11.7083   -0.6470   22.3120 C   0  0  0  0  0  0  0  0  0  0  0  0
    5.5471   -3.4636   19.9517 N   0  0  0  0  0  0  0  0  0  0  0  0
    6.7572   -4.1372   26.4272 N   0  0  0  0  0  0  0  0  0  0  0  0
    9.0607   -2.4538   24.0696 N   0  0  0  0  0  0  0  0  0  0  0  0
   10.4648   -1.3274   22.5460 N   0  0  0  0  0  0  0  0  0  0  0  0
   11.2609   -3.1579   23.8205 O   0  0  0  0  0  0  0  0  0  0  0  0
  1 10  1  0
  1 19  3  0
  2  4  2  0
  2  5  1  0
  3  6  2  0
  3  8  1  0
  4 10  1  0
  5 11  2  0
  6 12  1  0
  7 10  2  0
  7 11  1  0
  8 20  2  0
  9 12  2  0
  9 20  1  0
 11 22  1  0
 12 21  1  0
 13 21  1  0
 13 22  1  0
 13 23  2  0
 14 15  1  0
 14 16  1  0
 15 16  1  0
 16 17  1  0
 17 18  1  0
 18 22  1  0
M  END
