JOR-UNI-61e7b1d5-26
     RDKit          3D

 26 28  0  0  0  0  0  0  0  0999 V2000
    6.4266   -2.0289   19.5545 C   0  0  0  0  0  0  0  0  0  0  0  0
    6.3309   -0.7108   23.0344 C   0  0  0  0  0  0  0  0  0  0  0  0
   14.5699   -2.9047   26.4828 C   0  0  0  0  0  0  0  0  0  0  0  0
    5.9901   -0.9446   21.7022 C   0  0  0  0  0  0  0  0  0  0  0  0
    7.4584   -1.3216   23.5834 C   0  0  0  0  0  0  0  0  0  0  0  0
   13.3774   -3.3739   25.9432 C   0  0  0  0  0  0  0  0  0  0  0  0
    7.9041   -2.4003   21.4681 C   0  0  0  0  0  0  0  0  0  0  0  0
   14.7595   -1.5334   26.5426 C   0  0  0  0  0  0  0  0  0  0  0  0
   12.7100   -1.1185   25.5911 C   0  0  0  0  0  0  0  0  0  0  0  0
    6.7767   -1.7894   20.9191 C   0  0  0  0  0  0  0  0  0  0  0  0
    8.2450   -2.1663   22.8003 C   0  0  0  0  0  0  0  0  0  0  0  0
   12.4244   -2.4703   25.4865 C   0  0  0  0  0  0  0  0  0  0  0  0
   10.1516   -2.1355   24.4333 C   0  0  0  0  0  0  0  0  0  0  0  0
    7.1892   -5.6440   22.2490 C   0  0  0  0  0  0  0  0  0  0  0  0
    6.9287   -5.8166   24.6517 C   0  0  0  0  0  0  0  0  0  0  0  0
    5.6819   -5.5154   22.0636 C   0  0  0  0  0  0  0  0  0  0  0  0
    5.4148   -5.6927   24.5276 C   0  0  0  0  0  0  0  0  0  0  0  0
    9.0608   -5.2091   23.7048 C   0  0  0  0  0  0  0  0  0  0  0  0
    9.7906   -4.1252   22.9293 C   0  0  0  0  0  0  0  0  0  0  0  0
    6.1423   -2.2234   18.4463 N   0  0  0  0  0  0  0  0  0  0  0  0
   13.8570   -0.6250   26.1092 N   0  0  0  0  0  0  0  0  0  0  0  0
    7.6093   -5.1130   23.5544 N   0  0  0  0  0  0  0  0  0  0  0  0
   11.2008   -2.9178   24.9319 N   0  0  0  0  0  0  0  0  0  0  0  0
    9.4308   -2.8072   23.3775 N   0  0  0  0  0  0  0  0  0  0  0  0
    4.9929   -6.2071   23.1919 N   0  0  0  0  0  0  0  0  0  0  0  0
    9.8797   -1.0082   24.8494 O   0  0  0  0  0  0  0  0  0  0  0  0
  1 10  1  0
  1 20  3  0
  2  4  2  0
  2  5  1  0
  3  6  2  0
  3  8  1  0
  4 10  1  0
  5 11  2  0
  6 12  1  0
  7 10  2  0
  7 11  1  0
  8 21  2  0
  9 12  2  0
  9 21  1  0
 11 24  1  0
 12 23  1  0
 13 23  1  0
 13 24  1  0
 13 26  2  0
 14 16  1  0
 14 22  1  0
 15 17  1  0
 15 22  1  0
 16 25  1  0
 17 25  1  0
 18 19  1  0
 18 22  1  0
 19 24  1  0
M  CHG  1  25   1
M  END
