JOR-UNI-2fc98d0b-9
     RDKit          3D

 26 28  0  0  1  0  0  0  0  0999 V2000
    7.6662    1.0177   26.5251 C   0  0  0  0  0  0  0  0  0  0  0  0
    4.9088    0.7947   19.0565 C   0  0  0  0  0  0  0  0  0  0  0  0
    8.2623    0.1647   25.5963 C   0  0  0  0  0  0  0  0  0  0  0  0
    5.4929    0.6529   20.3104 C   0  0  0  0  0  0  0  0  0  0  0  0
    7.2705    2.2992   26.1418 C   0  0  0  0  0  0  0  0  0  0  0  0
    8.0674    1.8748   23.9008 C   0  0  0  0  0  0  0  0  0  0  0  0
    5.6986    0.5587   17.9428 C   0  0  0  0  0  0  0  0  0  0  0  0
    7.5336    0.0714   19.2364 C   0  0  0  0  0  0  0  0  0  0  0  0
    8.4630    0.5933   24.2842 C   0  0  0  0  0  0  0  0  0  0  0  0
    6.8299    0.2847   20.4107 C   0  0  0  0  0  0  0  0  0  0  0  0
    7.4712    2.7277   24.8297 C   0  0  0  0  0  0  0  0  0  0  0  0
    8.7797   -0.2303   21.9338 C   0  0  0  0  0  0  0  0  0  0  0  0
    7.4168   -3.2756   26.4207 C   0  0  0  0  0  0  0  0  0  0  0  0
    8.7061   -3.3918   25.6191 C   0  0  0  0  0  0  0  0  0  0  0  0
    7.7258   -4.0686   23.3644 C   0  0  0  0  0  0  0  0  0  0  0  0
    6.4934   -4.4890   26.3347 C   0  0  0  0  0  0  0  0  0  0  0  0
    6.3538   -4.3470   23.9525 C   0  0  0  0  0  0  0  0  0  0  0  0
   10.1225   -1.2171   23.8246 C   0  0  0  0  0  0  0  0  0  0  0  0
    9.7588   -2.6504   23.4857 C   0  0  0  0  0  0  0  0  0  0  0  0
    7.0006    0.1995   18.0006 N   0  0  0  0  0  0  0  0  0  0  0  0
    7.4524    0.1326   21.6735 N   0  0  0  0  0  0  0  0  0  0  0  0
    9.0823   -0.2919   23.3222 N   0  0  0  0  0  0  0  0  0  0  0  0
    8.4643   -3.0229   24.1681 N   0  0  0  0  0  0  0  0  0  0  0  0
    9.6123   -0.4598   21.0552 O   0  0  0  0  0  0  0  0  0  0  0  0
    6.4959   -5.1798   25.0947 O   0  0  0  0  0  0  0  0  0  0  0  0
    6.9830    4.3089   24.3565 Cl  0  0  0  0  0  0  0  0  0  0  0  0
  1  3  2  0
  1  5  1  0
  2  4  2  0
  2  7  1  0
  3  9  1  0
  4 10  1  0
  5 11  2  0
  6  9  2  0
  6 11  1  0
  7 20  2  0
  8 10  2  0
  8 20  1  0
  9 22  1  0
 10 21  1  0
 11 26  1  0
 12 21  1  0
 12 22  1  0
 12 24  2  0
 13 14  1  0
 13 16  1  0
 14 23  1  0
 15 17  1  0
 15 23  1  0
 16 25  1  0
 17 25  1  0
 18 19  1  0
 18 22  1  0
 19 23  1  0
M  CHG  1  23   1
M  END
