JUA-UNI-a9dfaed1-4
     RDKit          3D

 26 28  0  0  1  0  0  0  0  0999 V2000
    7.9062   -5.4954   26.7527 C   0  0  0  0  0  0  0  0  0  0  0  0
    9.2245   -5.0678   26.5954 C   0  0  0  0  0  0  0  0  0  0  0  0
    6.9378   -5.1288   25.8180 C   0  0  0  0  0  0  0  0  0  0  0  0
    9.5745   -4.2735   25.5035 C   0  0  0  0  0  0  0  0  0  0  0  0
    7.2878   -4.3344   24.7262 C   0  0  0  0  0  0  0  0  0  0  0  0
    8.6061   -3.9067   24.5689 C   0  0  0  0  0  0  0  0  0  0  0  0
    6.7779   -1.4754   22.3852 C   0  0  0  0  0  0  0  0  0  0  0  0
    7.6212   -0.9399   23.4898 C   0  0  0  0  0  0  0  0  0  0  0  0
    6.1555   -1.4937   20.1947 C   0  0  0  0  0  0  0  0  0  0  0  0
   13.0529    0.3017   22.1018 C   0  0  0  0  0  0  0  0  0  0  0  0
   12.4255    0.9953   24.3986 C   0  0  0  0  0  0  0  0  0  0  0  0
   12.4027    1.5580   21.5216 C   0  0  0  0  0  0  0  0  0  0  0  0
   11.8089    2.2769   23.8360 C   0  0  0  0  0  0  0  0  0  0  0  0
   10.1865    0.9329   22.4978 C   0  0  0  0  0  0  0  0  0  0  0  0
   12.2989   -0.1474   23.3739 C   0  0  0  0  0  0  0  0  0  0  0  0
   10.8045   -0.3790   23.0159 C   0  0  0  0  0  0  0  0  0  0  0  0
    7.1618    0.0774   18.4864 C   0  0  0  0  0  0  0  0  0  0  0  0
    8.9821   -3.0515   23.3935 C   0  0  0  0  0  0  0  0  0  0  0  0
    5.8883   -0.4532   19.1201 C   0  0  0  0  0  0  0  0  0  0  0  0
    9.9925   -0.9404   24.1858 C   0  0  0  0  0  0  0  0  0  0  0  0
    6.9451   -0.9886   21.2066 N   0  0  0  0  0  0  0  0  0  0  0  0
    8.8430   -1.6166   23.6896 N   0  0  0  0  0  0  0  0  0  0  0  0
   11.2817    1.9863   22.4447 N   0  0  0  0  0  0  0  0  0  0  0  0
    7.1647    0.0253   24.0898 O   0  0  0  0  0  0  0  0  0  0  0  0
    5.7006   -2.6334   20.1252 O   0  0  0  0  0  0  0  0  0  0  0  0
   10.7266   -1.3459   21.9611 O   0  0  0  0  0  0  0  0  0  0  0  0
  1  2  2  0
  1  3  1  0
  2  4  1  0
  3  5  2  0
  4  6  2  0
  5  6  1  0
  6 18  1  0
  7  8  1  0
  7 21  2  0
  8 22  1  0
  8 24  2  0
  9 19  1  0
  9 21  1  0
  9 25  2  0
 10 12  1  0
 10 15  1  0
 11 13  1  0
 11 15  1  0
 12 23  1  0
 13 23  1  0
 14 16  1  0
 14 23  1  0
 15 16  1  0
 16 20  1  0
 16 26  1  0
 17 19  1  0
 18 22  1  0
 20 22  1  0
M  CHG  1  23   1
M  END
