JUA-UNI-bc099708-3
     RDKit          3D

 24 25  0  0  0  0  0  0  0  0999 V2000
    6.5326   -4.3869   26.5604 C   0  0  0  0  0  0  0  0  0  0  0  0
    7.8579   -4.5387   26.9038 C   0  0  0  0  0  0  0  0  0  0  0  0
    6.3461   -4.3527   25.1483 C   0  0  0  0  0  0  0  0  0  0  0  0
    7.5363   -4.4793   24.4661 C   0  0  0  0  0  0  0  0  0  0  0  0
    5.9636   -1.9314   20.8209 C   0  0  0  0  0  0  0  0  0  0  0  0
    6.3329   -3.2612   21.3805 C   0  0  0  0  0  0  0  0  0  0  0  0
    6.2455   -0.2812   19.2770 C   0  0  0  0  0  0  0  0  0  0  0  0
   11.4936   -0.6570   22.2619 C   0  0  0  0  0  0  0  0  0  0  0  0
   10.2501   -0.6946   24.4145 C   0  0  0  0  0  0  0  0  0  0  0  0
   12.0569    0.6890   22.6849 C   0  0  0  0  0  0  0  0  0  0  0  0
   10.8782    0.6532   24.7266 C   0  0  0  0  0  0  0  0  0  0  0  0
    8.5718    0.6699   19.5658 C   0  0  0  0  0  0  0  0  0  0  0  0
    7.7832   -4.4928   22.9852 C   0  0  0  0  0  0  0  0  0  0  0  0
    7.4233    0.4073   18.6080 C   0  0  0  0  0  0  0  0  0  0  0  0
    7.9926   -2.0391   22.7830 C   0  0  0  0  0  0  0  0  0  0  0  0
    9.4827   -2.1196   22.5105 C   0  0  0  0  0  0  0  0  0  0  0  0
    6.5979   -1.5153   19.7824 N   0  0  0  0  0  0  0  0  0  0  0  0
    7.3319   -3.2655   22.3467 N   0  0  0  0  0  0  0  0  0  0  0  0
   10.1423   -0.8322   22.9140 N   0  0  0  0  0  0  0  0  0  0  0  0
    5.7108   -4.2183   20.9370 O   0  0  0  0  0  0  0  0  0  0  0  0
    5.1338    0.2396   19.3353 O   0  0  0  0  0  0  0  0  0  0  0  0
   12.1606    0.7639   24.1075 O   0  0  0  0  0  0  0  0  0  0  0  0
    8.8710   -4.6390   25.5269 S   0  0  0  0  0  0  0  0  0  0  0  0
    4.6400   -4.1544   24.3720 Br  0  0  0  0  0  0  0  0  0  0  0  0
  1  2  2  0
  1  3  1  0
  2 23  1  0
  3  4  2  0
  3 24  1  0
  4 13  1  0
  4 23  1  0
  5  6  1  0
  5 17  2  0
  6 18  1  0
  6 20  2  0
  7 14  1  0
  7 17  1  0
  7 21  2  0
  8 10  1  0
  8 19  1  0
  9 11  1  0
  9 19  1  0
 10 22  1  0
 11 22  1  0
 12 14  1  0
 13 18  1  0
 15 16  1  0
 15 18  1  0
 16 19  1  0
M  CHG  1  19   1
M  END
