JUA-UNI-a9dfaed1-1
     RDKit          3D

 23 24  0  0  1  0  0  0  0  0999 V2000
   11.4622    0.8299   24.1835 C   0  0  0  0  0  0  0  0  0  0  0  0
   12.4408    0.7222   23.1954 C   0  0  0  0  0  0  0  0  0  0  0  0
   10.5765   -0.2246   24.4058 C   0  0  0  0  0  0  0  0  0  0  0  0
   12.5338   -0.4400   22.4296 C   0  0  0  0  0  0  0  0  0  0  0  0
   10.6695   -1.3867   23.6401 C   0  0  0  0  0  0  0  0  0  0  0  0
   11.6481   -1.4945   22.6520 C   0  0  0  0  0  0  0  0  0  0  0  0
    6.8371   -1.7434   21.5001 C   0  0  0  0  0  0  0  0  0  0  0  0
    7.8337   -1.5252   22.5851 C   0  0  0  0  0  0  0  0  0  0  0  0
    6.2427   -1.6473   19.3038 C   0  0  0  0  0  0  0  0  0  0  0  0
    6.4800   -6.8469   22.7004 C   0  0  0  0  0  0  0  0  0  0  0  0
    7.8489   -6.2672   22.4466 C   0  0  0  0  0  0  0  0  0  0  0  0
    5.5745   -5.7211   22.2474 C   0  0  0  0  0  0  0  0  0  0  0  0
    7.6391   -4.8141   22.8364 C   0  0  0  0  0  0  0  0  0  0  0  0
    6.2273    0.7837   18.6042 C   0  0  0  0  0  0  0  0  0  0  0  0
    9.7076   -2.5114   23.8931 C   0  0  0  0  0  0  0  0  0  0  0  0
    6.4100   -0.6575   18.1631 C   0  0  0  0  0  0  0  0  0  0  0  0
    8.5936   -3.8587   22.1469 C   0  0  0  0  0  0  0  0  0  0  0  0
    7.1772   -1.4410   20.2972 N   0  0  0  0  0  0  0  0  0  0  0  0
    8.6804   -2.5910   22.8654 N   0  0  0  0  0  0  0  0  0  0  0  0
    7.8113   -0.4219   23.1162 O   0  0  0  0  0  0  0  0  0  0  0  0
    5.3657   -2.5083   19.2958 O   0  0  0  0  0  0  0  0  0  0  0  0
    6.2842   -4.4947   22.4771 O   0  0  0  0  0  0  0  0  0  0  0  0
   11.7521   -2.6223   21.8946 O   0  0  0  0  0  0  0  0  0  0  0  0
  1  2  2  0
  1  3  1  0
  2  4  1  0
  3  5  2  0
  4  6  2  0
  5  6  1  0
  5 15  1  0
  6 23  1  0
  7  8  1  0
  7 18  2  0
  8 19  1  0
  8 20  2  0
  9 16  1  0
  9 18  1  0
  9 21  2  0
 10 11  1  0
 10 12  1  0
 11 13  1  0
 12 22  1  0
 13 17  1  0
 13 22  1  0
 14 16  1  0
 15 19  1  0
 17 19  1  0
M  END
