JUA-UNI-a9dfaed1-7
     RDKit          3D

 28 30  0  0  1  0  0  0  0  0999 V2000
    6.1253    0.3680   19.1408 C   0  0  0  0  0  0  0  0  0  0  0  0
    6.6389    1.2091   20.1234 C   0  0  0  0  0  0  0  0  0  0  0  0
    5.9695   -0.9942   19.3989 C   0  0  0  0  0  0  0  0  0  0  0  0
    6.9987    0.6912   21.3680 C   0  0  0  0  0  0  0  0  0  0  0  0
    6.1762   -2.9012   20.9230 C   0  0  0  0  0  0  0  0  0  0  0  0
    6.5360   -3.4191   22.1675 C   0  0  0  0  0  0  0  0  0  0  0  0
   12.9648    1.2501   22.9610 C   0  0  0  0  0  0  0  0  0  0  0  0
   13.5003    0.0465   22.5026 C   0  0  0  0  0  0  0  0  0  0  0  0
    7.2056   -1.2158   22.8921 C   0  0  0  0  0  0  0  0  0  0  0  0
   10.9343    0.1051   23.5956 C   0  0  0  0  0  0  0  0  0  0  0  0
    6.3263   -1.5327   20.6459 C   0  0  0  0  0  0  0  0  0  0  0  0
    6.8487   -0.6773   21.6451 C   0  0  0  0  0  0  0  0  0  0  0  0
   11.4697   -1.0986   23.1372 C   0  0  0  0  0  0  0  0  0  0  0  0
    7.0497   -2.5780   23.1502 C   0  0  0  0  0  0  0  0  0  0  0  0
   11.6818    1.2794   23.5076 C   0  0  0  0  0  0  0  0  0  0  0  0
   12.7527   -1.1278   22.5906 C   0  0  0  0  0  0  0  0  0  0  0  0
    8.5512    4.5521   25.4607 C   0  0  0  0  0  0  0  0  0  0  0  0
    9.6927    4.1407   24.8998 C   0  0  0  0  0  0  0  0  0  0  0  0
   10.6568   -2.3378   23.2405 C   0  0  0  0  0  0  0  0  0  0  0  0
    9.8876    2.7061   24.5401 C   0  0  0  0  0  0  0  0  0  0  0  0
    8.9175   -3.5334   24.5448 C   0  0  0  0  0  0  0  0  0  0  0  0
    7.4336   -3.1335   24.4802 C   0  0  0  0  0  0  0  0  0  0  0  0
   11.1469    2.4835   23.9661 N   0  0  0  0  0  0  0  0  0  0  0  0
    9.7609   -2.3858   24.2964 N   0  0  0  0  0  0  0  0  0  0  0  0
   10.8287   -3.2380   22.4228 O   0  0  0  0  0  0  0  0  0  0  0  0
    9.0120    1.8744   24.7478 O   0  0  0  0  0  0  0  0  0  0  0  0
   13.2933   -2.2937   22.1366 O   0  0  0  0  0  0  0  0  0  0  0  0
    7.1723   -2.1534   25.4942 O   0  0  0  0  0  0  0  0  0  0  0  0
  1  2  2  0
  1  3  1  0
  2  4  1  0
  3 11  2  0
  4 12  2  0
  5  6  2  0
  5 11  1  0
  6 14  1  0
  7  8  2  0
  7 15  1  0
  8 16  1  0
  9 12  1  0
  9 14  2  0
 10 13  1  0
 10 15  2  0
 11 12  1  0
 13 16  2  0
 13 19  1  0
 14 22  1  0
 15 23  1  0
 16 27  1  0
 17 18  2  0
 18 20  1  0
 19 24  1  0
 19 25  2  0
 20 23  1  0
 20 26  2  0
 21 22  1  0
 21 24  1  0
 22 28  1  0
M  END
