JUA-UNI-b93289a4-3
     RDKit          3D

 17 17  0  0  0  0  0  0  0  0999 V2000
   14.5765   -2.1792   22.9468 C   0  0  0  0  0  0  0  0  0  0  0  0
   14.5949   -1.5197   24.1757 C   0  0  0  0  0  0  0  0  0  0  0  0
   13.7148   -1.7497   21.9375 C   0  0  0  0  0  0  0  0  0  0  0  0
   13.7515   -0.4306   24.3954 C   0  0  0  0  0  0  0  0  0  0  0  0
   12.8713   -0.6607   22.1572 C   0  0  0  0  0  0  0  0  0  0  0  0
   12.8897   -0.0011   23.3861 C   0  0  0  0  0  0  0  0  0  0  0  0
    9.4952    0.0745   20.7964 C   0  0  0  0  0  0  0  0  0  0  0  0
    7.0649    0.4341   21.3815 C   0  0  0  0  0  0  0  0  0  0  0  0
    9.2111    1.1778   24.4822 C   0  0  0  0  0  0  0  0  0  0  0  0
   11.9548   -0.2248   21.0508 C   0  0  0  0  0  0  0  0  0  0  0  0
    8.1862   -0.5741   21.2072 C   0  0  0  0  0  0  0  0  0  0  0  0
   10.5869   -0.6225   21.2935 N   0  0  0  0  0  0  0  0  0  0  0  0
   10.2899    0.6611   23.6279 N   0  0  0  0  0  0  0  0  0  0  0  0
    9.5551    1.0888   20.1069 O   0  0  0  0  0  0  0  0  0  0  0  0
   12.0844    1.8384   25.0528 O   0  0  0  0  0  0  0  0  0  0  0  0
   11.9861    2.2921   22.5812 O   0  0  0  0  0  0  0  0  0  0  0  0
   11.8438    1.3673   23.6963 S   0  0  0  0  0  0  0  0  0  0  0  0
  1  2  2  0
  1  3  1  0
  2  4  1  0
  3  5  2  0
  4  6  2  0
  5  6  1  0
  5 10  1  0
  6 17  1  0
  7 11  1  0
  7 12  1  0
  7 14  2  0
  8 11  1  0
  9 13  1  0
 10 12  1  0
 13 17  1  0
 15 17  2  0
 16 17  2  0
M  END
