JUA-UNI-bc099708-1
     RDKit          3D

 24 25  0  0  1  0  0  0  0  0999 V2000
   13.6066   -0.8773   22.0442 C   0  0  0  0  0  0  0  0  0  0  0  0
   13.3717    0.3481   22.6677 C   0  0  0  0  0  0  0  0  0  0  0  0
   12.6709   -1.9061   22.1533 C   0  0  0  0  0  0  0  0  0  0  0  0
    6.1392    0.3208   18.7867 C   0  0  0  0  0  0  0  0  0  0  0  0
   12.2013    0.5447   23.4005 C   0  0  0  0  0  0  0  0  0  0  0  0
   11.5004   -1.7094   22.8861 C   0  0  0  0  0  0  0  0  0  0  0  0
    7.0033    0.5372   19.8988 C   0  0  0  0  0  0  0  0  0  0  0  0
    6.2061   -0.9749   18.3239 C   0  0  0  0  0  0  0  0  0  0  0  0
   11.2656   -0.4840   23.5097 C   0  0  0  0  0  0  0  0  0  0  0  0
    7.6976   -0.6016   20.2437 C   0  0  0  0  0  0  0  0  0  0  0  0
    7.4450   -3.0249   23.6456 C   0  0  0  0  0  0  0  0  0  0  0  0
    8.6133   -2.3358   24.2606 C   0  0  0  0  0  0  0  0  0  0  0  0
    6.5596   -4.3860   22.0488 C   0  0  0  0  0  0  0  0  0  0  0  0
    5.7594   -6.4260   20.7849 C   0  0  0  0  0  0  0  0  0  0  0  0
   10.0056   -0.2731   24.2985 C   0  0  0  0  0  0  0  0  0  0  0  0
    6.9483   -5.6954   21.3831 C   0  0  0  0  0  0  0  0  0  0  0  0
    8.1092   -0.4391   22.7233 C   0  0  0  0  0  0  0  0  0  0  0  0
    8.7030   -0.7894   21.3566 C   0  0  0  0  0  0  0  0  0  0  0  0
    7.6518   -3.7558   22.6078 N   0  0  0  0  0  0  0  0  0  0  0  0
    8.8996   -1.0638   23.7797 N   0  0  0  0  0  0  0  0  0  0  0  0
    9.1999   -2.9590   25.1366 O   0  0  0  0  0  0  0  0  0  0  0  0
    5.3994   -3.9805   22.0605 O   0  0  0  0  0  0  0  0  0  0  0  0
    9.8308    0.0450   21.0908 O   0  0  0  0  0  0  0  0  0  0  0  0
    7.3071   -1.9243   19.2287 S   0  0  0  0  0  0  0  0  0  0  0  0
  1  2  2  0
  1  3  1  0
  2  5  1  0
  3  6  2  0
  4  7  1  0
  4  8  2  0
  5  9  2  0
  6  9  1  0
  7 10  2  0
  8 24  1  0
  9 15  1  0
 10 18  1  0
 10 24  1  0
 11 12  1  0
 11 19  2  0
 12 20  1  0
 12 21  2  0
 13 16  1  0
 13 19  1  0
 13 22  2  0
 14 16  1  0
 15 20  1  0
 17 18  1  0
 17 20  1  0
 18 23  1  0
M  END
