JUA-UNI-b93289a4-6
     RDKit          3D

 21 21  0  0  1  0  0  0  0  0999 V2000
   14.7313   -2.0862   23.8302 C   0  0  0  0  0  0  0  0  0  0  0  0
   14.0673   -1.0229   24.4418 C   0  0  0  0  0  0  0  0  0  0  0  0
   14.4346   -2.4273   22.5106 C   0  0  0  0  0  0  0  0  0  0  0  0
   13.1066   -0.3007   23.7339 C   0  0  0  0  0  0  0  0  0  0  0  0
   13.4739   -1.7052   21.8027 C   0  0  0  0  0  0  0  0  0  0  0  0
   12.8098   -0.6419   22.4143 C   0  0  0  0  0  0  0  0  0  0  0  0
    9.5491   -1.6369   23.8311 C   0  0  0  0  0  0  0  0  0  0  0  0
    9.3516    0.4043   21.0328 C   0  0  0  0  0  0  0  0  0  0  0  0
    8.6956   -2.6207   25.9949 C   0  0  0  0  0  0  0  0  0  0  0  0
    4.1228    1.1869   20.1876 C   0  0  0  0  0  0  0  0  0  0  0  0
    4.5132    3.3078   21.4326 C   0  0  0  0  0  0  0  0  0  0  0  0
   11.7703    0.1389   21.6479 C   0  0  0  0  0  0  0  0  0  0  0  0
    9.1496   -1.3667   25.2700 C   0  0  0  0  0  0  0  0  0  0  0  0
    6.9206    0.4975   20.4854 C   0  0  0  0  0  0  0  0  0  0  0  0
    6.2870    1.5616   21.3615 C   0  0  0  0  0  0  0  0  0  0  0  0
   10.3599   -0.4419   21.8018 C   0  0  0  0  0  0  0  0  0  0  0  0
    8.0597   -0.0886   21.1543 N   0  0  0  0  0  0  0  0  0  0  0  0
    9.9304   -0.4718   23.1773 N   0  0  0  0  0  0  0  0  0  0  0  0
    5.1523    2.1921   20.6427 N   0  0  0  0  0  0  0  0  0  0  0  0
    9.5320   -2.7570   23.3282 O   0  0  0  0  0  0  0  0  0  0  0  0
    9.6737    1.3781   20.3555 O   0  0  0  0  0  0  0  0  0  0  0  0
  1  2  2  0
  1  3  1  0
  2  4  1  0
  3  5  2  0
  4  6  2  0
  5  6  1  0
  6 12  1  0
  7 13  1  0
  7 18  1  0
  7 20  2  0
  8 16  1  0
  8 17  1  0
  8 21  2  0
  9 13  1  0
 10 19  1  0
 11 19  1  0
 12 16  1  0
 14 15  1  0
 14 17  1  0
 15 19  1  0
 16 18  1  0
M  CHG  1  19   1
M  END
