JUA-UNI-b93289a4-5
     RDKit          3D

 29 31  0  0  0  0  0  0  0  0999 V2000
   14.5547   -1.0504   23.9489 C   0  0  0  0  0  0  0  0  0  0  0  0
    4.5669    2.1987   19.6254 C   0  0  0  0  0  0  0  0  0  0  0  0
   13.6306   -1.0212   24.9933 C   0  0  0  0  0  0  0  0  0  0  0  0
   14.1594   -0.7004   22.6578 C   0  0  0  0  0  0  0  0  0  0  0  0
    4.6133    2.1177   21.0164 C   0  0  0  0  0  0  0  0  0  0  0  0
    5.5317    1.5515   18.8549 C   0  0  0  0  0  0  0  0  0  0  0  0
   12.3111   -0.6420   24.7466 C   0  0  0  0  0  0  0  0  0  0  0  0
   12.8399   -0.3213   22.4111 C   0  0  0  0  0  0  0  0  0  0  0  0
    5.6258    1.3884   21.6433 C   0  0  0  0  0  0  0  0  0  0  0  0
    6.5430    0.8227   19.4876 C   0  0  0  0  0  0  0  0  0  0  0  0
   11.9158   -0.2921   23.4555 C   0  0  0  0  0  0  0  0  0  0  0  0
    6.6024    0.7323   20.8864 C   0  0  0  0  0  0  0  0  0  0  0  0
    7.5771    0.1281   18.6901 C   0  0  0  0  0  0  0  0  0  0  0  0
    8.4976   -0.5892   20.8237 C   0  0  0  0  0  0  0  0  0  0  0  0
    5.3936   -5.2372   24.3911 C   0  0  0  0  0  0  0  0  0  0  0  0
    8.9220   -1.7530   23.8176 C   0  0  0  0  0  0  0  0  0  0  0  0
    4.4953   -6.0602   22.1790 C   0  0  0  0  0  0  0  0  0  0  0  0
   10.4956    0.1158   23.1892 C   0  0  0  0  0  0  0  0  0  0  0  0
    9.6039   -1.3845   21.4500 C   0  0  0  0  0  0  0  0  0  0  0  0
    4.8287   -6.4138   23.6170 C   0  0  0  0  0  0  0  0  0  0  0  0
    8.0978   -2.9214   23.2863 C   0  0  0  0  0  0  0  0  0  0  0  0
    7.3294   -3.6700   24.3699 C   0  0  0  0  0  0  0  0  0  0  0  0
    7.6077    0.0066   21.5526 N   0  0  0  0  0  0  0  0  0  0  0  0
    8.5168   -0.5551   19.4448 N   0  0  0  0  0  0  0  0  0  0  0  0
    6.5833   -4.7774   23.8358 N   0  0  0  0  0  0  0  0  0  0  0  0
    9.6495   -1.0338   22.8396 N   0  0  0  0  0  0  0  0  0  0  0  0
    7.5770    0.1711   17.4655 O   0  0  0  0  0  0  0  0  0  0  0  0
    4.8487   -4.7623   25.3839 O   0  0  0  0  0  0  0  0  0  0  0  0
    8.9307   -1.4881   25.0226 O   0  0  0  0  0  0  0  0  0  0  0  0
  1  3  2  0
  1  4  1  0
  2  5  2  0
  2  6  1  0
  3  7  1  0
  4  8  2  0
  5  9  1  0
  6 10  2  0
  7 11  2  0
  8 11  1  0
  9 12  2  0
 10 12  1  0
 10 13  1  0
 11 18  1  0
 12 23  1  0
 13 24  1  0
 13 27  2  0
 14 19  1  0
 14 23  2  0
 14 24  1  0
 15 20  1  0
 15 25  1  0
 15 28  2  0
 16 21  1  0
 16 26  1  0
 16 29  2  0
 17 20  1  0
 18 26  1  0
 19 26  1  0
 21 22  1  0
 22 25  1  0
M  END
