JUA-UNI-b93289a4-4
     RDKit          3D

 26 28  0  0  1  0  0  0  0  0999 V2000
    7.7493   -5.3902   26.7815 C   0  0  0  0  0  0  0  0  0  0  0  0
    9.0731   -4.9510   26.7679 C   0  0  0  0  0  0  0  0  0  0  0  0
    6.8862   -5.0360   25.7446 C   0  0  0  0  0  0  0  0  0  0  0  0
    9.5338   -4.1574   25.7174 C   0  0  0  0  0  0  0  0  0  0  0  0
    7.3469   -4.2423   24.6941 C   0  0  0  0  0  0  0  0  0  0  0  0
    8.6707   -3.8030   24.6804 C   0  0  0  0  0  0  0  0  0  0  0  0
    6.8859    0.4888   20.6178 C   0  0  0  0  0  0  0  0  0  0  0  0
    7.7821   -0.8345   23.4889 C   0  0  0  0  0  0  0  0  0  0  0  0
   13.2026    0.8245   22.7953 C   0  0  0  0  0  0  0  0  0  0  0  0
   11.8760    1.6917   24.7026 C   0  0  0  0  0  0  0  0  0  0  0  0
   12.4557    1.7446   21.8293 C   0  0  0  0  0  0  0  0  0  0  0  0
   11.1505    2.6479   23.7546 C   0  0  0  0  0  0  0  0  0  0  0  0
   10.2632    0.7138   22.4504 C   0  0  0  0  0  0  0  0  0  0  0  0
   12.2721    0.4045   23.9555 C   0  0  0  0  0  0  0  0  0  0  0  0
   11.0079   -0.2781   23.3630 C   0  0  0  0  0  0  0  0  0  0  0  0
    5.5033    2.5143   21.2210 C   0  0  0  0  0  0  0  0  0  0  0  0
    9.1659   -2.9486   23.5495 C   0  0  0  0  0  0  0  0  0  0  0  0
    5.9330    1.5604   20.1213 C   0  0  0  0  0  0  0  0  0  0  0  0
    7.0087   -1.3534   22.2896 C   0  0  0  0  0  0  0  0  0  0  0  0
   10.0738   -0.8370   24.4392 C   0  0  0  0  0  0  0  0  0  0  0  0
    6.3248   -0.2713   21.6412 N   0  0  0  0  0  0  0  0  0  0  0  0
    8.9820   -1.5098   23.8227 N   0  0  0  0  0  0  0  0  0  0  0  0
   11.0712    2.0003   22.3862 N   0  0  0  0  0  0  0  0  0  0  0  0
    8.0126    0.3260   20.1572 O   0  0  0  0  0  0  0  0  0  0  0  0
    7.3721    0.1345   24.1336 O   0  0  0  0  0  0  0  0  0  0  0  0
   11.4181   -1.3903   22.5578 O   0  0  0  0  0  0  0  0  0  0  0  0
  1  2  2  0
  1  3  1  0
  2  4  1  0
  3  5  2  0
  4  6  2  0
  5  6  1  0
  6 17  1  0
  7 18  1  0
  7 21  1  0
  7 24  2  0
  8 19  1  0
  8 22  1  0
  8 25  2  0
  9 11  1  0
  9 14  1  0
 10 12  1  0
 10 14  1  0
 11 23  1  0
 12 23  1  0
 13 15  1  0
 13 23  1  0
 14 15  1  0
 15 20  1  0
 15 26  1  0
 16 18  1  0
 17 22  1  0
 19 21  1  0
 20 22  1  0
M  CHG  1  23   1
M  END
