JUS-UNI-57125a42-1
     RDKit          3D

 30 31  0  0  1  0  0  0  0  0999 V2000
   13.4794   -0.6969   22.0736 C   0  0  0  0  0  0  0  0  0  0  0  0
   12.4526   -1.6159   22.2893 C   0  0  0  0  0  0  0  0  0  0  0  0
   13.6070    0.4146   22.9067 C   0  0  0  0  0  0  0  0  0  0  0  0
   11.5532   -1.4234   23.3381 C   0  0  0  0  0  0  0  0  0  0  0  0
   12.7077    0.6071   23.9554 C   0  0  0  0  0  0  0  0  0  0  0  0
    6.5878   -1.3087   18.4724 C   0  0  0  0  0  0  0  0  0  0  0  0
    4.5647   -1.6575   19.0345 C   0  0  0  0  0  0  0  0  0  0  0  0
   11.6808   -0.3119   24.1711 C   0  0  0  0  0  0  0  0  0  0  0  0
    6.4586   -0.7725   19.7319 C   0  0  0  0  0  0  0  0  0  0  0  0
    8.0933   -2.1703   21.8404 C   0  0  0  0  0  0  0  0  0  0  0  0
    8.3762   -0.0947   24.2563 C   0  0  0  0  0  0  0  0  0  0  0  0
    7.0014   -5.1921   21.1877 C   0  0  0  0  0  0  0  0  0  0  0  0
    8.9543   -4.5416   25.1712 C   0  0  0  0  0  0  0  0  0  0  0  0
    6.7869   -5.0999   26.2898 C   0  0  0  0  0  0  0  0  0  0  0  0
   10.7109   -0.1035   25.3024 C   0  0  0  0  0  0  0  0  0  0  0  0
    7.4330   -0.0660   20.6425 C   0  0  0  0  0  0  0  0  0  0  0  0
    6.9763   -5.1460   23.7436 C   0  0  0  0  0  0  0  0  0  0  0  0
    7.5697   -0.7484   22.0084 C   0  0  0  0  0  0  0  0  0  0  0  0
    9.4592    0.7149   24.9521 C   0  0  0  0  0  0  0  0  0  0  0  0
    7.5428   -4.5219   22.4609 C   0  0  0  0  0  0  0  0  0  0  0  0
    7.4292   -4.4689   25.0537 C   0  0  0  0  0  0  0  0  0  0  0  0
    5.4052   -1.8577   18.0438 N   0  0  0  0  0  0  0  0  0  0  0  0
    5.1572   -1.0032   20.0786 N   0  0  0  0  0  0  0  0  0  0  0  0
    8.4899   -0.0547   22.8739 N   0  0  0  0  0  0  0  0  0  0  0  0
    7.2553   -3.1027   22.4321 N   0  0  0  0  0  0  0  0  0  0  0  0
    8.9141    1.3669   26.1775 N   0  0  0  0  0  0  0  0  0  0  0  0
    5.7416   -5.1809   21.0819 O   0  0  0  0  0  0  0  0  0  0  0  0
    9.1570   -2.4300   21.2817 O   0  0  0  0  0  0  0  0  0  0  0  0
    7.5051   -0.7075   24.8700 O   0  0  0  0  0  0  0  0  0  0  0  0
    7.8677   -5.6827   20.4103 O   0  0  0  0  0  0  0  0  0  0  0  0
  1  2  2  0
  1  3  1  0
  2  4  1  0
  3  5  2  0
  4  8  2  0
  5  8  1  0
  6  9  2  0
  6 22  1  0
  7 22  2  0
  7 23  1  0
  8 15  1  0
  9 16  1  0
  9 23  1  0
 10 18  1  0
 10 25  1  0
 10 28  2  0
 11 19  1  0
 11 24  1  0
 11 29  2  0
 12 20  1  0
 12 27  1  0
 12 30  2  0
 13 21  1  0
 14 21  1  0
 15 19  1  0
 16 18  1  0
 17 20  1  0
 17 21  1  0
 18 24  1  0
 19 26  1  0
 20 25  1  0
M  CHG  2  26   1  27  -1
M  END
