KAL-WAB-eb347ebe-1
     RDKit          3D

 19 21  0  0  0  0  0  0  0  0999 V2000
   13.0976   -2.6154   22.6769 C   0  0  0  0  0  0  0  0  0  0  0  0
    5.2012    1.1025   18.9919 C   0  0  0  0  0  0  0  0  0  0  0  0
   11.9962   -1.7615   22.6776 C   0  0  0  0  0  0  0  0  0  0  0  0
    5.9452    1.1072   20.1665 C   0  0  0  0  0  0  0  0  0  0  0  0
    5.8783    0.9246   17.7961 C   0  0  0  0  0  0  0  0  0  0  0  0
   14.3550   -2.0838   22.9300 C   0  0  0  0  0  0  0  0  0  0  0  0
    7.9059    0.7658   18.8646 C   0  0  0  0  0  0  0  0  0  0  0  0
   12.2494    1.8259   23.3151 C   0  0  0  0  0  0  0  0  0  0  0  0
   12.2223   -0.4000   22.9364 C   0  0  0  0  0  0  0  0  0  0  0  0
   11.4167    0.7658   23.0280 C   0  0  0  0  0  0  0  0  0  0  0  0
    7.3239    0.9364   20.1104 C   0  0  0  0  0  0  0  0  0  0  0  0
   13.5348   -0.0026   23.1740 C   0  0  0  0  0  0  0  0  0  0  0  0
    9.4876    0.7787   21.3904 C   0  0  0  0  0  0  0  0  0  0  0  0
    9.9528    0.8402   22.8495 C   0  0  0  0  0  0  0  0  0  0  0  0
    7.2162    0.7555   17.7019 N   0  0  0  0  0  0  0  0  0  0  0  0
   14.6315   -0.7837   23.1849 N   0  0  0  0  0  0  0  0  0  0  0  0
   13.5315    1.3486   23.4009 N   0  0  0  0  0  0  0  0  0  0  0  0
    8.1078    0.9369   21.2887 N   0  0  0  0  0  0  0  0  0  0  0  0
   10.2852    0.6071   20.4742 O   0  0  0  0  0  0  0  0  0  0  0  0
  1  3  2  0
  1  6  1  0
  2  4  2  0
  2  5  1  0
  3  9  1  0
  4 11  1  0
  5 15  2  0
  6 16  2  0
  7 11  2  0
  7 15  1  0
  8 10  2  0
  8 17  1  0
  9 10  1  0
  9 12  2  0
 10 14  1  0
 11 18  1  0
 12 16  1  0
 12 17  1  0
 13 14  1  0
 13 18  1  0
 13 19  2  0
M  END
