KAT-FAI-9b65c29e-2
     RDKit          3D

 29 32  0  0  1  0  0  0  0  0999 V2000
   13.4539    0.5533   23.3499 C   0  0  0  0  0  0  0  0  0  0  0  0
   13.0628   -0.2053   22.2467 C   0  0  0  0  0  0  0  0  0  0  0  0
    7.9276   -4.3546   25.2506 C   0  0  0  0  0  0  0  0  0  0  0  0
    8.7914   -3.6427   24.4183 C   0  0  0  0  0  0  0  0  0  0  0  0
    6.5527   -4.3255   25.0173 C   0  0  0  0  0  0  0  0  0  0  0  0
   12.5263    0.8712   24.3421 C   0  0  0  0  0  0  0  0  0  0  0  0
   11.7440   -0.6460   22.1355 C   0  0  0  0  0  0  0  0  0  0  0  0
    6.9053   -2.8727   23.1195 C   0  0  0  0  0  0  0  0  0  0  0  0
    8.2803   -2.9018   23.3527 C   0  0  0  0  0  0  0  0  0  0  0  0
    6.0415   -3.5846   23.9518 C   0  0  0  0  0  0  0  0  0  0  0  0
   11.2076    0.4304   24.2309 C   0  0  0  0  0  0  0  0  0  0  0  0
   10.8164   -0.3282   23.1276 C   0  0  0  0  0  0  0  0  0  0  0  0
    6.7566   -1.1287   19.8188 C   0  0  0  0  0  0  0  0  0  0  0  0
    8.3767    0.1588   22.9344 C   0  0  0  0  0  0  0  0  0  0  0  0
    7.9505    0.3620   21.4840 C   0  0  0  0  0  0  0  0  0  0  0  0
   10.0383    2.1841   25.5009 C   0  0  0  0  0  0  0  0  0  0  0  0
   10.1201   -0.1289   26.3895 C   0  0  0  0  0  0  0  0  0  0  0  0
    8.7869   -1.9339   20.9704 C   0  0  0  0  0  0  0  0  0  0  0  0
    8.7034    2.3427   26.2197 C   0  0  0  0  0  0  0  0  0  0  0  0
    8.7810    0.1534   27.0615 C   0  0  0  0  0  0  0  0  0  0  0  0
    9.2269   -2.1238   22.4409 C   0  0  0  0  0  0  0  0  0  0  0  0
    4.5712   -3.5531   23.7029 C   0  0  0  0  0  0  0  0  0  0  0  0
    5.8612    0.0413   19.4970 C   0  0  0  0  0  0  0  0  0  0  0  0
   10.2936    0.7614   25.2365 N   0  0  0  0  0  0  0  0  0  0  0  0
    9.5011   -0.7797   22.9966 N   0  0  0  0  0  0  0  0  0  0  0  0
    7.7427   -0.9160   20.7873 N   0  0  0  0  0  0  0  0  0  0  0  0
    6.5811   -2.2006   19.2333 O   0  0  0  0  0  0  0  0  0  0  0  0
    8.6716    1.5362   27.3971 O   0  0  0  0  0  0  0  0  0  0  0  0
    5.3178   -0.0767   17.7846 S   0  0  0  0  0  0  0  0  0  0  0  0
  1  2  2  0
  1  6  1  0
  2  7  1  0
  3  4  2  0
  3  5  1  0
  4  9  1  0
  5 10  2  0
  6 11  2  0
  7 12  2  0
  8  9  2  0
  8 10  1  0
  9 21  1  0
 10 22  1  0
 11 12  1  0
 11 24  1  0
 12 25  1  0
 13 23  1  0
 13 26  1  0
 13 27  2  0
 14 15  1  0
 14 25  1  0
 15 26  1  0
 16 19  1  0
 16 24  1  0
 17 20  1  0
 17 24  1  0
 18 21  1  0
 18 26  1  0
 19 28  1  0
 20 28  1  0
 21 25  1  0
 23 29  1  0
M  END
