KAT-FAI-78913094-1
     RDKit          3D

 26 28  0  0  1  0  0  0  0  0999 V2000
   12.9341   -1.5281   22.4560 C   0  0  0  0  0  0  0  0  0  0  0  0
   13.3711   -0.4663   23.2478 C   0  0  0  0  0  0  0  0  0  0  0  0
    8.2576   -1.7742   26.0658 C   0  0  0  0  0  0  0  0  0  0  0  0
    8.2090   -1.3995   24.7231 C   0  0  0  0  0  0  0  0  0  0  0  0
    8.7248   -3.0398   26.4202 C   0  0  0  0  0  0  0  0  0  0  0  0
   11.6041   -1.5863   22.0395 C   0  0  0  0  0  0  0  0  0  0  0  0
   12.4782    0.5373   23.6234 C   0  0  0  0  0  0  0  0  0  0  0  0
    9.0945   -3.5561   24.0892 C   0  0  0  0  0  0  0  0  0  0  0  0
    8.6274   -2.2904   23.7348 C   0  0  0  0  0  0  0  0  0  0  0  0
    9.1432   -3.9308   25.4319 C   0  0  0  0  0  0  0  0  0  0  0  0
   10.7111   -0.5827   22.4151 C   0  0  0  0  0  0  0  0  0  0  0  0
   11.1482    0.4791   23.2070 C   0  0  0  0  0  0  0  0  0  0  0  0
    6.2512   -1.7588   19.5593 C   0  0  0  0  0  0  0  0  0  0  0  0
    9.1589    0.0080   20.6874 C   0  0  0  0  0  0  0  0  0  0  0  0
    7.6752    0.1758   20.3841 C   0  0  0  0  0  0  0  0  0  0  0  0
    7.0979   -1.6684   21.8812 C   0  0  0  0  0  0  0  0  0  0  0  0
    8.5753   -1.8795   22.2675 C   0  0  0  0  0  0  0  0  0  0  0  0
    9.6420   -5.2844   25.8109 C   0  0  0  0  0  0  0  0  0  0  0  0
    6.1914   -1.0957   18.2065 C   0  0  0  0  0  0  0  0  0  0  0  0
    9.3746   -0.6638   21.9806 N   0  0  0  0  0  0  0  0  0  0  0  0
    6.9763   -1.0956   20.5467 N   0  0  0  0  0  0  0  0  0  0  0  0
   10.2585    1.5164   23.6044 N   0  0  0  0  0  0  0  0  0  0  0  0
   10.6971    2.4497   24.3166 O   0  0  0  0  0  0  0  0  0  0  0  0
    5.6714   -2.8341   19.7305 O   0  0  0  0  0  0  0  0  0  0  0  0
    9.0634    1.4646   23.2303 O   0  0  0  0  0  0  0  0  0  0  0  0
    7.5652   -1.6748   17.1971 S   0  0  0  0  0  0  0  0  0  0  0  0
  1  2  2  0
  1  6  1  0
  2  7  1  0
  3  4  2  0
  3  5  1  0
  4  9  1  0
  5 10  2  0
  6 11  2  0
  7 12  2  0
  8  9  2  0
  8 10  1  0
  9 17  1  0
 10 18  1  0
 11 12  1  0
 11 20  1  0
 12 22  1  0
 13 19  1  0
 13 21  1  0
 13 24  2  0
 14 15  1  0
 14 20  1  0
 15 21  1  0
 16 17  1  0
 16 21  1  0
 17 20  1  0
 19 26  1  0
 22 23  1  0
 22 25  2  0
M  CHG  2  22   1  23  -1
M  END
