KAY-MCD-d0fe5261-1
     RDKit          3D

 20 21  0  0  0  0  0  0  0  0999 V2000
   10.9413    1.9402   24.8437 C   0  0  0  0  0  0  0  0  0  0  0  0
   12.3971    1.4063   22.9910 C   0  0  0  0  0  0  0  0  0  0  0  0
   10.3037    0.7082   24.6978 C   0  0  0  0  0  0  0  0  0  0  0  0
   11.7596    0.1742   22.8451 C   0  0  0  0  0  0  0  0  0  0  0  0
   11.9880    2.2893   23.9903 C   0  0  0  0  0  0  0  0  0  0  0  0
   10.7129   -0.1748   23.6986 C   0  0  0  0  0  0  0  0  0  0  0  0
    6.1964   -1.4207   19.0466 C   0  0  0  0  0  0  0  0  0  0  0  0
    7.9565   -0.1380   20.3612 C   0  0  0  0  0  0  0  0  0  0  0  0
    6.4136   -1.6872   21.4975 C   0  0  0  0  0  0  0  0  0  0  0  0
    9.1340   -0.7627   21.1036 C   0  0  0  0  0  0  0  0  0  0  0  0
    7.5852   -2.3189   22.2408 C   0  0  0  0  0  0  0  0  0  0  0  0
    6.1189   -0.3357   18.0024 C   0  0  0  0  0  0  0  0  0  0  0  0
    6.8552   -1.0993   20.2321 N   0  0  0  0  0  0  0  0  0  0  0  0
    8.6662   -1.3024   22.4162 N   0  0  0  0  0  0  0  0  0  0  0  0
    5.6888   -2.5205   18.8130 O   0  0  0  0  0  0  0  0  0  0  0  0
   10.8295   -2.6340   22.8549 O   0  0  0  0  0  0  0  0  0  0  0  0
    9.3094   -2.0804   24.7864 O   0  0  0  0  0  0  0  0  0  0  0  0
   12.5996    3.4728   24.1298 F   0  0  0  0  0  0  0  0  0  0  0  0
    9.9078   -1.7349   23.5150 S   0  0  0  0  0  0  0  0  0  0  0  0
    5.2253    0.9969   18.7259 Cl  0  0  0  0  0  0  0  0  0  0  0  0
  1  3  2  0
  1  5  1  0
  2  4  1  0
  2  5  2  0
  3  6  1  0
  4  6  2  0
  5 18  1  0
  6 19  1  0
  7 12  1  0
  7 13  1  0
  7 15  2  0
  8 10  1  0
  8 13  1  0
  9 11  1  0
  9 13  1  0
 10 14  1  0
 11 14  1  0
 12 20  1  0
 14 19  1  0
 16 19  2  0
 17 19  2  0
M  END
