KEI-UNI-85a52787-2
     RDKit          3D

 32 35  0  0  1  0  0  0  0  0999 V2000
    6.6604    0.5240   19.4095 C   0  0  0  0  0  0  0  0  0  0  0  0
   12.5906   -0.4139   22.5358 C   0  0  0  0  0  0  0  0  0  0  0  0
   10.9890    1.9699   24.8879 C   0  0  0  0  0  0  0  0  0  0  0  0
    6.9605    0.1537   20.7156 C   0  0  0  0  0  0  0  0  0  0  0  0
   11.9421   -1.6032   22.8697 C   0  0  0  0  0  0  0  0  0  0  0  0
   11.6375    3.1591   24.5539 C   0  0  0  0  0  0  0  0  0  0  0  0
   12.9234    1.9890   22.8792 C   0  0  0  0  0  0  0  0  0  0  0  0
    6.3024   -0.4746   18.5182 C   0  0  0  0  0  0  0  0  0  0  0  0
    6.5257   -2.1072   20.1191 C   0  0  0  0  0  0  0  0  0  0  0  0
   12.2806    0.7829   23.2022 C   0  0  0  0  0  0  0  0  0  0  0  0
   11.2990    0.7731   24.2216 C   0  0  0  0  0  0  0  0  0  0  0  0
    6.8944   -1.1851   21.0854 C   0  0  0  0  0  0  0  0  0  0  0  0
   10.9768   -1.6127   23.8722 C   0  0  0  0  0  0  0  0  0  0  0  0
   12.6029    3.1687   23.5515 C   0  0  0  0  0  0  0  0  0  0  0  0
   10.6563   -0.4331   24.5446 C   0  0  0  0  0  0  0  0  0  0  0  0
    5.3377   -4.4686   22.5093 C   0  0  0  0  0  0  0  0  0  0  0  0
    6.7091   -4.0943   24.6077 C   0  0  0  0  0  0  0  0  0  0  0  0
    5.9598   -2.1838   23.2083 C   0  0  0  0  0  0  0  0  0  0  0  0
    8.2089   -4.2199   24.3880 C   0  0  0  0  0  0  0  0  0  0  0  0
    8.4772   -2.5041   22.5518 C   0  0  0  0  0  0  0  0  0  0  0  0
    7.2167   -1.6235   22.5097 C   0  0  0  0  0  0  0  0  0  0  0  0
    5.4118   -5.9506   22.7816 C   0  0  0  0  0  0  0  0  0  0  0  0
   10.3191   -2.9256   24.1801 C   0  0  0  0  0  0  0  0  0  0  0  0
    6.2270   -1.7853   18.8405 N   0  0  0  0  0  0  0  0  0  0  0  0
    5.9774   -3.6300   23.4252 N   0  0  0  0  0  0  0  0  0  0  0  0
   14.7510    4.6087   24.1971 N   0  0  0  0  0  0  0  0  0  0  0  0
    8.8242   -2.9011   23.9735 N   0  0  0  0  0  0  0  0  0  0  0  0
    4.7240   -4.0686   21.5166 O   0  0  0  0  0  0  0  0  0  0  0  0
   13.8964    4.5510   21.7656 O   0  0  0  0  0  0  0  0  0  0  0  0
   12.5564    5.7727   23.5147 O   0  0  0  0  0  0  0  0  0  0  0  0
   13.4134    4.6582   23.1351 S   0  0  0  0  0  0  0  0  0  0  0  0
    9.3132   -0.5440   25.9113 Br  0  0  0  0  0  0  0  0  0  0  0  0
  1  4  2  0
  1  8  1  0
  2  5  2  0
  2 10  1  0
  3  6  1  0
  3 11  2  0
  4 12  1  0
  5 13  1  0
  6 14  2  0
  7 10  2  0
  7 14  1  0
  8 24  2  0
  9 12  2  0
  9 24  1  0
 10 11  1  0
 11 15  1  0
 12 21  1  0
 13 15  2  0
 13 23  1  0
 14 31  1  0
 15 32  1  0
 16 22  1  0
 16 25  1  0
 16 28  2  0
 17 19  1  0
 17 25  1  0
 18 21  1  0
 18 25  1  0
 19 27  1  0
 20 21  1  0
 20 27  1  0
 23 27  1  0
 26 31  1  0
 29 31  2  0
 30 31  2  0
M  CHG  1  27   1
M  END
