KEI-UNI-85a52787-9
     RDKit          3D

 32 35  0  0  1  0  0  0  0  0999 V2000
    6.5318    0.8443   19.5704 C   0  0  0  0  0  0  0  0  0  0  0  0
   11.1241    1.9598   24.9046 C   0  0  0  0  0  0  0  0  0  0  0  0
    6.9435    0.3445   20.8009 C   0  0  0  0  0  0  0  0  0  0  0  0
   12.1675   -1.2588   22.4332 C   0  0  0  0  0  0  0  0  0  0  0  0
   12.7045    0.0130   22.2185 C   0  0  0  0  0  0  0  0  0  0  0  0
   11.6747    3.2105   24.6650 C   0  0  0  0  0  0  0  0  0  0  0  0
    6.1865   -0.0650   18.5837 C   0  0  0  0  0  0  0  0  0  0  0  0
    6.6301   -1.8554   19.9534 C   0  0  0  0  0  0  0  0  0  0  0  0
   11.4623    0.8725   24.0877 C   0  0  0  0  0  0  0  0  0  0  0  0
    6.9964   -1.0300   21.0042 C   0  0  0  0  0  0  0  0  0  0  0  0
   11.2751   -1.4692   23.4771 C   0  0  0  0  0  0  0  0  0  0  0  0
   12.3687    1.0935   23.0296 C   0  0  0  0  0  0  0  0  0  0  0  0
   10.9221   -0.4066   24.3038 C   0  0  0  0  0  0  0  0  0  0  0  0
   12.5522    3.3293   23.6064 C   0  0  0  0  0  0  0  0  0  0  0  0
    5.7727   -4.5718   22.0950 C   0  0  0  0  0  0  0  0  0  0  0  0
    7.2510   -4.3461   24.1415 C   0  0  0  0  0  0  0  0  0  0  0  0
    6.2777   -2.3459   23.0364 C   0  0  0  0  0  0  0  0  0  0  0  0
    8.7380   -4.3272   23.8221 C   0  0  0  0  0  0  0  0  0  0  0  0
    8.7622   -2.3879   22.2016 C   0  0  0  0  0  0  0  0  0  0  0  0
    7.4429   -1.6096   22.3420 C   0  0  0  0  0  0  0  0  0  0  0  0
    5.9689   -6.0655   22.1759 C   0  0  0  0  0  0  0  0  0  0  0  0
   10.7334   -2.8568   23.6563 C   0  0  0  0  0  0  0  0  0  0  0  0
    6.2251   -1.4068   18.7441 N   0  0  0  0  0  0  0  0  0  0  0  0
   12.9047    2.3062   22.7947 N   0  0  0  0  0  0  0  0  0  0  0  0
    6.4114   -3.8019   23.0700 N   0  0  0  0  0  0  0  0  0  0  0  0
   12.1902    5.4855   22.0818 N   0  0  0  0  0  0  0  0  0  0  0  0
    9.2300   -2.9242   23.5405 N   0  0  0  0  0  0  0  0  0  0  0  0
    5.0678   -4.1048   21.1968 O   0  0  0  0  0  0  0  0  0  0  0  0
   13.3696    5.6806   24.3658 O   0  0  0  0  0  0  0  0  0  0  0  0
   14.5552    4.5366   22.4597 O   0  0  0  0  0  0  0  0  0  0  0  0
   13.3214    4.8271   23.1831 S   0  0  0  0  0  0  0  0  0  0  0  0
    9.6857   -0.7710   25.7239 Br  0  0  0  0  0  0  0  0  0  0  0  0
  1  3  2  0
  1  7  1  0
  2  6  2  0
  2  9  1  0
  3 10  1  0
  4  5  2  0
  4 11  1  0
  5 12  1  0
  6 14  1  0
  7 23  2  0
  8 10  2  0
  8 23  1  0
  9 12  2  0
  9 13  1  0
 10 20  1  0
 11 13  2  0
 11 22  1  0
 12 24  1  0
 13 32  1  0
 14 24  2  0
 14 31  1  0
 15 21  1  0
 15 25  1  0
 15 28  2  0
 16 18  1  0
 16 25  1  0
 17 20  1  0
 17 25  1  0
 18 27  1  0
 19 20  1  0
 19 27  1  0
 22 27  1  0
 26 31  1  0
 29 31  2  0
 30 31  2  0
M  CHG  1  27   1
M  END
