KEI-UNI-85a52787-1
     RDKit          3D

 32 35  0  0  1  0  0  0  0  0999 V2000
    6.4295    0.2153   19.5880 C   0  0  0  0  0  0  0  0  0  0  0  0
   12.7502   -0.3025   21.9289 C   0  0  0  0  0  0  0  0  0  0  0  0
   11.2324    1.6973   24.6634 C   0  0  0  0  0  0  0  0  0  0  0  0
    6.9267   -0.1902   20.8215 C   0  0  0  0  0  0  0  0  0  0  0  0
   12.2699   -1.5783   22.2257 C   0  0  0  0  0  0  0  0  0  0  0  0
   11.7127    2.9731   24.3666 C   0  0  0  0  0  0  0  0  0  0  0  0
   12.8849    2.0875   22.4511 C   0  0  0  0  0  0  0  0  0  0  0  0
    6.0309   -0.7663   18.6950 C   0  0  0  0  0  0  0  0  0  0  0  0
    6.5842   -2.4484   20.1587 C   0  0  0  0  0  0  0  0  0  0  0  0
   12.4106    0.7964   22.7348 C   0  0  0  0  0  0  0  0  0  0  0  0
   11.5720    0.5984   23.8575 C   0  0  0  0  0  0  0  0  0  0  0  0
    7.0089   -1.5457   21.1202 C   0  0  0  0  0  0  0  0  0  0  0  0
   11.4453   -1.7730   23.3298 C   0  0  0  0  0  0  0  0  0  0  0  0
   11.0978   -0.6927   24.1413 C   0  0  0  0  0  0  0  0  0  0  0  0
   12.5374    3.1678   23.2625 C   0  0  0  0  0  0  0  0  0  0  0  0
    5.9009   -5.0064   22.5442 C   0  0  0  0  0  0  0  0  0  0  0  0
    7.5073   -4.6211   24.4664 C   0  0  0  0  0  0  0  0  0  0  0  0
    6.4403   -2.7140   23.2857 C   0  0  0  0  0  0  0  0  0  0  0  0
    8.9699   -4.6154   24.0488 C   0  0  0  0  0  0  0  0  0  0  0  0
    8.8651   -2.8000   22.2936 C   0  0  0  0  0  0  0  0  0  0  0  0
    7.5488   -2.0225   22.4641 C   0  0  0  0  0  0  0  0  0  0  0  0
    6.1194   -6.4887   22.7202 C   0  0  0  0  0  0  0  0  0  0  0  0
   10.9328   -3.1474   23.6448 C   0  0  0  0  0  0  0  0  0  0  0  0
    6.0956   -2.0924   18.9495 N   0  0  0  0  0  0  0  0  0  0  0  0
    6.5930   -4.1627   23.4162 N   0  0  0  0  0  0  0  0  0  0  0  0
   14.5978    4.7772   23.7816 N   0  0  0  0  0  0  0  0  0  0  0  0
    9.4259   -3.2335   23.6340 N   0  0  0  0  0  0  0  0  0  0  0  0
    5.1332   -4.6113   21.6630 O   0  0  0  0  0  0  0  0  0  0  0  0
   13.4515    4.8218   21.4730 O   0  0  0  0  0  0  0  0  0  0  0  0
   12.2305    5.7458   23.4738 O   0  0  0  0  0  0  0  0  0  0  0  0
   10.3008   -0.8976   25.2025 F   0  0  0  0  0  0  0  0  0  0  0  0
   13.1379    4.7655   22.8939 S   0  0  0  0  0  0  0  0  0  0  0  0
  1  4  2  0
  1  8  1  0
  2  5  2  0
  2 10  1  0
  3  6  1  0
  3 11  2  0
  4 12  1  0
  5 13  1  0
  6 15  2  0
  7 10  2  0
  7 15  1  0
  8 24  2  0
  9 12  2  0
  9 24  1  0
 10 11  1  0
 11 14  1  0
 12 21  1  0
 13 14  2  0
 13 23  1  0
 14 31  1  0
 15 32  1  0
 16 22  1  0
 16 25  1  0
 16 28  2  0
 17 19  1  0
 17 25  1  0
 18 21  1  0
 18 25  1  0
 19 27  1  0
 20 21  1  0
 20 27  1  0
 23 27  1  0
 26 32  1  0
 29 32  2  0
 30 32  2  0
M  CHG  1  27   1
M  END
