KEI-UNI-85a52787-8
     RDKit          3D

 31 34  0  0  1  0  0  0  0  0999 V2000
    5.0220    1.2592   19.7927 C   0  0  0  0  0  0  0  0  0  0  0  0
    8.3701    2.8639   24.9937 C   0  0  0  0  0  0  0  0  0  0  0  0
    5.2334    0.3083   20.7848 C   0  0  0  0  0  0  0  0  0  0  0  0
   10.7184   -0.0588   23.1232 C   0  0  0  0  0  0  0  0  0  0  0  0
   11.0236    1.2982   22.9912 C   0  0  0  0  0  0  0  0  0  0  0  0
    8.6994    4.2032   24.8430 C   0  0  0  0  0  0  0  0  0  0  0  0
    5.6855    1.0972   18.5871 C   0  0  0  0  0  0  0  0  0  0  0  0
    6.7054   -0.8321   19.3053 C   0  0  0  0  0  0  0  0  0  0  0  0
    9.1448    1.8735   24.3749 C   0  0  0  0  0  0  0  0  0  0  0  0
    6.0898   -0.7604   20.5445 C   0  0  0  0  0  0  0  0  0  0  0  0
    9.6242   -0.4544   23.8825 C   0  0  0  0  0  0  0  0  0  0  0  0
   10.2542    2.2824   23.6055 C   0  0  0  0  0  0  0  0  0  0  0  0
    8.8377    0.5087   24.5079 C   0  0  0  0  0  0  0  0  0  0  0  0
    9.8027    4.5061   24.0711 C   0  0  0  0  0  0  0  0  0  0  0  0
   10.2011    5.8891   23.8732 C   0  0  0  0  0  0  0  0  0  0  0  0
    6.1599   -5.6556   21.4212 C   0  0  0  0  0  0  0  0  0  0  0  0
    6.2925   -4.1539   23.3657 C   0  0  0  0  0  0  0  0  0  0  0  0
    5.8205   -3.1770   21.0974 C   0  0  0  0  0  0  0  0  0  0  0  0
    7.7279   -3.7776   23.6957 C   0  0  0  0  0  0  0  0  0  0  0  0
    7.8264   -1.8533   22.0169 C   0  0  0  0  0  0  0  0  0  0  0  0
    6.3426   -1.8217   21.6132 C   0  0  0  0  0  0  0  0  0  0  0  0
    6.4095   -6.7603   22.4194 C   0  0  0  0  0  0  0  0  0  0  0  0
    9.3481   -1.9254   23.9870 C   0  0  0  0  0  0  0  0  0  0  0  0
    6.5248    0.0724   18.3169 N   0  0  0  0  0  0  0  0  0  0  0  0
   10.5763    3.5814   23.4575 N   0  0  0  0  0  0  0  0  0  0  0  0
    6.1031   -4.3506   21.9300 N   0  0  0  0  0  0  0  0  0  0  0  0
   11.3224    6.1351   23.0848 N   0  0  0  0  0  0  0  0  0  0  0  0
    7.9882   -2.3119   23.4538 N   0  0  0  0  0  0  0  0  0  0  0  0
    9.5766    6.8271   24.4009 O   0  0  0  0  0  0  0  0  0  0  0  0
    6.0150   -5.9417   20.2297 O   0  0  0  0  0  0  0  0  0  0  0  0
    7.3437   -0.1104   25.5388 Br  0  0  0  0  0  0  0  0  0  0  0  0
  1  3  2  0
  1  7  1  0
  2  6  2  0
  2  9  1  0
  3 10  1  0
  4  5  2  0
  4 11  1  0
  5 12  1  0
  6 14  1  0
  7 24  2  0
  8 10  2  0
  8 24  1  0
  9 12  2  0
  9 13  1  0
 10 21  1  0
 11 13  2  0
 11 23  1  0
 12 25  1  0
 13 31  1  0
 14 15  1  0
 14 25  2  0
 15 27  1  0
 15 29  2  0
 16 22  1  0
 16 26  1  0
 16 30  2  0
 17 19  1  0
 17 26  1  0
 18 21  1  0
 18 26  1  0
 19 28  1  0
 20 21  1  0
 20 28  1  0
 23 28  1  0
M  CHG  1  28   1
M  END
