KIM-UNI-2ee5d8f9-1
     RDKit          3D

 18 19  0  0  0  0  0  0  0  0999 V2000
   12.6052   -3.2355   25.7140 C   0  0  0  0  0  0  0  0  0  0  0  0
   11.0470   -1.5694   24.9186 C   0  0  0  0  0  0  0  0  0  0  0  0
   13.3474   -0.9663   25.3444 C   0  0  0  0  0  0  0  0  0  0  0  0
   11.3190   -2.8812   25.3070 C   0  0  0  0  0  0  0  0  0  0  0  0
   13.6194   -2.2781   25.7328 C   0  0  0  0  0  0  0  0  0  0  0  0
   12.0612   -0.6119   24.9373 C   0  0  0  0  0  0  0  0  0  0  0  0
    5.8710   -4.3260   21.8922 C   0  0  0  0  0  0  0  0  0  0  0  0
    6.5824   -3.6659   24.1680 C   0  0  0  0  0  0  0  0  0  0  0  0
    8.0356   -3.0474   22.2762 C   0  0  0  0  0  0  0  0  0  0  0  0
    7.7766   -4.2206   24.9307 C   0  0  0  0  0  0  0  0  0  0  0  0
    9.2529   -3.5914   23.0117 C   0  0  0  0  0  0  0  0  0  0  0  0
    5.0680   -5.4532   22.4909 C   0  0  0  0  0  0  0  0  0  0  0  0
   10.2286   -3.9116   25.2879 C   0  0  0  0  0  0  0  0  0  0  0  0
    6.8105   -3.7184   22.7239 N   0  0  0  0  0  0  0  0  0  0  0  0
    9.0229   -3.4786   24.5023 N   0  0  0  0  0  0  0  0  0  0  0  0
    5.6661   -3.9953   20.7214 O   0  0  0  0  0  0  0  0  0  0  0  0
   14.8746   -2.6235   26.1301 O   0  0  0  0  0  0  0  0  0  0  0  0
   11.7261    1.0063   24.4570 Cl  0  0  0  0  0  0  0  0  0  0  0  0
  1  4  2  0
  1  5  1  0
  2  4  1  0
  2  6  2  0
  3  5  2  0
  3  6  1  0
  4 13  1  0
  5 17  1  0
  6 18  1  0
  7 12  1  0
  7 14  1  0
  7 16  2  0
  8 10  1  0
  8 14  1  0
  9 11  1  0
  9 14  1  0
 10 15  1  0
 11 15  1  0
 13 15  1  0
M  CHG  1  15   1
M  END
