KIM-UNI-60f168f5-8
     RDKit          3D

 22 24  0  0  1  0  0  0  0  0999 V2000
    5.4032    1.3606   19.5064 C   0  0  0  0  0  0  0  0  0  0  0  0
    5.6594    0.9802   18.1989 C   0  0  0  0  0  0  0  0  0  0  0  0
    7.4880   -0.2621   18.8242 C   0  0  0  0  0  0  0  0  0  0  0  0
    6.2528    0.8876   20.5002 C   0  0  0  0  0  0  0  0  0  0  0  0
    7.3176    0.0603   20.1609 C   0  0  0  0  0  0  0  0  0  0  0  0
    9.9743   -1.2773   23.1569 C   0  0  0  0  0  0  0  0  0  0  0  0
   10.2405   -0.1339   22.5259 C   0  0  0  0  0  0  0  0  0  0  0  0
    8.8388   -2.1134   22.8121 C   0  0  0  0  0  0  0  0  0  0  0  0
    8.0124   -1.6842   21.8225 C   0  0  0  0  0  0  0  0  0  0  0  0
    9.3417    0.3557   21.4564 C   0  0  0  0  0  0  0  0  0  0  0  0
    8.6237   -4.6184   25.5548 C   0  0  0  0  0  0  0  0  0  0  0  0
    6.8918   -2.5970   21.3521 C   0  0  0  0  0  0  0  0  0  0  0  0
    7.1244   -4.0615   21.7176 C   0  0  0  0  0  0  0  0  0  0  0  0
    7.5042   -4.1972   23.1829 C   0  0  0  0  0  0  0  0  0  0  0  0
    6.0003    1.2824   21.9183 C   0  0  0  0  0  0  0  0  0  0  0  0
    9.4598   -3.7661   24.6281 C   0  0  0  0  0  0  0  0  0  0  0  0
    6.6835    0.1782   17.8309 N   0  0  0  0  0  0  0  0  0  0  0  0
    8.2264   -0.4565   21.1541 N   0  0  0  0  0  0  0  0  0  0  0  0
    8.6493   -3.3337   23.4899 N   0  0  0  0  0  0  0  0  0  0  0  0
    9.1291   -5.8934   25.6923 N   0  0  0  0  0  0  0  0  0  0  0  0
    9.6078    1.4459   20.9482 O   0  0  0  0  0  0  0  0  0  0  0  0
    7.6329   -4.2099   26.1543 O   0  0  0  0  0  0  0  0  0  0  0  0
  1  2  2  0
  1  4  1  0
  2 17  1  0
  3  5  1  0
  3 17  2  0
  4  5  2  0
  4 15  1  0
  5 18  1  0
  6  7  2  0
  6  8  1  0
  7 10  1  0
  8  9  2  0
  8 19  1  0
  9 12  1  0
  9 18  1  0
 10 18  1  0
 10 21  2  0
 11 16  1  0
 11 20  1  0
 11 22  2  0
 12 13  1  0
 13 14  1  0
 14 19  1  0
 16 19  1  0
M  END
