KIM-UNI-7d12df64-2
     RDKit          3D

 21 22  0  0  0  0  0  0  0  0999 V2000
   14.6750   -0.5074   22.1555 C   0  0  0  0  0  0  0  0  0  0  0  0
   13.1949    0.7639   23.6298 C   0  0  0  0  0  0  0  0  0  0  0  0
   11.9465    0.9580   24.2209 C   0  0  0  0  0  0  0  0  0  0  0  0
   12.3499   -1.1893   22.4862 C   0  0  0  0  0  0  0  0  0  0  0  0
   13.3966   -0.3097   22.7624 C   0  0  0  0  0  0  0  0  0  0  0  0
   11.1015   -0.9953   23.0774 C   0  0  0  0  0  0  0  0  0  0  0  0
   10.8998    0.0783   23.9447 C   0  0  0  0  0  0  0  0  0  0  0  0
    6.0888   -0.9160   18.9734 C   0  0  0  0  0  0  0  0  0  0  0  0
    6.4722   -1.5245   21.3406 C   0  0  0  0  0  0  0  0  0  0  0  0
    7.9494    0.1676   20.3268 C   0  0  0  0  0  0  0  0  0  0  0  0
    7.6759   -2.2761   21.8899 C   0  0  0  0  0  0  0  0  0  0  0  0
    9.1761   -0.5580   20.8629 C   0  0  0  0  0  0  0  0  0  0  0  0
    6.0088    0.2830   18.0624 C   0  0  0  0  0  0  0  0  0  0  0  0
    8.7811    2.4777   24.0179 C   0  0  0  0  0  0  0  0  0  0  0  0
    9.9934   -1.9568   22.7631 C   0  0  0  0  0  0  0  0  0  0  0  0
    9.2468    1.5541   25.0916 C   0  0  0  0  0  0  0  0  0  0  0  0
   15.7132   -0.6681   21.6625 N   0  0  0  0  0  0  0  0  0  0  0  0
    6.8296   -0.7621   20.1443 N   0  0  0  0  0  0  0  0  0  0  0  0
    9.6421    0.2918   24.5503 N   0  0  0  0  0  0  0  0  0  0  0  0
    8.8021   -1.2954   22.1292 N   0  0  0  0  0  0  0  0  0  0  0  0
    5.5117   -1.9577   18.6510 O   0  0  0  0  0  0  0  0  0  0  0  0
  1  5  1  0
  1 17  3  0
  2  3  2  0
  2  5  1  0
  3  7  1  0
  4  5  2  0
  4  6  1  0
  6  7  2  0
  6 15  1  0
  7 19  1  0
  8 13  1  0
  8 18  1  0
  8 21  2  0
  9 11  1  0
  9 18  1  0
 10 12  1  0
 10 18  1  0
 11 20  1  0
 12 20  1  0
 14 16  1  0
 15 20  1  0
 16 19  1  0
M  CHG  1  20   1
M  END
