KIM-UNI-60f168f5-11
     RDKit          3D

 23 25  0  0  0  0  0  0  0  0999 V2000
    6.7364    0.8029   18.5165 C   0  0  0  0  0  0  0  0  0  0  0  0
    8.6760   -0.3523   18.9360 C   0  0  0  0  0  0  0  0  0  0  0  0
    6.4459    0.9284   19.8708 C   0  0  0  0  0  0  0  0  0  0  0  0
    7.3590    0.3871   20.7866 C   0  0  0  0  0  0  0  0  0  0  0  0
    8.4895   -0.2781   20.3072 C   0  0  0  0  0  0  0  0  0  0  0  0
    9.0289   -1.9050   22.0670 C   0  0  0  0  0  0  0  0  0  0  0  0
   10.8110   -0.3888   21.1352 C   0  0  0  0  0  0  0  0  0  0  0  0
   13.3342   -0.6801   24.2974 C   0  0  0  0  0  0  0  0  0  0  0  0
    7.1004    0.4606   22.2712 C   0  0  0  0  0  0  0  0  0  0  0  0
    5.2251    1.6651   20.3308 C   0  0  0  0  0  0  0  0  0  0  0  0
   10.0545   -2.3016   23.0956 C   0  0  0  0  0  0  0  0  0  0  0  0
   11.3890   -2.4498   22.4115 C   0  0  0  0  0  0  0  0  0  0  0  0
    6.1152    1.5590   22.6548 C   0  0  0  0  0  0  0  0  0  0  0  0
   13.5924   -0.0068   22.9616 C   0  0  0  0  0  0  0  0  0  0  0  0
   13.1755   -0.8544   21.7676 C   0  0  0  0  0  0  0  0  0  0  0  0
    7.8284    0.1748   18.0265 N   0  0  0  0  0  0  0  0  0  0  0  0
    9.4665   -0.8814   21.1905 N   0  0  0  0  0  0  0  0  0  0  0  0
   11.7588   -1.1883   21.7969 N   0  0  0  0  0  0  0  0  0  0  0  0
   14.4096   -1.4322   24.7202 N   0  0  0  0  0  0  0  0  0  0  0  0
    4.9097    1.4499   21.7805 N   0  0  0  0  0  0  0  0  0  0  0  0
    7.9359   -2.4712   22.0456 O   0  0  0  0  0  0  0  0  0  0  0  0
   11.1237    0.6783   20.5966 O   0  0  0  0  0  0  0  0  0  0  0  0
   12.2929   -0.5622   24.9366 O   0  0  0  0  0  0  0  0  0  0  0  0
  1  3  2  0
  1 16  1  0
  2  5  1  0
  2 16  2  0
  3  4  1  0
  3 10  1  0
  4  5  2  0
  4  9  1  0
  5 17  1  0
  6 11  1  0
  6 17  1  0
  6 21  2  0
  7 17  1  0
  7 18  1  0
  7 22  2  0
  8 14  1  0
  8 19  1  0
  8 23  2  0
  9 13  1  0
 10 20  1  0
 11 12  1  0
 12 18  1  0
 13 20  1  0
 14 15  1  0
 15 18  1  0
M  CHG  1  20   1
M  END
