KIM-UNI-7d12df64-4
     RDKit          3D

 20 22  0  0  1  0  0  0  0  0999 V2000
   12.9595    0.9535   22.9162 C   0  0  0  0  0  0  0  0  0  0  0  0
   12.1371   -0.0376   23.4542 C   0  0  0  0  0  0  0  0  0  0  0  0
   10.6471    1.6588   24.2968 C   0  0  0  0  0  0  0  0  0  0  0  0
   11.4720    2.6619   23.7649 C   0  0  0  0  0  0  0  0  0  0  0  0
   12.6356    2.3121   23.0499 C   0  0  0  0  0  0  0  0  0  0  0  0
   10.9799    0.3149   24.1416 C   0  0  0  0  0  0  0  0  0  0  0  0
    6.0472    5.4195   22.0570 C   0  0  0  0  0  0  0  0  0  0  0  0
   12.3105    5.0287   23.7676 C   0  0  0  0  0  0  0  0  0  0  0  0
   13.1082    4.6779   22.5156 C   0  0  0  0  0  0  0  0  0  0  0  0
    8.3685    6.2394   22.3023 C   0  0  0  0  0  0  0  0  0  0  0  0
    8.0351    3.8863   21.6507 C   0  0  0  0  0  0  0  0  0  0  0  0
    9.3580    5.8222   23.3804 C   0  0  0  0  0  0  0  0  0  0  0  0
    9.0217    3.4334   22.7185 C   0  0  0  0  0  0  0  0  0  0  0  0
   11.0920    4.1139   23.9377 C   0  0  0  0  0  0  0  0  0  0  0  0
    5.1355    4.2572   21.7544 C   0  0  0  0  0  0  0  0  0  0  0  0
   13.4835    3.2774   22.5223 N   0  0  0  0  0  0  0  0  0  0  0  0
    7.4173    5.1651   22.0175 N   0  0  0  0  0  0  0  0  0  0  0  0
   10.0303    4.5341   22.9606 N   0  0  0  0  0  0  0  0  0  0  0  0
    5.5545    6.5189   22.3228 O   0  0  0  0  0  0  0  0  0  0  0  0
    9.9634   -0.9080   24.7984 Cl  0  0  0  0  0  0  0  0  0  0  0  0
  1  2  2  0
  1  5  1  0
  2  6  1  0
  3  4  1  0
  3  6  2  0
  4  5  2  0
  4 14  1  0
  5 16  1  0
  6 20  1  0
  7 15  1  0
  7 17  1  0
  7 19  2  0
  8  9  1  0
  8 14  1  0
  9 16  1  0
 10 12  1  0
 10 17  1  0
 11 13  1  0
 11 17  1  0
 12 18  1  0
 13 18  1  0
 14 18  1  0
M  CHG  1  18   1
M  END
