KIM-UNI-60f168f5-7
     RDKit          3D

 22 24  0  0  1  0  0  0  0  0999 V2000
    5.4174    1.1489   19.6556 C   0  0  0  0  0  0  0  0  0  0  0  0
    5.8197    0.9145   18.3506 C   0  0  0  0  0  0  0  0  0  0  0  0
    7.7079   -0.1992   19.0381 C   0  0  0  0  0  0  0  0  0  0  0  0
    6.2252    0.6711   20.6815 C   0  0  0  0  0  0  0  0  0  0  0  0
    7.3942   -0.0168   20.3753 C   0  0  0  0  0  0  0  0  0  0  0  0
   10.0963   -1.4665   23.2773 C   0  0  0  0  0  0  0  0  0  0  0  0
   10.2461   -0.2219   22.8246 C   0  0  0  0  0  0  0  0  0  0  0  0
    9.0034   -2.3242   22.8562 C   0  0  0  0  0  0  0  0  0  0  0  0
    8.1238   -1.8300   21.9458 C   0  0  0  0  0  0  0  0  0  0  0  0
    9.3053    0.3264   21.8218 C   0  0  0  0  0  0  0  0  0  0  0  0
    9.2189   -4.4756   25.6144 C   0  0  0  0  0  0  0  0  0  0  0  0
    6.8994   -2.6545   21.5831 C   0  0  0  0  0  0  0  0  0  0  0  0
    6.5648   -3.7149   22.6300 C   0  0  0  0  0  0  0  0  0  0  0  0
    7.8028   -4.5149   23.0004 C   0  0  0  0  0  0  0  0  0  0  0  0
    5.8158    0.9102   22.0978 C   0  0  0  0  0  0  0  0  0  0  0  0
    9.8691   -4.2035   24.3170 C   0  0  0  0  0  0  0  0  0  0  0  0
    6.9482    0.2504   18.0142 N   0  0  0  0  0  0  0  0  0  0  0  0
    8.2651   -0.5322   21.4025 N   0  0  0  0  0  0  0  0  0  0  0  0
    8.8815   -3.6115   23.4153 N   0  0  0  0  0  0  0  0  0  0  0  0
    9.6789   -5.4889   26.3343 N   0  0  0  0  0  0  0  0  0  0  0  0
    8.2156   -3.6898   25.9783 N   0  0  0  0  0  0  0  0  0  0  0  0
    9.5258    1.4629   21.4007 O   0  0  0  0  0  0  0  0  0  0  0  0
  1  2  2  0
  1  4  1  0
  2 17  1  0
  3  5  1  0
  3 17  2  0
  4  5  2  0
  4 15  1  0
  5 18  1  0
  6  7  2  0
  6  8  1  0
  7 10  1  0
  8  9  2  0
  8 19  1  0
  9 12  1  0
  9 18  1  0
 10 18  1  0
 10 22  2  0
 11 16  1  0
 11 20  1  0
 11 21  2  0
 12 13  1  0
 13 14  1  0
 14 19  1  0
 16 19  1  0
M  CHG  1  21   1
M  END
