KIM-UNI-60f168f5-10
     RDKit          3D

 23 25  0  0  1  0  0  0  0  0999 V2000
    5.6794    1.3330   19.6964 C   0  0  0  0  0  0  0  0  0  0  0  0
    5.9927    1.0489   18.3770 C   0  0  0  0  0  0  0  0  0  0  0  0
    7.7416   -0.3085   18.9909 C   0  0  0  0  0  0  0  0  0  0  0  0
    6.4576    0.7498   20.6902 C   0  0  0  0  0  0  0  0  0  0  0  0
    7.5104   -0.0878   20.3391 C   0  0  0  0  0  0  0  0  0  0  0  0
   10.1115   -1.8906   23.1336 C   0  0  0  0  0  0  0  0  0  0  0  0
   10.4077   -0.6765   22.6701 C   0  0  0  0  0  0  0  0  0  0  0  0
    8.8973   -2.5937   22.7610 C   0  0  0  0  0  0  0  0  0  0  0  0
    8.0550   -1.9848   21.8855 C   0  0  0  0  0  0  0  0  0  0  0  0
    9.5082   -0.0058   21.7046 C   0  0  0  0  0  0  0  0  0  0  0  0
    8.1148   -4.2726   26.2583 C   0  0  0  0  0  0  0  0  0  0  0  0
    6.7174   -2.6375   21.5766 C   0  0  0  0  0  0  0  0  0  0  0  0
    6.2875   -3.6452   22.6405 C   0  0  0  0  0  0  0  0  0  0  0  0
    7.4215   -4.6042   22.9630 C   0  0  0  0  0  0  0  0  0  0  0  0
    6.1425    1.0393   22.1211 C   0  0  0  0  0  0  0  0  0  0  0  0
    9.4907   -4.1051   25.6392 C   0  0  0  0  0  0  0  0  0  0  0  0
    9.5633   -4.5742   24.1926 C   0  0  0  0  0  0  0  0  0  0  0  0
    7.0074    0.2403   17.9972 N   0  0  0  0  0  0  0  0  0  0  0  0
    8.3462   -0.7168   21.3317 N   0  0  0  0  0  0  0  0  0  0  0  0
    8.6275   -3.8540   23.3298 N   0  0  0  0  0  0  0  0  0  0  0  0
    7.9615   -5.5002   26.8669 N   0  0  0  0  0  0  0  0  0  0  0  0
    9.8612    1.0917   21.2703 O   0  0  0  0  0  0  0  0  0  0  0  0
    7.2399   -3.4121   26.2319 O   0  0  0  0  0  0  0  0  0  0  0  0
  1  2  2  0
  1  4  1  0
  2 18  1  0
  3  5  1  0
  3 18  2  0
  4  5  2  0
  4 15  1  0
  5 19  1  0
  6  7  2  0
  6  8  1  0
  7 10  1  0
  8  9  2  0
  8 20  1  0
  9 12  1  0
  9 19  1  0
 10 19  1  0
 10 22  2  0
 11 16  1  0
 11 21  1  0
 11 23  2  0
 12 13  1  0
 13 14  1  0
 14 20  1  0
 16 17  1  0
 17 20  1  0
M  END
