KIM-UNI-60f168f5-3
     RDKit          3D

 19 20  0  0  0  0  0  0  0  0999 V2000
    5.2817    0.6902   19.6022 C   0  0  0  0  0  0  0  0  0  0  0  0
    5.7224    0.5515   18.2959 C   0  0  0  0  0  0  0  0  0  0  0  0
    7.7889   -0.1861   18.9770 C   0  0  0  0  0  0  0  0  0  0  0  0
    6.1655    0.3655   20.6252 C   0  0  0  0  0  0  0  0  0  0  0  0
    7.4450   -0.0818   20.3151 C   0  0  0  0  0  0  0  0  0  0  0  0
    8.4264   -1.7736   21.8018 C   0  0  0  0  0  0  0  0  0  0  0  0
    9.2804    0.5955   21.8187 C   0  0  0  0  0  0  0  0  0  0  0  0
   10.0584    2.4407   23.9817 C   0  0  0  0  0  0  0  0  0  0  0  0
    9.5998   -2.0897   22.6907 C   0  0  0  0  0  0  0  0  0  0  0  0
    9.7566   -0.9758   23.6937 C   0  0  0  0  0  0  0  0  0  0  0  0
    5.7169    0.5062   22.0428 C   0  0  0  0  0  0  0  0  0  0  0  0
   10.8552    1.2470   23.6357 C   0  0  0  0  0  0  0  0  0  0  0  0
    6.9576    0.1202   17.9557 N   0  0  0  0  0  0  0  0  0  0  0  0
    8.4026   -0.4330   21.3441 N   0  0  0  0  0  0  0  0  0  0  0  0
    9.9816    0.2753   22.9938 N   0  0  0  0  0  0  0  0  0  0  0  0
    9.0395    2.2822   24.8143 N   0  0  0  0  0  0  0  0  0  0  0  0
   10.4115    3.5968   23.4381 N   0  0  0  0  0  0  0  0  0  0  0  0
    7.5989   -2.6495   21.5492 O   0  0  0  0  0  0  0  0  0  0  0  0
    9.4580    1.6657   21.2274 O   0  0  0  0  0  0  0  0  0  0  0  0
  1  2  2  0
  1  4  1  0
  2 13  1  0
  3  5  1  0
  3 13  2  0
  4  5  2  0
  4 11  1  0
  5 14  1  0
  6  9  1  0
  6 14  1  0
  6 18  2  0
  7 14  1  0
  7 15  1  0
  7 19  2  0
  8 12  1  0
  8 16  1  0
  8 17  2  0
  9 10  1  0
 10 15  1  0
 12 15  1  0
M  CHG  1  17   1
M  END
