KTA-UNK-dac325de-1
     RDKit          3D

 12 13  0  0  1  0  0  0  0  0999 V2000
    5.9111    0.1696   19.2823 C   0  0  0  0  0  0  0  0  0  0  0  0
    6.7151   -0.0934   20.3858 C   0  0  0  0  0  0  0  0  0  0  0  0
    6.5116    0.1960   18.0339 C   0  0  0  0  0  0  0  0  0  0  0  0
    8.5794   -0.2707   18.9198 C   0  0  0  0  0  0  0  0  0  0  0  0
    8.0758   -0.3188   20.2097 C   0  0  0  0  0  0  0  0  0  0  0  0
    9.8937   -2.1476   22.9459 C   0  0  0  0  0  0  0  0  0  0  0  0
    8.6336   -1.8905   22.1432 C   0  0  0  0  0  0  0  0  0  0  0  0
   11.0126   -1.8597   21.9635 C   0  0  0  0  0  0  0  0  0  0  0  0
    8.9741   -0.6072   21.3861 C   0  0  0  0  0  0  0  0  0  0  0  0
   11.2399    0.4779   21.0280 C   0  0  0  0  0  0  0  0  0  0  0  0
    7.8297   -0.0182   17.8235 N   0  0  0  0  0  0  0  0  0  0  0  0
   10.4538   -0.7976   21.0320 N   0  0  0  0  0  0  0  0  0  0  0  0
  1  2  2  0
  1  3  1  0
  2  5  1  0
  3 11  2  0
  4  5  2  0
  4 11  1  0
  5  9  1  0
  6  7  1  0
  6  8  1  0
  7  9  1  0
  8 12  1  0
  9 12  1  0
 10 12  1  0
M  CHG  1  12   1
M  END
