KTA-UNK-96ef4e68-3
     RDKit          3D

 50 53  0  0  1  0  0  0  0  0999 V2000
    9.7765   -4.1294   25.4284 C   0  0  0  0  0  0  0  0  0  0  0  0
    8.8157   -5.0686   25.8028 C   0  0  0  0  0  0  0  0  0  0  0  0
    7.0461   -2.9618   20.2909 C   0  0  0  0  0  0  0  0  0  0  0  0
    7.8843   -0.7009   20.4416 C   0  0  0  0  0  0  0  0  0  0  0  0
   10.6363    1.7329   25.1405 C   0  0  0  0  0  0  0  0  0  0  0  0
   12.3409    2.6797   23.7184 C   0  0  0  0  0  0  0  0  0  0  0  0
    8.0194   -2.0606   20.7222 C   0  0  0  0  0  0  0  0  0  0  0  0
    9.3836   -2.8561   25.0160 C   0  0  0  0  0  0  0  0  0  0  0  0
   11.7382    0.3389   23.4871 C   0  0  0  0  0  0  0  0  0  0  0  0
   10.8139    0.4894   24.5286 C   0  0  0  0  0  0  0  0  0  0  0  0
    7.4619   -4.7346   25.7646 C   0  0  0  0  0  0  0  0  0  0  0  0
    5.9376   -2.5034   19.5789 C   0  0  0  0  0  0  0  0  0  0  0  0
    6.7758   -0.2425   19.7296 C   0  0  0  0  0  0  0  0  0  0  0  0
   11.4016    2.8259   24.7366 C   0  0  0  0  0  0  0  0  0  0  0  0
   12.5098    1.4419   23.0968 C   0  0  0  0  0  0  0  0  0  0  0  0
    8.0299   -2.5221   24.9779 C   0  0  0  0  0  0  0  0  0  0  0  0
    5.8025   -1.1438   19.2983 C   0  0  0  0  0  0  0  0  0  0  0  0
    7.0690   -3.4614   25.3522 C   0  0  0  0  0  0  0  0  0  0  0  0
    9.2010   -2.5480   21.4777 C   0  0  0  0  0  0  0  0  0  0  0  0
    5.1177   -3.4125   24.0921 C   0  0  0  0  0  0  0  0  0  0  0  0
   11.9303   -0.9858   22.7993 C   0  0  0  0  0  0  0  0  0  0  0  0
   10.4433   -1.8474   24.6134 C   0  0  0  0  0  0  0  0  0  0  0  0
   10.7843   -1.9429   23.1204 C   0  0  0  0  0  0  0  0  0  0  0  0
   13.4188    4.1894   17.8868 C   0  0  0  0  0  0  0  0  0  0  0  0
    3.6603   -3.0202   24.1503 C   0  0  0  0  0  0  0  0  0  0  0  0
   12.8000    3.9015   19.2459 C   0  0  0  0  0  0  0  0  0  0  0  0
    3.4506   -1.5595   23.7590 C   0  0  0  0  0  0  0  0  0  0  0  0
   11.2711    3.9616   19.2465 C   0  0  0  0  0  0  0  0  0  0  0  0
    3.8510   -1.2088   22.3210 C   0  0  0  0  0  0  0  0  0  0  0  0
   10.6564    3.7417   20.6305 C   0  0  0  0  0  0  0  0  0  0  0  0
    3.5547    0.2418   21.9362 C   0  0  0  0  0  0  0  0  0  0  0  0
    9.1268    3.7791   20.5703 C   0  0  0  0  0  0  0  0  0  0  0  0
    4.3207    1.2170   22.8329 C   0  0  0  0  0  0  0  0  0  0  0  0
    8.5149    3.5977   21.9609 C   0  0  0  0  0  0  0  0  0  0  0  0
    4.0503    2.6694   22.4342 C   0  0  0  0  0  0  0  0  0  0  0  0
    6.9880    3.7166   21.9750 C   0  0  0  0  0  0  0  0  0  0  0  0
    4.7912    3.6414   23.3545 C   0  0  0  0  0  0  0  0  0  0  0  0
    6.3124    3.4668   23.3276 C   0  0  0  0  0  0  0  0  0  0  0  0
    9.6820   -3.6600   21.3245 O   0  0  0  0  0  0  0  0  0  0  0  0
    5.6625   -3.8835   23.1018 O   0  0  0  0  0  0  0  0  0  0  0  0
   10.0154   -0.5273   24.9851 O   0  0  0  0  0  0  0  0  0  0  0  0
    6.5340   -5.6615   26.1330 O   0  0  0  0  0  0  0  0  0  0  0  0
    4.9946   -3.3942   19.1629 O   0  0  0  0  0  0  0  0  0  0  0  0
    6.6562    1.0880   19.4616 O   0  0  0  0  0  0  0  0  0  0  0  0
   11.2328    4.0347   25.3389 O   0  0  0  0  0  0  0  0  0  0  0  0
   13.4386    1.3311   22.1038 O   0  0  0  0  0  0  0  0  0  0  0  0
    7.6422   -1.2781   24.5750 O   0  0  0  0  0  0  0  0  0  0  0  0
    4.7182   -0.6961   18.6034 O   0  0  0  0  0  0  0  0  0  0  0  0
    5.7135   -3.1286   25.3160 O   0  0  0  0  0  0  0  0  0  0  0  0
    9.6449   -1.5916   22.3341 O   0  0  0  0  0  0  0  0  0  0  0  0
  1  2  2  0
  1  8  1  0
  2 11  1  0
  3  7  2  0
  3 12  1  0
  4  7  1  0
  4 13  2  0
  5 10  2  0
  5 14  1  0
  6 14  2  0
  6 15  1  0
  7 19  1  0
  8 16  2  0
  8 22  1  0
  9 10  1  0
  9 15  2  0
  9 21  1  0
 10 41  1  0
 11 18  2  0
 11 42  1  0
 12 17  2  0
 12 43  1  0
 13 17  1  0
 13 44  1  0
 14 45  1  0
 15 46  1  0
 16 18  1  0
 16 47  1  0
 17 48  1  0
 18 49  1  0
 19 39  2  0
 19 50  1  0
 20 25  1  0
 20 40  2  0
 20 49  1  0
 21 23  1  0
 22 23  1  0
 22 41  1  0
 23 50  1  0
 24 26  1  0
 25 27  1  0
 26 28  1  0
 27 29  1  0
 28 30  1  0
 29 31  1  0
 30 32  1  0
 31 33  1  0
 32 34  1  0
 33 35  1  0
 34 36  1  0
 35 37  1  0
 36 38  1  0
 37 38  1  0
M  END
