KUS-THE-322b9b63-18
     RDKit          3D

 24 27  0  0  1  0  0  0  0  0999 V2000
   13.0999   -0.8919   22.8796 C   0  0  0  0  0  0  0  0  0  0  0  0
   12.2790    0.1444   22.5478 C   0  0  0  0  0  0  0  0  0  0  0  0
   14.0258   -0.3570   23.7745 C   0  0  0  0  0  0  0  0  0  0  0  0
    6.2590   -0.3373   19.5668 C   0  0  0  0  0  0  0  0  0  0  0  0
    6.0159    1.0046   19.7817 C   0  0  0  0  0  0  0  0  0  0  0  0
   11.1190    0.1887   21.6436 C   0  0  0  0  0  0  0  0  0  0  0  0
   13.3313   -2.3212   22.6224 C   0  0  0  0  0  0  0  0  0  0  0  0
   15.0083   -1.3461   24.2462 C   0  0  0  0  0  0  0  0  0  0  0  0
   14.3579   -2.6854   23.7522 C   0  0  0  0  0  0  0  0  0  0  0  0
    9.9203   -1.5612   23.0684 C   0  0  0  0  0  0  0  0  0  0  0  0
    8.8948   -0.7398   21.0475 C   0  0  0  0  0  0  0  0  0  0  0  0
    8.7551   -2.4770   22.6842 C   0  0  0  0  0  0  0  0  0  0  0  0
    7.8821   -1.5346   21.8538 C   0  0  0  0  0  0  0  0  0  0  0  0
    8.0461   -3.0758   23.8871 C   0  0  0  0  0  0  0  0  0  0  0  0
    5.8214   -1.4731   20.4440 C   0  0  0  0  0  0  0  0  0  0  0  0
   13.8512    0.9320   24.0300 N   0  0  0  0  0  0  0  0  0  0  0  0
    6.9760   -0.6379   18.4194 N   0  0  0  0  0  0  0  0  0  0  0  0
    7.2907    0.4555   17.7433 N   0  0  0  0  0  0  0  0  0  0  0  0
   12.7671    1.2167   23.2617 N   0  0  0  0  0  0  0  0  0  0  0  0
   10.0459   -0.6383   21.9372 N   0  0  0  0  0  0  0  0  0  0  0  0
    6.9624   -2.2765   20.9731 N   0  0  0  0  0  0  0  0  0  0  0  0
   11.1823    0.9499   20.6803 O   0  0  0  0  0  0  0  0  0  0  0  0
    6.7316    1.8552   18.4745 S   0  0  0  0  0  0  0  0  0  0  0  0
    5.1882    1.8033   21.0364 Cl  0  0  0  0  0  0  0  0  0  0  0  0
  1  2  2  0
  1  3  1  0
  1  7  1  0
  2  6  1  0
  2 19  1  0
  3  8  1  0
  3 16  2  0
  4  5  2  0
  4 15  1  0
  4 17  1  0
  5 23  1  0
  5 24  1  0
  6 20  1  0
  6 22  2  0
  7  9  1  0
  8  9  1  0
 10 12  1  0
 10 20  1  0
 11 13  1  0
 11 20  1  0
 12 13  1  0
 12 14  1  0
 13 21  1  0
 15 21  1  0
 16 19  1  0
 17 18  2  0
 18 23  1  0
M  CHG  1  21   1
M  END
