KUS-THE-322b9b63-6
     RDKit          3D

 25 28  0  0  0  0  0  0  0  0999 V2000
   11.9027    5.2571   24.8491 C   0  0  0  0  0  0  0  0  0  0  0  0
   10.4054    6.4538   23.6676 C   0  0  0  0  0  0  0  0  0  0  0  0
   10.9454    6.2987   24.9252 C   0  0  0  0  0  0  0  0  0  0  0  0
   11.9186    4.8075   23.5472 C   0  0  0  0  0  0  0  0  0  0  0  0
   12.6951    3.7861   22.9532 C   0  0  0  0  0  0  0  0  0  0  0  0
   13.5735    1.8541   22.5005 C   0  0  0  0  0  0  0  0  0  0  0  0
    7.7045    0.3641   25.2136 C   0  0  0  0  0  0  0  0  0  0  0  0
    7.4318    1.6655   24.4664 C   0  0  0  0  0  0  0  0  0  0  0  0
    8.8298   -0.4975   24.6411 C   0  0  0  0  0  0  0  0  0  0  0  0
    8.6411    2.5819   24.2846 C   0  0  0  0  0  0  0  0  0  0  0  0
   14.0269   -1.8235   22.0741 C   0  0  0  0  0  0  0  0  0  0  0  0
   14.3582   -1.6406   23.5414 C   0  0  0  0  0  0  0  0  0  0  0  0
   10.2149    0.0976   24.9011 C   0  0  0  0  0  0  0  0  0  0  0  0
    9.6383    2.0351   23.2661 C   0  0  0  0  0  0  0  0  0  0  0  0
   14.1938   -0.4158   21.5134 C   0  0  0  0  0  0  0  0  0  0  0  0
   13.7163   -0.2967   23.8662 C   0  0  0  0  0  0  0  0  0  0  0  0
   10.7090    1.0851   23.8306 C   0  0  0  0  0  0  0  0  0  0  0  0
   11.9021    1.8741   24.3885 C   0  0  0  0  0  0  0  0  0  0  0  0
   13.5334    3.9576   21.9561 N   0  0  0  0  0  0  0  0  0  0  0  0
   14.0922    2.7284   21.6681 N   0  0  0  0  0  0  0  0  0  0  0  0
   11.0047    5.5423   22.8380 N   0  0  0  0  0  0  0  0  0  0  0  0
   12.6887    2.4767   23.3277 N   0  0  0  0  0  0  0  0  0  0  0  0
   13.8121    0.4716   22.6189 N   0  0  0  0  0  0  0  0  0  0  0  0
   11.2029    0.3041   22.7312 O   0  0  0  0  0  0  0  0  0  0  0  0
   10.5263    7.2565   26.4747 Br  0  0  0  0  0  0  0  0  0  0  0  0
  1  3  1  0
  1  4  2  0
  2  3  2  0
  2 21  1  0
  3 25  1  0
  4  5  1  0
  4 21  1  0
  5 19  2  0
  5 22  1  0
  6 20  2  0
  6 22  1  0
  6 23  1  0
  7  8  1  0
  7  9  1  0
  8 10  1  0
  9 13  1  0
 10 14  1  0
 11 12  1  0
 11 15  1  0
 12 16  1  0
 13 17  1  0
 14 17  1  0
 15 23  1  0
 16 23  1  0
 17 18  1  0
 17 24  1  0
 18 22  1  0
 19 20  1  0
M  END
