KUS-THE-322b9b63-3
     RDKit          3D

 25 28  0  0  1  0  0  0  0  0999 V2000
    7.5137   -3.9007   23.5138 C   0  0  0  0  0  0  0  0  0  0  0  0
    8.2394   -2.2102   24.7182 C   0  0  0  0  0  0  0  0  0  0  0  0
    6.0497    0.9523   19.9908 C   0  0  0  0  0  0  0  0  0  0  0  0
    5.5362    0.3568   17.7139 C   0  0  0  0  0  0  0  0  0  0  0  0
    8.2347   -2.6943   23.4328 C   0  0  0  0  0  0  0  0  0  0  0  0
    7.1289    0.6226   19.1980 C   0  0  0  0  0  0  0  0  0  0  0  0
   12.5802   -0.5387   24.3104 C   0  0  0  0  0  0  0  0  0  0  0  0
    8.5221    0.6211   19.6711 C   0  0  0  0  0  0  0  0  0  0  0  0
   13.7544   -2.0564   22.8971 C   0  0  0  0  0  0  0  0  0  0  0  0
   14.7419   -1.3134   23.7779 C   0  0  0  0  0  0  0  0  0  0  0  0
    7.9329   -1.1225   21.4425 C   0  0  0  0  0  0  0  0  0  0  0  0
   10.2111   -0.3700   21.1961 C   0  0  0  0  0  0  0  0  0  0  0  0
    8.8642   -2.0720   22.2108 C   0  0  0  0  0  0  0  0  0  0  0  0
   12.5175   -1.1646   22.9412 C   0  0  0  0  0  0  0  0  0  0  0  0
   10.0753   -1.1693   22.4823 C   0  0  0  0  0  0  0  0  0  0  0  0
    7.2859   -3.0465   26.8793 C   0  0  0  0  0  0  0  0  0  0  0  0
    7.0913   -4.1668   24.7526 N   0  0  0  0  0  0  0  0  0  0  0  0
    6.8364    0.2805   17.8922 N   0  0  0  0  0  0  0  0  0  0  0  0
    7.5483   -3.1208   25.4620 N   0  0  0  0  0  0  0  0  0  0  0  0
   13.9013   -0.6488   24.7371 N   0  0  0  0  0  0  0  0  0  0  0  0
    8.8396   -0.2233   20.7238 N   0  0  0  0  0  0  0  0  0  0  0  0
   11.2923   -1.9633   22.7409 N   0  0  0  0  0  0  0  0  0  0  0  0
   11.6521   -0.0152   24.9065 O   0  0  0  0  0  0  0  0  0  0  0  0
    9.3155    1.3619   19.0940 O   0  0  0  0  0  0  0  0  0  0  0  0
    4.6051    0.8344   19.0740 S   0  0  0  0  0  0  0  0  0  0  0  0
  1  5  1  0
  1 17  2  0
  2  5  2  0
  2 19  1  0
  3  6  2  0
  3 25  1  0
  4 18  2  0
  4 25  1  0
  5 13  1  0
  6  8  1  0
  6 18  1  0
  7 14  1  0
  7 20  1  0
  7 23  2  0
  8 21  1  0
  8 24  2  0
  9 10  1  0
  9 14  1  0
 10 20  1  0
 11 13  1  0
 11 21  1  0
 12 15  1  0
 12 21  1  0
 13 15  1  0
 14 22  1  0
 15 22  1  0
 16 19  1  0
 17 19  1  0
M  CHG  1  22   1
M  END
