KUS-THE-322b9b63-20
     RDKit          3D

 26 29  0  0  1  0  0  0  0  0999 V2000
   11.9463   -0.9906   21.9230 C   0  0  0  0  0  0  0  0  0  0  0  0
   13.2606   -0.9232   22.3299 C   0  0  0  0  0  0  0  0  0  0  0  0
   11.2224    0.1913   22.2534 C   0  0  0  0  0  0  0  0  0  0  0  0
   12.0110    1.1170   22.9007 C   0  0  0  0  0  0  0  0  0  0  0  0
   11.6401    2.4020   23.3794 C   0  0  0  0  0  0  0  0  0  0  0  0
   10.5708    4.1091   23.8505 C   0  0  0  0  0  0  0  0  0  0  0  0
    7.3046   -1.8137   26.9927 C   0  0  0  0  0  0  0  0  0  0  0  0
    6.4801   -2.4482   25.8778 C   0  0  0  0  0  0  0  0  0  0  0  0
    8.7824   -1.5976   26.6703 C   0  0  0  0  0  0  0  0  0  0  0  0
    6.5259   -1.7198   24.5354 C   0  0  0  0  0  0  0  0  0  0  0  0
    8.5754    7.2556   23.4722 C   0  0  0  0  0  0  0  0  0  0  0  0
    9.8503    6.5488   23.8952 C   0  0  0  0  0  0  0  0  0  0  0  0
    9.0079   -0.4554   25.6835 C   0  0  0  0  0  0  0  0  0  0  0  0
    7.8681   -1.8797   23.8229 C   0  0  0  0  0  0  0  0  0  0  0  0
    8.0091    6.3373   22.4096 C   0  0  0  0  0  0  0  0  0  0  0  0
    9.4270    5.0821   23.9661 C   0  0  0  0  0  0  0  0  0  0  0  0
    8.9350   -0.8487   24.2046 C   0  0  0  0  0  0  0  0  0  0  0  0
   10.4315    2.8893   23.2550 N   0  0  0  0  0  0  0  0  0  0  0  0
   11.7883    4.3879   24.3258 N   0  0  0  0  0  0  0  0  0  0  0  0
    8.7897    0.3437   23.3946 N   0  0  0  0  0  0  0  0  0  0  0  0
    8.3731    4.9592   22.8815 N   0  0  0  0  0  0  0  0  0  0  0  0
    9.3469    1.7383   21.3049 O   0  0  0  0  0  0  0  0  0  0  0  0
    9.0990   -0.7564   21.1059 O   0  0  0  0  0  0  0  0  0  0  0  0
   12.5131    3.2326   24.0074 O   0  0  0  0  0  0  0  0  0  0  0  0
   13.6172    0.5604   23.1072 S   0  0  0  0  0  0  0  0  0  0  0  0
    9.5122    0.4097   21.8630 S   0  0  0  0  0  0  0  0  0  0  0  0
  1  2  2  0
  1  3  1  0
  2 25  1  0
  3  4  2  0
  3 26  1  0
  4  5  1  0
  4 25  1  0
  5 18  2  0
  5 24  1  0
  6 16  1  0
  6 18  1  0
  6 19  2  0
  7  8  1  0
  7  9  1  0
  8 10  1  0
  9 13  1  0
 10 14  1  0
 11 12  1  0
 11 15  1  0
 12 16  1  0
 13 17  1  0
 14 17  1  0
 15 21  1  0
 16 21  1  0
 17 20  1  0
 19 24  1  0
 20 26  1  0
 22 26  2  0
 23 26  2  0
M  CHG  1  21   1
M  END
