LEO-EVO-0d2ed6fc-2
     RDKit          3D

 25 27  0  0  1  0  0  0  0  0999 V2000
    7.5782    0.1899   19.0328 C   0  0  0  0  0  0  0  0  0  0  0  0
    6.1963    0.7239   22.3597 C   0  0  0  0  0  0  0  0  0  0  0  0
    5.6774    0.9760   17.9782 C   0  0  0  0  0  0  0  0  0  0  0  0
    6.9507    0.4353   20.2533 C   0  0  0  0  0  0  0  0  0  0  0  0
    7.2791    0.2889   21.6253 C   0  0  0  0  0  0  0  0  0  0  0  0
    5.6656    0.9609   20.1982 C   0  0  0  0  0  0  0  0  0  0  0  0
    5.3880   -4.6474   24.0281 C   0  0  0  0  0  0  0  0  0  0  0  0
    9.9612    1.8390   22.6314 C   0  0  0  0  0  0  0  0  0  0  0  0
    8.7808   -1.7149   21.8132 C   0  0  0  0  0  0  0  0  0  0  0  0
    6.2761   -5.4574   21.9776 C   0  0  0  0  0  0  0  0  0  0  0  0
    5.7807   -5.9275   23.3408 C   0  0  0  0  0  0  0  0  0  0  0  0
    6.8386   -4.0678   22.2516 C   0  0  0  0  0  0  0  0  0  0  0  0
   10.7438    1.6906   23.9098 C   0  0  0  0  0  0  0  0  0  0  0  0
    9.7893    0.6035   21.7676 C   0  0  0  0  0  0  0  0  0  0  0  0
    8.8527   -2.7064   22.9680 C   0  0  0  0  0  0  0  0  0  0  0  0
    8.3173   -4.0917   22.6148 C   0  0  0  0  0  0  0  0  0  0  0  0
    8.5812   -0.2447   22.1925 C   0  0  0  0  0  0  0  0  0  0  0  0
    6.9261    0.4666   17.8799 N   0  0  0  0  0  0  0  0  0  0  0  0
    4.9660    1.2568   19.0888 N   0  0  0  0  0  0  0  0  0  0  0  0
    5.2230    1.1304   21.4832 N   0  0  0  0  0  0  0  0  0  0  0  0
    6.0369   -3.6126   23.3623 N   0  0  0  0  0  0  0  0  0  0  0  0
    4.6474   -4.5594   24.9946 O   0  0  0  0  0  0  0  0  0  0  0  0
    9.4542    2.9153   22.3146 O   0  0  0  0  0  0  0  0  0  0  0  0
    8.8989   -2.0730   20.6411 O   0  0  0  0  0  0  0  0  0  0  0  0
    4.7382   -6.7789   23.1910 F   0  0  0  0  0  0  0  0  0  0  0  0
  1  4  2  0
  1 18  1  0
  2  5  2  0
  2 20  1  0
  3 18  2  0
  3 19  1  0
  4  5  1  0
  4  6  1  0
  5 17  1  0
  6 19  2  0
  6 20  1  0
  7 11  1  0
  7 21  1  0
  7 22  2  0
  8 13  1  0
  8 14  1  0
  8 23  2  0
  9 15  1  0
  9 17  1  0
  9 24  2  0
 10 11  1  0
 10 12  1  0
 11 25  1  0
 12 16  1  0
 12 21  1  0
 14 17  1  0
 15 16  1  0
M  END
