LEO-EVO-0d2ed6fc-7
     RDKit          3D

 22 25  0  0  1  0  0  0  0  0999 V2000
    7.0405   -0.0285   19.3586 C   0  0  0  0  0  0  0  0  0  0  0  0
    5.2742    0.7693   22.4418 C   0  0  0  0  0  0  0  0  0  0  0  0
    5.3916    0.8923   18.0258 C   0  0  0  0  0  0  0  0  0  0  0  0
    6.2787    0.3249   20.4713 C   0  0  0  0  0  0  0  0  0  0  0  0
    6.3987    0.2034   21.8794 C   0  0  0  0  0  0  0  0  0  0  0  0
    5.0727    0.9683   20.2215 C   0  0  0  0  0  0  0  0  0  0  0  0
    8.1471   -4.9587   25.6357 C   0  0  0  0  0  0  0  0  0  0  0  0
    8.7997   -0.4476   22.2480 C   0  0  0  0  0  0  0  0  0  0  0  0
    8.0648   -2.5991   25.9327 C   0  0  0  0  0  0  0  0  0  0  0  0
   10.4475   -2.3138   22.8727 C   0  0  0  0  0  0  0  0  0  0  0  0
    7.1691   -3.8275   25.8056 C   0  0  0  0  0  0  0  0  0  0  0  0
    9.5904   -1.1394   23.2721 C   0  0  0  0  0  0  0  0  0  0  0  0
    9.2014   -2.5384   23.6813 C   0  0  0  0  0  0  0  0  0  0  0  0
    9.3004   -2.9587   25.1169 C   0  0  0  0  0  0  0  0  0  0  0  0
    6.5845    0.2624   18.1183 N   0  0  0  0  0  0  0  0  0  0  0  0
    4.5658    1.2845   19.0171 N   0  0  0  0  0  0  0  0  0  0  0  0
    4.4767    1.2311   21.4263 N   0  0  0  0  0  0  0  0  0  0  0  0
    9.3516   -4.3974   25.2248 N   0  0  0  0  0  0  0  0  0  0  0  0
    7.4597   -0.3839   22.6086 N   0  0  0  0  0  0  0  0  0  0  0  0
    7.9021   -6.1411   25.8160 O   0  0  0  0  0  0  0  0  0  0  0  0
    9.3320   -0.0085   21.2338 O   0  0  0  0  0  0  0  0  0  0  0  0
    6.4029   -3.9638   26.9140 F   0  0  0  0  0  0  0  0  0  0  0  0
  1  4  2  0
  1 15  1  0
  2  5  2  0
  2 17  1  0
  3 15  2  0
  3 16  1  0
  4  5  1  0
  4  6  1  0
  5 19  1  0
  6 16  2  0
  6 17  1  0
  7 11  1  0
  7 18  1  0
  7 20  2  0
  8 12  1  0
  8 19  1  0
  8 21  2  0
  9 11  1  0
  9 14  1  0
 10 12  1  0
 10 13  1  0
 11 22  1  0
 12 13  1  0
 13 14  1  0
 14 18  1  0
M  END
