LEO-EVO-0d2ed6fc-1
     RDKit          3D

 21 23  0  0  1  0  0  0  0  0999 V2000
    6.3150    1.1607   20.3180 C   0  0  0  0  0  0  0  0  0  0  0  0
    9.3413   -0.8485   20.5777 C   0  0  0  0  0  0  0  0  0  0  0  0
    6.4168    1.2458   18.0103 C   0  0  0  0  0  0  0  0  0  0  0  0
    7.4798    0.3950   20.2985 C   0  0  0  0  0  0  0  0  0  0  0  0
    8.3202   -0.2219   21.2603 C   0  0  0  0  0  0  0  0  0  0  0  0
    8.0231    0.1195   19.0496 C   0  0  0  0  0  0  0  0  0  0  0  0
   13.1001   -0.9859   22.8304 C   0  0  0  0  0  0  0  0  0  0  0  0
    9.0827    0.7487   23.4673 C   0  0  0  0  0  0  0  0  0  0  0  0
   13.2100   -0.3875   25.1281 C   0  0  0  0  0  0  0  0  0  0  0  0
   13.6140   -1.4878   24.1529 C   0  0  0  0  0  0  0  0  0  0  0  0
   11.9368    0.1900   24.5215 C   0  0  0  0  0  0  0  0  0  0  0  0
    8.1386   -0.2047   22.7551 C   0  0  0  0  0  0  0  0  0  0  0  0
    9.4347    0.3705   24.8993 C   0  0  0  0  0  0  0  0  0  0  0  0
   10.6779   -0.5076   25.0192 C   0  0  0  0  0  0  0  0  0  0  0  0
    5.7795    1.5902   19.1519 N   0  0  0  0  0  0  0  0  0  0  0  0
    7.5405    0.5157   17.8589 N   0  0  0  0  0  0  0  0  0  0  0  0
    9.1505   -0.6354   19.2365 N   0  0  0  0  0  0  0  0  0  0  0  0
   12.1292   -0.0291   23.1078 N   0  0  0  0  0  0  0  0  0  0  0  0
   13.4719   -1.3700   21.7328 O   0  0  0  0  0  0  0  0  0  0  0  0
    9.5556    1.7422   22.9173 O   0  0  0  0  0  0  0  0  0  0  0  0
   14.9585   -1.6494   24.1616 F   0  0  0  0  0  0  0  0  0  0  0  0
  1  4  2  0
  1 15  1  0
  2  5  2  0
  2 17  1  0
  3 15  2  0
  3 16  1  0
  4  5  1  0
  4  6  1  0
  5 12  1  0
  6 16  2  0
  6 17  1  0
  7 10  1  0
  7 18  1  0
  7 19  2  0
  8 12  1  0
  8 13  1  0
  8 20  2  0
  9 10  1  0
  9 11  1  0
 10 21  1  0
 11 14  1  0
 11 18  1  0
 13 14  1  0
M  END
