LIZ-THE-7023c732-2
     RDKit          3D

 18 19  0  0  0  0  0  0  0  0999 V2000
    7.5268   -5.1783   24.1145 C   0  0  0  0  0  0  0  0  0  0  0  0
   11.5409   -0.3718   24.3013 C   0  0  0  0  0  0  0  0  0  0  0  0
   11.6846   -1.0207   23.0750 C   0  0  0  0  0  0  0  0  0  0  0  0
   10.2866    0.0852   24.7058 C   0  0  0  0  0  0  0  0  0  0  0  0
   10.5740   -1.2125   22.2531 C   0  0  0  0  0  0  0  0  0  0  0  0
    9.1760   -0.1066   23.8840 C   0  0  0  0  0  0  0  0  0  0  0  0
    7.8915   -3.0362   22.9779 C   0  0  0  0  0  0  0  0  0  0  0  0
    6.0527   -4.3955   22.3238 C   0  0  0  0  0  0  0  0  0  0  0  0
    7.1564   -4.2053   23.1397 C   0  0  0  0  0  0  0  0  0  0  0  0
    9.3197   -0.7555   22.6576 C   0  0  0  0  0  0  0  0  0  0  0  0
    7.5059   -2.1062   22.0189 C   0  0  0  0  0  0  0  0  0  0  0  0
    6.3868   -2.3905   21.2531 C   0  0  0  0  0  0  0  0  0  0  0  0
    6.3960    0.0812   18.4567 C   0  0  0  0  0  0  0  0  0  0  0  0
    6.8829   -0.4538   19.7603 C   0  0  0  0  0  0  0  0  0  0  0  0
    7.8281   -5.9699   24.9078 N   0  0  0  0  0  0  0  0  0  0  0  0
    5.6475   -3.5151   21.3813 N   0  0  0  0  0  0  0  0  0  0  0  0
    5.9933   -1.4426   20.2753 N   0  0  0  0  0  0  0  0  0  0  0  0
    8.2361   -0.9409   21.8553 O   0  0  0  0  0  0  0  0  0  0  0  0
  1  9  1  0
  1 15  3  0
  2  3  2  0
  2  4  1  0
  3  5  1  0
  4  6  2  0
  5 10  2  0
  6 10  1  0
  7  9  2  0
  7 11  1  0
  8  9  1  0
  8 16  2  0
 10 18  1  0
 11 12  2  0
 11 18  1  0
 12 16  1  0
 12 17  1  0
 13 14  1  0
 14 17  1  0
M  END
