LIZ-THE-8e85e675-1
     RDKit          3D

 19 21  0  0  1  0  0  0  0  0999 V2000
   13.1876   -0.8552   21.6978 C   0  0  0  0  0  0  0  0  0  0  0  0
   14.2226   -1.7510   21.8336 C   0  0  0  0  0  0  0  0  0  0  0  0
   13.7405   -1.0734   23.8480 C   0  0  0  0  0  0  0  0  0  0  0  0
   12.8747   -0.4150   23.0061 C   0  0  0  0  0  0  0  0  0  0  0  0
    6.8703    0.1712   18.3490 C   0  0  0  0  0  0  0  0  0  0  0  0
    6.5672   -0.4890   20.7095 C   0  0  0  0  0  0  0  0  0  0  0  0
    7.9425   -0.8416   21.2618 C   0  0  0  0  0  0  0  0  0  0  0  0
   10.4255   -1.7392   24.7696 C   0  0  0  0  0  0  0  0  0  0  0  0
    9.0239   -1.6417   24.2372 C   0  0  0  0  0  0  0  0  0  0  0  0
    8.1783    1.2712   20.1494 C   0  0  0  0  0  0  0  0  0  0  0  0
    6.8139    0.6913   19.7734 C   0  0  0  0  0  0  0  0  0  0  0  0
    8.6052    0.5225   21.4155 C   0  0  0  0  0  0  0  0  0  0  0  0
   10.1898   -1.3171   23.3476 C   0  0  0  0  0  0  0  0  0  0  0  0
   11.8133    0.5704   23.3977 C   0  0  0  0  0  0  0  0  0  0  0  0
   10.1126    0.4392   21.5836 C   0  0  0  0  0  0  0  0  0  0  0  0
    5.6996   -0.4116   17.9247 N   0  0  0  0  0  0  0  0  0  0  0  0
   10.4235    0.1338   22.9976 N   0  0  0  0  0  0  0  0  0  0  0  0
    7.8749    0.2866   17.6512 O   0  0  0  0  0  0  0  0  0  0  0  0
   14.5654   -1.8897   23.1411 O   0  0  0  0  0  0  0  0  0  0  0  0
  1  2  2  0
  1  4  1  0
  2 19  1  0
  3  4  2  0
  3 19  1  0
  4 14  1  0
  5 11  1  0
  5 16  1  0
  5 18  2  0
  6  7  1  0
  6 11  1  0
  7 12  1  0
  8  9  1  0
  8 13  1  0
  9 13  1  0
 10 11  1  0
 10 12  1  0
 12 15  1  0
 13 17  1  0
 14 17  1  0
 15 17  1  0
M  CHG  1  17   1
M  END
