LON-WEI-adc59df6-62
     RDKit          3D

 28 30  0  0  1  0  0  0  0  0999 V2000
   12.5826   -0.6933   22.1874 C   0  0  0  0  0  0  0  0  0  0  0  0
   12.7576   -0.4277   23.5454 C   0  0  0  0  0  0  0  0  0  0  0  0
   11.2967   -0.7926   21.6561 C   0  0  0  0  0  0  0  0  0  0  0  0
    5.3038   -5.4777   21.8861 C   0  0  0  0  0  0  0  0  0  0  0  0
   11.6466   -0.2615   24.3724 C   0  0  0  0  0  0  0  0  0  0  0  0
   10.1857   -0.6264   22.4830 C   0  0  0  0  0  0  0  0  0  0  0  0
    6.1279   -4.3599   21.8188 C   0  0  0  0  0  0  0  0  0  0  0  0
    4.2780   -5.4721   22.8175 C   0  0  0  0  0  0  0  0  0  0  0  0
    4.8514   -3.3781   23.5689 C   0  0  0  0  0  0  0  0  0  0  0  0
   10.3606   -0.3608   23.8411 C   0  0  0  0  0  0  0  0  0  0  0  0
    5.9042   -3.2857   22.6729 C   0  0  0  0  0  0  0  0  0  0  0  0
   10.4256   -4.4006   24.9835 C   0  0  0  0  0  0  0  0  0  0  0  0
    9.4750   -3.4644   24.8962 C   0  0  0  0  0  0  0  0  0  0  0  0
    8.8760   -3.1290   23.5730 C   0  0  0  0  0  0  0  0  0  0  0  0
    7.3629   -1.8312   21.2333 C   0  0  0  0  0  0  0  0  0  0  0  0
    7.9050    0.3756   24.1361 C   0  0  0  0  0  0  0  0  0  0  0  0
    9.1789   -0.1853   24.7201 C   0  0  0  0  0  0  0  0  0  0  0  0
    7.9557   -1.0641   24.5557 C   0  0  0  0  0  0  0  0  0  0  0  0
    5.7304    0.1935   18.5138 C   0  0  0  0  0  0  0  0  0  0  0  0
    8.1825    0.0418   19.0161 C   0  0  0  0  0  0  0  0  0  0  0  0
    6.9291   -1.9900   18.2486 C   0  0  0  0  0  0  0  0  0  0  0  0
    6.7816   -2.0565   22.6240 C   0  0  0  0  0  0  0  0  0  0  0  0
    6.8432   -0.7003   19.0731 C   0  0  0  0  0  0  0  0  0  0  0  0
    4.0297   -4.4474   23.6636 N   0  0  0  0  0  0  0  0  0  0  0  0
    6.5446   -1.0313   20.4479 N   0  0  0  0  0  0  0  0  0  0  0  0
    7.8893   -2.1389   23.5739 N   0  0  0  0  0  0  0  0  0  0  0  0
    9.2440   -3.7342   22.5649 O   0  0  0  0  0  0  0  0  0  0  0  0
    8.4170   -2.3426   20.8605 O   0  0  0  0  0  0  0  0  0  0  0  0
  1  2  2  0
  1  3  1  0
  2  5  1  0
  3  6  2  0
  4  7  2  0
  4  8  1  0
  5 10  2  0
  6 10  1  0
  7 11  1  0
  8 24  2  0
  9 11  2  0
  9 24  1  0
 10 17  1  0
 11 22  1  0
 12 13  2  0
 13 14  1  0
 14 26  1  0
 14 27  2  0
 15 22  1  0
 15 25  1  0
 15 28  2  0
 16 17  1  0
 16 18  1  0
 17 18  1  0
 18 26  1  0
 19 23  1  0
 20 23  1  0
 21 23  1  0
 22 26  1  0
 23 25  1  0
M  END
