LON-WEI-8f408cad-9
     RDKit          3D

 29 30  0  0  1  0  0  0  0  0999 V2000
    5.3155   -6.3960   24.3633 C   0  0  0  0  0  0  0  0  0  0  0  0
    6.1784   -5.4691   23.7893 C   0  0  0  0  0  0  0  0  0  0  0  0
    9.7498   -2.3139   22.0827 C   0  0  0  0  0  0  0  0  0  0  0  0
   10.8565   -1.7161   22.6856 C   0  0  0  0  0  0  0  0  0  0  0  0
    9.4399   -3.7066   24.0324 C   0  0  0  0  0  0  0  0  0  0  0  0
    3.9551   -6.2271   24.1620 C   0  0  0  0  0  0  0  0  0  0  0  0
    4.2860   -4.3362   22.8997 C   0  0  0  0  0  0  0  0  0  0  0  0
    5.6619   -4.4164   23.0420 C   0  0  0  0  0  0  0  0  0  0  0  0
   10.5466   -3.1088   24.6353 C   0  0  0  0  0  0  0  0  0  0  0  0
    9.0415   -3.3091   22.7561 C   0  0  0  0  0  0  0  0  0  0  0  0
   11.2549   -2.1136   23.9619 C   0  0  0  0  0  0  0  0  0  0  0  0
    9.8747   -6.1385   20.0252 C   0  0  0  0  0  0  0  0  0  0  0  0
    9.4886   -5.5119   21.1411 C   0  0  0  0  0  0  0  0  0  0  0  0
    8.0650   -5.1012   21.3198 C   0  0  0  0  0  0  0  0  0  0  0  0
    5.9917   -2.8489   21.1056 C   0  0  0  0  0  0  0  0  0  0  0  0
   10.9521   -3.5544   26.0026 C   0  0  0  0  0  0  0  0  0  0  0  0
    6.5889    0.6132   19.7576 C   0  0  0  0  0  0  0  0  0  0  0  0
    6.3743   -1.5051   18.4329 C   0  0  0  0  0  0  0  0  0  0  0  0
    4.4245   -0.6478   19.7563 C   0  0  0  0  0  0  0  0  0  0  0  0
   12.2155   -0.3082   25.3683 C   0  0  0  0  0  0  0  0  0  0  0  0
   13.7018   -2.0548   24.3738 C   0  0  0  0  0  0  0  0  0  0  0  0
    6.5732   -3.3933   22.4049 C   0  0  0  0  0  0  0  0  0  0  0  0
    5.9512   -0.7803   19.7148 C   0  0  0  0  0  0  0  0  0  0  0  0
    3.4162   -5.2174   23.4425 N   0  0  0  0  0  0  0  0  0  0  0  0
    6.3977   -1.5477   20.8632 N   0  0  0  0  0  0  0  0  0  0  0  0
    7.8784   -3.9376   22.1213 N   0  0  0  0  0  0  0  0  0  0  0  0
   12.3775   -1.4971   24.5569 N   0  0  0  0  0  0  0  0  0  0  0  0
    7.1817   -5.7712   20.7840 O   0  0  0  0  0  0  0  0  0  0  0  0
    5.2238   -3.4959   20.3963 O   0  0  0  0  0  0  0  0  0  0  0  0
  1  2  2  0
  1  6  1  0
  2  8  1  0
  3  4  2  0
  3 10  1  0
  4 11  1  0
  5  9  1  0
  5 10  2  0
  6 24  2  0
  7  8  2  0
  7 24  1  0
  8 22  1  0
  9 11  2  0
  9 16  1  0
 10 26  1  0
 11 27  1  0
 12 13  2  0
 13 14  1  0
 14 26  1  0
 14 28  2  0
 15 22  1  0
 15 25  1  0
 15 29  2  0
 17 23  1  0
 18 23  1  0
 19 23  1  0
 20 27  1  0
 21 27  1  0
 22 26  1  0
 23 25  1  0
M  END
