LON-WEI-adc59df6-75
     RDKit          3D

 26 27  0  0  1  0  0  0  0  0999 V2000
    5.7780   -0.1903   19.1265 C   0  0  0  0  0  0  0  0  0  0  0  0
    6.1268   -1.1388   20.0814 C   0  0  0  0  0  0  0  0  0  0  0  0
    6.7636    0.6769   18.6835 C   0  0  0  0  0  0  0  0  0  0  0  0
    8.3438   -0.2787   20.0502 C   0  0  0  0  0  0  0  0  0  0  0  0
    7.4322   -1.1905   20.5574 C   0  0  0  0  0  0  0  0  0  0  0  0
    5.7104   -0.5082   25.7291 C   0  0  0  0  0  0  0  0  0  0  0  0
    6.4279   -1.3804   25.0133 C   0  0  0  0  0  0  0  0  0  0  0  0
    6.5484   -1.2149   23.5367 C   0  0  0  0  0  0  0  0  0  0  0  0
    7.0005   -3.4769   21.5070 C   0  0  0  0  0  0  0  0  0  0  0  0
   10.2268   -1.2496   22.9720 C   0  0  0  0  0  0  0  0  0  0  0  0
    9.1574   -0.4544   24.6369 C   0  0  0  0  0  0  0  0  0  0  0  0
   10.6621   -0.5182   24.2683 C   0  0  0  0  0  0  0  0  0  0  0  0
    8.9581   -1.6947   23.7360 C   0  0  0  0  0  0  0  0  0  0  0  0
    6.1799   -5.7276   24.4089 C   0  0  0  0  0  0  0  0  0  0  0  0
    4.6861   -5.1480   22.4799 C   0  0  0  0  0  0  0  0  0  0  0  0
    6.8028   -6.4341   22.0877 C   0  0  0  0  0  0  0  0  0  0  0  0
   13.6254    2.2736   23.5464 C   0  0  0  0  0  0  0  0  0  0  0  0
   11.3750    0.8064   24.0932 C   0  0  0  0  0  0  0  0  0  0  0  0
    7.8428   -2.2098   21.5945 C   0  0  0  0  0  0  0  0  0  0  0  0
    6.1394   -5.3362   22.9272 C   0  0  0  0  0  0  0  0  0  0  0  0
    8.0422    0.6571   19.1223 N   0  0  0  0  0  0  0  0  0  0  0  0
    6.8554   -4.0946   22.7414 N   0  0  0  0  0  0  0  0  0  0  0  0
    7.7321   -1.6805   22.9538 N   0  0  0  0  0  0  0  0  0  0  0  0
    5.6406   -0.6694   22.9071 O   0  0  0  0  0  0  0  0  0  0  0  0
    6.5466   -3.9037   20.4471 O   0  0  0  0  0  0  0  0  0  0  0  0
   13.1200    0.5427   23.6722 S   0  0  0  0  0  0  0  0  0  0  0  0
  1  2  2  0
  1  3  1  0
  2  5  1  0
  3 21  2  0
  4  5  2  0
  4 21  1  0
  5 19  1  0
  6  7  2  0
  7  8  1  0
  8 23  1  0
  8 24  2  0
  9 19  1  0
  9 22  1  0
  9 25  2  0
 10 12  1  0
 10 13  1  0
 11 12  1  0
 11 13  1  0
 12 18  1  0
 13 23  1  0
 14 20  1  0
 15 20  1  0
 16 20  1  0
 17 26  1  0
 18 26  1  0
 19 23  1  0
 20 22  1  0
M  END
