LON-WEI-adc59df6-26
     RDKit          3D

 29 30  0  0  1  0  0  0  0  0999 V2000
    3.9364   -4.7166   22.5636 C   0  0  0  0  0  0  0  0  0  0  0  0
    5.1990   -4.2297   22.2442 C   0  0  0  0  0  0  0  0  0  0  0  0
   11.2536   -1.4898   23.4048 C   0  0  0  0  0  0  0  0  0  0  0  0
   11.4840   -3.1185   25.1744 C   0  0  0  0  0  0  0  0  0  0  0  0
   10.0390   -2.0660   23.0326 C   0  0  0  0  0  0  0  0  0  0  0  0
   10.2694   -3.6946   24.8023 C   0  0  0  0  0  0  0  0  0  0  0  0
    3.3924   -4.3562   23.7859 C   0  0  0  0  0  0  0  0  0  0  0  0
    5.2390   -3.1069   24.3404 C   0  0  0  0  0  0  0  0  0  0  0  0
   11.9761   -2.0161   24.4756 C   0  0  0  0  0  0  0  0  0  0  0  0
    5.8696   -3.4089   23.1442 C   0  0  0  0  0  0  0  0  0  0  0  0
    9.5469   -3.1683   23.7314 C   0  0  0  0  0  0  0  0  0  0  0  0
    9.1507   -7.2500   24.1132 C   0  0  0  0  0  0  0  0  0  0  0  0
    9.1663   -6.1061   23.4216 C   0  0  0  0  0  0  0  0  0  0  0  0
    8.0326   -5.1422   23.5350 C   0  0  0  0  0  0  0  0  0  0  0  0
    7.4531   -2.7008   21.3257 C   0  0  0  0  0  0  0  0  0  0  0  0
   13.0905    0.0948   25.2806 C   0  0  0  0  0  0  0  0  0  0  0  0
   14.3047   -1.4450   23.7023 C   0  0  0  0  0  0  0  0  0  0  0  0
   13.9949   -2.0763   26.0870 C   0  0  0  0  0  0  0  0  0  0  0  0
    4.3776   -3.1498   18.2301 C   0  0  0  0  0  0  0  0  0  0  0  0
    7.1279   -1.0470   19.4887 C   0  0  0  0  0  0  0  0  0  0  0  0
    5.8124   -1.3811   18.8094 C   0  0  0  0  0  0  0  0  0  0  0  0
    7.2424   -2.8633   22.8263 C   0  0  0  0  0  0  0  0  0  0  0  0
   13.3150   -1.3809   24.8858 C   0  0  0  0  0  0  0  0  0  0  0  0
    4.0134   -3.5611   24.6858 N   0  0  0  0  0  0  0  0  0  0  0  0
    7.0711   -1.4441   20.8772 N   0  0  0  0  0  0  0  0  0  0  0  0
    8.3320   -3.7446   23.3596 N   0  0  0  0  0  0  0  0  0  0  0  0
    6.9096   -5.5741   23.7968 O   0  0  0  0  0  0  0  0  0  0  0  0
    7.8765   -3.6065   20.6101 O   0  0  0  0  0  0  0  0  0  0  0  0
    5.5977   -2.7858   18.8608 O   0  0  0  0  0  0  0  0  0  0  0  0
  1  2  2  0
  1  7  1  0
  2 10  1  0
  3  5  2  0
  3  9  1  0
  4  6  1  0
  4  9  2  0
  5 11  1  0
  6 11  2  0
  7 24  2  0
  8 10  2  0
  8 24  1  0
  9 23  1  0
 10 22  1  0
 11 26  1  0
 12 13  2  0
 13 14  1  0
 14 26  1  0
 14 27  2  0
 15 22  1  0
 15 25  1  0
 15 28  2  0
 16 23  1  0
 17 23  1  0
 18 23  1  0
 19 29  1  0
 20 21  1  0
 20 25  1  0
 21 29  1  0
 22 26  1  0
M  END
