LON-WEI-adc59df6-61
     RDKit          3D

 30 31  0  0  1  0  0  0  0  0999 V2000
   11.4751   -1.6851   23.8399 C   0  0  0  0  0  0  0  0  0  0  0  0
   11.6140   -3.5724   25.3419 C   0  0  0  0  0  0  0  0  0  0  0  0
   10.2607   -2.1649   23.3494 C   0  0  0  0  0  0  0  0  0  0  0  0
   10.3995   -4.0521   24.8514 C   0  0  0  0  0  0  0  0  0  0  0  0
    4.0791   -3.8035   24.4570 C   0  0  0  0  0  0  0  0  0  0  0  0
    3.5168   -4.4212   23.3516 C   0  0  0  0  0  0  0  0  0  0  0  0
    5.3957   -4.0571   22.0806 C   0  0  0  0  0  0  0  0  0  0  0  0
   12.1518   -2.3889   24.8361 C   0  0  0  0  0  0  0  0  0  0  0  0
    5.3682   -3.2972   24.3341 C   0  0  0  0  0  0  0  0  0  0  0  0
    6.0460   -3.4222   23.1265 C   0  0  0  0  0  0  0  0  0  0  0  0
    9.7228   -3.3483   23.8552 C   0  0  0  0  0  0  0  0  0  0  0  0
    9.5035   -7.3219   23.6038 C   0  0  0  0  0  0  0  0  0  0  0  0
    9.4137   -6.0950   23.0805 C   0  0  0  0  0  0  0  0  0  0  0  0
    8.2039   -5.2572   23.3289 C   0  0  0  0  0  0  0  0  0  0  0  0
    7.7168   -2.5037   21.4893 C   0  0  0  0  0  0  0  0  0  0  0  0
    6.0027   -2.6270   25.5074 C   0  0  0  0  0  0  0  0  0  0  0  0
   13.2859   -0.4573   25.9887 C   0  0  0  0  0  0  0  0  0  0  0  0
   14.5156   -1.7672   24.2256 C   0  0  0  0  0  0  0  0  0  0  0  0
   14.1169   -2.7497   26.4744 C   0  0  0  0  0  0  0  0  0  0  0  0
    5.7864    0.0824   19.5540 C   0  0  0  0  0  0  0  0  0  0  0  0
    8.2450   -0.3882   19.4056 C   0  0  0  0  0  0  0  0  0  0  0  0
    6.5868   -2.1371   18.7125 C   0  0  0  0  0  0  0  0  0  0  0  0
    7.4482   -2.8915   22.9384 C   0  0  0  0  0  0  0  0  0  0  0  0
   13.4503   -1.8760   25.3604 C   0  0  0  0  0  0  0  0  0  0  0  0
    6.8680   -0.9947   19.6954 C   0  0  0  0  0  0  0  0  0  0  0  0
    4.1441   -4.5615   22.1623 N   0  0  0  0  0  0  0  0  0  0  0  0
    6.8540   -1.5137   21.0510 N   0  0  0  0  0  0  0  0  0  0  0  0
    8.4458   -3.8528   23.3399 N   0  0  0  0  0  0  0  0  0  0  0  0
    7.1202   -5.8153   23.5025 O   0  0  0  0  0  0  0  0  0  0  0  0
    8.5776   -3.0496   20.8017 O   0  0  0  0  0  0  0  0  0  0  0  0
  1  3  2  0
  1  8  1  0
  2  4  1  0
  2  8  2  0
  3 11  1  0
  4 11  2  0
  5  6  2  0
  5  9  1  0
  6 26  1  0
  7 10  1  0
  7 26  2  0
  8 24  1  0
  9 10  2  0
  9 16  1  0
 10 23  1  0
 11 28  1  0
 12 13  2  0
 13 14  1  0
 14 28  1  0
 14 29  2  0
 15 23  1  0
 15 27  1  0
 15 30  2  0
 17 24  1  0
 18 24  1  0
 19 24  1  0
 20 25  1  0
 21 25  1  0
 22 25  1  0
 23 28  1  0
 25 27  1  0
M  END
