LON-WEI-b8d98729-17
     RDKit          3D

 33 35  0  0  1  0  0  0  0  0999 V2000
   12.4824    1.4536   24.2078 C   0  0  0  0  0  0  0  0  0  0  0  0
    4.3740    0.7910   20.9756 C   0  0  0  0  0  0  0  0  0  0  0  0
   13.3984    0.8974   23.3149 C   0  0  0  0  0  0  0  0  0  0  0  0
    5.0697   -0.1374   21.7420 C   0  0  0  0  0  0  0  0  0  0  0  0
    7.5743   -4.1229   25.4999 C   0  0  0  0  0  0  0  0  0  0  0  0
    6.5305   -5.7800   24.0852 C   0  0  0  0  0  0  0  0  0  0  0  0
   11.1363    1.0941   24.1405 C   0  0  0  0  0  0  0  0  0  0  0  0
    7.4768   -3.1844   24.4726 C   0  0  0  0  0  0  0  0  0  0  0  0
    6.4329   -4.8415   23.0579 C   0  0  0  0  0  0  0  0  0  0  0  0
   11.6221   -0.3777   22.2871 C   0  0  0  0  0  0  0  0  0  0  0  0
    5.1061    1.6327   20.1539 C   0  0  0  0  0  0  0  0  0  0  0  0
    7.0957    0.6908   20.8116 C   0  0  0  0  0  0  0  0  0  0  0  0
    7.1012   -5.4207   25.3062 C   0  0  0  0  0  0  0  0  0  0  0  0
   12.9682   -0.0182   22.3546 C   0  0  0  0  0  0  0  0  0  0  0  0
    6.4568   -0.1949   21.6643 C   0  0  0  0  0  0  0  0  0  0  0  0
    6.9061   -3.5437   23.2516 C   0  0  0  0  0  0  0  0  0  0  0  0
   10.7062    0.1785   23.1801 C   0  0  0  0  0  0  0  0  0  0  0  0
    5.9047   -1.8668   18.7333 C   0  0  0  0  0  0  0  0  0  0  0  0
    6.7123   -2.0952   19.7739 C   0  0  0  0  0  0  0  0  0  0  0  0
    6.2329   -2.8983   20.9369 C   0  0  0  0  0  0  0  0  0  0  0  0
    8.7425   -1.0776   22.2251 C   0  0  0  0  0  0  0  0  0  0  0  0
   14.5669   -1.9028   21.9316 C   0  0  0  0  0  0  0  0  0  0  0  0
    7.9964   -7.6703   26.0037 C   0  0  0  0  0  0  0  0  0  0  0  0
    5.2872   -5.8821   27.6492 C   0  0  0  0  0  0  0  0  0  0  0  0
   13.9478   -0.6125   21.4002 C   0  0  0  0  0  0  0  0  0  0  0  0
    7.2426   -1.1939   22.4847 C   0  0  0  0  0  0  0  0  0  0  0  0
    7.2055   -6.4241   26.4046 C   0  0  0  0  0  0  0  0  0  0  0  0
    6.4539    1.6064   20.0517 N   0  0  0  0  0  0  0  0  0  0  0  0
    9.3406   -0.1865   23.1125 N   0  0  0  0  0  0  0  0  0  0  0  0
    6.8041   -2.5664   22.1817 N   0  0  0  0  0  0  0  0  0  0  0  0
    5.3999   -3.7843   20.7440 O   0  0  0  0  0  0  0  0  0  0  0  0
    9.2917   -1.7070   21.3248 O   0  0  0  0  0  0  0  0  0  0  0  0
    5.8886   -6.8350   26.7897 O   0  0  0  0  0  0  0  0  0  0  0  0
  1  3  2  0
  1  7  1  0
  2  4  2  0
  2 11  1  0
  3 14  1  0
  4 15  1  0
  5  8  2  0
  5 13  1  0
  6  9  1  0
  6 13  2  0
  7 17  2  0
  8 16  1  0
  9 16  2  0
 10 14  2  0
 10 17  1  0
 11 28  2  0
 12 15  2  0
 12 28  1  0
 13 27  1  0
 14 25  1  0
 15 26  1  0
 16 30  1  0
 17 29  1  0
 18 19  2  0
 19 20  1  0
 20 30  1  0
 20 31  2  0
 21 26  1  0
 21 29  1  0
 21 32  2  0
 22 25  1  0
 23 27  1  0
 24 33  1  0
 26 30  1  0
 27 33  1  0
M  END
