LON-WEI-b8d98729-41
     RDKit          3D

 32 34  0  0  1  0  0  0  0  0999 V2000
    5.9933   -2.1887   29.4026 C   0  0  0  0  0  0  0  0  0  0  0  0
    6.0124   -3.1576   30.4058 C   0  0  0  0  0  0  0  0  0  0  0  0
    4.8105   -5.0808   22.9611 C   0  0  0  0  0  0  0  0  0  0  0  0
    5.7589   -4.4593   23.7659 C   0  0  0  0  0  0  0  0  0  0  0  0
    6.2972   -0.8505   21.6424 C   0  0  0  0  0  0  0  0  0  0  0  0
    7.9823   -1.5689   20.0672 C   0  0  0  0  0  0  0  0  0  0  0  0
    6.4908   -2.4879   28.1343 C   0  0  0  0  0  0  0  0  0  0  0  0
    6.9887   -1.4874   22.6728 C   0  0  0  0  0  0  0  0  0  0  0  0
    8.6739   -2.2058   21.0976 C   0  0  0  0  0  0  0  0  0  0  0  0
    6.5290   -4.4259   30.1407 C   0  0  0  0  0  0  0  0  0  0  0  0
    5.2522   -5.7198   21.8137 C   0  0  0  0  0  0  0  0  0  0  0  0
    7.4400   -5.1607   22.2368 C   0  0  0  0  0  0  0  0  0  0  0  0
    6.7939   -0.8913   20.3396 C   0  0  0  0  0  0  0  0  0  0  0  0
    7.1009   -4.4953   23.4039 C   0  0  0  0  0  0  0  0  0  0  0  0
    8.1771   -2.1651   22.4004 C   0  0  0  0  0  0  0  0  0  0  0  0
    7.0075   -3.7561   27.8692 C   0  0  0  0  0  0  0  0  0  0  0  0
    7.0266   -4.7251   28.8723 C   0  0  0  0  0  0  0  0  0  0  0  0
   12.1249   -3.4015   25.0373 C   0  0  0  0  0  0  0  0  0  0  0  0
   10.8085   -3.1775   24.9749 C   0  0  0  0  0  0  0  0  0  0  0  0
   10.2202   -2.4684   23.8010 C   0  0  0  0  0  0  0  0  0  0  0  0
    7.5443   -3.1538   25.4827 C   0  0  0  0  0  0  0  0  0  0  0  0
    8.1567   -3.8295   24.2584 C   0  0  0  0  0  0  0  0  0  0  0  0
    6.0544   -0.2103   19.2380 C   0  0  0  0  0  0  0  0  0  0  0  0
    6.5471   -5.7760   21.4294 N   0  0  0  0  0  0  0  0  0  0  0  0
    7.5029   -4.0223   26.5706 N   0  0  0  0  0  0  0  0  0  0  0  0
    8.8977   -2.8282   23.4733 N   0  0  0  0  0  0  0  0  0  0  0  0
   10.9085   -1.6436   23.1991 O   0  0  0  0  0  0  0  0  0  0  0  0
    7.1460   -1.9926   25.4466 O   0  0  0  0  0  0  0  0  0  0  0  0
    4.9101    0.4119   19.6495 F   0  0  0  0  0  0  0  0  0  0  0  0
    6.7813    0.7608   18.6100 F   0  0  0  0  0  0  0  0  0  0  0  0
    5.6681   -1.0728   18.2532 F   0  0  0  0  0  0  0  0  0  0  0  0
    7.7212   -6.4654   28.5680 Br  0  0  0  0  0  0  0  0  0  0  0  0
  1  2  2  0
  1  7  1  0
  2 10  1  0
  3  4  2  0
  3 11  1  0
  4 14  1  0
  5  8  2  0
  5 13  1  0
  6  9  1  0
  6 13  2  0
  7 16  2  0
  8 15  1  0
  9 15  2  0
 10 17  2  0
 11 24  2  0
 12 14  2  0
 12 24  1  0
 13 23  1  0
 14 22  1  0
 15 26  1  0
 16 17  1  0
 16 25  1  0
 17 32  1  0
 18 19  2  0
 19 20  1  0
 20 26  1  0
 20 27  2  0
 21 22  1  0
 21 25  1  0
 21 28  2  0
 22 26  1  0
 23 29  1  0
 23 30  1  0
 23 31  1  0
M  END
