LON-WEI-adc59df6-20
     RDKit          3D

 33 35  0  0  1  0  0  0  0  0999 V2000
    5.4795    1.2455   23.3733 C   0  0  0  0  0  0  0  0  0  0  0  0
    5.6862   -0.0992   23.0860 C   0  0  0  0  0  0  0  0  0  0  0  0
    7.9986    0.3166   18.6143 C   0  0  0  0  0  0  0  0  0  0  0  0
    5.6497   -0.0368   18.1731 C   0  0  0  0  0  0  0  0  0  0  0  0
   11.9801   -0.8748   22.6912 C   0  0  0  0  0  0  0  0  0  0  0  0
   11.4489   -0.1976   24.9487 C   0  0  0  0  0  0  0  0  0  0  0  0
    7.9609   -0.6667   19.6029 C   0  0  0  0  0  0  0  0  0  0  0  0
    5.6120   -1.0201   19.1616 C   0  0  0  0  0  0  0  0  0  0  0  0
   12.7603    0.2703   22.5312 C   0  0  0  0  0  0  0  0  0  0  0  0
   12.2291    0.9475   24.7887 C   0  0  0  0  0  0  0  0  0  0  0  0
    6.5222    2.1268   23.1373 C   0  0  0  0  0  0  0  0  0  0  0  0
    7.8905    0.4448   22.3779 C   0  0  0  0  0  0  0  0  0  0  0  0
   11.3243   -1.1087   23.8999 C   0  0  0  0  0  0  0  0  0  0  0  0
    6.8430    0.6317   17.8995 C   0  0  0  0  0  0  0  0  0  0  0  0
    6.9120   -0.5154   22.5786 C   0  0  0  0  0  0  0  0  0  0  0  0
    6.7676   -1.3351   19.8765 C   0  0  0  0  0  0  0  0  0  0  0  0
   12.8849    1.1814   23.5800 C   0  0  0  0  0  0  0  0  0  0  0  0
    5.5920   -5.6895   21.7978 C   0  0  0  0  0  0  0  0  0  0  0  0
    6.4203   -4.6413   21.7521 C   0  0  0  0  0  0  0  0  0  0  0  0
    6.3653   -3.6877   20.6055 C   0  0  0  0  0  0  0  0  0  0  0  0
    8.6420   -2.3291   22.3951 C   0  0  0  0  0  0  0  0  0  0  0  0
    7.8983    1.3144   15.7163 C   0  0  0  0  0  0  0  0  0  0  0  0
    7.3155    3.0617   17.4319 C   0  0  0  0  0  0  0  0  0  0  0  0
    5.5272    1.9507   16.1094 C   0  0  0  0  0  0  0  0  0  0  0  0
   10.4857   -2.3420   24.0731 C   0  0  0  0  0  0  0  0  0  0  0  0
    7.1676   -1.9693   22.2557 C   0  0  0  0  0  0  0  0  0  0  0  0
    6.8847    1.7157   16.8098 C   0  0  0  0  0  0  0  0  0  0  0  0
    7.7267    1.7598   22.6452 N   0  0  0  0  0  0  0  0  0  0  0  0
    9.1114   -2.1205   23.6844 N   0  0  0  0  0  0  0  0  0  0  0  0
    6.7296   -2.3189   20.8650 N   0  0  0  0  0  0  0  0  0  0  0  0
    5.9900   -4.0998   19.5076 O   0  0  0  0  0  0  0  0  0  0  0  0
    9.3252   -2.7189   21.4502 O   0  0  0  0  0  0  0  0  0  0  0  0
   13.8476    2.5938   23.3825 Cl  0  0  0  0  0  0  0  0  0  0  0  0
  1  2  2  0
  1 11  1  0
  2 15  1  0
  3  7  2  0
  3 14  1  0
  4  8  1  0
  4 14  2  0
  5  9  2  0
  5 13  1  0
  6 10  1  0
  6 13  2  0
  7 16  1  0
  8 16  2  0
  9 17  1  0
 10 17  2  0
 11 28  2  0
 12 15  2  0
 12 28  1  0
 13 25  1  0
 14 27  1  0
 15 26  1  0
 16 30  1  0
 17 33  1  0
 18 19  2  0
 19 20  1  0
 20 30  1  0
 20 31  2  0
 21 26  1  0
 21 29  1  0
 21 32  2  0
 22 27  1  0
 23 27  1  0
 24 27  1  0
 25 29  1  0
 26 30  1  0
M  END
