LON-WEI-b8d98729-35
     RDKit          3D

 33 35  0  0  1  0  0  0  0  0999 V2000
    2.8529   -4.3685   24.2396 C   0  0  0  0  0  0  0  0  0  0  0  0
    3.9041   -3.7047   23.6169 C   0  0  0  0  0  0  0  0  0  0  0  0
   11.1471   -3.7672   24.2305 C   0  0  0  0  0  0  0  0  0  0  0  0
    9.7928   -2.3958   25.6873 C   0  0  0  0  0  0  0  0  0  0  0  0
    9.9971   -4.2056   23.5741 C   0  0  0  0  0  0  0  0  0  0  0  0
    8.6428   -2.8341   25.0308 C   0  0  0  0  0  0  0  0  0  0  0  0
    7.5016    0.0439   20.0400 C   0  0  0  0  0  0  0  0  0  0  0  0
    5.9031   -1.5757   19.2284 C   0  0  0  0  0  0  0  0  0  0  0  0
    7.4624    0.6993   18.8094 C   0  0  0  0  0  0  0  0  0  0  0  0
    5.8639   -0.9203   17.9977 C   0  0  0  0  0  0  0  0  0  0  0  0
    3.1633   -5.3142   25.2036 C   0  0  0  0  0  0  0  0  0  0  0  0
    5.4196   -4.9645   24.9483 C   0  0  0  0  0  0  0  0  0  0  0  0
   11.0449   -2.8623   25.2872 C   0  0  0  0  0  0  0  0  0  0  0  0
    5.2149   -4.0026   23.9722 C   0  0  0  0  0  0  0  0  0  0  0  0
    6.7220   -1.0937   20.2495 C   0  0  0  0  0  0  0  0  0  0  0  0
    8.7449   -3.7391   23.9742 C   0  0  0  0  0  0  0  0  0  0  0  0
    6.6435    0.2173   17.7883 C   0  0  0  0  0  0  0  0  0  0  0  0
    8.2454   -7.8069   22.7494 C   0  0  0  0  0  0  0  0  0  0  0  0
    8.3068   -6.5786   23.2736 C   0  0  0  0  0  0  0  0  0  0  0  0
    7.4792   -5.4749   22.7043 C   0  0  0  0  0  0  0  0  0  0  0  0
    6.0552   -2.8974   21.8769 C   0  0  0  0  0  0  0  0  0  0  0  0
   12.4964   -0.2062   24.5829 C   0  0  0  0  0  0  0  0  0  0  0  0
   13.6232   -2.9861   25.4519 C   0  0  0  0  0  0  0  0  0  0  0  0
   12.2285   -2.8208   27.4941 C   0  0  0  0  0  0  0  0  0  0  0  0
   12.4288   -0.8231   25.9770 C   0  0  0  0  0  0  0  0  0  0  0  0
    6.3802   -3.2976   23.3138 C   0  0  0  0  0  0  0  0  0  0  0  0
   12.3144   -2.3785   26.0117 C   0  0  0  0  0  0  0  0  0  0  0  0
    4.4240   -5.6304   25.5753 N   0  0  0  0  0  0  0  0  0  0  0  0
    6.7615   -1.7584   21.4982 N   0  0  0  0  0  0  0  0  0  0  0  0
    7.5945   -4.1772   23.3176 N   0  0  0  0  0  0  0  0  0  0  0  0
    6.7231   -5.7232   21.7647 O   0  0  0  0  0  0  0  0  0  0  0  0
    5.2546   -3.5328   21.1961 O   0  0  0  0  0  0  0  0  0  0  0  0
    6.5905    1.1055   16.1210 Br  0  0  0  0  0  0  0  0  0  0  0  0
  1  2  2  0
  1 11  1  0
  2 14  1  0
  3  5  2  0
  3 13  1  0
  4  6  1  0
  4 13  2  0
  5 16  1  0
  6 16  2  0
  7  9  2  0
  7 15  1  0
  8 10  1  0
  8 15  2  0
  9 17  1  0
 10 17  2  0
 11 28  2  0
 12 14  2  0
 12 28  1  0
 13 27  1  0
 14 26  1  0
 15 29  1  0
 16 30  1  0
 17 33  1  0
 18 19  2  0
 19 20  1  0
 20 30  1  0
 20 31  2  0
 21 26  1  0
 21 29  1  0
 21 32  2  0
 22 25  1  0
 23 27  1  0
 24 27  1  0
 25 27  1  0
 26 30  1  0
M  END
