LON-WEI-b8d98729-9
     RDKit          3D

 31 34  0  0  1  0  0  0  0  0999 V2000
    7.0045    0.5359   17.9177 C   0  0  0  0  0  0  0  0  0  0  0  0
    7.7729   -0.1347   18.8627 C   0  0  0  0  0  0  0  0  0  0  0  0
   11.9354   -1.2264   22.4567 C   0  0  0  0  0  0  0  0  0  0  0  0
   10.5832   -1.4386   22.1729 C   0  0  0  0  0  0  0  0  0  0  0  0
    7.5044   -4.1675   24.9589 C   0  0  0  0  0  0  0  0  0  0  0  0
    6.1071   -4.9647   23.1563 C   0  0  0  0  0  0  0  0  0  0  0  0
    7.0193   -5.1824   25.7837 C   0  0  0  0  0  0  0  0  0  0  0  0
    5.6220   -5.9796   23.9812 C   0  0  0  0  0  0  0  0  0  0  0  0
   10.0488    0.8321   22.8341 C   0  0  0  0  0  0  0  0  0  0  0  0
    5.6259    0.4818   18.0461 C   0  0  0  0  0  0  0  0  0  0  0  0
    5.7632   -0.8219   19.9328 C   0  0  0  0  0  0  0  0  0  0  0  0
   13.6901    1.6309   23.6728 C   0  0  0  0  0  0  0  0  0  0  0  0
    7.1482   -0.8291   19.8927 C   0  0  0  0  0  0  0  0  0  0  0  0
   12.3614    0.0309   22.9371 C   0  0  0  0  0  0  0  0  0  0  0  0
    7.0483   -4.0586   23.6452 C   0  0  0  0  0  0  0  0  0  0  0  0
    9.6538   -0.4214   22.3599 C   0  0  0  0  0  0  0  0  0  0  0  0
   11.4086    1.0383   23.1170 C   0  0  0  0  0  0  0  0  0  0  0  0
    6.0782   -6.0884   25.2949 C   0  0  0  0  0  0  0  0  0  0  0  0
    6.8298    1.4224   24.7216 C   0  0  0  0  0  0  0  0  0  0  0  0
    7.4392    0.3574   24.1912 C   0  0  0  0  0  0  0  0  0  0  0  0
    7.2272    0.0057   22.7564 C   0  0  0  0  0  0  0  0  0  0  0  0
    7.1979   -2.7754   21.4826 C   0  0  0  0  0  0  0  0  0  0  0  0
    7.9561   -1.5681   20.9365 C   0  0  0  0  0  0  0  0  0  0  0  0
    4.9832   -0.1822   19.0328 N   0  0  0  0  0  0  0  0  0  0  0  0
   13.6633    0.3855   23.2594 N   0  0  0  0  0  0  0  0  0  0  0  0
    7.5407   -3.0293   22.8082 N   0  0  0  0  0  0  0  0  0  0  0  0
    8.3079   -0.6533   22.0707 N   0  0  0  0  0  0  0  0  0  0  0  0
    6.1624    0.3137   22.2203 O   0  0  0  0  0  0  0  0  0  0  0  0
    6.4078   -3.4087   20.7876 O   0  0  0  0  0  0  0  0  0  0  0  0
   12.1923    2.4564   23.7065 S   0  0  0  0  0  0  0  0  0  0  0  0
    5.4211   -7.4634   26.4126 Br  0  0  0  0  0  0  0  0  0  0  0  0
  1  2  2  0
  1 10  1  0
  2 13  1  0
  3  4  2  0
  3 14  1  0
  4 16  1  0
  5  7  2  0
  5 15  1  0
  6  8  1  0
  6 15  2  0
  7 18  1  0
  8 18  2  0
  9 16  2  0
  9 17  1  0
 10 24  2  0
 11 13  2  0
 11 24  1  0
 12 25  2  0
 12 30  1  0
 13 23  1  0
 14 17  2  0
 14 25  1  0
 15 26  1  0
 16 27  1  0
 17 30  1  0
 18 31  1  0
 19 20  2  0
 20 21  1  0
 21 27  1  0
 21 28  2  0
 22 23  1  0
 22 26  1  0
 22 29  2  0
 23 27  1  0
M  END
