LON-WEI-b8d98729-16
     RDKit          3D

 33 35  0  0  1  0  0  0  0  0999 V2000
    6.9486   -4.4930   29.9930 C   0  0  0  0  0  0  0  0  0  0  0  0
    6.8847   -5.9465   21.3607 C   0  0  0  0  0  0  0  0  0  0  0  0
    6.3616   -3.2590   30.2729 C   0  0  0  0  0  0  0  0  0  0  0  0
    7.8466   -5.2787   22.1104 C   0  0  0  0  0  0  0  0  0  0  0  0
    7.4454   -4.7555   28.7163 C   0  0  0  0  0  0  0  0  0  0  0  0
    7.2048   -1.6245   22.4800 C   0  0  0  0  0  0  0  0  0  0  0  0
    6.4773   -1.0454   21.4403 C   0  0  0  0  0  0  0  0  0  0  0  0
    6.7682   -2.5500   27.9994 C   0  0  0  0  0  0  0  0  0  0  0  0
    8.9189   -2.2869   20.9115 C   0  0  0  0  0  0  0  0  0  0  0  0
    5.5742   -5.9129   21.8094 C   0  0  0  0  0  0  0  0  0  0  0  0
    6.1370   -4.6333   23.6326 C   0  0  0  0  0  0  0  0  0  0  0  0
    6.2714   -2.2875   29.2761 C   0  0  0  0  0  0  0  0  0  0  0  0
    7.4739   -4.6072   23.2695 C   0  0  0  0  0  0  0  0  0  0  0  0
    8.1913   -1.7078   19.8718 C   0  0  0  0  0  0  0  0  0  0  0  0
    7.3552   -3.7840   27.7195 C   0  0  0  0  0  0  0  0  0  0  0  0
    8.4257   -2.2453   22.2155 C   0  0  0  0  0  0  0  0  0  0  0  0
    6.9705   -1.0871   20.1362 C   0  0  0  0  0  0  0  0  0  0  0  0
   12.4395   -3.2235   24.8613 C   0  0  0  0  0  0  0  0  0  0  0  0
   11.1131   -3.0689   24.7996 C   0  0  0  0  0  0  0  0  0  0  0  0
   10.4857   -2.4147   23.6140 C   0  0  0  0  0  0  0  0  0  0  0  0
    7.8534   -3.2030   25.3194 C   0  0  0  0  0  0  0  0  0  0  0  0
    8.7424   -1.7678   18.4842 C   0  0  0  0  0  0  0  0  0  0  0  0
    6.6578    0.0568   30.0772 C   0  0  0  0  0  0  0  0  0  0  0  0
    6.4243    0.8955   18.7466 C   0  0  0  0  0  0  0  0  0  0  0  0
    5.2489   -1.2762   18.3584 C   0  0  0  0  0  0  0  0  0  0  0  0
    5.6439   -0.9684   29.5758 C   0  0  0  0  0  0  0  0  0  0  0  0
    8.4964   -3.8707   24.1065 C   0  0  0  0  0  0  0  0  0  0  0  0
    5.1741   -5.2712   22.9300 N   0  0  0  0  0  0  0  0  0  0  0  0
    7.8600   -4.0503   26.4246 N   0  0  0  0  0  0  0  0  0  0  0  0
    9.1826   -2.8487   23.2987 N   0  0  0  0  0  0  0  0  0  0  0  0
    6.2205   -0.4952   19.0963 N   0  0  0  0  0  0  0  0  0  0  0  0
   11.1288   -1.5679   22.9931 O   0  0  0  0  0  0  0  0  0  0  0  0
    7.3957   -2.0648   25.2616 O   0  0  0  0  0  0  0  0  0  0  0  0
  1  3  2  0
  1  5  1  0
  2  4  2  0
  2 10  1  0
  3 12  1  0
  4 13  1  0
  5 15  2  0
  6  7  2  0
  6 16  1  0
  7 17  1  0
  8 12  2  0
  8 15  1  0
  9 14  1  0
  9 16  2  0
 10 28  2  0
 11 13  2  0
 11 28  1  0
 12 26  1  0
 13 27  1  0
 14 17  2  0
 14 22  1  0
 15 29  1  0
 16 30  1  0
 17 31  1  0
 18 19  2  0
 19 20  1  0
 20 30  1  0
 20 32  2  0
 21 27  1  0
 21 29  1  0
 21 33  2  0
 23 26  1  0
 24 31  1  0
 25 31  1  0
 27 30  1  0
M  END
