LON-WEI-adc59df6-67
     RDKit          3D

 29 30  0  0  1  0  0  0  0  0999 V2000
    3.5844   -4.6098   23.7584 C   0  0  0  0  0  0  0  0  0  0  0  0
    4.6933   -4.3485   22.9614 C   0  0  0  0  0  0  0  0  0  0  0  0
    3.3814   -3.8083   24.8702 C   0  0  0  0  0  0  0  0  0  0  0  0
    5.2620   -2.5649   24.4282 C   0  0  0  0  0  0  0  0  0  0  0  0
    5.5532   -3.3083   23.2958 C   0  0  0  0  0  0  0  0  0  0  0  0
    8.4397   -7.6309   21.8949 C   0  0  0  0  0  0  0  0  0  0  0  0
    8.1778   -6.5236   22.5970 C   0  0  0  0  0  0  0  0  0  0  0  0
    7.4244   -5.4012   21.9686 C   0  0  0  0  0  0  0  0  0  0  0  0
    6.3846   -2.6759   21.0100 C   0  0  0  0  0  0  0  0  0  0  0  0
   11.0697   -2.2690   22.3739 C   0  0  0  0  0  0  0  0  0  0  0  0
   11.0716   -1.3834   23.6180 C   0  0  0  0  0  0  0  0  0  0  0  0
   10.3927   -3.4512   25.0385 C   0  0  0  0  0  0  0  0  0  0  0  0
    9.6666   -2.7369   21.9852 C   0  0  0  0  0  0  0  0  0  0  0  0
    9.0112   -3.4352   24.3848 C   0  0  0  0  0  0  0  0  0  0  0  0
   11.1681   -2.1287   24.9571 C   0  0  0  0  0  0  0  0  0  0  0  0
    9.0567   -3.8042   22.8968 C   0  0  0  0  0  0  0  0  0  0  0  0
   13.3845   -1.0516   25.4368 C   0  0  0  0  0  0  0  0  0  0  0  0
   12.7171   -3.1455   26.6509 C   0  0  0  0  0  0  0  0  0  0  0  0
    7.1019    0.5799   19.2651 C   0  0  0  0  0  0  0  0  0  0  0  0
    7.1523   -1.7153   18.2562 C   0  0  0  0  0  0  0  0  0  0  0  0
    4.9969   -0.7704   19.1220 C   0  0  0  0  0  0  0  0  0  0  0  0
    6.7663   -2.9986   22.4498 C   0  0  0  0  0  0  0  0  0  0  0  0
   12.6333   -2.3747   25.3382 C   0  0  0  0  0  0  0  0  0  0  0  0
    6.5138   -0.8341   19.3349 C   0  0  0  0  0  0  0  0  0  0  0  0
    4.1945   -2.7889   25.2269 N   0  0  0  0  0  0  0  0  0  0  0  0
    6.7903   -1.4029   20.6343 N   0  0  0  0  0  0  0  0  0  0  0  0
    7.7192   -4.1115   22.4322 N   0  0  0  0  0  0  0  0  0  0  0  0
    6.5765   -5.6412   21.1075 O   0  0  0  0  0  0  0  0  0  0  0  0
    5.7549   -3.4546   20.2969 O   0  0  0  0  0  0  0  0  0  0  0  0
  1  2  2  0
  1  3  1  0
  2  5  1  0
  3 25  2  0
  4  5  2  0
  4 25  1  0
  5 22  1  0
  6  7  2  0
  7  8  1  0
  8 27  1  0
  8 28  2  0
  9 22  1  0
  9 26  1  0
  9 29  2  0
 10 11  1  0
 10 13  1  0
 11 15  1  0
 12 14  1  0
 12 15  1  0
 13 16  1  0
 14 16  1  0
 15 23  1  0
 16 27  1  0
 17 23  1  0
 18 23  1  0
 19 24  1  0
 20 24  1  0
 21 24  1  0
 22 27  1  0
 24 26  1  0
M  END
