LON-WEI-adc59df6-23
     RDKit          3D

 33 35  0  0  1  0  0  0  0  0999 V2000
    5.4208    1.0265   23.4714 C   0  0  0  0  0  0  0  0  0  0  0  0
    5.6675   -0.2963   23.1213 C   0  0  0  0  0  0  0  0  0  0  0  0
    7.8359    0.3918   18.6112 C   0  0  0  0  0  0  0  0  0  0  0  0
    5.4896   -0.0298   18.2183 C   0  0  0  0  0  0  0  0  0  0  0  0
   11.9710   -0.8199   22.5250 C   0  0  0  0  0  0  0  0  0  0  0  0
   11.4803   -0.2586   24.8232 C   0  0  0  0  0  0  0  0  0  0  0  0
    7.8616   -0.6327   19.5574 C   0  0  0  0  0  0  0  0  0  0  0  0
    5.5153   -1.0544   19.1645 C   0  0  0  0  0  0  0  0  0  0  0  0
   12.7039    0.3595   22.3934 C   0  0  0  0  0  0  0  0  0  0  0  0
   12.2133    0.9209   24.6916 C   0  0  0  0  0  0  0  0  0  0  0  0
    6.4240    1.9551   23.2455 C   0  0  0  0  0  0  0  0  0  0  0  0
    7.8299    0.3583   22.3784 C   0  0  0  0  0  0  0  0  0  0  0  0
   11.3591   -1.1289   23.7399 C   0  0  0  0  0  0  0  0  0  0  0  0
    6.6499    0.6933   17.9417 C   0  0  0  0  0  0  0  0  0  0  0  0
    6.8926   -0.6452   22.5639 C   0  0  0  0  0  0  0  0  0  0  0  0
    6.7013   -1.3559   19.8340 C   0  0  0  0  0  0  0  0  0  0  0  0
   12.8251    1.2299   23.4767 C   0  0  0  0  0  0  0  0  0  0  0  0
    5.7380   -5.8276   21.5978 C   0  0  0  0  0  0  0  0  0  0  0  0
    6.5265   -4.7483   21.5749 C   0  0  0  0  0  0  0  0  0  0  0  0
    6.4047   -3.7502   20.4720 C   0  0  0  0  0  0  0  0  0  0  0  0
    8.6808   -2.3840   22.2566 C   0  0  0  0  0  0  0  0  0  0  0  0
    7.6176    1.5055   15.7624 C   0  0  0  0  0  0  0  0  0  0  0  0
    7.0211    3.1566   17.5662 C   0  0  0  0  0  0  0  0  0  0  0  0
    5.2372    2.0363   16.2457 C   0  0  0  0  0  0  0  0  0  0  0  0
   10.5706   -2.3986   23.8825 C   0  0  0  0  0  0  0  0  0  0  0  0
    7.1911   -2.0737   22.1723 C   0  0  0  0  0  0  0  0  0  0  0  0
    6.6216    1.8228   16.8988 C   0  0  0  0  0  0  0  0  0  0  0  0
    7.6265    1.6540   22.7061 N   0  0  0  0  0  0  0  0  0  0  0  0
    9.1789   -2.2122   23.5406 N   0  0  0  0  0  0  0  0  0  0  0  0
    6.7268   -2.3809   20.7801 N   0  0  0  0  0  0  0  0  0  0  0  0
    6.0135   -4.1297   19.3679 O   0  0  0  0  0  0  0  0  0  0  0  0
    9.3506   -2.7084   21.2779 O   0  0  0  0  0  0  0  0  0  0  0  0
   13.5313    2.3612   23.3512 F   0  0  0  0  0  0  0  0  0  0  0  0
  1  2  2  0
  1 11  1  0
  2 15  1  0
  3  7  2  0
  3 14  1  0
  4  8  1  0
  4 14  2  0
  5  9  2  0
  5 13  1  0
  6 10  1  0
  6 13  2  0
  7 16  1  0
  8 16  2  0
  9 17  1  0
 10 17  2  0
 11 28  2  0
 12 15  2  0
 12 28  1  0
 13 25  1  0
 14 27  1  0
 15 26  1  0
 16 30  1  0
 17 33  1  0
 18 19  2  0
 19 20  1  0
 20 30  1  0
 20 31  2  0
 21 26  1  0
 21 29  1  0
 21 32  2  0
 22 27  1  0
 23 27  1  0
 24 27  1  0
 25 29  1  0
 26 30  1  0
M  END
