LON-WEI-b8d98729-47
     RDKit          3D

 31 33  0  0  1  0  0  0  0  0999 V2000
    7.3712   -1.4236   20.3880 C   0  0  0  0  0  0  0  0  0  0  0  0
    7.7861   -1.9708   21.5970 C   0  0  0  0  0  0  0  0  0  0  0  0
   10.8344   -0.7454   25.3736 C   0  0  0  0  0  0  0  0  0  0  0  0
   11.7713   -2.7409   24.3852 C   0  0  0  0  0  0  0  0  0  0  0  0
    5.2290   -6.4259   24.3965 C   0  0  0  0  0  0  0  0  0  0  0  0
    6.2797   -4.8049   25.8476 C   0  0  0  0  0  0  0  0  0  0  0  0
   12.1143   -0.3215   25.7312 C   0  0  0  0  0  0  0  0  0  0  0  0
   13.0512   -2.3171   24.7427 C   0  0  0  0  0  0  0  0  0  0  0  0
    4.3627   -6.7879   25.4280 C   0  0  0  0  0  0  0  0  0  0  0  0
    5.4133   -5.1669   26.8792 C   0  0  0  0  0  0  0  0  0  0  0  0
    6.2499   -1.9662   19.7814 C   0  0  0  0  0  0  0  0  0  0  0  0
    5.9686   -3.4994   21.4691 C   0  0  0  0  0  0  0  0  0  0  0  0
    7.0769   -3.0288   22.1546 C   0  0  0  0  0  0  0  0  0  0  0  0
   10.6629   -1.9551   24.7007 C   0  0  0  0  0  0  0  0  0  0  0  0
    6.1876   -5.4345   24.6063 C   0  0  0  0  0  0  0  0  0  0  0  0
   13.2227   -1.1074   25.4157 C   0  0  0  0  0  0  0  0  0  0  0  0
    4.4548   -6.1583   26.6693 C   0  0  0  0  0  0  0  0  0  0  0  0
    8.7796   -6.2348   20.4757 C   0  0  0  0  0  0  0  0  0  0  0  0
    8.3502   -5.4385   21.4598 C   0  0  0  0  0  0  0  0  0  0  0  0
    7.4846   -5.9839   22.5462 C   0  0  0  0  0  0  0  0  0  0  0  0
    9.0131   -3.5549   23.6687 C   0  0  0  0  0  0  0  0  0  0  0  0
   14.5748    0.5528   26.4508 C   0  0  0  0  0  0  0  0  0  0  0  0
    4.5532   -7.1731   29.2137 C   0  0  0  0  0  0  0  0  0  0  0  0
    7.5023   -3.6455   23.4689 C   0  0  0  0  0  0  0  0  0  0  0  0
    5.5353   -2.9936   20.2926 N   0  0  0  0  0  0  0  0  0  0  0  0
    9.3645   -2.3852   24.3379 N   0  0  0  0  0  0  0  0  0  0  0  0
    7.0898   -5.0575   23.5320 N   0  0  0  0  0  0  0  0  0  0  0  0
    7.1847   -7.1779   22.5239 O   0  0  0  0  0  0  0  0  0  0  0  0
    9.7713   -4.4293   23.2578 O   0  0  0  0  0  0  0  0  0  0  0  0
   14.4717   -0.6938   25.7645 O   0  0  0  0  0  0  0  0  0  0  0  0
    3.3479   -6.6209   27.9870 S   0  0  0  0  0  0  0  0  0  0  0  0
  1  2  2  0
  1 11  1  0
  2 13  1  0
  3  7  2  0
  3 14  1  0
  4  8  1  0
  4 14  2  0
  5  9  2  0
  5 15  1  0
  6 10  1  0
  6 15  2  0
  7 16  1  0
  8 16  2  0
  9 17  1  0
 10 17  2  0
 11 25  2  0
 12 13  2  0
 12 25  1  0
 13 24  1  0
 14 26  1  0
 15 27  1  0
 16 30  1  0
 17 31  1  0
 18 19  2  0
 19 20  1  0
 20 27  1  0
 20 28  2  0
 21 24  1  0
 21 26  1  0
 21 29  2  0
 22 30  1  0
 23 31  1  0
 24 27  1  0
M  END
