LON-WEI-adc59df6-72
     RDKit          3D

 26 26  0  0  1  0  0  0  0  0999 V2000
   11.1512    2.3200   24.0428 C   0  0  0  0  0  0  0  0  0  0  0  0
   10.3308    1.6104   24.5583 C   0  0  0  0  0  0  0  0  0  0  0  0
    7.4848   -4.5700   21.6389 C   0  0  0  0  0  0  0  0  0  0  0  0
    7.9904   -3.3051   21.9173 C   0  0  0  0  0  0  0  0  0  0  0  0
    6.4455   -5.0405   22.4253 C   0  0  0  0  0  0  0  0  0  0  0  0
    6.4112   -3.1201   23.6859 C   0  0  0  0  0  0  0  0  0  0  0  0
    7.4490   -2.5597   22.9587 C   0  0  0  0  0  0  0  0  0  0  0  0
   12.6912   -2.3975   22.8237 C   0  0  0  0  0  0  0  0  0  0  0  0
   11.5034   -2.4117   23.4374 C   0  0  0  0  0  0  0  0  0  0  0  0
   10.3328   -1.7298   22.8155 C   0  0  0  0  0  0  0  0  0  0  0  0
    7.8643   -0.2362   22.0959 C   0  0  0  0  0  0  0  0  0  0  0  0
   12.1531    3.1796   23.4145 C   0  0  0  0  0  0  0  0  0  0  0  0
    5.2297   -0.4400   19.4169 C   0  0  0  0  0  0  0  0  0  0  0  0
    6.2279    1.6418   20.3956 C   0  0  0  0  0  0  0  0  0  0  0  0
    7.6652    0.0502   19.0959 C   0  0  0  0  0  0  0  0  0  0  0  0
    9.3267    0.7410   25.1918 C   0  0  0  0  0  0  0  0  0  0  0  0
    8.9092   -1.6166   26.0828 C   0  0  0  0  0  0  0  0  0  0  0  0
    7.9759   -1.1818   23.2858 C   0  0  0  0  0  0  0  0  0  0  0  0
    9.6447   -0.7539   25.0541 C   0  0  0  0  0  0  0  0  0  0  0  0
    6.4806    0.1678   20.0619 C   0  0  0  0  0  0  0  0  0  0  0  0
    5.8937   -4.3456   23.4452 N   0  0  0  0  0  0  0  0  0  0  0  0
    6.7850   -0.5470   21.2805 N   0  0  0  0  0  0  0  0  0  0  0  0
    9.3760   -1.2192   23.7104 N   0  0  0  0  0  0  0  0  0  0  0  0
   10.2449   -1.6649   21.5883 O   0  0  0  0  0  0  0  0  0  0  0  0
    8.6727    0.6653   21.8828 O   0  0  0  0  0  0  0  0  0  0  0  0
    9.5621   -1.5331   27.3456 O   0  0  0  0  0  0  0  0  0  0  0  0
  1  2  3  0
  1 12  1  0
  2 16  1  0
  3  4  2  0
  3  5  1  0
  4  7  1  0
  5 21  2  0
  6  7  2  0
  6 21  1  0
  7 18  1  0
  8  9  2  0
  9 10  1  0
 10 23  1  0
 10 24  2  0
 11 18  1  0
 11 22  1  0
 11 25  2  0
 13 20  1  0
 14 20  1  0
 15 20  1  0
 16 19  1  0
 17 19  1  0
 17 26  1  0
 18 23  1  0
 19 23  1  0
 20 22  1  0
M  END
