LON-WEI-adc59df6-80
     RDKit          3D

 28 29  0  0  1  0  0  0  0  0999 V2000
    3.3971   -3.2022   24.7152 C   0  0  0  0  0  0  0  0  0  0  0  0
    4.5326   -2.6382   24.1442 C   0  0  0  0  0  0  0  0  0  0  0  0
    9.6309   -1.8006   25.3917 C   0  0  0  0  0  0  0  0  0  0  0  0
   11.0889   -2.3550   23.5468 C   0  0  0  0  0  0  0  0  0  0  0  0
    8.5559   -2.3773   24.7156 C   0  0  0  0  0  0  0  0  0  0  0  0
   10.0139   -2.9319   22.8706 C   0  0  0  0  0  0  0  0  0  0  0  0
    2.9869   -4.4425   24.2536 C   0  0  0  0  0  0  0  0  0  0  0  0
    4.7220   -4.5572   22.7521 C   0  0  0  0  0  0  0  0  0  0  0  0
   10.8975   -1.7893   24.8073 C   0  0  0  0  0  0  0  0  0  0  0  0
    5.2135   -3.3222   23.1432 C   0  0  0  0  0  0  0  0  0  0  0  0
    8.7474   -2.9430   23.4550 C   0  0  0  0  0  0  0  0  0  0  0  0
    9.1728   -6.8366   22.7730 C   0  0  0  0  0  0  0  0  0  0  0  0
    8.5528   -5.7598   23.2662 C   0  0  0  0  0  0  0  0  0  0  0  0
    7.6753   -4.9292   22.3903 C   0  0  0  0  0  0  0  0  0  0  0  0
    6.2859   -2.5743   20.9970 C   0  0  0  0  0  0  0  0  0  0  0  0
    7.9490    0.0850   18.9181 C   0  0  0  0  0  0  0  0  0  0  0  0
    7.5009   -2.2904   18.2513 C   0  0  0  0  0  0  0  0  0  0  0  0
    5.5903   -0.7316   18.7074 C   0  0  0  0  0  0  0  0  0  0  0  0
    6.4507   -2.7365   22.5034 C   0  0  0  0  0  0  0  0  0  0  0  0
   12.0468   -1.1725   25.5303 C   0  0  0  0  0  0  0  0  0  0  0  0
    7.0180   -1.1176   19.1110 C   0  0  0  0  0  0  0  0  0  0  0  0
    3.6223   -5.1371   23.2833 N   0  0  0  0  0  0  0  0  0  0  0  0
    7.0311   -1.5155   20.5069 N   0  0  0  0  0  0  0  0  0  0  0  0
    7.6174   -3.5498   22.7440 N   0  0  0  0  0  0  0  0  0  0  0  0
    7.0821   -5.4719   21.4577 O   0  0  0  0  0  0  0  0  0  0  0  0
    5.5417   -3.2878   20.3272 O   0  0  0  0  0  0  0  0  0  0  0  0
   12.5919   -0.1638   24.8009 F   0  0  0  0  0  0  0  0  0  0  0  0
   13.0366   -2.0822   25.7293 F   0  0  0  0  0  0  0  0  0  0  0  0
  1  2  2  0
  1  7  1  0
  2 10  1  0
  3  5  2  0
  3  9  1  0
  4  6  1  0
  4  9  2  0
  5 11  1  0
  6 11  2  0
  7 22  2  0
  8 10  2  0
  8 22  1  0
  9 20  1  0
 10 19  1  0
 11 24  1  0
 12 13  2  0
 13 14  1  0
 14 24  1  0
 14 25  2  0
 15 19  1  0
 15 23  1  0
 15 26  2  0
 16 21  1  0
 17 21  1  0
 18 21  1  0
 19 24  1  0
 20 27  1  0
 20 28  1  0
 21 23  1  0
M  END
