LON-WEI-adc59df6-78
     RDKit          3D

 29 30  0  0  1  0  0  0  0  0999 V2000
   14.1697   -1.3216   26.6195 C   0  0  0  0  0  0  0  0  0  0  0  0
    3.1244   -4.0398   24.2011 C   0  0  0  0  0  0  0  0  0  0  0  0
    4.2036   -3.4596   23.5438 C   0  0  0  0  0  0  0  0  0  0  0  0
   10.5069   -3.9715   25.4847 C   0  0  0  0  0  0  0  0  0  0  0  0
   11.2678   -3.0004   23.4074 C   0  0  0  0  0  0  0  0  0  0  0  0
    9.2822   -4.2794   24.8922 C   0  0  0  0  0  0  0  0  0  0  0  0
   10.0431   -3.3083   22.8149 C   0  0  0  0  0  0  0  0  0  0  0  0
    3.3819   -5.0856   25.0728 C   0  0  0  0  0  0  0  0  0  0  0  0
    5.6409   -4.9866   24.6658 C   0  0  0  0  0  0  0  0  0  0  0  0
   11.4996   -3.3320   24.7423 C   0  0  0  0  0  0  0  0  0  0  0  0
    5.4892   -3.9363   23.7749 C   0  0  0  0  0  0  0  0  0  0  0  0
    9.0504   -3.9478   23.5573 C   0  0  0  0  0  0  0  0  0  0  0  0
    9.0276   -7.2226   21.2265 C   0  0  0  0  0  0  0  0  0  0  0  0
    8.8309   -6.3709   22.2378 C   0  0  0  0  0  0  0  0  0  0  0  0
    7.5989   -5.5300   22.2853 C   0  0  0  0  0  0  0  0  0  0  0  0
    6.3215   -2.8037   21.6916 C   0  0  0  0  0  0  0  0  0  0  0  0
    7.9782    0.1133   19.9869 C   0  0  0  0  0  0  0  0  0  0  0  0
    7.1494   -1.9928   18.9073 C   0  0  0  0  0  0  0  0  0  0  0  0
    5.5317   -0.4242   20.0076 C   0  0  0  0  0  0  0  0  0  0  0  0
   12.8516   -1.6177   26.0391 C   0  0  0  0  0  0  0  0  0  0  0  0
   12.8090   -3.0028   25.3760 C   0  0  0  0  0  0  0  0  0  0  0  0
    6.6826   -3.3268   23.0768 C   0  0  0  0  0  0  0  0  0  0  0  0
    6.9446   -1.0158   20.0697 C   0  0  0  0  0  0  0  0  0  0  0  0
   15.2101   -1.0864   27.0762 N   0  0  0  0  0  0  0  0  0  0  0  0
    4.6168   -5.5757   25.3229 N   0  0  0  0  0  0  0  0  0  0  0  0
    7.1118   -1.7283   21.3234 N   0  0  0  0  0  0  0  0  0  0  0  0
    7.7630   -4.2717   22.9339 N   0  0  0  0  0  0  0  0  0  0  0  0
    6.5631   -5.9648   21.7811 O   0  0  0  0  0  0  0  0  0  0  0  0
    5.4058   -3.2739   21.0194 O   0  0  0  0  0  0  0  0  0  0  0  0
  1 20  1  0
  1 24  3  0
  2  3  2  0
  2  8  1  0
  3 11  1  0
  4  6  2  0
  4 10  1  0
  5  7  1  0
  5 10  2  0
  6 12  1  0
  7 12  2  0
  8 25  2  0
  9 11  2  0
  9 25  1  0
 10 21  1  0
 11 22  1  0
 12 27  1  0
 13 14  2  0
 14 15  1  0
 15 27  1  0
 15 28  2  0
 16 22  1  0
 16 26  1  0
 16 29  2  0
 17 23  1  0
 18 23  1  0
 19 23  1  0
 20 21  1  0
 22 27  1  0
 23 26  1  0
M  END
