LON-WEI-adc59df6-8
     RDKit          3D

 31 33  0  0  1  0  0  0  0  0999 V2000
    4.6501   -4.9432   24.6977 C   0  0  0  0  0  0  0  0  0  0  0  0
    5.8715   -4.2969   24.5432 C   0  0  0  0  0  0  0  0  0  0  0  0
   12.2661   -3.1968   24.5223 C   0  0  0  0  0  0  0  0  0  0  0  0
   10.8852   -1.2852   25.0478 C   0  0  0  0  0  0  0  0  0  0  0  0
   11.1445   -3.8766   24.0475 C   0  0  0  0  0  0  0  0  0  0  0  0
    9.7636   -1.9650   24.5730 C   0  0  0  0  0  0  0  0  0  0  0  0
    3.8860   -5.1656   23.5635 C   0  0  0  0  0  0  0  0  0  0  0  0
    5.4483   -4.1678   22.2064 C   0  0  0  0  0  0  0  0  0  0  0  0
   12.1365   -1.9011   25.0225 C   0  0  0  0  0  0  0  0  0  0  0  0
    6.2855   -3.8984   23.2770 C   0  0  0  0  0  0  0  0  0  0  0  0
    9.8932   -3.2607   24.0729 C   0  0  0  0  0  0  0  0  0  0  0  0
    7.1875   -7.2134   22.9365 C   0  0  0  0  0  0  0  0  0  0  0  0
    7.8007   -6.0602   22.6516 C   0  0  0  0  0  0  0  0  0  0  0  0
    8.6661   -5.3961   23.6701 C   0  0  0  0  0  0  0  0  0  0  0  0
    7.8660   -2.8853   21.6062 C   0  0  0  0  0  0  0  0  0  0  0  0
    6.9247    1.0276   17.9124 C   0  0  0  0  0  0  0  0  0  0  0  0
    6.0849   -0.2464   17.9375 C   0  0  0  0  0  0  0  0  0  0  0  0
    8.3281    0.7879   18.4617 C   0  0  0  0  0  0  0  0  0  0  0  0
    6.0427   -0.8662   19.3332 C   0  0  0  0  0  0  0  0  0  0  0  0
    8.2884    0.1699   19.8583 C   0  0  0  0  0  0  0  0  0  0  0  0
    7.4541   -1.1156   19.8763 C   0  0  0  0  0  0  0  0  0  0  0  0
   14.4119   -1.0087   24.4126 C   0  0  0  0  0  0  0  0  0  0  0  0
   14.0023   -1.9404   26.7148 C   0  0  0  0  0  0  0  0  0  0  0  0
   13.0678    0.2707   26.0673 C   0  0  0  0  0  0  0  0  0  0  0  0
    7.6074   -3.1946   23.0760 C   0  0  0  0  0  0  0  0  0  0  0  0
   13.3358   -1.1744   25.5301 C   0  0  0  0  0  0  0  0  0  0  0  0
    4.2549   -4.7933   22.3174 N   0  0  0  0  0  0  0  0  0  0  0  0
    7.3767   -1.6386   21.2389 N   0  0  0  0  0  0  0  0  0  0  0  0
    8.7138   -3.9750   23.5735 N   0  0  0  0  0  0  0  0  0  0  0  0
    9.2590   -6.0948   24.4925 O   0  0  0  0  0  0  0  0  0  0  0  0
    8.4112   -3.6807   20.8436 O   0  0  0  0  0  0  0  0  0  0  0  0
  1  2  2  0
  1  7  1  0
  2 10  1  0
  3  5  2  0
  3  9  1  0
  4  6  1  0
  4  9  2  0
  5 11  1  0
  6 11  2  0
  7 27  2  0
  8 10  2  0
  8 27  1  0
  9 26  1  0
 10 25  1  0
 11 29  1  0
 12 13  2  0
 13 14  1  0
 14 29  1  0
 14 30  2  0
 15 25  1  0
 15 28  1  0
 15 31  2  0
 16 17  1  0
 16 18  1  0
 17 19  1  0
 18 20  1  0
 19 21  1  0
 20 21  1  0
 21 28  1  0
 22 26  1  0
 23 26  1  0
 24 26  1  0
 25 29  1  0
M  END
