LON-WEI-adc59df6-9
     RDKit          3D

 33 35  0  0  1  0  0  0  0  0999 V2000
    5.2701   -6.3216   23.9391 C   0  0  0  0  0  0  0  0  0  0  0  0
    7.1478    0.3116   18.1861 C   0  0  0  0  0  0  0  0  0  0  0  0
    7.8234   -0.3498   19.2055 C   0  0  0  0  0  0  0  0  0  0  0  0
   11.6676   -0.4484   22.4493 C   0  0  0  0  0  0  0  0  0  0  0  0
   10.8166   -0.0124   24.6680 C   0  0  0  0  0  0  0  0  0  0  0  0
    5.8283   -5.2744   23.2061 C   0  0  0  0  0  0  0  0  0  0  0  0
   10.3727   -0.7156   22.0051 C   0  0  0  0  0  0  0  0  0  0  0  0
    9.5216   -0.2795   24.2238 C   0  0  0  0  0  0  0  0  0  0  0  0
    5.5608   -6.4552   25.2968 C   0  0  0  0  0  0  0  0  0  0  0  0
    5.7659    0.2158   18.1552 C   0  0  0  0  0  0  0  0  0  0  0  0
    5.7266   -1.1102   20.0310 C   0  0  0  0  0  0  0  0  0  0  0  0
   11.8896   -0.0968   23.7808 C   0  0  0  0  0  0  0  0  0  0  0  0
    7.1067   -1.0766   20.1496 C   0  0  0  0  0  0  0  0  0  0  0  0
    6.9681   -4.4945   25.1885 C   0  0  0  0  0  0  0  0  0  0  0  0
    9.2997   -0.6312   22.8923 C   0  0  0  0  0  0  0  0  0  0  0  0
    6.6774   -4.3608   23.8308 C   0  0  0  0  0  0  0  0  0  0  0  0
    6.4098   -5.5417   25.9215 C   0  0  0  0  0  0  0  0  0  0  0  0
    6.2115    1.4520   24.6366 C   0  0  0  0  0  0  0  0  0  0  0  0
    6.9942    1.0713   23.6220 C   0  0  0  0  0  0  0  0  0  0  0  0
    6.8317   -0.2811   23.0120 C   0  0  0  0  0  0  0  0  0  0  0  0
    7.0337   -3.0431   21.7135 C   0  0  0  0  0  0  0  0  0  0  0  0
    7.8813   -3.5067   25.8478 C   0  0  0  0  0  0  0  0  0  0  0  0
   13.9063    1.3808   23.4722 C   0  0  0  0  0  0  0  0  0  0  0  0
   14.2054   -1.0480   24.0618 C   0  0  0  0  0  0  0  0  0  0  0  0
   13.4000    0.5712   25.7679 C   0  0  0  0  0  0  0  0  0  0  0  0
    7.8122   -1.8067   21.2711 C   0  0  0  0  0  0  0  0  0  0  0  0
   13.3172    0.1976   24.2704 C   0  0  0  0  0  0  0  0  0  0  0  0
    5.0353   -0.4806   19.0546 N   0  0  0  0  0  0  0  0  0  0  0  0
    7.2306   -3.3058   23.0669 N   0  0  0  0  0  0  0  0  0  0  0  0
    8.0043   -0.8981   22.4483 N   0  0  0  0  0  0  0  0  0  0  0  0
    5.7122   -0.7934   22.9927 O   0  0  0  0  0  0  0  0  0  0  0  0
    6.3477   -3.6891   20.9259 O   0  0  0  0  0  0  0  0  0  0  0  0
    6.7435   -5.7438   27.6037 Cl  0  0  0  0  0  0  0  0  0  0  0  0
  1  6  2  0
  1  9  1  0
  2  3  2  0
  2 10  1  0
  3 13  1  0
  4  7  2  0
  4 12  1  0
  5  8  1  0
  5 12  2  0
  6 16  1  0
  7 15  1  0
  8 15  2  0
  9 17  2  0
 10 28  2  0
 11 13  2  0
 11 28  1  0
 12 27  1  0
 13 26  1  0
 14 16  2  0
 14 17  1  0
 14 22  1  0
 15 30  1  0
 16 29  1  0
 17 33  1  0
 18 19  2  0
 19 20  1  0
 20 30  1  0
 20 31  2  0
 21 26  1  0
 21 29  1  0
 21 32  2  0
 23 27  1  0
 24 27  1  0
 25 27  1  0
 26 30  1  0
M  END
