LON-WEI-b8d98729-27
     RDKit          3D

 33 35  0  0  1  0  0  0  0  0999 V2000
    7.0828   -1.2731   20.3529 C   0  0  0  0  0  0  0  0  0  0  0  0
    7.7086   -1.7585   21.4957 C   0  0  0  0  0  0  0  0  0  0  0  0
    6.4353   -5.2500   26.9672 C   0  0  0  0  0  0  0  0  0  0  0  0
    5.4497   -6.9988   25.6229 C   0  0  0  0  0  0  0  0  0  0  0  0
    7.1162   -4.7727   25.8473 C   0  0  0  0  0  0  0  0  0  0  0  0
    6.1305   -6.5215   24.5029 C   0  0  0  0  0  0  0  0  0  0  0  0
   11.1868   -1.2133   26.0378 C   0  0  0  0  0  0  0  0  0  0  0  0
   12.1115   -2.2374   24.0546 C   0  0  0  0  0  0  0  0  0  0  0  0
   12.4560   -0.7580   26.3946 C   0  0  0  0  0  0  0  0  0  0  0  0
   13.3808   -1.7820   24.4114 C   0  0  0  0  0  0  0  0  0  0  0  0
    5.9814   -1.9638   19.8736 C   0  0  0  0  0  0  0  0  0  0  0  0
    6.1133   -3.5212   21.5574 C   0  0  0  0  0  0  0  0  0  0  0  0
    5.6021   -6.3631   26.8550 C   0  0  0  0  0  0  0  0  0  0  0  0
    7.2209   -2.9036   22.1155 C   0  0  0  0  0  0  0  0  0  0  0  0
   11.0145   -1.9530   24.8678 C   0  0  0  0  0  0  0  0  0  0  0  0
    6.9637   -5.4085   24.6151 C   0  0  0  0  0  0  0  0  0  0  0  0
   13.5530   -1.0423   25.5814 C   0  0  0  0  0  0  0  0  0  0  0  0
    8.2637   -8.1878   21.9973 C   0  0  0  0  0  0  0  0  0  0  0  0
    8.4488   -7.1564   22.8273 C   0  0  0  0  0  0  0  0  0  0  0  0
    8.0695   -5.7752   22.4081 C   0  0  0  0  0  0  0  0  0  0  0  0
    9.3765   -3.1601   23.3826 C   0  0  0  0  0  0  0  0  0  0  0  0
   14.8962    0.1523   27.1385 C   0  0  0  0  0  0  0  0  0  0  0  0
    7.8791   -3.4564   23.3604 C   0  0  0  0  0  0  0  0  0  0  0  0
    4.8742   -6.8733   28.0526 C   0  0  0  0  0  0  0  0  0  0  0  0
    5.4787   -3.0794   20.4484 N   0  0  0  0  0  0  0  0  0  0  0  0
    9.7269   -2.4150   24.5058 N   0  0  0  0  0  0  0  0  0  0  0  0
    7.6724   -4.9115   23.4485 N   0  0  0  0  0  0  0  0  0  0  0  0
    8.1139   -5.4840   21.2126 O   0  0  0  0  0  0  0  0  0  0  0  0
   10.1236   -3.5469   22.4879 O   0  0  0  0  0  0  0  0  0  0  0  0
   14.7916   -0.5981   25.9295 O   0  0  0  0  0  0  0  0  0  0  0  0
    5.1176   -6.1547   29.1885 F   0  0  0  0  0  0  0  0  0  0  0  0
    3.5157   -6.8659   27.9109 F   0  0  0  0  0  0  0  0  0  0  0  0
    5.2035   -8.1623   28.3575 F   0  0  0  0  0  0  0  0  0  0  0  0
  1  2  2  0
  1 11  1  0
  2 14  1  0
  3  5  2  0
  3 13  1  0
  4  6  1  0
  4 13  2  0
  5 16  1  0
  6 16  2  0
  7  9  2  0
  7 15  1  0
  8 10  1  0
  8 15  2  0
  9 17  1  0
 10 17  2  0
 11 25  2  0
 12 14  2  0
 12 25  1  0
 13 24  1  0
 14 23  1  0
 15 26  1  0
 16 27  1  0
 17 30  1  0
 18 19  2  0
 19 20  1  0
 20 27  1  0
 20 28  2  0
 21 23  1  0
 21 26  1  0
 21 29  2  0
 22 30  1  0
 23 27  1  0
 24 31  1  0
 24 32  1  0
 24 33  1  0
M  END
