LON-WEI-adc59df6-24
     RDKit          3D

 35 37  0  0  1  0  0  0  0  0999 V2000
   13.0825   -0.7606   22.3078 C   0  0  0  0  0  0  0  0  0  0  0  0
    5.0153    0.0447   19.5218 C   0  0  0  0  0  0  0  0  0  0  0  0
   13.4125    0.4398   22.9369 C   0  0  0  0  0  0  0  0  0  0  0  0
    5.5283   -0.5303   20.6792 C   0  0  0  0  0  0  0  0  0  0  0  0
    7.4741   -3.9393   25.5924 C   0  0  0  0  0  0  0  0  0  0  0  0
    5.5793   -5.2332   24.8357 C   0  0  0  0  0  0  0  0  0  0  0  0
   11.7440   -1.1195   22.1484 C   0  0  0  0  0  0  0  0  0  0  0  0
    7.6113   -3.3937   24.3160 C   0  0  0  0  0  0  0  0  0  0  0  0
    5.7165   -4.6876   23.5593 C   0  0  0  0  0  0  0  0  0  0  0  0
   11.0656    0.9224   23.2474 C   0  0  0  0  0  0  0  0  0  0  0  0
    5.7688   -0.0481   18.3627 C   0  0  0  0  0  0  0  0  0  0  0  0
    7.4367   -1.2099   19.4333 C   0  0  0  0  0  0  0  0  0  0  0  0
   12.4041    1.2813   23.4067 C   0  0  0  0  0  0  0  0  0  0  0  0
    6.4582   -4.8591   25.8522 C   0  0  0  0  0  0  0  0  0  0  0  0
    6.7616   -1.1714   20.6426 C   0  0  0  0  0  0  0  0  0  0  0  0
    6.7325   -3.7678   23.2995 C   0  0  0  0  0  0  0  0  0  0  0  0
   10.7356   -0.2780   22.6182 C   0  0  0  0  0  0  0  0  0  0  0  0
    5.8420   -6.1649   20.0710 C   0  0  0  0  0  0  0  0  0  0  0  0
    6.6541   -5.4050   20.8127 C   0  0  0  0  0  0  0  0  0  0  0  0
   12.7497    2.5324   24.0624 C   0  0  0  0  0  0  0  0  0  0  0  0
    6.4982   -3.9208   20.8197 C   0  0  0  0  0  0  0  0  0  0  0  0
    8.8728   -1.7933   21.8568 C   0  0  0  0  0  0  0  0  0  0  0  0
    6.0548   -4.3319   28.2822 C   0  0  0  0  0  0  0  0  0  0  0  0
    7.5985   -6.2147   27.6435 C   0  0  0  0  0  0  0  0  0  0  0  0
    5.1379   -6.4631   27.3884 C   0  0  0  0  0  0  0  0  0  0  0  0
   12.0138    4.7658   24.4665 C   0  0  0  0  0  0  0  0  0  0  0  0
    7.3465   -1.8073   21.8844 C   0  0  0  0  0  0  0  0  0  0  0  0
    6.3071   -5.4606   27.2592 C   0  0  0  0  0  0  0  0  0  0  0  0
    6.9705   -0.6627   18.2883 N   0  0  0  0  0  0  0  0  0  0  0  0
    9.3778   -0.6421   22.4562 N   0  0  0  0  0  0  0  0  0  0  0  0
    6.8692   -3.2220   22.0229 N   0  0  0  0  0  0  0  0  0  0  0  0
   13.7854    2.7184   24.7150 O   0  0  0  0  0  0  0  0  0  0  0  0
    6.0399   -3.3669   19.8200 O   0  0  0  0  0  0  0  0  0  0  0  0
    9.5167   -2.7055   21.3454 O   0  0  0  0  0  0  0  0  0  0  0  0
   11.7867    3.4849   23.8685 O   0  0  0  0  0  0  0  0  0  0  0  0
  1  3  2  0
  1  7  1  0
  2  4  2  0
  2 11  1  0
  3 13  1  0
  4 15  1  0
  5  8  2  0
  5 14  1  0
  6  9  1  0
  6 14  2  0
  7 17  2  0
  8 16  1  0
  9 16  2  0
 10 13  2  0
 10 17  1  0
 11 29  2  0
 12 15  2  0
 12 29  1  0
 13 20  1  0
 14 28  1  0
 15 27  1  0
 16 31  1  0
 17 30  1  0
 18 19  2  0
 19 21  1  0
 20 32  2  0
 20 35  1  0
 21 31  1  0
 21 33  2  0
 22 27  1  0
 22 30  1  0
 22 34  2  0
 23 28  1  0
 24 28  1  0
 25 28  1  0
 26 35  1  0
 27 31  1  0
M  END
