LON-WEI-8f408cad-3
     RDKit          3D

 18 19  0  0  0  0  0  0  0  0999 V2000
   14.0308   -1.2451   24.4388 C   0  0  0  0  0  0  0  0  0  0  0  0
   12.7170   -0.8535   24.0505 C   0  0  0  0  0  0  0  0  0  0  0  0
   14.0233   -2.3821   25.2164 C   0  0  0  0  0  0  0  0  0  0  0  0
   11.7553   -1.7064   24.5461 C   0  0  0  0  0  0  0  0  0  0  0  0
    6.2109   -4.1944   21.4913 C   0  0  0  0  0  0  0  0  0  0  0  0
    7.6141   -2.2238   22.0114 C   0  0  0  0  0  0  0  0  0  0  0  0
    7.9382   -4.2712   23.3571 C   0  0  0  0  0  0  0  0  0  0  0  0
    9.1231   -2.0903   21.8478 C   0  0  0  0  0  0  0  0  0  0  0  0
    9.4485   -4.1348   23.1967 C   0  0  0  0  0  0  0  0  0  0  0  0
    5.8808   -5.6352   21.7894 C   0  0  0  0  0  0  0  0  0  0  0  0
    7.2332   -3.6192   22.2452 N   0  0  0  0  0  0  0  0  0  0  0  0
    9.8259   -2.7048   23.0099 N   0  0  0  0  0  0  0  0  0  0  0  0
    5.5803   -3.6006   20.6128 O   0  0  0  0  0  0  0  0  0  0  0  0
    9.4855   -2.4889   25.5507 O   0  0  0  0  0  0  0  0  0  0  0  0
    9.5355   -0.4090   24.1297 O   0  0  0  0  0  0  0  0  0  0  0  0
   12.4370   -2.9728   25.4755 S   0  0  0  0  0  0  0  0  0  0  0  0
    9.9955   -1.7508   24.4154 S   0  0  0  0  0  0  0  0  0  0  0  0
    4.6686   -5.6208   23.0654 Cl  0  0  0  0  0  0  0  0  0  0  0  0
  1  2  1  0
  1  3  2  0
  2  4  2  0
  3 16  1  0
  4 16  1  0
  4 17  1  0
  5 10  1  0
  5 11  1  0
  5 13  2  0
  6  8  1  0
  6 11  1  0
  7  9  1  0
  7 11  1  0
  8 12  1  0
  9 12  1  0
 10 18  1  0
 12 17  1  0
 14 17  2  0
 15 17  2  0
M  END
