LON-WEI-adc59df6-65
     RDKit          3D

 29 30  0  0  1  0  0  0  0  0999 V2000
   13.2877   -1.1180   22.1167 C   0  0  0  0  0  0  0  0  0  0  0  0
    4.5413   -4.4396   22.6478 C   0  0  0  0  0  0  0  0  0  0  0  0
    5.6397   -3.7216   22.1881 C   0  0  0  0  0  0  0  0  0  0  0  0
   10.9798   -1.7973   22.5395 C   0  0  0  0  0  0  0  0  0  0  0  0
    4.0393   -4.1257   23.9005 C   0  0  0  0  0  0  0  0  0  0  0  0
    5.6186   -2.4883   24.2215 C   0  0  0  0  0  0  0  0  0  0  0  0
    9.6636   -0.5401   24.0704 C   0  0  0  0  0  0  0  0  0  0  0  0
   12.0376   -0.9282   22.7823 C   0  0  0  0  0  0  0  0  0  0  0  0
    6.1947   -2.7257   22.9840 C   0  0  0  0  0  0  0  0  0  0  0  0
    9.7668   -1.6065   23.1918 C   0  0  0  0  0  0  0  0  0  0  0  0
   11.8327    0.1079   23.6792 C   0  0  0  0  0  0  0  0  0  0  0  0
   10.4418   -5.3721   24.2734 C   0  0  0  0  0  0  0  0  0  0  0  0
    9.7823   -4.2097   24.3012 C   0  0  0  0  0  0  0  0  0  0  0  0
    8.7695   -3.8933   23.2518 C   0  0  0  0  0  0  0  0  0  0  0  0
    7.4307   -1.8172   20.9933 C   0  0  0  0  0  0  0  0  0  0  0  0
    5.8044    0.9151   18.9810 C   0  0  0  0  0  0  0  0  0  0  0  0
    7.9949   -0.2089   18.5051 C   0  0  0  0  0  0  0  0  0  0  0  0
    5.8631   -1.5273   18.4281 C   0  0  0  0  0  0  0  0  0  0  0  0
   12.5587    2.0268   24.8820 C   0  0  0  0  0  0  0  0  0  0  0  0
    7.3879   -1.9273   22.5127 C   0  0  0  0  0  0  0  0  0  0  0  0
    6.6059   -0.3834   19.1281 C   0  0  0  0  0  0  0  0  0  0  0  0
   14.3031   -1.2721   21.5762 N   0  0  0  0  0  0  0  0  0  0  0  0
    4.5515   -3.1651   24.7021 N   0  0  0  0  0  0  0  0  0  0  0  0
   10.6689    0.3251   24.3319 N   0  0  0  0  0  0  0  0  0  0  0  0
    6.7540   -0.6988   20.5372 N   0  0  0  0  0  0  0  0  0  0  0  0
    8.6321   -2.5057   22.9577 N   0  0  0  0  0  0  0  0  0  0  0  0
    8.1439   -4.8178   22.7320 O   0  0  0  0  0  0  0  0  0  0  0  0
    7.9743   -2.6574   20.2791 O   0  0  0  0  0  0  0  0  0  0  0  0
   12.8462    0.9908   23.9511 O   0  0  0  0  0  0  0  0  0  0  0  0
  1  8  1  0
  1 22  3  0
  2  3  2  0
  2  5  1  0
  3  9  1  0
  4  8  2  0
  4 10  1  0
  5 23  2  0
  6  9  2  0
  6 23  1  0
  7 10  2  0
  7 24  1  0
  8 11  1  0
  9 20  1  0
 10 26  1  0
 11 24  2  0
 11 29  1  0
 12 13  2  0
 13 14  1  0
 14 26  1  0
 14 27  2  0
 15 20  1  0
 15 25  1  0
 15 28  2  0
 16 21  1  0
 17 21  1  0
 18 21  1  0
 19 29  1  0
 20 26  1  0
 21 25  1  0
M  END
