LON-WEI-adc59df6-29
     RDKit          3D

 30 31  0  0  1  0  0  0  0  0999 V2000
   10.9449   -0.0530   24.2494 C   0  0  0  0  0  0  0  0  0  0  0  0
    9.6956   -0.0563   23.6390 C   0  0  0  0  0  0  0  0  0  0  0  0
    8.3001   -4.5870   24.3250 C   0  0  0  0  0  0  0  0  0  0  0  0
    7.6834   -2.5996   25.5527 C   0  0  0  0  0  0  0  0  0  0  0  0
    8.0884   -3.9106   23.1237 C   0  0  0  0  0  0  0  0  0  0  0  0
    7.4717   -1.9232   24.3514 C   0  0  0  0  0  0  0  0  0  0  0  0
   12.0076   -0.6075   23.5546 C   0  0  0  0  0  0  0  0  0  0  0  0
   10.6746   -1.1359   21.7596 C   0  0  0  0  0  0  0  0  0  0  0  0
    8.0976   -3.9315   25.5396 C   0  0  0  0  0  0  0  0  0  0  0  0
    9.5493   -0.6063   22.3704 C   0  0  0  0  0  0  0  0  0  0  0  0
    7.6742   -2.5787   23.1368 C   0  0  0  0  0  0  0  0  0  0  0  0
    5.9880   -2.0144   18.5681 C   0  0  0  0  0  0  0  0  0  0  0  0
    6.3468   -1.4688   19.7345 C   0  0  0  0  0  0  0  0  0  0  0  0
    6.5012   -2.3220   20.9491 C   0  0  0  0  0  0  0  0  0  0  0  0
    7.3241    0.5360   22.1265 C   0  0  0  0  0  0  0  0  0  0  0  0
    9.7979   -5.1532   26.9404 C   0  0  0  0  0  0  0  0  0  0  0  0
    7.3949   -5.9027   26.9422 C   0  0  0  0  0  0  0  0  0  0  0  0
    8.0639   -3.8183   28.1206 C   0  0  0  0  0  0  0  0  0  0  0  0
    4.8032    4.6041   22.6638 C   0  0  0  0  0  0  0  0  0  0  0  0
    6.7152    5.8974   21.7300 C   0  0  0  0  0  0  0  0  0  0  0  0
    7.2892    3.0276   22.2036 C   0  0  0  0  0  0  0  0  0  0  0  0
    6.3898    3.5149   21.0833 C   0  0  0  0  0  0  0  0  0  0  0  0
    8.2053   -0.6246   21.6801 C   0  0  0  0  0  0  0  0  0  0  0  0
    8.3310   -4.6773   26.8638 C   0  0  0  0  0  0  0  0  0  0  0  0
   11.9044   -1.1508   22.3210 N   0  0  0  0  0  0  0  0  0  0  0  0
    7.8986    1.7674   21.8440 N   0  0  0  0  0  0  0  0  0  0  0  0
    7.4626   -1.9018   21.9354 N   0  0  0  0  0  0  0  0  0  0  0  0
    5.7295    4.7812   21.4858 N   0  0  0  0  0  0  0  0  0  0  0  0
    5.8289   -3.3494   21.0428 O   0  0  0  0  0  0  0  0  0  0  0  0
    6.2510    0.3742   22.7042 O   0  0  0  0  0  0  0  0  0  0  0  0
  1  2  2  0
  1  7  1  0
  2 10  1  0
  3  5  2  0
  3  9  1  0
  4  6  1  0
  4  9  2  0
  5 11  1  0
  6 11  2  0
  7 25  2  0
  8 10  2  0
  8 25  1  0
  9 24  1  0
 10 23  1  0
 11 27  1  0
 12 13  2  0
 13 14  1  0
 14 27  1  0
 14 29  2  0
 15 23  1  0
 15 26  1  0
 15 30  2  0
 16 24  1  0
 17 24  1  0
 18 24  1  0
 19 28  1  0
 20 28  1  0
 21 22  1  0
 21 26  1  0
 22 28  1  0
 23 27  1  0
M  CHG  1  28   1
M  END
