LON-WEI-adc59df6-82
     RDKit          3D

 30 31  0  0  1  0  0  0  0  0999 V2000
   13.3912   -2.8959   25.3133 C   0  0  0  0  0  0  0  0  0  0  0  0
    3.6329   -5.4749   23.3559 C   0  0  0  0  0  0  0  0  0  0  0  0
    4.7259   -4.8928   22.7235 C   0  0  0  0  0  0  0  0  0  0  0  0
   11.1615   -2.8056   23.2518 C   0  0  0  0  0  0  0  0  0  0  0  0
    9.8656   -2.4778   25.2643 C   0  0  0  0  0  0  0  0  0  0  0  0
   10.0287   -3.2956   22.6021 C   0  0  0  0  0  0  0  0  0  0  0  0
    8.7327   -2.9677   24.6146 C   0  0  0  0  0  0  0  0  0  0  0  0
    3.1176   -4.8408   24.4749 C   0  0  0  0  0  0  0  0  0  0  0  0
    4.6743   -3.1559   24.3473 C   0  0  0  0  0  0  0  0  0  0  0  0
   11.0800   -2.3968   24.5830 C   0  0  0  0  0  0  0  0  0  0  0  0
    5.2626   -3.7112   23.2224 C   0  0  0  0  0  0  0  0  0  0  0  0
    8.8142   -3.3766   23.2834 C   0  0  0  0  0  0  0  0  0  0  0  0
    9.1386   -7.1591   22.1032 C   0  0  0  0  0  0  0  0  0  0  0  0
    8.5733   -6.1495   22.7726 C   0  0  0  0  0  0  0  0  0  0  0  0
    7.6361   -5.2177   22.0793 C   0  0  0  0  0  0  0  0  0  0  0  0
    6.1633   -2.7097   21.1007 C   0  0  0  0  0  0  0  0  0  0  0  0
   12.0814   -1.4384   26.7654 C   0  0  0  0  0  0  0  0  0  0  0  0
   12.8515   -0.6128   24.5487 C   0  0  0  0  0  0  0  0  0  0  0  0
    7.6794    0.1803   19.2275 C   0  0  0  0  0  0  0  0  0  0  0  0
    7.1515   -2.0963   18.3181 C   0  0  0  0  0  0  0  0  0  0  0  0
    5.3024   -0.6021   19.1161 C   0  0  0  0  0  0  0  0  0  0  0  0
    6.4496   -3.0536   22.5576 C   0  0  0  0  0  0  0  0  0  0  0  0
   12.2914   -1.8730   25.2775 C   0  0  0  0  0  0  0  0  0  0  0  0
    6.7541   -1.0358   19.3502 C   0  0  0  0  0  0  0  0  0  0  0  0
   14.2229   -3.7055   25.3266 N   0  0  0  0  0  0  0  0  0  0  0  0
    3.6119   -3.6922   24.9888 N   0  0  0  0  0  0  0  0  0  0  0  0
    6.8775   -1.6001   20.6820 N   0  0  0  0  0  0  0  0  0  0  0  0
    7.6229   -3.8914   22.6005 N   0  0  0  0  0  0  0  0  0  0  0  0
    6.9623   -5.6427   21.1404 O   0  0  0  0  0  0  0  0  0  0  0  0
    5.3587   -3.3359   20.4137 O   0  0  0  0  0  0  0  0  0  0  0  0
  1 23  1  0
  1 25  3  0
  2  3  2  0
  2  8  1  0
  3 11  1  0
  4  6  2  0
  4 10  1  0
  5  7  1  0
  5 10  2  0
  6 12  1  0
  7 12  2  0
  8 26  2  0
  9 11  2  0
  9 26  1  0
 10 23  1  0
 11 22  1  0
 12 28  1  0
 13 14  2  0
 14 15  1  0
 15 28  1  0
 15 29  2  0
 16 22  1  0
 16 27  1  0
 16 30  2  0
 17 23  1  0
 18 23  1  0
 19 24  1  0
 20 24  1  0
 21 24  1  0
 22 28  1  0
 24 27  1  0
M  END
