LON-WEI-adc59df6-74
     RDKit          3D

 27 28  0  0  1  0  0  0  0  0999 V2000
   13.3502    1.7518   23.7325 C   0  0  0  0  0  0  0  0  0  0  0  0
   12.7014    0.8423   23.2922 C   0  0  0  0  0  0  0  0  0  0  0  0
    4.9972    0.2347   19.2631 C   0  0  0  0  0  0  0  0  0  0  0  0
    5.6584   -0.6401   20.1179 C   0  0  0  0  0  0  0  0  0  0  0  0
   10.5501   -0.1359   22.6373 C   0  0  0  0  0  0  0  0  0  0  0  0
    5.7351    0.8445   18.2614 C   0  0  0  0  0  0  0  0  0  0  0  0
   12.5338   -1.4220   22.3776 C   0  0  0  0  0  0  0  0  0  0  0  0
    7.6656   -0.2157   18.9149 C   0  0  0  0  0  0  0  0  0  0  0  0
   10.5231   -2.3467   21.7610 C   0  0  0  0  0  0  0  0  0  0  0  0
   11.9305   -0.2379   22.7696 C   0  0  0  0  0  0  0  0  0  0  0  0
    7.0182   -0.8751   19.9473 C   0  0  0  0  0  0  0  0  0  0  0  0
    9.8255   -1.2060   22.1243 C   0  0  0  0  0  0  0  0  0  0  0  0
    7.9732    0.8271   25.0114 C   0  0  0  0  0  0  0  0  0  0  0  0
    8.1556   -0.2637   24.2605 C   0  0  0  0  0  0  0  0  0  0  0  0
    7.6151   -0.3200   22.8706 C   0  0  0  0  0  0  0  0  0  0  0  0
    6.8551   -2.9107   21.4120 C   0  0  0  0  0  0  0  0  0  0  0  0
    7.2943   -4.6049   24.7431 C   0  0  0  0  0  0  0  0  0  0  0  0
    5.1291   -3.9950   23.6348 C   0  0  0  0  0  0  0  0  0  0  0  0
    6.6477   -5.6885   22.5792 C   0  0  0  0  0  0  0  0  0  0  0  0
    7.7653   -1.8205   20.8591 C   0  0  0  0  0  0  0  0  0  0  0  0
    6.5895   -4.3938   23.3982 C   0  0  0  0  0  0  0  0  0  0  0  0
    7.0570    0.6412   18.0646 N   0  0  0  0  0  0  0  0  0  0  0  0
   11.8633   -2.4829   21.8749 N   0  0  0  0  0  0  0  0  0  0  0  0
    7.2586   -3.3331   22.6671 N   0  0  0  0  0  0  0  0  0  0  0  0
    8.3689   -1.1300   21.9724 N   0  0  0  0  0  0  0  0  0  0  0  0
    6.5941    0.3145   22.6041 O   0  0  0  0  0  0  0  0  0  0  0  0
    5.9059   -3.3705   20.7801 O   0  0  0  0  0  0  0  0  0  0  0  0
  1  2  3  0
  2 10  1  0
  3  4  2  0
  3  6  1  0
  4 11  1  0
  5 10  2  0
  5 12  1  0
  6 22  2  0
  7 10  1  0
  7 23  2  0
  8 11  2  0
  8 22  1  0
  9 12  2  0
  9 23  1  0
 11 20  1  0
 12 25  1  0
 13 14  2  0
 14 15  1  0
 15 25  1  0
 15 26  2  0
 16 20  1  0
 16 24  1  0
 16 27  2  0
 17 21  1  0
 18 21  1  0
 19 21  1  0
 20 25  1  0
 21 24  1  0
M  END
