LON-WEI-adc59df6-33
     RDKit          3D

 33 35  0  0  1  0  0  0  0  0999 V2000
    4.0305   -5.7461   21.9587 C   0  0  0  0  0  0  0  0  0  0  0  0
    5.1784   -5.0061   21.6981 C   0  0  0  0  0  0  0  0  0  0  0  0
   11.1038   -3.0550   24.8535 C   0  0  0  0  0  0  0  0  0  0  0  0
   10.6273   -1.3428   23.2169 C   0  0  0  0  0  0  0  0  0  0  0  0
   10.0104   -3.7928   24.4000 C   0  0  0  0  0  0  0  0  0  0  0  0
    9.5338   -2.0806   22.7634 C   0  0  0  0  0  0  0  0  0  0  0  0
    6.4345   -1.9536   18.1676 C   0  0  0  0  0  0  0  0  0  0  0  0
    6.3828   -1.3453   16.9135 C   0  0  0  0  0  0  0  0  0  0  0  0
    6.3065    0.8262   17.9699 C   0  0  0  0  0  0  0  0  0  0  0  0
    3.4169   -5.5793   23.1897 C   0  0  0  0  0  0  0  0  0  0  0  0
    4.9837   -4.0394   23.8623 C   0  0  0  0  0  0  0  0  0  0  0  0
   11.4123   -1.8300   24.2620 C   0  0  0  0  0  0  0  0  0  0  0  0
    5.6708   -4.1342   22.6628 C   0  0  0  0  0  0  0  0  0  0  0  0
    9.2254   -3.3056   23.3550 C   0  0  0  0  0  0  0  0  0  0  0  0
    6.4221   -1.1720   19.3229 C   0  0  0  0  0  0  0  0  0  0  0  0
    6.3582    0.2179   19.2241 C   0  0  0  0  0  0  0  0  0  0  0  0
    6.3188    0.0446   16.8146 C   0  0  0  0  0  0  0  0  0  0  0  0
    9.5215   -7.4133   23.3888 C   0  0  0  0  0  0  0  0  0  0  0  0
    9.3536   -6.2279   22.7942 C   0  0  0  0  0  0  0  0  0  0  0  0
    8.0711   -5.4812   22.9522 C   0  0  0  0  0  0  0  0  0  0  0  0
    7.0884   -2.9973   20.9262 C   0  0  0  0  0  0  0  0  0  0  0  0
   13.9096   -1.8452   24.5923 C   0  0  0  0  0  0  0  0  0  0  0  0
   12.4284   -0.6715   26.2550 C   0  0  0  0  0  0  0  0  0  0  0  0
   12.8283    0.3163   24.0087 C   0  0  0  0  0  0  0  0  0  0  0  0
    6.9169   -3.3148   22.4095 C   0  0  0  0  0  0  0  0  0  0  0  0
   12.6177   -1.0168   24.7620 C   0  0  0  0  0  0  0  0  0  0  0  0
    3.8655   -4.7420   24.1517 N   0  0  0  0  0  0  0  0  0  0  0  0
    6.4751   -1.7919   20.5939 N   0  0  0  0  0  0  0  0  0  0  0  0
    8.1318   -4.0434   22.9010 N   0  0  0  0  0  0  0  0  0  0  0  0
    7.0338   -6.1162   23.1441 O   0  0  0  0  0  0  0  0  0  0  0  0
    7.6910   -3.7547   20.1702 O   0  0  0  0  0  0  0  0  0  0  0  0
    6.3457    0.9799   20.3270 F   0  0  0  0  0  0  0  0  0  0  0  0
    6.2551    0.7951   15.2671 Cl  0  0  0  0  0  0  0  0  0  0  0  0
  1  2  2  0
  1 10  1  0
  2 13  1  0
  3  5  2  0
  3 12  1  0
  4  6  1  0
  4 12  2  0
  5 14  1  0
  6 14  2  0
  7  8  2  0
  7 15  1  0
  8 17  1  0
  9 16  1  0
  9 17  2  0
 10 27  2  0
 11 13  2  0
 11 27  1  0
 12 26  1  0
 13 25  1  0
 14 29  1  0
 15 16  2  0
 15 28  1  0
 16 32  1  0
 17 33  1  0
 18 19  2  0
 19 20  1  0
 20 29  1  0
 20 30  2  0
 21 25  1  0
 21 28  1  0
 21 31  2  0
 22 26  1  0
 23 26  1  0
 24 26  1  0
 25 29  1  0
M  END
