LON-WEI-adc59df6-52
     RDKit          3D

 33 35  0  0  1  0  0  0  0  0999 V2000
   12.2817    1.6594   23.5633 C   0  0  0  0  0  0  0  0  0  0  0  0
   10.9359    1.9287   23.8007 C   0  0  0  0  0  0  0  0  0  0  0  0
   12.6704    0.4059   23.0912 C   0  0  0  0  0  0  0  0  0  0  0  0
    9.9726    0.9457   23.5671 C   0  0  0  0  0  0  0  0  0  0  0  0
    7.7015   -4.6036   25.5983 C   0  0  0  0  0  0  0  0  0  0  0  0
    5.5252   -5.0477   24.6477 C   0  0  0  0  0  0  0  0  0  0  0  0
    7.9180   -3.6134   24.6400 C   0  0  0  0  0  0  0  0  0  0  0  0
    5.7417   -4.0574   23.6894 C   0  0  0  0  0  0  0  0  0  0  0  0
   12.0427   -1.8618   22.3804 C   0  0  0  0  0  0  0  0  0  0  0  0
    9.8527   -2.5536   22.3788 C   0  0  0  0  0  0  0  0  0  0  0  0
   11.7096   -0.5907   22.8525 C   0  0  0  0  0  0  0  0  0  0  0  0
   10.3461   -0.3219   23.0917 C   0  0  0  0  0  0  0  0  0  0  0  0
    6.5051   -5.3208   25.6021 C   0  0  0  0  0  0  0  0  0  0  0  0
    9.4043   -1.3282   22.8477 C   0  0  0  0  0  0  0  0  0  0  0  0
    6.9382   -3.3403   23.6856 C   0  0  0  0  0  0  0  0  0  0  0  0
    5.8826   -0.9257   19.5694 C   0  0  0  0  0  0  0  0  0  0  0  0
    6.7944   -1.2549   20.4899 C   0  0  0  0  0  0  0  0  0  0  0  0
    6.5621   -2.4160   21.3983 C   0  0  0  0  0  0  0  0  0  0  0  0
    7.6058   -0.8335   24.5318 C   0  0  0  0  0  0  0  0  0  0  0  0
    6.3301   -5.7913   28.0706 C   0  0  0  0  0  0  0  0  0  0  0  0
    7.3530   -7.5025   26.5338 C   0  0  0  0  0  0  0  0  0  0  0  0
    4.8968   -7.1170   26.5310 C   0  0  0  0  0  0  0  0  0  0  0  0
    4.1410   -0.2276   25.8688 C   0  0  0  0  0  0  0  0  0  0  0  0
    6.0253   -1.3991   27.0373 C   0  0  0  0  0  0  0  0  0  0  0  0
    6.2227    1.0335   26.4613 C   0  0  0  0  0  0  0  0  0  0  0  0
    7.9401   -1.1404   23.0697 C   0  0  0  0  0  0  0  0  0  0  0  0
    6.2737   -6.3796   26.6266 C   0  0  0  0  0  0  0  0  0  0  0  0
    5.6647   -0.3212   26.0098 C   0  0  0  0  0  0  0  0  0  0  0  0
   11.1485   -2.8468   22.1387 N   0  0  0  0  0  0  0  0  0  0  0  0
    6.2418   -0.6739   24.7327 N   0  0  0  0  0  0  0  0  0  0  0  0
    7.1649   -2.3014   22.6804 N   0  0  0  0  0  0  0  0  0  0  0  0
    5.8908   -3.3643   20.9904 O   0  0  0  0  0  0  0  0  0  0  0  0
    8.4671   -0.6966   25.3984 O   0  0  0  0  0  0  0  0  0  0  0  0
  1  2  2  0
  1  3  1  0
  2  4  1  0
  3 11  2  0
  4 12  2  0
  5  7  2  0
  5 13  1  0
  6  8  1  0
  6 13  2  0
  7 15  1  0
  8 15  2  0
  9 11  1  0
  9 29  2  0
 10 14  2  0
 10 29  1  0
 11 12  1  0
 12 14  1  0
 13 27  1  0
 14 26  1  0
 15 31  1  0
 16 17  2  0
 17 18  1  0
 18 31  1  0
 18 32  2  0
 19 26  1  0
 19 30  1  0
 19 33  2  0
 20 27  1  0
 21 27  1  0
 22 27  1  0
 23 28  1  0
 24 28  1  0
 25 28  1  0
 26 31  1  0
 28 30  1  0
M  END
