LON-WEI-b8d98729-10
     RDKit          3D

 29 30  0  0  1  0  0  0  0  0999 V2000
    4.2001   -5.3376   24.1821 C   0  0  0  0  0  0  0  0  0  0  0  0
    5.1870   -4.7585   23.3922 C   0  0  0  0  0  0  0  0  0  0  0  0
   11.4451   -2.1498   23.1033 C   0  0  0  0  0  0  0  0  0  0  0  0
   10.2885   -1.6734   25.1702 C   0  0  0  0  0  0  0  0  0  0  0  0
   10.3101   -2.7990   22.6177 C   0  0  0  0  0  0  0  0  0  0  0  0
    9.1534   -2.3225   24.6846 C   0  0  0  0  0  0  0  0  0  0  0  0
    3.7229   -4.6104   25.2606 C   0  0  0  0  0  0  0  0  0  0  0  0
    5.1169   -2.8432   24.8004 C   0  0  0  0  0  0  0  0  0  0  0  0
   11.4344   -1.5871   24.3796 C   0  0  0  0  0  0  0  0  0  0  0  0
    5.6597   -3.4877   23.7005 C   0  0  0  0  0  0  0  0  0  0  0  0
    9.1642   -2.8853   23.4083 C   0  0  0  0  0  0  0  0  0  0  0  0
    9.7127   -6.7499   22.6535 C   0  0  0  0  0  0  0  0  0  0  0  0
    9.1186   -5.7102   23.2478 C   0  0  0  0  0  0  0  0  0  0  0  0
    8.0545   -4.9433   22.5359 C   0  0  0  0  0  0  0  0  0  0  0  0
    6.3029   -2.6915   21.4052 C   0  0  0  0  0  0  0  0  0  0  0  0
   13.1700   -1.4960   26.2039 C   0  0  0  0  0  0  0  0  0  0  0  0
    7.4177    0.0499   19.0811 C   0  0  0  0  0  0  0  0  0  0  0  0
    7.0139   -2.3543   18.4938 C   0  0  0  0  0  0  0  0  0  0  0  0
    5.1139   -0.9147   19.2721 C   0  0  0  0  0  0  0  0  0  0  0  0
   12.3615    1.2295   23.9315 C   0  0  0  0  0  0  0  0  0  0  0  0
    6.7309   -2.8309   22.8613 C   0  0  0  0  0  0  0  0  0  0  0  0
   12.6481   -0.8931   24.8987 C   0  0  0  0  0  0  0  0  0  0  0  0
    6.6108   -1.2071   19.4261 C   0  0  0  0  0  0  0  0  0  0  0  0
    4.1574   -3.3737   25.5913 N   0  0  0  0  0  0  0  0  0  0  0  0
    6.8858   -1.5920   20.7985 N   0  0  0  0  0  0  0  0  0  0  0  0
    7.9705   -3.5675   22.8980 N   0  0  0  0  0  0  0  0  0  0  0  0
    7.3471   -5.5297   21.7162 O   0  0  0  0  0  0  0  0  0  0  0  0
    5.5025   -3.4557   20.8697 O   0  0  0  0  0  0  0  0  0  0  0  0
   12.3340    0.4839   25.1364 O   0  0  0  0  0  0  0  0  0  0  0  0
  1  2  2  0
  1  7  1  0
  2 10  1  0
  3  5  2  0
  3  9  1  0
  4  6  1  0
  4  9  2  0
  5 11  1  0
  6 11  2  0
  7 24  2  0
  8 10  2  0
  8 24  1  0
  9 22  1  0
 10 21  1  0
 11 26  1  0
 12 13  2  0
 13 14  1  0
 14 26  1  0
 14 27  2  0
 15 21  1  0
 15 25  1  0
 15 28  2  0
 16 22  1  0
 17 23  1  0
 18 23  1  0
 19 23  1  0
 20 29  1  0
 21 26  1  0
 22 29  1  0
 23 25  1  0
M  END
