LON-WEI-adc59df6-51
     RDKit          3D

 30 31  0  0  1  0  0  0  0  0999 V2000
   10.3526    0.0263   24.3833 C   0  0  0  0  0  0  0  0  0  0  0  0
   10.8721   -1.5748   22.6501 C   0  0  0  0  0  0  0  0  0  0  0  0
    9.0735   -0.5170   24.5018 C   0  0  0  0  0  0  0  0  0  0  0  0
    9.5929   -2.1182   22.7688 C   0  0  0  0  0  0  0  0  0  0  0  0
    6.7954   -6.1990   21.1878 C   0  0  0  0  0  0  0  0  0  0  0  0
    7.6650   -6.7962   22.0893 C   0  0  0  0  0  0  0  0  0  0  0  0
    7.8935   -4.7856   23.2804 C   0  0  0  0  0  0  0  0  0  0  0  0
   11.2520   -0.5025   23.4574 C   0  0  0  0  0  0  0  0  0  0  0  0
    7.0299   -4.1362   22.4098 C   0  0  0  0  0  0  0  0  0  0  0  0
    8.6936   -1.5893   23.6946 C   0  0  0  0  0  0  0  0  0  0  0  0
    6.4773   -4.8545   21.3538 C   0  0  0  0  0  0  0  0  0  0  0  0
    4.9571   -3.6857   25.8400 C   0  0  0  0  0  0  0  0  0  0  0  0
    5.2909   -2.6461   25.0687 C   0  0  0  0  0  0  0  0  0  0  0  0
    6.6864   -2.1172   25.0803 C   0  0  0  0  0  0  0  0  0  0  0  0
    7.1572   -1.8178   21.4482 C   0  0  0  0  0  0  0  0  0  0  0  0
   13.4049   -0.0246   24.6748 C   0  0  0  0  0  0  0  0  0  0  0  0
   12.5594    1.5869   22.9358 C   0  0  0  0  0  0  0  0  0  0  0  0
   13.5389   -0.5956   22.2587 C   0  0  0  0  0  0  0  0  0  0  0  0
    6.7220    1.9120   21.2062 C   0  0  0  0  0  0  0  0  0  0  0  0
    8.6596    0.5615   20.3632 C   0  0  0  0  0  0  0  0  0  0  0  0
    6.3773    0.2365   19.3763 C   0  0  0  0  0  0  0  0  0  0  0  0
    6.7163   -2.6745   22.6291 C   0  0  0  0  0  0  0  0  0  0  0  0
   12.6196    0.0786   23.3306 C   0  0  0  0  0  0  0  0  0  0  0  0
    7.1563    0.5472   20.6596 C   0  0  0  0  0  0  0  0  0  0  0  0
    8.1828   -6.0812   23.0974 N   0  0  0  0  0  0  0  0  0  0  0  0
    5.5936   -4.2361   20.4429 N   0  0  0  0  0  0  0  0  0  0  0  0
    6.8777   -0.4770   21.6498 N   0  0  0  0  0  0  0  0  0  0  0  0
    7.3489   -2.1610   23.8193 N   0  0  0  0  0  0  0  0  0  0  0  0
    7.1533   -1.6964   26.1390 O   0  0  0  0  0  0  0  0  0  0  0  0
    7.6623   -2.2920   20.4325 O   0  0  0  0  0  0  0  0  0  0  0  0
  1  3  2  0
  1  8  1  0
  2  4  1  0
  2  8  2  0
  3 10  1  0
  4 10  2  0
  5  6  2  0
  5 11  1  0
  6 25  1  0
  7  9  1  0
  7 25  2  0
  8 23  1  0
  9 11  2  0
  9 22  1  0
 10 28  1  0
 11 26  1  0
 12 13  2  0
 13 14  1  0
 14 28  1  0
 14 29  2  0
 15 22  1  0
 15 27  1  0
 15 30  2  0
 16 23  1  0
 17 23  1  0
 18 23  1  0
 19 24  1  0
 20 24  1  0
 21 24  1  0
 22 28  1  0
 24 27  1  0
M  CHG  1  25   1
M  END
