LON-WEI-b8d98729-8
     RDKit          3D

 34 36  0  0  1  0  0  0  0  0999 V2000
    5.4146    0.6709   18.6310 C   0  0  0  0  0  0  0  0  0  0  0  0
    5.7003   -0.0874   19.7609 C   0  0  0  0  0  0  0  0  0  0  0  0
    6.1276   -5.1912   23.7028 C   0  0  0  0  0  0  0  0  0  0  0  0
    5.7307   -3.0620   24.7732 C   0  0  0  0  0  0  0  0  0  0  0  0
    6.4848   -4.5331   22.5260 C   0  0  0  0  0  0  0  0  0  0  0  0
    6.0879   -2.4038   23.5964 C   0  0  0  0  0  0  0  0  0  0  0  0
   11.6584   -0.6847   22.4483 C   0  0  0  0  0  0  0  0  0  0  0  0
   12.9671   -0.4365   22.8621 C   0  0  0  0  0  0  0  0  0  0  0  0
   12.2079    1.4888   24.1087 C   0  0  0  0  0  0  0  0  0  0  0  0
    6.4775    1.2251   17.9361 C   0  0  0  0  0  0  0  0  0  0  0  0
    8.0125    0.3302   19.3926 C   0  0  0  0  0  0  0  0  0  0  0  0
    5.7505   -4.4557   24.8264 C   0  0  0  0  0  0  0  0  0  0  0  0
    7.0215   -0.2658   20.1558 C   0  0  0  0  0  0  0  0  0  0  0  0
   10.8991    1.2406   23.6948 C   0  0  0  0  0  0  0  0  0  0  0  0
    6.4650   -3.1394   22.4728 C   0  0  0  0  0  0  0  0  0  0  0  0
   10.6244    0.1540   22.8646 C   0  0  0  0  0  0  0  0  0  0  0  0
   13.2418    0.6501   23.6924 C   0  0  0  0  0  0  0  0  0  0  0  0
    7.1315   -2.5671   17.6294 C   0  0  0  0  0  0  0  0  0  0  0  0
    7.5450   -2.5895   18.9004 C   0  0  0  0  0  0  0  0  0  0  0  0
    6.6235   -3.0406   19.9842 C   0  0  0  0  0  0  0  0  0  0  0  0
    8.8733   -1.1497   21.6075 C   0  0  0  0  0  0  0  0  0  0  0  0
    9.8118    2.1558   24.1563 C   0  0  0  0  0  0  0  0  0  0  0  0
    3.9565   -4.8128   26.5593 C   0  0  0  0  0  0  0  0  0  0  0  0
   15.5272   -0.0054   23.6343 C   0  0  0  0  0  0  0  0  0  0  0  0
    7.4940   -5.5384   27.0131 C   0  0  0  0  0  0  0  0  0  0  0  0
    7.3651   -1.0856   21.3799 C   0  0  0  0  0  0  0  0  0  0  0  0
    5.3686   -5.1595   26.0846 C   0  0  0  0  0  0  0  0  0  0  0  0
    7.7737    1.0738   18.2890 N   0  0  0  0  0  0  0  0  0  0  0  0
    9.3037   -0.1133   22.4322 N   0  0  0  0  0  0  0  0  0  0  0  0
    6.8372   -2.4537   21.2475 N   0  0  0  0  0  0  0  0  0  0  0  0
    5.7639   -3.8820   19.7211 O   0  0  0  0  0  0  0  0  0  0  0  0
    9.5667   -2.0222   21.0914 O   0  0  0  0  0  0  0  0  0  0  0  0
   14.5189    0.8919   24.0967 O   0  0  0  0  0  0  0  0  0  0  0  0
    6.2897   -4.7991   27.1204 O   0  0  0  0  0  0  0  0  0  0  0  0
  1  2  2  0
  1 10  1  0
  2 13  1  0
  3  5  2  0
  3 12  1  0
  4  6  1  0
  4 12  2  0
  5 15  1  0
  6 15  2  0
  7  8  2  0
  7 16  1  0
  8 17  1  0
  9 14  1  0
  9 17  2  0
 10 28  2  0
 11 13  2  0
 11 28  1  0
 12 27  1  0
 13 26  1  0
 14 16  2  0
 14 22  1  0
 15 30  1  0
 16 29  1  0
 17 33  1  0
 18 19  2  0
 19 20  1  0
 20 30  1  0
 20 31  2  0
 21 26  1  0
 21 29  1  0
 21 32  2  0
 23 27  1  0
 24 33  1  0
 25 34  1  0
 26 30  1  0
 27 34  1  0
M  END
