LON-WEI-b8d98729-42
     RDKit          3D

 34 36  0  0  1  0  0  0  0  0999 V2000
    6.2373   -0.1156   18.1028 C   0  0  0  0  0  0  0  0  0  0  0  0
    5.6881   -5.9822   22.6722 C   0  0  0  0  0  0  0  0  0  0  0  0
    5.4504   -1.1810   18.5399 C   0  0  0  0  0  0  0  0  0  0  0  0
    7.3294    0.3028   18.8630 C   0  0  0  0  0  0  0  0  0  0  0  0
    6.7233   -5.0679   22.5125 C   0  0  0  0  0  0  0  0  0  0  0  0
   10.6745   -1.7349   23.9508 C   0  0  0  0  0  0  0  0  0  0  0  0
   11.6580   -0.9079   24.4932 C   0  0  0  0  0  0  0  0  0  0  0  0
   11.4800   -3.5742   25.2943 C   0  0  0  0  0  0  0  0  0  0  0  0
    5.1130   -6.0981   23.9275 C   0  0  0  0  0  0  0  0  0  0  0  0
    6.5055   -4.4987   24.8114 C   0  0  0  0  0  0  0  0  0  0  0  0
    7.1460   -4.3081   23.5976 C   0  0  0  0  0  0  0  0  0  0  0  0
    5.7554   -1.8281   19.7374 C   0  0  0  0  0  0  0  0  0  0  0  0
    7.6345   -0.3442   20.0605 C   0  0  0  0  0  0  0  0  0  0  0  0
   12.4637   -2.7472   25.8367 C   0  0  0  0  0  0  0  0  0  0  0  0
   10.5854   -3.0680   24.3514 C   0  0  0  0  0  0  0  0  0  0  0  0
   12.5527   -1.4140   25.4361 C   0  0  0  0  0  0  0  0  0  0  0  0
    6.8475   -1.4097   20.4977 C   0  0  0  0  0  0  0  0  0  0  0  0
   11.6248   -6.9171   23.7414 C   0  0  0  0  0  0  0  0  0  0  0  0
   11.1686   -5.7288   23.3330 C   0  0  0  0  0  0  0  0  0  0  0  0
    9.7674   -5.3151   23.6376 C   0  0  0  0  0  0  0  0  0  0  0  0
    8.3350   -2.7311   22.0428 C   0  0  0  0  0  0  0  0  0  0  0  0
    4.8936   -2.9663   20.1794 C   0  0  0  0  0  0  0  0  0  0  0  0
   13.4096   -3.3155   26.8441 C   0  0  0  0  0  0  0  0  0  0  0  0
    8.3977    0.9647   22.0582 C   0  0  0  0  0  0  0  0  0  0  0  0
   13.2723    0.2073   27.1721 C   0  0  0  0  0  0  0  0  0  0  0  0
   14.8416   -0.4587   25.3439 C   0  0  0  0  0  0  0  0  0  0  0  0
    8.8110    0.1272   20.8522 C   0  0  0  0  0  0  0  0  0  0  0  0
    8.2691   -3.3046   23.4561 C   0  0  0  0  0  0  0  0  0  0  0  0
    5.4964   -5.3773   25.0050 N   0  0  0  0  0  0  0  0  0  0  0  0
    7.1569   -2.0657   21.7128 N   0  0  0  0  0  0  0  0  0  0  0  0
    9.5612   -3.9289   23.7856 N   0  0  0  0  0  0  0  0  0  0  0  0
   13.5417   -0.5621   25.9748 N   0  0  0  0  0  0  0  0  0  0  0  0
    8.9024   -6.1842   23.7493 O   0  0  0  0  0  0  0  0  0  0  0  0
    9.3249   -2.8812   21.3316 O   0  0  0  0  0  0  0  0  0  0  0  0
  1  3  2  0
  1  4  1  0
  2  5  2  0
  2  9  1  0
  3 12  1  0
  4 13  2  0
  5 11  1  0
  6  7  2  0
  6 15  1  0
  7 16  1  0
  8 14  1  0
  8 15  2  0
  9 29  2  0
 10 11  2  0
 10 29  1  0
 11 28  1  0
 12 17  2  0
 12 22  1  0
 13 17  1  0
 13 27  1  0
 14 16  2  0
 14 23  1  0
 15 31  1  0
 16 32  1  0
 17 30  1  0
 18 19  2  0
 19 20  1  0
 20 31  1  0
 20 33  2  0
 21 28  1  0
 21 30  1  0
 21 34  2  0
 24 27  1  0
 25 32  1  0
 26 32  1  0
 28 31  1  0
M  END
