LON-WEI-b8d98729-34
     RDKit          3D

 20 21  0  0  0  0  0  0  0  0999 V2000
    8.1686   -3.7510   22.6068 C   0  0  0  0  0  0  0  0  0  0  0  0
    9.0217   -3.2573   21.6157 C   0  0  0  0  0  0  0  0  0  0  0  0
    9.3842   -2.5504   24.3325 C   0  0  0  0  0  0  0  0  0  0  0  0
   11.8401   -1.0330   22.0904 C   0  0  0  0  0  0  0  0  0  0  0  0
   10.2570   -2.0403   23.3508 C   0  0  0  0  0  0  0  0  0  0  0  0
    8.3452   -3.4043   23.9449 C   0  0  0  0  0  0  0  0  0  0  0  0
   11.3859   -1.1745   23.3814 C   0  0  0  0  0  0  0  0  0  0  0  0
   10.0560   -2.4048   22.0178 C   0  0  0  0  0  0  0  0  0  0  0  0
    5.9663   -5.2303   27.4004 C   0  0  0  0  0  0  0  0  0  0  0  0
    9.6715    1.0325   25.4180 C   0  0  0  0  0  0  0  0  0  0  0  0
   10.5939    3.0327   24.2565 C   0  0  0  0  0  0  0  0  0  0  0  0
   11.9730   -0.5372   24.5774 C   0  0  0  0  0  0  0  0  0  0  0  0
    7.4165   -3.9491   24.9788 C   0  0  0  0  0  0  0  0  0  0  0  0
   12.0008    0.9974   24.5377 C   0  0  0  0  0  0  0  0  0  0  0  0
   11.0314   -1.7786   21.2751 N   0  0  0  0  0  0  0  0  0  0  0  0
    7.1557   -5.8799   26.8210 N   0  0  0  0  0  0  0  0  0  0  0  0
   10.6264    1.5275   24.3596 N   0  0  0  0  0  0  0  0  0  0  0  0
    9.2818   -5.7466   25.3525 O   0  0  0  0  0  0  0  0  0  0  0  0
    8.8841   -4.0082   27.1347 O   0  0  0  0  0  0  0  0  0  0  0  0
    8.3697   -4.9062   26.1122 S   0  0  0  0  0  0  0  0  0  0  0  0
  1  2  2  0
  1  6  1  0
  2  8  1  0
  3  5  1  0
  3  6  2  0
  4  7  2  0
  4 15  1  0
  5  7  1  0
  5  8  2  0
  6 13  1  0
  7 12  1  0
  8 15  1  0
  9 16  1  0
 10 17  1  0
 11 17  1  0
 12 14  1  0
 13 20  1  0
 14 17  1  0
 16 20  1  0
 18 20  2  0
 19 20  2  0
M  CHG  1  17   1
M  END
