LON-WEI-adc59df6-38
     RDKit          3D

 39 42  0  0  1  0  0  0  0  0999 V2000
    9.2921    5.6375   27.7981 C   0  0  0  0  0  0  0  0  0  0  0  0
    9.9752    4.5947   28.4239 C   0  0  0  0  0  0  0  0  0  0  0  0
    8.8605    5.4961   26.4791 C   0  0  0  0  0  0  0  0  0  0  0  0
   13.3388   -0.0029   22.7903 C   0  0  0  0  0  0  0  0  0  0  0  0
    7.4930   -5.7141   26.6600 C   0  0  0  0  0  0  0  0  0  0  0  0
   10.2269    3.4107   27.7308 C   0  0  0  0  0  0  0  0  0  0  0  0
    9.1122    4.3121   25.7861 C   0  0  0  0  0  0  0  0  0  0  0  0
    8.3298   -5.2305   25.6604 C   0  0  0  0  0  0  0  0  0  0  0  0
    6.9489   -0.2943   21.6731 C   0  0  0  0  0  0  0  0  0  0  0  0
    8.2120   -1.0890   19.7731 C   0  0  0  0  0  0  0  0  0  0  0  0
   12.5269   -1.1333   22.6981 C   0  0  0  0  0  0  0  0  0  0  0  0
    7.0849   -1.5405   22.2847 C   0  0  0  0  0  0  0  0  0  0  0  0
    8.3481   -2.3352   20.3847 C   0  0  0  0  0  0  0  0  0  0  0  0
   12.9338    1.0856   23.5628 C   0  0  0  0  0  0  0  0  0  0  0  0
   10.9048   -0.0867   24.1509 C   0  0  0  0  0  0  0  0  0  0  0  0
    6.1478   -5.3885   26.5934 C   0  0  0  0  0  0  0  0  0  0  0  0
    6.4443   -4.1786   24.6631 C   0  0  0  0  0  0  0  0  0  0  0  0
    9.7954    3.2694   26.4119 C   0  0  0  0  0  0  0  0  0  0  0  0
    7.5124   -0.0685   20.4172 C   0  0  0  0  0  0  0  0  0  0  0  0
    7.8034   -4.4473   24.6393 C   0  0  0  0  0  0  0  0  0  0  0  0
    7.7845   -2.5610   21.6405 C   0  0  0  0  0  0  0  0  0  0  0  0
   11.3099   -1.1752   23.3784 C   0  0  0  0  0  0  0  0  0  0  0  0
   11.7168    1.0437   24.2431 C   0  0  0  0  0  0  0  0  0  0  0  0
    6.7347   -5.9406   19.5011 C   0  0  0  0  0  0  0  0  0  0  0  0
    6.6980   -4.9308   20.3762 C   0  0  0  0  0  0  0  0  0  0  0  0
    7.4304   -5.0311   21.6727 C   0  0  0  0  0  0  0  0  0  0  0  0
    9.2512   -2.5332   23.8921 C   0  0  0  0  0  0  0  0  0  0  0  0
    7.9980    2.3937   20.6350 C   0  0  0  0  0  0  0  0  0  0  0  0
    5.8652    1.6245   19.5416 C   0  0  0  0  0  0  0  0  0  0  0  0
    8.0393    1.3987   18.3568 C   0  0  0  0  0  0  0  0  0  0  0  0
   10.0660    1.9960   25.6656 C   0  0  0  0  0  0  0  0  0  0  0  0
    8.6874   -3.9067   23.5370 C   0  0  0  0  0  0  0  0  0  0  0  0
    7.3624    1.3053   19.7431 C   0  0  0  0  0  0  0  0  0  0  0  0
    5.6000   -4.6306   25.6172 N   0  0  0  0  0  0  0  0  0  0  0  0
   10.4866   -2.3224   23.2848 N   0  0  0  0  0  0  0  0  0  0  0  0
    7.9209   -3.8074   22.2521 N   0  0  0  0  0  0  0  0  0  0  0  0
    7.6053   -6.1431   22.1717 O   0  0  0  0  0  0  0  0  0  0  0  0
    8.6496   -1.7615   24.6344 O   0  0  0  0  0  0  0  0  0  0  0  0
   11.3214    2.1060   24.9969 O   0  0  0  0  0  0  0  0  0  0  0  0
  1  2  2  0
  1  3  1  0
  2  6  1  0
  3  7  2  0
  4 11  2  0
  4 14  1  0
  5  8  2  0
  5 16  1  0
  6 18  2  0
  7 18  1  0
  8 20  1  0
  9 12  2  0
  9 19  1  0
 10 13  1  0
 10 19  2  0
 11 22  1  0
 12 21  1  0
 13 21  2  0
 14 23  2  0
 15 22  2  0
 15 23  1  0
 16 34  2  0
 17 20  2  0
 17 34  1  0
 18 31  1  0
 19 33  1  0
 20 32  1  0
 21 36  1  0
 22 35  1  0
 23 39  1  0
 24 25  2  0
 25 26  1  0
 26 36  1  0
 26 37  2  0
 27 32  1  0
 27 35  1  0
 27 38  2  0
 28 33  1  0
 29 33  1  0
 30 33  1  0
 31 39  1  0
 32 36  1  0
M  END
