LON-WEI-adc59df6-83
     RDKit          3D

 30 32  0  0  1  0  0  0  0  0999 V2000
    3.8151   -5.8787   23.2580 C   0  0  0  0  0  0  0  0  0  0  0  0
    9.6498   -2.3214   25.4445 C   0  0  0  0  0  0  0  0  0  0  0  0
   11.0624   -2.5268   23.4952 C   0  0  0  0  0  0  0  0  0  0  0  0
    4.8781   -5.1977   22.6753 C   0  0  0  0  0  0  0  0  0  0  0  0
    8.5981   -2.9126   24.7446 C   0  0  0  0  0  0  0  0  0  0  0  0
   10.0106   -3.1181   22.7953 C   0  0  0  0  0  0  0  0  0  0  0  0
    3.1918   -5.2960   24.3496 C   0  0  0  0  0  0  0  0  0  0  0  0
    4.5906   -3.4745   24.2890 C   0  0  0  0  0  0  0  0  0  0  0  0
   10.8820   -2.1284   24.8197 C   0  0  0  0  0  0  0  0  0  0  0  0
    5.2796   -3.9720   23.1947 C   0  0  0  0  0  0  0  0  0  0  0  0
    8.7784   -3.3110   23.4201 C   0  0  0  0  0  0  0  0  0  0  0  0
    9.5052   -7.0463   22.2691 C   0  0  0  0  0  0  0  0  0  0  0  0
    8.8185   -6.0938   22.9079 C   0  0  0  0  0  0  0  0  0  0  0  0
    7.8328   -5.2519   22.1685 C   0  0  0  0  0  0  0  0  0  0  0  0
    6.1822   -2.8896   21.1139 C   0  0  0  0  0  0  0  0  0  0  0  0
   12.9019   -2.5037   26.2900 C   0  0  0  0  0  0  0  0  0  0  0  0
   13.9890   -2.8053   25.2793 C   0  0  0  0  0  0  0  0  0  0  0  0
   13.0439   -0.7443   24.7211 C   0  0  0  0  0  0  0  0  0  0  0  0
   12.0300   -1.4829   25.5837 C   0  0  0  0  0  0  0  0  0  0  0  0
    7.5111    0.1297   19.3036 C   0  0  0  0  0  0  0  0  0  0  0  0
    7.2386   -2.1851   18.3783 C   0  0  0  0  0  0  0  0  0  0  0  0
    5.2242   -0.8687   19.0842 C   0  0  0  0  0  0  0  0  0  0  0  0
    6.4306   -3.2071   22.5837 C   0  0  0  0  0  0  0  0  0  0  0  0
    6.6972   -1.1667   19.3872 C   0  0  0  0  0  0  0  0  0  0  0  0
    3.5534   -4.1071   24.8820 N   0  0  0  0  0  0  0  0  0  0  0  0
    6.8097   -1.7185   20.7251 N   0  0  0  0  0  0  0  0  0  0  0  0
    7.6729   -3.9330   22.6841 N   0  0  0  0  0  0  0  0  0  0  0  0
    7.2456   -5.7364   21.2007 O   0  0  0  0  0  0  0  0  0  0  0  0
    5.4718   -3.5868   20.3922 O   0  0  0  0  0  0  0  0  0  0  0  0
   14.1126   -1.6577   24.4305 O   0  0  0  0  0  0  0  0  0  0  0  0
  1  4  2  0
  1  7  1  0
  2  5  2  0
  2  9  1  0
  3  6  1  0
  3  9  2  0
  4 10  1  0
  5 11  1  0
  6 11  2  0
  7 25  2  0
  8 10  2  0
  8 25  1  0
  9 19  1  0
 10 23  1  0
 11 27  1  0
 12 13  2  0
 13 14  1  0
 14 27  1  0
 14 28  2  0
 15 23  1  0
 15 26  1  0
 15 29  2  0
 16 17  1  0
 16 19  1  0
 17 30  1  0
 18 19  1  0
 18 30  1  0
 20 24  1  0
 21 24  1  0
 22 24  1  0
 23 27  1  0
 24 26  1  0
M  END
