LON-WEI-adc59df6-92
     RDKit          3D

 28 30  0  0  1  0  0  0  0  0999 V2000
    4.7998   -4.6961   24.2759 C   0  0  0  0  0  0  0  0  0  0  0  0
    6.0969   -4.2000   24.3446 C   0  0  0  0  0  0  0  0  0  0  0  0
    4.0927   -4.5023   23.1002 C   0  0  0  0  0  0  0  0  0  0  0  0
    5.8503   -3.3931   22.1210 C   0  0  0  0  0  0  0  0  0  0  0  0
    6.6396   -3.5347   23.2509 C   0  0  0  0  0  0  0  0  0  0  0  0
    7.3757   -6.8064   21.9228 C   0  0  0  0  0  0  0  0  0  0  0  0
    8.0718   -5.6688   22.0177 C   0  0  0  0  0  0  0  0  0  0  0  0
    8.8728   -5.3829   23.2420 C   0  0  0  0  0  0  0  0  0  0  0  0
    8.4381   -2.3291   21.9751 C   0  0  0  0  0  0  0  0  0  0  0  0
   13.6203   -0.3257   25.1166 C   0  0  0  0  0  0  0  0  0  0  0  0
   14.1161   -1.7206   25.4957 C   0  0  0  0  0  0  0  0  0  0  0  0
    9.9661   -2.9710   25.6318 C   0  0  0  0  0  0  0  0  0  0  0  0
   12.4774   -0.5463   24.1331 C   0  0  0  0  0  0  0  0  0  0  0  0
   13.1431   -2.7120   24.8563 C   0  0  0  0  0  0  0  0  0  0  0  0
   10.9456   -1.7982   25.7650 C   0  0  0  0  0  0  0  0  0  0  0  0
   10.9869   -2.5252   23.4834 C   0  0  0  0  0  0  0  0  0  0  0  0
   10.2331   -3.5979   24.2618 C   0  0  0  0  0  0  0  0  0  0  0  0
   11.8820   -1.8903   24.5472 C   0  0  0  0  0  0  0  0  0  0  0  0
    7.8927    1.2947   21.1206 C   0  0  0  0  0  0  0  0  0  0  0  0
    9.8497   -0.1310   20.4679 C   0  0  0  0  0  0  0  0  0  0  0  0
    7.5575   -0.6734   19.6076 C   0  0  0  0  0  0  0  0  0  0  0  0
    8.0463   -2.9847   23.2939 C   0  0  0  0  0  0  0  0  0  0  0  0
    8.3539   -0.1318   20.8004 C   0  0  0  0  0  0  0  0  0  0  0  0
    4.5863   -3.8613   22.0171 N   0  0  0  0  0  0  0  0  0  0  0  0
    8.1260   -0.9769   21.9503 N   0  0  0  0  0  0  0  0  0  0  0  0
    9.0354   -4.0300   23.5991 N   0  0  0  0  0  0  0  0  0  0  0  0
    9.3774   -6.3133   23.8728 O   0  0  0  0  0  0  0  0  0  0  0  0
    8.9351   -2.9554   21.0411 O   0  0  0  0  0  0  0  0  0  0  0  0
  1  2  2  0
  1  3  1  0
  2  5  1  0
  3 24  2  0
  4  5  2  0
  4 24  1  0
  5 22  1  0
  6  7  2  0
  7  8  1  0
  8 26  1  0
  8 27  2  0
  9 22  1  0
  9 25  1  0
  9 28  2  0
 10 11  1  0
 10 13  1  0
 11 14  1  0
 12 15  1  0
 12 17  1  0
 13 18  1  0
 14 18  1  0
 15 18  1  0
 16 17  1  0
 16 18  1  0
 17 26  1  0
 19 23  1  0
 20 23  1  0
 21 23  1  0
 22 26  1  0
 23 25  1  0
M  END
