LON-WEI-adc59df6-81
     RDKit          3D

 25 26  0  0  1  0  0  0  0  0999 V2000
    5.1994   -4.1304   24.5351 C   0  0  0  0  0  0  0  0  0  0  0  0
    6.1514   -3.1377   24.3314 C   0  0  0  0  0  0  0  0  0  0  0  0
    4.4996   -4.5939   23.4327 C   0  0  0  0  0  0  0  0  0  0  0  0
    5.6194   -3.1759   22.0137 C   0  0  0  0  0  0  0  0  0  0  0  0
   10.8956   -0.9506   24.2411 C   0  0  0  0  0  0  0  0  0  0  0  0
    6.3715   -2.6458   23.0496 C   0  0  0  0  0  0  0  0  0  0  0  0
    9.6283   -0.9059   23.6988 C   0  0  0  0  0  0  0  0  0  0  0  0
   10.6139    1.2244   24.2402 C   0  0  0  0  0  0  0  0  0  0  0  0
    8.2484   -5.5187   22.6721 C   0  0  0  0  0  0  0  0  0  0  0  0
    8.4599   -4.2355   22.3629 C   0  0  0  0  0  0  0  0  0  0  0  0
    9.1137   -3.3222   23.3456 C   0  0  0  0  0  0  0  0  0  0  0  0
    7.4916   -1.2115   21.3164 C   0  0  0  0  0  0  0  0  0  0  0  0
   10.8712    2.6688   24.4299 C   0  0  0  0  0  0  0  0  0  0  0  0
    5.4434    1.4398   19.6032 C   0  0  0  0  0  0  0  0  0  0  0  0
    7.8366    0.8497   19.1420 C   0  0  0  0  0  0  0  0  0  0  0  0
    6.0226   -0.8260   18.7058 C   0  0  0  0  0  0  0  0  0  0  0  0
    7.3993   -1.5677   22.7953 C   0  0  0  0  0  0  0  0  0  0  0  0
    6.4836    0.3138   19.6216 C   0  0  0  0  0  0  0  0  0  0  0  0
    4.6858   -4.1407   22.1728 N   0  0  0  0  0  0  0  0  0  0  0  0
   11.4625    0.2700   24.5518 N   0  0  0  0  0  0  0  0  0  0  0  0
    6.6249   -0.1868   20.9768 N   0  0  0  0  0  0  0  0  0  0  0  0
    8.7121   -1.9583   23.2475 N   0  0  0  0  0  0  0  0  0  0  0  0
    9.9261   -3.7912   24.1432 O   0  0  0  0  0  0  0  0  0  0  0  0
    8.2278   -1.8068   20.5321 O   0  0  0  0  0  0  0  0  0  0  0  0
    9.1150    0.7254   23.5699 S   0  0  0  0  0  0  0  0  0  0  0  0
  1  2  2  0
  1  3  1  0
  2  6  1  0
  3 19  2  0
  4  6  2  0
  4 19  1  0
  5  7  2  0
  5 20  1  0
  6 17  1  0
  7 22  1  0
  7 25  1  0
  8 13  1  0
  8 20  2  0
  8 25  1  0
  9 10  2  0
 10 11  1  0
 11 22  1  0
 11 23  2  0
 12 17  1  0
 12 21  1  0
 12 24  2  0
 14 18  1  0
 15 18  1  0
 16 18  1  0
 17 22  1  0
 18 21  1  0
M  END
