LON-WEI-8f408cad-2
     RDKit          3D

 21 22  0  0  0  0  0  0  0  0999 V2000
   11.6262    2.3089   25.2401 C   0  0  0  0  0  0  0  0  0  0  0  0
   10.4493    1.5828   25.4224 C   0  0  0  0  0  0  0  0  0  0  0  0
   12.5674    1.8872   24.3009 C   0  0  0  0  0  0  0  0  0  0  0  0
   10.2136    0.4350   24.6657 C   0  0  0  0  0  0  0  0  0  0  0  0
   12.3318    0.7395   23.5441 C   0  0  0  0  0  0  0  0  0  0  0  0
   11.1549    0.0133   23.7265 C   0  0  0  0  0  0  0  0  0  0  0  0
    6.3412   -0.9278   19.1370 C   0  0  0  0  0  0  0  0  0  0  0  0
    8.2653    0.3297   20.2271 C   0  0  0  0  0  0  0  0  0  0  0  0
    7.0395   -1.4160   21.4606 C   0  0  0  0  0  0  0  0  0  0  0  0
    9.5900   -0.2887   20.6638 C   0  0  0  0  0  0  0  0  0  0  0  0
    8.3589   -2.0418   21.8986 C   0  0  0  0  0  0  0  0  0  0  0  0
    6.0166    0.2461   18.2482 C   0  0  0  0  0  0  0  0  0  0  0  0
    7.2023   -0.6819   20.2050 N   0  0  0  0  0  0  0  0  0  0  0  0
    9.4085   -0.9812   21.9755 N   0  0  0  0  0  0  0  0  0  0  0  0
    5.8460   -2.0295   18.8866 O   0  0  0  0  0  0  0  0  0  0  0  0
   11.9162   -1.5493   21.7895 O   0  0  0  0  0  0  0  0  0  0  0  0
   10.5682   -2.5241   23.6817 O   0  0  0  0  0  0  0  0  0  0  0  0
    9.0793   -0.2548   24.8505 F   0  0  0  0  0  0  0  0  0  0  0  0
   13.2434    0.3448   22.6443 F   0  0  0  0  0  0  0  0  0  0  0  0
   10.8566   -1.4392   22.7687 S   0  0  0  0  0  0  0  0  0  0  0  0
    5.2231    1.4437   19.2651 Cl  0  0  0  0  0  0  0  0  0  0  0  0
  1  2  2  0
  1  3  1  0
  2  4  1  0
  3  5  2  0
  4  6  2  0
  4 18  1  0
  5  6  1  0
  5 19  1  0
  6 20  1  0
  7 12  1  0
  7 13  1  0
  7 15  2  0
  8 10  1  0
  8 13  1  0
  9 11  1  0
  9 13  1  0
 10 14  1  0
 11 14  1  0
 12 21  1  0
 14 20  1  0
 16 20  2  0
 17 20  2  0
M  END
