LON-WEI-8f408cad-1
     RDKit          3D

 17 18  0  0  0  0  0  0  0  0999 V2000
    8.0012   -5.6697   22.9907 C   0  0  0  0  0  0  0  0  0  0  0  0
    7.4141   -4.6611   22.2268 C   0  0  0  0  0  0  0  0  0  0  0  0
    9.0855   -5.3766   23.8179 C   0  0  0  0  0  0  0  0  0  0  0  0
    8.9955   -3.0663   23.1171 C   0  0  0  0  0  0  0  0  0  0  0  0
    7.9112   -3.3594   22.2899 C   0  0  0  0  0  0  0  0  0  0  0  0
    9.5826   -4.0749   23.8810 C   0  0  0  0  0  0  0  0  0  0  0  0
    6.2159   -2.4676   20.6327 C   0  0  0  0  0  0  0  0  0  0  0  0
   11.2618   -2.5359   24.8683 C   0  0  0  0  0  0  0  0  0  0  0  0
    6.0089   -1.1302   19.9587 C   0  0  0  0  0  0  0  0  0  0  0  0
    6.7077   -0.1577   20.8876 C   0  0  0  0  0  0  0  0  0  0  0  0
    7.8395   -0.9790   21.4689 C   0  0  0  0  0  0  0  0  0  0  0  0
   12.4138   -2.5850   25.8449 C   0  0  0  0  0  0  0  0  0  0  0  0
    7.3100   -2.3284   21.5089 N   0  0  0  0  0  0  0  0  0  0  0  0
   10.6671   -3.7823   24.7086 N   0  0  0  0  0  0  0  0  0  0  0  0
    5.5458   -3.4527   20.3589 O   0  0  0  0  0  0  0  0  0  0  0  0
   10.9686   -1.4811   24.3119 O   0  0  0  0  0  0  0  0  0  0  0  0
   13.8735   -2.0705   24.9846 Cl  0  0  0  0  0  0  0  0  0  0  0  0
  1  2  2  0
  1  3  1  0
  2  5  1  0
  3  6  2  0
  4  5  2  0
  4  6  1  0
  5 13  1  0
  6 14  1  0
  7  9  1  0
  7 13  1  0
  7 15  2  0
  8 12  1  0
  8 14  1  0
  8 16  2  0
  9 10  1  0
 10 11  1  0
 11 13  1  0
 12 17  1  0
M  END
