LON-WEI-adc59df6-15
     RDKit          3D

 35 37  0  0  1  0  0  0  0  0999 V2000
   13.1960   -0.6837   22.5944 C   0  0  0  0  0  0  0  0  0  0  0  0
    7.3510   -0.6522   18.5660 C   0  0  0  0  0  0  0  0  0  0  0  0
   13.5187    0.0523   23.7344 C   0  0  0  0  0  0  0  0  0  0  0  0
    7.8015   -1.2963   19.7129 C   0  0  0  0  0  0  0  0  0  0  0  0
    5.3860   -5.4078   24.8252 C   0  0  0  0  0  0  0  0  0  0  0  0
    7.2531   -4.2000   25.7698 C   0  0  0  0  0  0  0  0  0  0  0  0
   11.8642   -0.9932   22.3179 C   0  0  0  0  0  0  0  0  0  0  0  0
    5.6419   -4.8307   23.5814 C   0  0  0  0  0  0  0  0  0  0  0  0
    7.5090   -3.6228   24.5259 C   0  0  0  0  0  0  0  0  0  0  0  0
   11.1780    0.1693   24.3215 C   0  0  0  0  0  0  0  0  0  0  0  0
    6.1297   -0.0004   18.6255 C   0  0  0  0  0  0  0  0  0  0  0  0
    5.8212   -0.5898   20.8246 C   0  0  0  0  0  0  0  0  0  0  0  0
    6.1916   -5.0924   25.9194 C   0  0  0  0  0  0  0  0  0  0  0  0
   12.5097    0.4789   24.5980 C   0  0  0  0  0  0  0  0  0  0  0  0
    7.0279   -1.2693   20.8680 C   0  0  0  0  0  0  0  0  0  0  0  0
    6.7034   -3.9382   23.4317 C   0  0  0  0  0  0  0  0  0  0  0  0
   10.8553   -0.5667   23.1814 C   0  0  0  0  0  0  0  0  0  0  0  0
    6.0025   -6.2108   20.0692 C   0  0  0  0  0  0  0  0  0  0  0  0
    6.7752   -5.5001   20.8967 C   0  0  0  0  0  0  0  0  0  0  0  0
    6.6656   -4.0123   20.9375 C   0  0  0  0  0  0  0  0  0  0  0  0
    9.0138   -1.9962   22.2268 C   0  0  0  0  0  0  0  0  0  0  0  0
    6.0173   -7.2651   27.1823 C   0  0  0  0  0  0  0  0  0  0  0  0
    4.4862   -5.3511   27.7555 C   0  0  0  0  0  0  0  0  0  0  0  0
    6.8861   -5.2797   28.4010 C   0  0  0  0  0  0  0  0  0  0  0  0
    7.4905   -1.9598   22.1320 C   0  0  0  0  0  0  0  0  0  0  0  0
    5.9094   -5.7286   27.2905 C   0  0  0  0  0  0  0  0  0  0  0  0
   12.8553    1.2657   25.8166 C   0  0  0  0  0  0  0  0  0  0  0  0
    5.3505    0.0476   19.7292 N   0  0  0  0  0  0  0  0  0  0  0  0
    9.5043   -0.8803   22.9002 N   0  0  0  0  0  0  0  0  0  0  0  0
    6.9598   -3.3610   22.1877 N   0  0  0  0  0  0  0  0  0  0  0  0
    6.3071   -3.4149   19.9223 O   0  0  0  0  0  0  0  0  0  0  0  0
    9.6682   -2.9145   21.7402 O   0  0  0  0  0  0  0  0  0  0  0  0
   14.1946    1.4939   25.9597 F   0  0  0  0  0  0  0  0  0  0  0  0
   12.2780    2.5033   25.8505 F   0  0  0  0  0  0  0  0  0  0  0  0
   12.4643    0.6479   26.9692 F   0  0  0  0  0  0  0  0  0  0  0  0
  1  3  2  0
  1  7  1  0
  2  4  2  0
  2 11  1  0
  3 14  1  0
  4 15  1  0
  5  8  2  0
  5 13  1  0
  6  9  1  0
  6 13  2  0
  7 17  2  0
  8 16  1  0
  9 16  2  0
 10 14  2  0
 10 17  1  0
 11 28  2  0
 12 15  2  0
 12 28  1  0
 13 26  1  0
 14 27  1  0
 15 25  1  0
 16 30  1  0
 17 29  1  0
 18 19  2  0
 19 20  1  0
 20 30  1  0
 20 31  2  0
 21 25  1  0
 21 29  1  0
 21 32  2  0
 22 26  1  0
 23 26  1  0
 24 26  1  0
 25 30  1  0
 27 33  1  0
 27 34  1  0
 27 35  1  0
M  END
