LON-WEI-b8d98729-43
     RDKit          3D

 33 35  0  0  1  0  0  0  0  0999 V2000
    7.6635   -5.8092   26.4598 C   0  0  0  0  0  0  0  0  0  0  0  0
    8.3542   -5.2257   25.4035 C   0  0  0  0  0  0  0  0  0  0  0  0
   10.6320    0.0704   24.0187 C   0  0  0  0  0  0  0  0  0  0  0  0
   11.4251    1.2137   24.1156 C   0  0  0  0  0  0  0  0  0  0  0  0
   12.8722    0.3569   22.3810 C   0  0  0  0  0  0  0  0  0  0  0  0
    7.0046   -1.9516   20.3741 C   0  0  0  0  0  0  0  0  0  0  0  0
    6.3181   -5.5090   26.5996 C   0  0  0  0  0  0  0  0  0  0  0  0
    6.3412   -4.1363   24.7575 C   0  0  0  0  0  0  0  0  0  0  0  0
    7.6878   -4.3720   24.5315 C   0  0  0  0  0  0  0  0  0  0  0  0
   12.0791   -0.7865   22.2841 C   0  0  0  0  0  0  0  0  0  0  0  0
   10.9591   -0.9297   23.1030 C   0  0  0  0  0  0  0  0  0  0  0  0
   12.5452    1.3570   23.2967 C   0  0  0  0  0  0  0  0  0  0  0  0
    6.8282   -0.5933   20.3766 C   0  0  0  0  0  0  0  0  0  0  0  0
    7.2389   -2.2608   21.7251 C   0  0  0  0  0  0  0  0  0  0  0  0
    6.4694   -7.0822   22.1588 C   0  0  0  0  0  0  0  0  0  0  0  0
    7.3113   -6.0453   22.2144 C   0  0  0  0  0  0  0  0  0  0  0  0
    6.9324   -4.7347   21.6093 C   0  0  0  0  0  0  0  0  0  0  0  0
    9.0021   -2.3708   23.7661 C   0  0  0  0  0  0  0  0  0  0  0  0
   12.4537   -1.8414   21.2943 C   0  0  0  0  0  0  0  0  0  0  0  0
    6.4308   -0.2622   17.9112 C   0  0  0  0  0  0  0  0  0  0  0  0
    7.6770    1.4828   19.2295 C   0  0  0  0  0  0  0  0  0  0  0  0
    5.2184    1.2242   19.4931 C   0  0  0  0  0  0  0  0  0  0  0  0
   14.4489    2.5547   22.5239 C   0  0  0  0  0  0  0  0  0  0  0  0
    8.4108   -3.7221   23.3725 C   0  0  0  0  0  0  0  0  0  0  0  0
    6.5356    0.4442   19.2802 C   0  0  0  0  0  0  0  0  0  0  0  0
    5.6367   -4.6847   25.7727 N   0  0  0  0  0  0  0  0  0  0  0  0
    7.2100   -1.1770   22.5058 N   0  0  0  0  0  0  0  0  0  0  0  0
   10.1431   -2.0830   23.0212 N   0  0  0  0  0  0  0  0  0  0  0  0
    7.4741   -3.5322   22.2077 N   0  0  0  0  0  0  0  0  0  0  0  0
    6.1568   -4.7240   20.6530 O   0  0  0  0  0  0  0  0  0  0  0  0
    8.4967   -1.6772   24.6445 O   0  0  0  0  0  0  0  0  0  0  0  0
    6.9484   -0.1194   21.6431 O   0  0  0  0  0  0  0  0  0  0  0  0
   13.3188    2.4730   23.3909 O   0  0  0  0  0  0  0  0  0  0  0  0
  1  2  2  0
  1  7  1  0
  2  9  1  0
  3  4  2  0
  3 11  1  0
  4 12  1  0
  5 10  1  0
  5 12  2  0
  6 13  2  0
  6 14  1  0
  7 26  2  0
  8  9  2  0
  8 26  1  0
  9 24  1  0
 10 11  2  0
 10 19  1  0
 11 28  1  0
 12 33  1  0
 13 25  1  0
 13 32  1  0
 14 27  2  0
 14 29  1  0
 15 16  2  0
 16 17  1  0
 17 29  1  0
 17 30  2  0
 18 24  1  0
 18 28  1  0
 18 31  2  0
 20 25  1  0
 21 25  1  0
 22 25  1  0
 23 33  1  0
 24 29  1  0
 27 32  1  0
M  END
