LON-WEI-adc59df6-16
     RDKit          3D

 33 35  0  0  1  0  0  0  0  0999 V2000
    7.1008    0.0028   18.1441 C   0  0  0  0  0  0  0  0  0  0  0  0
    7.8371   -0.5413   19.1905 C   0  0  0  0  0  0  0  0  0  0  0  0
   11.8601   -0.2799   22.2000 C   0  0  0  0  0  0  0  0  0  0  0  0
   11.1342    0.4012   24.4014 C   0  0  0  0  0  0  0  0  0  0  0  0
   10.5436   -0.5942   21.8631 C   0  0  0  0  0  0  0  0  0  0  0  0
    9.8176    0.0869   24.0644 C   0  0  0  0  0  0  0  0  0  0  0  0
    6.1011   -4.9897   23.8255 C   0  0  0  0  0  0  0  0  0  0  0  0
    5.5944   -5.9473   24.7039 C   0  0  0  0  0  0  0  0  0  0  0  0
    6.8438   -4.9479   26.5142 C   0  0  0  0  0  0  0  0  0  0  0  0
    5.7199   -0.0951   18.2031 C   0  0  0  0  0  0  0  0  0  0  0  0
    5.7951   -1.2037   20.2140 C   0  0  0  0  0  0  0  0  0  0  0  0
   12.1554    0.2177   23.4692 C   0  0  0  0  0  0  0  0  0  0  0  0
    7.1794   -1.1579   20.2491 C   0  0  0  0  0  0  0  0  0  0  0  0
    7.3505   -3.9902   25.6358 C   0  0  0  0  0  0  0  0  0  0  0  0
    9.5223   -0.4108   22.7952 C   0  0  0  0  0  0  0  0  0  0  0  0
    6.9792   -4.0111   24.2914 C   0  0  0  0  0  0  0  0  0  0  0  0
    5.9657   -5.9265   26.0483 C   0  0  0  0  0  0  0  0  0  0  0  0
    6.5264    1.8556   24.4705 C   0  0  0  0  0  0  0  0  0  0  0  0
    7.2522    1.3637   23.4614 C   0  0  0  0  0  0  0  0  0  0  0  0
    7.0632   -0.0481   23.0161 C   0  0  0  0  0  0  0  0  0  0  0  0
    7.2069   -2.9377   22.0238 C   0  0  0  0  0  0  0  0  0  0  0  0
    8.2891   -2.9538   26.1629 C   0  0  0  0  0  0  0  0  0  0  0  0
   14.1427    1.6505   22.8832 C   0  0  0  0  0  0  0  0  0  0  0  0
   14.4890   -0.6976   23.7215 C   0  0  0  0  0  0  0  0  0  0  0  0
   13.7725    1.1022   25.2799 C   0  0  0  0  0  0  0  0  0  0  0  0
    7.9519   -1.7588   21.4026 C   0  0  0  0  0  0  0  0  0  0  0  0
   13.6068    0.5641   23.8406 C   0  0  0  0  0  0  0  0  0  0  0  0
    5.0457   -0.6864   19.2147 N   0  0  0  0  0  0  0  0  0  0  0  0
    7.4820   -3.0481   23.3845 N   0  0  0  0  0  0  0  0  0  0  0  0
    8.2054   -0.7248   22.4584 N   0  0  0  0  0  0  0  0  0  0  0  0
    5.9474   -0.5587   23.1180 O   0  0  0  0  0  0  0  0  0  0  0  0
    6.4811   -3.6671   21.3534 O   0  0  0  0  0  0  0  0  0  0  0  0
    5.4786   -6.8458   26.8919 F   0  0  0  0  0  0  0  0  0  0  0  0
  1  2  2  0
  1 10  1  0
  2 13  1  0
  3  5  2  0
  3 12  1  0
  4  6  1  0
  4 12  2  0
  5 15  1  0
  6 15  2  0
  7  8  2  0
  7 16  1  0
  8 17  1  0
  9 14  1  0
  9 17  2  0
 10 28  2  0
 11 13  2  0
 11 28  1  0
 12 27  1  0
 13 26  1  0
 14 16  2  0
 14 22  1  0
 15 30  1  0
 16 29  1  0
 17 33  1  0
 18 19  2  0
 19 20  1  0
 20 30  1  0
 20 31  2  0
 21 26  1  0
 21 29  1  0
 21 32  2  0
 23 27  1  0
 24 27  1  0
 25 27  1  0
 26 30  1  0
M  END
