LON-WEI-b8d98729-30
     RDKit          3D

 34 36  0  0  1  0  0  0  0  0999 V2000
    7.3064   -0.3214   19.1110 C   0  0  0  0  0  0  0  0  0  0  0  0
    7.8563   -0.8193   20.2871 C   0  0  0  0  0  0  0  0  0  0  0  0
    6.0683   -4.7240   24.4073 C   0  0  0  0  0  0  0  0  0  0  0  0
    5.9202   -5.1787   25.7176 C   0  0  0  0  0  0  0  0  0  0  0  0
   11.8549   -0.5609   22.4725 C   0  0  0  0  0  0  0  0  0  0  0  0
   13.1697   -0.1301   22.6495 C   0  0  0  0  0  0  0  0  0  0  0  0
    7.8642   -3.2708   25.1146 C   0  0  0  0  0  0  0  0  0  0  0  0
   12.4932    1.1358   24.5930 C   0  0  0  0  0  0  0  0  0  0  0  0
    5.9290   -0.3686   18.9683 C   0  0  0  0  0  0  0  0  0  0  0  0
    5.6590   -1.3430   21.0313 C   0  0  0  0  0  0  0  0  0  0  0  0
    7.0238   -1.3417   21.2706 C   0  0  0  0  0  0  0  0  0  0  0  0
    7.7160   -3.7255   26.4249 C   0  0  0  0  0  0  0  0  0  0  0  0
   11.1784    0.7051   24.4159 C   0  0  0  0  0  0  0  0  0  0  0  0
    7.0403   -3.7701   24.1058 C   0  0  0  0  0  0  0  0  0  0  0  0
    6.7440   -4.6795   26.7264 C   0  0  0  0  0  0  0  0  0  0  0  0
   10.8592   -0.1432   23.3557 C   0  0  0  0  0  0  0  0  0  0  0  0
   13.4889    0.7182   23.7098 C   0  0  0  0  0  0  0  0  0  0  0  0
    6.4365   -6.4931   21.1923 C   0  0  0  0  0  0  0  0  0  0  0  0
    7.1711   -5.5766   21.8307 C   0  0  0  0  0  0  0  0  0  0  0  0
    6.8934   -4.1228   21.6396 C   0  0  0  0  0  0  0  0  0  0  0  0
    9.1143   -1.7918   22.5917 C   0  0  0  0  0  0  0  0  0  0  0  0
    8.6111   -3.1731   27.4862 C   0  0  0  0  0  0  0  0  0  0  0  0
   10.1327    1.1687   25.3774 C   0  0  0  0  0  0  0  0  0  0  0  0
    7.3206   -6.3077   28.5087 C   0  0  0  0  0  0  0  0  0  0  0  0
    5.6798   -4.4766   28.9595 C   0  0  0  0  0  0  0  0  0  0  0  0
   15.0284    2.0042   24.9872 C   0  0  0  0  0  0  0  0  0  0  0  0
    7.5911   -1.8903   22.5612 C   0  0  0  0  0  0  0  0  0  0  0  0
    5.0882   -0.8684   19.9015 N   0  0  0  0  0  0  0  0  0  0  0  0
    9.5310   -0.5896   23.1579 N   0  0  0  0  0  0  0  0  0  0  0  0
    7.1936   -3.2965   22.7411 N   0  0  0  0  0  0  0  0  0  0  0  0
    6.5800   -5.1516   28.0472 N   0  0  0  0  0  0  0  0  0  0  0  0
    6.4220   -3.7439   20.5671 O   0  0  0  0  0  0  0  0  0  0  0  0
    9.8273   -2.6873   22.1469 O   0  0  0  0  0  0  0  0  0  0  0  0
   14.7721    1.1380   23.8828 O   0  0  0  0  0  0  0  0  0  0  0  0
  1  2  2  0
  1  9  1  0
  2 11  1  0
  3  4  2  0
  3 14  1  0
  4 15  1  0
  5  6  2  0
  5 16  1  0
  6 17  1  0
  7 12  1  0
  7 14  2  0
  8 13  1  0
  8 17  2  0
  9 28  2  0
 10 11  2  0
 10 28  1  0
 11 27  1  0
 12 15  2  0
 12 22  1  0
 13 16  2  0
 13 23  1  0
 14 30  1  0
 15 31  1  0
 16 29  1  0
 17 34  1  0
 18 19  2  0
 19 20  1  0
 20 30  1  0
 20 32  2  0
 21 27  1  0
 21 29  1  0
 21 33  2  0
 24 31  1  0
 25 31  1  0
 26 34  1  0
 27 30  1  0
M  END
