LON-WEI-adc59df6-19
     RDKit          3D

 31 33  0  0  1  0  0  0  0  0999 V2000
    5.3113   -5.6820   25.9398 C   0  0  0  0  0  0  0  0  0  0  0  0
    6.2370   -4.9157   25.2405 C   0  0  0  0  0  0  0  0  0  0  0  0
   10.4186   -1.3770   24.0811 C   0  0  0  0  0  0  0  0  0  0  0  0
   11.4810   -3.3526   24.9785 C   0  0  0  0  0  0  0  0  0  0  0  0
    9.4030   -2.1675   23.5433 C   0  0  0  0  0  0  0  0  0  0  0  0
   10.4653   -4.1431   24.4407 C   0  0  0  0  0  0  0  0  0  0  0  0
    4.2130   -6.1646   25.2464 C   0  0  0  0  0  0  0  0  0  0  0  0
    4.9083   -5.1876   23.2868 C   0  0  0  0  0  0  0  0  0  0  0  0
   11.4576   -1.9696   24.7987 C   0  0  0  0  0  0  0  0  0  0  0  0
    6.0391   -4.6590   23.8884 C   0  0  0  0  0  0  0  0  0  0  0  0
    9.4263   -3.5505   23.7231 C   0  0  0  0  0  0  0  0  0  0  0  0
    7.6861   -7.7451   23.7620 C   0  0  0  0  0  0  0  0  0  0  0  0
    7.5300   -6.6855   22.9620 C   0  0  0  0  0  0  0  0  0  0  0  0
    8.6506   -5.7199   22.7641 C   0  0  0  0  0  0  0  0  0  0  0  0
    6.6239   -3.7109   21.6357 C   0  0  0  0  0  0  0  0  0  0  0  0
    6.5151   -0.0736   20.0099 C   0  0  0  0  0  0  0  0  0  0  0  0
    7.0370    0.7517   18.8525 C   0  0  0  0  0  0  0  0  0  0  0  0
    5.6711   -0.9301   17.9958 C   0  0  0  0  0  0  0  0  0  0  0  0
    6.2167   -1.3946   19.3349 C   0  0  0  0  0  0  0  0  0  0  0  0
   11.9736   -0.0822   26.3853 C   0  0  0  0  0  0  0  0  0  0  0  0
   13.2963   -0.3342   24.2586 C   0  0  0  0  0  0  0  0  0  0  0  0
   13.6547   -1.8997   26.1566 C   0  0  0  0  0  0  0  0  0  0  0  0
    5.2636   -2.2862   20.1076 C   0  0  0  0  0  0  0  0  0  0  0  0
    7.0269   -3.8304   23.1006 C   0  0  0  0  0  0  0  0  0  0  0  0
   12.5435   -1.1243   25.3737 C   0  0  0  0  0  0  0  0  0  0  0  0
    3.9869   -5.9363   23.9333 N   0  0  0  0  0  0  0  0  0  0  0  0
    5.8119   -2.6007   21.3878 N   0  0  0  0  0  0  0  0  0  0  0  0
    8.3585   -4.3818   23.1580 N   0  0  0  0  0  0  0  0  0  0  0  0
    9.7108   -6.1293   22.2904 O   0  0  0  0  0  0  0  0  0  0  0  0
    6.9538   -4.5343   20.7843 O   0  0  0  0  0  0  0  0  0  0  0  0
    6.3670    0.2836   17.6726 O   0  0  0  0  0  0  0  0  0  0  0  0
  1  2  2  0
  1  7  1  0
  2 10  1  0
  3  5  2  0
  3  9  1  0
  4  6  1  0
  4  9  2  0
  5 11  1  0
  6 11  2  0
  7 26  2  0
  8 10  2  0
  8 26  1  0
  9 25  1  0
 10 24  1  0
 11 28  1  0
 12 13  2  0
 13 14  1  0
 14 28  1  0
 14 29  2  0
 15 24  1  0
 15 27  1  0
 15 30  2  0
 16 17  1  0
 16 19  1  0
 17 31  1  0
 18 19  1  0
 18 31  1  0
 19 23  1  0
 20 25  1  0
 21 25  1  0
 22 25  1  0
 23 27  1  0
 24 28  1  0
M  END
