LON-WEI-b8d98729-32
     RDKit          3D

 28 29  0  0  1  0  0  0  0  0999 V2000
    3.2858   -4.2143   24.4854 C   0  0  0  0  0  0  0  0  0  0  0  0
    4.2362   -3.5947   23.6817 C   0  0  0  0  0  0  0  0  0  0  0  0
   10.0771   -4.0129   24.1792 C   0  0  0  0  0  0  0  0  0  0  0  0
   11.2297   -3.3809   24.6324 C   0  0  0  0  0  0  0  0  0  0  0  0
    3.7360   -5.0281   25.5125 C   0  0  0  0  0  0  0  0  0  0  0  0
    5.9359   -4.6366   24.9785 C   0  0  0  0  0  0  0  0  0  0  0  0
    9.3110   -1.9151   23.3613 C   0  0  0  0  0  0  0  0  0  0  0  0
    5.5888   -3.8047   23.9262 C   0  0  0  0  0  0  0  0  0  0  0  0
    9.0946   -3.2732   23.5306 C   0  0  0  0  0  0  0  0  0  0  0  0
   11.3507   -2.0181   24.4136 C   0  0  0  0  0  0  0  0  0  0  0  0
    9.6115   -6.9636   22.1114 C   0  0  0  0  0  0  0  0  0  0  0  0
    9.1902   -5.6998   22.0001 C   0  0  0  0  0  0  0  0  0  0  0  0
    7.9066   -5.2757   22.6324 C   0  0  0  0  0  0  0  0  0  0  0  0
    6.1717   -2.9487   21.6364 C   0  0  0  0  0  0  0  0  0  0  0  0
   13.8551   -1.8237   24.2048 C   0  0  0  0  0  0  0  0  0  0  0  0
   12.7356   -1.3687   26.4172 C   0  0  0  0  0  0  0  0  0  0  0  0
    7.2712   -0.1589   19.3632 C   0  0  0  0  0  0  0  0  0  0  0  0
    6.7900   -2.5327   18.7141 C   0  0  0  0  0  0  0  0  0  0  0  0
    4.9528   -1.0764   19.6041 C   0  0  0  0  0  0  0  0  0  0  0  0
    6.6460   -3.1454   23.0714 C   0  0  0  0  0  0  0  0  0  0  0  0
   12.5744   -1.3072   24.8868 C   0  0  0  0  0  0  0  0  0  0  0  0
    6.4468   -1.4077   19.6961 C   0  0  0  0  0  0  0  0  0  0  0  0
    5.0412   -5.2560   25.7807 N   0  0  0  0  0  0  0  0  0  0  0  0
   10.4177   -1.2662   23.7876 N   0  0  0  0  0  0  0  0  0  0  0  0
    6.7595   -1.8436   21.0450 N   0  0  0  0  0  0  0  0  0  0  0  0
    7.8681   -3.9109   23.0410 N   0  0  0  0  0  0  0  0  0  0  0  0
    7.0029   -6.1029   22.7549 O   0  0  0  0  0  0  0  0  0  0  0  0
    5.3352   -3.6765   21.1052 O   0  0  0  0  0  0  0  0  0  0  0  0
  1  2  2  0
  1  5  1  0
  2  8  1  0
  3  4  2  0
  3  9  1  0
  4 10  1  0
  5 23  2  0
  6  8  2  0
  6 23  1  0
  7  9  2  0
  7 24  1  0
  8 20  1  0
  9 26  1  0
 10 21  1  0
 10 24  2  0
 11 12  2  0
 12 13  1  0
 13 26  1  0
 13 27  2  0
 14 20  1  0
 14 25  1  0
 14 28  2  0
 15 21  1  0
 16 21  1  0
 17 22  1  0
 18 22  1  0
 19 22  1  0
 20 26  1  0
 22 25  1  0
M  END
