LON-WEI-b8d98729-2
     RDKit          3D

 32 34  0  0  1  0  0  0  0  0999 V2000
    4.9529   -2.2764   18.5066 C   0  0  0  0  0  0  0  0  0  0  0  0
    8.9394   -4.1065   24.5363 C   0  0  0  0  0  0  0  0  0  0  0  0
    5.0646   -3.1100   19.6193 C   0  0  0  0  0  0  0  0  0  0  0  0
    5.7033   -1.1027   18.4363 C   0  0  0  0  0  0  0  0  0  0  0  0
    9.1662   -3.1231   23.5799 C   0  0  0  0  0  0  0  0  0  0  0  0
   12.6588    1.0975   23.7106 C   0  0  0  0  0  0  0  0  0  0  0  0
   10.5899    2.0052   22.8546 C   0  0  0  0  0  0  0  0  0  0  0  0
   13.0994    2.3861   24.0123 C   0  0  0  0  0  0  0  0  0  0  0  0
   11.0304    3.2938   23.1563 C   0  0  0  0  0  0  0  0  0  0  0  0
    8.8120   -3.7092   25.8575 C   0  0  0  0  0  0  0  0  0  0  0  0
    9.1154   -1.4974   25.3151 C   0  0  0  0  0  0  0  0  0  0  0  0
    9.2573   -1.7911   23.9685 C   0  0  0  0  0  0  0  0  0  0  0  0
    5.9267   -2.7699   20.6618 C   0  0  0  0  0  0  0  0  0  0  0  0
    6.5653   -0.7625   19.4788 C   0  0  0  0  0  0  0  0  0  0  0  0
   11.4041    0.9070   23.1317 C   0  0  0  0  0  0  0  0  0  0  0  0
    6.6770   -1.5961   20.5916 C   0  0  0  0  0  0  0  0  0  0  0  0
   12.2852    3.4843   23.7352 C   0  0  0  0  0  0  0  0  0  0  0  0
   14.2175   -1.6922   21.8681 C   0  0  0  0  0  0  0  0  0  0  0  0
   13.0670   -1.0251   21.7323 C   0  0  0  0  0  0  0  0  0  0  0  0
   11.8515   -1.4603   22.4809 C   0  0  0  0  0  0  0  0  0  0  0  0
    8.9298   -1.0631   21.5850 C   0  0  0  0  0  0  0  0  0  0  0  0
    6.0246   -3.6832   21.8408 C   0  0  0  0  0  0  0  0  0  0  0  0
    6.7752    1.6192   20.2338 C   0  0  0  0  0  0  0  0  0  0  0  0
   12.8111    5.8569   22.4674 C   0  0  0  0  0  0  0  0  0  0  0  0
    7.3560    0.5013   19.3738 C   0  0  0  0  0  0  0  0  0  0  0  0
    9.5027   -0.6978   22.9521 C   0  0  0  0  0  0  0  0  0  0  0  0
    8.8944   -2.4254   26.2731 N   0  0  0  0  0  0  0  0  0  0  0  0
    7.5514   -1.2507   21.6493 N   0  0  0  0  0  0  0  0  0  0  0  0
   10.9452   -0.4350   22.8176 N   0  0  0  0  0  0  0  0  0  0  0  0
   11.7216   -2.6521   22.7615 O   0  0  0  0  0  0  0  0  0  0  0  0
    9.6469   -1.1741   20.5942 O   0  0  0  0  0  0  0  0  0  0  0  0
   12.8482    5.1304   24.1207 S   0  0  0  0  0  0  0  0  0  0  0  0
  1  3  2  0
  1  4  1  0
  2  5  2  0
  2 10  1  0
  3 13  1  0
  4 14  2  0
  5 12  1  0
  6  8  2  0
  6 15  1  0
  7  9  1  0
  7 15  2  0
  8 17  1  0
  9 17  2  0
 10 27  2  0
 11 12  2  0
 11 27  1  0
 12 26  1  0
 13 16  2  0
 13 22  1  0
 14 16  1  0
 14 25  1  0
 15 29  1  0
 16 28  1  0
 17 32  1  0
 18 19  2  0
 19 20  1  0
 20 29  1  0
 20 30  2  0
 21 26  1  0
 21 28  1  0
 21 31  2  0
 23 25  1  0
 24 32  1  0
 26 29  1  0
M  END
