LON-WEI-adc59df6-90
     RDKit          3D

 30 32  0  0  1  0  0  0  0  0999 V2000
    7.3112   -2.5811   19.4668 C   0  0  0  0  0  0  0  0  0  0  0  0
   11.1255   -2.9099   25.4860 C   0  0  0  0  0  0  0  0  0  0  0  0
    8.1680   -2.9352   20.5031 C   0  0  0  0  0  0  0  0  0  0  0  0
   12.2569   -3.6451   25.8412 C   0  0  0  0  0  0  0  0  0  0  0  0
   13.6622   -1.8976   24.9619 C   0  0  0  0  0  0  0  0  0  0  0  0
    6.7087   -1.3346   19.5208 C   0  0  0  0  0  0  0  0  0  0  0  0
    7.7421   -0.8220   21.5076 C   0  0  0  0  0  0  0  0  0  0  0  0
   11.2429   -1.6629   24.8459 C   0  0  0  0  0  0  0  0  0  0  0  0
   12.5315   -1.1419   24.6107 C   0  0  0  0  0  0  0  0  0  0  0  0
    8.3929   -2.0446   21.5469 C   0  0  0  0  0  0  0  0  0  0  0  0
   13.5251   -3.1418   25.5739 C   0  0  0  0  0  0  0  0  0  0  0  0
    7.2931   -1.6457   26.9778 C   0  0  0  0  0  0  0  0  0  0  0  0
    7.5558   -1.0217   25.8249 C   0  0  0  0  0  0  0  0  0  0  0  0
    7.7244   -1.8093   24.5705 C   0  0  0  0  0  0  0  0  0  0  0  0
    9.3143   -3.8960   22.9748 C   0  0  0  0  0  0  0  0  0  0  0  0
   12.7376    0.1951   23.9434 C   0  0  0  0  0  0  0  0  0  0  0  0
   11.5034    1.0888   24.0090 C   0  0  0  0  0  0  0  0  0  0  0  0
   10.2754    0.3130   23.5565 C   0  0  0  0  0  0  0  0  0  0  0  0
    9.9982   -0.8673   24.4962 C   0  0  0  0  0  0  0  0  0  0  0  0
    6.2891   -5.8891   23.9923 C   0  0  0  0  0  0  0  0  0  0  0  0
    8.1621   -6.6433   22.5052 C   0  0  0  0  0  0  0  0  0  0  0  0
    8.6090   -6.1024   24.9128 C   0  0  0  0  0  0  0  0  0  0  0  0
    9.3187   -2.3994   22.6871 C   0  0  0  0  0  0  0  0  0  0  0  0
    7.7811   -5.7322   23.6768 C   0  0  0  0  0  0  0  0  0  0  0  0
    6.9028   -0.4427   20.5180 N   0  0  0  0  0  0  0  0  0  0  0  0
    8.0509   -4.3594   23.3147 N   0  0  0  0  0  0  0  0  0  0  0  0
    8.9612   -1.6952   23.9209 N   0  0  0  0  0  0  0  0  0  0  0  0
    6.7901   -2.4925   24.1481 O   0  0  0  0  0  0  0  0  0  0  0  0
   10.3326   -4.5841   22.9420 O   0  0  0  0  0  0  0  0  0  0  0  0
   14.6293   -3.8605   25.9127 O   0  0  0  0  0  0  0  0  0  0  0  0
  1  3  2  0
  1  6  1  0
  2  4  2  0
  2  8  1  0
  3 10  1  0
  4 11  1  0
  5  9  1  0
  5 11  2  0
  6 25  2  0
  7 10  2  0
  7 25  1  0
  8  9  2  0
  8 19  1  0
  9 16  1  0
 10 23  1  0
 11 30  1  0
 12 13  2  0
 13 14  1  0
 14 27  1  0
 14 28  2  0
 15 23  1  0
 15 26  1  0
 15 29  2  0
 16 17  1  0
 17 18  1  0
 18 19  1  0
 19 27  1  0
 20 24  1  0
 21 24  1  0
 22 24  1  0
 23 27  1  0
 24 26  1  0
M  END
