LON-WEI-adc59df6-36
     RDKit          3D

 32 34  0  0  1  0  0  0  0  0999 V2000
    6.2974    0.3502   25.2880 C   0  0  0  0  0  0  0  0  0  0  0  0
    6.5243   -0.9101   24.7464 C   0  0  0  0  0  0  0  0  0  0  0  0
    7.0785    0.3260   19.8800 C   0  0  0  0  0  0  0  0  0  0  0  0
    4.7710   -0.3170   20.1948 C   0  0  0  0  0  0  0  0  0  0  0  0
    7.4863   -0.7544   20.6624 C   0  0  0  0  0  0  0  0  0  0  0  0
    5.1788   -1.3974   20.9771 C   0  0  0  0  0  0  0  0  0  0  0  0
   12.9001   -0.9321   22.3229 C   0  0  0  0  0  0  0  0  0  0  0  0
   11.9815   -0.1416   24.4003 C   0  0  0  0  0  0  0  0  0  0  0  0
    7.0987    1.3952   24.8570 C   0  0  0  0  0  0  0  0  0  0  0  0
   13.4303    0.3346   22.1376 C   0  0  0  0  0  0  0  0  0  0  0  0
   12.5529    1.0896   24.1222 C   0  0  0  0  0  0  0  0  0  0  0  0
    8.2772    0.0247   23.4389 C   0  0  0  0  0  0  0  0  0  0  0  0
    5.7209    0.5448   19.6463 C   0  0  0  0  0  0  0  0  0  0  0  0
    7.5313   -1.0845   23.8036 C   0  0  0  0  0  0  0  0  0  0  0  0
   12.1631   -1.1665   23.4784 C   0  0  0  0  0  0  0  0  0  0  0  0
    6.5365   -1.6161   21.2109 C   0  0  0  0  0  0  0  0  0  0  0  0
    6.5461   -6.2794   22.7237 C   0  0  0  0  0  0  0  0  0  0  0  0
    7.1973   -5.1226   22.5665 C   0  0  0  0  0  0  0  0  0  0  0  0
    6.6509   -4.0677   21.6632 C   0  0  0  0  0  0  0  0  0  0  0  0
    9.2608   -2.5944   22.7813 C   0  0  0  0  0  0  0  0  0  0  0  0
    5.8748    1.6091   17.3683 C   0  0  0  0  0  0  0  0  0  0  0  0
    5.7552    3.0541   19.4259 C   0  0  0  0  0  0  0  0  0  0  0  0
    3.7386    1.8447   18.6185 C   0  0  0  0  0  0  0  0  0  0  0  0
   11.5653   -2.5207   23.7294 C   0  0  0  0  0  0  0  0  0  0  0  0
    7.8022   -2.4412   23.1959 C   0  0  0  0  0  0  0  0  0  0  0  0
    5.2714    1.7358   18.7839 C   0  0  0  0  0  0  0  0  0  0  0  0
    8.0863    1.2644   23.9431 N   0  0  0  0  0  0  0  0  0  0  0  0
   13.2751    1.3551   23.0106 N   0  0  0  0  0  0  0  0  0  0  0  0
   10.1270   -2.4615   23.8575 N   0  0  0  0  0  0  0  0  0  0  0  0
    6.9441   -2.6970   21.9932 N   0  0  0  0  0  0  0  0  0  0  0  0
    5.9596   -4.4077   20.7028 O   0  0  0  0  0  0  0  0  0  0  0  0
    9.6069   -2.7744   21.6153 O   0  0  0  0  0  0  0  0  0  0  0  0
  1  2  2  0
  1  9  1  0
  2 14  1  0
  3  5  2  0
  3 13  1  0
  4  6  1  0
  4 13  2  0
  5 16  1  0
  6 16  2  0
  7 10  2  0
  7 15  1  0
  8 11  1  0
  8 15  2  0
  9 27  2  0
 10 28  1  0
 11 28  2  0
 12 14  2  0
 12 27  1  0
 13 26  1  0
 14 25  1  0
 15 24  1  0
 16 30  1  0
 17 18  2  0
 18 19  1  0
 19 30  1  0
 19 31  2  0
 20 25  1  0
 20 29  1  0
 20 32  2  0
 21 26  1  0
 22 26  1  0
 23 26  1  0
 24 29  1  0
 25 30  1  0
M  END
