LON-WEI-adc59df6-45
     RDKit          3D

 35 37  0  0  1  0  0  0  0  0999 V2000
    7.2373   -0.2912   18.5129 C   0  0  0  0  0  0  0  0  0  0  0  0
    7.7153   -0.8738   19.6814 C   0  0  0  0  0  0  0  0  0  0  0  0
    5.3501   -4.3343   25.2765 C   0  0  0  0  0  0  0  0  0  0  0  0
    7.3663   -3.2120   25.9923 C   0  0  0  0  0  0  0  0  0  0  0  0
    5.5628   -3.8850   23.9732 C   0  0  0  0  0  0  0  0  0  0  0  0
    7.5790   -2.7628   24.6890 C   0  0  0  0  0  0  0  0  0  0  0  0
   11.9536   -1.1000   22.4697 C   0  0  0  0  0  0  0  0  0  0  0  0
   13.3241   -0.8961   22.6295 C   0  0  0  0  0  0  0  0  0  0  0  0
   12.8884    1.2738   23.5983 C   0  0  0  0  0  0  0  0  0  0  0  0
    6.0773    0.4625   18.5914 C   0  0  0  0  0  0  0  0  0  0  0  0
    5.8779    0.0843   20.8487 C   0  0  0  0  0  0  0  0  0  0  0  0
    6.2519   -3.9977   26.2861 C   0  0  0  0  0  0  0  0  0  0  0  0
    7.0284   -0.6874   20.8759 C   0  0  0  0  0  0  0  0  0  0  0  0
    6.6772   -3.0993   23.6795 C   0  0  0  0  0  0  0  0  0  0  0  0
   11.0504   -0.1169   22.8740 C   0  0  0  0  0  0  0  0  0  0  0  0
   13.7915    0.2908   23.1938 C   0  0  0  0  0  0  0  0  0  0  0  0
   11.5178    1.0700   23.4383 C   0  0  0  0  0  0  0  0  0  0  0  0
    5.5700   -5.5754   20.5802 C   0  0  0  0  0  0  0  0  0  0  0  0
    6.4512   -4.8656   21.2919 C   0  0  0  0  0  0  0  0  0  0  0  0
    6.4603   -3.3755   21.2087 C   0  0  0  0  0  0  0  0  0  0  0  0
    9.0416   -1.4622   22.1660 C   0  0  0  0  0  0  0  0  0  0  0  0
    5.9981   -6.0367   27.7434 C   0  0  0  0  0  0  0  0  0  0  0  0
    4.6635   -3.9614   28.2412 C   0  0  0  0  0  0  0  0  0  0  0  0
    7.1008   -4.0367   28.7261 C   0  0  0  0  0  0  0  0  0  0  0  0
   15.5371    1.7260   23.9347 C   0  0  0  0  0  0  0  0  0  0  0  0
   10.1860    1.9781   25.1869 C   0  0  0  0  0  0  0  0  0  0  0  0
    7.5229   -1.3072   22.1642 C   0  0  0  0  0  0  0  0  0  0  0  0
    6.0173   -4.4930   27.7228 C   0  0  0  0  0  0  0  0  0  0  0  0
    5.3828    0.6660   19.7332 N   0  0  0  0  0  0  0  0  0  0  0  0
    9.6629   -0.3392   22.7067 N   0  0  0  0  0  0  0  0  0  0  0  0
    6.8904   -2.6501   22.3759 N   0  0  0  0  0  0  0  0  0  0  0  0
    6.0794   -2.8363   20.1694 O   0  0  0  0  0  0  0  0  0  0  0  0
    9.5875   -2.4687   21.7219 O   0  0  0  0  0  0  0  0  0  0  0  0
   15.1290    0.4899   23.3509 O   0  0  0  0  0  0  0  0  0  0  0  0
   10.6523    2.0433   23.8411 O   0  0  0  0  0  0  0  0  0  0  0  0
  1  2  2  0
  1 10  1  0
  2 13  1  0
  3  5  2  0
  3 12  1  0
  4  6  1  0
  4 12  2  0
  5 14  1  0
  6 14  2  0
  7  8  2  0
  7 15  1  0
  8 16  1  0
  9 16  2  0
  9 17  1  0
 10 29  2  0
 11 13  2  0
 11 29  1  0
 12 28  1  0
 13 27  1  0
 14 31  1  0
 15 17  2  0
 15 30  1  0
 16 34  1  0
 17 35  1  0
 18 19  2  0
 19 20  1  0
 20 31  1  0
 20 32  2  0
 21 27  1  0
 21 30  1  0
 21 33  2  0
 22 28  1  0
 23 28  1  0
 24 28  1  0
 25 34  1  0
 26 35  1  0
 27 31  1  0
M  END
