LON-WEI-b8d98729-20
     RDKit          3D

 33 35  0  0  1  0  0  0  0  0999 V2000
   13.9280   -0.2002   22.7210 C   0  0  0  0  0  0  0  0  0  0  0  0
    6.5282    2.1690   23.2844 C   0  0  0  0  0  0  0  0  0  0  0  0
   13.1275    0.6123   23.5238 C   0  0  0  0  0  0  0  0  0  0  0  0
   13.3712   -1.2985   22.0656 C   0  0  0  0  0  0  0  0  0  0  0  0
    7.2651    1.0435   22.9330 C   0  0  0  0  0  0  0  0  0  0  0  0
    6.6706   -0.4006   20.1553 C   0  0  0  0  0  0  0  0  0  0  0  0
    5.2618    1.9761   23.8125 C   0  0  0  0  0  0  0  0  0  0  0  0
    5.4460   -0.3084   23.6536 C   0  0  0  0  0  0  0  0  0  0  0  0
    6.7209   -0.2226   23.1178 C   0  0  0  0  0  0  0  0  0  0  0  0
   11.7702    0.3266   23.6713 C   0  0  0  0  0  0  0  0  0  0  0  0
   12.0139   -1.5843   22.2131 C   0  0  0  0  0  0  0  0  0  0  0  0
   11.2134   -0.7717   23.0159 C   0  0  0  0  0  0  0  0  0  0  0  0
    6.1842   -0.2910   18.8755 C   0  0  0  0  0  0  0  0  0  0  0  0
    6.4018   -1.7332   20.5210 C   0  0  0  0  0  0  0  0  0  0  0  0
    7.7599   -5.1509   23.5488 C   0  0  0  0  0  0  0  0  0  0  0  0
    6.9015   -4.1310   23.4481 C   0  0  0  0  0  0  0  0  0  0  0  0
    6.4468   -3.6592   22.1073 C   0  0  0  0  0  0  0  0  0  0  0  0
    8.8673   -1.1214   22.1675 C   0  0  0  0  0  0  0  0  0  0  0  0
   10.9384    1.2155   24.5382 C   0  0  0  0  0  0  0  0  0  0  0  0
   11.2265   -3.9548   22.4297 C   0  0  0  0  0  0  0  0  0  0  0  0
    7.5907    1.3550   17.5879 C   0  0  0  0  0  0  0  0  0  0  0  0
    5.3523    2.0572   18.5004 C   0  0  0  0  0  0  0  0  0  0  0  0
    5.4907    0.5456   16.5313 C   0  0  0  0  0  0  0  0  0  0  0  0
   11.4471   -2.7676   21.4977 C   0  0  0  0  0  0  0  0  0  0  0  0
    7.4974   -1.4665   22.7461 C   0  0  0  0  0  0  0  0  0  0  0  0
    6.1503    0.8862   17.8869 C   0  0  0  0  0  0  0  0  0  0  0  0
    4.6997    0.7620   24.0069 N   0  0  0  0  0  0  0  0  0  0  0  0
    5.7918   -2.4209   19.5520 N   0  0  0  0  0  0  0  0  0  0  0  0
    5.6731   -1.5168   18.5647 N   0  0  0  0  0  0  0  0  0  0  0  0
    9.8365   -1.0620   23.1658 N   0  0  0  0  0  0  0  0  0  0  0  0
    6.7289   -2.2866   21.7433 N   0  0  0  0  0  0  0  0  0  0  0  0
    5.8283   -4.4384   21.3817 O   0  0  0  0  0  0  0  0  0  0  0  0
    9.0280   -0.9209   20.9665 O   0  0  0  0  0  0  0  0  0  0  0  0
  1  3  2  0
  1  4  1  0
  2  5  2  0
  2  7  1  0
  3 10  1  0
  4 11  2  0
  5  9  1  0
  6 13  2  0
  6 14  1  0
  7 27  2  0
  8  9  2  0
  8 27  1  0
  9 25  1  0
 10 12  2  0
 10 19  1  0
 11 12  1  0
 11 24  1  0
 12 30  1  0
 13 26  1  0
 13 29  1  0
 14 28  2  0
 14 31  1  0
 15 16  2  0
 16 17  1  0
 17 31  1  0
 17 32  2  0
 18 25  1  0
 18 30  1  0
 18 33  2  0
 20 24  1  0
 21 26  1  0
 22 26  1  0
 23 26  1  0
 25 31  1  0
 28 29  1  0
M  END
