LON-WEI-adc59df6-14
     RDKit          3D

 29 31  0  0  1  0  0  0  0  0999 V2000
   10.3894   -1.5433   24.1434 C   0  0  0  0  0  0  0  0  0  0  0  0
    9.2239   -1.6958   23.4007 C   0  0  0  0  0  0  0  0  0  0  0  0
    6.3201   -2.8405   26.4524 C   0  0  0  0  0  0  0  0  0  0  0  0
    6.6489   -5.2340   26.4595 C   0  0  0  0  0  0  0  0  0  0  0  0
    6.3397   -2.8419   25.0578 C   0  0  0  0  0  0  0  0  0  0  0  0
    6.6684   -5.2355   25.0648 C   0  0  0  0  0  0  0  0  0  0  0  0
   11.0733   -2.6881   24.5194 C   0  0  0  0  0  0  0  0  0  0  0  0
    9.5402   -4.0515   23.4855 C   0  0  0  0  0  0  0  0  0  0  0  0
    6.4748   -4.0366   27.1534 C   0  0  0  0  0  0  0  0  0  0  0  0
    8.7842   -2.9705   23.0613 C   0  0  0  0  0  0  0  0  0  0  0  0
    6.5138   -4.0394   24.3639 C   0  0  0  0  0  0  0  0  0  0  0  0
    3.7276   -5.0576   23.7363 C   0  0  0  0  0  0  0  0  0  0  0  0
    4.5892   -5.6192   22.8823 C   0  0  0  0  0  0  0  0  0  0  0  0
    5.5939   -4.7800   22.1655 C   0  0  0  0  0  0  0  0  0  0  0  0
    6.8425   -1.8444   21.9311 C   0  0  0  0  0  0  0  0  0  0  0  0
    5.8431    0.8778   18.5533 C   0  0  0  0  0  0  0  0  0  0  0  0
    5.3650   -0.0210   19.7123 C   0  0  0  0  0  0  0  0  0  0  0  0
    7.2418    0.2566   18.7474 C   0  0  0  0  0  0  0  0  0  0  0  0
    6.8292   -0.0301   20.2100 C   0  0  0  0  0  0  0  0  0  0  0  0
    5.0996   -3.4855   29.1908 C   0  0  0  0  0  0  0  0  0  0  0  0
    7.5928   -3.1407   29.2256 C   0  0  0  0  0  0  0  0  0  0  0  0
    6.6381   -5.4343   29.3202 C   0  0  0  0  0  0  0  0  0  0  0  0
    7.5222   -3.1696   22.2545 C   0  0  0  0  0  0  0  0  0  0  0  0
    6.4533   -4.0349   28.6908 C   0  0  0  0  0  0  0  0  0  0  0  0
   10.6774   -3.9428   24.2084 N   0  0  0  0  0  0  0  0  0  0  0  0
    7.2855   -1.3091   20.7296 N   0  0  0  0  0  0  0  0  0  0  0  0
    6.5331   -4.0411   22.9689 N   0  0  0  0  0  0  0  0  0  0  0  0
    5.5605   -4.7342   20.9355 O   0  0  0  0  0  0  0  0  0  0  0  0
    6.0287   -1.3117   22.6831 O   0  0  0  0  0  0  0  0  0  0  0  0
  1  2  2  0
  1  7  1  0
  2 10  1  0
  3  5  2  0
  3  9  1  0
  4  6  1  0
  4  9  2  0
  5 11  1  0
  6 11  2  0
  7 25  2  0
  8 10  2  0
  8 25  1  0
  9 24  1  0
 10 23  1  0
 11 27  1  0
 12 13  2  0
 13 14  1  0
 14 27  1  0
 14 28  2  0
 15 23  1  0
 15 26  1  0
 15 29  2  0
 16 17  1  0
 16 18  1  0
 17 19  1  0
 18 19  1  0
 19 26  1  0
 20 24  1  0
 21 24  1  0
 22 24  1  0
 23 27  1  0
M  END
