LON-WEI-adc59df6-76
     RDKit          3D

 28 29  0  0  1  0  0  0  0  0999 V2000
    5.6192   -5.6620   25.7844 C   0  0  0  0  0  0  0  0  0  0  0  0
    6.4454   -5.0136   24.8733 C   0  0  0  0  0  0  0  0  0  0  0  0
    4.2705   -5.3447   25.7770 C   0  0  0  0  0  0  0  0  0  0  0  0
    4.5438   -3.8343   24.0675 C   0  0  0  0  0  0  0  0  0  0  0  0
    5.9053   -4.0807   23.9950 C   0  0  0  0  0  0  0  0  0  0  0  0
    6.1538   -6.2931   20.5423 C   0  0  0  0  0  0  0  0  0  0  0  0
    6.5354   -5.9860   21.7864 C   0  0  0  0  0  0  0  0  0  0  0  0
    7.8944   -5.4258   22.0344 C   0  0  0  0  0  0  0  0  0  0  0  0
    6.0134   -3.0262   21.7164 C   0  0  0  0  0  0  0  0  0  0  0  0
   11.0935   -1.7035   24.4935 C   0  0  0  0  0  0  0  0  0  0  0  0
   11.6677   -3.4794   25.9149 C   0  0  0  0  0  0  0  0  0  0  0  0
   11.1349   -3.2182   24.5184 C   0  0  0  0  0  0  0  0  0  0  0  0
   12.3428   -1.3246   25.2919 C   0  0  0  0  0  0  0  0  0  0  0  0
   12.1373   -0.0442   26.0966 C   0  0  0  0  0  0  0  0  0  0  0  0
   13.5779   -1.1933   24.3974 C   0  0  0  0  0  0  0  0  0  0  0  0
    6.6925   -0.0545   19.5101 C   0  0  0  0  0  0  0  0  0  0  0  0
    6.0070   -2.3525   18.7767 C   0  0  0  0  0  0  0  0  0  0  0  0
    4.4504   -0.9598   20.1644 C   0  0  0  0  0  0  0  0  0  0  0  0
    9.7977   -3.8797   24.2426 C   0  0  0  0  0  0  0  0  0  0  0  0
    9.2359   -3.5328   22.8670 C   0  0  0  0  0  0  0  0  0  0  0  0
    6.7765   -3.3597   22.9928 C   0  0  0  0  0  0  0  0  0  0  0  0
    5.9180   -1.3177   19.9033 C   0  0  0  0  0  0  0  0  0  0  0  0
    3.7094   -4.4443   24.9390 N   0  0  0  0  0  0  0  0  0  0  0  0
    6.4945   -1.8768   21.1049 N   0  0  0  0  0  0  0  0  0  0  0  0
    7.9611   -4.1502   22.6265 N   0  0  0  0  0  0  0  0  0  0  0  0
    8.8905   -6.0681   21.6980 O   0  0  0  0  0  0  0  0  0  0  0  0
    5.0597   -3.6913   21.3169 O   0  0  0  0  0  0  0  0  0  0  0  0
   12.5807   -2.4118   26.2098 O   0  0  0  0  0  0  0  0  0  0  0  0
  1  2  2  0
  1  3  1  0
  2  5  1  0
  3 23  2  0
  4  5  2  0
  4 23  1  0
  5 21  1  0
  6  7  2  0
  7  8  1  0
  8 25  1  0
  8 26  2  0
  9 21  1  0
  9 24  1  0
  9 27  2  0
 10 12  1  0
 10 13  1  0
 11 12  1  0
 11 28  1  0
 12 19  1  0
 13 14  1  0
 13 15  1  0
 13 28  1  0
 16 22  1  0
 17 22  1  0
 18 22  1  0
 19 20  1  0
 20 25  1  0
 21 25  1  0
 22 24  1  0
M  END
