MAC-MCD-4707377b-1
     RDKit          3D

 21 22  0  0  1  0  0  0  0  0999 V2000
   12.4416   -2.2190   22.2289 C   0  0  0  0  0  0  0  0  0  0  0  0
   12.8376   -0.8839   22.1498 C   0  0  0  0  0  0  0  0  0  0  0  0
   11.2681   -2.5597   22.9016 C   0  0  0  0  0  0  0  0  0  0  0  0
   10.8867   -0.2301   23.4161 C   0  0  0  0  0  0  0  0  0  0  0  0
   12.0602    0.1106   22.7434 C   0  0  0  0  0  0  0  0  0  0  0  0
   10.4907   -1.5653   23.4952 C   0  0  0  0  0  0  0  0  0  0  0  0
    6.0387   -1.3643   19.2774 C   0  0  0  0  0  0  0  0  0  0  0  0
    6.5258   -0.5156   21.5410 C   0  0  0  0  0  0  0  0  0  0  0  0
    7.7787   -0.5585   22.4027 C   0  0  0  0  0  0  0  0  0  0  0  0
    7.9645   -2.9920   22.0466 C   0  0  0  0  0  0  0  0  0  0  0  0
    6.7504   -2.9567   21.1196 C   0  0  0  0  0  0  0  0  0  0  0  0
    6.2739    0.0252   18.7395 C   0  0  0  0  0  0  0  0  0  0  0  0
    6.4866   -1.6175   20.5771 N   0  0  0  0  0  0  0  0  0  0  0  0
    7.8827   -1.8931   23.0529 N   0  0  0  0  0  0  0  0  0  0  0  0
    5.4688   -2.1966   18.5669 O   0  0  0  0  0  0  0  0  0  0  0  0
    9.1169   -3.3769   24.7617 O   0  0  0  0  0  0  0  0  0  0  0  0
    8.7166   -0.9483   25.2998 O   0  0  0  0  0  0  0  0  0  0  0  0
    5.5986   -3.3942   21.8385 O   0  0  0  0  0  0  0  0  0  0  0  0
   12.4409    1.3926   22.6674 F   0  0  0  0  0  0  0  0  0  0  0  0
    9.0043   -1.9961   24.3443 S   0  0  0  0  0  0  0  0  0  0  0  0
    8.0119    0.2974   18.7918 Cl  0  0  0  0  0  0  0  0  0  0  0  0
  1  2  2  0
  1  3  1  0
  2  5  1  0
  3  6  2  0
  4  5  2  0
  4  6  1  0
  5 19  1  0
  6 20  1  0
  7 12  1  0
  7 13  1  0
  7 15  2  0
  8  9  1  0
  8 13  1  0
  9 14  1  0
 10 11  1  0
 10 14  1  0
 11 13  1  0
 11 18  1  0
 12 21  1  0
 14 20  1  0
 16 20  2  0
 17 20  2  0
M  END
