MAK-UNK-0955449e-3
     RDKit          3D

 26 28  0  0  1  0  0  0  0  0999 V2000
   13.7749   -1.1880   21.7254 C   0  0  0  0  0  0  0  0  0  0  0  0
   14.1855   -0.5055   22.8705 C   0  0  0  0  0  0  0  0  0  0  0  0
    6.3548    1.2654   19.2545 C   0  0  0  0  0  0  0  0  0  0  0  0
   12.4540   -1.6202   21.6070 C   0  0  0  0  0  0  0  0  0  0  0  0
    7.1693    1.0811   20.3662 C   0  0  0  0  0  0  0  0  0  0  0  0
   13.2751   -0.2554   23.8974 C   0  0  0  0  0  0  0  0  0  0  0  0
    9.6226   -3.0200   22.8913 C   0  0  0  0  0  0  0  0  0  0  0  0
    6.8343    0.8492   18.0230 C   0  0  0  0  0  0  0  0  0  0  0  0
    8.8077    0.1124   18.9401 C   0  0  0  0  0  0  0  0  0  0  0  0
    8.0059   -1.7526   21.9694 C   0  0  0  0  0  0  0  0  0  0  0  0
   11.5436   -1.3701   22.6338 C   0  0  0  0  0  0  0  0  0  0  0  0
    8.4208    0.4944   20.2145 C   0  0  0  0  0  0  0  0  0  0  0  0
    8.2479   -2.9774   22.5512 C   0  0  0  0  0  0  0  0  0  0  0  0
   11.9542   -0.6877   23.7790 C   0  0  0  0  0  0  0  0  0  0  0  0
   10.1787   -1.8198   22.5071 C   0  0  0  0  0  0  0  0  0  0  0  0
    9.2292    1.3538   22.4901 C   0  0  0  0  0  0  0  0  0  0  0  0
    8.0122    1.8716   24.6017 C   0  0  0  0  0  0  0  0  0  0  0  0
    5.3612   -4.8768   24.1759 C   0  0  0  0  0  0  0  0  0  0  0  0
    7.2573   -4.0469   22.7777 C   0  0  0  0  0  0  0  0  0  0  0  0
    9.3349    0.2783   21.4106 C   0  0  0  0  0  0  0  0  0  0  0  0
    8.0441    0.2754   17.8365 N   0  0  0  0  0  0  0  0  0  0  0  0
    9.1866   -1.0572   21.9482 N   0  0  0  0  0  0  0  0  0  0  0  0
    8.3056    1.0192   23.4726 N   0  0  0  0  0  0  0  0  0  0  0  0
    6.3204   -3.7764   23.9116 N   0  0  0  0  0  0  0  0  0  0  0  0
    9.8857    2.3926   22.4743 O   0  0  0  0  0  0  0  0  0  0  0  0
   11.0911   -0.4392   24.7750 F   0  0  0  0  0  0  0  0  0  0  0  0
  1  2  2  0
  1  4  1  0
  2  6  1  0
  3  5  2  0
  3  8  1  0
  4 11  2  0
  5 12  1  0
  6 14  2  0
  7 13  1  0
  7 15  2  0
  8 21  2  0
  9 12  2  0
  9 21  1  0
 10 13  2  0
 10 22  1  0
 11 14  1  0
 11 15  1  0
 12 20  1  0
 13 19  1  0
 14 26  1  0
 15 22  1  0
 16 20  1  0
 16 23  1  0
 16 25  2  0
 17 23  1  0
 18 24  1  0
 19 24  1  0
 20 22  1  0
M  CHG  1  24   1
M  END
