MAK-UNK-0955449e-20
     RDKit          3D

 20 21  0  0  0  0  0  0  0  0999 V2000
   14.4284   -1.7423   25.0176 C   0  0  0  0  0  0  0  0  0  0  0  0
   14.6892   -2.3059   23.7687 C   0  0  0  0  0  0  0  0  0  0  0  0
   13.5003   -0.7077   25.1358 C   0  0  0  0  0  0  0  0  0  0  0  0
   14.0220   -1.8349   22.6379 C   0  0  0  0  0  0  0  0  0  0  0  0
   12.0760    2.1963   24.0478 C   0  0  0  0  0  0  0  0  0  0  0  0
    9.8893    1.8300   24.4406 C   0  0  0  0  0  0  0  0  0  0  0  0
   12.8332   -0.2367   24.0050 C   0  0  0  0  0  0  0  0  0  0  0  0
   10.8213    2.8247   24.2425 C   0  0  0  0  0  0  0  0  0  0  0  0
   13.0940   -0.8003   22.7560 C   0  0  0  0  0  0  0  0  0  0  0  0
   11.8725    0.8366   24.1326 C   0  0  0  0  0  0  0  0  0  0  0  0
    9.6281   -2.7564   23.1032 C   0  0  0  0  0  0  0  0  0  0  0  0
    9.6720   -1.4216   23.2277 C   0  0  0  0  0  0  0  0  0  0  0  0
   11.2201   -4.0855   24.4898 C   0  0  0  0  0  0  0  0  0  0  0  0
    9.6717    6.2332   22.9613 C   0  0  0  0  0  0  0  0  0  0  0  0
   10.5597    4.2766   24.2350 C   0  0  0  0  0  0  0  0  0  0  0  0
    9.7661   -3.7063   24.2556 C   0  0  0  0  0  0  0  0  0  0  0  0
    9.8650   -0.7131   24.5369 C   0  0  0  0  0  0  0  0  0  0  0  0
   10.5396    0.6256   24.3713 N   0  0  0  0  0  0  0  0  0  0  0  0
    9.8835    4.7652   22.9938 N   0  0  0  0  0  0  0  0  0  0  0  0
   12.4608   -0.3588   21.6593 F   0  0  0  0  0  0  0  0  0  0  0  0
  1  2  2  0
  1  3  1  0
  2  4  1  0
  3  7  2  0
  4  9  2  0
  5  8  1  0
  5 10  2  0
  6  8  2  0
  6 18  1  0
  7  9  1  0
  7 10  1  0
  8 15  1  0
  9 20  1  0
 10 18  1  0
 11 12  2  0
 11 16  1  0
 12 17  1  0
 13 16  1  0
 14 19  1  0
 15 19  1  0
 17 18  1  0
M  CHG  1  19   1
M  END
