MAK-UNK-b2c98f02-3
     RDKit          3D

 28 30  0  0  0  0  0  0  0  0999 V2000
    7.6085    2.8615   24.7090 C   0  0  0  0  0  0  0  0  0  0  0  0
    6.2887    3.3040   24.7979 C   0  0  0  0  0  0  0  0  0  0  0  0
    8.3970    3.2337   23.6202 C   0  0  0  0  0  0  0  0  0  0  0  0
    5.7574    4.1187   23.7981 C   0  0  0  0  0  0  0  0  0  0  0  0
    7.8657    4.0484   22.6204 C   0  0  0  0  0  0  0  0  0  0  0  0
    7.2796    0.3325   19.6169 C   0  0  0  0  0  0  0  0  0  0  0  0
    6.1393    1.0764   19.3349 C   0  0  0  0  0  0  0  0  0  0  0  0
    6.6046    0.2590   21.8963 C   0  0  0  0  0  0  0  0  0  0  0  0
    6.5459    4.4909   22.7093 C   0  0  0  0  0  0  0  0  0  0  0  0
    7.5241   -0.0879   20.9196 C   0  0  0  0  0  0  0  0  0  0  0  0
    5.2817    1.3710   20.3825 C   0  0  0  0  0  0  0  0  0  0  0  0
    9.0520   -1.3351   22.4854 C   0  0  0  0  0  0  0  0  0  0  0  0
   14.1331   -0.2234   23.5190 C   0  0  0  0  0  0  0  0  0  0  0  0
   13.8955   -1.6753   23.9226 C   0  0  0  0  0  0  0  0  0  0  0  0
   12.8551    0.6033   23.6203 C   0  0  0  0  0  0  0  0  0  0  0  0
   12.7573   -2.3036   23.1217 C   0  0  0  0  0  0  0  0  0  0  0  0
   11.7150   -0.0212   22.8192 C   0  0  0  0  0  0  0  0  0  0  0  0
   11.4671   -1.4793   23.2285 C   0  0  0  0  0  0  0  0  0  0  0  0
    5.9717    5.3720   21.6272 C   0  0  0  0  0  0  0  0  0  0  0  0
   10.3598   -2.0978   22.3772 C   0  0  0  0  0  0  0  0  0  0  0  0
    5.3155    4.5793   20.4995 C   0  0  0  0  0  0  0  0  0  0  0  0
    5.4857    0.9802   21.6605 N   0  0  0  0  0  0  0  0  0  0  0  0
    8.6757   -0.8465   21.2375 N   0  0  0  0  0  0  0  0  0  0  0  0
    4.1870    3.7618   20.9672 N   0  0  0  0  0  0  0  0  0  0  0  0
    8.4562   -1.2014   23.5491 O   0  0  0  0  0  0  0  0  0  0  0  0
    3.6257    2.5641   18.7564 O   0  0  0  0  0  0  0  0  0  0  0  0
    2.7573    1.6201   20.9196 O   0  0  0  0  0  0  0  0  0  0  0  0
    3.8217    2.2885   20.1771 S   0  0  0  0  0  0  0  0  0  0  0  0
  1  2  2  0
  1  3  1  0
  2  4  1  0
  3  5  2  0
  4  9  2  0
  5  9  1  0
  6  7  2  0
  6 10  1  0
  7 11  1  0
  8 10  2  0
  8 22  1  0
  9 19  1  0
 10 23  1  0
 11 22  2  0
 11 28  1  0
 12 20  1  0
 12 23  1  0
 12 25  2  0
 13 14  1  0
 13 15  1  0
 14 16  1  0
 15 17  1  0
 16 18  1  0
 17 18  1  0
 18 20  1  0
 19 21  1  0
 21 24  1  0
 24 28  1  0
 26 28  2  0
 27 28  2  0
M  END
