MAK-UNK-148caf23-4
     RDKit          3D

 34 37  0  0  0  0  0  0  0  0999 V2000
   15.4866   -3.7746   27.4616 C   0  0  0  0  0  0  0  0  0  0  0  0
    5.3604   -6.9298   21.4345 C   0  0  0  0  0  0  0  0  0  0  0  0
    4.4226   -7.4634   22.3184 C   0  0  0  0  0  0  0  0  0  0  0  0
    7.1089   -0.7298   20.1223 C   0  0  0  0  0  0  0  0  0  0  0  0
    6.3945   -6.1267   21.9159 C   0  0  0  0  0  0  0  0  0  0  0  0
    4.5187   -7.1940   23.6836 C   0  0  0  0  0  0  0  0  0  0  0  0
    6.9888   -1.0779   21.4630 C   0  0  0  0  0  0  0  0  0  0  0  0
   13.4916   -3.3435   26.1021 C   0  0  0  0  0  0  0  0  0  0  0  0
    8.8171   -5.4025   24.1960 C   0  0  0  0  0  0  0  0  0  0  0  0
    6.5480   -1.5764   19.1797 C   0  0  0  0  0  0  0  0  0  0  0  0
   14.9371   -1.5339   26.6431 C   0  0  0  0  0  0  0  0  0  0  0  0
    5.7950   -3.0241   20.7969 C   0  0  0  0  0  0  0  0  0  0  0  0
    8.6457   -3.1659   24.3912 C   0  0  0  0  0  0  0  0  0  0  0  0
   14.6403   -2.8840   26.7367 C   0  0  0  0  0  0  0  0  0  0  0  0
    6.4905   -5.8572   23.2811 C   0  0  0  0  0  0  0  0  0  0  0  0
    9.5032   -4.2261   24.5864 C   0  0  0  0  0  0  0  0  0  0  0  0
   12.6862   -2.4513   25.4031 C   0  0  0  0  0  0  0  0  0  0  0  0
    5.5527   -6.3909   24.1650 C   0  0  0  0  0  0  0  0  0  0  0  0
    6.3208   -2.2454   21.8153 C   0  0  0  0  0  0  0  0  0  0  0  0
    7.5613   -5.0254   23.7739 C   0  0  0  0  0  0  0  0  0  0  0  0
   13.0703   -1.1204   25.3694 C   0  0  0  0  0  0  0  0  0  0  0  0
   11.5330    1.9111   23.7659 C   0  0  0  0  0  0  0  0  0  0  0  0
   10.8819   -4.1490   25.1066 C   0  0  0  0  0  0  0  0  0  0  0  0
   12.5621    1.1860   24.5644 C   0  0  0  0  0  0  0  0  0  0  0  0
   16.1751   -4.4990   28.0514 N   0  0  0  0  0  0  0  0  0  0  0  0
    5.8918   -2.7186   19.4835 N   0  0  0  0  0  0  0  0  0  0  0  0
   14.1790   -0.6370   25.9734 N   0  0  0  0  0  0  0  0  0  0  0  0
    7.4684   -3.6637   23.8968 N   0  0  0  0  0  0  0  0  0  0  0  0
   11.5423   -2.9060   24.7706 N   0  0  0  0  0  0  0  0  0  0  0  0
   12.2549   -0.2036   24.6593 N   0  0  0  0  0  0  0  0  0  0  0  0
    6.2697   -1.5245   24.3452 O   0  0  0  0  0  0  0  0  0  0  0  0
    4.9474   -3.5599   23.5826 O   0  0  0  0  0  0  0  0  0  0  0  0
    5.6313   -6.1413   25.4804 F   0  0  0  0  0  0  0  0  0  0  0  0
    6.1473   -2.7225   23.5152 S   0  0  0  0  0  0  0  0  0  0  0  0
  1 14  1  0
  1 25  3  0
  2  3  2  0
  2  5  1  0
  3  6  1  0
  4  7  2  0
  4 10  1  0
  5 15  2  0
  6 18  2  0
  7 19  1  0
  8 14  2  0
  8 17  1  0
  9 16  1  0
  9 20  2  0
 10 26  2  0
 11 14  1  0
 11 27  2  0
 12 19  2  0
 12 26  1  0
 13 16  2  0
 13 28  1  0
 15 18  1  0
 15 20  1  0
 16 23  1  0
 17 21  2  0
 17 29  1  0
 18 33  1  0
 19 34  1  0
 20 28  1  0
 21 27  1  0
 21 30  1  0
 22 24  1  0
 23 29  1  0
 24 30  1  0
 28 34  1  0
 31 34  2  0
 32 34  2  0
M  END
