MAK-UNK-9e4a73aa-36
     RDKit          3D

 27 30  0  0  0  0  0  0  0  0999 V2000
   12.7582    0.3503   24.1498 C   0  0  0  0  0  0  0  0  0  0  0  0
   11.5758    0.2628   24.8845 C   0  0  0  0  0  0  0  0  0  0  0  0
   12.8028   -0.1285   22.8404 C   0  0  0  0  0  0  0  0  0  0  0  0
    6.6136    1.1669   18.1306 C   0  0  0  0  0  0  0  0  0  0  0  0
   10.4381   -0.3038   24.3100 C   0  0  0  0  0  0  0  0  0  0  0  0
   11.6651   -0.6951   22.2658 C   0  0  0  0  0  0  0  0  0  0  0  0
    7.1743    0.6291   19.2837 C   0  0  0  0  0  0  0  0  0  0  0  0
    6.8895   -4.1121   23.1377 C   0  0  0  0  0  0  0  0  0  0  0  0
    5.8774    0.3242   17.3136 C   0  0  0  0  0  0  0  0  0  0  0  0
    6.2313   -1.4744   18.6985 C   0  0  0  0  0  0  0  0  0  0  0  0
    7.5078   -2.9965   22.5445 C   0  0  0  0  0  0  0  0  0  0  0  0
    9.3527   -3.2410   24.0550 C   0  0  0  0  0  0  0  0  0  0  0  0
   10.4826   -0.7827   23.0006 C   0  0  0  0  0  0  0  0  0  0  0  0
    6.9843   -0.7160   19.5804 C   0  0  0  0  0  0  0  0  0  0  0  0
    8.7294   -2.5175   23.0183 C   0  0  0  0  0  0  0  0  0  0  0  0
    7.5026   -4.7811   24.1918 C   0  0  0  0  0  0  0  0  0  0  0  0
    8.7421   -4.3529   24.6420 C   0  0  0  0  0  0  0  0  0  0  0  0
    6.8700   -2.3836   21.3661 C   0  0  0  0  0  0  0  0  0  0  0  0
    8.7488   -0.7247   21.2860 C   0  0  0  0  0  0  0  0  0  0  0  0
   10.7020   -2.8691   24.6023 C   0  0  0  0  0  0  0  0  0  0  0  0
    5.6710   -0.9873   17.5687 N   0  0  0  0  0  0  0  0  0  0  0  0
    9.3123   -1.3652   22.4099 N   0  0  0  0  0  0  0  0  0  0  0  0
    7.5562   -1.3059   20.7745 N   0  0  0  0  0  0  0  0  0  0  0  0
    5.8327   -2.8936   20.9460 O   0  0  0  0  0  0  0  0  0  0  0  0
    9.2182    0.3293   20.8366 O   0  0  0  0  0  0  0  0  0  0  0  0
    6.8728   -5.8131   24.7709 F   0  0  0  0  0  0  0  0  0  0  0  0
    9.4870   -5.2300   25.9348 Cl  0  0  0  0  0  0  0  0  0  0  0  0
  1  2  2  0
  1  3  1  0
  2  5  1  0
  3  6  2  0
  4  7  2  0
  4  9  1  0
  5 13  2  0
  6 13  1  0
  7 14  1  0
  8 11  2  0
  8 16  1  0
  9 21  2  0
 10 14  2  0
 10 21  1  0
 11 15  1  0
 11 18  1  0
 12 15  2  0
 12 17  1  0
 12 20  1  0
 13 22  1  0
 14 23  1  0
 15 22  1  0
 16 17  2  0
 16 26  1  0
 17 27  1  0
 18 23  1  0
 18 24  2  0
 19 22  1  0
 19 23  1  0
 19 25  2  0
M  END
