MAK-UNK-af83ef51-5
     RDKit          3D

 21 22  0  0  1  0  0  0  0  0999 V2000
   11.5393    0.1096   24.3681 C   0  0  0  0  0  0  0  0  0  0  0  0
   12.4164   -0.0118   23.2903 C   0  0  0  0  0  0  0  0  0  0  0  0
   10.6208   -0.9050   24.6375 C   0  0  0  0  0  0  0  0  0  0  0  0
   11.4563   -2.1623   22.7513 C   0  0  0  0  0  0  0  0  0  0  0  0
   12.3749   -1.1477   22.4819 C   0  0  0  0  0  0  0  0  0  0  0  0
   10.5793   -2.0409   23.8291 C   0  0  0  0  0  0  0  0  0  0  0  0
    6.3584   -3.8175   21.0354 C   0  0  0  0  0  0  0  0  0  0  0  0
    5.7844   -0.4855   20.8306 C   0  0  0  0  0  0  0  0  0  0  0  0
    7.6191   -1.5954   23.8255 C   0  0  0  0  0  0  0  0  0  0  0  0
    8.4865   -2.8934   21.8662 C   0  0  0  0  0  0  0  0  0  0  0  0
    6.3172   -1.3461   23.0757 C   0  0  0  0  0  0  0  0  0  0  0  0
    7.2164   -2.5632   21.0783 C   0  0  0  0  0  0  0  0  0  0  0  0
    8.2690   -2.9076   23.3840 C   0  0  0  0  0  0  0  0  0  0  0  0
   13.3140   -1.2774   21.3306 C   0  0  0  0  0  0  0  0  0  0  0  0
    9.5885   -3.1344   24.1193 C   0  0  0  0  0  0  0  0  0  0  0  0
    5.9896   -0.5763   19.3387 C   0  0  0  0  0  0  0  0  0  0  0  0
    6.4829   -1.4072   21.6200 N   0  0  0  0  0  0  0  0  0  0  0  0
    5.9112   -4.2032   22.1509 O   0  0  0  0  0  0  0  0  0  0  0  0
    6.2032   -4.3138   19.8844 O   0  0  0  0  0  0  0  0  0  0  0  0
    5.0321    0.3826   21.2814 O   0  0  0  0  0  0  0  0  0  0  0  0
    7.3282    0.4975   18.9488 Cl  0  0  0  0  0  0  0  0  0  0  0  0
  1  2  2  0
  1  3  1  0
  2  5  1  0
  3  6  2  0
  4  5  2  0
  4  6  1  0
  5 14  1  0
  6 15  1  0
  7 12  1  0
  7 18  1  0
  7 19  2  0
  8 16  1  0
  8 17  1  0
  8 20  2  0
  9 11  1  0
  9 13  1  0
 10 12  1  0
 10 13  1  0
 11 17  1  0
 12 17  1  0
 13 15  1  0
 16 21  1  0
M  CHG  1  18  -1
M  END
