MAK-UNK-f2409524-12
     RDKit          3D

 28 31  0  0  1  0  0  0  0  0999 V2000
    6.0036    0.8705   19.9313 C   0  0  0  0  0  0  0  0  0  0  0  0
    8.0167    0.1474   18.9928 C   0  0  0  0  0  0  0  0  0  0  0  0
    6.2668    0.7571   17.6763 C   0  0  0  0  0  0  0  0  0  0  0  0
    7.2904    0.4156   20.1351 C   0  0  0  0  0  0  0  0  0  0  0  0
   12.7971    1.8384   23.2757 C   0  0  0  0  0  0  0  0  0  0  0  0
   13.6433    0.6564   23.4514 C   0  0  0  0  0  0  0  0  0  0  0  0
   11.4740    1.6326   23.1603 C   0  0  0  0  0  0  0  0  0  0  0  0
   11.8665   -0.7960   23.3873 C   0  0  0  0  0  0  0  0  0  0  0  0
   10.4199    6.2833   25.3655 C   0  0  0  0  0  0  0  0  0  0  0  0
   10.2451    6.4075   23.8545 C   0  0  0  0  0  0  0  0  0  0  0  0
   11.4732    5.2397   25.7267 C   0  0  0  0  0  0  0  0  0  0  0  0
    9.9406    5.0565   23.2095 C   0  0  0  0  0  0  0  0  0  0  0  0
   11.1696    3.8873   25.0842 C   0  0  0  0  0  0  0  0  0  0  0  0
   11.0069    4.0147   23.5656 C   0  0  0  0  0  0  0  0  0  0  0  0
    9.1638   -0.2396   21.6473 C   0  0  0  0  0  0  0  0  0  0  0  0
    9.1831   -1.7579   21.6219 C   0  0  0  0  0  0  0  0  0  0  0  0
    8.7449   -2.1188   23.0369 C   0  0  0  0  0  0  0  0  0  0  0  0
    9.5614    0.0757   23.0894 C   0  0  0  0  0  0  0  0  0  0  0  0
    9.2283   -3.4591   23.5595 C   0  0  0  0  0  0  0  0  0  0  0  0
    5.4577    1.0535   18.7111 N   0  0  0  0  0  0  0  0  0  0  0  0
    7.5345    0.3073   17.7430 N   0  0  0  0  0  0  0  0  0  0  0  0
   13.2234   -0.5602   23.5042 N   0  0  0  0  0  0  0  0  0  0  0  0
   10.9778    0.3085   23.2128 N   0  0  0  0  0  0  0  0  0  0  0  0
    7.8165    0.2384   21.4006 N   0  0  0  0  0  0  0  0  0  0  0  0
   10.6455    2.7188   22.9942 N   0  0  0  0  0  0  0  0  0  0  0  0
   11.4387   -1.9511   23.4350 O   0  0  0  0  0  0  0  0  0  0  0  0
    9.2389   -1.0712   23.8904 O   0  0  0  0  0  0  0  0  0  0  0  0
   10.5190   -2.1794   21.3601 O   0  0  0  0  0  0  0  0  0  0  0  0
  1  4  2  0
  1 20  1  0
  2  4  1  0
  2 21  2  0
  3 20  2  0
  3 21  1  0
  4 24  1  0
  5  6  1  0
  5  7  2  0
  6 22  2  0
  7 23  1  0
  7 25  1  0
  8 22  1  0
  8 23  1  0
  8 26  2  0
  9 10  1  0
  9 11  1  0
 10 12  1  0
 11 13  1  0
 12 14  1  0
 13 14  1  0
 14 25  1  0
 15 16  1  0
 15 18  1  0
 15 24  1  0
 16 17  1  0
 16 28  1  0
 17 19  1  0
 17 27  1  0
 18 23  1  0
 18 27  1  0
M  END
