MAK-UNK-de8f6d00-3
     RDKit          3D

 34 38  0  0  0  0  0  0  0  0999 V2000
    7.9309    6.4144   24.2668 C   0  0  0  0  0  0  0  0  0  0  0  0
    4.3181   -7.2712   28.0892 C   0  0  0  0  0  0  0  0  0  0  0  0
    9.0929    6.1191   23.5562 C   0  0  0  0  0  0  0  0  0  0  0  0
   10.5618   -1.5450   23.3571 C   0  0  0  0  0  0  0  0  0  0  0  0
    9.1325   -0.1012   24.6647 C   0  0  0  0  0  0  0  0  0  0  0  0
    5.3486   -6.8294   27.2670 C   0  0  0  0  0  0  0  0  0  0  0  0
    9.8752   -2.6600   23.8377 C   0  0  0  0  0  0  0  0  0  0  0  0
    8.4459   -1.2163   25.1453 C   0  0  0  0  0  0  0  0  0  0  0  0
    3.5837   -6.3188   28.7773 C   0  0  0  0  0  0  0  0  0  0  0  0
    8.0413    6.8071   25.5939 C   0  0  0  0  0  0  0  0  0  0  0  0
    4.8174   -4.5962   27.8891 C   0  0  0  0  0  0  0  0  0  0  0  0
   12.4347    6.3265   25.0153 C   0  0  0  0  0  0  0  0  0  0  0  0
   10.3202    6.2364   24.2283 C   0  0  0  0  0  0  0  0  0  0  0  0
   11.6863    6.0403   23.8939 C   0  0  0  0  0  0  0  0  0  0  0  0
   10.1905   -0.2656   23.7706 C   0  0  0  0  0  0  0  0  0  0  0  0
    8.8173   -2.4956   24.7318 C   0  0  0  0  0  0  0  0  0  0  0  0
    5.6097   -5.4679   27.1596 C   0  0  0  0  0  0  0  0  0  0  0  0
   10.2851    6.6404   25.5598 C   0  0  0  0  0  0  0  0  0  0  0  0
   13.0205    4.3236   22.6716 C   0  0  0  0  0  0  0  0  0  0  0  0
    7.0409   -3.6563   26.1160 C   0  0  0  0  0  0  0  0  0  0  0  0
   12.3228    0.9388   23.5696 C   0  0  0  0  0  0  0  0  0  0  0  0
   10.1753    2.1341   23.1458 C   0  0  0  0  0  0  0  0  0  0  0  0
   13.0068    1.8513   22.5541 C   0  0  0  0  0  0  0  0  0  0  0  0
   10.8971    3.0296   22.1390 C   0  0  0  0  0  0  0  0  0  0  0  0
   12.2271    5.6013   22.5663 C   0  0  0  0  0  0  0  0  0  0  0  0
    3.8076   -4.9879   28.6982 N   0  0  0  0  0  0  0  0  0  0  0  0
    9.1940    6.9368   26.2910 N   0  0  0  0  0  0  0  0  0  0  0  0
   11.5748    6.6889   26.0195 N   0  0  0  0  0  0  0  0  0  0  0  0
   10.8804    0.8531   23.2899 N   0  0  0  0  0  0  0  0  0  0  0  0
   12.3195    3.1373   22.4690 N   0  0  0  0  0  0  0  0  0  0  0  0
    8.1306   -3.6109   25.2125 N   0  0  0  0  0  0  0  0  0  0  0  0
    6.6517   -4.9881   26.3313 N   0  0  0  0  0  0  0  0  0  0  0  0
   14.2258    4.3802   22.9280 O   0  0  0  0  0  0  0  0  0  0  0  0
    6.5189   -2.6726   26.6307 O   0  0  0  0  0  0  0  0  0  0  0  0
  1  3  2  0
  1 10  1  0
  2  6  2  0
  2  9  1  0
  3 13  1  0
  4  7  2  0
  4 15  1  0
  5  8  1  0
  5 15  2  0
  6 17  1  0
  7 16  1  0
  8 16  2  0
  9 26  2  0
 10 27  2  0
 11 17  2  0
 11 26  1  0
 12 14  2  0
 12 28  1  0
 13 14  1  0
 13 18  2  0
 14 25  1  0
 15 29  1  0
 16 31  1  0
 17 32  1  0
 18 27  1  0
 18 28  1  0
 19 25  1  0
 19 30  1  0
 19 33  2  0
 20 31  1  0
 20 32  1  0
 20 34  2  0
 21 23  1  0
 21 29  1  0
 22 24  1  0
 22 29  1  0
 23 30  1  0
 24 30  1  0
M  END
