MAK-UNK-9159f8ed-4
     RDKit          3D

 30 32  0  0  0  0  0  0  0  0999 V2000
   10.8072   -5.4564   25.1937 C   0  0  0  0  0  0  0  0  0  0  0  0
   13.4392    5.5765   21.6787 C   0  0  0  0  0  0  0  0  0  0  0  0
   11.8530   -4.5442   25.0532 C   0  0  0  0  0  0  0  0  0  0  0  0
   12.2523    6.1203   22.1698 C   0  0  0  0  0  0  0  0  0  0  0  0
    9.5638   -5.1852   24.6227 C   0  0  0  0  0  0  0  0  0  0  0  0
   13.7798    4.2580   21.9811 C   0  0  0  0  0  0  0  0  0  0  0  0
   10.4119   -3.0895   23.7711 C   0  0  0  0  0  0  0  0  0  0  0  0
   11.7467    4.0274   23.2658 C   0  0  0  0  0  0  0  0  0  0  0  0
   11.6554   -3.3607   24.3420 C   0  0  0  0  0  0  0  0  0  0  0  0
   11.4061    5.3458   22.9633 C   0  0  0  0  0  0  0  0  0  0  0  0
    9.3661   -4.0017   23.9115 C   0  0  0  0  0  0  0  0  0  0  0  0
   12.9336    3.4835   22.7747 C   0  0  0  0  0  0  0  0  0  0  0  0
    9.2403    5.2516   24.2733 C   0  0  0  0  0  0  0  0  0  0  0  0
   12.7685   -2.3895   24.1926 C   0  0  0  0  0  0  0  0  0  0  0  0
   12.5594    1.2411   23.8502 C   0  0  0  0  0  0  0  0  0  0  0  0
    8.0837    6.2071   24.4610 C   0  0  0  0  0  0  0  0  0  0  0  0
    8.6914    7.5591   24.1455 C   0  0  0  0  0  0  0  0  0  0  0  0
    9.7477    7.2363   23.1094 C   0  0  0  0  0  0  0  0  0  0  0  0
    7.1437   -1.6444   24.7352 C   0  0  0  0  0  0  0  0  0  0  0  0
   13.2647   -0.0944   23.9443 C   0  0  0  0  0  0  0  0  0  0  0  0
   10.1924    5.9025   23.4647 N   0  0  0  0  0  0  0  0  0  0  0  0
   13.2748    2.1648   23.0767 N   0  0  0  0  0  0  0  0  0  0  0  0
    8.0928   -3.7253   23.3275 N   0  0  0  0  0  0  0  0  0  0  0  0
    9.2359    4.1166   24.7273 O   0  0  0  0  0  0  0  0  0  0  0  0
   13.9445   -2.7176   24.1649 O   0  0  0  0  0  0  0  0  0  0  0  0
   11.4873    1.4207   24.4200 O   0  0  0  0  0  0  0  0  0  0  0  0
    5.5541   -3.3640   23.6023 O   0  0  0  0  0  0  0  0  0  0  0  0
    6.8784   -4.0939   25.6170 O   0  0  0  0  0  0  0  0  0  0  0  0
   12.2963   -1.1120   24.0923 O   0  0  0  0  0  0  0  0  0  0  0  0
    6.7807   -3.3487   24.3775 S   0  0  0  0  0  0  0  0  0  0  0  0
  1  3  2  0
  1  5  1  0
  2  4  2  0
  2  6  1  0
  3  9  1  0
  4 10  1  0
  5 11  2  0
  6 12  2  0
  7  9  2  0
  7 11  1  0
  8 10  2  0
  8 12  1  0
  9 14  1  0
 10 21  1  0
 11 23  1  0
 12 22  1  0
 13 16  1  0
 13 21  1  0
 13 24  2  0
 14 25  2  0
 14 29  1  0
 15 20  1  0
 15 22  1  0
 15 26  2  0
 16 17  1  0
 17 18  1  0
 18 21  1  0
 19 30  1  0
 20 29  1  0
 23 30  1  0
 27 30  2  0
 28 30  2  0
M  END
