MAK-UNK-9a6be56d-23
     RDKit          3D

 38 42  0  0  0  0  0  0  0  0999 V2000
    6.2560    2.6255   20.5636 C   0  0  0  0  0  0  0  0  0  0  0  0
    9.9138   -5.3240   25.1697 C   0  0  0  0  0  0  0  0  0  0  0  0
   13.5429   -1.0988   22.8971 C   0  0  0  0  0  0  0  0  0  0  0  0
   13.7258    0.1585   22.3216 C   0  0  0  0  0  0  0  0  0  0  0  0
    7.3811    2.0392   21.1326 C   0  0  0  0  0  0  0  0  0  0  0  0
    8.8814   -5.0251   24.2870 C   0  0  0  0  0  0  0  0  0  0  0  0
   11.7173   -0.2282   24.2187 C   0  0  0  0  0  0  0  0  0  0  0  0
   11.4028    3.3289   24.6025 C   0  0  0  0  0  0  0  0  0  0  0  0
   10.1360   -3.1207   23.4941 C   0  0  0  0  0  0  0  0  0  0  0  0
    5.1369    2.7922   21.3634 C   0  0  0  0  0  0  0  0  0  0  0  0
    6.1849    1.8539   23.1798 C   0  0  0  0  0  0  0  0  0  0  0  0
    9.1670    3.3025   24.3372 C   0  0  0  0  0  0  0  0  0  0  0  0
   11.9002    1.0291   23.6432 C   0  0  0  0  0  0  0  0  0  0  0  0
   11.0622   -4.5153   25.2314 C   0  0  0  0  0  0  0  0  0  0  0  0
   10.2127    4.0727   24.7961 C   0  0  0  0  0  0  0  0  0  0  0  0
   12.5386   -1.2922   23.8457 C   0  0  0  0  0  0  0  0  0  0  0  0
   11.1929   -3.3863   24.3881 C   0  0  0  0  0  0  0  0  0  0  0  0
   12.9045    1.2225   22.6946 C   0  0  0  0  0  0  0  0  0  0  0  0
    8.9939   -3.9250   23.4475 C   0  0  0  0  0  0  0  0  0  0  0  0
    7.3530    1.6430   22.4651 C   0  0  0  0  0  0  0  0  0  0  0  0
   11.0482    2.1268   24.0311 C   0  0  0  0  0  0  0  0  0  0  0  0
   12.1624   -4.9174   26.1803 C   0  0  0  0  0  0  0  0  0  0  0  0
   13.1323   -3.7732   26.4258 C   0  0  0  0  0  0  0  0  0  0  0  0
   13.5341   -3.1411   25.0994 C   0  0  0  0  0  0  0  0  0  0  0  0
    9.8073    7.8663   24.9579 C   0  0  0  0  0  0  0  0  0  0  0  0
   10.1104    5.4234   25.3813 C   0  0  0  0  0  0  0  0  0  0  0  0
    5.0721    2.4201   22.6615 N   0  0  0  0  0  0  0  0  0  0  0  0
    9.6868    2.1219   23.8742 N   0  0  0  0  0  0  0  0  0  0  0  0
   12.3537   -2.5686   24.4292 N   0  0  0  0  0  0  0  0  0  0  0  0
    6.7415   -2.5079   23.2936 N   0  0  0  0  0  0  0  0  0  0  0  0
    9.8535    6.5017   24.3776 N   0  0  0  0  0  0  0  0  0  0  0  0
    8.3130    0.1015   24.3691 O   0  0  0  0  0  0  0  0  0  0  0  0
    9.5305    0.2678   22.1413 O   0  0  0  0  0  0  0  0  0  0  0  0
    8.2628   -2.7760   21.2297 O   0  0  0  0  0  0  0  0  0  0  0  0
    6.9528   -4.7607   22.0619 O   0  0  0  0  0  0  0  0  0  0  0  0
   13.0940    2.4253   22.1324 F   0  0  0  0  0  0  0  0  0  0  0  0
    8.7688    0.8916   23.2258 S   0  0  0  0  0  0  0  0  0  0  0  0
    7.7038   -3.5433   22.3338 S   0  0  0  0  0  0  0  0  0  0  0  0
  1  5  2  0
  1 10  1  0
  2  6  2  0
  2 14  1  0
  3  4  2  0
  3 16  1  0
  4 18  1  0
  5 20  1  0
  6 19  1  0
  7 13  1  0
  7 16  2  0
  8 15  1  0
  8 21  2  0
  9 17  1  0
  9 19  2  0
 10 27  2  0
 11 20  2  0
 11 27  1  0
 12 15  2  0
 12 28  1  0
 13 18  2  0
 13 21  1  0
 14 17  2  0
 14 22  1  0
 15 26  1  0
 16 29  1  0
 17 29  1  0
 18 36  1  0
 19 38  1  0
 20 37  1  0
 21 28  1  0
 22 23  1  0
 23 24  1  0
 24 29  1  0
 25 31  1  0
 26 31  1  0
 28 37  1  0
 30 38  1  0
 32 37  2  0
 33 37  2  0
 34 38  2  0
 35 38  2  0
M  CHG  1  31   1
M  END
