MAK-UNK-9955b1f3-2
     RDKit          3D

 12 12  0  0  1  0  0  0  0  0999 V2000
   13.1180    0.5837   23.8719 C   0  0  0  0  0  0  0  0  0  0  0  0
   11.6125    0.3552   23.8469 C   0  0  0  0  0  0  0  0  0  0  0  0
   11.5686   -1.7780   22.4968 C   0  0  0  0  0  0  0  0  0  0  0  0
   13.9564   -0.6708   23.6629 C   0  0  0  0  0  0  0  0  0  0  0  0
   12.9533   -1.9436   21.8859 C   0  0  0  0  0  0  0  0  0  0  0  0
    6.6126    0.2594   19.5726 C   0  0  0  0  0  0  0  0  0  0  0  0
    8.0592   -0.1744   19.3828 C   0  0  0  0  0  0  0  0  0  0  0  0
    8.9803    0.3521   20.4768 C   0  0  0  0  0  0  0  0  0  0  0  0
   11.2144    0.4588   21.3455 C   0  0  0  0  0  0  0  0  0  0  0  0
   10.3661   -0.0499   20.2765 N   0  0  0  0  0  0  0  0  0  0  0  0
   11.1149   -0.3475   22.6092 N   0  0  0  0  0  0  0  0  0  0  0  0
   13.9520   -1.0190   22.2878 O   0  0  0  0  0  0  0  0  0  0  0  0
  1  2  1  0
  1  4  1  0
  2 11  1  0
  3  5  1  0
  3 11  1  0
  4 12  1  0
  5 12  1  0
  6  7  1  0
  7  8  1  0
  8 10  1  0
  9 10  1  0
  9 11  1  0
M  CHG  1  11   1
M  END
