MAK-UNK-702fb7d3-21
     RDKit          3D

 43 48  0  0  1  0  0  0  0  0999 V2000
    6.1243   -0.9679   19.5929 C   0  0  0  0  0  0  0  0  0  0  0  0
    7.0767   -5.9549   21.6234 C   0  0  0  0  0  0  0  0  0  0  0  0
    6.8770   -0.0740   18.8315 C   0  0  0  0  0  0  0  0  0  0  0  0
    6.1318   -0.8769   20.9848 C   0  0  0  0  0  0  0  0  0  0  0  0
    6.4937    3.8594   24.9517 C   0  0  0  0  0  0  0  0  0  0  0  0
    6.0330    4.1083   23.6622 C   0  0  0  0  0  0  0  0  0  0  0  0
    5.7292   -5.5975   21.6684 C   0  0  0  0  0  0  0  0  0  0  0  0
    5.9483   -3.2080   28.8680 C   0  0  0  0  0  0  0  0  0  0  0  0
    8.0170   -5.2230   22.3487 C   0  0  0  0  0  0  0  0  0  0  0  0
    7.6373    0.9110   19.4619 C   0  0  0  0  0  0  0  0  0  0  0  0
    6.8921    0.1080   21.6153 C   0  0  0  0  0  0  0  0  0  0  0  0
    7.6027    3.0377   25.1487 C   0  0  0  0  0  0  0  0  0  0  0  0
    6.6814    3.5364   22.5683 C   0  0  0  0  0  0  0  0  0  0  0  0
    5.3219   -4.5082   22.4385 C   0  0  0  0  0  0  0  0  0  0  0  0
    7.0742   -3.6923   28.2114 C   0  0  0  0  0  0  0  0  0  0  0  0
    9.3140   -2.2767   23.4684 C   0  0  0  0  0  0  0  0  0  0  0  0
    4.7221   -3.3411   28.2367 C   0  0  0  0  0  0  0  0  0  0  0  0
    5.6707   -4.3714   26.4155 C   0  0  0  0  0  0  0  0  0  0  0  0
    9.8934   -2.7753   25.5864 C   0  0  0  0  0  0  0  0  0  0  0  0
    7.6097   -4.1337   23.1188 C   0  0  0  0  0  0  0  0  0  0  0  0
   10.1393   -1.8958   24.5552 C   0  0  0  0  0  0  0  0  0  0  0  0
    7.6449    1.0020   20.8538 C   0  0  0  0  0  0  0  0  0  0  0  0
    8.2576    2.4492   24.0572 C   0  0  0  0  0  0  0  0  0  0  0  0
    7.7990    2.7049   22.7523 C   0  0  0  0  0  0  0  0  0  0  0  0
    6.2621   -3.7762   23.1637 C   0  0  0  0  0  0  0  0  0  0  0  0
    6.9414   -4.2864   26.9613 C   0  0  0  0  0  0  0  0  0  0  0  0
    8.5888   -3.3772   23.8687 C   0  0  0  0  0  0  0  0  0  0  0  0
   11.0995   -0.7741   24.6187 C   0  0  0  0  0  0  0  0  0  0  0  0
    9.4737    1.5999   24.3039 C   0  0  0  0  0  0  0  0  0  0  0  0
    9.8990    1.5774   21.8494 C   0  0  0  0  0  0  0  0  0  0  0  0
    8.4765    2.0789   21.5440 C   0  0  0  0  0  0  0  0  0  0  0  0
   12.7382    0.6630   25.5764 C   0  0  0  0  0  0  0  0  0  0  0  0
   11.5423   -0.7468   22.1144 C   0  0  0  0  0  0  0  0  0  0  0  0
   11.2128    0.0762   23.3557 C   0  0  0  0  0  0  0  0  0  0  0  0
    4.5537   -3.9123   27.0231 N   0  0  0  0  0  0  0  0  0  0  0  0
   11.8280   -0.4695   25.6394 N   0  0  0  0  0  0  0  0  0  0  0  0
    8.9489   -3.6712   25.1579 N   0  0  0  0  0  0  0  0  0  0  0  0
    9.8965    0.7613   23.1178 N   0  0  0  0  0  0  0  0  0  0  0  0
    9.4046   -5.2050   27.0694 O   0  0  0  0  0  0  0  0  0  0  0  0
    7.8517   -5.9645   25.2027 O   0  0  0  0  0  0  0  0  0  0  0  0
    5.8544   -2.7317   23.8994 F   0  0  0  0  0  0  0  0  0  0  0  0
    8.3547   -4.9159   26.0931 S   0  0  0  0  0  0  0  0  0  0  0  0
   12.7384   -2.0143   22.4893 Cl  0  0  0  0  0  0  0  0  0  0  0  0
  1  3  2  0
  1  4  1  0
  2  7  2  0
  2  9  1  0
  3 10  1  0
  4 11  2  0
  5  6  2  0
  5 12  1  0
  6 13  1  0
  7 14  1  0
  8 15  2  0
  8 17  1  0
  9 20  2  0
 10 22  2  0
 11 22  1  0
 12 23  2  0
 13 24  2  0
 14 25  2  0
 15 26  1  0
 16 21  1  0
 16 27  2  0
 17 35  2  0
 18 26  2  0
 18 35  1  0
 19 21  2  0
 19 37  1  0
 20 25  1  0
 20 27  1  0
 21 28  1  0
 22 31  1  0
 23 24  1  0
 23 29  1  0
 24 31  1  0
 25 41  1  0
 26 42  1  0
 27 37  1  0
 28 34  1  0
 28 36  2  0
 29 38  1  0
 30 31  1  0
 30 38  1  0
 32 36  1  0
 33 34  1  0
 33 43  1  0
 34 38  1  0
 37 42  1  0
 39 42  2  0
 40 42  2  0
M  CHG  1  38   1
M  END
