MAK-UNK-cd94b63c-1
     RDKit          3D

 24 25  0  0  0  0  0  0  0  0999 V2000
   13.5248   -0.1100   22.2174 C   0  0  0  0  0  0  0  0  0  0  0  0
   13.2176    1.0217   22.9728 C   0  0  0  0  0  0  0  0  0  0  0  0
   12.6134   -1.1628   22.1362 C   0  0  0  0  0  0  0  0  0  0  0  0
   11.0878    0.0476   23.5661 C   0  0  0  0  0  0  0  0  0  0  0  0
   11.9992    1.1004   23.6472 C   0  0  0  0  0  0  0  0  0  0  0  0
   11.3949   -1.0841   22.8106 C   0  0  0  0  0  0  0  0  0  0  0  0
   11.6791    2.2807   24.4342 C   0  0  0  0  0  0  0  0  0  0  0  0
    6.1077   -2.2092   19.2391 C   0  0  0  0  0  0  0  0  0  0  0  0
    6.7645   -2.4448   21.6127 C   0  0  0  0  0  0  0  0  0  0  0  0
    7.8966   -0.7204   20.2644 C   0  0  0  0  0  0  0  0  0  0  0  0
    8.1041   -2.9517   22.1267 C   0  0  0  0  0  0  0  0  0  0  0  0
    9.2541   -1.2005   20.7598 C   0  0  0  0  0  0  0  0  0  0  0  0
    6.9998    2.9955   23.4493 C   0  0  0  0  0  0  0  0  0  0  0  0
   10.4147   -2.2165   22.7235 C   0  0  0  0  0  0  0  0  0  0  0  0
    6.3244   -1.5023   17.9249 C   0  0  0  0  0  0  0  0  0  0  0  0
    8.9460    3.8411   24.7670 C   0  0  0  0  0  0  0  0  0  0  0  0
    9.7935    3.5651   25.9981 C   0  0  0  0  0  0  0  0  0  0  0  0
    6.9109   -1.8059   20.3048 N   0  0  0  0  0  0  0  0  0  0  0  0
    9.0934   -1.8078   22.1356 N   0  0  0  0  0  0  0  0  0  0  0  0
    7.9321    2.7734   24.5882 N   0  0  0  0  0  0  0  0  0  0  0  0
   12.0913    3.4151   24.1830 O   0  0  0  0  0  0  0  0  0  0  0  0
    5.2517   -3.0945   19.3135 O   0  0  0  0  0  0  0  0  0  0  0  0
   10.6817    1.9973   25.8766 S   0  0  0  0  0  0  0  0  0  0  0  0
    5.2140   -2.2324   16.7710 Cl  0  0  0  0  0  0  0  0  0  0  0  0
  1  2  2  0
  1  3  1  0
  2  5  1  0
  3  6  2  0
  4  5  2  0
  4  6  1  0
  5  7  1  0
  6 14  1  0
  7 21  2  0
  7 23  1  0
  8 15  1  0
  8 18  1  0
  8 22  2  0
  9 11  1  0
  9 18  1  0
 10 12  1  0
 10 18  1  0
 11 19  1  0
 12 19  1  0
 13 20  1  0
 14 19  1  0
 15 24  1  0
 16 17  1  0
 16 20  1  0
 17 23  1  0
M  CHG  2  19   1  20   1
M  END
