MAK-UNK-f2409524-33
     RDKit          3D

 27 28  0  0  1  0  0  0  0  0999 V2000
    5.4754    1.2716   18.9588 C   0  0  0  0  0  0  0  0  0  0  0  0
    6.2075    0.9938   17.8158 C   0  0  0  0  0  0  0  0  0  0  0  0
    7.6048   -0.4344   18.9498 C   0  0  0  0  0  0  0  0  0  0  0  0
    5.8543    0.6474   20.1421 C   0  0  0  0  0  0  0  0  0  0  0  0
    6.9383   -0.2233   20.1460 C   0  0  0  0  0  0  0  0  0  0  0  0
    8.4219   -1.7706   21.4611 C   0  0  0  0  0  0  0  0  0  0  0  0
    6.0750    2.8606   22.6048 C   0  0  0  0  0  0  0  0  0  0  0  0
   10.4836    1.9467   23.2006 C   0  0  0  0  0  0  0  0  0  0  0  0
   14.2341   -1.9589   23.5040 C   0  0  0  0  0  0  0  0  0  0  0  0
   13.9868   -0.8569   24.5303 C   0  0  0  0  0  0  0  0  0  0  0  0
   13.9172   -1.4902   22.0867 C   0  0  0  0  0  0  0  0  0  0  0  0
   12.5680   -0.2995   24.4279 C   0  0  0  0  0  0  0  0  0  0  0  0
   12.4981   -0.9342   21.9815 C   0  0  0  0  0  0  0  0  0  0  0  0
   12.2580    0.1804   23.0057 C   0  0  0  0  0  0  0  0  0  0  0  0
    8.5447   -2.2546   22.8841 C   0  0  0  0  0  0  0  0  0  0  0  0
    5.0789    0.9307   21.3962 C   0  0  0  0  0  0  0  0  0  0  0  0
    8.4398    3.3685   23.2716 C   0  0  0  0  0  0  0  0  0  0  0  0
    7.0057    3.1873   23.7600 C   0  0  0  0  0  0  0  0  0  0  0  0
    7.2662    0.1539   17.7806 N   0  0  0  0  0  0  0  0  0  0  0  0
    7.3562   -0.8733   21.3070 N   0  0  0  0  0  0  0  0  0  0  0  0
    5.9133    1.4941   22.4319 N   0  0  0  0  0  0  0  0  0  0  0  0
   10.8719    0.6374   22.9269 N   0  0  0  0  0  0  0  0  0  0  0  0
    9.1087    2.1083   23.0493 N   0  0  0  0  0  0  0  0  0  0  0  0
    6.5622    4.4420   24.4352 N   0  0  0  0  0  0  0  0  0  0  0  0
    9.2012   -2.1579   20.5964 O   0  0  0  0  0  0  0  0  0  0  0  0
    5.5416    3.7270   21.9154 O   0  0  0  0  0  0  0  0  0  0  0  0
   11.2549    2.8459   23.5326 O   0  0  0  0  0  0  0  0  0  0  0  0
  1  2  2  0
  1  4  1  0
  2 19  1  0
  3  5  1  0
  3 19  2  0
  4  5  2  0
  4 16  1  0
  5 20  1  0
  6 15  1  0
  6 20  1  0
  6 25  2  0
  7 18  1  0
  7 21  1  0
  7 26  2  0
  8 22  1  0
  8 23  1  0
  8 27  2  0
  9 10  1  0
  9 11  1  0
 10 12  1  0
 11 13  1  0
 12 14  1  0
 13 14  1  0
 14 22  1  0
 16 21  1  0
 17 18  1  0
 17 23  1  0
 18 24  1  0
M  CHG  1  24   1
M  END
