MAK-UNK-8145c7a0-4
     RDKit          3D

 26 28  0  0  1  0  0  0  0  0999 V2000
   13.6834   -1.7557   26.1707 C   0  0  0  0  0  0  0  0  0  0  0  0
   12.6961   -0.7727   26.2376 C   0  0  0  0  0  0  0  0  0  0  0  0
   13.8557   -2.4926   24.9990 C   0  0  0  0  0  0  0  0  0  0  0  0
   11.8809   -0.5267   25.1327 C   0  0  0  0  0  0  0  0  0  0  0  0
   13.0406   -2.2466   23.8941 C   0  0  0  0  0  0  0  0  0  0  0  0
   12.0532   -1.2636   23.9610 C   0  0  0  0  0  0  0  0  0  0  0  0
    6.4463   -1.1612   18.9467 C   0  0  0  0  0  0  0  0  0  0  0  0
    6.1911   -2.5673   20.8241 C   0  0  0  0  0  0  0  0  0  0  0  0
    6.6157   -6.2655   23.8547 C   0  0  0  0  0  0  0  0  0  0  0  0
    7.2317   -5.2666   24.4998 C   0  0  0  0  0  0  0  0  0  0  0  0
    6.5341   -6.3040   22.3590 C   0  0  0  0  0  0  0  0  0  0  0  0
    7.4642   -5.2835   21.6859 C   0  0  0  0  0  0  0  0  0  0  0  0
    7.8503   -4.1012   23.7811 C   0  0  0  0  0  0  0  0  0  0  0  0
    6.8196   -0.1061   17.9829 C   0  0  0  0  0  0  0  0  0  0  0  0
   11.1716   -0.9981   22.7654 C   0  0  0  0  0  0  0  0  0  0  0  0
    6.2541   -3.2345   22.1676 C   0  0  0  0  0  0  0  0  0  0  0  0
    9.9039   -1.8489   22.7597 C   0  0  0  0  0  0  0  0  0  0  0  0
    5.6228   -2.1579   18.7012 N   0  0  0  0  0  0  0  0  0  0  0  0
    5.4724   -2.9821   19.8027 N   0  0  0  0  0  0  0  0  0  0  0  0
    7.5038   -3.9731   22.3543 N   0  0  0  0  0  0  0  0  0  0  0  0
   10.1927   -3.2943   22.7652 N   0  0  0  0  0  0  0  0  0  0  0  0
    9.9152   -3.6380   25.3146 O   0  0  0  0  0  0  0  0  0  0  0  0
    9.9525   -5.6392   23.7814 O   0  0  0  0  0  0  0  0  0  0  0  0
    7.2555   -5.2876   25.8516 F   0  0  0  0  0  0  0  0  0  0  0  0
    7.1047   -1.1459   20.5304 S   0  0  0  0  0  0  0  0  0  0  0  0
    9.6033   -4.2581   24.0437 S   0  0  0  0  0  0  0  0  0  0  0  0
  1  2  2  0
  1  3  1  0
  2  4  1  0
  3  5  2  0
  4  6  2  0
  5  6  1  0
  6 15  1  0
  7 14  1  0
  7 18  2  0
  7 25  1  0
  8 16  1  0
  8 19  2  0
  8 25  1  0
  9 10  2  0
  9 11  1  0
 10 13  1  0
 10 24  1  0
 11 12  1  0
 12 20  1  0
 13 20  1  0
 13 26  1  0
 15 17  1  0
 16 20  1  0
 17 21  1  0
 18 19  1  0
 21 26  1  0
 22 26  2  0
 23 26  2  0
M  END
