MAK-UNK-01147c51-7
     RDKit          3D

 23 25  0  0  1  0  0  0  0  0999 V2000
    7.5668   -6.5935   22.5080 C   0  0  0  0  0  0  0  0  0  0  0  0
    6.6320   -6.7280   21.4800 C   0  0  0  0  0  0  0  0  0  0  0  0
    8.0971   -5.3364   22.8359 C   0  0  0  0  0  0  0  0  0  0  0  0
    7.7055   -4.2172   22.0767 C   0  0  0  0  0  0  0  0  0  0  0  0
    6.2225   -5.6109   20.7581 C   0  0  0  0  0  0  0  0  0  0  0  0
    6.7565   -4.3588   21.0546 C   0  0  0  0  0  0  0  0  0  0  0  0
    8.2665   -2.8553   22.3915 C   0  0  0  0  0  0  0  0  0  0  0  0
   14.7380   -1.1589   25.5827 C   0  0  0  0  0  0  0  0  0  0  0  0
   14.0251   -0.5745   24.3673 C   0  0  0  0  0  0  0  0  0  0  0  0
   13.7933   -1.9789   26.4559 C   0  0  0  0  0  0  0  0  0  0  0  0
   13.3076   -1.6551   23.5603 C   0  0  0  0  0  0  0  0  0  0  0  0
   13.0760   -3.0602   25.6496 C   0  0  0  0  0  0  0  0  0  0  0  0
    9.1342   -5.1824   23.9347 C   0  0  0  0  0  0  0  0  0  0  0  0
   12.3553   -2.5089   24.4104 C   0  0  0  0  0  0  0  0  0  0  0  0
    9.5876   -2.9793   23.1484 C   0  0  0  0  0  0  0  0  0  0  0  0
    8.8775   -0.7727   24.0917 C   0  0  0  0  0  0  0  0  0  0  0  0
    8.7516   -5.8866   25.2353 C   0  0  0  0  0  0  0  0  0  0  0  0
   11.0896   -1.7353   24.7903 C   0  0  0  0  0  0  0  0  0  0  0  0
   10.0708   -1.6220   23.6392 C   0  0  0  0  0  0  0  0  0  0  0  0
    9.9787   -6.1315   26.0196 N   0  0  0  0  0  0  0  0  0  0  0  0
    9.3684   -3.8087   24.2909 O   0  0  0  0  0  0  0  0  0  0  0  0
    5.3042   -5.7574   19.7627 O   0  0  0  0  0  0  0  0  0  0  0  0
    6.3436   -3.2723   20.3388 O   0  0  0  0  0  0  0  0  0  0  0  0
  1  2  2  0
  1  3  1  0
  2  5  1  0
  3  4  2  0
  3 13  1  0
  4  6  1  0
  4  7  1  0
  5  6  2  0
  5 22  1  0
  6 23  1  0
  7 15  1  0
  8  9  1  0
  8 10  1  0
  9 11  1  0
 10 12  1  0
 11 14  1  0
 12 14  1  0
 13 17  1  0
 13 21  1  0
 14 18  1  0
 15 19  1  0
 15 21  1  0
 16 19  1  0
 17 20  1  0
 18 19  1  0
M  CHG  1  20   1
M  END
