MAK-UNK-af83ef51-24
     RDKit          3D

 30 32  0  0  1  0  0  0  0  0999 V2000
    5.6646   -1.8459   20.2390 C   0  0  0  0  0  0  0  0  0  0  0  0
    6.3387    0.5107   20.2910 C   0  0  0  0  0  0  0  0  0  0  0  0
    7.3225    1.4732   20.4886 C   0  0  0  0  0  0  0  0  0  0  0  0
    7.9553   -1.1658   20.7732 C   0  0  0  0  0  0  0  0  0  0  0  0
    6.6529   -0.8361   20.4341 C   0  0  0  0  0  0  0  0  0  0  0  0
    8.5948    1.0402   20.8254 C   0  0  0  0  0  0  0  0  0  0  0  0
    5.8513   -5.0183   23.8910 C   0  0  0  0  0  0  0  0  0  0  0  0
   12.9317   -2.5830   26.0900 C   0  0  0  0  0  0  0  0  0  0  0  0
   13.4903   -0.2918   25.1803 C   0  0  0  0  0  0  0  0  0  0  0  0
   11.7165   -1.6998   24.0570 C   0  0  0  0  0  0  0  0  0  0  0  0
    7.5140   -3.2240   24.2607 C   0  0  0  0  0  0  0  0  0  0  0  0
    8.1839   -5.1573   22.8872 C   0  0  0  0  0  0  0  0  0  0  0  0
    8.7902   -3.3388   25.0815 C   0  0  0  0  0  0  0  0  0  0  0  0
    9.4719   -5.3003   23.6867 C   0  0  0  0  0  0  0  0  0  0  0  0
   13.3899   -1.1611   26.4409 C   0  0  0  0  0  0  0  0  0  0  0  0
   11.6087   -2.5759   25.3125 C   0  0  0  0  0  0  0  0  0  0  0  0
   12.1700   -0.2738   24.3981 C   0  0  0  0  0  0  0  0  0  0  0  0
   14.7265   -1.1932   27.1805 C   0  0  0  0  0  0  0  0  0  0  0  0
    5.5454   -6.3595   23.2734 C   0  0  0  0  0  0  0  0  0  0  0  0
   11.1943   -3.9990   24.9419 C   0  0  0  0  0  0  0  0  0  0  0  0
   12.3076    0.5656   23.1288 C   0  0  0  0  0  0  0  0  0  0  0  0
   10.9316    1.7074   21.3723 C   0  0  0  0  0  0  0  0  0  0  0  0
    4.8604   -2.6674   20.0802 N   0  0  0  0  0  0  0  0  0  0  0  0
    8.9379   -0.2591   20.9732 N   0  0  0  0  0  0  0  0  0  0  0  0
    7.1370   -4.5177   23.6912 N   0  0  0  0  0  0  0  0  0  0  0  0
    9.5654    2.0121   21.0185 N   0  0  0  0  0  0  0  0  0  0  0  0
    9.8766   -3.9447   24.2213 N   0  0  0  0  0  0  0  0  0  0  0  0
   10.9573    0.9240   22.6501 N   0  0  0  0  0  0  0  0  0  0  0  0
    4.9736   -4.4361   24.5334 O   0  0  0  0  0  0  0  0  0  0  0  0
    5.9948   -7.5762   24.4630 Cl  0  0  0  0  0  0  0  0  0  0  0  0
  1  5  1  0
  1 23  3  0
  2  3  2  0
  2  5  1  0
  3  6  1  0
  4  5  2  0
  4 24  1  0
  6 24  2  0
  6 26  1  0
  7 19  1  0
  7 25  1  0
  7 29  2  0
  8 15  1  0
  8 16  1  0
  9 15  1  0
  9 17  1  0
 10 16  1  0
 10 17  1  0
 11 13  1  0
 11 25  1  0
 12 14  1  0
 12 25  1  0
 13 27  1  0
 14 27  1  0
 15 18  1  0
 16 20  1  0
 17 21  1  0
 19 30  1  0
 20 27  1  0
 21 28  1  0
 22 26  1  0
 22 28  1  0
M  CHG  2  27   1  28   1
M  END
