MAK-UNK-9e4a73aa-30
     RDKit          3D

 27 30  0  0  0  0  0  0  0  0999 V2000
   12.5345    1.1961   23.9803 C   0  0  0  0  0  0  0  0  0  0  0  0
   11.4408    0.9228   24.8017 C   0  0  0  0  0  0  0  0  0  0  0  0
   12.4933    0.8568   22.6280 C   0  0  0  0  0  0  0  0  0  0  0  0
    6.0178    0.3457   17.4992 C   0  0  0  0  0  0  0  0  0  0  0  0
   10.3058    0.3099   24.2707 C   0  0  0  0  0  0  0  0  0  0  0  0
   11.3583    0.2440   22.0970 C   0  0  0  0  0  0  0  0  0  0  0  0
    6.7260   -0.2812   18.5184 C   0  0  0  0  0  0  0  0  0  0  0  0
    7.0020   -3.6849   23.0074 C   0  0  0  0  0  0  0  0  0  0  0  0
    9.4582   -2.6777   23.7951 C   0  0  0  0  0  0  0  0  0  0  0  0
    5.0603    1.2817   17.8554 C   0  0  0  0  0  0  0  0  0  0  0  0
    7.4615   -2.4616   22.4867 C   0  0  0  0  0  0  0  0  0  0  0  0
   10.2645   -0.0295   22.9184 C   0  0  0  0  0  0  0  0  0  0  0  0
    6.4589    0.0426   19.8439 C   0  0  0  0  0  0  0  0  0  0  0  0
    8.6773   -1.9174   22.9012 C   0  0  0  0  0  0  0  0  0  0  0  0
    7.7696   -4.3939   23.9253 C   0  0  0  0  0  0  0  0  0  0  0  0
    9.0054   -3.8959   24.3094 C   0  0  0  0  0  0  0  0  0  0  0  0
    5.4818    0.9923   20.0952 C   0  0  0  0  0  0  0  0  0  0  0  0
    6.6622   -1.7981   21.4418 C   0  0  0  0  0  0  0  0  0  0  0  0
    8.3744    0.0329   21.3781 C   0  0  0  0  0  0  0  0  0  0  0  0
    5.1480    1.3813   21.4992 C   0  0  0  0  0  0  0  0  0  0  0  0
    4.7730    1.6224   19.1317 N   0  0  0  0  0  0  0  0  0  0  0  0
    9.0971   -0.6596   22.3725 N   0  0  0  0  0  0  0  0  0  0  0  0
    7.1924   -0.6060   20.9127 N   0  0  0  0  0  0  0  0  0  0  0  0
    5.6369   -2.3607   21.0612 O   0  0  0  0  0  0  0  0  0  0  0  0
    8.7054    1.1666   21.0061 O   0  0  0  0  0  0  0  0  0  0  0  0
    7.2945   -5.5356   24.4422 F   0  0  0  0  0  0  0  0  0  0  0  0
    9.9889   -4.7767   25.4150 Cl  0  0  0  0  0  0  0  0  0  0  0  0
  1  2  2  0
  1  3  1  0
  2  5  1  0
  3  6  2  0
  4  7  2  0
  4 10  1  0
  5 12  2  0
  6 12  1  0
  7 13  1  0
  8 11  2  0
  8 15  1  0
  9 14  2  0
  9 16  1  0
 10 21  2  0
 11 14  1  0
 11 18  1  0
 12 22  1  0
 13 17  2  0
 13 23  1  0
 14 22  1  0
 15 16  2  0
 15 26  1  0
 16 27  1  0
 17 20  1  0
 17 21  1  0
 18 23  1  0
 18 24  2  0
 19 22  1  0
 19 23  1  0
 19 25  2  0
M  END
