MAK-UNK-8fdbca50-39
     RDKit          3D

 40 43  0  0  1  0  0  0  0  0999 V2000
    5.6666   -6.6364   20.0521 C   0  0  0  0  0  0  0  0  0  0  0  0
    4.6347   -7.3232   20.6918 C   0  0  0  0  0  0  0  0  0  0  0  0
    7.2114   -0.2467   19.8511 C   0  0  0  0  0  0  0  0  0  0  0  0
    6.5574   -5.8641   20.7976 C   0  0  0  0  0  0  0  0  0  0  0  0
    4.4936   -7.2377   22.0768 C   0  0  0  0  0  0  0  0  0  0  0  0
    6.9002   -0.7781   21.0977 C   0  0  0  0  0  0  0  0  0  0  0  0
    8.5356   -5.3544   23.5261 C   0  0  0  0  0  0  0  0  0  0  0  0
    6.8633   -0.9800   18.7282 C   0  0  0  0  0  0  0  0  0  0  0  0
    5.9535   -2.6634   19.9996 C   0  0  0  0  0  0  0  0  0  0  0  0
    8.1946   -3.1740   23.9724 C   0  0  0  0  0  0  0  0  0  0  0  0
    6.4164   -5.7786   22.1826 C   0  0  0  0  0  0  0  0  0  0  0  0
    9.0748   -4.2146   24.1719 C   0  0  0  0  0  0  0  0  0  0  0  0
    5.3845   -6.4654   22.8223 C   0  0  0  0  0  0  0  0  0  0  0  0
    6.2593   -2.0092   21.1821 C   0  0  0  0  0  0  0  0  0  0  0  0
    7.3424   -4.9757   22.9514 C   0  0  0  0  0  0  0  0  0  0  0  0
   11.9336   -2.4757   24.7424 C   0  0  0  0  0  0  0  0  0  0  0  0
    9.5292    2.5317   24.5593 C   0  0  0  0  0  0  0  0  0  0  0  0
   12.3844    0.4116   25.2873 C   0  0  0  0  0  0  0  0  0  0  0  0
   11.4006   -0.1076   23.0263 C   0  0  0  0  0  0  0  0  0  0  0  0
   11.9132    1.8567   25.1333 C   0  0  0  0  0  0  0  0  0  0  0  0
   10.9517    1.3477   22.9175 C   0  0  0  0  0  0  0  0  0  0  0  0
   12.6427   -0.2404   23.9205 C   0  0  0  0  0  0  0  0  0  0  0  0
   15.5454   -3.1847   26.4731 C   0  0  0  0  0  0  0  0  0  0  0  0
   15.4556   -3.7058   24.0043 C   0  0  0  0  0  0  0  0  0  0  0  0
   15.3954   -0.9479   24.3727 C   0  0  0  0  0  0  0  0  0  0  0  0
   10.3684   -4.1508   24.9347 C   0  0  0  0  0  0  0  0  0  0  0  0
    9.4134    3.1463   25.9314 C   0  0  0  0  0  0  0  0  0  0  0  0
   13.0409   -1.7052   24.0837 C   0  0  0  0  0  0  0  0  0  0  0  0
   14.6948   -3.1850   25.2131 C   0  0  0  0  0  0  0  0  0  0  0  0
    6.2401   -2.1790   18.7705 N   0  0  0  0  0  0  0  0  0  0  0  0
   11.4242   -3.5050   24.1609 N   0  0  0  0  0  0  0  0  0  0  0  0
    7.1455   -3.6481   23.2289 N   0  0  0  0  0  0  0  0  0  0  0  0
   10.7480    1.9321   24.2441 N   0  0  0  0  0  0  0  0  0  0  0  0
   14.2586   -1.7686   24.9301 N   0  0  0  0  0  0  0  0  0  0  0  0
    8.5636    2.5818   23.7931 O   0  0  0  0  0  0  0  0  0  0  0  0
    5.7581   -1.6408   23.7387 O   0  0  0  0  0  0  0  0  0  0  0  0
    4.7059   -3.6067   22.5135 O   0  0  0  0  0  0  0  0  0  0  0  0
    5.2354   -6.3936   24.1532 F   0  0  0  0  0  0  0  0  0  0  0  0
    5.8460   -2.7191   22.7546 S   0  0  0  0  0  0  0  0  0  0  0  0
    7.8033    3.8499   26.0339 Cl  0  0  0  0  0  0  0  0  0  0  0  0
  1  2  2  0
  1  4  1  0
  2  5  1  0
  3  6  2  0
  3  8  1  0
  4 11  2  0
  5 13  2  0
  6 14  1  0
  7 12  1  0
  7 15  2  0
  8 30  2  0
  9 14  2  0
  9 30  1  0
 10 12  2  0
 10 32  1  0
 11 13  1  0
 11 15  1  0
 12 26  1  0
 13 38  1  0
 14 39  1  0
 15 32  1  0
 16 28  1  0
 16 31  2  0
 17 27  1  0
 17 33  1  0
 17 35  2  0
 18 20  1  0
 18 22  1  0
 19 21  1  0
 19 22  1  0
 20 33  1  0
 21 33  1  0
 22 28  1  0
 23 29  1  0
 24 29  1  0
 25 34  1  0
 26 31  1  0
 27 40  1  0
 28 34  1  0
 29 34  1  0
 32 39  1  0
 36 39  2  0
 37 39  2  0
M  CHG  1  34   1
M  END
