MAK-UNK-2084232d-9
     RDKit          3D

 24 26  0  0  1  0  0  0  0  0999 V2000
   12.9090   -1.0195   24.0277 C   0  0  0  0  0  0  0  0  0  0  0  0
   13.7967   -1.3742   25.0450 C   0  0  0  0  0  0  0  0  0  0  0  0
   11.7146   -1.7310   23.8371 C   0  0  0  0  0  0  0  0  0  0  0  0
   11.4491   -2.8417   24.6607 C   0  0  0  0  0  0  0  0  0  0  0  0
   13.5094   -2.4511   25.8784 C   0  0  0  0  0  0  0  0  0  0  0  0
   12.3395   -3.1831   25.6883 C   0  0  0  0  0  0  0  0  0  0  0  0
   10.1838   -3.6371   24.4738 C   0  0  0  0  0  0  0  0  0  0  0  0
    6.2752   -5.6560   21.3578 C   0  0  0  0  0  0  0  0  0  0  0  0
   10.7544   -1.3704   22.7170 C   0  0  0  0  0  0  0  0  0  0  0  0
    8.2557   -4.0828   22.9192 C   0  0  0  0  0  0  0  0  0  0  0  0
    9.6283   -3.4414   23.0643 C   0  0  0  0  0  0  0  0  0  0  0  0
    7.0086   -6.2711   22.5442 C   0  0  0  0  0  0  0  0  0  0  0  0
    6.1273   -4.1409   21.5030 C   0  0  0  0  0  0  0  0  0  0  0  0
    8.3759   -5.6082   22.7367 C   0  0  0  0  0  0  0  0  0  0  0  0
    7.4751   -3.4522   21.7482 C   0  0  0  0  0  0  0  0  0  0  0  0
   10.4306    0.1210   22.6500 C   0  0  0  0  0  0  0  0  0  0  0  0
    9.7732    0.5198   23.9108 N   0  0  0  0  0  0  0  0  0  0  0  0
    9.4861   -2.0385   22.8342 O   0  0  0  0  0  0  0  0  0  0  0  0
   14.3823   -2.7801   26.8711 O   0  0  0  0  0  0  0  0  0  0  0  0
   12.0707   -4.2356   26.5150 O   0  0  0  0  0  0  0  0  0  0  0  0
    6.2064   -6.0990   23.7122 O   0  0  0  0  0  0  0  0  0  0  0  0
    5.5499   -3.6477   20.2941 O   0  0  0  0  0  0  0  0  0  0  0  0
    9.0163   -6.1765   23.8767 O   0  0  0  0  0  0  0  0  0  0  0  0
    7.2404   -2.0759   22.0529 O   0  0  0  0  0  0  0  0  0  0  0  0
  1  2  2  0
  1  3  1  0
  2  5  1  0
  3  4  2  0
  3  9  1  0
  4  6  1  0
  4  7  1  0
  5  6  2  0
  5 19  1  0
  6 20  1  0
  7 11  1  0
  8 12  1  0
  8 13  1  0
  9 16  1  0
  9 18  1  0
 10 11  1  0
 10 14  1  0
 10 15  1  0
 11 18  1  0
 12 14  1  0
 12 21  1  0
 13 15  1  0
 13 22  1  0
 14 23  1  0
 15 24  1  0
 16 17  1  0
M  CHG  1  17   1
M  END
