MAK-UNK-8fdbca50-31
     RDKit          3D

 40 43  0  0  0  0  0  0  0  0999 V2000
    9.3207   -4.4394   25.0562 C   0  0  0  0  0  0  0  0  0  0  0  0
    4.2555   -6.4202   30.2992 C   0  0  0  0  0  0  0  0  0  0  0  0
    8.5153   -4.7610   23.9638 C   0  0  0  0  0  0  0  0  0  0  0  0
    8.7445   -3.9417   26.2250 C   0  0  0  0  0  0  0  0  0  0  0  0
    3.9738   -6.4972   28.9398 C   0  0  0  0  0  0  0  0  0  0  0  0
    4.3863   -2.7771   25.0018 C   0  0  0  0  0  0  0  0  0  0  0  0
    5.5609   -6.1495   30.6766 C   0  0  0  0  0  0  0  0  0  0  0  0
    6.2640   -6.0382   28.4922 C   0  0  0  0  0  0  0  0  0  0  0  0
    2.9837   -4.3724   25.7484 C   0  0  0  0  0  0  0  0  0  0  0  0
    6.5575   -4.0870   25.2087 C   0  0  0  0  0  0  0  0  0  0  0  0
    3.0297   -3.0792   25.2765 C   0  0  0  0  0  0  0  0  0  0  0  0
    7.1337   -4.5848   24.0399 C   0  0  0  0  0  0  0  0  0  0  0  0
    7.3629   -3.7655   26.3012 C   0  0  0  0  0  0  0  0  0  0  0  0
    4.9916   -6.3039   28.0124 C   0  0  0  0  0  0  0  0  0  0  0  0
    5.1280   -3.8950   25.3139 C   0  0  0  0  0  0  0  0  0  0  0  0
    6.0361   -3.9828   21.8849 C   0  0  0  0  0  0  0  0  0  0  0  0
    7.5164   -0.0905   18.9322 C   0  0  0  0  0  0  0  0  0  0  0  0
    7.9111   -2.3655   21.6397 C   0  0  0  0  0  0  0  0  0  0  0  0
    5.5009   -1.5619   21.5495 C   0  0  0  0  0  0  0  0  0  0  0  0
    7.9749   -2.2110   20.1212 C   0  0  0  0  0  0  0  0  0  0  0  0
    5.6459   -1.4143   20.0342 C   0  0  0  0  0  0  0  0  0  0  0  0
    6.4817   -2.5742   22.1499 C   0  0  0  0  0  0  0  0  0  0  0  0
    6.4738   -6.9188   21.4854 C   0  0  0  0  0  0  0  0  0  0  0  0
    4.3893   -6.4035   22.8026 C   0  0  0  0  0  0  0  0  0  0  0  0
    0.5819   -0.2339   25.9799 C   0  0  0  0  0  0  0  0  0  0  0  0
    1.8774   -2.1762   25.0920 C   0  0  0  0  0  0  0  0  0  0  0  0
    6.4923    0.9299   18.5034 C   0  0  0  0  0  0  0  0  0  0  0  0
    5.9091   -6.3356   22.7726 C   0  0  0  0  0  0  0  0  0  0  0  0
    6.5761   -5.9558   29.8051 N   0  0  0  0  0  0  0  0  0  0  0  0
    4.2649   -4.8586   25.7665 N   0  0  0  0  0  0  0  0  0  0  0  0
    7.0450   -1.1785   19.6656 N   0  0  0  0  0  0  0  0  0  0  0  0
    6.3254   -4.9294   22.8876 N   0  0  0  0  0  0  0  0  0  0  0  0
    1.7718   -1.1069   26.1321 N   0  0  0  0  0  0  0  0  0  0  0  0
    5.4265   -4.2068   20.8361 O   0  0  0  0  0  0  0  0  0  0  0  0
    8.6996    0.0773   18.6253 O   0  0  0  0  0  0  0  0  0  0  0  0
    5.9241   -6.7102   25.5859 O   0  0  0  0  0  0  0  0  0  0  0  0
    3.4967   -7.2570   26.1165 O   0  0  0  0  0  0  0  0  0  0  0  0
    6.8263   -3.2868   27.4335 F   0  0  0  0  0  0  0  0  0  0  0  0
    4.6706   -6.3944   26.2699 S   0  0  0  0  0  0  0  0  0  0  0  0
    7.3672    2.1892   17.6393 Cl  0  0  0  0  0  0  0  0  0  0  0  0
  1  3  2  0
  1  4  1  0
  2  5  2  0
  2  7  1  0
  3 12  1  0
  4 13  2  0
  5 14  1  0
  6 11  1  0
  6 15  2  0
  7 29  2  0
  8 14  2  0
  8 29  1  0
  9 11  2  0
  9 30  1  0
 10 12  2  0
 10 13  1  0
 10 15  1  0
 11 26  1  0
 12 32  1  0
 13 38  1  0
 14 39  1  0
 15 30  1  0
 16 22  1  0
 16 32  1  0
 16 34  2  0
 17 27  1  0
 17 31  1  0
 17 35  2  0
 18 20  1  0
 18 22  1  0
 19 21  1  0
 19 22  1  0
 20 31  1  0
 21 31  1  0
 23 28  1  0
 24 28  1  0
 25 33  1  0
 26 33  1  0
 27 40  1  0
 28 32  1  0
 30 39  1  0
 36 39  2  0
 37 39  2  0
M  CHG  1  33   1
M  END
