MAK-UNK-f2409524-28
     RDKit          3D

 26 28  0  0  1  0  0  0  0  0999 V2000
    6.5823    1.8070   19.2274 C   0  0  0  0  0  0  0  0  0  0  0  0
    6.8431    1.3352   17.9510 C   0  0  0  0  0  0  0  0  0  0  0  0
    7.9261   -0.5216   18.7620 C   0  0  0  0  0  0  0  0  0  0  0  0
    7.0306    1.0512   20.3049 C   0  0  0  0  0  0  0  0  0  0  0  0
    7.7163   -0.1366   20.0763 C   0  0  0  0  0  0  0  0  0  0  0  0
    8.8854   -2.1408   21.0461 C   0  0  0  0  0  0  0  0  0  0  0  0
   11.5204    1.9609   23.3396 C   0  0  0  0  0  0  0  0  0  0  0  0
   14.6362   -2.4553   23.6031 C   0  0  0  0  0  0  0  0  0  0  0  0
   14.4809   -1.3855   24.6803 C   0  0  0  0  0  0  0  0  0  0  0  0
   14.4794   -1.8709   22.2021 C   0  0  0  0  0  0  0  0  0  0  0  0
    8.5369    3.9261   24.1868 C   0  0  0  0  0  0  0  0  0  0  0  0
    7.3979    3.3455   23.3452 C   0  0  0  0  0  0  0  0  0  0  0  0
   13.1639   -0.6253   24.5338 C   0  0  0  0  0  0  0  0  0  0  0  0
   13.1621   -1.1118   22.0527 C   0  0  0  0  0  0  0  0  0  0  0  0
    9.8887    3.8214   23.4934 C   0  0  0  0  0  0  0  0  0  0  0  0
    9.0982    1.6025   22.6533 C   0  0  0  0  0  0  0  0  0  0  0  0
    7.8895    2.4343   22.2113 C   0  0  0  0  0  0  0  0  0  0  0  0
   13.0158   -0.0305   23.1290 C   0  0  0  0  0  0  0  0  0  0  0  0
    9.2141   -2.6857   22.4134 C   0  0  0  0  0  0  0  0  0  0  0  0
    6.7619    1.5400   21.7016 C   0  0  0  0  0  0  0  0  0  0  0  0
    7.5058    0.1863   17.6896 N   0  0  0  0  0  0  0  0  0  0  0  0
   10.2046    2.4294   23.1613 N   0  0  0  0  0  0  0  0  0  0  0  0
    8.1851   -0.9291   21.1237 N   0  0  0  0  0  0  0  0  0  0  0  0
   11.7155    0.6246   23.0016 N   0  0  0  0  0  0  0  0  0  0  0  0
    9.2265   -2.7411   20.0321 O   0  0  0  0  0  0  0  0  0  0  0  0
   12.4355    2.6711   23.7671 O   0  0  0  0  0  0  0  0  0  0  0  0
  1  2  2  0
  1  4  1  0
  2 21  1  0
  3  5  1  0
  3 21  2  0
  4  5  2  0
  4 20  1  0
  5 23  1  0
  6 19  1  0
  6 23  1  0
  6 25  2  0
  7 22  1  0
  7 24  1  0
  7 26  2  0
  8  9  1  0
  8 10  1  0
  9 13  1  0
 10 14  1  0
 11 12  1  0
 11 15  1  0
 12 17  1  0
 13 18  1  0
 14 18  1  0
 15 22  1  0
 16 17  1  0
 16 22  1  0
 17 20  1  0
 18 24  1  0
M  END
