MAK-UNK-902cc841-9
     RDKit          3D

 34 37  0  0  1  0  0  0  0  0999 V2000
    6.5011   -5.8047   21.6606 C   0  0  0  0  0  0  0  0  0  0  0  0
   11.0437   -2.7311   22.7815 C   0  0  0  0  0  0  0  0  0  0  0  0
    7.7014   -5.9137   22.3627 C   0  0  0  0  0  0  0  0  0  0  0  0
    5.3287   -5.4594   22.3329 C   0  0  0  0  0  0  0  0  0  0  0  0
   10.9425   -1.7924   23.8486 C   0  0  0  0  0  0  0  0  0  0  0  0
   10.2056   -2.4166   21.7344 C   0  0  0  0  0  0  0  0  0  0  0  0
    7.7294   -5.6774   23.7371 C   0  0  0  0  0  0  0  0  0  0  0  0
    5.3567   -5.2230   23.7073 C   0  0  0  0  0  0  0  0  0  0  0  0
    6.5570   -5.3320   24.4094 C   0  0  0  0  0  0  0  0  0  0  0  0
   10.0309   -0.7960   23.5764 C   0  0  0  0  0  0  0  0  0  0  0  0
   12.7713    4.8589   23.5350 C   0  0  0  0  0  0  0  0  0  0  0  0
    8.1764    0.4056   24.8243 C   0  0  0  0  0  0  0  0  0  0  0  0
    8.4989   -1.4899   26.4901 C   0  0  0  0  0  0  0  0  0  0  0  0
    6.2951   -1.0659   25.4726 C   0  0  0  0  0  0  0  0  0  0  0  0
    8.3611   -2.9762   26.1745 C   0  0  0  0  0  0  0  0  0  0  0  0
    6.1513   -2.5492   25.1509 C   0  0  0  0  0  0  0  0  0  0  0  0
   11.7413    2.8821   22.4613 C   0  0  0  0  0  0  0  0  0  0  0  0
   10.4139    4.1146   24.1322 C   0  0  0  0  0  0  0  0  0  0  0  0
   11.4106    1.5620   23.1420 C   0  0  0  0  0  0  0  0  0  0  0  0
   10.0613    2.8119   24.8375 C   0  0  0  0  0  0  0  0  0  0  0  0
   12.6343    5.9745   24.5401 C   0  0  0  0  0  0  0  0  0  0  0  0
    9.6352    0.3832   24.4434 C   0  0  0  0  0  0  0  0  0  0  0  0
   11.6860    3.9924   23.4123 N   0  0  0  0  0  0  0  0  0  0  0  0
    7.7057   -0.6846   25.5540 N   0  0  0  0  0  0  0  0  0  0  0  0
    6.9144   -3.3499   26.1553 N   0  0  0  0  0  0  0  0  0  0  0  0
   10.0690    1.6845   23.8295 N   0  0  0  0  0  0  0  0  0  0  0  0
   13.8131    4.7606   22.8816 O   0  0  0  0  0  0  0  0  0  0  0  0
    7.4776    1.3622   24.4806 O   0  0  0  0  0  0  0  0  0  0  0  0
    5.2596   -5.2599   26.6644 O   0  0  0  0  0  0  0  0  0  0  0  0
    7.7344   -5.7310   26.6983 O   0  0  0  0  0  0  0  0  0  0  0  0
    8.8888   -5.7859   24.4010 F   0  0  0  0  0  0  0  0  0  0  0  0
    4.2237   -4.8912   24.3420 F   0  0  0  0  0  0  0  0  0  0  0  0
    9.3018   -0.9946   22.0398 S   0  0  0  0  0  0  0  0  0  0  0  0
    6.5923   -5.0328   26.1487 S   0  0  0  0  0  0  0  0  0  0  0  0
  1  3  2  0
  1  4  1  0
  2  5  1  0
  2  6  2  0
  3  7  1  0
  4  8  2  0
  5 10  2  0
  6 33  1  0
  7  9  2  0
  7 31  1  0
  8  9  1  0
  8 32  1  0
  9 34  1  0
 10 22  1  0
 10 33  1  0
 11 21  1  0
 11 23  1  0
 11 27  2  0
 12 22  1  0
 12 24  1  0
 12 28  2  0
 13 15  1  0
 13 24  1  0
 14 16  1  0
 14 24  1  0
 15 25  1  0
 16 25  1  0
 17 19  1  0
 17 23  1  0
 18 20  1  0
 18 23  1  0
 19 26  1  0
 20 26  1  0
 22 26  1  0
 25 34  1  0
 29 34  2  0
 30 34  2  0
M  CHG  1  26   1
M  END
