MAK-UNK-0d6072ac-7
     RDKit          3D

 19 21  0  0  1  0  0  0  0  0999 V2000
   10.0942   -4.4456   24.4188 C   0  0  0  0  0  0  0  0  0  0  0  0
   11.2670   -3.7796   24.7921 C   0  0  0  0  0  0  0  0  0  0  0  0
    7.1543   -5.3598   22.9937 C   0  0  0  0  0  0  0  0  0  0  0  0
   10.7770   -1.9564   23.2647 C   0  0  0  0  0  0  0  0  0  0  0  0
    6.4852   -3.3157   21.1976 C   0  0  0  0  0  0  0  0  0  0  0  0
    9.2452   -3.8633   23.4542 C   0  0  0  0  0  0  0  0  0  0  0  0
    8.0052   -4.2520   22.8551 C   0  0  0  0  0  0  0  0  0  0  0  0
   11.6012   -2.5532   24.2226 C   0  0  0  0  0  0  0  0  0  0  0  0
    9.6074   -2.6341   22.9017 C   0  0  0  0  0  0  0  0  0  0  0  0
    7.6479   -3.2493   21.9543 C   0  0  0  0  0  0  0  0  0  0  0  0
    6.0104   -5.3595   22.2067 C   0  0  0  0  0  0  0  0  0  0  0  0
   12.5186   -0.4345   25.1266 C   0  0  0  0  0  0  0  0  0  0  0  0
   13.6663   -2.6821   25.6574 C   0  0  0  0  0  0  0  0  0  0  0  0
   12.8582   -1.8640   24.6402 C   0  0  0  0  0  0  0  0  0  0  0  0
    5.6677   -4.3851   21.3341 N   0  0  0  0  0  0  0  0  0  0  0  0
    8.6276   -2.2876   22.0011 N   0  0  0  0  0  0  0  0  0  0  0  0
   11.7538   -0.3929   26.1344 O   0  0  0  0  0  0  0  0  0  0  0  0
   13.0336    0.5198   24.4796 O   0  0  0  0  0  0  0  0  0  0  0  0
    4.8927   -6.6619   22.2908 Cl  0  0  0  0  0  0  0  0  0  0  0  0
  1  2  2  0
  1  6  1  0
  2  8  1  0
  3  7  2  0
  3 11  1  0
  4  8  2  0
  4  9  1  0
  5 10  2  0
  5 15  1  0
  6  7  1  0
  6  9  2  0
  7 10  1  0
  8 14  1  0
  9 16  1  0
 10 16  1  0
 11 15  2  0
 11 19  1  0
 12 14  1  0
 12 17  1  0
 12 18  2  0
 13 14  1  0
M  CHG  1  17  -1
M  END
