MAK-UNK-1bb0b7ee-5
     RDKit          3D

 30 34  0  0  0  0  0  0  0  0999 V2000
    9.3756   -4.5413   25.9005 C   0  0  0  0  0  0  0  0  0  0  0  0
    6.1086    1.1913   17.8257 C   0  0  0  0  0  0  0  0  0  0  0  0
    4.9526    1.4541   18.5643 C   0  0  0  0  0  0  0  0  0  0  0  0
    9.8516   -3.5611   26.7713 C   0  0  0  0  0  0  0  0  0  0  0  0
    8.8027    3.9717   24.1662 C   0  0  0  0  0  0  0  0  0  0  0  0
    8.0719    3.6252   23.0353 C   0  0  0  0  0  0  0  0  0  0  0  0
    9.0505   -4.2078   24.5857 C   0  0  0  0  0  0  0  0  0  0  0  0
    7.1378    0.4014   18.3533 C   0  0  0  0  0  0  0  0  0  0  0  0
    4.7822    0.9389   19.8536 C   0  0  0  0  0  0  0  0  0  0  0  0
   10.0025   -2.2475   26.3273 C   0  0  0  0  0  0  0  0  0  0  0  0
    9.8811    3.1862   24.5580 C   0  0  0  0  0  0  0  0  0  0  0  0
    8.4570    2.4926   22.3361 C   0  0  0  0  0  0  0  0  0  0  0  0
    9.2013   -2.8942   24.1416 C   0  0  0  0  0  0  0  0  0  0  0  0
    6.9835   -0.1242   19.6472 C   0  0  0  0  0  0  0  0  0  0  0  0
    5.8201    0.1550   20.3587 C   0  0  0  0  0  0  0  0  0  0  0  0
    9.6774   -1.9140   25.0124 C   0  0  0  0  0  0  0  0  0  0  0  0
   10.1851    2.0732   23.7908 C   0  0  0  0  0  0  0  0  0  0  0  0
    7.2030   -1.1202   21.5232 C   0  0  0  0  0  0  0  0  0  0  0  0
   13.4459    0.1083   23.4765 C   0  0  0  0  0  0  0  0  0  0  0  0
   13.7735    1.0604   24.6209 C   0  0  0  0  0  0  0  0  0  0  0  0
   12.0495    0.4912   22.9941 C   0  0  0  0  0  0  0  0  0  0  0  0
   12.5601    1.9736   24.7718 C   0  0  0  0  0  0  0  0  0  0  0  0
   11.3636    1.1866   24.1915 C   0  0  0  0  0  0  0  0  0  0  0  0
    8.8481   -2.5554   22.7313 C   0  0  0  0  0  0  0  0  0  0  0  0
   10.8533    0.1440   25.2072 C   0  0  0  0  0  0  0  0  0  0  0  0
    9.4985    1.7049   22.6860 N   0  0  0  0  0  0  0  0  0  0  0  0
    7.8305   -0.9177   20.3865 N   0  0  0  0  0  0  0  0  0  0  0  0
    5.9877   -0.4946   21.5547 N   0  0  0  0  0  0  0  0  0  0  0  0
    7.5959   -1.8500   22.6361 N   0  0  0  0  0  0  0  0  0  0  0  0
    9.8311   -0.6154   24.5915 O   0  0  0  0  0  0  0  0  0  0  0  0
  1  4  2  0
  1  7  1  0
  2  3  2  0
  2  8  1  0
  3  9  1  0
  4 10  1  0
  5  6  2  0
  5 11  1  0
  6 12  1  0
  7 13  2  0
  8 14  2  0
  9 15  2  0
 10 16  2  0
 11 17  2  0
 12 26  2  0
 13 16  1  0
 13 24  1  0
 14 15  1  0
 14 27  1  0
 15 28  1  0
 16 30  1  0
 17 23  1  0
 17 26  1  0
 18 27  2  0
 18 28  1  0
 18 29  1  0
 19 20  1  0
 19 21  1  0
 20 22  1  0
 21 23  1  0
 22 23  1  0
 23 25  1  0
 24 29  1  0
 25 30  1  0
M  END
