MAK-UNK-8fdbca50-8
     RDKit          3D

 40 43  0  0  1  0  0  0  0  0999 V2000
    5.2103    0.8186   18.6198 C   0  0  0  0  0  0  0  0  0  0  0  0
    4.6317    1.1196   19.8528 C   0  0  0  0  0  0  0  0  0  0  0  0
    6.4511    0.1834   18.5680 C   0  0  0  0  0  0  0  0  0  0  0  0
    5.2940    0.7855   21.0340 C   0  0  0  0  0  0  0  0  0  0  0  0
    7.7031   -4.7142   22.0229 C   0  0  0  0  0  0  0  0  0  0  0  0
    7.4561   -4.9694   23.3672 C   0  0  0  0  0  0  0  0  0  0  0  0
    9.6547   -0.2404   19.6520 C   0  0  0  0  0  0  0  0  0  0  0  0
    6.0840   -2.9742   22.1095 C   0  0  0  0  0  0  0  0  0  0  0  0
    9.8894   -2.4794   19.6075 C   0  0  0  0  0  0  0  0  0  0  0  0
    7.1134   -0.1507   19.7493 C   0  0  0  0  0  0  0  0  0  0  0  0
   10.5966   -1.2974   19.5996 C   0  0  0  0  0  0  0  0  0  0  0  0
    6.5349    0.1504   20.9824 C   0  0  0  0  0  0  0  0  0  0  0  0
    7.0081   -3.6992   21.3746 C   0  0  0  0  0  0  0  0  0  0  0  0
    8.4005   -0.8087   19.6905 C   0  0  0  0  0  0  0  0  0  0  0  0
    6.5120   -4.1874   24.0129 C   0  0  0  0  0  0  0  0  0  0  0  0
    7.2382   -2.3235   26.3382 C   0  0  0  0  0  0  0  0  0  0  0  0
   10.5681    0.6116   23.8169 C   0  0  0  0  0  0  0  0  0  0  0  0
    9.6422   -2.2629   25.6989 C   0  0  0  0  0  0  0  0  0  0  0  0
    8.5224   -0.2045   26.6851 C   0  0  0  0  0  0  0  0  0  0  0  0
    9.5692   -1.5934   24.3278 C   0  0  0  0  0  0  0  0  0  0  0  0
    8.5015    0.4094   25.2846 C   0  0  0  0  0  0  0  0  0  0  0  0
    8.5793   -1.7355   26.6680 C   0  0  0  0  0  0  0  0  0  0  0  0
    4.7724   -4.1016   25.8455 C   0  0  0  0  0  0  0  0  0  0  0  0
    7.9793   -4.5512   27.1950 C   0  0  0  0  0  0  0  0  0  0  0  0
   14.2217   -1.2820   20.7995 C   0  0  0  0  0  0  0  0  0  0  0  0
   12.0647   -1.1592   19.5461 C   0  0  0  0  0  0  0  0  0  0  0  0
   10.5126    2.1064   24.0074 C   0  0  0  0  0  0  0  0  0  0  0  0
    6.2156   -4.4381   25.4757 C   0  0  0  0  0  0  0  0  0  0  0  0
    5.8170   -3.1929   23.4166 N   0  0  0  0  0  0  0  0  0  0  0  0
    8.5554   -2.1701   19.6632 N   0  0  0  0  0  0  0  0  0  0  0  0
    9.5836   -0.1372   24.4603 N   0  0  0  0  0  0  0  0  0  0  0  0
    7.1486   -3.7159   26.3370 N   0  0  0  0  0  0  0  0  0  0  0  0
   12.7514   -1.4757   20.8363 N   0  0  0  0  0  0  0  0  0  0  0  0
    6.2949   -1.5683   26.0881 O   0  0  0  0  0  0  0  0  0  0  0  0
   11.4616    0.1258   23.1184 O   0  0  0  0  0  0  0  0  0  0  0  0
    7.9009   -4.4905   19.0295 O   0  0  0  0  0  0  0  0  0  0  0  0
    6.1163   -2.6818   19.1594 O   0  0  0  0  0  0  0  0  0  0  0  0
    7.1587   -0.1643   22.1271 F   0  0  0  0  0  0  0  0  0  0  0  0
    7.2906   -3.3498   19.6930 S   0  0  0  0  0  0  0  0  0  0  0  0
   11.8782    2.7780   23.1233 Cl  0  0  0  0  0  0  0  0  0  0  0  0
  1  2  2  0
  1  3  1  0
  2  4  1  0
  3 10  2  0
  4 12  2  0
  5  6  2  0
  5 13  1  0
  6 15  1  0
  7 11  1  0
  7 14  2  0
  8 13  2  0
  8 29  1  0
  9 11  2  0
  9 30  1  0
 10 12  1  0
 10 14  1  0
 11 26  1  0
 12 38  1  0
 13 39  1  0
 14 30  1  0
 15 28  1  0
 15 29  2  0
 16 22  1  0
 16 32  1  0
 16 34  2  0
 17 27  1  0
 17 31  1  0
 17 35  2  0
 18 20  1  0
 18 22  1  0
 19 21  1  0
 19 22  1  0
 20 31  1  0
 21 31  1  0
 23 28  1  0
 24 32  1  0
 25 33  1  0
 26 33  1  0
 27 40  1  0
 28 32  1  0
 30 39  1  0
 36 39  2  0
 37 39  2  0
M  CHG  1  33   1
M  END
