MAK-UNK-9e4a73aa-17
     RDKit          3D

 26 29  0  0  0  0  0  0  0  0999 V2000
    7.3462    0.3414   26.3625 C   0  0  0  0  0  0  0  0  0  0  0  0
    8.5903   -0.0340   26.8572 C   0  0  0  0  0  0  0  0  0  0  0  0
    5.0418    1.4370   18.8747 C   0  0  0  0  0  0  0  0  0  0  0  0
    5.3073    0.5822   19.9387 C   0  0  0  0  0  0  0  0  0  0  0  0
    6.9025   -0.1732   25.1494 C   0  0  0  0  0  0  0  0  0  0  0  0
    6.6780   -4.9080   21.6399 C   0  0  0  0  0  0  0  0  0  0  0  0
    7.1984   -3.8898   24.1618 C   0  0  0  0  0  0  0  0  0  0  0  0
    5.8320    1.3273   17.7418 C   0  0  0  0  0  0  0  0  0  0  0  0
    9.3463   -0.9199   26.1065 C   0  0  0  0  0  0  0  0  0  0  0  0
    7.0722   -0.3733   18.6626 C   0  0  0  0  0  0  0  0  0  0  0  0
    6.8090   -3.5198   21.8260 C   0  0  0  0  0  0  0  0  0  0  0  0
    6.3403   -0.3431   19.8387 C   0  0  0  0  0  0  0  0  0  0  0  0
    7.1115   -2.9898   23.0805 C   0  0  0  0  0  0  0  0  0  0  0  0
    6.8160   -5.7800   22.7145 C   0  0  0  0  0  0  0  0  0  0  0  0
    7.0631   -5.2690   23.9796 C   0  0  0  0  0  0  0  0  0  0  0  0
    7.7341   -1.0527   24.4751 C   0  0  0  0  0  0  0  0  0  0  0  0
    6.5523   -2.6300   20.6799 C   0  0  0  0  0  0  0  0  0  0  0  0
    7.0466   -0.6715   22.1660 C   0  0  0  0  0  0  0  0  0  0  0  0
    6.8440    0.4411   17.6079 N   0  0  0  0  0  0  0  0  0  0  0  0
    8.9488   -1.4408   24.9240 N   0  0  0  0  0  0  0  0  0  0  0  0
    7.2665   -1.5780   23.2246 N   0  0  0  0  0  0  0  0  0  0  0  0
    6.6417   -1.2475   20.9306 N   0  0  0  0  0  0  0  0  0  0  0  0
    6.2139   -3.1480   19.6170 O   0  0  0  0  0  0  0  0  0  0  0  0
    7.2823    0.5380   22.2876 O   0  0  0  0  0  0  0  0  0  0  0  0
    6.6858   -7.0992   22.5161 F   0  0  0  0  0  0  0  0  0  0  0  0
    7.2098   -6.3290   25.3287 Cl  0  0  0  0  0  0  0  0  0  0  0  0
  1  2  2  0
  1  5  1  0
  2  9  1  0
  3  4  2  0
  3  8  1  0
  4 12  1  0
  5 16  2  0
  6 11  2  0
  6 14  1  0
  7 13  2  0
  7 15  1  0
  8 19  2  0
  9 20  2  0
 10 12  2  0
 10 19  1  0
 11 13  1  0
 11 17  1  0
 12 22  1  0
 13 21  1  0
 14 15  2  0
 14 25  1  0
 15 26  1  0
 16 20  1  0
 16 21  1  0
 17 22  1  0
 17 23  2  0
 18 21  1  0
 18 22  1  0
 18 24  2  0
M  END
