MAK-UNK-37f1d6fa-4
     RDKit          3D

 31 34  0  0  0  0  0  0  0  0999 V2000
   14.5385   -1.7693   23.8915 C   0  0  0  0  0  0  0  0  0  0  0  0
   13.6516   -1.2113   24.8121 C   0  0  0  0  0  0  0  0  0  0  0  0
   14.1731   -1.8800   22.5498 C   0  0  0  0  0  0  0  0  0  0  0  0
    9.7807    6.8261   22.7216 C   0  0  0  0  0  0  0  0  0  0  0  0
   12.3992   -0.7641   24.3912 C   0  0  0  0  0  0  0  0  0  0  0  0
   12.9207   -1.4328   22.1289 C   0  0  0  0  0  0  0  0  0  0  0  0
   10.2839    6.2792   23.9055 C   0  0  0  0  0  0  0  0  0  0  0  0
    5.9412    0.9690   19.3237 C   0  0  0  0  0  0  0  0  0  0  0  0
    8.1959    5.1110   24.3214 C   0  0  0  0  0  0  0  0  0  0  0  0
    6.4035    0.5289   18.0939 C   0  0  0  0  0  0  0  0  0  0  0  0
    8.4097   -0.1441   18.9885 C   0  0  0  0  0  0  0  0  0  0  0  0
    6.4804    6.3067   21.3234 C   0  0  0  0  0  0  0  0  0  0  0  0
    7.6670    5.6505   23.1321 C   0  0  0  0  0  0  0  0  0  0  0  0
    6.7820    0.8307   20.4225 C   0  0  0  0  0  0  0  0  0  0  0  0
    6.4148    5.5415   22.4649 C   0  0  0  0  0  0  0  0  0  0  0  0
    8.4699    6.4939   22.3612 C   0  0  0  0  0  0  0  0  0  0  0  0
   12.0337   -0.8748   23.0496 C   0  0  0  0  0  0  0  0  0  0  0  0
    8.0415    0.2646   20.2602 C   0  0  0  0  0  0  0  0  0  0  0  0
    9.5055    5.4346   24.6946 C   0  0  0  0  0  0  0  0  0  0  0  0
    6.3072    1.2951   21.7514 C   0  0  0  0  0  0  0  0  0  0  0  0
   10.2261   -0.4501   21.3260 C   0  0  0  0  0  0  0  0  0  0  0  0
    5.2483    4.7509   22.9081 C   0  0  0  0  0  0  0  0  0  0  0  0
    5.5356    3.2476   23.0737 C   0  0  0  0  0  0  0  0  0  0  0  0
    7.6204   -0.0261   17.8973 N   0  0  0  0  0  0  0  0  0  0  0  0
    7.7239    6.8770   21.2694 N   0  0  0  0  0  0  0  0  0  0  0  0
   10.7633   -0.4210   22.6229 N   0  0  0  0  0  0  0  0  0  0  0  0
    8.9222    0.1032   21.3299 N   0  0  0  0  0  0  0  0  0  0  0  0
    5.9858    2.6435   21.8484 N   0  0  0  0  0  0  0  0  0  0  0  0
    6.2429    0.4932   22.6794 O   0  0  0  0  0  0  0  0  0  0  0  0
   10.7958   -0.8883   20.3317 O   0  0  0  0  0  0  0  0  0  0  0  0
   10.0163    4.9247   25.8236 F   0  0  0  0  0  0  0  0  0  0  0  0
  1  2  2  0
  1  3  1  0
  2  5  1  0
  3  6  2  0
  4  7  2  0
  4 16  1  0
  5 17  2  0
  6 17  1  0
  7 19  1  0
  8 10  2  0
  8 14  1  0
  9 13  1  0
  9 19  2  0
 10 24  1  0
 11 18  1  0
 11 24  2  0
 12 15  2  0
 12 25  1  0
 13 15  1  0
 13 16  2  0
 14 18  2  0
 14 20  1  0
 15 22  1  0
 16 25  1  0
 17 26  1  0
 18 27  1  0
 19 31  1  0
 20 28  1  0
 20 29  2  0
 21 26  1  0
 21 27  1  0
 21 30  2  0
 22 23  1  0
 23 28  1  0
M  END
