MAK-UNK-a7992eb3-16
     RDKit          3D

 19 21  0  0  0  0  0  0  0  0999 V2000
    8.6586   -2.0234   22.5324 C   0  0  0  0  0  0  0  0  0  0  0  0
    8.6391   -2.4093   23.8680 C   0  0  0  0  0  0  0  0  0  0  0  0
    9.6866   -1.2129   22.0637 C   0  0  0  0  0  0  0  0  0  0  0  0
   10.0987    5.9027   22.9388 C   0  0  0  0  0  0  0  0  0  0  0  0
    9.6626   -1.9616   24.6876 C   0  0  0  0  0  0  0  0  0  0  0  0
    9.2880    6.8066   23.5894 C   0  0  0  0  0  0  0  0  0  0  0  0
   11.2951    6.2557   24.9000 C   0  0  0  0  0  0  0  0  0  0  0  0
   11.2614    5.5834   23.6980 C   0  0  0  0  0  0  0  0  0  0  0  0
   10.6632   -0.8185   22.9641 C   0  0  0  0  0  0  0  0  0  0  0  0
   11.1535    1.7897   24.0106 C   0  0  0  0  0  0  0  0  0  0  0  0
   13.3830    1.6749   22.8292 C   0  0  0  0  0  0  0  0  0  0  0  0
   10.6494    2.7614   22.9490 C   0  0  0  0  0  0  0  0  0  0  0  0
   12.8649    2.6456   21.7738 C   0  0  0  0  0  0  0  0  0  0  0  0
   12.2558    0.8747   23.4809 C   0  0  0  0  0  0  0  0  0  0  0  0
   12.3234    4.6278   23.2398 C   0  0  0  0  0  0  0  0  0  0  0  0
   10.6778   -1.1733   24.2685 N   0  0  0  0  0  0  0  0  0  0  0  0
   11.7922    3.5406   22.3450 N   0  0  0  0  0  0  0  0  0  0  0  0
   11.6862   -0.0195   22.5265 O   0  0  0  0  0  0  0  0  0  0  0  0
    9.9289    7.2666   25.1093 S   0  0  0  0  0  0  0  0  0  0  0  0
  1  2  2  0
  1  3  1  0
  2  5  1  0
  3  9  2  0
  4  6  2  0
  4  8  1  0
  5 16  2  0
  6 19  1  0
  7  8  2  0
  7 19  1  0
  8 15  1  0
  9 16  1  0
  9 18  1  0
 10 12  1  0
 10 14  1  0
 11 13  1  0
 11 14  1  0
 12 17  1  0
 13 17  1  0
 14 18  1  0
 15 17  1  0
M  CHG  1  17   1
M  END
