MAK-UNK-a7992eb3-25
     RDKit          3D

 37 40  0  0  1  0  0  0  0  0999 V2000
   13.1362    0.4935   23.6622 C   0  0  0  0  0  0  0  0  0  0  0  0
   12.9501    1.5548   23.1326 C   0  0  0  0  0  0  0  0  0  0  0  0
    4.7253    0.9420   18.4865 C   0  0  0  0  0  0  0  0  0  0  0  0
   10.1703    5.6990   26.0178 C   0  0  0  0  0  0  0  0  0  0  0  0
   10.8028    6.4794   25.0472 C   0  0  0  0  0  0  0  0  0  0  0  0
    5.8202    0.1784   18.0818 C   0  0  0  0  0  0  0  0  0  0  0  0
    4.8262    1.7670   19.6067 C   0  0  0  0  0  0  0  0  0  0  0  0
    8.3781   -2.0796   22.4019 C   0  0  0  0  0  0  0  0  0  0  0  0
   10.5937   -1.5796   21.5783 C   0  0  0  0  0  0  0  0  0  0  0  0
    9.1514    4.8027   25.6713 C   0  0  0  0  0  0  0  0  0  0  0  0
   10.4420    6.3935   23.6985 C   0  0  0  0  0  0  0  0  0  0  0  0
    7.0159    0.2397   18.7973 C   0  0  0  0  0  0  0  0  0  0  0  0
    7.9038   -0.8907   21.8478 C   0  0  0  0  0  0  0  0  0  0  0  0
   10.1193   -0.3907   21.0241 C   0  0  0  0  0  0  0  0  0  0  0  0
    9.7231   -2.4241   22.2672 C   0  0  0  0  0  0  0  0  0  0  0  0
    6.0220    1.8284   20.3222 C   0  0  0  0  0  0  0  0  0  0  0  0
    8.7760    4.7037   24.3209 C   0  0  0  0  0  0  0  0  0  0  0  0
    9.4249    5.4944   23.3766 C   0  0  0  0  0  0  0  0  0  0  0  0
    8.7744   -0.0462   21.1588 C   0  0  0  0  0  0  0  0  0  0  0  0
    7.1169    1.0647   19.9176 C   0  0  0  0  0  0  0  0  0  0  0  0
    7.8805    4.2125   22.4457 C   0  0  0  0  0  0  0  0  0  0  0  0
    9.7120   -5.2519   25.7897 C   0  0  0  0  0  0  0  0  0  0  0  0
   12.1496   -2.9741   24.3138 C   0  0  0  0  0  0  0  0  0  0  0  0
    9.9657   -6.5697   26.4434 C   0  0  0  0  0  0  0  0  0  0  0  0
   13.3675   -0.7982   24.3076 C   0  0  0  0  0  0  0  0  0  0  0  0
   10.2363   -3.7107   22.8662 C   0  0  0  0  0  0  0  0  0  0  0  0
    6.1117    2.7166   21.5188 C   0  0  0  0  0  0  0  0  0  0  0  0
   10.7331   -3.5376   24.3061 C   0  0  0  0  0  0  0  0  0  0  0  0
    7.8202    3.9140   23.7241 N   0  0  0  0  0  0  0  0  0  0  0  0
    8.8320    5.1595   22.1863 N   0  0  0  0  0  0  0  0  0  0  0  0
    7.1410    3.7148   21.3822 N   0  0  0  0  0  0  0  0  0  0  0  0
   12.1567   -1.5865   24.3431 N   0  0  0  0  0  0  0  0  0  0  0  0
   10.7672   -4.7867   25.0244 N   0  0  0  0  0  0  0  0  0  0  0  0
    8.6367   -4.6898   25.9606 O   0  0  0  0  0  0  0  0  0  0  0  0
   13.1521   -3.6831   24.2555 O   0  0  0  0  0  0  0  0  0  0  0  0
    8.3111    1.1132   20.6171 O   0  0  0  0  0  0  0  0  0  0  0  0
   12.6555    3.2344   22.2943 Br  0  0  0  0  0  0  0  0  0  0  0  0
  1  2  3  0
  1 25  1  0
  2 37  1  0
  3  6  2  0
  3  7  1  0
  4  5  2  0
  4 10  1  0
  5 11  1  0
  6 12  1  0
  7 16  2  0
  8 13  2  0
  8 15  1  0
  9 14  1  0
  9 15  2  0
 10 17  2  0
 11 18  2  0
 12 20  2  0
 13 19  1  0
 14 19  2  0
 15 26  1  0
 16 20  1  0
 16 27  1  0
 17 18  1  0
 17 29  1  0
 18 30  1  0
 19 36  1  0
 20 36  1  0
 21 29  2  0
 21 30  1  0
 21 31  1  0
 22 24  1  0
 22 33  1  0
 22 34  2  0
 23 28  1  0
 23 32  1  0
 23 35  2  0
 25 32  1  0
 26 28  1  0
 27 31  1  0
 28 33  1  0
M  END
