MAK-UNK-a7992eb3-14
     RDKit          3D

 27 28  0  0  1  0  0  0  0  0999 V2000
    7.1883    5.0335   22.1568 C   0  0  0  0  0  0  0  0  0  0  0  0
    6.4453    4.2274   22.6464 C   0  0  0  0  0  0  0  0  0  0  0  0
    7.8001   -2.3832   25.4284 C   0  0  0  0  0  0  0  0  0  0  0  0
    7.7681   -3.4003   26.3569 C   0  0  0  0  0  0  0  0  0  0  0  0
    9.4388   -3.8071   24.5983 C   0  0  0  0  0  0  0  0  0  0  0  0
    8.7678   -2.6188   24.4095 C   0  0  0  0  0  0  0  0  0  0  0  0
   11.6247    7.3251   25.6746 C   0  0  0  0  0  0  0  0  0  0  0  0
    9.7062    6.0455   23.4427 C   0  0  0  0  0  0  0  0  0  0  0  0
    9.5323    2.1072   23.2153 C   0  0  0  0  0  0  0  0  0  0  0  0
   11.2725    1.0592   24.6994 C   0  0  0  0  0  0  0  0  0  0  0  0
    9.1783    0.7344   22.6654 C   0  0  0  0  0  0  0  0  0  0  0  0
   10.9144   -0.3113   24.1462 C   0  0  0  0  0  0  0  0  0  0  0  0
   10.9802    2.1691   23.6927 C   0  0  0  0  0  0  0  0  0  0  0  0
   11.7917    7.3565   27.1576 C   0  0  0  0  0  0  0  0  0  0  0  0
   13.1416    4.2920   23.2007 C   0  0  0  0  0  0  0  0  0  0  0  0
    8.0897    6.0167   21.5575 C   0  0  0  0  0  0  0  0  0  0  0  0
    9.0249   -1.6812   23.2669 C   0  0  0  0  0  0  0  0  0  0  0  0
   11.1814    5.8095   23.7539 C   0  0  0  0  0  0  0  0  0  0  0  0
   11.6278    4.4002   23.3383 C   0  0  0  0  0  0  0  0  0  0  0  0
    9.4252    5.8917   22.0925 N   0  0  0  0  0  0  0  0  0  0  0  0
   11.3758    6.0649   25.1583 N   0  0  0  0  0  0  0  0  0  0  0  0
    9.4667   -0.3147   23.7138 N   0  0  0  0  0  0  0  0  0  0  0  0
   11.7121    8.3664   25.0345 O   0  0  0  0  0  0  0  0  0  0  0  0
    8.8707    6.2983   24.3083 O   0  0  0  0  0  0  0  0  0  0  0  0
   11.2090    3.4376   24.2954 O   0  0  0  0  0  0  0  0  0  0  0  0
    8.9016   -4.6329   25.9989 S   0  0  0  0  0  0  0  0  0  0  0  0
    5.2695    2.9515   23.4211 Br  0  0  0  0  0  0  0  0  0  0  0  0
  1  2  3  0
  1 16  1  0
  2 27  1  0
  3  4  2  0
  3  6  1  0
  4 26  1  0
  5  6  2  0
  5 26  1  0
  6 17  1  0
  7 14  1  0
  7 21  1  0
  7 23  2  0
  8 18  1  0
  8 20  1  0
  8 24  2  0
  9 11  1  0
  9 13  1  0
 10 12  1  0
 10 13  1  0
 11 22  1  0
 12 22  1  0
 13 25  1  0
 15 19  1  0
 16 20  1  0
 17 22  1  0
 18 19  1  0
 18 21  1  0
 19 25  1  0
M  CHG  1  22   1
M  END
