MAK-UNK-9a6be56d-18
     RDKit          3D

 38 42  0  0  0  0  0  0  0  0999 V2000
   12.2618    6.6297   24.0212 C   0  0  0  0  0  0  0  0  0  0  0  0
   11.7101    7.1334   25.1990 C   0  0  0  0  0  0  0  0  0  0  0  0
   13.6462   -0.7157   22.6452 C   0  0  0  0  0  0  0  0  0  0  0  0
   11.6698    5.5389   23.3844 C   0  0  0  0  0  0  0  0  0  0  0  0
    8.0964   -5.0931   24.3007 C   0  0  0  0  0  0  0  0  0  0  0  0
   13.0374   -1.9250   22.9806 C   0  0  0  0  0  0  0  0  0  0  0  0
   10.5663    6.5464   25.7402 C   0  0  0  0  0  0  0  0  0  0  0  0
   13.1507    0.4815   23.1619 C   0  0  0  0  0  0  0  0  0  0  0  0
    7.2949   -4.3532   23.4379 C   0  0  0  0  0  0  0  0  0  0  0  0
    8.9378    3.8182   22.2921 C   0  0  0  0  0  0  0  0  0  0  0  0
   11.4374   -0.7400   24.3492 C   0  0  0  0  0  0  0  0  0  0  0  0
    9.1377   -2.8414   23.0528 C   0  0  0  0  0  0  0  0  0  0  0  0
    9.4987    1.6835   22.7375 C   0  0  0  0  0  0  0  0  0  0  0  0
   10.5261    4.9519   23.9256 C   0  0  0  0  0  0  0  0  0  0  0  0
    9.4234   -4.7057   24.5573 C   0  0  0  0  0  0  0  0  0  0  0  0
    8.6739    2.4664   21.9603 C   0  0  0  0  0  0  0  0  0  0  0  0
   11.9329   -1.9371   23.8325 C   0  0  0  0  0  0  0  0  0  0  0  0
    9.9713   -3.5596   23.9337 C   0  0  0  0  0  0  0  0  0  0  0  0
    9.9743    5.4556   25.1035 C   0  0  0  0  0  0  0  0  0  0  0  0
   12.0463    0.4694   24.0138 C   0  0  0  0  0  0  0  0  0  0  0  0
    7.8165   -3.2289   22.8122 C   0  0  0  0  0  0  0  0  0  0  0  0
    9.9161    3.8202   23.2618 C   0  0  0  0  0  0  0  0  0  0  0  0
   10.2516   -5.5739   25.4701 C   0  0  0  0  0  0  0  0  0  0  0  0
   11.4923   -4.8444   25.9584 C   0  0  0  0  0  0  0  0  0  0  0  0
   12.1952   -4.1746   24.7845 C   0  0  0  0  0  0  0  0  0  0  0  0
    5.2949    1.5347   20.4451 C   0  0  0  0  0  0  0  0  0  0  0  0
    7.6959    1.9844   20.9660 C   0  0  0  0  0  0  0  0  0  0  0  0
   10.2496    2.5171   23.5245 N   0  0  0  0  0  0  0  0  0  0  0  0
   11.3148   -3.1645   24.1722 N   0  0  0  0  0  0  0  0  0  0  0  0
    6.1236   -1.1701   22.8072 N   0  0  0  0  0  0  0  0  0  0  0  0
    6.2742    2.0718   21.4214 N   0  0  0  0  0  0  0  0  0  0  0  0
   10.6348    1.7140   25.8527 O   0  0  0  0  0  0  0  0  0  0  0  0
   12.4958    2.9493   24.6347 O   0  0  0  0  0  0  0  0  0  0  0  0
    7.6890   -1.5822   20.8009 O   0  0  0  0  0  0  0  0  0  0  0  0
    5.7657   -3.1579   21.2080 O   0  0  0  0  0  0  0  0  0  0  0  0
    8.8749    4.9025   25.6365 F   0  0  0  0  0  0  0  0  0  0  0  0
   11.4279    1.9676   24.6632 S   0  0  0  0  0  0  0  0  0  0  0  0
    6.8184   -2.2950   21.7250 S   0  0  0  0  0  0  0  0  0  0  0  0
  1  2  2  0
  1  4  1  0
  2  7  1  0
  3  6  2  0
  3  8  1  0
  4 14  2  0
  5  9  2  0
  5 15  1  0
  6 17  1  0
  7 19  2  0
  8 20  2  0
  9 21  1  0
 10 16  1  0
 10 22  2  0
 11 17  2  0
 11 20  1  0
 12 18  1  0
 12 21  2  0
 13 16  2  0
 13 28  1  0
 14 19  1  0
 14 22  1  0
 15 18  2  0
 15 23  1  0
 16 27  1  0
 17 29  1  0
 18 29  1  0
 19 36  1  0
 20 37  1  0
 21 38  1  0
 22 28  1  0
 23 24  1  0
 24 25  1  0
 25 29  1  0
 26 31  1  0
 27 31  1  0
 28 37  1  0
 30 38  1  0
 32 37  2  0
 33 37  2  0
 34 38  2  0
 35 38  2  0
M  CHG  1  31   1
M  END
