MAK-UNK-8fdbca50-40
     RDKit          3D

 40 43  0  0  1  0  0  0  0  0999 V2000
    7.4788   -6.3649   21.0158 C   0  0  0  0  0  0  0  0  0  0  0  0
    6.9324   -6.9419   22.1621 C   0  0  0  0  0  0  0  0  0  0  0  0
    5.9352   -0.8989   17.6999 C   0  0  0  0  0  0  0  0  0  0  0  0
    7.9859   -5.0663   21.0624 C   0  0  0  0  0  0  0  0  0  0  0  0
    6.8930   -6.2202   23.3551 C   0  0  0  0  0  0  0  0  0  0  0  0
    6.0119   -0.7926   19.0841 C   0  0  0  0  0  0  0  0  0  0  0  0
    9.7544   -2.5854   22.5904 C   0  0  0  0  0  0  0  0  0  0  0  0
    5.8578   -2.1685   17.1503 C   0  0  0  0  0  0  0  0  0  0  0  0
    5.9281   -3.1656   19.2189 C   0  0  0  0  0  0  0  0  0  0  0  0
    8.5039   -0.7627   22.1612 C   0  0  0  0  0  0  0  0  0  0  0  0
    7.9464   -4.3446   22.2554 C   0  0  0  0  0  0  0  0  0  0  0  0
    9.7740   -1.1714   22.5035 C   0  0  0  0  0  0  0  0  0  0  0  0
    7.4000   -4.9215   23.4017 C   0  0  0  0  0  0  0  0  0  0  0  0
    6.0090   -1.9428   19.8654 C   0  0  0  0  0  0  0  0  0  0  0  0
    8.4729   -2.9977   22.2985 C   0  0  0  0  0  0  0  0  0  0  0  0
   12.1911    2.1469   23.9101 C   0  0  0  0  0  0  0  0  0  0  0  0
    9.0469    6.1023   23.1827 C   0  0  0  0  0  0  0  0  0  0  0  0
   11.9175    4.5284   24.5773 C   0  0  0  0  0  0  0  0  0  0  0  0
    9.9416    2.9317   24.6741 C   0  0  0  0  0  0  0  0  0  0  0  0
   11.3171    5.1269   23.3064 C   0  0  0  0  0  0  0  0  0  0  0  0
    9.3925    3.5933   23.4094 C   0  0  0  0  0  0  0  0  0  0  0  0
   11.4585    3.0874   24.8222 C   0  0  0  0  0  0  0  0  0  0  0  0
   15.0190    0.9606   23.8117 C   0  0  0  0  0  0  0  0  0  0  0  0
   14.0541   -1.3202   24.1242 C   0  0  0  0  0  0  0  0  0  0  0  0
   12.6826    0.7735   25.9451 C   0  0  0  0  0  0  0  0  0  0  0  0
   10.9587   -0.2818   22.7403 C   0  0  0  0  0  0  0  0  0  0  0  0
    7.5584    5.8608   23.1871 C   0  0  0  0  0  0  0  0  0  0  0  0
   13.7398    0.1196   23.6880 C   0  0  0  0  0  0  0  0  0  0  0  0
   12.5060    0.7279   24.4211 C   0  0  0  0  0  0  0  0  0  0  0  0
    5.8523   -3.3086   17.8767 N   0  0  0  0  0  0  0  0  0  0  0  0
    7.7215   -1.8813   22.0389 N   0  0  0  0  0  0  0  0  0  0  0  0
    9.8625    4.9776   23.3000 N   0  0  0  0  0  0  0  0  0  0  0  0
   11.2985   -0.1385   24.1725 N   0  0  0  0  0  0  0  0  0  0  0  0
   12.5325    2.5234   22.7864 O   0  0  0  0  0  0  0  0  0  0  0  0
    9.4699    7.2567   23.0801 O   0  0  0  0  0  0  0  0  0  0  0  0
    5.6272   -0.5294   22.0516 O   0  0  0  0  0  0  0  0  0  0  0  0
    5.4749   -3.0674   22.1430 O   0  0  0  0  0  0  0  0  0  0  0  0
    7.3547   -4.2409   24.5565 F   0  0  0  0  0  0  0  0  0  0  0  0
    6.1054   -1.8470   21.6343 S   0  0  0  0  0  0  0  0  0  0  0  0
    6.7916    7.4402   23.0638 Cl  0  0  0  0  0  0  0  0  0  0  0  0
  1  2  2  0
  1  4  1  0
  2  5  1  0
  3  6  2  0
  3  8  1  0
  4 11  2  0
  5 13  2  0
  6 14  1  0
  7 12  1  0
  7 15  2  0
  8 30  2  0
  9 14  2  0
  9 30  1  0
 10 12  2  0
 10 31  1  0
 11 13  1  0
 11 15  1  0
 12 26  1  0
 13 38  1  0
 14 39  1  0
 15 31  1  0
 16 22  1  0
 16 29  1  0
 16 34  2  0
 17 27  1  0
 17 32  1  0
 17 35  2  0
 18 20  1  0
 18 22  1  0
 19 21  1  0
 19 22  1  0
 20 32  1  0
 21 32  1  0
 23 28  1  0
 24 28  1  0
 25 29  1  0
 26 33  1  0
 27 40  1  0
 28 29  1  0
 29 33  1  0
 31 39  1  0
 36 39  2  0
 37 39  2  0
M  CHG  1  33   1
M  END
