MAK-UNK-60abb798-8
     RDKit          3D

 20 22  0  0  1  0  0  0  0  0999 V2000
    7.6912   -6.0188   22.4779 C   0  0  0  0  0  0  0  0  0  0  0  0
    6.6692   -5.7246   21.5737 C   0  0  0  0  0  0  0  0  0  0  0  0
    8.5719   -5.0181   22.9160 C   0  0  0  0  0  0  0  0  0  0  0  0
    8.4370   -3.7193   22.3896 C   0  0  0  0  0  0  0  0  0  0  0  0
    6.5199   -4.4298   21.0858 C   0  0  0  0  0  0  0  0  0  0  0  0
    7.4000   -3.4293   21.4919 C   0  0  0  0  0  0  0  0  0  0  0  0
    9.3748   -2.6246   22.8264 C   0  0  0  0  0  0  0  0  0  0  0  0
   12.9982   -0.9548   26.2976 C   0  0  0  0  0  0  0  0  0  0  0  0
   11.6861   -0.3571   25.7993 C   0  0  0  0  0  0  0  0  0  0  0  0
   13.7455   -1.6771   25.1809 C   0  0  0  0  0  0  0  0  0  0  0  0
   10.8072   -1.4092   25.1268 C   0  0  0  0  0  0  0  0  0  0  0  0
   12.8701   -2.7313   24.5072 C   0  0  0  0  0  0  0  0  0  0  0  0
    9.7034   -5.3326   23.8791 C   0  0  0  0  0  0  0  0  0  0  0  0
   11.5528   -2.1319   23.9967 C   0  0  0  0  0  0  0  0  0  0  0  0
   10.6723   -3.2147   23.3757 C   0  0  0  0  0  0  0  0  0  0  0  0
    9.2577   -6.1359   25.0997 C   0  0  0  0  0  0  0  0  0  0  0  0
   10.4400   -6.4170   25.9389 N   0  0  0  0  0  0  0  0  0  0  0  0
   10.3350   -4.1506   24.4012 O   0  0  0  0  0  0  0  0  0  0  0  0
    5.5133   -4.1571   20.2095 O   0  0  0  0  0  0  0  0  0  0  0  0
    7.2396   -2.1637   21.0061 O   0  0  0  0  0  0  0  0  0  0  0  0
  1  2  2  0
  1  3  1  0
  2  5  1  0
  3  4  2  0
  3 13  1  0
  4  6  1  0
  4  7  1  0
  5  6  2  0
  5 19  1  0
  6 20  1  0
  7 15  1  0
  8  9  1  0
  8 10  1  0
  9 11  1  0
 10 12  1  0
 11 14  1  0
 12 14  1  0
 13 16  1  0
 13 18  1  0
 14 15  1  0
 15 18  1  0
 16 17  1  0
M  CHG  1  17   1
M  END
