MAK-UNK-e4a48a85-27
     RDKit          3D

 28 30  0  0  0  0  0  0  0  0999 V2000
    7.5606   -4.3546   25.3076 C   0  0  0  0  0  0  0  0  0  0  0  0
    7.5260   -3.8848   23.9947 C   0  0  0  0  0  0  0  0  0  0  0  0
    6.4312   -4.9559   25.8632 C   0  0  0  0  0  0  0  0  0  0  0  0
    5.2326   -4.6174   23.7930 C   0  0  0  0  0  0  0  0  0  0  0  0
    6.3620   -4.0161   23.2375 C   0  0  0  0  0  0  0  0  0  0  0  0
    5.2672   -5.0873   25.1059 C   0  0  0  0  0  0  0  0  0  0  0  0
    6.5394   -1.4017   20.6259 C   0  0  0  0  0  0  0  0  0  0  0  0
    7.2034   -0.2299   20.5114 C   0  0  0  0  0  0  0  0  0  0  0  0
    6.0828   -2.0569   19.3572 C   0  0  0  0  0  0  0  0  0  0  0  0
    7.0903   -0.1800   18.2323 C   0  0  0  0  0  0  0  0  0  0  0  0
   12.6578    0.2592   24.1656 C   0  0  0  0  0  0  0  0  0  0  0  0
   10.2842   -0.4137   24.3515 C   0  0  0  0  0  0  0  0  0  0  0  0
   11.3547   -0.5468   22.1358 C   0  0  0  0  0  0  0  0  0  0  0  0
    9.0937    0.3227   23.7549 C   0  0  0  0  0  0  0  0  0  0  0  0
   10.1786    0.1865   21.5051 C   0  0  0  0  0  0  0  0  0  0  0  0
    7.3630    0.4459   16.8955 C   0  0  0  0  0  0  0  0  0  0  0  0
    6.3247   -3.5099   21.8245 C   0  0  0  0  0  0  0  0  0  0  0  0
    7.7111    0.5244   21.6854 C   0  0  0  0  0  0  0  0  0  0  0  0
   13.8550    0.4608   23.2714 C   0  0  0  0  0  0  0  0  0  0  0  0
    7.4888    0.4005   19.3175 N   0  0  0  0  0  0  0  0  0  0  0  0
    6.4051   -1.3692   18.2071 N   0  0  0  0  0  0  0  0  0  0  0  0
   11.4909   -0.1959   23.5535 N   0  0  0  0  0  0  0  0  0  0  0  0
    6.2246   -2.0773   21.7690 N   0  0  0  0  0  0  0  0  0  0  0  0
    8.9297   -0.0943   22.3104 N   0  0  0  0  0  0  0  0  0  0  0  0
    5.4713   -3.1224   19.3625 O   0  0  0  0  0  0  0  0  0  0  0  0
   12.7580    0.5020   25.3711 O   0  0  0  0  0  0  0  0  0  0  0  0
    4.1654   -5.6746   25.6479 O   0  0  0  0  0  0  0  0  0  0  0  0
   15.1526    1.0654   24.2954 Cl  0  0  0  0  0  0  0  0  0  0  0  0
  1  2  2  0
  1  3  1  0
  2  5  1  0
  3  6  2  0
  4  5  2  0
  4  6  1  0
  5 17  1  0
  6 27  1  0
  7  8  2  0
  7  9  1  0
  7 23  1  0
  8 18  1  0
  8 20  1  0
  9 21  1  0
  9 25  2  0
 10 16  1  0
 10 20  2  0
 10 21  1  0
 11 19  1  0
 11 22  1  0
 11 26  2  0
 12 14  1  0
 12 22  1  0
 13 15  1  0
 13 22  1  0
 14 24  1  0
 15 24  1  0
 17 23  1  0
 18 24  1  0
 19 28  1  0
M  CHG  1  24   1
M  END
