MAK-UNK-af83ef51-23
     RDKit          3D

 30 32  0  0  1  0  0  0  0  0999 V2000
    6.5727    2.8890   25.0111 C   0  0  0  0  0  0  0  0  0  0  0  0
    7.0248    1.7562   27.1378 C   0  0  0  0  0  0  0  0  0  0  0  0
    6.6982    0.7760   28.0683 C   0  0  0  0  0  0  0  0  0  0  0  0
    5.1925    1.0297   25.8068 C   0  0  0  0  0  0  0  0  0  0  0  0
    6.2626    1.8921   25.9829 C   0  0  0  0  0  0  0  0  0  0  0  0
    5.6084   -0.0363   27.7990 C   0  0  0  0  0  0  0  0  0  0  0  0
    6.3216   -1.3483   19.4046 C   0  0  0  0  0  0  0  0  0  0  0  0
    9.8017   -4.9430   25.5305 C   0  0  0  0  0  0  0  0  0  0  0  0
    8.3922   -4.9935   27.6307 C   0  0  0  0  0  0  0  0  0  0  0  0
    7.8021   -3.4084   25.7455 C   0  0  0  0  0  0  0  0  0  0  0  0
    6.2735   -2.9429   21.2956 C   0  0  0  0  0  0  0  0  0  0  0  0
    7.2798   -0.7259   21.6767 C   0  0  0  0  0  0  0  0  0  0  0  0
    7.4800   -3.6219   21.9274 C   0  0  0  0  0  0  0  0  0  0  0  0
    8.5014   -1.3718   22.3164 C   0  0  0  0  0  0  0  0  0  0  0  0
    9.2638   -5.8184   26.6726 C   0  0  0  0  0  0  0  0  0  0  0  0
    8.6705   -4.2259   24.7781 C   0  0  0  0  0  0  0  0  0  0  0  0
    7.2691   -4.2883   26.8738 C   0  0  0  0  0  0  0  0  0  0  0  0
   10.4125   -6.4848   27.4276 C   0  0  0  0  0  0  0  0  0  0  0  0
    6.7352    0.0106   18.8987 C   0  0  0  0  0  0  0  0  0  0  0  0
    9.2380   -3.3318   23.6768 C   0  0  0  0  0  0  0  0  0  0  0  0
    4.4753   -2.1786   28.3925 C   0  0  0  0  0  0  0  0  0  0  0  0
    5.1660   -3.0236   27.3387 C   0  0  0  0  0  0  0  0  0  0  0  0
    6.8250    3.7002   24.2205 N   0  0  0  0  0  0  0  0  0  0  0  0
    4.8445    0.0655   26.6883 N   0  0  0  0  0  0  0  0  0  0  0  0
    6.6377   -1.6439   20.7298 N   0  0  0  0  0  0  0  0  0  0  0  0
    5.3004   -0.9950   28.7220 N   0  0  0  0  0  0  0  0  0  0  0  0
    8.0956   -2.6866   22.9440 N   0  0  0  0  0  0  0  0  0  0  0  0
    6.5078   -3.4376   27.8273 N   0  0  0  0  0  0  0  0  0  0  0  0
    5.7378   -2.1233   18.6426 O   0  0  0  0  0  0  0  0  0  0  0  0
    5.3776    1.0918   19.1920 Cl  0  0  0  0  0  0  0  0  0  0  0  0
  1  5  1  0
  1 23  3  0
  2  3  2  0
  2  5  1  0
  3  6  1  0
  4  5  2  0
  4 24  1  0
  6 24  2  0
  6 26  1  0
  7 19  1  0
  7 25  1  0
  7 29  2  0
  8 15  1  0
  8 16  1  0
  9 15  1  0
  9 17  1  0
 10 16  1  0
 10 17  1  0
 11 13  1  0
 11 25  1  0
 12 14  1  0
 12 25  1  0
 13 27  1  0
 14 27  1  0
 15 18  1  0
 16 20  1  0
 17 28  1  0
 19 30  1  0
 20 27  1  0
 21 22  1  0
 21 26  1  0
 22 28  1  0
M  CHG  2  27   1  28   1
M  END
