MAK-UNK-8fdbca50-27
     RDKit          3D

 40 43  0  0  0  0  0  0  0  0999 V2000
    7.4699   -2.2017   25.8330 C   0  0  0  0  0  0  0  0  0  0  0  0
   10.3602    1.5824   25.9265 C   0  0  0  0  0  0  0  0  0  0  0  0
    8.8249   -2.4211   26.0806 C   0  0  0  0  0  0  0  0  0  0  0  0
    6.8271   -2.8950   24.8073 C   0  0  0  0  0  0  0  0  0  0  0  0
   10.4177    0.3933   25.2083 C   0  0  0  0  0  0  0  0  0  0  0  0
   11.5197   -4.4760   26.4078 C   0  0  0  0  0  0  0  0  0  0  0  0
   11.5511    2.2408   26.1873 C   0  0  0  0  0  0  0  0  0  0  0  0
   12.7803    0.6392   25.0909 C   0  0  0  0  0  0  0  0  0  0  0  0
   13.1572   -3.2874   25.4202 C   0  0  0  0  0  0  0  0  0  0  0  0
    9.5373   -3.3335   25.3025 C   0  0  0  0  0  0  0  0  0  0  0  0
   12.9232   -4.3058   26.3176 C   0  0  0  0  0  0  0  0  0  0  0  0
    7.5396   -3.8074   24.0291 C   0  0  0  0  0  0  0  0  0  0  0  0
    8.8946   -4.0267   24.2767 C   0  0  0  0  0  0  0  0  0  0  0  0
   11.6470   -0.0943   24.7789 C   0  0  0  0  0  0  0  0  0  0  0  0
   10.9387   -3.5566   25.5625 C   0  0  0  0  0  0  0  0  0  0  0  0
    6.2607   -3.8439   21.8903 C   0  0  0  0  0  0  0  0  0  0  0  0
    7.3456    0.2350   18.4234 C   0  0  0  0  0  0  0  0  0  0  0  0
    7.9209   -2.5633   20.5810 C   0  0  0  0  0  0  0  0  0  0  0  0
    5.6479   -1.5852   21.0640 C   0  0  0  0  0  0  0  0  0  0  0  0
    8.3989   -1.1756   20.1620 C   0  0  0  0  0  0  0  0  0  0  0  0
    6.1727   -0.2166   20.6348 C   0  0  0  0  0  0  0  0  0  0  0  0
    6.7785   -2.4699   21.5962 C   0  0  0  0  0  0  0  0  0  0  0  0
    7.6406   -6.4990   21.7588 C   0  0  0  0  0  0  0  0  0  0  0  0
    5.5306   -6.5522   23.1339 C   0  0  0  0  0  0  0  0  0  0  0  0
   15.6549   -6.8964   26.9565 C   0  0  0  0  0  0  0  0  0  0  0  0
   13.9469   -5.0763   27.0495 C   0  0  0  0  0  0  0  0  0  0  0  0
    6.1534    1.0563   18.0023 C   0  0  0  0  0  0  0  0  0  0  0  0
    6.9406   -5.9932   23.0119 C   0  0  0  0  0  0  0  0  0  0  0  0
   12.7640    1.7983   25.7866 N   0  0  0  0  0  0  0  0  0  0  0  0
   11.9437   -2.8398   24.9673 N   0  0  0  0  0  0  0  0  0  0  0  0
    7.2810   -0.3604   19.6826 N   0  0  0  0  0  0  0  0  0  0  0  0
    6.8684   -4.5248   22.9638 N   0  0  0  0  0  0  0  0  0  0  0  0
   14.6658   -6.0822   26.2085 N   0  0  0  0  0  0  0  0  0  0  0  0
    5.3280   -4.2677   21.2031 O   0  0  0  0  0  0  0  0  0  0  0  0
    8.3038    0.1255   17.6541 O   0  0  0  0  0  0  0  0  0  0  0  0
   10.4709   -1.8530   23.2147 O   0  0  0  0  0  0  0  0  0  0  0  0
   12.9878   -1.5117   23.0670 O   0  0  0  0  0  0  0  0  0  0  0  0
    9.5763   -4.9055   23.5250 F   0  0  0  0  0  0  0  0  0  0  0  0
   11.7602   -1.6078   23.8603 S   0  0  0  0  0  0  0  0  0  0  0  0
    6.5260    1.7053   16.4093 Cl  0  0  0  0  0  0  0  0  0  0  0  0
  1  3  2  0
  1  4  1  0
  2  5  2  0
  2  7  1  0
  3 10  1  0
  4 12  2  0
  5 14  1  0
  6 11  1  0
  6 15  2  0
  7 29  2  0
  8 14  2  0
  8 29  1  0
  9 11  2  0
  9 30  1  0
 10 13  2  0
 10 15  1  0
 11 26  1  0
 12 13  1  0
 12 32  1  0
 13 38  1  0
 14 39  1  0
 15 30  1  0
 16 22  1  0
 16 32  1  0
 16 34  2  0
 17 27  1  0
 17 31  1  0
 17 35  2  0
 18 20  1  0
 18 22  1  0
 19 21  1  0
 19 22  1  0
 20 31  1  0
 21 31  1  0
 23 28  1  0
 24 28  1  0
 25 33  1  0
 26 33  1  0
 27 40  1  0
 28 32  1  0
 30 39  1  0
 36 39  2  0
 37 39  2  0
M  CHG  1  33   1
M  END
