MAK-UNK-f2409524-6
     RDKit          3D

 26 29  0  0  0  0  0  0  0  0999 V2000
    8.4839    0.6530   18.5127 C   0  0  0  0  0  0  0  0  0  0  0  0
    6.7668    0.3277   20.0625 C   0  0  0  0  0  0  0  0  0  0  0  0
    6.5618   -0.4064   17.9210 C   0  0  0  0  0  0  0  0  0  0  0  0
    8.0263    0.8283   19.8027 C   0  0  0  0  0  0  0  0  0  0  0  0
    9.8963    0.6849   21.4871 C   0  0  0  0  0  0  0  0  0  0  0  0
    9.7434   -0.5217   22.1398 C   0  0  0  0  0  0  0  0  0  0  0  0
   11.8493    0.1179   22.0757 C   0  0  0  0  0  0  0  0  0  0  0  0
   13.2571    0.0037   22.3359 C   0  0  0  0  0  0  0  0  0  0  0  0
   12.8586   -1.9978   23.3989 C   0  0  0  0  0  0  0  0  0  0  0  0
   11.5275   -1.9609   23.1926 C   0  0  0  0  0  0  0  0  0  0  0  0
    8.5063   -2.6872   22.5403 C   0  0  0  0  0  0  0  0  0  0  0  0
    5.0058   -6.4761   24.2284 C   0  0  0  0  0  0  0  0  0  0  0  0
    6.4366   -6.2777   24.7207 C   0  0  0  0  0  0  0  0  0  0  0  0
    4.8541   -6.0783   22.7630 C   0  0  0  0  0  0  0  0  0  0  0  0
    6.9252   -4.8515   24.4731 C   0  0  0  0  0  0  0  0  0  0  0  0
    5.3402   -4.6516   22.5134 C   0  0  0  0  0  0  0  0  0  0  0  0
    6.7815   -4.4602   22.9982 C   0  0  0  0  0  0  0  0  0  0  0  0
    8.8573    1.5274   20.8708 C   0  0  0  0  0  0  0  0  0  0  0  0
    7.7755    0.0380   17.5431 N   0  0  0  0  0  0  0  0  0  0  0  0
    6.0040   -0.2974   19.1419 N   0  0  0  0  0  0  0  0  0  0  0  0
   11.2151    1.0792   21.4504 N   0  0  0  0  0  0  0  0  0  0  0  0
   13.7530   -1.0204   22.9772 N   0  0  0  0  0  0  0  0  0  0  0  0
   11.0090   -0.8743   22.5131 N   0  0  0  0  0  0  0  0  0  0  0  0
    8.5931   -1.2981   22.4123 N   0  0  0  0  0  0  0  0  0  0  0  0
    7.1878   -3.0686   22.8117 N   0  0  0  0  0  0  0  0  0  0  0  0
    9.4295   -3.4914   22.4371 O   0  0  0  0  0  0  0  0  0  0  0  0
  1  4  2  0
  1 19  1  0
  2  4  1  0
  2 20  2  0
  3 19  2  0
  3 20  1  0
  4 18  1  0
  5  6  2  0
  5 18  1  0
  5 21  1  0
  6 23  1  0
  6 24  1  0
  7  8  1  0
  7 21  2  0
  7 23  1  0
  8 22  2  0
  9 10  2  0
  9 22  1  0
 10 23  1  0
 11 24  1  0
 11 25  1  0
 11 26  2  0
 12 13  1  0
 12 14  1  0
 13 15  1  0
 14 16  1  0
 15 17  1  0
 16 17  1  0
 17 25  1  0
M  END
