MAK-UNK-bdda130a-7
     RDKit          3D

 23 26  0  0  1  0  0  0  0  0999 V2000
    5.9508    0.9523   18.8539 C   0  0  0  0  0  0  0  0  0  0  0  0
   13.1184   -0.1000   24.1013 C   0  0  0  0  0  0  0  0  0  0  0  0
    6.3647    0.8155   17.5419 C   0  0  0  0  0  0  0  0  0  0  0  0
    8.2756   -0.2824   18.1802 C   0  0  0  0  0  0  0  0  0  0  0  0
   14.2819   -0.4714   23.4643 C   0  0  0  0  0  0  0  0  0  0  0  0
   12.3434   -1.7630   22.6744 C   0  0  0  0  0  0  0  0  0  0  0  0
    6.7749    0.4427   19.8641 C   0  0  0  0  0  0  0  0  0  0  0  0
    7.9840   -0.2047   19.5457 C   0  0  0  0  0  0  0  0  0  0  0  0
   11.9954   -0.8482   23.6439 C   0  0  0  0  0  0  0  0  0  0  0  0
    6.2294    0.4868   21.2458 C   0  0  0  0  0  0  0  0  0  0  0  0
   10.1016   -1.6612   25.5802 C   0  0  0  0  0  0  0  0  0  0  0  0
   10.1594    0.9763   24.7916 C   0  0  0  0  0  0  0  0  0  0  0  0
    6.9856   -0.0376   23.5120 C   0  0  0  0  0  0  0  0  0  0  0  0
    7.8659   -1.2918   23.3890 C   0  0  0  0  0  0  0  0  0  0  0  0
    8.4978    1.1420   22.0213 C   0  0  0  0  0  0  0  0  0  0  0  0
    9.2858   -0.1407   21.7464 C   0  0  0  0  0  0  0  0  0  0  0  0
    7.5085    0.2063   17.1767 N   0  0  0  0  0  0  0  0  0  0  0  0
    8.9062   -0.7160   20.4428 N   0  0  0  0  0  0  0  0  0  0  0  0
    7.1335    0.7224   22.2787 N   0  0  0  0  0  0  0  0  0  0  0  0
    9.2563   -0.9774   22.9899 N   0  0  0  0  0  0  0  0  0  0  0  0
    5.0382    0.2268   21.4078 O   0  0  0  0  0  0  0  0  0  0  0  0
   14.0180   -1.7175   22.3197 S   0  0  0  0  0  0  0  0  0  0  0  0
   10.3888   -0.6324   24.2347 S   0  0  0  0  0  0  0  0  0  0  0  0
  1  3  2  0
  1  7  1  0
  2  5  2  0
  2  9  1  0
  3 17  1  0
  4  8  1  0
  4 17  2  0
  5 22  1  0
  6  9  2  0
  6 22  1  0
  7  8  2  0
  7 10  1  0
  8 18  1  0
  9 23  1  0
 10 19  1  0
 10 21  2  0
 11 23  2  0
 12 23  2  0
 13 14  1  0
 13 19  1  0
 14 20  1  0
 15 16  1  0
 15 19  1  0
 16 18  1  0
 16 20  1  0
 20 23  1  0
M  END
