MAK-UNK-f0bfc2e0-3
     RDKit          3D

 28 30  0  0  1  0  0  0  0  0999 V2000
    9.5763   -4.8769   26.0584 C   0  0  0  0  0  0  0  0  0  0  0  0
    8.7010   -4.4817   27.0700 C   0  0  0  0  0  0  0  0  0  0  0  0
    9.2590   -4.6248   24.7237 C   0  0  0  0  0  0  0  0  0  0  0  0
    5.1545    1.1571   19.6547 C   0  0  0  0  0  0  0  0  0  0  0  0
    7.5084   -3.8346   26.7469 C   0  0  0  0  0  0  0  0  0  0  0  0
    8.0663   -3.9778   24.4006 C   0  0  0  0  0  0  0  0  0  0  0  0
    7.3613   -0.3521   24.9880 C   0  0  0  0  0  0  0  0  0  0  0  0
    5.6893    0.4061   20.6954 C   0  0  0  0  0  0  0  0  0  0  0  0
    8.3045    0.6745   24.9416 C   0  0  0  0  0  0  0  0  0  0  0  0
    8.5172    0.3713   22.5542 C   0  0  0  0  0  0  0  0  0  0  0  0
    5.6419    0.9345   18.3769 C   0  0  0  0  0  0  0  0  0  0  0  0
    7.1003   -0.6788   19.1178 C   0  0  0  0  0  0  0  0  0  0  0  0
    7.1909   -3.5826   25.4122 C   0  0  0  0  0  0  0  0  0  0  0  0
    6.9962   -1.0171   23.8174 C   0  0  0  0  0  0  0  0  0  0  0  0
    8.8824    1.0363   23.7247 C   0  0  0  0  0  0  0  0  0  0  0  0
    6.6813   -0.5315   20.4303 C   0  0  0  0  0  0  0  0  0  0  0  0
    7.5741   -0.6554   22.6005 C   0  0  0  0  0  0  0  0  0  0  0  0
    3.2215   -6.8152   23.9900 C   0  0  0  0  0  0  0  0  0  0  0  0
    4.7190   -3.8460   24.8395 C   0  0  0  0  0  0  0  0  0  0  0  0
    5.8923   -2.8783   25.0597 C   0  0  0  0  0  0  0  0  0  0  0  0
    6.6045    0.0326   18.0806 N   0  0  0  0  0  0  0  0  0  0  0  0
    6.0670   -2.0254   23.8778 N   0  0  0  0  0  0  0  0  0  0  0  0
    4.9953   -4.8169   23.7656 N   0  0  0  0  0  0  0  0  0  0  0  0
    5.3539   -6.7001   25.5032 O   0  0  0  0  0  0  0  0  0  0  0  0
    5.6231   -7.1998   23.0467 O   0  0  0  0  0  0  0  0  0  0  0  0
    9.8024    2.0384   23.6784 O   0  0  0  0  0  0  0  0  0  0  0  0
    7.2317   -1.2937   21.4458 O   0  0  0  0  0  0  0  0  0  0  0  0
    4.9638   -6.4859   24.1234 S   0  0  0  0  0  0  0  0  0  0  0  0
  1  2  2  0
  1  3  1  0
  2  5  1  0
  3  6  2  0
  4  8  2  0
  4 11  1  0
  5 13  2  0
  6 13  1  0
  7  9  2  0
  7 14  1  0
  8 16  1  0
  9 15  1  0
 10 15  2  0
 10 17  1  0
 11 21  2  0
 12 16  2  0
 12 21  1  0
 13 20  1  0
 14 17  2  0
 14 22  1  0
 15 26  1  0
 16 27  1  0
 17 27  1  0
 18 28  1  0
 19 20  1  0
 19 23  1  0
 20 22  1  0
 23 28  1  0
 24 28  2  0
 25 28  2  0
M  END
