MAK-UNK-60abb798-7
     RDKit          3D

 24 26  0  0  1  0  0  0  0  0999 V2000
    7.3177   -6.3812   22.6581 C   0  0  0  0  0  0  0  0  0  0  0  0
    6.5698   -5.9593   21.5575 C   0  0  0  0  0  0  0  0  0  0  0  0
    8.1752   -5.4936   23.3259 C   0  0  0  0  0  0  0  0  0  0  0  0
    8.3053   -4.1800   22.8360 C   0  0  0  0  0  0  0  0  0  0  0  0
    6.6766   -4.6486   21.1017 C   0  0  0  0  0  0  0  0  0  0  0  0
    7.5409   -3.7607   21.7382 C   0  0  0  0  0  0  0  0  0  0  0  0
   11.5387    2.7176   23.5634 C   0  0  0  0  0  0  0  0  0  0  0  0
    9.2283   -3.2055   23.5194 C   0  0  0  0  0  0  0  0  0  0  0  0
   13.2957   -2.6725   26.4163 C   0  0  0  0  0  0  0  0  0  0  0  0
   12.4319   -3.6366   25.6079 C   0  0  0  0  0  0  0  0  0  0  0  0
   13.5509   -1.3731   25.6575 C   0  0  0  0  0  0  0  0  0  0  0  0
   11.3763   -1.6793   24.4063 C   0  0  0  0  0  0  0  0  0  0  0  0
    9.0133   -5.9490   24.5078 C   0  0  0  0  0  0  0  0  0  0  0  0
   11.1139   -2.9845   25.1714 C   0  0  0  0  0  0  0  0  0  0  0  0
   12.2399   -0.7065   25.2220 C   0  0  0  0  0  0  0  0  0  0  0  0
   10.2930   -3.9473   24.3254 C   0  0  0  0  0  0  0  0  0  0  0  0
   11.2949    1.4632   24.3671 C   0  0  0  0  0  0  0  0  0  0  0  0
    8.2143   -6.7148   25.5609 C   0  0  0  0  0  0  0  0  0  0  0  0
   12.5213    0.5648   24.4231 C   0  0  0  0  0  0  0  0  0  0  0  0
    7.1712   -5.8222   26.1052 N   0  0  0  0  0  0  0  0  0  0  0  0
   10.8901    3.0542   22.5787 O   0  0  0  0  0  0  0  0  0  0  0  0
    9.6298   -4.8543   25.2080 O   0  0  0  0  0  0  0  0  0  0  0  0
    5.9348   -4.2503   20.0310 O   0  0  0  0  0  0  0  0  0  0  0  0
    7.6334   -2.4779   21.2807 O   0  0  0  0  0  0  0  0  0  0  0  0
  1  2  2  0
  1  3  1  0
  2  5  1  0
  3  4  2  0
  3 13  1  0
  4  6  1  0
  4  8  1  0
  5  6  2  0
  5 23  1  0
  6 24  1  0
  7 17  1  0
  7 21  2  0
  8 16  1  0
  9 10  1  0
  9 11  1  0
 10 14  1  0
 11 15  1  0
 12 14  1  0
 12 15  1  0
 13 18  1  0
 13 22  1  0
 14 16  1  0
 15 19  1  0
 16 22  1  0
 17 19  1  0
 18 20  1  0
M  CHG  1  20   1
M  END
