MAK-UNK-9955b1f3-6
     RDKit          3D

 16 16  0  0  1  0  0  0  0  0999 V2000
    6.0943   -2.5337   20.2902 C   0  0  0  0  0  0  0  0  0  0  0  0
    7.1368   -3.4133   22.3249 C   0  0  0  0  0  0  0  0  0  0  0  0
    7.0596   -4.2901   23.4014 C   0  0  0  0  0  0  0  0  0  0  0  0
    4.9563   -5.0342   22.5775 C   0  0  0  0  0  0  0  0  0  0  0  0
    6.0882   -3.4047   21.4193 C   0  0  0  0  0  0  0  0  0  0  0  0
    5.9519   -5.1194   23.5373 C   0  0  0  0  0  0  0  0  0  0  0  0
    5.8654   -5.3662   26.0312 C   0  0  0  0  0  0  0  0  0  0  0  0
    6.5723   -5.8377   28.4378 C   0  0  0  0  0  0  0  0  0  0  0  0
    5.8391   -6.0828   24.6955 C   0  0  0  0  0  0  0  0  0  0  0  0
    6.0993   -1.8249   19.3713 N   0  0  0  0  0  0  0  0  0  0  0  0
    4.9960   -4.1952   21.5182 N   0  0  0  0  0  0  0  0  0  0  0  0
    7.1079   -6.7305   29.3575 N   0  0  0  0  0  0  0  0  0  0  0  0
    6.4052   -6.1848   27.0926 N   0  0  0  0  0  0  0  0  0  0  0  0
    6.1928   -4.5695   28.8636 N   0  0  0  0  0  0  0  0  0  0  0  0
    4.6207   -6.9471   24.6020 N   0  0  0  0  0  0  0  0  0  0  0  0
    5.4737   -4.2176   26.1992 O   0  0  0  0  0  0  0  0  0  0  0  0
  1  5  1  0
  1 10  3  0
  2  3  2  0
  2  5  1  0
  3  6  1  0
  4  6  2  0
  4 11  1  0
  5 11  2  0
  6  9  1  0
  7  9  1  0
  7 13  1  0
  7 16  2  0
  8 12  1  0
  8 13  1  0
  8 14  2  0
  9 15  1  0
M  CHG  2  14   1  15   1
M  END
