MAK-UNK-0955449e-2
     RDKit          3D

 27 28  0  0  1  0  0  0  0  0999 V2000
   13.2414   -1.4329   22.9860 C   0  0  0  0  0  0  0  0  0  0  0  0
   13.3299   -0.7640   24.2068 C   0  0  0  0  0  0  0  0  0  0  0  0
   12.0043   -1.5777   22.3581 C   0  0  0  0  0  0  0  0  0  0  0  0
   12.1812   -0.2401   24.7998 C   0  0  0  0  0  0  0  0  0  0  0  0
    8.9621   -0.3748   21.3864 C   0  0  0  0  0  0  0  0  0  0  0  0
    7.6131   -2.1399   21.7536 C   0  0  0  0  0  0  0  0  0  0  0  0
   10.8556   -1.0538   22.9511 C   0  0  0  0  0  0  0  0  0  0  0  0
    7.7209   -0.9650   21.0428 C   0  0  0  0  0  0  0  0  0  0  0  0
   10.9441   -0.3850   24.1720 C   0  0  0  0  0  0  0  0  0  0  0  0
    9.5753   -1.2072   22.2967 C   0  0  0  0  0  0  0  0  0  0  0  0
    5.0423   -5.4513   23.9943 C   0  0  0  0  0  0  0  0  0  0  0  0
    8.2914   -4.0238   25.7670 C   0  0  0  0  0  0  0  0  0  0  0  0
    3.7732   -4.8975   23.4368 C   0  0  0  0  0  0  0  0  0  0  0  0
    9.0775   -4.7769   22.6879 C   0  0  0  0  0  0  0  0  0  0  0  0
    4.9034    1.2408   19.7099 C   0  0  0  0  0  0  0  0  0  0  0  0
    6.7261   -0.4223   20.0982 C   0  0  0  0  0  0  0  0  0  0  0  0
    7.0844   -3.9286   26.6852 C   0  0  0  0  0  0  0  0  0  0  0  0
    6.5947   -5.2833   27.1998 C   0  0  0  0  0  0  0  0  0  0  0  0
    6.1208   -6.2268   26.0963 C   0  0  0  0  0  0  0  0  0  0  0  0
    9.0144   -3.4448   23.4398 C   0  0  0  0  0  0  0  0  0  0  0  0
    8.7463   -2.2770   22.5122 N   0  0  0  0  0  0  0  0  0  0  0  0
    5.0087   -5.6933   25.3591 N   0  0  0  0  0  0  0  0  0  0  0  0
    8.0189   -3.5038   24.5086 N   0  0  0  0  0  0  0  0  0  0  0  0
    5.9426    0.7316   20.6380 N   0  0  0  0  0  0  0  0  0  0  0  0
    5.9935   -5.6514   23.2480 O   0  0  0  0  0  0  0  0  0  0  0  0
    9.3733   -4.4839   26.1216 O   0  0  0  0  0  0  0  0  0  0  0  0
    9.8491    0.1246   24.7551 F   0  0  0  0  0  0  0  0  0  0  0  0
  1  2  2  0
  1  3  1  0
  2  4  1  0
  3  7  2  0
  4  9  2  0
  5  8  1  0
  5 10  2  0
  6  8  2  0
  6 21  1  0
  7  9  1  0
  7 10  1  0
  8 16  1  0
  9 27  1  0
 10 21  1  0
 11 13  1  0
 11 22  1  0
 11 25  2  0
 12 17  1  0
 12 23  1  0
 12 26  2  0
 14 20  1  0
 15 24  1  0
 16 24  1  0
 17 18  1  0
 18 19  1  0
 19 22  1  0
 20 21  1  0
 20 23  1  0
M  CHG  1  24   1
M  END
