MAK-UNK-01147c51-4
     RDKit          3D

 22 24  0  0  1  0  0  0  0  0999 V2000
    7.3315   -6.0832   22.4413 C   0  0  0  0  0  0  0  0  0  0  0  0
    6.4844   -5.5809   21.4519 C   0  0  0  0  0  0  0  0  0  0  0  0
    8.2727   -5.2532   23.0693 C   0  0  0  0  0  0  0  0  0  0  0  0
    8.3814   -3.9137   22.6494 C   0  0  0  0  0  0  0  0  0  0  0  0
    6.5733   -4.2461   21.0682 C   0  0  0  0  0  0  0  0  0  0  0  0
    7.5181   -3.4140   21.6644 C   0  0  0  0  0  0  0  0  0  0  0  0
    9.3913   -2.9990   23.2914 C   0  0  0  0  0  0  0  0  0  0  0  0
   12.2077   -3.7307   25.7996 C   0  0  0  0  0  0  0  0  0  0  0  0
   12.4103   -2.1512   23.8322 C   0  0  0  0  0  0  0  0  0  0  0  0
   13.1813   -2.8639   26.5993 C   0  0  0  0  0  0  0  0  0  0  0  0
   13.3849   -1.2812   24.6273 C   0  0  0  0  0  0  0  0  0  0  0  0
    9.2171   -5.7954   24.1280 C   0  0  0  0  0  0  0  0  0  0  0  0
   11.4442   -2.9092   24.7523 C   0  0  0  0  0  0  0  0  0  0  0  0
   14.1292   -2.0533   25.7162 C   0  0  0  0  0  0  0  0  0  0  0  0
   10.5161   -3.8071   23.9360 C   0  0  0  0  0  0  0  0  0  0  0  0
   15.9287   -3.7529   26.0482 C   0  0  0  0  0  0  0  0  0  0  0  0
    8.5133   -6.6130   25.2097 C   0  0  0  0  0  0  0  0  0  0  0  0
    9.5282   -7.1204   26.1549 N   0  0  0  0  0  0  0  0  0  0  0  0
   15.1166   -2.9725   25.0803 N   0  0  0  0  0  0  0  0  0  0  0  0
    9.9266   -4.7569   24.8257 O   0  0  0  0  0  0  0  0  0  0  0  0
    5.7348   -3.7694   20.1064 O   0  0  0  0  0  0  0  0  0  0  0  0
    7.5919   -2.1066   21.2787 O   0  0  0  0  0  0  0  0  0  0  0  0
  1  2  2  0
  1  3  1  0
  2  5  1  0
  3  4  2  0
  3 12  1  0
  4  6  1  0
  4  7  1  0
  5  6  2  0
  5 21  1  0
  6 22  1  0
  7 15  1  0
  8 10  1  0
  8 13  1  0
  9 11  1  0
  9 13  1  0
 10 14  1  0
 11 14  1  0
 12 17  1  0
 12 20  1  0
 13 15  1  0
 14 19  1  0
 15 20  1  0
 16 19  1  0
 17 18  1  0
M  CHG  2  18   1  19   1
M  END
