MAK-UNK-a7992eb3-30
     RDKit          3D

 32 34  0  0  1  0  0  0  0  0999 V2000
   10.5626   -0.7333   26.2647 C   0  0  0  0  0  0  0  0  0  0  0  0
   11.0393   -0.1039   25.3604 C   0  0  0  0  0  0  0  0  0  0  0  0
    7.2072    2.5158   23.9183 C   0  0  0  0  0  0  0  0  0  0  0  0
    8.4066    3.1519   23.6178 C   0  0  0  0  0  0  0  0  0  0  0  0
    7.1302   -3.9404   23.3206 C   0  0  0  0  0  0  0  0  0  0  0  0
    9.3521   -3.0879   23.7371 C   0  0  0  0  0  0  0  0  0  0  0  0
    6.9209   -2.9343   22.3775 C   0  0  0  0  0  0  0  0  0  0  0  0
    9.1428   -2.0817   22.7940 C   0  0  0  0  0  0  0  0  0  0  0  0
    6.5508    1.7820   22.9365 C   0  0  0  0  0  0  0  0  0  0  0  0
    8.9037    3.0242   22.3308 C   0  0  0  0  0  0  0  0  0  0  0  0
    8.3458   -4.0172   24.0004 C   0  0  0  0  0  0  0  0  0  0  0  0
    7.9272   -2.0049   22.1142 C   0  0  0  0  0  0  0  0  0  0  0  0
    7.1309    1.7158   21.6799 C   0  0  0  0  0  0  0  0  0  0  0  0
    6.6674   -6.4364   27.4054 C   0  0  0  0  0  0  0  0  0  0  0  0
    9.2350   -3.8618   27.1097 C   0  0  0  0  0  0  0  0  0  0  0  0
    4.7056    0.9093   18.8409 C   0  0  0  0  0  0  0  0  0  0  0  0
    6.0521    0.6691   18.1682 C   0  0  0  0  0  0  0  0  0  0  0  0
    5.0189    1.4310   20.2406 C   0  0  0  0  0  0  0  0  0  0  0  0
    7.1128    1.0602   19.1934 C   0  0  0  0  0  0  0  0  0  0  0  0
    6.4375    0.9183   20.5760 C   0  0  0  0  0  0  0  0  0  0  0  0
    6.6513   -7.6157   28.3205 C   0  0  0  0  0  0  0  0  0  0  0  0
    9.9846   -1.4977   27.3693 C   0  0  0  0  0  0  0  0  0  0  0  0
    8.5700   -5.0933   25.0083 C   0  0  0  0  0  0  0  0  0  0  0  0
    6.3930   -0.5608   21.0112 C   0  0  0  0  0  0  0  0  0  0  0  0
    8.1492   -4.6918   26.4343 C   0  0  0  0  0  0  0  0  0  0  0  0
    8.2946    2.3200   21.3506 N   0  0  0  0  0  0  0  0  0  0  0  0
    9.0672   -2.5029   26.8826 N   0  0  0  0  0  0  0  0  0  0  0  0
    7.9097   -5.8416   27.2697 N   0  0  0  0  0  0  0  0  0  0  0  0
    5.6306   -6.0843   26.8553 O   0  0  0  0  0  0  0  0  0  0  0  0
   10.1651   -4.3618   27.7390 O   0  0  0  0  0  0  0  0  0  0  0  0
    7.7213   -1.0149   21.1844 O   0  0  0  0  0  0  0  0  0  0  0  0
   11.7941    0.8922   23.9290 Br  0  0  0  0  0  0  0  0  0  0  0  0
  1  2  3  0
  1 22  1  0
  2 32  1  0
  3  4  2  0
  3  9  1  0
  4 10  1  0
  5  7  2  0
  5 11  1  0
  6  8  1  0
  6 11  2  0
  7 12  1  0
  8 12  2  0
  9 13  2  0
 10 26  2  0
 11 23  1  0
 12 31  1  0
 13 20  1  0
 13 26  1  0
 14 21  1  0
 14 28  1  0
 14 29  2  0
 15 25  1  0
 15 27  1  0
 15 30  2  0
 16 17  1  0
 16 18  1  0
 17 19  1  0
 18 20  1  0
 19 20  1  0
 20 24  1  0
 22 27  1  0
 23 25  1  0
 24 31  1  0
 25 28  1  0
M  END
