MAK-UNK-acefcb18-25
     RDKit          3D

 22 24  0  0  0  0  0  0  0  0999 V2000
   10.3968   -2.2051   22.5499 C   0  0  0  0  0  0  0  0  0  0  0  0
   10.1559   -3.4208   23.1897 C   0  0  0  0  0  0  0  0  0  0  0  0
    8.8337   -2.2800   24.8594 C   0  0  0  0  0  0  0  0  0  0  0  0
    9.8563   -1.0267   23.0648 C   0  0  0  0  0  0  0  0  0  0  0  0
    9.3743   -3.4583   24.3445 C   0  0  0  0  0  0  0  0  0  0  0  0
    9.0747   -1.0642   24.2195 C   0  0  0  0  0  0  0  0  0  0  0  0
    6.6986    1.9063   21.9207 C   0  0  0  0  0  0  0  0  0  0  0  0
    8.3669    3.6562   22.6160 C   0  0  0  0  0  0  0  0  0  0  0  0
    8.9199   -4.7639   26.4285 C   0  0  0  0  0  0  0  0  0  0  0  0
    8.6432   -5.8284   24.2287 C   0  0  0  0  0  0  0  0  0  0  0  0
    7.8367    0.9399   21.6319 C   0  0  0  0  0  0  0  0  0  0  0  0
    9.5011    2.6858   22.3258 C   0  0  0  0  0  0  0  0  0  0  0  0
    7.4283   -4.8871   26.7165 C   0  0  0  0  0  0  0  0  0  0  0  0
    7.1425   -5.9790   24.4690 C   0  0  0  0  0  0  0  0  0  0  0  0
    7.1366    3.3593   21.7623 C   0  0  0  0  0  0  0  0  0  0  0  0
    5.4277   -6.3126   26.2559 C   0  0  0  0  0  0  0  0  0  0  0  0
   10.1257    0.2716   22.3628 C   0  0  0  0  0  0  0  0  0  0  0  0
    9.1347   -4.6706   24.9828 N   0  0  0  0  0  0  0  0  0  0  0  0
    6.8826   -6.0818   25.9586 N   0  0  0  0  0  0  0  0  0  0  0  0
    9.0120    1.2698   22.5221 N   0  0  0  0  0  0  0  0  0  0  0  0
    8.5395    0.0777   24.7355 O   0  0  0  0  0  0  0  0  0  0  0  0
    6.0626    4.2058   22.1555 O   0  0  0  0  0  0  0  0  0  0  0  0
  1  2  2  0
  1  4  1  0
  2  5  1  0
  3  5  2  0
  3  6  1  0
  4  6  2  0
  4 17  1  0
  5 18  1  0
  6 21  1  0
  7 11  1  0
  7 15  1  0
  8 12  1  0
  8 15  1  0
  9 13  1  0
  9 18  1  0
 10 14  1  0
 10 18  1  0
 11 20  1  0
 12 20  1  0
 13 19  1  0
 14 19  1  0
 15 22  1  0
 16 19  1  0
 17 20  1  0
M  CHG  2  19   1  20   1
M  END
