MAK-UNK-27459e11-9
     RDKit          3D

 17 17  0  0  0  0  0  0  0  0999 V2000
   10.8000    0.4832   24.3347 C   0  0  0  0  0  0  0  0  0  0  0  0
   12.3347   -0.4598   22.7246 C   0  0  0  0  0  0  0  0  0  0  0  0
    9.9653   -0.6247   24.1881 C   0  0  0  0  0  0  0  0  0  0  0  0
   11.5001   -1.5677   22.5780 C   0  0  0  0  0  0  0  0  0  0  0  0
   11.9846    0.5657   23.6030 C   0  0  0  0  0  0  0  0  0  0  0  0
   10.3154   -1.6502   23.3097 C   0  0  0  0  0  0  0  0  0  0  0  0
   12.5646    2.8552   22.8129 C   0  0  0  0  0  0  0  0  0  0  0  0
    6.2617   -0.9307   19.9758 C   0  0  0  0  0  0  0  0  0  0  0  0
   12.8776    1.7498   23.7592 C   0  0  0  0  0  0  0  0  0  0  0  0
    9.4128   -2.8492   23.1529 C   0  0  0  0  0  0  0  0  0  0  0  0
    8.3697   -2.6696   22.0526 C   0  0  0  0  0  0  0  0  0  0  0  0
   13.5479    3.6783   22.4784 N   0  0  0  0  0  0  0  0  0  0  0  0
    7.4968   -1.5050   22.2854 N   0  0  0  0  0  0  0  0  0  0  0  0
   11.3192    2.9548   22.3711 N   0  0  0  0  0  0  0  0  0  0  0  0
    8.7211   -0.1658   20.4409 O   0  0  0  0  0  0  0  0  0  0  0  0
    6.8407    0.9132   21.7279 O   0  0  0  0  0  0  0  0  0  0  0  0
    7.4440   -0.2577   21.1209 S   0  0  0  0  0  0  0  0  0  0  0  0
  1  3  2  0
  1  5  1  0
  2  4  1  0
  2  5  2  0
  3  6  1  0
  4  6  2  0
  5  9  1  0
  6 10  1  0
  7  9  1  0
  7 12  1  0
  7 14  2  0
  8 17  1  0
 10 11  1  0
 11 13  1  0
 13 17  1  0
 15 17  2  0
 16 17  2  0
M  CHG  1  14   1
M  END
