MAK-UNK-acefcb18-20
     RDKit          3D

 31 34  0  0  0  0  0  0  0  0999 V2000
    9.6128   -3.0214   22.9676 C   0  0  0  0  0  0  0  0  0  0  0  0
    9.0861   -2.5816   25.2841 C   0  0  0  0  0  0  0  0  0  0  0  0
    8.3705    7.6413   24.2034 C   0  0  0  0  0  0  0  0  0  0  0  0
    7.1191    5.9972   22.9511 C   0  0  0  0  0  0  0  0  0  0  0  0
   10.2122   -1.7661   22.8655 C   0  0  0  0  0  0  0  0  0  0  0  0
    9.6855   -1.3263   25.1821 C   0  0  0  0  0  0  0  0  0  0  0  0
    9.5627    7.0321   23.8119 C   0  0  0  0  0  0  0  0  0  0  0  0
    8.3113    5.3880   22.5596 C   0  0  0  0  0  0  0  0  0  0  0  0
    7.1487    7.1238   23.7731 C   0  0  0  0  0  0  0  0  0  0  0  0
    9.0497   -3.4292   24.1769 C   0  0  0  0  0  0  0  0  0  0  0  0
   10.2486   -0.9185   23.9727 C   0  0  0  0  0  0  0  0  0  0  0  0
    9.5331    5.9055   22.9900 C   0  0  0  0  0  0  0  0  0  0  0  0
   12.6746    4.1757   23.3385 C   0  0  0  0  0  0  0  0  0  0  0  0
    5.0422   -5.8213   25.7782 C   0  0  0  0  0  0  0  0  0  0  0  0
    4.6515   -4.1311   23.9563 C   0  0  0  0  0  0  0  0  0  0  0  0
   10.3879    1.4619   24.6857 C   0  0  0  0  0  0  0  0  0  0  0  0
   11.9869    0.5484   22.9736 C   0  0  0  0  0  0  0  0  0  0  0  0
   10.6620    2.7893   23.9785 C   0  0  0  0  0  0  0  0  0  0  0  0
   12.8434    1.7166   23.4571 C   0  0  0  0  0  0  0  0  0  0  0  0
    6.4787   -5.9910   25.3090 C   0  0  0  0  0  0  0  0  0  0  0  0
    6.0890   -4.3045   23.4914 C   0  0  0  0  0  0  0  0  0  0  0  0
    4.1227   -5.3896   24.6396 C   0  0  0  0  0  0  0  0  0  0  0  0
    5.8741    7.7753   24.1910 C   0  0  0  0  0  0  0  0  0  0  0  0
    8.4043   -4.7791   24.2875 C   0  0  0  0  0  0  0  0  0  0  0  0
   11.8010    5.3963   23.4931 C   0  0  0  0  0  0  0  0  0  0  0  0
   10.8487    0.3343   23.8718 N   0  0  0  0  0  0  0  0  0  0  0  0
   12.0654    2.9457   23.5898 N   0  0  0  0  0  0  0  0  0  0  0  0
    6.9503   -4.7080   24.6653 N   0  0  0  0  0  0  0  0  0  0  0  0
   13.8562    4.3089   23.0112 O   0  0  0  0  0  0  0  0  0  0  0  0
    2.8256   -5.1407   25.1690 O   0  0  0  0  0  0  0  0  0  0  0  0
   10.7082    5.3061   22.6032 O   0  0  0  0  0  0  0  0  0  0  0  0
  1  5  2  0
  1 10  1  0
  2  6  1  0
  2 10  2  0
  3  7  2  0
  3  9  1  0
  4  8  1  0
  4  9  2  0
  5 11  1  0
  6 11  2  0
  7 12  1  0
  8 12  2  0
  9 23  1  0
 10 24  1  0
 11 26  1  0
 12 31  1  0
 13 25  1  0
 13 27  1  0
 13 29  2  0
 14 20  1  0
 14 22  1  0
 15 21  1  0
 15 22  1  0
 16 18  1  0
 16 26  1  0
 17 19  1  0
 17 26  1  0
 18 27  1  0
 19 27  1  0
 20 28  1  0
 21 28  1  0
 22 30  1  0
 24 28  1  0
 25 31  1  0
M  CHG  1  28   1
M  END
