MAK-UNK-9e4a73aa-31
     RDKit          3D

 27 30  0  0  0  0  0  0  0  0999 V2000
   13.0057    0.2860   24.0308 C   0  0  0  0  0  0  0  0  0  0  0  0
   11.8802    0.1571   24.8445 C   0  0  0  0  0  0  0  0  0  0  0  0
   12.9533   -0.1224   22.6980 C   0  0  0  0  0  0  0  0  0  0  0  0
   10.7023   -0.3802   24.3256 C   0  0  0  0  0  0  0  0  0  0  0  0
   11.7753   -0.6597   22.1791 C   0  0  0  0  0  0  0  0  0  0  0  0
    5.0571    0.6334   18.8682 C   0  0  0  0  0  0  0  0  0  0  0  0
    7.0698   -4.1277   23.2155 C   0  0  0  0  0  0  0  0  0  0  0  0
    9.5954   -3.3019   23.9948 C   0  0  0  0  0  0  0  0  0  0  0  0
    5.7680    0.6544   17.6792 C   0  0  0  0  0  0  0  0  0  0  0  0
    7.5382   -0.4731   18.6138 C   0  0  0  0  0  0  0  0  0  0  0  0
    7.6452   -2.9808   22.6388 C   0  0  0  0  0  0  0  0  0  0  0  0
    5.6461    0.0194   19.9680 C   0  0  0  0  0  0  0  0  0  0  0  0
   10.6498   -0.7887   22.9928 C   0  0  0  0  0  0  0  0  0  0  0  0
    8.8991   -2.5254   23.0466 C   0  0  0  0  0  0  0  0  0  0  0  0
    6.9103   -0.5467   19.8467 C   0  0  0  0  0  0  0  0  0  0  0  0
    7.7572   -4.8506   24.1846 C   0  0  0  0  0  0  0  0  0  0  0  0
    9.0273   -4.4446   24.5650 C   0  0  0  0  0  0  0  0  0  0  0  0
    6.9239   -2.3073   21.5446 C   0  0  0  0  0  0  0  0  0  0  0  0
    8.7951   -0.6428   21.4155 C   0  0  0  0  0  0  0  0  0  0  0  0
    4.9022   -0.0172   21.2626 C   0  0  0  0  0  0  0  0  0  0  0  0
    6.9978    0.1151   17.5230 N   0  0  0  0  0  0  0  0  0  0  0  0
    9.4382   -1.3412   22.4593 N   0  0  0  0  0  0  0  0  0  0  0  0
    7.5670   -1.1983   20.9626 N   0  0  0  0  0  0  0  0  0  0  0  0
    5.8576   -2.7962   21.1752 O   0  0  0  0  0  0  0  0  0  0  0  0
    9.2323    0.4346   20.9897 O   0  0  0  0  0  0  0  0  0  0  0  0
    7.1737   -5.9152   24.7528 F   0  0  0  0  0  0  0  0  0  0  0  0
    9.9115   -5.3473   25.7348 Cl  0  0  0  0  0  0  0  0  0  0  0  0
  1  2  2  0
  1  3  1  0
  2  4  1  0
  3  5  2  0
  4 13  2  0
  5 13  1  0
  6  9  2  0
  6 12  1  0
  7 11  2  0
  7 16  1  0
  8 14  2  0
  8 17  1  0
  9 21  1  0
 10 15  1  0
 10 21  2  0
 11 14  1  0
 11 18  1  0
 12 15  2  0
 12 20  1  0
 13 22  1  0
 14 22  1  0
 15 23  1  0
 16 17  2  0
 16 26  1  0
 17 27  1  0
 18 23  1  0
 18 24  2  0
 19 22  1  0
 19 23  1  0
 19 25  2  0
M  END
