MAK-UNK-ae34c249-5
     RDKit          3D

 29 32  0  0  1  0  0  0  0  0999 V2000
   13.9759   -3.6217   25.2101 C   0  0  0  0  0  0  0  0  0  0  0  0
    5.1098   -4.3847   22.4423 C   0  0  0  0  0  0  0  0  0  0  0  0
   14.0463   -2.3797   24.5791 C   0  0  0  0  0  0  0  0  0  0  0  0
   12.7907   -4.3563   25.1737 C   0  0  0  0  0  0  0  0  0  0  0  0
    6.4304   -4.2982   22.8687 C   0  0  0  0  0  0  0  0  0  0  0  0
   11.7462   -2.6069   23.8754 C   0  0  0  0  0  0  0  0  0  0  0  0
    4.3901   -5.5176   22.7862 C   0  0  0  0  0  0  0  0  0  0  0  0
    6.1794   -6.4231   23.9071 C   0  0  0  0  0  0  0  0  0  0  0  0
   12.9315   -1.8723   23.9118 C   0  0  0  0  0  0  0  0  0  0  0  0
   11.6758   -3.8489   24.5064 C   0  0  0  0  0  0  0  0  0  0  0  0
    6.9831   -5.3327   23.6155 C   0  0  0  0  0  0  0  0  0  0  0  0
   13.0043   -0.5893   23.2590 C   0  0  0  0  0  0  0  0  0  0  0  0
   12.5766    1.3946   22.0556 C   0  0  0  0  0  0  0  0  0  0  0  0
   11.2464    5.5791   24.1899 C   0  0  0  0  0  0  0  0  0  0  0  0
   10.3884    4.5565   24.0855 C   0  0  0  0  0  0  0  0  0  0  0  0
    9.2603   -4.2481   23.8547 C   0  0  0  0  0  0  0  0  0  0  0  0
   12.5055    5.6603   23.3779 C   0  0  0  0  0  0  0  0  0  0  0  0
   10.5998    3.4320   23.1257 C   0  0  0  0  0  0  0  0  0  0  0  0
   12.8875    4.3446   22.6988 C   0  0  0  0  0  0  0  0  0  0  0  0
   11.9841    2.5139   21.2513 C   0  0  0  0  0  0  0  0  0  0  0  0
    4.8926   -6.5427   23.5102 N   0  0  0  0  0  0  0  0  0  0  0  0
   14.0601    0.1955   23.2213 N   0  0  0  0  0  0  0  0  0  0  0  0
   13.8089    1.3596   22.5164 N   0  0  0  0  0  0  0  0  0  0  0  0
   10.4902   -4.5834   24.4719 N   0  0  0  0  0  0  0  0  0  0  0  0
    8.3240   -5.2734   24.0633 N   0  0  0  0  0  0  0  0  0  0  0  0
   11.6585    3.7245   22.0782 N   0  0  0  0  0  0  0  0  0  0  0  0
    9.0512   -3.2125   23.2311 O   0  0  0  0  0  0  0  0  0  0  0  0
    9.2783    4.5560   24.8559 F   0  0  0  0  0  0  0  0  0  0  0  0
   11.6255    0.0205   22.4411 S   0  0  0  0  0  0  0  0  0  0  0  0
  1  3  2  0
  1  4  1  0
  2  5  2  0
  2  7  1  0
  3  9  1  0
  4 10  2  0
  5 11  1  0
  6  9  2  0
  6 10  1  0
  7 21  2  0
  8 11  2  0
  8 21  1  0
  9 12  1  0
 10 24  1  0
 11 25  1  0
 12 22  2  0
 12 29  1  0
 13 20  1  0
 13 23  2  0
 13 29  1  0
 14 15  2  0
 14 17  1  0
 15 18  1  0
 15 28  1  0
 16 24  1  0
 16 25  1  0
 16 27  2  0
 17 19  1  0
 18 26  1  0
 19 26  1  0
 20 26  1  0
 22 23  1  0
M  CHG  1  26   1
M  END
