MAK-UNK-e4a48a85-18
     RDKit          3D

 30 32  0  0  0  0  0  0  0  0999 V2000
    8.8251   -2.5475   25.2626 C   0  0  0  0  0  0  0  0  0  0  0  0
    8.5395   -3.2731   26.4191 C   0  0  0  0  0  0  0  0  0  0  0  0
    9.1721   -4.6105   24.0540 C   0  0  0  0  0  0  0  0  0  0  0  0
    9.1413   -3.2163   24.0800 C   0  0  0  0  0  0  0  0  0  0  0  0
    8.8865   -5.3361   25.2106 C   0  0  0  0  0  0  0  0  0  0  0  0
    8.5702   -4.6674   26.3931 C   0  0  0  0  0  0  0  0  0  0  0  0
    5.9624   -0.9383   18.7992 C   0  0  0  0  0  0  0  0  0  0  0  0
    2.6196   -8.5503   29.6668 C   0  0  0  0  0  0  0  0  0  0  0  0
    3.7225  -10.4490   30.8944 C   0  0  0  0  0  0  0  0  0  0  0  0
    6.1637   -2.2436   20.8913 C   0  0  0  0  0  0  0  0  0  0  0  0
    7.2760   -0.0471   20.7861 C   0  0  0  0  0  0  0  0  0  0  0  0
    3.7436   -7.6215   30.0988 C   0  0  0  0  0  0  0  0  0  0  0  0
    4.8441   -9.5160   31.3235 C   0  0  0  0  0  0  0  0  0  0  0  0
    7.4344   -2.8843   21.4300 C   0  0  0  0  0  0  0  0  0  0  0  0
    8.5638   -0.6548   21.3255 C   0  0  0  0  0  0  0  0  0  0  0  0
    2.4177   -9.6928   30.6577 C   0  0  0  0  0  0  0  0  0  0  0  0
    8.9267   -6.8287   25.1545 C   0  0  0  0  0  0  0  0  0  0  0  0
    9.4484   -2.4354   22.8362 C   0  0  0  0  0  0  0  0  0  0  0  0
    6.3294    0.3130   18.0420 C   0  0  0  0  0  0  0  0  0  0  0  0
    7.9491   -4.7456   28.8084 C   0  0  0  0  0  0  0  0  0  0  0  0
    7.6158   -5.7467   29.9018 C   0  0  0  0  0  0  0  0  0  0  0  0
    6.1839   -7.5382   30.6070 C   0  0  0  0  0  0  0  0  0  0  0  0
    6.4711   -1.0577   20.0917 N   0  0  0  0  0  0  0  0  0  0  0  0
    8.2784   -5.3854   27.5736 N   0  0  0  0  0  0  0  0  0  0  0  0
    6.5055   -6.5867   29.5428 N   0  0  0  0  0  0  0  0  0  0  0  0
    8.2245   -1.8454   22.1941 N   0  0  0  0  0  0  0  0  0  0  0  0
    5.0093   -8.4235   30.2929 N   0  0  0  0  0  0  0  0  0  0  0  0
    5.2473   -1.7840   18.2557 O   0  0  0  0  0  0  0  0  0  0  0  0
    1.4348  -10.5806   30.1376 O   0  0  0  0  0  0  0  0  0  0  0  0
    5.5881    0.1751   16.4516 Cl  0  0  0  0  0  0  0  0  0  0  0  0
  1  2  2  0
  1  4  1  0
  2  6  1  0
  3  4  2  0
  3  5  1  0
  4 18  1  0
  5  6  2  0
  5 17  1  0
  6 24  1  0
  7 19  1  0
  7 23  1  0
  7 28  2  0
  8 12  1  0
  8 16  1  0
  9 13  1  0
  9 16  1  0
 10 14  1  0
 10 23  1  0
 11 15  1  0
 11 23  1  0
 12 27  1  0
 13 27  1  0
 14 26  1  0
 15 26  1  0
 16 29  1  0
 18 26  1  0
 19 30  1  0
 20 21  1  0
 20 24  1  0
 21 25  1  0
 22 25  1  0
 22 27  1  0
M  CHG  2  26   1  27   1
M  END
