MAK-UNK-af83ef51-17
     RDKit          3D

 32 34  0  0  1  0  0  0  0  0999 V2000
    6.8897   -2.9960   26.8598 C   0  0  0  0  0  0  0  0  0  0  0  0
    6.9802   -5.3836   27.2181 C   0  0  0  0  0  0  0  0  0  0  0  0
    5.7451   -2.9203   27.6532 C   0  0  0  0  0  0  0  0  0  0  0  0
    5.8355   -5.3079   28.0116 C   0  0  0  0  0  0  0  0  0  0  0  0
    7.8618   -1.6302   20.9039 C   0  0  0  0  0  0  0  0  0  0  0  0
    6.4607   -3.2293   22.0513 C   0  0  0  0  0  0  0  0  0  0  0  0
    8.8124   -3.0820   22.5849 C   0  0  0  0  0  0  0  0  0  0  0  0
    7.5073   -4.2277   26.6421 C   0  0  0  0  0  0  0  0  0  0  0  0
    6.6109   -2.2124   21.1085 C   0  0  0  0  0  0  0  0  0  0  0  0
    8.9626   -2.0651   21.6420 C   0  0  0  0  0  0  0  0  0  0  0  0
    7.5615   -3.6641   22.7895 C   0  0  0  0  0  0  0  0  0  0  0  0
    5.2180   -4.0762   28.2292 C   0  0  0  0  0  0  0  0  0  0  0  0
   12.3920    3.1013   23.8167 C   0  0  0  0  0  0  0  0  0  0  0  0
   10.3671    1.6950   23.6093 C   0  0  0  0  0  0  0  0  0  0  0  0
   12.5489    0.5631   23.7877 C   0  0  0  0  0  0  0  0  0  0  0  0
    9.9936    0.8311   22.4136 C   0  0  0  0  0  0  0  0  0  0  0  0
   12.2072   -0.3197   22.5949 C   0  0  0  0  0  0  0  0  0  0  0  0
    5.4340   -1.7474   20.3192 C   0  0  0  0  0  0  0  0  0  0  0  0
    9.9565   -4.7916   26.6007 C   0  0  0  0  0  0  0  0  0  0  0  0
   10.3081   -1.4389   21.4218 C   0  0  0  0  0  0  0  0  0  0  0  0
   13.8947    3.1563   23.9292 C   0  0  0  0  0  0  0  0  0  0  0  0
    8.4949   -5.1854   24.5331 C   0  0  0  0  0  0  0  0  0  0  0  0
    8.7554   -4.3108   25.7760 C   0  0  0  0  0  0  0  0  0  0  0  0
   11.8189    1.8338   23.7245 N   0  0  0  0  0  0  0  0  0  0  0  0
    4.4778   -3.7249   30.7656 N   0  0  0  0  0  0  0  0  0  0  0  0
    7.4096   -4.6924   23.7429 N   0  0  0  0  0  0  0  0  0  0  0  0
   10.7071   -0.4978   22.5235 N   0  0  0  0  0  0  0  0  0  0  0  0
   11.7491    4.1542   23.8086 O   0  0  0  0  0  0  0  0  0  0  0  0
    3.0386   -2.7919   28.8411 O   0  0  0  0  0  0  0  0  0  0  0  0
    3.1308   -5.2815   29.2166 O   0  0  0  0  0  0  0  0  0  0  0  0
    3.7865   -3.9813   29.2242 S   0  0  0  0  0  0  0  0  0  0  0  0
   14.3331    4.8598   23.9922 Cl  0  0  0  0  0  0  0  0  0  0  0  0
  1  3  2  0
  1  8  1  0
  2  4  1  0
  2  8  2  0
  3 12  1  0
  4 12  2  0
  5  9  2  0
  5 10  1  0
  6  9  1  0
  6 11  2  0
  7 10  2  0
  7 11  1  0
  8 23  1  0
  9 18  1  0
 10 20  1  0
 11 26  1  0
 12 31  1  0
 13 21  1  0
 13 24  1  0
 13 28  2  0
 14 16  1  0
 14 24  1  0
 15 17  1  0
 15 24  1  0
 16 27  1  0
 17 27  1  0
 19 23  1  0
 20 27  1  0
 21 32  1  0
 22 23  1  0
 22 26  1  0
 25 31  1  0
 29 31  2  0
 30 31  2  0
M  CHG  1  27   1
M  END
