MAK-UNK-9a6be56d-4
     RDKit          3D

 38 42  0  0  1  0  0  0  0  0999 V2000
    7.2027   -5.8728   23.6320 C   0  0  0  0  0  0  0  0  0  0  0  0
    6.5429   -5.5329   24.8130 C   0  0  0  0  0  0  0  0  0  0  0  0
    7.6873    2.1233   19.9644 C   0  0  0  0  0  0  0  0  0  0  0  0
    8.1309   -4.9937   23.0739 C   0  0  0  0  0  0  0  0  0  0  0  0
   11.6444    3.2651   22.4460 C   0  0  0  0  0  0  0  0  0  0  0  0
    6.8111   -4.3140   25.4358 C   0  0  0  0  0  0  0  0  0  0  0  0
    7.5536    1.0867   20.8814 C   0  0  0  0  0  0  0  0  0  0  0  0
   12.4828    2.1705   22.6231 C   0  0  0  0  0  0  0  0  0  0  0  0
   10.8750    1.2130   24.1506 C   0  0  0  0  0  0  0  0  0  0  0  0
   10.7190   -2.7917   23.3393 C   0  0  0  0  0  0  0  0  0  0  0  0
    7.9440    1.7919   18.6438 C   0  0  0  0  0  0  0  0  0  0  0  0
    7.9358   -0.4571   19.1131 C   0  0  0  0  0  0  0  0  0  0  0  0
   10.1616   -1.2052   21.8418 C   0  0  0  0  0  0  0  0  0  0  0  0
    8.3992   -3.7748   23.6967 C   0  0  0  0  0  0  0  0  0  0  0  0
   10.4178    3.3450   23.1284 C   0  0  0  0  0  0  0  0  0  0  0  0
    9.9960    2.3020   23.9890 C   0  0  0  0  0  0  0  0  0  0  0  0
   11.2247   -1.7410   22.5346 C   0  0  0  0  0  0  0  0  0  0  0  0
    7.7393   -3.4349   24.8777 C   0  0  0  0  0  0  0  0  0  0  0  0
   12.0995    1.1462   23.4780 C   0  0  0  0  0  0  0  0  0  0  0  0
    7.6789   -0.2310   20.4558 C   0  0  0  0  0  0  0  0  0  0  0  0
    9.3622   -2.8661   23.1136 C   0  0  0  0  0  0  0  0  0  0  0  0
    9.5424    4.5502   22.8838 C   0  0  0  0  0  0  0  0  0  0  0  0
    8.5298    4.7316   24.0055 C   0  0  0  0  0  0  0  0  0  0  0  0
    7.8156    3.4147   24.2703 C   0  0  0  0  0  0  0  0  0  0  0  0
    8.2885    1.2773   25.4769 C   0  0  0  0  0  0  0  0  0  0  0  0
   13.4184   -1.8296   20.3132 C   0  0  0  0  0  0  0  0  0  0  0  0
    8.0721    0.5239   18.1929 N   0  0  0  0  0  0  0  0  0  0  0  0
    9.0346   -1.8972   22.2014 N   0  0  0  0  0  0  0  0  0  0  0  0
    8.7719    2.3782   24.6561 N   0  0  0  0  0  0  0  0  0  0  0  0
   13.0664   -0.7855   21.2645 N   0  0  0  0  0  0  0  0  0  0  0  0
   12.6148   -1.3262   22.4672 N   0  0  0  0  0  0  0  0  0  0  0  0
    6.7273   -1.1230   22.7408 O   0  0  0  0  0  0  0  0  0  0  0  0
    7.0823   -2.7332   20.8033 O   0  0  0  0  0  0  0  0  0  0  0  0
   14.5056    0.2089   23.4095 O   0  0  0  0  0  0  0  0  0  0  0  0
   12.8691   -0.8111   25.0202 O   0  0  0  0  0  0  0  0  0  0  0  0
    7.9861   -2.2669   25.4889 F   0  0  0  0  0  0  0  0  0  0  0  0
    7.5148   -1.5800   21.5963 S   0  0  0  0  0  0  0  0  0  0  0  0
   13.1471   -0.2321   23.7099 S   0  0  0  0  0  0  0  0  0  0  0  0
  1  2  2  0
  1  4  1  0
  2  6  1  0
  3  7  2  0
  3 11  1  0
  4 14  2  0
  5  8  2  0
  5 15  1  0
  6 18  2  0
  7 20  1  0
  8 19  1  0
  9 16  1  0
  9 19  2  0
 10 17  1  0
 10 21  2  0
 11 27  2  0
 12 20  2  0
 12 27  1  0
 13 17  2  0
 13 28  1  0
 14 18  1  0
 14 21  1  0
 15 16  2  0
 15 22  1  0
 16 29  1  0
 17 31  1  0
 18 36  1  0
 19 38  1  0
 20 37  1  0
 21 28  1  0
 22 23  1  0
 23 24  1  0
 24 29  1  0
 25 29  1  0
 26 30  1  0
 28 37  1  0
 30 31  1  0
 31 38  1  0
 32 37  2  0
 33 37  2  0
 34 38  2  0
 35 38  2  0
M  END
