MAK-UNK-9955b1f3-14
     RDKit          3D

 13 14  0  0  0  0  0  0  0  0999 V2000
   11.2227    4.1289   23.8275 C   0  0  0  0  0  0  0  0  0  0  0  0
   12.6495    4.5538   23.8031 C   0  0  0  0  0  0  0  0  0  0  0  0
   12.4051    2.3808   23.3834 C   0  0  0  0  0  0  0  0  0  0  0  0
   14.4278   -0.6401   23.4948 C   0  0  0  0  0  0  0  0  0  0  0  0
   14.1141    0.7348   22.9193 C   0  0  0  0  0  0  0  0  0  0  0  0
   11.5904    0.1385   22.9960 C   0  0  0  0  0  0  0  0  0  0  0  0
   14.0224   -1.7764   22.5626 C   0  0  0  0  0  0  0  0  0  0  0  0
   11.8708   -0.9322   21.9568 C   0  0  0  0  0  0  0  0  0  0  0  0
   11.1294    2.8620   23.5790 N   0  0  0  0  0  0  0  0  0  0  0  0
   12.6976    1.1132   23.1049 N   0  0  0  0  0  0  0  0  0  0  0  0
   13.3278    3.3448   23.5066 N   0  0  0  0  0  0  0  0  0  0  0  0
   13.1017    5.7257   24.0048 N   0  0  0  0  0  0  0  0  0  0  0  0
   12.6194   -1.9991   22.5289 O   0  0  0  0  0  0  0  0  0  0  0  0
  1  2  1  0
  1  9  2  0
  2 11  1  0
  2 12  2  0
  3  9  1  0
  3 10  1  0
  3 11  2  0
  4  5  1  0
  4  7  1  0
  5 10  1  0
  6  8  1  0
  6 10  1  0
  7 13  1  0
  8 13  1  0
M  CHG  2  11   1  12   1
M  END
