MAK-UNK-30aad1f1-9
     RDKit          3D

 25 27  0  0  0  0  0  0  0  0999 V2000
    6.7339    2.6274   21.2286 C   0  0  0  0  0  0  0  0  0  0  0  0
   12.8966    1.3273   24.0937 C   0  0  0  0  0  0  0  0  0  0  0  0
   12.3634    1.7302   22.8694 C   0  0  0  0  0  0  0  0  0  0  0  0
   12.4672    0.1387   24.6842 C   0  0  0  0  0  0  0  0  0  0  0  0
    7.4455   -6.1713   22.4263 C   0  0  0  0  0  0  0  0  0  0  0  0
    6.2687    0.7350   19.7410 C   0  0  0  0  0  0  0  0  0  0  0  0
   11.4006    0.9447   22.2356 C   0  0  0  0  0  0  0  0  0  0  0  0
   11.5044   -0.6468   24.0504 C   0  0  0  0  0  0  0  0  0  0  0  0
    8.2146   -5.0140   22.3787 C   0  0  0  0  0  0  0  0  0  0  0  0
    6.0780   -0.6304   19.5602 C   0  0  0  0  0  0  0  0  0  0  0  0
    6.2042   -6.1509   21.8110 C   0  0  0  0  0  0  0  0  0  0  0  0
    6.5950    0.3292   22.0617 C   0  0  0  0  0  0  0  0  0  0  0  0
    6.5326    1.2320   21.0125 C   0  0  0  0  0  0  0  0  0  0  0  0
   10.9711   -0.2438   22.8261 C   0  0  0  0  0  0  0  0  0  0  0  0
    7.7257   -3.8874   21.7266 C   0  0  0  0  0  0  0  0  0  0  0  0
    6.1609   -1.4498   20.6744 C   0  0  0  0  0  0  0  0  0  0  0  0
    6.4720   -3.9693   21.1425 C   0  0  0  0  0  0  0  0  0  0  0  0
    9.4455   -2.2561   22.6213 C   0  0  0  0  0  0  0  0  0  0  0  0
    6.8978    3.7628   21.4044 N   0  0  0  0  0  0  0  0  0  0  0  0
    5.6958   -5.0759   21.1681 N   0  0  0  0  0  0  0  0  0  0  0  0
    6.4153   -1.0037   21.9249 N   0  0  0  0  0  0  0  0  0  0  0  0
   10.0081   -1.0294   22.1919 N   0  0  0  0  0  0  0  0  0  0  0  0
    8.5081   -2.7094   21.6794 N   0  0  0  0  0  0  0  0  0  0  0  0
    5.9654   -2.8253   20.4757 N   0  0  0  0  0  0  0  0  0  0  0  0
    9.7389   -2.8321   23.6641 O   0  0  0  0  0  0  0  0  0  0  0  0
  1 13  1  0
  1 19  3  0
  2  3  2  0
  2  4  1  0
  3  7  1  0
  4  8  2  0
  5  9  2  0
  5 11  1  0
  6 10  2  0
  6 13  1  0
  7 14  2  0
  8 14  1  0
  9 15  1  0
 10 16  1  0
 11 20  2  0
 12 13  2  0
 12 21  1  0
 14 22  1  0
 15 17  2  0
 15 23  1  0
 16 21  2  0
 16 24  1  0
 17 20  1  0
 17 24  1  0
 18 22  1  0
 18 23  1  0
 18 25  2  0
M  END
