MAK-UNK-902cc841-4
     RDKit          3D

 30 33  0  0  1  0  0  0  0  0999 V2000
   15.0082   -0.0264   21.6083 C   0  0  0  0  0  0  0  0  0  0  0  0
   14.7760    1.2918   22.0006 C   0  0  0  0  0  0  0  0  0  0  0  0
   13.9647   -0.9520   21.6209 C   0  0  0  0  0  0  0  0  0  0  0  0
    9.0536   -2.2233   24.8183 C   0  0  0  0  0  0  0  0  0  0  0  0
   12.4567    0.7590   22.4181 C   0  0  0  0  0  0  0  0  0  0  0  0
    8.3811   -2.7956   25.8756 C   0  0  0  0  0  0  0  0  0  0  0  0
    8.0486   -4.0459   23.7837 C   0  0  0  0  0  0  0  0  0  0  0  0
    8.8609   -2.9474   23.6064 C   0  0  0  0  0  0  0  0  0  0  0  0
   13.5003    1.6845   22.4055 C   0  0  0  0  0  0  0  0  0  0  0  0
   12.6890   -0.5593   22.0258 C   0  0  0  0  0  0  0  0  0  0  0  0
   12.0386    3.5785   23.2377 C   0  0  0  0  0  0  0  0  0  0  0  0
    6.5878   -0.0553   18.2706 C   0  0  0  0  0  0  0  0  0  0  0  0
   10.3073   -1.2810   22.4098 C   0  0  0  0  0  0  0  0  0  0  0  0
   12.2585    5.0589   23.4520 C   0  0  0  0  0  0  0  0  0  0  0  0
   13.7621    5.1712   23.6057 C   0  0  0  0  0  0  0  0  0  0  0  0
   14.2891    4.0550   22.7284 C   0  0  0  0  0  0  0  0  0  0  0  0
    8.0190   -2.0048   18.7923 C   0  0  0  0  0  0  0  0  0  0  0  0
    6.3481   -1.3147   20.4671 C   0  0  0  0  0  0  0  0  0  0  0  0
    9.0983   -2.0643   19.8633 C   0  0  0  0  0  0  0  0  0  0  0  0
    7.4026   -1.3656   21.5645 C   0  0  0  0  0  0  0  0  0  0  0  0
    5.4957    0.8780   18.7288 C   0  0  0  0  0  0  0  0  0  0  0  0
    9.4776   -2.5549   22.2822 C   0  0  0  0  0  0  0  0  0  0  0  0
   13.2634    3.0328   22.8060 N   0  0  0  0  0  0  0  0  0  0  0  0
    6.9644   -1.0602   19.1605 N   0  0  0  0  0  0  0  0  0  0  0  0
   11.6308   -1.4987   22.0382 N   0  0  0  0  0  0  0  0  0  0  0  0
    8.4552   -2.3863   21.1937 N   0  0  0  0  0  0  0  0  0  0  0  0
   10.9461    3.0487   23.3791 O   0  0  0  0  0  0  0  0  0  0  0  0
    7.0915    0.1071   17.1562 O   0  0  0  0  0  0  0  0  0  0  0  0
    9.8099   -0.2308   22.8069 O   0  0  0  0  0  0  0  0  0  0  0  0
    7.5219   -4.2004   25.4057 S   0  0  0  0  0  0  0  0  0  0  0  0
  1  2  2  0
  1  3  1  0
  2  9  1  0
  3 10  2  0
  4  6  2  0
  4  8  1  0
  5  9  2  0
  5 10  1  0
  6 30  1  0
  7  8  2  0
  7 30  1  0
  8 22  1  0
  9 23  1  0
 10 25  1  0
 11 14  1  0
 11 23  1  0
 11 27  2  0
 12 21  1  0
 12 24  1  0
 12 28  2  0
 13 22  1  0
 13 25  1  0
 13 29  2  0
 14 15  1  0
 15 16  1  0
 16 23  1  0
 17 19  1  0
 17 24  1  0
 18 20  1  0
 18 24  1  0
 19 26  1  0
 20 26  1  0
 22 26  1  0
M  CHG  1  26   1
M  END
