MAK-UNK-7264f48c-1
     RDKit          3D

 26 28  0  0  0  0  0  0  0  0999 V2000
   12.1842   -0.9968   21.9836 C   0  0  0  0  0  0  0  0  0  0  0  0
    5.8170   -5.0501   23.9370 C   0  0  0  0  0  0  0  0  0  0  0  0
   13.5571   -0.9066   22.1474 C   0  0  0  0  0  0  0  0  0  0  0  0
   13.4127    1.2506   22.9245 C   0  0  0  0  0  0  0  0  0  0  0  0
    5.9356   -5.9040   22.8627 C   0  0  0  0  0  0  0  0  0  0  0  0
    8.1264   -5.2557   23.7737 C   0  0  0  0  0  0  0  0  0  0  0  0
   11.4148    0.1124   22.3169 C   0  0  0  0  0  0  0  0  0  0  0  0
   12.0330    1.2616   22.7970 C   0  0  0  0  0  0  0  0  0  0  0  0
    7.0860   -4.6743   24.4648 C   0  0  0  0  0  0  0  0  0  0  0  0
    9.9675    0.0398   22.1531 C   0  0  0  0  0  0  0  0  0  0  0  0
   11.7920    3.6189   23.6392 C   0  0  0  0  0  0  0  0  0  0  0  0
    9.8913   -0.8053   24.4891 C   0  0  0  0  0  0  0  0  0  0  0  0
    7.7499   -0.4717   23.3248 C   0  0  0  0  0  0  0  0  0  0  0  0
    9.4389   -2.1919   24.9363 C   0  0  0  0  0  0  0  0  0  0  0  0
    7.2879   -1.8593   23.7548 C   0  0  0  0  0  0  0  0  0  0  0  0
   10.6778    4.6027   23.8940 C   0  0  0  0  0  0  0  0  0  0  0  0
   14.1934    0.1924   22.6109 N   0  0  0  0  0  0  0  0  0  0  0  0
    9.2161   -0.4202   23.2490 N   0  0  0  0  0  0  0  0  0  0  0  0
    7.9482   -2.2205   25.0469 N   0  0  0  0  0  0  0  0  0  0  0  0
   11.3067    2.4003   23.1457 N   0  0  0  0  0  0  0  0  0  0  0  0
    9.4466    0.3758   21.0880 O   0  0  0  0  0  0  0  0  0  0  0  0
   12.9602    3.9223   23.8586 O   0  0  0  0  0  0  0  0  0  0  0  0
    5.9863   -3.2624   26.3544 O   0  0  0  0  0  0  0  0  0  0  0  0
    8.3148   -4.1592   26.7029 O   0  0  0  0  0  0  0  0  0  0  0  0
    7.5719   -6.2495   22.4943 S   0  0  0  0  0  0  0  0  0  0  0  0
    7.2989   -3.5920   25.8428 S   0  0  0  0  0  0  0  0  0  0  0  0
  1  3  2  0
  1  7  1  0
  2  5  2  0
  2  9  1  0
  3 17  1  0
  4  8  1  0
  4 17  2  0
  5 25  1  0
  6  9  2  0
  6 25  1  0
  7  8  2  0
  7 10  1  0
  8 20  1  0
  9 26  1  0
 10 18  1  0
 10 21  2  0
 11 16  1  0
 11 20  1  0
 11 22  2  0
 12 14  1  0
 12 18  1  0
 13 15  1  0
 13 18  1  0
 14 19  1  0
 15 19  1  0
 19 26  1  0
 23 26  2  0
 24 26  2  0
M  END
