MAK-UNK-a7992eb3-18
     RDKit          3D

 34 36  0  0  1  0  0  0  0  0999 V2000
    6.9056    1.0202   21.8888 C   0  0  0  0  0  0  0  0  0  0  0  0
    7.4908    1.8294   21.2224 C   0  0  0  0  0  0  0  0  0  0  0  0
    8.3936    6.5630   26.3138 C   0  0  0  0  0  0  0  0  0  0  0  0
    8.0814    5.4052   25.6013 C   0  0  0  0  0  0  0  0  0  0  0  0
    9.3190    7.4708   25.7986 C   0  0  0  0  0  0  0  0  0  0  0  0
    8.6946    5.1551   24.3737 C   0  0  0  0  0  0  0  0  0  0  0  0
    9.9322    7.2207   24.5710 C   0  0  0  0  0  0  0  0  0  0  0  0
   10.4812   -2.2704   23.7238 C   0  0  0  0  0  0  0  0  0  0  0  0
    8.8882   -1.1401   25.1457 C   0  0  0  0  0  0  0  0  0  0  0  0
   11.2850   -1.1304   23.7180 C   0  0  0  0  0  0  0  0  0  0  0  0
    9.6920   -0.0001   25.1400 C   0  0  0  0  0  0  0  0  0  0  0  0
    9.2828   -2.2752   24.4376 C   0  0  0  0  0  0  0  0  0  0  0  0
    9.6200    6.0628   23.8585 C   0  0  0  0  0  0  0  0  0  0  0  0
   10.8904    0.0047   24.4261 C   0  0  0  0  0  0  0  0  0  0  0  0
    6.9296   -5.8647   22.6228 C   0  0  0  0  0  0  0  0  0  0  0  0
    6.4278   -2.3394   23.4157 C   0  0  0  0  0  0  0  0  0  0  0  0
   12.4664    5.2153   21.4769 C   0  0  0  0  0  0  0  0  0  0  0  0
   11.3069    3.5457   22.9081 C   0  0  0  0  0  0  0  0  0  0  0  0
   13.7495    4.4402   21.7209 C   0  0  0  0  0  0  0  0  0  0  0  0
   12.6545    2.8521   23.0865 C   0  0  0  0  0  0  0  0  0  0  0  0
    5.9625   -6.9896   22.7894 C   0  0  0  0  0  0  0  0  0  0  0  0
    6.1894    0.0379   22.7017 C   0  0  0  0  0  0  0  0  0  0  0  0
    8.4236   -3.4941   24.4443 C   0  0  0  0  0  0  0  0  0  0  0  0
   10.2801    5.7943   22.5382 C   0  0  0  0  0  0  0  0  0  0  0  0
   12.4697    1.3516   23.2653 C   0  0  0  0  0  0  0  0  0  0  0  0
    7.3884   -3.5179   23.3044 C   0  0  0  0  0  0  0  0  0  0  0  0
    6.8853   -1.2287   22.7204 N   0  0  0  0  0  0  0  0  0  0  0  0
    6.5929   -4.7196   23.3235 N   0  0  0  0  0  0  0  0  0  0  0  0
   11.5584    5.0164   22.6668 N   0  0  0  0  0  0  0  0  0  0  0  0
    7.9159   -6.0162   21.9116 O   0  0  0  0  0  0  0  0  0  0  0  0
    5.3972   -2.3770   24.0846 O   0  0  0  0  0  0  0  0  0  0  0  0
   13.4675    3.0552   21.9250 O   0  0  0  0  0  0  0  0  0  0  0  0
   11.6821    1.1259   24.4214 O   0  0  0  0  0  0  0  0  0  0  0  0
    8.4174    3.1101   20.1680 Br  0  0  0  0  0  0  0  0  0  0  0  0
  1  2  3  0
  1 22  1  0
  2 34  1  0
  3  4  2  0
  3  5  1  0
  4  6  1  0
  5  7  2  0
  6 13  2  0
  7 13  1  0
  8 10  2  0
  8 12  1  0
  9 11  1  0
  9 12  2  0
 10 14  1  0
 11 14  2  0
 12 23  1  0
 13 24  1  0
 14 33  1  0
 15 21  1  0
 15 28  1  0
 15 30  2  0
 16 26  1  0
 16 27  1  0
 16 31  2  0
 17 19  1  0
 17 29  1  0
 18 20  1  0
 18 29  1  0
 19 32  1  0
 20 25  1  0
 20 32  1  0
 22 27  1  0
 23 26  1  0
 24 29  1  0
 25 33  1  0
 26 28  1  0
M  CHG  1  29   1
M  END
