MAK-UNK-902cc841-5
     RDKit          3D

 32 35  0  0  1  0  0  0  0  0999 V2000
    9.3898    4.0901   24.7164 C   0  0  0  0  0  0  0  0  0  0  0  0
   12.1768    0.0512   24.0966 C   0  0  0  0  0  0  0  0  0  0  0  0
   11.9297   -1.4326   22.2060 C   0  0  0  0  0  0  0  0  0  0  0  0
   13.3486    0.5644   23.5408 C   0  0  0  0  0  0  0  0  0  0  0  0
   13.1016   -0.9194   21.6501 C   0  0  0  0  0  0  0  0  0  0  0  0
    9.7541    3.0237   23.8445 C   0  0  0  0  0  0  0  0  0  0  0  0
    8.3223    3.7587   25.5214 C   0  0  0  0  0  0  0  0  0  0  0  0
   11.4673   -0.9473   23.4293 C   0  0  0  0  0  0  0  0  0  0  0  0
   13.8110    0.0791   22.3175 C   0  0  0  0  0  0  0  0  0  0  0  0
    8.9511    1.9176   24.0165 C   0  0  0  0  0  0  0  0  0  0  0  0
    9.0598   -3.5175   23.5523 C   0  0  0  0  0  0  0  0  0  0  0  0
    8.2666   -4.3557   24.2271 C   0  0  0  0  0  0  0  0  0  0  0  0
    5.9499   -0.3115   18.7626 C   0  0  0  0  0  0  0  0  0  0  0  0
    9.1746   -0.6000   24.2474 C   0  0  0  0  0  0  0  0  0  0  0  0
    6.4661   -1.1518   21.0316 C   0  0  0  0  0  0  0  0  0  0  0  0
    6.2700    1.2845   20.7166 C   0  0  0  0  0  0  0  0  0  0  0  0
    7.7796   -0.9703   21.7781 C   0  0  0  0  0  0  0  0  0  0  0  0
    7.5805    1.5030   21.4606 C   0  0  0  0  0  0  0  0  0  0  0  0
    9.9345   -3.1301   25.7950 C   0  0  0  0  0  0  0  0  0  0  0  0
   10.1900   -2.8843   24.3096 C   0  0  0  0  0  0  0  0  0  0  0  0
    5.7257    0.8836   17.8708 C   0  0  0  0  0  0  0  0  0  0  0  0
    9.0099    0.5882   23.2923 C   0  0  0  0  0  0  0  0  0  0  0  0
    6.2328   -0.0467   20.1018 N   0  0  0  0  0  0  0  0  0  0  0  0
   10.2511   -1.4803   24.0061 N   0  0  0  0  0  0  0  0  0  0  0  0
    7.7785    0.3817   22.4559 N   0  0  0  0  0  0  0  0  0  0  0  0
    5.8780   -1.4450   18.2811 O   0  0  0  0  0  0  0  0  0  0  0  0
    8.3469   -0.7456   25.1540 O   0  0  0  0  0  0  0  0  0  0  0  0
    7.6963   -4.1427   26.7626 O   0  0  0  0  0  0  0  0  0  0  0  0
    9.5344   -5.7266   26.0382 O   0  0  0  0  0  0  0  0  0  0  0  0
   14.9358    0.5726   21.7830 F   0  0  0  0  0  0  0  0  0  0  0  0
    7.7637    2.1673   25.2248 S   0  0  0  0  0  0  0  0  0  0  0  0
    8.7807   -4.5001   25.8709 S   0  0  0  0  0  0  0  0  0  0  0  0
  1  6  1  0
  1  7  2  0
  2  4  2  0
  2  8  1  0
  3  5  1  0
  3  8  2  0
  4  9  1  0
  5  9  2  0
  6 10  2  0
  7 31  1  0
  8 24  1  0
  9 30  1  0
 10 22  1  0
 10 31  1  0
 11 12  2  0
 11 20  1  0
 12 32  1  0
 13 21  1  0
 13 23  1  0
 13 26  2  0
 14 22  1  0
 14 24  1  0
 14 27  2  0
 15 17  1  0
 15 23  1  0
 16 18  1  0
 16 23  1  0
 17 25  1  0
 18 25  1  0
 19 20  1  0
 19 32  1  0
 20 24  1  0
 22 25  1  0
 28 32  2  0
 29 32  2  0
M  CHG  1  25   1
M  END
