MAK-UNK-8fdbca50-38
     RDKit          3D

 40 43  0  0  0  0  0  0  0  0999 V2000
   14.9743    1.0097   20.6540 C   0  0  0  0  0  0  0  0  0  0  0  0
   16.1172    0.2729   20.9646 C   0  0  0  0  0  0  0  0  0  0  0  0
   12.2808    4.0840   23.1043 C   0  0  0  0  0  0  0  0  0  0  0  0
   13.7240    0.5770   21.0957 C   0  0  0  0  0  0  0  0  0  0  0  0
   16.0098   -0.8968   21.7168 C   0  0  0  0  0  0  0  0  0  0  0  0
   12.7024    2.7911   23.3938 C   0  0  0  0  0  0  0  0  0  0  0  0
   11.4247   -1.8730   21.6685 C   0  0  0  0  0  0  0  0  0  0  0  0
   11.1056    4.5289   23.6881 C   0  0  0  0  0  0  0  0  0  0  0  0
   10.7865    2.5323   24.7790 C   0  0  0  0  0  0  0  0  0  0  0  0
   10.5337   -1.2504   23.6403 C   0  0  0  0  0  0  0  0  0  0  0  0
   13.6166   -0.5927   21.8480 C   0  0  0  0  0  0  0  0  0  0  0  0
   10.2963   -2.0076   22.5145 C   0  0  0  0  0  0  0  0  0  0  0  0
   14.7594   -1.3296   22.1586 C   0  0  0  0  0  0  0  0  0  0  0  0
   11.9467    1.9938   24.2461 C   0  0  0  0  0  0  0  0  0  0  0  0
   12.3174   -1.0379   22.3032 C   0  0  0  0  0  0  0  0  0  0  0  0
    6.2481   -3.0480   21.4948 C   0  0  0  0  0  0  0  0  0  0  0  0
    4.4884   -6.1188   25.1161 C   0  0  0  0  0  0  0  0  0  0  0  0
    7.1053   -4.7958   23.0744 C   0  0  0  0  0  0  0  0  0  0  0  0
    5.6498   -2.9005   23.9252 C   0  0  0  0  0  0  0  0  0  0  0  0
    5.8775   -5.7077   23.1107 C   0  0  0  0  0  0  0  0  0  0  0  0
    4.4605   -3.8641   23.9396 C   0  0  0  0  0  0  0  0  0  0  0  0
    6.7123   -3.3220   22.9001 C   0  0  0  0  0  0  0  0  0  0  0  0
    8.0707   -0.8796   19.3974 C   0  0  0  0  0  0  0  0  0  0  0  0
    5.5905   -0.5790   19.0748 C   0  0  0  0  0  0  0  0  0  0  0  0
    6.5035   -0.5897   21.8658 C   0  0  0  0  0  0  0  0  0  0  0  0
    9.0683   -2.8236   22.2367 C   0  0  0  0  0  0  0  0  0  0  0  0
    3.4993   -5.5687   26.1124 C   0  0  0  0  0  0  0  0  0  0  0  0
    6.6924   -1.4980   19.5814 C   0  0  0  0  0  0  0  0  0  0  0  0
   10.3449    3.7837   24.5210 N   0  0  0  0  0  0  0  0  0  0  0  0
   11.7654   -0.6658   23.5011 N   0  0  0  0  0  0  0  0  0  0  0  0
    4.9159   -5.2484   24.1142 N   0  0  0  0  0  0  0  0  0  0  0  0
    6.4724   -1.7624   21.0010 N   0  0  0  0  0  0  0  0  0  0  0  0
    7.9331   -2.4879   23.1303 N   0  0  0  0  0  0  0  0  0  0  0  0
    5.7020   -3.9505   20.8546 O   0  0  0  0  0  0  0  0  0  0  0  0
    4.8699   -7.2867   25.2279 O   0  0  0  0  0  0  0  0  0  0  0  0
   13.8962    0.2362   24.4286 O   0  0  0  0  0  0  0  0  0  0  0  0
   11.8628    0.0323   25.9441 O   0  0  0  0  0  0  0  0  0  0  0  0
   14.6730   -2.4563   22.8810 F   0  0  0  0  0  0  0  0  0  0  0  0
   12.4525    0.3393   24.6389 S   0  0  0  0  0  0  0  0  0  0  0  0
    3.1175   -6.8816   27.2208 Cl  0  0  0  0  0  0  0  0  0  0  0  0
  1  2  2  0
  1  4  1  0
  2  5  1  0
  3  6  2  0
  3  8  1  0
  4 11  2  0
  5 13  2  0
  6 14  1  0
  7 12  1  0
  7 15  2  0
  8 29  2  0
  9 14  2  0
  9 29  1  0
 10 12  2  0
 10 30  1  0
 11 13  1  0
 11 15  1  0
 12 26  1  0
 13 38  1  0
 14 39  1  0
 15 30  1  0
 16 22  1  0
 16 32  1  0
 16 34  2  0
 17 27  1  0
 17 31  1  0
 17 35  2  0
 18 20  1  0
 18 22  1  0
 19 21  1  0
 19 22  1  0
 20 31  1  0
 21 31  1  0
 22 33  1  0
 23 28  1  0
 24 28  1  0
 25 32  1  0
 26 33  1  0
 27 40  1  0
 28 32  1  0
 30 39  1  0
 36 39  2  0
 37 39  2  0
M  CHG  1  33   1
M  END
