MAK-UNK-acefcb18-2
     RDKit          3D

 17 18  0  0  1  0  0  0  0  0999 V2000
   12.9643   -1.5700   23.9513 C   0  0  0  0  0  0  0  0  0  0  0  0
   12.0435   -3.0882   25.5897 C   0  0  0  0  0  0  0  0  0  0  0  0
   11.8038   -1.6909   23.1870 C   0  0  0  0  0  0  0  0  0  0  0  0
   10.8829   -3.2091   24.8254 C   0  0  0  0  0  0  0  0  0  0  0  0
    7.4325   -5.1254   22.1446 C   0  0  0  0  0  0  0  0  0  0  0  0
    7.0577   -5.9647   23.1706 C   0  0  0  0  0  0  0  0  0  0  0  0
    6.1104   -3.7096   23.4292 C   0  0  0  0  0  0  0  0  0  0  0  0
   13.0842   -2.2687   25.1527 C   0  0  0  0  0  0  0  0  0  0  0  0
    6.8839   -3.8189   22.2944 C   0  0  0  0  0  0  0  0  0  0  0  0
   10.7631   -2.5104   23.6240 C   0  0  0  0  0  0  0  0  0  0  0  0
   14.3246   -2.1391   25.9702 C   0  0  0  0  0  0  0  0  0  0  0  0
    7.7351   -1.4372   21.9640 C   0  0  0  0  0  0  0  0  0  0  0  0
    9.2529   -1.5010   22.0891 C   0  0  0  0  0  0  0  0  0  0  0  0
    7.1228   -2.6881   21.3213 C   0  0  0  0  0  0  0  0  0  0  0  0
    5.8690   -2.3426   20.7298 O   0  0  0  0  0  0  0  0  0  0  0  0
    9.6227   -2.6280   22.8737 O   0  0  0  0  0  0  0  0  0  0  0  0
    6.0483   -5.1779   24.3082 S   0  0  0  0  0  0  0  0  0  0  0  0
  1  3  2  0
  1  8  1  0
  2  4  1  0
  2  8  2  0
  3 10  1  0
  4 10  2  0
  5  6  2  0
  5  9  1  0
  6 17  1  0
  7  9  2  0
  7 17  1  0
  8 11  1  0
  9 14  1  0
 10 16  1  0
 12 13  1  0
 12 14  1  0
 13 16  1  0
 14 15  1  0
M  END
