MAK-UNK-f2409524-22
     RDKit          3D

 23 25  0  0  0  0  0  0  0  0999 V2000
   12.4351    5.5818   24.8487 C   0  0  0  0  0  0  0  0  0  0  0  0
   12.2480    6.6264   25.7428 C   0  0  0  0  0  0  0  0  0  0  0  0
   10.2063    7.1947   24.7319 C   0  0  0  0  0  0  0  0  0  0  0  0
   11.4684    5.3523   23.8744 C   0  0  0  0  0  0  0  0  0  0  0  0
   10.3405    6.1649   23.8115 C   0  0  0  0  0  0  0  0  0  0  0  0
    8.1680    6.7005   22.6636 C   0  0  0  0  0  0  0  0  0  0  0  0
    9.2088   -2.6940   23.4967 C   0  0  0  0  0  0  0  0  0  0  0  0
   10.0107   -2.4612   22.2200 C   0  0  0  0  0  0  0  0  0  0  0  0
    9.0276   -1.4029   24.2887 C   0  0  0  0  0  0  0  0  0  0  0  0
   11.3511   -1.7902   22.5112 C   0  0  0  0  0  0  0  0  0  0  0  0
   10.3663   -0.7300   24.5833 C   0  0  0  0  0  0  0  0  0  0  0  0
   12.4448    1.0879   24.8303 C   0  0  0  0  0  0  0  0  0  0  0  0
   13.1309    0.8585   22.4095 C   0  0  0  0  0  0  0  0  0  0  0  0
   11.7386    2.4036   24.5070 C   0  0  0  0  0  0  0  0  0  0  0  0
   12.4250    2.1736   22.0832 C   0  0  0  0  0  0  0  0  0  0  0  0
   11.1723   -0.4861   23.3003 C   0  0  0  0  0  0  0  0  0  0  0  0
   12.5315    0.1394   23.6263 C   0  0  0  0  0  0  0  0  0  0  0  0
   12.3666    3.1024   23.2985 C   0  0  0  0  0  0  0  0  0  0  0  0
    7.3576    6.1690   21.5080 C   0  0  0  0  0  0  0  0  0  0  0  0
   11.1524    7.3935   25.6598 N   0  0  0  0  0  0  0  0  0  0  0  0
    9.3483    5.9692   22.8493 N   0  0  0  0  0  0  0  0  0  0  0  0
   11.6478    4.3136   22.9800 N   0  0  0  0  0  0  0  0  0  0  0  0
    7.7770    7.6641   23.3143 O   0  0  0  0  0  0  0  0  0  0  0  0
  1  2  2  0
  1  4  1  0
  2 20  1  0
  3  5  1  0
  3 20  2  0
  4  5  2  0
  4 22  1  0
  5 21  1  0
  6 19  1  0
  6 21  1  0
  6 23  2  0
  7  8  1  0
  7  9  1  0
  8 10  1  0
  9 11  1  0
 10 16  1  0
 11 16  1  0
 12 14  1  0
 12 17  1  0
 13 15  1  0
 13 17  1  0
 14 18  1  0
 15 18  1  0
 16 17  1  0
 18 22  1  0
M  CHG  1  20   1
M  END
