MAK-UNK-1bb0b7ee-14
     RDKit          3D

 32 34  0  0  1  0  0  0  0  0999 V2000
    9.7287    3.9909   24.5641 C   0  0  0  0  0  0  0  0  0  0  0  0
    9.9624    5.0007   23.9584 C   0  0  0  0  0  0  0  0  0  0  0  0
    6.4271    0.2594   17.8664 C   0  0  0  0  0  0  0  0  0  0  0  0
   14.3484   -0.6992   24.2824 C   0  0  0  0  0  0  0  0  0  0  0  0
   14.4941   -1.9574   23.6935 C   0  0  0  0  0  0  0  0  0  0  0  0
    5.3597    0.3031   18.7632 C   0  0  0  0  0  0  0  0  0  0  0  0
    7.7235    0.5171   18.3121 C   0  0  0  0  0  0  0  0  0  0  0  0
   13.3898    0.2091   23.8158 C   0  0  0  0  0  0  0  0  0  0  0  0
   13.6898   -2.3539   22.6199 C   0  0  0  0  0  0  0  0  0  0  0  0
    5.5886    0.6048   20.1057 C   0  0  0  0  0  0  0  0  0  0  0  0
    7.9525    0.8188   19.6546 C   0  0  0  0  0  0  0  0  0  0  0  0
   12.5733   -0.1726   22.7378 C   0  0  0  0  0  0  0  0  0  0  0  0
   12.7420   -1.4331   22.1719 C   0  0  0  0  0  0  0  0  0  0  0  0
    6.8850    0.8626   20.5514 C   0  0  0  0  0  0  0  0  0  0  0  0
   11.1352   -0.2942   21.1641 C   0  0  0  0  0  0  0  0  0  0  0  0
    8.7684   -2.4643   24.5020 C   0  0  0  0  0  0  0  0  0  0  0  0
    8.1935    0.6793   24.7967 C   0  0  0  0  0  0  0  0  0  0  0  0
    8.3470   -3.7651   25.1008 C   0  0  0  0  0  0  0  0  0  0  0  0
    5.5892    0.7500   23.6773 C   0  0  0  0  0  0  0  0  0  0  0  0
    9.4453    2.7629   25.3060 C   0  0  0  0  0  0  0  0  0  0  0  0
    9.3464    1.0923   20.1137 C   0  0  0  0  0  0  0  0  0  0  0  0
    7.9057   -0.2915   23.6550 C   0  0  0  0  0  0  0  0  0  0  0  0
    6.7019    0.1633   22.8171 C   0  0  0  0  0  0  0  0  0  0  0  0
   11.5707    0.5203   22.0989 N   0  0  0  0  0  0  0  0  0  0  0  0
   11.8093   -1.4837   21.1679 N   0  0  0  0  0  0  0  0  0  0  0  0
   10.1311   -0.1105   20.2241 N   0  0  0  0  0  0  0  0  0  0  0  0
    9.0593    1.6943   24.4147 N   0  0  0  0  0  0  0  0  0  0  0  0
    7.7221   -1.5988   24.2317 N   0  0  0  0  0  0  0  0  0  0  0  0
    9.9575   -2.2505   24.2971 O   0  0  0  0  0  0  0  0  0  0  0  0
    7.6742    0.5815   25.9066 O   0  0  0  0  0  0  0  0  0  0  0  0
    7.0921    1.1577   21.8712 O   0  0  0  0  0  0  0  0  0  0  0  0
   10.3326    6.5990   22.9997 Br  0  0  0  0  0  0  0  0  0  0  0  0
  1  2  3  0
  1 20  1  0
  2 32  1  0
  3  6  2  0
  3  7  1  0
  4  5  2  0
  4  8  1  0
  5  9  1  0
  6 10  1  0
  7 11  2  0
  8 12  2  0
  9 13  2  0
 10 14  2  0
 11 14  1  0
 11 21  1  0
 12 13  1  0
 12 24  1  0
 13 25  1  0
 14 31  1  0
 15 24  2  0
 15 25  1  0
 15 26  1  0
 16 18  1  0
 16 28  1  0
 16 29  2  0
 17 22  1  0
 17 27  1  0
 17 30  2  0
 19 23  1  0
 20 27  1  0
 21 26  1  0
 22 23  1  0
 22 28  1  0
 23 31  1  0
M  END
