MAK-UNK-702fb7d3-6
     RDKit          3D

 43 48  0  0  1  0  0  0  0  0999 V2000
    7.9612   -7.0577   20.2893 C   0  0  0  0  0  0  0  0  0  0  0  0
    0.7052  -12.0986   26.0117 C   0  0  0  0  0  0  0  0  0  0  0  0
    8.7762   -6.6773   21.3554 C   0  0  0  0  0  0  0  0  0  0  0  0
    6.5977   -6.7643   20.3145 C   0  0  0  0  0  0  0  0  0  0  0  0
    9.2157   -4.0458   26.7333 C   0  0  0  0  0  0  0  0  0  0  0  0
    8.7463   -5.3459   26.5827 C   0  0  0  0  0  0  0  0  0  0  0  0
   -0.3287  -12.4673   25.1511 C   0  0  0  0  0  0  0  0  0  0  0  0
   -2.0132   -4.1217   24.8961 C   0  0  0  0  0  0  0  0  0  0  0  0
    1.3613  -10.8808   25.8322 C   0  0  0  0  0  0  0  0  0  0  0  0
    8.2279   -6.0037   22.4468 C   0  0  0  0  0  0  0  0  0  0  0  0
    6.0493   -6.0907   21.4059 C   0  0  0  0  0  0  0  0  0  0  0  0
    8.7486   -3.0374   25.8928 C   0  0  0  0  0  0  0  0  0  0  0  0
    7.7998   -5.6365   25.6001 C   0  0  0  0  0  0  0  0  0  0  0  0
   -0.7064  -11.6183   24.1109 C   0  0  0  0  0  0  0  0  0  0  0  0
   -1.5783   -5.4338   25.0462 C   0  0  0  0  0  0  0  0  0  0  0  0
    2.7854   -8.5010   23.8508 C   0  0  0  0  0  0  0  0  0  0  0  0
   -1.4552   -3.1555   25.7176 C   0  0  0  0  0  0  0  0  0  0  0  0
   -0.1168   -4.6968   26.7717 C   0  0  0  0  0  0  0  0  0  0  0  0
    2.1200   -6.5885   24.8354 C   0  0  0  0  0  0  0  0  0  0  0  0
    0.9835  -10.0318   24.7920 C   0  0  0  0  0  0  0  0  0  0  0  0
    6.8644   -5.7104   22.4721 C   0  0  0  0  0  0  0  0  0  0  0  0
    7.8034   -3.3166   24.8922 C   0  0  0  0  0  0  0  0  0  0  0  0
    7.3008   -4.6275   24.7548 C   0  0  0  0  0  0  0  0  0  0  0  0
    3.0715   -7.1208   23.9937 C   0  0  0  0  0  0  0  0  0  0  0  0
   -0.0503  -10.4005   23.9313 C   0  0  0  0  0  0  0  0  0  0  0  0
   -0.6123   -5.7353   25.9998 C   0  0  0  0  0  0  0  0  0  0  0  0
    1.6676   -8.7700   24.6094 C   0  0  0  0  0  0  0  0  0  0  0  0
    6.5724   -2.0748   21.5825 C   0  0  0  0  0  0  0  0  0  0  0  0
    7.3603   -2.1884   23.9919 C   0  0  0  0  0  0  0  0  0  0  0  0
    5.5640   -3.6709   23.1800 C   0  0  0  0  0  0  0  0  0  0  0  0
    6.2566   -4.9650   23.6800 C   0  0  0  0  0  0  0  0  0  0  0  0
    4.2021   -6.3751   23.3482 C   0  0  0  0  0  0  0  0  0  0  0  0
    7.5387   -0.9369   21.3684 C   0  0  0  0  0  0  0  0  0  0  0  0
   -0.5149   -3.4101   26.6549 N   0  0  0  0  0  0  0  0  0  0  0  0
    1.2716   -7.6001   25.2032 N   0  0  0  0  0  0  0  0  0  0  0  0
    6.5404   -2.6314   22.8615 N   0  0  0  0  0  0  0  0  0  0  0  0
    5.1184   -5.7518   24.3268 N   0  0  0  0  0  0  0  0  0  0  0  0
    5.8745   -2.4601   20.6411 O   0  0  0  0  0  0  0  0  0  0  0  0
    0.5064   -7.5219   27.5744 O   0  0  0  0  0  0  0  0  0  0  0  0
   -1.1162   -8.2706   25.7635 O   0  0  0  0  0  0  0  0  0  0  0  0
   -0.4256   -9.5953   22.9265 F   0  0  0  0  0  0  0  0  0  0  0  0
   -0.0325   -7.3974   26.2205 S   0  0  0  0  0  0  0  0  0  0  0  0
    9.0679   -1.6602   20.8829 Cl  0  0  0  0  0  0  0  0  0  0  0  0
  1  3  2  0
  1  4  1  0
  2  7  2  0
  2  9  1  0
  3 10  1  0
  4 11  2  0
  5  6  2  0
  5 12  1  0
  6 13  1  0
  7 14  1  0
  8 15  2  0
  8 17  1  0
  9 20  2  0
 10 21  2  0
 11 21  1  0
 12 22  2  0
 13 23  2  0
 14 25  2  0
 15 26  1  0
 16 24  1  0
 16 27  2  0
 17 34  2  0
 18 26  2  0
 18 34  1  0
 19 24  2  0
 19 35  1  0
 20 25  1  0
 20 27  1  0
 21 31  1  0
 22 23  1  0
 22 29  1  0
 23 31  1  0
 24 32  1  0
 25 41  1  0
 26 42  1  0
 27 35  1  0
 28 33  1  0
 28 36  1  0
 28 38  2  0
 29 36  1  0
 30 31  1  0
 30 36  1  0
 31 37  1  0
 32 37  1  0
 33 43  1  0
 35 42  1  0
 39 42  2  0
 40 42  2  0
M  CHG  1  37   1
M  END
