MAK-UNK-de9577cf-6
     RDKit          3D

 37 40  0  0  0  0  0  0  0  0999 V2000
   11.4513    0.6369   23.7250 C   0  0  0  0  0  0  0  0  0  0  0  0
    4.4082    0.8428   18.2253 C   0  0  0  0  0  0  0  0  0  0  0  0
   10.5985    1.5456   23.0985 C   0  0  0  0  0  0  0  0  0  0  0  0
    7.7728   -4.8004   25.5309 C   0  0  0  0  0  0  0  0  0  0  0  0
    8.0435   -3.1952   27.3162 C   0  0  0  0  0  0  0  0  0  0  0  0
   10.9290   -0.3363   24.5770 C   0  0  0  0  0  0  0  0  0  0  0  0
    4.9038    0.7787   19.5228 C   0  0  0  0  0  0  0  0  0  0  0  0
    7.2642   -5.7269   26.4411 C   0  0  0  0  0  0  0  0  0  0  0  0
    7.5348   -4.1217   28.2264 C   0  0  0  0  0  0  0  0  0  0  0  0
    8.3386    3.7979   22.7700 C   0  0  0  0  0  0  0  0  0  0  0  0
    5.3085    0.7141   17.1800 C   0  0  0  0  0  0  0  0  0  0  0  0
    7.0826    0.4729   18.6197 C   0  0  0  0  0  0  0  0  0  0  0  0
    6.6878    3.1766   21.3703 C   0  0  0  0  0  0  0  0  0  0  0  0
    9.2235    1.4812   23.3239 C   0  0  0  0  0  0  0  0  0  0  0  0
    8.1625   -3.5345   25.9685 C   0  0  0  0  0  0  0  0  0  0  0  0
    7.2897    4.2741   21.9452 C   0  0  0  0  0  0  0  0  0  0  0  0
    9.5540   -0.4008   24.8024 C   0  0  0  0  0  0  0  0  0  0  0  0
    8.7012    0.5080   24.1759 C   0  0  0  0  0  0  0  0  0  0  0  0
    7.1452   -5.3876   27.7888 C   0  0  0  0  0  0  0  0  0  0  0  0
    6.2654    0.5906   19.7324 C   0  0  0  0  0  0  0  0  0  0  0  0
    8.3458    2.4238   22.6738 C   0  0  0  0  0  0  0  0  0  0  0  0
    8.7076   -2.5492   24.9999 C   0  0  0  0  0  0  0  0  0  0  0  0
    5.7460    7.6920   22.6638 C   0  0  0  0  0  0  0  0  0  0  0  0
    6.9105    5.6852   21.7391 C   0  0  0  0  0  0  0  0  0  0  0  0
    6.6377    0.5302   17.3444 N   0  0  0  0  0  0  0  0  0  0  0  0
    7.3383    2.0573   21.8201 N   0  0  0  0  0  0  0  0  0  0  0  0
    7.9406   -7.3385   29.4217 N   0  0  0  0  0  0  0  0  0  0  0  0
    6.1773    6.2912   22.8930 N   0  0  0  0  0  0  0  0  0  0  0  0
    8.8398   -2.7855   23.8084 O   0  0  0  0  0  0  0  0  0  0  0  0
    5.8659    0.1006   22.2865 O   0  0  0  0  0  0  0  0  0  0  0  0
    8.1662   -0.2828   21.2693 O   0  0  0  0  0  0  0  0  0  0  0  0
    5.9572   -5.8219   30.0633 O   0  0  0  0  0  0  0  0  0  0  0  0
    5.6762   -7.4982   28.2035 O   0  0  0  0  0  0  0  0  0  0  0  0
    9.0465   -1.3514   25.6339 O   0  0  0  0  0  0  0  0  0  0  0  0
    7.3799    0.4378   24.3990 F   0  0  0  0  0  0  0  0  0  0  0  0
    6.9348    0.5036   21.3732 S   0  0  0  0  0  0  0  0  0  0  0  0
    6.5086   -6.5479   28.9278 S   0  0  0  0  0  0  0  0  0  0  0  0
  1  3  2  0
  1  6  1  0
  2  7  2  0
  2 11  1  0
  3 14  1  0
  4  8  2  0
  4 15  1  0
  5  9  1  0
  5 15  2  0
  6 17  2  0
  7 20  1  0
  8 19  1  0
  9 19  2  0
 10 16  1  0
 10 21  2  0
 11 25  2  0
 12 20  2  0
 12 25  1  0
 13 16  2  0
 13 26  1  0
 14 18  2  0
 14 21  1  0
 15 22  1  0
 16 24  1  0
 17 18  1  0
 17 34  1  0
 18 35  1  0
 19 37  1  0
 20 36  1  0
 21 26  1  0
 22 29  2  0
 22 34  1  0
 23 28  1  0
 24 28  1  0
 26 36  1  0
 27 37  1  0
 30 36  2  0
 31 36  2  0
 32 37  2  0
 33 37  2  0
M  CHG  1  28   1
M  END
