MAK-UNK-902cc841-12
     RDKit          3D

 29 31  0  0  1  0  0  0  0  0999 V2000
    6.2334    0.7774   17.6989 C   0  0  0  0  0  0  0  0  0  0  0  0
   13.8697   -0.8713   22.9685 C   0  0  0  0  0  0  0  0  0  0  0  0
    5.2502    1.3634   18.4960 C   0  0  0  0  0  0  0  0  0  0  0  0
    7.2481    0.0213   18.2858 C   0  0  0  0  0  0  0  0  0  0  0  0
   12.8063   -1.5440   22.3001 C   0  0  0  0  0  0  0  0  0  0  0  0
    6.2963    0.4374   20.4671 C   0  0  0  0  0  0  0  0  0  0  0  0
   13.4099    0.1289   23.7965 C   0  0  0  0  0  0  0  0  0  0  0  0
    5.2816    1.1934   19.8801 C   0  0  0  0  0  0  0  0  0  0  0  0
    7.2795   -0.1487   19.6699 C   0  0  0  0  0  0  0  0  0  0  0  0
   11.5740   -1.0324   22.6430 C   0  0  0  0  0  0  0  0  0  0  0  0
    4.2568    1.8044   20.7113 C   0  0  0  0  0  0  0  0  0  0  0  0
    7.0472   -4.9878   25.0456 C   0  0  0  0  0  0  0  0  0  0  0  0
    7.0652   -2.7786   23.7904 C   0  0  0  0  0  0  0  0  0  0  0  0
    9.0200   -3.4988   25.1037 C   0  0  0  0  0  0  0  0  0  0  0  0
    8.0127   -2.3267   22.6776 C   0  0  0  0  0  0  0  0  0  0  0  0
    9.9288   -3.0392   23.9642 C   0  0  0  0  0  0  0  0  0  0  0  0
    5.6153   -5.1765   24.6120 C   0  0  0  0  0  0  0  0  0  0  0  0
    2.2907    3.1556   20.6683 C   0  0  0  0  0  0  0  0  0  0  0  0
   10.2037   -1.4665   22.1585 C   0  0  0  0  0  0  0  0  0  0  0  0
    7.6800   -3.8221   24.6162 N   0  0  0  0  0  0  0  0  0  0  0  0
    9.3162   -1.9250   23.2264 N   0  0  0  0  0  0  0  0  0  0  0  0
    8.3271   -0.9291   20.2743 N   0  0  0  0  0  0  0  0  0  0  0  0
    4.2053    1.7073   21.9447 O   0  0  0  0  0  0  0  0  0  0  0  0
    7.5866   -5.8523   25.7409 O   0  0  0  0  0  0  0  0  0  0  0  0
    8.8341    0.7961   22.1009 O   0  0  0  0  0  0  0  0  0  0  0  0
   10.5674    0.4062   20.3179 O   0  0  0  0  0  0  0  0  0  0  0  0
    3.3518    2.5048   19.9611 O   0  0  0  0  0  0  0  0  0  0  0  0
   11.7023    0.2539   23.7661 S   0  0  0  0  0  0  0  0  0  0  0  0
    9.5256   -0.0997   21.1913 S   0  0  0  0  0  0  0  0  0  0  0  0
  1  3  2  0
  1  4  1  0
  2  5  1  0
  2  7  2  0
  3  8  1  0
  4  9  2  0
  5 10  2  0
  6  8  2  0
  6  9  1  0
  7 28  1  0
  8 11  1  0
  9 22  1  0
 10 19  1  0
 10 28  1  0
 11 23  2  0
 11 27  1  0
 12 17  1  0
 12 20  1  0
 12 24  2  0
 13 15  1  0
 13 20  1  0
 14 16  1  0
 14 20  1  0
 15 21  1  0
 16 21  1  0
 18 27  1  0
 19 21  1  0
 19 29  1  0
 22 29  1  0
 25 29  2  0
 26 29  2  0
M  END
