MAK-UNK-f2409524-19
     RDKit          3D

 24 25  0  0  1  0  0  0  0  0999 V2000
   11.1772    0.2193   22.1629 C   0  0  0  0  0  0  0  0  0  0  0  0
   12.3982   -0.1451   22.7122 C   0  0  0  0  0  0  0  0  0  0  0  0
   12.9165    2.0970   23.1785 C   0  0  0  0  0  0  0  0  0  0  0  0
   10.8331    1.5672   22.1291 C   0  0  0  0  0  0  0  0  0  0  0  0
   11.7090    2.5197   22.6412 C   0  0  0  0  0  0  0  0  0  0  0  0
    7.2116    2.0187   21.5999 C   0  0  0  0  0  0  0  0  0  0  0  0
   12.1780    4.9475   23.0994 C   0  0  0  0  0  0  0  0  0  0  0  0
    8.2355   -1.0464   22.8419 C   0  0  0  0  0  0  0  0  0  0  0  0
    8.6259   -5.2454   26.2474 C   0  0  0  0  0  0  0  0  0  0  0  0
    9.3675   -5.0777   24.9243 C   0  0  0  0  0  0  0  0  0  0  0  0
    7.2523   -4.5815   26.2113 C   0  0  0  0  0  0  0  0  0  0  0  0
    9.4650   -3.6090   24.5151 C   0  0  0  0  0  0  0  0  0  0  0  0
    7.3476   -3.1120   25.8043 C   0  0  0  0  0  0  0  0  0  0  0  0
    8.0823   -2.9492   24.4692 C   0  0  0  0  0  0  0  0  0  0  0  0
   11.4882    6.2733   22.8969 C   0  0  0  0  0  0  0  0  0  0  0  0
    8.4253    1.1164   21.5956 C   0  0  0  0  0  0  0  0  0  0  0  0
   13.2228    0.7926   23.1983 N   0  0  0  0  0  0  0  0  0  0  0  0
   11.4025    3.8815   22.6256 N   0  0  0  0  0  0  0  0  0  0  0  0
    9.6138    1.9396   21.5813 N   0  0  0  0  0  0  0  0  0  0  0  0
    8.2197   -1.5300   24.1475 N   0  0  0  0  0  0  0  0  0  0  0  0
    8.3772    0.3394   22.8189 N   0  0  0  0  0  0  0  0  0  0  0  0
    6.7121    2.4704   22.6278 O   0  0  0  0  0  0  0  0  0  0  0  0
   13.2867    4.8896   23.6211 O   0  0  0  0  0  0  0  0  0  0  0  0
    8.1385   -1.7510   21.8382 O   0  0  0  0  0  0  0  0  0  0  0  0
  1  2  2  0
  1  4  1  0
  2 17  1  0
  3  5  1  0
  3 17  2  0
  4  5  2  0
  4 19  1  0
  5 18  1  0
  6 16  1  0
  6 22  2  0
  7 15  1  0
  7 18  1  0
  7 23  2  0
  8 20  1  0
  8 21  1  0
  8 24  2  0
  9 10  1  0
  9 11  1  0
 10 12  1  0
 11 13  1  0
 12 14  1  0
 13 14  1  0
 14 20  1  0
 16 19  1  0
 16 21  1  0
M  CHG  1  17   1
M  END
