MAK-UNK-9a6be56d-6
     RDKit          3D

 38 42  0  0  1  0  0  0  0  0999 V2000
   12.9981   -1.4622   21.9757 C   0  0  0  0  0  0  0  0  0  0  0  0
   13.9951   -0.6014   22.4345 C   0  0  0  0  0  0  0  0  0  0  0  0
    9.9429   -4.3545   24.1519 C   0  0  0  0  0  0  0  0  0  0  0  0
   11.6614   -1.0657   22.0163 C   0  0  0  0  0  0  0  0  0  0  0  0
    8.9408    5.9053   23.4358 C   0  0  0  0  0  0  0  0  0  0  0  0
   13.6555    0.6559   22.9339 C   0  0  0  0  0  0  0  0  0  0  0  0
   10.2063   -2.9995   24.3196 C   0  0  0  0  0  0  0  0  0  0  0  0
    9.7630    4.9574   22.8375 C   0  0  0  0  0  0  0  0  0  0  0  0
    9.1935    1.2207   21.5765 C   0  0  0  0  0  0  0  0  0  0  0  0
   11.6216    5.7742   24.1464 C   0  0  0  0  0  0  0  0  0  0  0  0
    8.6795   -4.8157   24.4849 C   0  0  0  0  0  0  0  0  0  0  0  0
    7.9814   -2.7185   25.1116 C   0  0  0  0  0  0  0  0  0  0  0  0
    7.8458    0.8155   23.3342 C   0  0  0  0  0  0  0  0  0  0  0  0
   11.3217    0.1916   22.5158 C   0  0  0  0  0  0  0  0  0  0  0  0
    9.4569    6.8014   24.3882 C   0  0  0  0  0  0  0  0  0  0  0  0
    7.8760    1.3726   22.0748 C   0  0  0  0  0  0  0  0  0  0  0  0
   10.8169    6.7417   24.7799 C   0  0  0  0  0  0  0  0  0  0  0  0
   12.3188    1.0524   22.9746 C   0  0  0  0  0  0  0  0  0  0  0  0
   11.1041    4.8942   23.1905 C   0  0  0  0  0  0  0  0  0  0  0  0
    9.2122   -2.1591   24.8082 C   0  0  0  0  0  0  0  0  0  0  0  0
    9.9282    0.5751   22.5465 C   0  0  0  0  0  0  0  0  0  0  0  0
    8.5125    7.7982   25.0154 C   0  0  0  0  0  0  0  0  0  0  0  0
    9.2723    8.9662   25.6277 C   0  0  0  0  0  0  0  0  0  0  0  0
   10.3936    8.4420   26.5122 C   0  0  0  0  0  0  0  0  0  0  0  0
   12.6970    7.5202   26.2076 C   0  0  0  0  0  0  0  0  0  0  0  0
    4.6286    1.6781   20.0893 C   0  0  0  0  0  0  0  0  0  0  0  0
    6.7440    2.0101   21.3752 C   0  0  0  0  0  0  0  0  0  0  0  0
    7.6884   -4.0298   24.9621 N   0  0  0  0  0  0  0  0  0  0  0  0
    9.0987    0.3335   23.6103 N   0  0  0  0  0  0  0  0  0  0  0  0
   11.3240    7.6247   25.7349 N   0  0  0  0  0  0  0  0  0  0  0  0
   12.0016    2.3543   23.4969 N   0  0  0  0  0  0  0  0  0  0  0  0
    5.7372    1.0415   20.8420 N   0  0  0  0  0  0  0  0  0  0  0  0
    8.5664    0.0787   26.0322 O   0  0  0  0  0  0  0  0  0  0  0  0
   10.9550   -0.2834   25.2345 O   0  0  0  0  0  0  0  0  0  0  0  0
   13.5146    4.2049   22.5271 O   0  0  0  0  0  0  0  0  0  0  0  0
   11.6016    3.3692   21.1338 O   0  0  0  0  0  0  0  0  0  0  0  0
    9.5108   -0.4251   25.0355 S   0  0  0  0  0  0  0  0  0  0  0  0
   12.1463    3.7089   22.4424 S   0  0  0  0  0  0  0  0  0  0  0  0
  1  2  2  0
  1  4  1  0
  2  6  1  0
  3  7  2  0
  3 11  1  0
  4 14  2  0
  5  8  2  0
  5 15  1  0
  6 18  2  0
  7 20  1  0
  8 19  1  0
  9 16  1  0
  9 21  2  0
 10 17  1  0
 10 19  2  0
 11 28  2  0
 12 20  2  0
 12 28  1  0
 13 16  2  0
 13 29  1  0
 14 18  1  0
 14 21  1  0
 15 17  2  0
 15 22  1  0
 16 27  1  0
 17 30  1  0
 18 31  1  0
 19 38  1  0
 20 37  1  0
 21 29  1  0
 22 23  1  0
 23 24  1  0
 24 30  1  0
 25 30  1  0
 26 32  1  0
 27 32  1  0
 29 37  1  0
 31 38  1  0
 33 37  2  0
 34 37  2  0
 35 38  2  0
 36 38  2  0
M  CHG  1  32   1
M  END
