MAK-UNK-9955b1f3-3
     RDKit          3D

 13 13  0  0  1  0  0  0  0  0999 V2000
   11.7405    5.4552   23.9679 C   0  0  0  0  0  0  0  0  0  0  0  0
   12.2480    4.1545   23.3524 C   0  0  0  0  0  0  0  0  0  0  0  0
    9.9246    3.1554   23.6581 C   0  0  0  0  0  0  0  0  0  0  0  0
   10.5309    6.0773   23.2867 C   0  0  0  0  0  0  0  0  0  0  0  0
    8.9573    4.2729   23.2913 C   0  0  0  0  0  0  0  0  0  0  0  0
   13.7579   -2.1272   24.3253 C   0  0  0  0  0  0  0  0  0  0  0  0
   13.8883   -0.0064   22.3958 C   0  0  0  0  0  0  0  0  0  0  0  0
   13.2816   -0.7417   24.6011 C   0  0  0  0  0  0  0  0  0  0  0  0
   12.3167    1.2637   23.6955 C   0  0  0  0  0  0  0  0  0  0  0  0
   11.7232    1.9037   22.4547 C   0  0  0  0  0  0  0  0  0  0  0  0
   12.8200   -0.0923   23.3820 N   0  0  0  0  0  0  0  0  0  0  0  0
   11.1654    3.2629   22.7996 N   0  0  0  0  0  0  0  0  0  0  0  0
    9.3262    5.5382   23.8236 O   0  0  0  0  0  0  0  0  0  0  0  0
  1  2  1  0
  1  4  1  0
  2 12  1  0
  3  5  1  0
  3 12  1  0
  4 13  1  0
  5 13  1  0
  6  8  1  0
  7 11  1  0
  8 11  1  0
  9 10  1  0
  9 11  1  0
 10 12  1  0
M  CHG  1  12   1
M  END
