MAK-UNK-e4a48a85-6
     RDKit          3D

 21 23  0  0  0  0  0  0  0  0999 V2000
   14.0143   -1.9800   24.2845 C   0  0  0  0  0  0  0  0  0  0  0  0
   13.8870   -0.6178   24.0128 C   0  0  0  0  0  0  0  0  0  0  0  0
   12.9062   -2.8199   24.1731 C   0  0  0  0  0  0  0  0  0  0  0  0
   11.5435   -0.9354   23.5186 C   0  0  0  0  0  0  0  0  0  0  0  0
   11.7251    2.2645   23.9435 C   0  0  0  0  0  0  0  0  0  0  0  0
   12.6516   -0.0955   23.6299 C   0  0  0  0  0  0  0  0  0  0  0  0
   11.6708   -2.2976   23.7902 C   0  0  0  0  0  0  0  0  0  0  0  0
   12.5202    1.3144   23.3506 C   0  0  0  0  0  0  0  0  0  0  0  0
   12.0251    3.4546   23.2540 C   0  0  0  0  0  0  0  0  0  0  0  0
    9.3766    7.1803   23.8938 C   0  0  0  0  0  0  0  0  0  0  0  0
    8.7229    5.0520   25.0866 C   0  0  0  0  0  0  0  0  0  0  0  0
    9.6541    6.3767   22.6279 C   0  0  0  0  0  0  0  0  0  0  0  0
    9.0024    4.2616   23.8132 C   0  0  0  0  0  0  0  0  0  0  0  0
    8.3449    6.5037   24.7943 C   0  0  0  0  0  0  0  0  0  0  0  0
   10.4859   -3.1957   23.6731 C   0  0  0  0  0  0  0  0  0  0  0  0
   14.1954    1.4024   21.4744 C   0  0  0  0  0  0  0  0  0  0  0  0
   11.4430    4.8175   23.4876 C   0  0  0  0  0  0  0  0  0  0  0  0
   12.9396    3.2792   22.2964 N   0  0  0  0  0  0  0  0  0  0  0  0
   13.2210    1.9678   22.3800 N   0  0  0  0  0  0  0  0  0  0  0  0
   10.0389    4.9566   22.9641 N   0  0  0  0  0  0  0  0  0  0  0  0
    7.0749    6.5492   24.1462 O   0  0  0  0  0  0  0  0  0  0  0  0
  1  2  2  0
  1  3  1  0
  2  6  1  0
  3  7  2  0
  4  6  2  0
  4  7  1  0
  5  8  2  0
  5  9  1  0
  6  8  1  0
  7 15  1  0
  8 19  1  0
  9 17  1  0
  9 18  2  0
 10 12  1  0
 10 14  1  0
 11 13  1  0
 11 14  1  0
 12 20  1  0
 13 20  1  0
 14 21  1  0
 16 19  1  0
 17 20  1  0
 18 19  1  0
M  CHG  1  20   1
M  END
