MAK-UNK-de9577cf-19
     RDKit          3D

 37 40  0  0  0  0  0  0  0  0999 V2000
   14.1819   -0.0035   22.3853 C   0  0  0  0  0  0  0  0  0  0  0  0
   13.7292   -1.1954   21.8196 C   0  0  0  0  0  0  0  0  0  0  0  0
   13.2659    0.9366   22.8574 C   0  0  0  0  0  0  0  0  0  0  0  0
    4.4309   -5.1856   23.4393 C   0  0  0  0  0  0  0  0  0  0  0  0
    4.7403   -5.3747   25.8279 C   0  0  0  0  0  0  0  0  0  0  0  0
   12.3605   -1.4472   21.7259 C   0  0  0  0  0  0  0  0  0  0  0  0
    3.5250   -6.2457   23.4727 C   0  0  0  0  0  0  0  0  0  0  0  0
    3.8344   -6.4348   25.8614 C   0  0  0  0  0  0  0  0  0  0  0  0
    9.9773   -1.8516   24.8997 C   0  0  0  0  0  0  0  0  0  0  0  0
    9.0511   -2.8878   24.8580 C   0  0  0  0  0  0  0  0  0  0  0  0
   10.3724    2.7086   22.5736 C   0  0  0  0  0  0  0  0  0  0  0  0
    8.5323   -0.6894   26.3889 C   0  0  0  0  0  0  0  0  0  0  0  0
    9.6035    2.7216   24.6899 C   0  0  0  0  0  0  0  0  0  0  0  0
   11.8972    0.6848   22.7637 C   0  0  0  0  0  0  0  0  0  0  0  0
    5.0386   -4.7501   24.6169 C   0  0  0  0  0  0  0  0  0  0  0  0
    9.5181    3.3798   23.4829 C   0  0  0  0  0  0  0  0  0  0  0  0
   11.4444   -0.5072   22.1979 C   0  0  0  0  0  0  0  0  0  0  0  0
    3.2267   -6.8703   24.6837 C   0  0  0  0  0  0  0  0  0  0  0  0
    9.7206   -0.7279   25.6773 C   0  0  0  0  0  0  0  0  0  0  0  0
   10.9536    1.6605   23.2526 C   0  0  0  0  0  0  0  0  0  0  0  0
    7.8929   -2.7527   25.6065 C   0  0  0  0  0  0  0  0  0  0  0  0
    6.0060   -3.6237   24.5807 C   0  0  0  0  0  0  0  0  0  0  0  0
    8.6264    7.0405   22.8618 C   0  0  0  0  0  0  0  0  0  0  0  0
    8.6893    4.5655   23.1923 C   0  0  0  0  0  0  0  0  0  0  0  0
    7.6086   -1.6763   26.3735 N   0  0  0  0  0  0  0  0  0  0  0  0
   10.4787    1.6780   24.5380 N   0  0  0  0  0  0  0  0  0  0  0  0
    0.6240   -7.3628   24.9811 N   0  0  0  0  0  0  0  0  0  0  0  0
    9.4657    5.8401   23.0973 N   0  0  0  0  0  0  0  0  0  0  0  0
    5.9467   -2.7171   23.7636 O   0  0  0  0  0  0  0  0  0  0  0  0
   10.6522    1.3454   27.0025 O   0  0  0  0  0  0  0  0  0  0  0  0
   12.1909    0.0373   25.4552 O   0  0  0  0  0  0  0  0  0  0  0  0
    2.0591   -8.8140   23.4063 O   0  0  0  0  0  0  0  0  0  0  0  0
    2.3775   -9.0127   25.8976 O   0  0  0  0  0  0  0  0  0  0  0  0
    6.9653   -3.7609   25.5818 O   0  0  0  0  0  0  0  0  0  0  0  0
   10.1318   -0.7644   22.1007 F   0  0  0  0  0  0  0  0  0  0  0  0
   10.8785    0.6139   25.7564 S   0  0  0  0  0  0  0  0  0  0  0  0
    2.0927   -8.1975   24.7250 S   0  0  0  0  0  0  0  0  0  0  0  0
  1  2  2  0
  1  3  1  0
  2  6  1  0
  3 14  2  0
  4  7  2  0
  4 15  1  0
  5  8  1  0
  5 15  2  0
  6 17  2  0
  7 18  1  0
  8 18  2  0
  9 10  2  0
  9 19  1  0
 10 21  1  0
 11 16  1  0
 11 20  2  0
 12 19  2  0
 12 25  1  0
 13 16  2  0
 13 26  1  0
 14 17  1  0
 14 20  1  0
 15 22  1  0
 16 24  1  0
 17 35  1  0
 18 37  1  0
 19 36  1  0
 20 26  1  0
 21 25  2  0
 21 34  1  0
 22 29  2  0
 22 34  1  0
 23 28  1  0
 24 28  1  0
 26 36  1  0
 27 37  1  0
 30 36  2  0
 31 36  2  0
 32 37  2  0
 33 37  2  0
M  CHG  1  28   1
M  END
