MAK-UNK-a7992eb3-17
     RDKit          3D

 25 28  0  0  0  0  0  0  0  0999 V2000
    7.2106    6.8633   22.2836 C   0  0  0  0  0  0  0  0  0  0  0  0
    6.7091    5.6192   21.9176 C   0  0  0  0  0  0  0  0  0  0  0  0
    8.3489    6.9415   23.0782 C   0  0  0  0  0  0  0  0  0  0  0  0
   13.0097   -3.2996   25.1950 C   0  0  0  0  0  0  0  0  0  0  0  0
    7.3774    4.4923   22.3686 C   0  0  0  0  0  0  0  0  0  0  0  0
   12.1152   -4.3174   25.4424 C   0  0  0  0  0  0  0  0  0  0  0  0
   11.5705   -3.0895   23.3820 C   0  0  0  0  0  0  0  0  0  0  0  0
   12.6942   -2.5881   24.0015 C   0  0  0  0  0  0  0  0  0  0  0  0
    8.9437    5.7554   23.4775 C   0  0  0  0  0  0  0  0  0  0  0  0
   12.0149    7.4090   24.6980 C   0  0  0  0  0  0  0  0  0  0  0  0
   10.8489    7.8637   25.5546 C   0  0  0  0  0  0  0  0  0  0  0  0
   11.3457    6.5619   23.6241 C   0  0  0  0  0  0  0  0  0  0  0  0
    9.9658    6.6235   25.6625 C   0  0  0  0  0  0  0  0  0  0  0  0
   12.6139    2.1770   22.5712 C   0  0  0  0  0  0  0  0  0  0  0  0
   11.1798    1.4372   24.5011 C   0  0  0  0  0  0  0  0  0  0  0  0
   13.5046    0.9605   22.7702 C   0  0  0  0  0  0  0  0  0  0  0  0
   12.0735    0.2223   24.6955 C   0  0  0  0  0  0  0  0  0  0  0  0
   11.9390    2.6025   23.8718 C   0  0  0  0  0  0  0  0  0  0  0  0
   10.2022    5.8031   24.3558 C   0  0  0  0  0  0  0  0  0  0  0  0
   13.4938   -1.4298   23.4818 C   0  0  0  0  0  0  0  0  0  0  0  0
   10.7269    4.4070   24.7646 C   0  0  0  0  0  0  0  0  0  0  0  0
    8.4857    4.5285   23.1419 N   0  0  0  0  0  0  0  0  0  0  0  0
   12.6919   -0.1622   23.3717 N   0  0  0  0  0  0  0  0  0  0  0  0
   11.0386    3.6682   23.5920 O   0  0  0  0  0  0  0  0  0  0  0  0
   10.9009   -4.4124   24.2387 S   0  0  0  0  0  0  0  0  0  0  0  0
  1  2  2  0
  1  3  1  0
  2  5  1  0
  3  9  2  0
  4  6  2  0
  4  8  1  0
  5 22  2  0
  6 25  1  0
  7  8  2  0
  7 25  1  0
  8 20  1  0
  9 19  1  0
  9 22  1  0
 10 11  1  0
 10 12  1  0
 11 13  1  0
 12 19  1  0
 13 19  1  0
 14 16  1  0
 14 18  1  0
 15 17  1  0
 15 18  1  0
 16 23  1  0
 17 23  1  0
 18 24  1  0
 19 21  1  0
 20 23  1  0
 21 24  1  0
M  CHG  1  23   1
M  END
