MAK-UNK-902cc841-10
     RDKit          3D

 34 37  0  0  1  0  0  0  0  0999 V2000
    6.4811   -5.8614   21.3216 C   0  0  0  0  0  0  0  0  0  0  0  0
    7.6544   -5.9760   22.0671 C   0  0  0  0  0  0  0  0  0  0  0  0
    5.2838   -5.5242   21.9529 C   0  0  0  0  0  0  0  0  0  0  0  0
    9.4312   -1.1119   22.1054 C   0  0  0  0  0  0  0  0  0  0  0  0
    9.9855   -2.2408   21.5433 C   0  0  0  0  0  0  0  0  0  0  0  0
   10.8446   -1.8199   23.8092 C   0  0  0  0  0  0  0  0  0  0  0  0
    9.9290   -0.8679   23.4179 C   0  0  0  0  0  0  0  0  0  0  0  0
    7.6306   -5.7534   23.4438 C   0  0  0  0  0  0  0  0  0  0  0  0
    5.2599   -5.3016   23.3297 C   0  0  0  0  0  0  0  0  0  0  0  0
    6.4333   -5.4162   24.0752 C   0  0  0  0  0  0  0  0  0  0  0  0
   12.6602    4.7903   23.5355 C   0  0  0  0  0  0  0  0  0  0  0  0
    8.0272    0.3189   24.6075 C   0  0  0  0  0  0  0  0  0  0  0  0
    8.2900   -1.5927   26.2652 C   0  0  0  0  0  0  0  0  0  0  0  0
    6.1251   -1.1612   25.1702 C   0  0  0  0  0  0  0  0  0  0  0  0
    8.1664   -3.0760   25.9300 C   0  0  0  0  0  0  0  0  0  0  0  0
    5.9958   -2.6413   24.8286 C   0  0  0  0  0  0  0  0  0  0  0  0
   11.6742    2.8232   22.4043 C   0  0  0  0  0  0  0  0  0  0  0  0
   10.2832    4.0373   24.0365 C   0  0  0  0  0  0  0  0  0  0  0  0
   11.3202    1.4959   23.0590 C   0  0  0  0  0  0  0  0  0  0  0  0
    9.9065    2.7272   24.7151 C   0  0  0  0  0  0  0  0  0  0  0  0
   12.4839    5.8957   24.5458 C   0  0  0  0  0  0  0  0  0  0  0  0
    9.4992    0.3021   24.2813 C   0  0  0  0  0  0  0  0  0  0  0  0
   11.5816    3.9238   23.3636 N   0  0  0  0  0  0  0  0  0  0  0  0
    7.5312   -0.7791   25.3082 N   0  0  0  0  0  0  0  0  0  0  0  0
    6.7220   -3.4512   25.8529 N   0  0  0  0  0  0  0  0  0  0  0  0
    9.9537    1.6099   23.6969 N   0  0  0  0  0  0  0  0  0  0  0  0
   13.7259    4.6997   22.9206 O   0  0  0  0  0  0  0  0  0  0  0  0
    7.3402    1.2782   24.2473 O   0  0  0  0  0  0  0  0  0  0  0  0
    5.0523   -5.3681   26.2806 O   0  0  0  0  0  0  0  0  0  0  0  0
    7.5248   -5.8366   26.4025 O   0  0  0  0  0  0  0  0  0  0  0  0
    8.7644   -5.8672   24.1495 F   0  0  0  0  0  0  0  0  0  0  0  0
    4.1035   -4.9774   23.9248 F   0  0  0  0  0  0  0  0  0  0  0  0
   11.1011   -3.0014   22.5965 S   0  0  0  0  0  0  0  0  0  0  0  0
    6.4030   -5.1343   25.8175 S   0  0  0  0  0  0  0  0  0  0  0  0
  1  2  2  0
  1  3  1  0
  2  8  1  0
  3  9  2  0
  4  5  2  0
  4  7  1  0
  5 33  1  0
  6  7  2  0
  6 33  1  0
  7 22  1  0
  8 10  2  0
  8 31  1  0
  9 10  1  0
  9 32  1  0
 10 34  1  0
 11 21  1  0
 11 23  1  0
 11 27  2  0
 12 22  1  0
 12 24  1  0
 12 28  2  0
 13 15  1  0
 13 24  1  0
 14 16  1  0
 14 24  1  0
 15 25  1  0
 16 25  1  0
 17 19  1  0
 17 23  1  0
 18 20  1  0
 18 23  1  0
 19 26  1  0
 20 26  1  0
 22 26  1  0
 25 34  1  0
 29 34  2  0
 30 34  2  0
M  CHG  1  26   1
M  END
