MAK-UNK-c44f4be0-10
     RDKit          3D

 32 33  0  0  1  0  0  0  0  0999 V2000
    7.5894   -5.2811   23.5499 C   0  0  0  0  0  0  0  0  0  0  0  0
    6.4989   -5.7298   23.7750 C   0  0  0  0  0  0  0  0  0  0  0  0
   14.0073   -1.6365   23.5728 C   0  0  0  0  0  0  0  0  0  0  0  0
   13.8680   -0.6058   24.5022 C   0  0  0  0  0  0  0  0  0  0  0  0
   13.5346   -1.4704   22.2710 C   0  0  0  0  0  0  0  0  0  0  0  0
   13.2559    0.5910   24.1299 C   0  0  0  0  0  0  0  0  0  0  0  0
   12.9225   -0.2736   21.8986 C   0  0  0  0  0  0  0  0  0  0  0  0
    6.9131    1.2528   20.4473 C   0  0  0  0  0  0  0  0  0  0  0  0
    6.7761   -0.8563   19.2768 C   0  0  0  0  0  0  0  0  0  0  0  0
    6.7278    1.9329   19.2437 C   0  0  0  0  0  0  0  0  0  0  0  0
    6.5908   -0.1762   18.0731 C   0  0  0  0  0  0  0  0  0  0  0  0
   12.7832    0.7572   22.8281 C   0  0  0  0  0  0  0  0  0  0  0  0
    6.9372   -0.1418   20.4639 C   0  0  0  0  0  0  0  0  0  0  0  0
    6.5667    1.2184   18.0566 C   0  0  0  0  0  0  0  0  0  0  0  0
    8.7463   -2.2560   23.1115 C   0  0  0  0  0  0  0  0  0  0  0  0
    9.9509    0.9441   21.8211 C   0  0  0  0  0  0  0  0  0  0  0  0
   10.3998    5.0974   24.2229 C   0  0  0  0  0  0  0  0  0  0  0  0
    8.9198   -4.7380   23.2782 C   0  0  0  0  0  0  0  0  0  0  0  0
   12.1207    2.0518   22.4246 C   0  0  0  0  0  0  0  0  0  0  0  0
    7.1370   -0.8778   21.7662 C   0  0  0  0  0  0  0  0  0  0  0  0
    8.6145   -1.1458   22.0751 C   0  0  0  0  0  0  0  0  0  0  0  0
   10.6052    2.0393   22.6557 C   0  0  0  0  0  0  0  0  0  0  0  0
    8.8358   -3.5093   22.5219 N   0  0  0  0  0  0  0  0  0  0  0  0
    9.2806    0.0199   22.6103 N   0  0  0  0  0  0  0  0  0  0  0  0
    9.9871    3.2866   22.2822 N   0  0  0  0  0  0  0  0  0  0  0  0
    8.7281   -2.0465   24.3226 O   0  0  0  0  0  0  0  0  0  0  0  0
   10.0555    0.8823   20.5979 O   0  0  0  0  0  0  0  0  0  0  0  0
    8.5295    3.2775   24.4242 O   0  0  0  0  0  0  0  0  0  0  0  0
    8.2416    5.1478   22.7583 O   0  0  0  0  0  0  0  0  0  0  0  0
    6.3847    1.8822   16.8824 O   0  0  0  0  0  0  0  0  0  0  0  0
    9.0862    4.1877   23.4426 S   0  0  0  0  0  0  0  0  0  0  0  0
    4.7728   -6.4397   24.1316 Br  0  0  0  0  0  0  0  0  0  0  0  0
  1  2  3  0
  1 18  1  0
  2 32  1  0
  3  4  2  0
  3  5  1  0
  4  6  1  0
  5  7  2  0
  6 12  2  0
  7 12  1  0
  8 10  2  0
  8 13  1  0
  9 11  1  0
  9 13  2  0
 10 14  1  0
 11 14  2  0
 12 19  1  0
 13 20  1  0
 14 30  1  0
 15 21  1  0
 15 23  1  0
 15 26  2  0
 16 22  1  0
 16 24  1  0
 16 27  2  0
 17 31  1  0
 18 23  1  0
 19 22  1  0
 20 21  1  0
 21 24  1  0
 22 25  1  0
 25 31  1  0
 28 31  2  0
 29 31  2  0
M  END
