MAK-UNK-de9577cf-15
     RDKit          3D

 37 40  0  0  0  0  0  0  0  0999 V2000
   12.6867    2.0218   22.3234 C   0  0  0  0  0  0  0  0  0  0  0  0
   13.9810    1.5078   22.4014 C   0  0  0  0  0  0  0  0  0  0  0  0
    6.9486   -0.8010   20.9049 C   0  0  0  0  0  0  0  0  0  0  0  0
   11.6787    1.4992   23.1338 C   0  0  0  0  0  0  0  0  0  0  0  0
    6.8851   -5.1307   27.2720 C   0  0  0  0  0  0  0  0  0  0  0  0
    6.9174   -4.7353   24.8888 C   0  0  0  0  0  0  0  0  0  0  0  0
   14.2675    0.4713   23.2897 C   0  0  0  0  0  0  0  0  0  0  0  0
    7.7723   -1.4732   21.8009 C   0  0  0  0  0  0  0  0  0  0  0  0
    5.9151   -6.1172   27.0952 C   0  0  0  0  0  0  0  0  0  0  0  0
    5.9474   -5.7219   24.7120 C   0  0  0  0  0  0  0  0  0  0  0  0
   10.5376    0.3270   26.1186 C   0  0  0  0  0  0  0  0  0  0  0  0
    7.5078    0.2146   20.1462 C   0  0  0  0  0  0  0  0  0  0  0  0
    9.5737   -0.0847   21.1056 C   0  0  0  0  0  0  0  0  0  0  0  0
   11.9652    0.4626   24.0221 C   0  0  0  0  0  0  0  0  0  0  0  0
    7.3863   -4.4396   26.1688 C   0  0  0  0  0  0  0  0  0  0  0  0
    9.4655   -0.5065   26.5221 C   0  0  0  0  0  0  0  0  0  0  0  0
   13.2596   -0.0514   24.1001 C   0  0  0  0  0  0  0  0  0  0  0  0
    5.4462   -6.4129   25.8152 C   0  0  0  0  0  0  0  0  0  0  0  0
    9.1113   -1.1142   21.9094 C   0  0  0  0  0  0  0  0  0  0  0  0
   10.9192   -0.0750   24.8576 C   0  0  0  0  0  0  0  0  0  0  0  0
    9.2246   -1.3928   25.4954 C   0  0  0  0  0  0  0  0  0  0  0  0
    8.4165   -3.3865   26.3575 C   0  0  0  0  0  0  0  0  0  0  0  0
    7.3937    0.9714   29.3694 C   0  0  0  0  0  0  0  0  0  0  0  0
    8.7434   -0.4348   27.8074 C   0  0  0  0  0  0  0  0  0  0  0  0
    8.8038    0.5914   20.2238 N   0  0  0  0  0  0  0  0  0  0  0  0
   10.1144   -1.1213   24.4891 N   0  0  0  0  0  0  0  0  0  0  0  0
    2.8004   -6.7243   25.7282 N   0  0  0  0  0  0  0  0  0  0  0  0
    8.0717    0.8783   28.0531 N   0  0  0  0  0  0  0  0  0  0  0  0
    9.2359   -3.4072   27.2638 O   0  0  0  0  0  0  0  0  0  0  0  0
    9.6381   -3.2713   23.3209 O   0  0  0  0  0  0  0  0  0  0  0  0
   11.5442   -1.8002   22.4992 O   0  0  0  0  0  0  0  0  0  0  0  0
    4.3368   -8.1574   24.2344 O   0  0  0  0  0  0  0  0  0  0  0  0
    4.2998   -8.5698   26.7196 O   0  0  0  0  0  0  0  0  0  0  0  0
    8.3308   -2.3678   25.3847 O   0  0  0  0  0  0  0  0  0  0  0  0
   13.5512   -1.0478   24.9490 F   0  0  0  0  0  0  0  0  0  0  0  0
   10.1924   -1.9482   23.0406 S   0  0  0  0  0  0  0  0  0  0  0  0
    4.2317   -7.6479   25.5944 S   0  0  0  0  0  0  0  0  0  0  0  0
  1  2  2  0
  1  4  1  0
  2  7  1  0
  3  8  2  0
  3 12  1  0
  4 14  2  0
  5  9  2  0
  5 15  1  0
  6 10  1  0
  6 15  2  0
  7 17  2  0
  8 19  1  0
  9 18  1  0
 10 18  2  0
 11 16  1  0
 11 20  2  0
 12 25  2  0
 13 19  2  0
 13 25  1  0
 14 17  1  0
 14 20  1  0
 15 22  1  0
 16 21  2  0
 16 24  1  0
 17 35  1  0
 18 37  1  0
 19 36  1  0
 20 26  1  0
 21 26  1  0
 21 34  1  0
 22 29  2  0
 22 34  1  0
 23 28  1  0
 24 28  1  0
 26 36  1  0
 27 37  1  0
 30 36  2  0
 31 36  2  0
 32 37  2  0
 33 37  2  0
M  CHG  1  28   1
M  END
