MAK-UNK-0d6072ac-19
     RDKit          3D

 20 22  0  0  1  0  0  0  0  0999 V2000
    9.8297   -5.0234   24.7060 C   0  0  0  0  0  0  0  0  0  0  0  0
    8.6810   -5.6016   24.1542 C   0  0  0  0  0  0  0  0  0  0  0  0
   12.1039   -0.6626   23.9011 C   0  0  0  0  0  0  0  0  0  0  0  0
   13.1695   -0.7759   24.7980 C   0  0  0  0  0  0  0  0  0  0  0  0
   12.4123   -2.9711   25.5039 C   0  0  0  0  0  0  0  0  0  0  0  0
    8.3274   -3.6638   22.7343 C   0  0  0  0  0  0  0  0  0  0  0  0
   10.2388   -3.7457   24.2696 C   0  0  0  0  0  0  0  0  0  0  0  0
   11.3278   -2.8803   24.6061 C   0  0  0  0  0  0  0  0  0  0  0  0
    7.9424   -4.9299   23.1830 C   0  0  0  0  0  0  0  0  0  0  0  0
   11.2009   -1.7294   23.8279 C   0  0  0  0  0  0  0  0  0  0  0  0
    9.4782   -3.0985   23.2956 C   0  0  0  0  0  0  0  0  0  0  0  0
   13.3235   -1.9123   25.5885 C   0  0  0  0  0  0  0  0  0  0  0  0
    5.4774   -4.7352   22.9997 C   0  0  0  0  0  0  0  0  0  0  0  0
    6.8426   -5.8239   21.1019 C   0  0  0  0  0  0  0  0  0  0  0  0
    9.5964   -0.9086   22.0941 C   0  0  0  0  0  0  0  0  0  0  0  0
    6.7209   -5.5707   22.6112 C   0  0  0  0  0  0  0  0  0  0  0  0
   10.0795   -1.8870   23.0481 N   0  0  0  0  0  0  0  0  0  0  0  0
    4.5193   -4.8093   22.1757 O   0  0  0  0  0  0  0  0  0  0  0  0
    5.5492   -4.0832   24.0788 O   0  0  0  0  0  0  0  0  0  0  0  0
   14.6489   -2.0185   26.6840 Cl  0  0  0  0  0  0  0  0  0  0  0  0
  1  2  2  0
  1  7  1  0
  2  9  1  0
  3  4  1  0
  3 10  2  0
  4 12  2  0
  5  8  2  0
  5 12  1  0
  6  9  2  0
  6 11  1  0
  7  8  1  0
  7 11  2  0
  8 10  1  0
  9 16  1  0
 10 17  1  0
 11 17  1  0
 12 20  1  0
 13 16  1  0
 13 18  1  0
 13 19  2  0
 14 16  1  0
 15 17  1  0
M  CHG  1  18  -1
M  END
