MAK-UNK-516d8086-23
     RDKit          3D

 22 24  0  0  0  0  0  0  0  0999 V2000
   13.8235   -2.0522   25.9374 C   0  0  0  0  0  0  0  0  0  0  0  0
    9.1126   -5.0571   24.1874 C   0  0  0  0  0  0  0  0  0  0  0  0
    9.8894   -3.9253   23.9172 C   0  0  0  0  0  0  0  0  0  0  0  0
    8.4209   -3.2793   22.0828 C   0  0  0  0  0  0  0  0  0  0  0  0
   12.1639   -0.2493   26.0543 C   0  0  0  0  0  0  0  0  0  0  0  0
   12.6748   -1.3726   25.4422 C   0  0  0  0  0  0  0  0  0  0  0  0
    7.6720   -4.4032   22.3708 C   0  0  0  0  0  0  0  0  0  0  0  0
    7.9993   -5.2857   23.4014 C   0  0  0  0  0  0  0  0  0  0  0  0
    9.5463   -3.0447   22.8743 C   0  0  0  0  0  0  0  0  0  0  0  0
   11.0283   -1.2590   23.8592 C   0  0  0  0  0  0  0  0  0  0  0  0
   10.5169   -0.1361   24.4718 C   0  0  0  0  0  0  0  0  0  0  0  0
    6.4557   -4.8958   21.7174 C   0  0  0  0  0  0  0  0  0  0  0  0
    7.0091   -6.3966   23.4668 C   0  0  0  0  0  0  0  0  0  0  0  0
    7.9608    0.6750   25.8694 C   0  0  0  0  0  0  0  0  0  0  0  0
   10.3972   -1.8464   22.6135 C   0  0  0  0  0  0  0  0  0  0  0  0
    8.5364    1.3670   24.6809 C   0  0  0  0  0  0  0  0  0  0  0  0
   14.7599   -2.6062   26.3411 N   0  0  0  0  0  0  0  0  0  0  0  0
   11.0757    0.3891   25.5801 N   0  0  0  0  0  0  0  0  0  0  0  0
   12.1162   -1.8976   24.3336 N   0  0  0  0  0  0  0  0  0  0  0  0
    6.1010   -6.0606   22.3866 N   0  0  0  0  0  0  0  0  0  0  0  0
    9.3720    0.4870   23.9266 N   0  0  0  0  0  0  0  0  0  0  0  0
    5.9039   -4.3549   20.7776 O   0  0  0  0  0  0  0  0  0  0  0  0
  1  6  1  0
  1 17  3  0
  2  3  2  0
  2  8  1  0
  3  9  1  0
  4  7  1  0
  4  9  2  0
  5  6  2  0
  5 18  1  0
  6 19  1  0
  7  8  2  0
  7 12  1  0
  8 13  1  0
  9 15  1  0
 10 11  1  0
 10 15  1  0
 10 19  2  0
 11 18  2  0
 11 21  1  0
 12 20  1  0
 12 22  2  0
 13 20  1  0
 14 16  1  0
 16 21  1  0
M  END
