MAK-UNK-8fdbca50-11
     RDKit          3D

 40 43  0  0  1  0  0  0  0  0999 V2000
    6.3256   -5.4313   20.9363 C   0  0  0  0  0  0  0  0  0  0  0  0
    7.3783   -6.1941   21.4418 C   0  0  0  0  0  0  0  0  0  0  0  0
    6.1063    0.6093   18.4147 C   0  0  0  0  0  0  0  0  0  0  0  0
    6.0205   -4.1969   21.5097 C   0  0  0  0  0  0  0  0  0  0  0  0
    8.1259   -5.7226   22.5208 C   0  0  0  0  0  0  0  0  0  0  0  0
    6.8162    0.4538   19.6000 C   0  0  0  0  0  0  0  0  0  0  0  0
    5.5534   -2.1661   24.1890 C   0  0  0  0  0  0  0  0  0  0  0  0
    5.7945   -0.5304   17.6911 C   0  0  0  0  0  0  0  0  0  0  0  0
    6.8271   -1.8946   19.2244 C   0  0  0  0  0  0  0  0  0  0  0  0
    6.4552   -0.2272   23.4841 C   0  0  0  0  0  0  0  0  0  0  0  0
    6.7681   -3.7253   22.5888 C   0  0  0  0  0  0  0  0  0  0  0  0
    7.8209   -4.4882   23.0944 C   0  0  0  0  0  0  0  0  0  0  0  0
    5.5683   -0.7639   24.3910 C   0  0  0  0  0  0  0  0  0  0  0  0
    7.1874   -0.8188   20.0197 C   0  0  0  0  0  0  0  0  0  0  0  0
    6.4317   -2.4435   23.1649 C   0  0  0  0  0  0  0  0  0  0  0  0
    7.8388   -3.2836   27.6386 C   0  0  0  0  0  0  0  0  0  0  0  0
    6.2386    0.7616   30.3098 C   0  0  0  0  0  0  0  0  0  0  0  0
    8.5586   -0.9817   28.2505 C   0  0  0  0  0  0  0  0  0  0  0  0
    7.6465   -2.5571   30.0250 C   0  0  0  0  0  0  0  0  0  0  0  0
    7.2194   -0.2471   28.2748 C   0  0  0  0  0  0  0  0  0  0  0  0
    6.3408   -1.7611   30.0077 C   0  0  0  0  0  0  0  0  0  0  0  0
    8.4407   -2.4350   28.7206 C   0  0  0  0  0  0  0  0  0  0  0  0
    8.8911   -6.0553   25.7695 C   0  0  0  0  0  0  0  0  0  0  0  0
   10.1588   -3.5881   26.7605 C   0  0  0  0  0  0  0  0  0  0  0  0
    4.6769    1.9579   26.9165 C   0  0  0  0  0  0  0  0  0  0  0  0
    8.6525   -4.0112   24.2608 C   0  0  0  0  0  0  0  0  0  0  0  0
    4.7798   -0.0151   25.3884 C   0  0  0  0  0  0  0  0  0  0  0  0
    5.5852    0.5381   31.6503 C   0  0  0  0  0  0  0  0  0  0  0  0
    8.2708   -4.6684   25.5998 C   0  0  0  0  0  0  0  0  0  0  0  0
    6.1379   -1.7829   18.0667 N   0  0  0  0  0  0  0  0  0  0  0  0
    6.9743   -1.2574   22.7442 N   0  0  0  0  0  0  0  0  0  0  0  0
    6.5797   -0.3784   29.5832 N   0  0  0  0  0  0  0  0  0  0  0  0
    8.7220   -3.8249   26.7037 N   0  0  0  0  0  0  0  0  0  0  0  0
    5.4431    1.2348   25.8722 N   0  0  0  0  0  0  0  0  0  0  0  0
    6.6180   -3.4619   27.6226 O   0  0  0  0  0  0  0  0  0  0  0  0
    6.4408    1.9156   29.9228 O   0  0  0  0  0  0  0  0  0  0  0  0
    8.8069   -2.3307   21.4389 O   0  0  0  0  0  0  0  0  0  0  0  0
    8.8200    0.1924   21.7661 O   0  0  0  0  0  0  0  0  0  0  0  0
    8.0937   -1.0568   21.5262 S   0  0  0  0  0  0  0  0  0  0  0  0
    5.3046    2.1304   32.3456 Cl  0  0  0  0  0  0  0  0  0  0  0  0
  1  2  2  0
  1  4  1  0
  2  5  1  0
  3  6  2  0
  3  8  1  0
  4 11  2  0
  5 12  2  0
  6 14  1  0
  7 13  1  0
  7 15  2  0
  8 30  2  0
  9 14  2  0
  9 30  1  0
 10 13  2  0
 10 31  1  0
 11 12  1  0
 11 15  1  0
 12 26  1  0
 13 27  1  0
 14 39  1  0
 15 31  1  0
 16 22  1  0
 16 33  1  0
 16 35  2  0
 17 28  1  0
 17 32  1  0
 17 36  2  0
 18 20  1  0
 18 22  1  0
 19 21  1  0
 19 22  1  0
 20 32  1  0
 21 32  1  0
 23 29  1  0
 24 33  1  0
 25 34  1  0
 26 29  1  0
 27 34  1  0
 28 40  1  0
 29 33  1  0
 31 39  1  0
 37 39  2  0
 38 39  2  0
M  CHG  1  34   1
M  END
