MAK-UNK-de8f6d00-6
     RDKit          3D

 34 38  0  0  0  0  0  0  0  0999 V2000
    9.9889    7.3036   24.8661 C   0  0  0  0  0  0  0  0  0  0  0  0
    8.8204    6.5812   24.6249 C   0  0  0  0  0  0  0  0  0  0  0  0
   11.2275    6.6640   24.8142 C   0  0  0  0  0  0  0  0  0  0  0  0
    5.6319   -4.8577   28.0803 C   0  0  0  0  0  0  0  0  0  0  0  0
    5.4230   -4.1923   26.8736 C   0  0  0  0  0  0  0  0  0  0  0  0
    8.8903    5.2192   24.3321 C   0  0  0  0  0  0  0  0  0  0  0  0
   11.2974    5.3021   24.5214 C   0  0  0  0  0  0  0  0  0  0  0  0
   12.1324   -2.3845   22.8964 C   0  0  0  0  0  0  0  0  0  0  0  0
    6.2693   -6.0910   28.0611 C   0  0  0  0  0  0  0  0  0  0  0  0
    6.4731   -5.5350   23.6433 C   0  0  0  0  0  0  0  0  0  0  0  0
   13.4986   -2.1873   23.0378 C   0  0  0  0  0  0  0  0  0  0  0  0
   13.1733    0.0884   23.5155 C   0  0  0  0  0  0  0  0  0  0  0  0
    5.8729   -4.8121   25.6966 C   0  0  0  0  0  0  0  0  0  0  0  0
    5.8634   -4.4956   24.3123 C   0  0  0  0  0  0  0  0  0  0  0  0
   11.2770   -1.3013   23.0736 C   0  0  0  0  0  0  0  0  0  0  0  0
   10.1288    4.5796   24.2803 C   0  0  0  0  0  0  0  0  0  0  0  0
   11.7986   -0.0496   23.3865 C   0  0  0  0  0  0  0  0  0  0  0  0
    6.4965   -6.0500   25.8228 C   0  0  0  0  0  0  0  0  0  0  0  0
    6.0432   -2.8647   22.4338 C   0  0  0  0  0  0  0  0  0  0  0  0
   11.3453    2.3920   23.8883 C   0  0  0  0  0  0  0  0  0  0  0  0
    9.4038   -1.9735   21.6323 C   0  0  0  0  0  0  0  0  0  0  0  0
    9.0930   -1.8636   24.1049 C   0  0  0  0  0  0  0  0  0  0  0  0
    7.9333   -1.6032   21.4528 C   0  0  0  0  0  0  0  0  0  0  0  0
    7.6253   -1.4990   23.8824 C   0  0  0  0  0  0  0  0  0  0  0  0
    5.2956   -3.2592   23.6823 C   0  0  0  0  0  0  0  0  0  0  0  0
    6.7226   -6.7343   26.9601 N   0  0  0  0  0  0  0  0  0  0  0  0
    6.8527   -6.4721   24.5690 N   0  0  0  0  0  0  0  0  0  0  0  0
   13.9741   -0.9714   23.3395 N   0  0  0  0  0  0  0  0  0  0  0  0
    9.8976   -1.4922   22.9327 N   0  0  0  0  0  0  0  0  0  0  0  0
    7.1476   -2.0341   22.6062 N   0  0  0  0  0  0  0  0  0  0  0  0
   10.1995    3.1981   23.9831 N   0  0  0  0  0  0  0  0  0  0  0  0
   10.9755    1.0626   23.5712 N   0  0  0  0  0  0  0  0  0  0  0  0
    5.6569   -3.2846   21.3400 O   0  0  0  0  0  0  0  0  0  0  0  0
   12.4986    2.7760   24.0545 O   0  0  0  0  0  0  0  0  0  0  0  0
  1  2  2  0
  1  3  1  0
  2  6  1  0
  3  7  2  0
  4  5  2  0
  4  9  1  0
  5 13  1  0
  6 16  2  0
  7 16  1  0
  8 11  2  0
  8 15  1  0
  9 26  2  0
 10 14  2  0
 10 27  1  0
 11 28  1  0
 12 17  1  0
 12 28  2  0
 13 14  1  0
 13 18  2  0
 14 25  1  0
 15 17  2  0
 15 29  1  0
 16 31  1  0
 17 32  1  0
 18 26  1  0
 18 27  1  0
 19 25  1  0
 19 30  1  0
 19 33  2  0
 20 31  1  0
 20 32  1  0
 20 34  2  0
 21 23  1  0
 21 29  1  0
 22 24  1  0
 22 29  1  0
 23 30  1  0
 24 30  1  0
M  CHG  1  28   1
M  END
