MAK-UNK-2084232d-7
     RDKit          3D

 26 29  0  0  1  0  0  0  0  0999 V2000
    8.3955   -2.2769   25.1256 C   0  0  0  0  0  0  0  0  0  0  0  0
    8.8005   -3.5797   24.8297 C   0  0  0  0  0  0  0  0  0  0  0  0
    8.9352    7.1833   24.4490 C   0  0  0  0  0  0  0  0  0  0  0  0
    7.8972    6.5585   22.3670 C   0  0  0  0  0  0  0  0  0  0  0  0
    9.0310   -1.1756   24.5323 C   0  0  0  0  0  0  0  0  0  0  0  0
   10.1187   -1.4058   23.6683 C   0  0  0  0  0  0  0  0  0  0  0  0
    9.8530   -3.8000   23.9462 C   0  0  0  0  0  0  0  0  0  0  0  0
   10.5106   -2.7174   23.3664 C   0  0  0  0  0  0  0  0  0  0  0  0
    9.7164    6.4432   23.5864 C   0  0  0  0  0  0  0  0  0  0  0  0
   10.8335   -0.2460   23.0260 C   0  0  0  0  0  0  0  0  0  0  0  0
   13.2485    3.3134   22.1486 C   0  0  0  0  0  0  0  0  0  0  0  0
   12.6634    2.0765   22.8231 C   0  0  0  0  0  0  0  0  0  0  0  0
   12.9650    4.5769   22.9468 C   0  0  0  0  0  0  0  0  0  0  0  0
   10.8947    3.5238   23.8943 C   0  0  0  0  0  0  0  0  0  0  0  0
    8.6160    0.2465   24.8672 C   0  0  0  0  0  0  0  0  0  0  0  0
   11.1641    2.2478   23.0943 C   0  0  0  0  0  0  0  0  0  0  0  0
   10.6100    1.0348   23.8280 C   0  0  0  0  0  0  0  0  0  0  0  0
   11.1292    6.0068   23.8404 C   0  0  0  0  0  0  0  0  0  0  0  0
    7.1074    0.4742   24.7891 C   0  0  0  0  0  0  0  0  0  0  0  0
    9.1227    6.0837   22.3922 N   0  0  0  0  0  0  0  0  0  0  0  0
   11.4767    4.7105   23.1613 N   0  0  0  0  0  0  0  0  0  0  0  0
    6.6618    0.2223   23.4038 N   0  0  0  0  0  0  0  0  0  0  0  0
    9.2021    1.2199   23.9853 O   0  0  0  0  0  0  0  0  0  0  0  0
   10.2317   -5.0773   23.6622 O   0  0  0  0  0  0  0  0  0  0  0  0
   11.5400   -2.9497   22.5004 O   0  0  0  0  0  0  0  0  0  0  0  0
    7.3934    7.4473   23.7458 S   0  0  0  0  0  0  0  0  0  0  0  0
  1  2  2  0
  1  5  1  0
  2  7  1  0
  3  9  2  0
  3 26  1  0
  4 20  2  0
  4 26  1  0
  5  6  2  0
  5 15  1  0
  6  8  1  0
  6 10  1  0
  7  8  2  0
  7 24  1  0
  8 25  1  0
  9 18  1  0
  9 20  1  0
 10 17  1  0
 11 12  1  0
 11 13  1  0
 12 16  1  0
 13 21  1  0
 14 16  1  0
 14 21  1  0
 15 19  1  0
 15 23  1  0
 16 17  1  0
 17 23  1  0
 18 21  1  0
 19 22  1  0
M  CHG  2  21   1  22   1
M  END
