MAK-UNK-0d6072ac-23
     RDKit          3D

 20 22  0  0  0  0  0  0  0  0999 V2000
    8.7366   -1.6989   24.5959 C   0  0  0  0  0  0  0  0  0  0  0  0
    7.5626   -2.3497   24.2004 C   0  0  0  0  0  0  0  0  0  0  0  0
   13.3255   -3.3720   25.5851 C   0  0  0  0  0  0  0  0  0  0  0  0
   13.9575   -2.1686   25.9093 C   0  0  0  0  0  0  0  0  0  0  0  0
   11.9061   -0.9275   25.5326 C   0  0  0  0  0  0  0  0  0  0  0  0
    8.6906   -4.4999   24.2153 C   0  0  0  0  0  0  0  0  0  0  0  0
    9.9092   -2.4545   24.8058 C   0  0  0  0  0  0  0  0  0  0  0  0
   11.2458   -2.1293   25.2008 C   0  0  0  0  0  0  0  0  0  0  0  0
    7.5422   -3.7298   24.0135 C   0  0  0  0  0  0  0  0  0  0  0  0
   11.9713   -3.3203   25.2353 C   0  0  0  0  0  0  0  0  0  0  0  0
    9.8570   -3.8348   24.6105 C   0  0  0  0  0  0  0  0  0  0  0  0
   13.2602   -0.9632   25.8843 C   0  0  0  0  0  0  0  0  0  0  0  0
    5.8179   -3.8111   22.2085 C   0  0  0  0  0  0  0  0  0  0  0  0
    5.1798   -4.2273   24.6745 C   0  0  0  0  0  0  0  0  0  0  0  0
    6.3652   -5.9245   23.2907 C   0  0  0  0  0  0  0  0  0  0  0  0
    6.2757   -4.3989   23.5916 C   0  0  0  0  0  0  0  0  0  0  0  0
   11.1115   -4.3312   24.8758 N   0  0  0  0  0  0  0  0  0  0  0  0
    4.7395   -4.2663   21.7303 O   0  0  0  0  0  0  0  0  0  0  0  0
    6.5771   -2.9172   21.7306 O   0  0  0  0  0  0  0  0  0  0  0  0
   14.0703    0.5022   26.2895 Cl  0  0  0  0  0  0  0  0  0  0  0  0
  1  2  2  0
  1  7  1  0
  2  9  1  0
  3  4  1  0
  3 10  2  0
  4 12  2  0
  5  8  2  0
  5 12  1  0
  6  9  2  0
  6 11  1  0
  7  8  1  0
  7 11  2  0
  8 10  1  0
  9 16  1  0
 10 17  1  0
 11 17  1  0
 12 20  1  0
 13 16  1  0
 13 18  1  0
 13 19  2  0
 14 16  1  0
 15 16  1  0
M  CHG  1  18  -1
M  END
