MAK-UNK-a7992eb3-27
     RDKit          3D

 34 34  0  0  1  0  0  0  0  0999 V2000
    7.6380   -4.0858   25.4224 C   0  0  0  0  0  0  0  0  0  0  0  0
    7.5713    4.3248   22.5425 C   0  0  0  0  0  0  0  0  0  0  0  0
    6.4428   -4.1986   25.4175 C   0  0  0  0  0  0  0  0  0  0  0  0
    6.5282    4.9061   22.6665 C   0  0  0  0  0  0  0  0  0  0  0  0
   12.5764    0.9221   21.9559 C   0  0  0  0  0  0  0  0  0  0  0  0
   12.4141    0.9060   24.3664 C   0  0  0  0  0  0  0  0  0  0  0  0
   13.0282    2.2411   21.9952 C   0  0  0  0  0  0  0  0  0  0  0  0
   12.8660    2.2250   24.4057 C   0  0  0  0  0  0  0  0  0  0  0  0
   12.2692    0.2545   23.1416 C   0  0  0  0  0  0  0  0  0  0  0  0
   13.1731    2.8926   23.2200 C   0  0  0  0  0  0  0  0  0  0  0  0
    8.5336   -0.5381   21.3598 C   0  0  0  0  0  0  0  0  0  0  0  0
   11.8004    7.0750   25.6165 C   0  0  0  0  0  0  0  0  0  0  0  0
    9.7863   -2.6648   23.4107 C   0  0  0  0  0  0  0  0  0  0  0  0
   10.5803    4.8164   23.6905 C   0  0  0  0  0  0  0  0  0  0  0  0
    8.2608   -0.3869   19.9000 C   0  0  0  0  0  0  0  0  0  0  0  0
   12.4887    7.2042   26.9347 C   0  0  0  0  0  0  0  0  0  0  0  0
   13.7682    6.2124   22.0104 C   0  0  0  0  0  0  0  0  0  0  0  0
    9.0942   -3.9523   25.4310 C   0  0  0  0  0  0  0  0  0  0  0  0
    8.8395    3.6126   22.3911 C   0  0  0  0  0  0  0  0  0  0  0  0
   11.7866   -1.1559   23.0998 C   0  0  0  0  0  0  0  0  0  0  0  0
   10.2547   -1.2744   22.9964 C   0  0  0  0  0  0  0  0  0  0  0  0
   11.7691    5.7557   23.5091 C   0  0  0  0  0  0  0  0  0  0  0  0
   12.8261    5.1542   22.5716 C   0  0  0  0  0  0  0  0  0  0  0  0
    9.5093   -2.7365   24.7688 N   0  0  0  0  0  0  0  0  0  0  0  0
    9.9595    4.5192   22.4855 N   0  0  0  0  0  0  0  0  0  0  0  0
    9.7860   -1.0497   21.6521 N   0  0  0  0  0  0  0  0  0  0  0  0
   12.2903    6.0555   24.8183 N   0  0  0  0  0  0  0  0  0  0  0  0
    7.6747   -0.2145   22.1717 O   0  0  0  0  0  0  0  0  0  0  0  0
   10.8863    7.8410   25.3345 O   0  0  0  0  0  0  0  0  0  0  0  0
    9.7130   -3.6078   22.6256 O   0  0  0  0  0  0  0  0  0  0  0  0
   10.2530    4.3523   24.7809 O   0  0  0  0  0  0  0  0  0  0  0  0
   13.6176    4.1859   23.2583 O   0  0  0  0  0  0  0  0  0  0  0  0
    4.5510   -4.3771   25.4099 Br  0  0  0  0  0  0  0  0  0  0  0  0
    4.8773    5.8261   22.8632 Br  0  0  0  0  0  0  0  0  0  0  0  0
  1  3  3  0
  1 18  1  0
  2  4  3  0
  2 19  1  0
  3 33  1  0
  4 34  1  0
  5  7  2  0
  5  9  1  0
  6  8  1  0
  6  9  2  0
  7 10  1  0
  8 10  2  0
  9 20  1  0
 10 32  1  0
 11 15  1  0
 11 26  1  0
 11 28  2  0
 12 16  1  0
 12 27  1  0
 12 29  2  0
 13 21  1  0
 13 24  1  0
 13 30  2  0
 14 22  1  0
 14 25  1  0
 14 31  2  0
 17 23  1  0
 18 24  1  0
 19 25  1  0
 20 21  1  0
 21 26  1  0
 22 23  1  0
 22 27  1  0
 23 32  1  0
M  END
