MAK-UNK-27459e11-12
     RDKit          3D

 16 16  0  0  1  0  0  0  0  0999 V2000
   14.3725   -1.1949   24.6866 C   0  0  0  0  0  0  0  0  0  0  0  0
   14.4567   -2.2875   23.8237 C   0  0  0  0  0  0  0  0  0  0  0  0
   13.4573   -0.1736   24.4314 C   0  0  0  0  0  0  0  0  0  0  0  0
   13.6259   -2.3589   22.7056 C   0  0  0  0  0  0  0  0  0  0  0  0
   12.6264   -0.2449   23.3133 C   0  0  0  0  0  0  0  0  0  0  0  0
   12.7107   -1.3376   22.4503 C   0  0  0  0  0  0  0  0  0  0  0  0
    9.6628   -1.3424   22.5409 C   0  0  0  0  0  0  0  0  0  0  0  0
    7.9971    0.2885   18.3942 C   0  0  0  0  0  0  0  0  0  0  0  0
   11.8117   -1.4140   21.2407 C   0  0  0  0  0  0  0  0  0  0  0  0
   10.4656   -0.7119   21.4596 C   0  0  0  0  0  0  0  0  0  0  0  0
    9.2803   -0.5954   23.5679 N   0  0  0  0  0  0  0  0  0  0  0  0
    9.6881   -0.7528   20.1932 N   0  0  0  0  0  0  0  0  0  0  0  0
    9.3662   -2.6282   22.4114 N   0  0  0  0  0  0  0  0  0  0  0  0
    8.2263    1.2923   20.8005 O   0  0  0  0  0  0  0  0  0  0  0  0
    7.1629   -0.9761   20.5179 O   0  0  0  0  0  0  0  0  0  0  0  0
    8.1648    0.0025   20.1413 S   0  0  0  0  0  0  0  0  0  0  0  0
  1  2  2  0
  1  3  1  0
  2  4  1  0
  3  5  2  0
  4  6  2  0
  5  6  1  0
  6  9  1  0
  7 10  1  0
  7 11  1  0
  7 13  2  0
  8 16  1  0
  9 10  1  0
 10 12  1  0
 12 16  1  0
 14 16  2  0
 15 16  2  0
M  CHG  1  13   1
M  END
