MAK-UNK-f2409524-2
     RDKit          3D

 23 24  0  0  0  0  0  0  0  0999 V2000
    5.9918    1.2567   19.0724 C   0  0  0  0  0  0  0  0  0  0  0  0
    6.4683    0.8943   17.8228 C   0  0  0  0  0  0  0  0  0  0  0  0
    7.6144   -0.9019   18.6820 C   0  0  0  0  0  0  0  0  0  0  0  0
    6.3651    0.4781   20.1622 C   0  0  0  0  0  0  0  0  0  0  0  0
    7.1918   -0.6235   19.9718 C   0  0  0  0  0  0  0  0  0  0  0  0
    8.4164   -2.5685   20.9926 C   0  0  0  0  0  0  0  0  0  0  0  0
    9.7749    1.4204   22.6842 C   0  0  0  0  0  0  0  0  0  0  0  0
   13.9423   -1.7810   24.0077 C   0  0  0  0  0  0  0  0  0  0  0  0
   13.8705   -0.4753   24.7944 C   0  0  0  0  0  0  0  0  0  0  0  0
   13.3003   -1.6444   22.6300 C   0  0  0  0  0  0  0  0  0  0  0  0
   12.4377    0.0457   24.8924 C   0  0  0  0  0  0  0  0  0  0  0  0
   11.8666   -1.1255   22.7257 C   0  0  0  0  0  0  0  0  0  0  0  0
   11.8008    0.1919   23.5060 C   0  0  0  0  0  0  0  0  0  0  0  0
    8.6116   -3.1673   22.3629 C   0  0  0  0  0  0  0  0  0  0  0  0
    5.8616    0.8499   21.5341 C   0  0  0  0  0  0  0  0  0  0  0  0
    6.1968    2.2884   21.9500 C   0  0  0  0  0  0  0  0  0  0  0  0
    7.6895    2.6124   21.9606 C   0  0  0  0  0  0  0  0  0  0  0  0
    7.2728   -0.1687   17.5987 N   0  0  0  0  0  0  0  0  0  0  0  0
    7.5932   -1.4348   21.0329 N   0  0  0  0  0  0  0  0  0  0  0  0
   10.4099    0.6204   23.6411 N   0  0  0  0  0  0  0  0  0  0  0  0
    8.4396    1.7803   22.9007 N   0  0  0  0  0  0  0  0  0  0  0  0
   10.4553    1.8483   21.5437 N   0  0  0  0  0  0  0  0  0  0  0  0
    8.9497   -3.0679   20.0071 O   0  0  0  0  0  0  0  0  0  0  0  0
  1  2  2  0
  1  4  1  0
  2 18  1  0
  3  5  1  0
  3 18  2  0
  4  5  2  0
  4 15  1  0
  5 19  1  0
  6 14  1  0
  6 19  1  0
  6 23  2  0
  7 20  1  0
  7 21  1  0
  7 22  2  0
  8  9  1  0
  8 10  1  0
  9 11  1  0
 10 12  1  0
 11 13  1  0
 12 13  1  0
 13 20  1  0
 15 16  1  0
 16 17  1  0
 17 21  1  0
M  CHG  1  22   1
M  END
