MAK-UNK-148caf23-3
     RDKit          3D

 34 37  0  0  0  0  0  0  0  0999 V2000
   12.5785    2.3820   23.8658 C   0  0  0  0  0  0  0  0  0  0  0  0
    4.4503   -3.0932   23.3824 C   0  0  0  0  0  0  0  0  0  0  0  0
    4.2558   -4.4724   23.3074 C   0  0  0  0  0  0  0  0  0  0  0  0
    5.4430    0.2629   20.1507 C   0  0  0  0  0  0  0  0  0  0  0  0
   10.4714    3.1148   24.8435 C   0  0  0  0  0  0  0  0  0  0  0  0
    5.7427   -2.5689   23.3602 C   0  0  0  0  0  0  0  0  0  0  0  0
    5.3537   -5.3273   23.2105 C   0  0  0  0  0  0  0  0  0  0  0  0
    6.0625   -0.9459   20.4477 C   0  0  0  0  0  0  0  0  0  0  0  0
    9.2456    2.8264   25.4329 C   0  0  0  0  0  0  0  0  0  0  0  0
    9.0142   -2.6162   24.3026 C   0  0  0  0  0  0  0  0  0  0  0  0
    6.2143    1.2650   19.5843 C   0  0  0  0  0  0  0  0  0  0  0  0
    8.0981   -0.0499   19.6053 C   0  0  0  0  0  0  0  0  0  0  0  0
   10.0736   -2.0355   22.4025 C   0  0  0  0  0  0  0  0  0  0  0  0
   11.3191    2.0771   24.4719 C   0  0  0  0  0  0  0  0  0  0  0  0
    6.8406   -3.4238   23.2633 C   0  0  0  0  0  0  0  0  0  0  0  0
   10.2151   -2.0841   23.7718 C   0  0  0  0  0  0  0  0  0  0  0  0
    6.6461   -4.8030   23.1884 C   0  0  0  0  0  0  0  0  0  0  0  0
    7.4152   -1.1135   20.1730 C   0  0  0  0  0  0  0  0  0  0  0  0
    8.1754   -2.8768   23.2415 C   0  0  0  0  0  0  0  0  0  0  0  0
    8.9169    1.4945   25.6274 C   0  0  0  0  0  0  0  0  0  0  0  0
   10.8977    0.7788   24.7097 C   0  0  0  0  0  0  0  0  0  0  0  0
    5.8599   -0.1066   27.1156 C   0  0  0  0  0  0  0  0  0  0  0  0
   11.3998   -1.6595   24.5422 C   0  0  0  0  0  0  0  0  0  0  0  0
    7.2099   -0.1117   26.4830 C   0  0  0  0  0  0  0  0  0  0  0  0
   13.6002    2.6292   23.3741 N   0  0  0  0  0  0  0  0  0  0  0  0
    7.5306    1.1393   19.3029 N   0  0  0  0  0  0  0  0  0  0  0  0
    9.7142    0.4596   25.2798 N   0  0  0  0  0  0  0  0  0  0  0  0
    8.8300   -2.5201   22.0915 N   0  0  0  0  0  0  0  0  0  0  0  0
   11.7303   -0.2646   24.3448 N   0  0  0  0  0  0  0  0  0  0  0  0
    7.6643    1.2165   26.2290 N   0  0  0  0  0  0  0  0  0  0  0  0
    7.2390   -3.7065   20.5830 O   0  0  0  0  0  0  0  0  0  0  0  0
    9.3759   -2.7207   19.6163 O   0  0  0  0  0  0  0  0  0  0  0  0
    7.6912   -5.6383   23.0947 F   0  0  0  0  0  0  0  0  0  0  0  0
    8.2401   -2.6412   20.5377 S   0  0  0  0  0  0  0  0  0  0  0  0
  1 14  1  0
  1 25  3  0
  2  3  2  0
  2  6  1  0
  3  7  1  0
  4  8  2  0
  4 11  1  0
  5  9  2  0
  5 14  1  0
  6 15  2  0
  7 17  2  0
  8 18  1  0
  9 20  1  0
 10 16  1  0
 10 19  2  0
 11 26  2  0
 12 18  2  0
 12 26  1  0
 13 16  2  0
 13 28  1  0
 14 21  2  0
 15 17  1  0
 15 19  1  0
 16 23  1  0
 17 33  1  0
 18 34  1  0
 19 28  1  0
 20 27  2  0
 20 30  1  0
 21 27  1  0
 21 29  1  0
 22 24  1  0
 23 29  1  0
 24 30  1  0
 28 34  1  0
 31 34  2  0
 32 34  2  0
M  END
