MAK-UNK-8145c7a0-11
     RDKit          3D

 26 28  0  0  1  0  0  0  0  0999 V2000
    8.8362   -4.3032   21.7134 C   0  0  0  0  0  0  0  0  0  0  0  0
    9.1798   -2.9636   21.5320 C   0  0  0  0  0  0  0  0  0  0  0  0
    9.1076   -4.9346   22.9273 C   0  0  0  0  0  0  0  0  0  0  0  0
   10.0664   -2.8867   23.7782 C   0  0  0  0  0  0  0  0  0  0  0  0
    9.7949   -2.2553   22.5643 C   0  0  0  0  0  0  0  0  0  0  0  0
    9.7228   -4.2264   23.9596 C   0  0  0  0  0  0  0  0  0  0  0  0
   10.1511   -0.8715   22.3756 C   0  0  0  0  0  0  0  0  0  0  0  0
   10.9258    1.3451   22.6069 C   0  0  0  0  0  0  0  0  0  0  0  0
    8.7468    5.8846   23.7495 C   0  0  0  0  0  0  0  0  0  0  0  0
    8.3724    4.6354   24.0532 C   0  0  0  0  0  0  0  0  0  0  0  0
   10.1255    6.2155   23.2589 C   0  0  0  0  0  0  0  0  0  0  0  0
    9.2883    3.4666   23.8939 C   0  0  0  0  0  0  0  0  0  0  0  0
   11.1400    5.0899   23.4641 C   0  0  0  0  0  0  0  0  0  0  0  0
    6.3115   -4.8325   28.0592 C   0  0  0  0  0  0  0  0  0  0  0  0
   10.0145   -4.9025   25.2565 C   0  0  0  0  0  0  0  0  0  0  0  0
   11.5087    2.6451   23.0771 C   0  0  0  0  0  0  0  0  0  0  0  0
    8.8741   -4.7913   26.2760 C   0  0  0  0  0  0  0  0  0  0  0  0
    9.9498   -0.1679   21.2819 N   0  0  0  0  0  0  0  0  0  0  0  0
   10.4051    1.1320   21.4172 N   0  0  0  0  0  0  0  0  0  0  0  0
    7.6575   -5.3958   25.8034 N   0  0  0  0  0  0  0  0  0  0  0  0
   10.5187    3.7742   23.0603 N   0  0  0  0  0  0  0  0  0  0  0  0
    5.0871   -5.7038   25.9162 O   0  0  0  0  0  0  0  0  0  0  0  0
    6.0368   -3.3682   25.9177 O   0  0  0  0  0  0  0  0  0  0  0  0
    7.1128    4.4214   24.4930 F   0  0  0  0  0  0  0  0  0  0  0  0
   10.9055   -0.0128   23.6544 S   0  0  0  0  0  0  0  0  0  0  0  0
    6.1276   -4.7666   26.2917 S   0  0  0  0  0  0  0  0  0  0  0  0
  1  2  2  0
  1  3  1  0
  2  5  1  0
  3  6  2  0
  4  5  2  0
  4  6  1  0
  5  7  1  0
  6 15  1  0
  7 18  2  0
  7 25  1  0
  8 16  1  0
  8 19  2  0
  8 25  1  0
  9 10  2  0
  9 11  1  0
 10 12  1  0
 10 24  1  0
 11 13  1  0
 12 21  1  0
 13 21  1  0
 14 26  1  0
 15 17  1  0
 16 21  1  0
 17 20  1  0
 18 19  1  0
 20 26  1  0
 22 26  2  0
 23 26  2  0
M  CHG  1  21   1
M  END
