MAK-UNK-0d6072ac-36
     RDKit          3D

 19 21  0  0  1  0  0  0  0  0999 V2000
   10.0991   -4.6833   23.9584 C   0  0  0  0  0  0  0  0  0  0  0  0
    8.8582   -5.0253   23.4246 C   0  0  0  0  0  0  0  0  0  0  0  0
   12.6523   -2.9211   25.4382 C   0  0  0  0  0  0  0  0  0  0  0  0
   12.7618   -0.6829   26.2780 C   0  0  0  0  0  0  0  0  0  0  0  0
   10.2586   -3.3869   24.4769 C   0  0  0  0  0  0  0  0  0  0  0  0
   11.3167   -2.6566   25.0901 C   0  0  0  0  0  0  0  0  0  0  0  0
   13.3829   -1.9023   26.0465 C   0  0  0  0  0  0  0  0  0  0  0  0
    7.8455   -4.0762   23.4295 C   0  0  0  0  0  0  0  0  0  0  0  0
    9.1573   -2.5363   24.4170 C   0  0  0  0  0  0  0  0  0  0  0  0
   10.8213   -1.3877   25.3809 C   0  0  0  0  0  0  0  0  0  0  0  0
    6.1310   -3.4324   21.7581 C   0  0  0  0  0  0  0  0  0  0  0  0
    6.4793   -5.9114   22.3781 C   0  0  0  0  0  0  0  0  0  0  0  0
    6.5178   -4.4532   22.8543 C   0  0  0  0  0  0  0  0  0  0  0  0
   11.4830   -0.3709   25.9653 N   0  0  0  0  0  0  0  0  0  0  0  0
    7.9403   -2.8162   23.9131 N   0  0  0  0  0  0  0  0  0  0  0  0
    9.5163   -1.3341   24.9674 N   0  0  0  0  0  0  0  0  0  0  0  0
    5.3829   -3.8983   20.8495 O   0  0  0  0  0  0  0  0  0  0  0  0
    6.5934   -2.2643   21.8859 O   0  0  0  0  0  0  0  0  0  0  0  0
   15.0197   -2.1533   26.4998 Cl  0  0  0  0  0  0  0  0  0  0  0  0
  1  2  2  0
  1  5  1  0
  2  8  1  0
  3  6  2  0
  3  7  1  0
  4  7  2  0
  4 14  1  0
  5  6  1  0
  5  9  2  0
  6 10  1  0
  7 19  1  0
  8 13  1  0
  8 15  2  0
  9 15  1  0
  9 16  1  0
 10 14  2  0
 10 16  1  0
 11 13  1  0
 11 17  1  0
 11 18  2  0
 12 13  1  0
M  CHG  1  17  -1
M  END
