MAK-UNK-b1d4dcd7-3
     RDKit          3D

 30 33  0  0  0  0  0  0  0  0999 V2000
    8.1761    7.1812   23.0375 C   0  0  0  0  0  0  0  0  0  0  0  0
    9.1284   -3.1823   22.5331 C   0  0  0  0  0  0  0  0  0  0  0  0
    9.9240   -2.8567   24.7910 C   0  0  0  0  0  0  0  0  0  0  0  0
    8.2622   -4.1792   22.9821 C   0  0  0  0  0  0  0  0  0  0  0  0
    9.0577   -3.8535   25.2400 C   0  0  0  0  0  0  0  0  0  0  0  0
    9.2597    6.3051   22.7401 C   0  0  0  0  0  0  0  0  0  0  0  0
    5.2319   -4.7484   28.1495 C   0  0  0  0  0  0  0  0  0  0  0  0
    5.1241   -3.9599   27.0222 C   0  0  0  0  0  0  0  0  0  0  0  0
    6.1163   -5.8037   28.0576 C   0  0  0  0  0  0  0  0  0  0  0  0
    8.3875    7.8897   24.1997 C   0  0  0  0  0  0  0  0  0  0  0  0
    9.9593   -2.5211   23.4376 C   0  0  0  0  0  0  0  0  0  0  0  0
    8.2268   -4.5148   24.3355 C   0  0  0  0  0  0  0  0  0  0  0  0
   10.2584    6.3777   23.6863 C   0  0  0  0  0  0  0  0  0  0  0  0
    6.6508   -5.2355   25.9226 C   0  0  0  0  0  0  0  0  0  0  0  0
   12.4750    0.1999   22.9198 C   0  0  0  0  0  0  0  0  0  0  0  0
   11.7203   -0.7646   23.7448 C   0  0  0  0  0  0  0  0  0  0  0  0
   12.6504    2.4468   21.9236 C   0  0  0  0  0  0  0  0  0  0  0  0
   10.6351    1.9400   23.2533 C   0  0  0  0  0  0  0  0  0  0  0  0
   12.8271    3.7664   22.6579 C   0  0  0  0  0  0  0  0  0  0  0  0
   10.7799    3.2655   23.9915 C   0  0  0  0  0  0  0  0  0  0  0  0
   11.5546    5.6239   23.7353 C   0  0  0  0  0  0  0  0  0  0  0  0
    5.8211   -4.1753   25.8873 N   0  0  0  0  0  0  0  0  0  0  0  0
    6.8446   -6.0777   26.9554 N   0  0  0  0  0  0  0  0  0  0  0  0
   11.9293    1.4688   22.7409 N   0  0  0  0  0  0  0  0  0  0  0  0
   10.8389   -1.5089   22.9819 N   0  0  0  0  0  0  0  0  0  0  0  0
   11.4707    4.2661   23.0965 N   0  0  0  0  0  0  0  0  0  0  0  0
   13.5426   -0.1790   22.4349 O   0  0  0  0  0  0  0  0  0  0  0  0
   11.9315   -0.8138   24.9488 O   0  0  0  0  0  0  0  0  0  0  0  0
    7.3816   -5.4875   24.7737 O   0  0  0  0  0  0  0  0  0  0  0  0
    9.8876    7.4982   24.9270 S   0  0  0  0  0  0  0  0  0  0  0  0
  1  6  1  0
  1 10  2  0
  2  4  2  0
  2 11  1  0
  3  5  1  0
  3 11  2  0
  4 12  1  0
  5 12  2  0
  6 13  2  0
  7  8  2  0
  7  9  1  0
  8 22  1  0
  9 23  2  0
 10 30  1  0
 11 25  1  0
 12 29  1  0
 13 21  1  0
 13 30  1  0
 14 22  2  0
 14 23  1  0
 14 29  1  0
 15 16  1  0
 15 24  1  0
 15 27  2  0
 16 25  1  0
 16 28  2  0
 17 19  1  0
 17 24  1  0
 18 20  1  0
 18 24  1  0
 19 26  1  0
 20 26  1  0
 21 26  1  0
M  CHG  1  26   1
M  END
