MAK-UNK-148caf23-13
     RDKit          3D

 34 37  0  0  1  0  0  0  0  0999 V2000
   15.1062   -1.2206   27.0490 C   0  0  0  0  0  0  0  0  0  0  0  0
    7.4314   -3.2516   27.8741 C   0  0  0  0  0  0  0  0  0  0  0  0
    6.1557   -2.7735   28.1732 C   0  0  0  0  0  0  0  0  0  0  0  0
    3.9104   -4.6075   22.7749 C   0  0  0  0  0  0  0  0  0  0  0  0
   13.6082   -2.8717   26.0288 C   0  0  0  0  0  0  0  0  0  0  0  0
    7.8829   -3.2560   26.5542 C   0  0  0  0  0  0  0  0  0  0  0  0
    5.3313   -2.3000   27.1525 C   0  0  0  0  0  0  0  0  0  0  0  0
    5.1344   -4.8300   23.3959 C   0  0  0  0  0  0  0  0  0  0  0  0
   12.4047   -3.1738   25.4016 C   0  0  0  0  0  0  0  0  0  0  0  0
    3.8696   -4.6428   21.3904 C   0  0  0  0  0  0  0  0  0  0  0  0
   12.9246   -0.5960   26.1295 C   0  0  0  0  0  0  0  0  0  0  0  0
    6.1181   -5.0919   21.2465 C   0  0  0  0  0  0  0  0  0  0  0  0
   13.8809   -1.5606   26.4029 C   0  0  0  0  0  0  0  0  0  0  0  0
    7.0585   -2.7826   25.5336 C   0  0  0  0  0  0  0  0  0  0  0  0
    5.7827   -2.3045   25.8327 C   0  0  0  0  0  0  0  0  0  0  0  0
    6.2643   -5.0775   22.6242 C   0  0  0  0  0  0  0  0  0  0  0  0
   11.5144   -2.1370   25.1732 C   0  0  0  0  0  0  0  0  0  0  0  0
    7.1712   -1.9073   23.1806 C   0  0  0  0  0  0  0  0  0  0  0  0
    8.6333   -3.2472   22.0827 C   0  0  0  0  0  0  0  0  0  0  0  0
    7.5434   -2.7896   24.1325 C   0  0  0  0  0  0  0  0  0  0  0  0
    7.8346   -2.1838   21.9304 C   0  0  0  0  0  0  0  0  0  0  0  0
    8.5509   -3.7507   23.5075 C   0  0  0  0  0  0  0  0  0  0  0  0
    5.9617   -0.6232   18.9882 C   0  0  0  0  0  0  0  0  0  0  0  0
    7.6090   -1.3728   20.7095 C   0  0  0  0  0  0  0  0  0  0  0  0
    9.9463   -3.7692   24.1230 C   0  0  0  0  0  0  0  0  0  0  0  0
   16.1033   -0.9441   27.5745 N   0  0  0  0  0  0  0  0  0  0  0  0
    4.9458   -4.8801   20.6074 N   0  0  0  0  0  0  0  0  0  0  0  0
   11.7441   -0.8513   25.5221 N   0  0  0  0  0  0  0  0  0  0  0  0
   10.3109   -2.4561   24.5421 N   0  0  0  0  0  0  0  0  0  0  0  0
    6.1985   -1.3844   20.2442 N   0  0  0  0  0  0  0  0  0  0  0  0
    7.5812   -5.8700   24.7152 O   0  0  0  0  0  0  0  0  0  0  0  0
    8.6459   -6.1333   22.4473 O   0  0  0  0  0  0  0  0  0  0  0  0
    4.9782   -1.8460   24.8625 F   0  0  0  0  0  0  0  0  0  0  0  0
    7.8374   -5.3649   23.3778 S   0  0  0  0  0  0  0  0  0  0  0  0
  1 13  1  0
  1 26  3  0
  2  3  2  0
  2  6  1  0
  3  7  1  0
  4  8  2  0
  4 10  1  0
  5  9  2  0
  5 13  1  0
  6 14  2  0
  7 15  2  0
  8 16  1  0
  9 17  1  0
 10 27  2  0
 11 13  2  0
 11 28  1  0
 12 16  2  0
 12 27  1  0
 14 15  1  0
 14 20  1  0
 15 33  1  0
 16 34  1  0
 17 28  2  0
 17 29  1  0
 18 20  2  0
 18 21  1  0
 19 21  2  0
 19 22  1  0
 20 22  1  0
 21 24  1  0
 22 25  1  0
 22 34  1  0
 23 30  1  0
 24 30  1  0
 25 29  1  0
 31 34  2  0
 32 34  2  0
M  CHG  1  30   1
M  END
