MAK-UNK-c7aa8293-5
     RDKit          3D

 30 34  0  0  1  0  0  0  0  0999 V2000
    9.8953    7.0070   22.8447 C   0  0  0  0  0  0  0  0  0  0  0  0
    7.8875   -3.2193   23.0877 C   0  0  0  0  0  0  0  0  0  0  0  0
    6.6474   -3.8608   23.1543 C   0  0  0  0  0  0  0  0  0  0  0  0
    8.6521    7.4746   22.4152 C   0  0  0  0  0  0  0  0  0  0  0  0
    6.7328   -5.7236   26.2475 C   0  0  0  0  0  0  0  0  0  0  0  0
    8.5697   -4.1927   25.2053 C   0  0  0  0  0  0  0  0  0  0  0  0
    5.4767   -6.0503   25.7909 C   0  0  0  0  0  0  0  0  0  0  0  0
    7.3263   -4.8495   25.2943 C   0  0  0  0  0  0  0  0  0  0  0  0
   10.0871    5.6497   23.1445 C   0  0  0  0  0  0  0  0  0  0  0  0
    8.9888    4.7737   23.0508 C   0  0  0  0  0  0  0  0  0  0  0  0
    8.8353   -3.3812   24.0962 C   0  0  0  0  0  0  0  0  0  0  0  0
    6.3957   -4.6687   24.2688 C   0  0  0  0  0  0  0  0  0  0  0  0
    7.5806    6.5953   22.2901 C   0  0  0  0  0  0  0  0  0  0  0  0
    7.7472    5.2488   22.6062 C   0  0  0  0  0  0  0  0  0  0  0  0
    9.1555    3.3133   23.3797 C   0  0  0  0  0  0  0  0  0  0  0  0
   10.9921    0.9506   23.1266 C   0  0  0  0  0  0  0  0  0  0  0  0
    9.4838    0.9047   25.1435 C   0  0  0  0  0  0  0  0  0  0  0  0
   11.2305   -0.5455   23.2789 C   0  0  0  0  0  0  0  0  0  0  0  0
    9.7301   -0.5911   25.2856 C   0  0  0  0  0  0  0  0  0  0  0  0
   11.4282    5.1349   23.6378 C   0  0  0  0  0  0  0  0  0  0  0  0
   10.6645    1.6135   24.4697 C   0  0  0  0  0  0  0  0  0  0  0  0
   10.3692    3.1001   24.2825 C   0  0  0  0  0  0  0  0  0  0  0  0
   10.1572   -2.6793   23.9925 C   0  0  0  0  0  0  0  0  0  0  0  0
   12.6088    5.6015   22.7879 C   0  0  0  0  0  0  0  0  0  0  0  0
    5.2826   -5.4095   24.5967 N   0  0  0  0  0  0  0  0  0  0  0  0
   10.0262   -1.1824   23.9287 N   0  0  0  0  0  0  0  0  0  0  0  0
   12.4389    5.0821   21.4160 N   0  0  0  0  0  0  0  0  0  0  0  0
   11.5026    3.6986   23.6511 O   0  0  0  0  0  0  0  0  0  0  0  0
    6.3757    7.0657   21.8629 O   0  0  0  0  0  0  0  0  0  0  0  0
    6.6872    4.3984   22.4768 O   0  0  0  0  0  0  0  0  0  0  0  0
  1  4  2  0
  1  9  1  0
  2  3  2  0
  2 11  1  0
  3 12  1  0
  4 13  1  0
  5  7  2  0
  5  8  1  0
  6  8  1  0
  6 11  2  0
  7 25  1  0
  8 12  2  0
  9 10  2  0
  9 20  1  0
 10 14  1  0
 10 15  1  0
 11 23  1  0
 12 25  1  0
 13 14  2  0
 13 29  1  0
 14 30  1  0
 15 22  1  0
 16 18  1  0
 16 21  1  0
 17 19  1  0
 17 21  1  0
 18 26  1  0
 19 26  1  0
 20 24  1  0
 20 28  1  0
 21 22  1  0
 22 28  1  0
 23 26  1  0
 24 27  1  0
M  CHG  2  26   1  27   1
M  END
