MAK-UNK-acefcb18-5
     RDKit          3D

 22 24  0  0  1  0  0  0  0  0999 V2000
   11.2570   -2.0378   23.1442 C   0  0  0  0  0  0  0  0  0  0  0  0
   13.2047   -2.0306   24.5737 C   0  0  0  0  0  0  0  0  0  0  0  0
   11.5661   -0.7466   22.7165 C   0  0  0  0  0  0  0  0  0  0  0  0
   13.5138   -0.7394   24.1461 C   0  0  0  0  0  0  0  0  0  0  0  0
    9.1491    5.4649   25.4507 C   0  0  0  0  0  0  0  0  0  0  0  0
    8.4694    6.6321   25.7210 C   0  0  0  0  0  0  0  0  0  0  0  0
   10.6107    7.0518   24.5860 C   0  0  0  0  0  0  0  0  0  0  0  0
   10.3896    5.7079   24.7933 C   0  0  0  0  0  0  0  0  0  0  0  0
   12.0763   -2.6798   24.0728 C   0  0  0  0  0  0  0  0  0  0  0  0
   12.6945   -0.0974   23.2174 C   0  0  0  0  0  0  0  0  0  0  0  0
   11.3294    4.6391   24.3809 C   0  0  0  0  0  0  0  0  0  0  0  0
   11.5724    4.6453   22.8577 C   0  0  0  0  0  0  0  0  0  0  0  0
   12.5188    3.5081   22.4658 C   0  0  0  0  0  0  0  0  0  0  0  0
   12.0234    2.1775   23.0439 C   0  0  0  0  0  0  0  0  0  0  0  0
   11.7469    2.2934   24.5453 C   0  0  0  0  0  0  0  0  0  0  0  0
   11.7463   -4.0604   24.5297 C   0  0  0  0  0  0  0  0  0  0  0  0
   10.8378    3.3634   24.8113 O   0  0  0  0  0  0  0  0  0  0  0  0
   10.3285    4.4665   22.1804 O   0  0  0  0  0  0  0  0  0  0  0  0
   13.8166    3.8128   22.9763 O   0  0  0  0  0  0  0  0  0  0  0  0
   11.1768    1.0592   24.9801 O   0  0  0  0  0  0  0  0  0  0  0  0
   12.9985    1.1697   22.7965 O   0  0  0  0  0  0  0  0  0  0  0  0
    9.3261    8.0138   25.1831 S   0  0  0  0  0  0  0  0  0  0  0  0
  1  3  2  0
  1  9  1  0
  2  4  1  0
  2  9  2  0
  3 10  1  0
  4 10  2  0
  5  6  2  0
  5  8  1  0
  6 22  1  0
  7  8  2  0
  7 22  1  0
  8 11  1  0
  9 16  1  0
 10 21  1  0
 11 12  1  0
 11 17  1  0
 12 13  1  0
 12 18  1  0
 13 14  1  0
 13 19  1  0
 14 15  1  0
 14 21  1  0
 15 17  1  0
 15 20  1  0
M  END
