MAK-UNK-9955b1f3-9
     RDKit          3D

 14 14  0  0  0  0  0  0  0  0999 V2000
    6.5186   -4.3576   21.8830 C   0  0  0  0  0  0  0  0  0  0  0  0
    7.9621   -5.3753   23.5804 C   0  0  0  0  0  0  0  0  0  0  0  0
    9.0800   -5.2561   24.3986 C   0  0  0  0  0  0  0  0  0  0  0  0
    9.4431   -3.0850   23.4978 C   0  0  0  0  0  0  0  0  0  0  0  0
    7.6491   -4.3106   22.7509 C   0  0  0  0  0  0  0  0  0  0  0  0
    9.8400   -4.0923   24.3625 C   0  0  0  0  0  0  0  0  0  0  0  0
   11.3057   -2.4923   25.6151 C   0  0  0  0  0  0  0  0  0  0  0  0
   13.1328   -1.5716   23.4622 C   0  0  0  0  0  0  0  0  0  0  0  0
   11.0551   -3.9330   25.2360 C   0  0  0  0  0  0  0  0  0  0  0  0
   12.7199   -2.0332   25.9010 C   0  0  0  0  0  0  0  0  0  0  0  0
   13.6335   -2.2874   24.7059 C   0  0  0  0  0  0  0  0  0  0  0  0
    5.5987   -4.3959   21.1766 N   0  0  0  0  0  0  0  0  0  0  0  0
    8.3634   -3.1645   22.6881 N   0  0  0  0  0  0  0  0  0  0  0  0
   10.3066   -1.6746   25.7088 N   0  0  0  0  0  0  0  0  0  0  0  0
  1  5  1  0
  1 12  3  0
  2  3  2  0
  2  5  1  0
  3  6  1  0
  4  6  2  0
  4 13  1  0
  5 13  2  0
  6  9  1  0
  7  9  1  0
  7 10  1  0
  7 14  2  0
  8 11  1  0
 10 11  1  0
M  END
