MAK-UNK-0955449e-26
     RDKit          3D

 23 25  0  0  0  0  0  0  0  0999 V2000
   12.6701    0.0850   22.0521 C   0  0  0  0  0  0  0  0  0  0  0  0
    4.8097    1.1824   19.1088 C   0  0  0  0  0  0  0  0  0  0  0  0
    5.6316    0.3479   18.3513 C   0  0  0  0  0  0  0  0  0  0  0  0
   12.9282    1.0239   23.0508 C   0  0  0  0  0  0  0  0  0  0  0  0
   11.4506   -0.5918   22.0295 C   0  0  0  0  0  0  0  0  0  0  0  0
    5.1999    1.5684   20.3912 C   0  0  0  0  0  0  0  0  0  0  0  0
    6.8435   -0.1008   18.8763 C   0  0  0  0  0  0  0  0  0  0  0  0
   11.9669    1.2860   24.0269 C   0  0  0  0  0  0  0  0  0  0  0  0
    8.6765   -1.8566   23.9338 C   0  0  0  0  0  0  0  0  0  0  0  0
    7.2559   -1.7386   22.1909 C   0  0  0  0  0  0  0  0  0  0  0  0
   10.4893   -0.3298   23.0056 C   0  0  0  0  0  0  0  0  0  0  0  0
    6.4118    1.1197   20.9162 C   0  0  0  0  0  0  0  0  0  0  0  0
    7.2336    0.2851   20.1587 C   0  0  0  0  0  0  0  0  0  0  0  0
    7.4276   -2.3030   23.4356 C   0  0  0  0  0  0  0  0  0  0  0  0
   10.7474    0.6092   24.0044 C   0  0  0  0  0  0  0  0  0  0  0  0
    9.2298   -1.0329   22.9785 C   0  0  0  0  0  0  0  0  0  0  0  0
    6.8095    1.5467   22.2910 C   0  0  0  0  0  0  0  0  0  0  0  0
    5.9661   -4.6292   22.1360 C   0  0  0  0  0  0  0  0  0  0  0  0
    8.5451   -0.2122   20.7038 C   0  0  0  0  0  0  0  0  0  0  0  0
    6.4842   -3.2058   24.1220 C   0  0  0  0  0  0  0  0  0  0  0  0
    8.3575   -0.9683   21.9235 N   0  0  0  0  0  0  0  0  0  0  0  0
    5.4315   -3.7782   23.2272 N   0  0  0  0  0  0  0  0  0  0  0  0
    9.8336    0.8726   24.9499 F   0  0  0  0  0  0  0  0  0  0  0  0
  1  4  2  0
  1  5  1  0
  2  3  2  0
  2  6  1  0
  3  7  1  0
  4  8  1  0
  5 11  2  0
  6 12  2  0
  7 13  2  0
  8 15  2  0
  9 14  1  0
  9 16  2  0
 10 14  2  0
 10 21  1  0
 11 15  1  0
 11 16  1  0
 12 13  1  0
 12 17  1  0
 13 19  1  0
 14 20  1  0
 15 23  1  0
 16 21  1  0
 18 22  1  0
 19 21  1  0
 20 22  1  0
M  CHG  1  22   1
M  END
