MAK-UNK-c7aa8293-3
     RDKit          3D

 21 23  0  0  1  0  0  0  0  0999 V2000
    6.4343   -4.6884   24.5720 C   0  0  0  0  0  0  0  0  0  0  0  0
    6.6082   -5.5940   25.6200 C   0  0  0  0  0  0  0  0  0  0  0  0
    7.5163   -3.9408   24.0825 C   0  0  0  0  0  0  0  0  0  0  0  0
    8.7734   -4.0847   24.7000 C   0  0  0  0  0  0  0  0  0  0  0  0
    7.8622   -5.7572   26.2010 C   0  0  0  0  0  0  0  0  0  0  0  0
    8.9423   -5.0058   25.7432 C   0  0  0  0  0  0  0  0  0  0  0  0
    9.9530   -3.2866   24.2099 C   0  0  0  0  0  0  0  0  0  0  0  0
   11.9187   -1.3593   23.6709 C   0  0  0  0  0  0  0  0  0  0  0  0
   10.3029    0.1220   22.4175 C   0  0  0  0  0  0  0  0  0  0  0  0
   11.8421   -0.4190   24.8671 C   0  0  0  0  0  0  0  0  0  0  0  0
   10.2349    1.0541   23.6208 C   0  0  0  0  0  0  0  0  0  0  0  0
    7.3330   -2.9336   22.9605 C   0  0  0  0  0  0  0  0  0  0  0  0
   10.6617   -1.3224   22.7914 C   0  0  0  0  0  0  0  0  0  0  0  0
    9.4855   -2.0414   23.4586 C   0  0  0  0  0  0  0  0  0  0  0  0
   12.6630    1.7165   23.8023 C   0  0  0  0  0  0  0  0  0  0  0  0
    6.5641   -3.4899   21.7634 C   0  0  0  0  0  0  0  0  0  0  0  0
   11.5064    0.9853   24.4298 N   0  0  0  0  0  0  0  0  0  0  0  0
    5.9938   -2.3609   21.0011 N   0  0  0  0  0  0  0  0  0  0  0  0
    8.5822   -2.4554   22.4320 O   0  0  0  0  0  0  0  0  0  0  0  0
    8.0172   -6.6501   27.2179 O   0  0  0  0  0  0  0  0  0  0  0  0
   10.1665   -5.1784   26.3219 O   0  0  0  0  0  0  0  0  0  0  0  0
  1  2  2  0
  1  3  1  0
  2  5  1  0
  3  4  2  0
  3 12  1  0
  4  6  1  0
  4  7  1  0
  5  6  2  0
  5 20  1  0
  6 21  1  0
  7 14  1  0
  8 10  1  0
  8 13  1  0
  9 11  1  0
  9 13  1  0
 10 17  1  0
 11 17  1  0
 12 16  1  0
 12 19  1  0
 13 14  1  0
 14 19  1  0
 15 17  1  0
 16 18  1  0
M  CHG  2  17   1  18   1
M  END
