MAK-UNK-37f1d6fa-7
     RDKit          3D

 31 34  0  0  0  0  0  0  0  0999 V2000
    6.7796   -6.7493   21.9488 C   0  0  0  0  0  0  0  0  0  0  0  0
   12.9509    0.5737   23.5135 C   0  0  0  0  0  0  0  0  0  0  0  0
   10.9465    1.5327   22.5649 C   0  0  0  0  0  0  0  0  0  0  0  0
    8.4704    5.4132   25.9628 C   0  0  0  0  0  0  0  0  0  0  0  0
    7.9065   -6.0216   22.3148 C   0  0  0  0  0  0  0  0  0  0  0  0
   12.3761   -0.6954   23.4452 C   0  0  0  0  0  0  0  0  0  0  0  0
   10.3717    0.2636   22.4965 C   0  0  0  0  0  0  0  0  0  0  0  0
    7.4837    4.8443   25.1525 C   0  0  0  0  0  0  0  0  0  0  0  0
    8.8506    5.1560   23.1697 C   0  0  0  0  0  0  0  0  0  0  0  0
    5.7049   -6.0560   21.4158 C   0  0  0  0  0  0  0  0  0  0  0  0
    6.7980   -4.0435   21.5975 C   0  0  0  0  0  0  0  0  0  0  0  0
   11.6829    6.6969   24.8913 C   0  0  0  0  0  0  0  0  0  0  0  0
    9.8596    5.7329   23.9663 C   0  0  0  0  0  0  0  0  0  0  0  0
   12.2361    1.6877   23.0734 C   0  0  0  0  0  0  0  0  0  0  0  0
   11.1484    6.2724   23.6967 C   0  0  0  0  0  0  0  0  0  0  0  0
    9.6466    5.8480   25.3417 C   0  0  0  0  0  0  0  0  0  0  0  0
   11.0865   -0.8504   22.9367 C   0  0  0  0  0  0  0  0  0  0  0  0
    7.9239   -4.6424   22.1392 C   0  0  0  0  0  0  0  0  0  0  0  0
    7.6687    4.7167   23.7773 C   0  0  0  0  0  0  0  0  0  0  0  0
   12.8482    3.0394   23.1463 C   0  0  0  0  0  0  0  0  0  0  0  0
    9.2305   -2.4864   22.3910 C   0  0  0  0  0  0  0  0  0  0  0  0
   11.8048    6.3639   22.3765 C   0  0  0  0  0  0  0  0  0  0  0  0
   12.9035    5.3101   22.1478 C   0  0  0  0  0  0  0  0  0  0  0  0
    5.6849   -4.7171   21.2301 N   0  0  0  0  0  0  0  0  0  0  0  0
   10.7699    6.4364   25.8777 N   0  0  0  0  0  0  0  0  0  0  0  0
   10.5126   -2.1202   22.8686 N   0  0  0  0  0  0  0  0  0  0  0  0
    9.0558   -3.8751   22.5024 N   0  0  0  0  0  0  0  0  0  0  0  0
   12.3909    3.9681   22.2194 N   0  0  0  0  0  0  0  0  0  0  0  0
   13.7188    3.2594   23.9843 O   0  0  0  0  0  0  0  0  0  0  0  0
    8.3999   -1.7002   21.9467 O   0  0  0  0  0  0  0  0  0  0  0  0
    6.7048    4.1658   23.0269 F   0  0  0  0  0  0  0  0  0  0  0  0
  1  5  2  0
  1 10  1  0
  2  6  2  0
  2 14  1  0
  3  7  1  0
  3 14  2  0
  4  8  2  0
  4 16  1  0
  5 18  1  0
  6 17  1  0
  7 17  2  0
  8 19  1  0
  9 13  1  0
  9 19  2  0
 10 24  2  0
 11 18  2  0
 11 24  1  0
 12 15  2  0
 12 25  1  0
 13 15  1  0
 13 16  2  0
 14 20  1  0
 15 22  1  0
 16 25  1  0
 17 26  1  0
 18 27  1  0
 19 31  1  0
 20 28  1  0
 20 29  2  0
 21 26  1  0
 21 27  1  0
 21 30  2  0
 22 23  1  0
 23 28  1  0
M  END
