MAK-UNK-c7aa8293-17
     RDKit          3D

 21 23  0  0  1  0  0  0  0  0999 V2000
    7.4746   -6.0538   22.4879 C   0  0  0  0  0  0  0  0  0  0  0  0
    6.5490   -5.8205   21.4692 C   0  0  0  0  0  0  0  0  0  0  0  0
    8.3366   -5.0349   22.9213 C   0  0  0  0  0  0  0  0  0  0  0  0
    8.2851   -3.7843   22.2766 C   0  0  0  0  0  0  0  0  0  0  0  0
    6.4794   -4.5703   20.8618 C   0  0  0  0  0  0  0  0  0  0  0  0
    7.3439   -3.5544   21.2635 C   0  0  0  0  0  0  0  0  0  0  0  0
    9.2065   -2.6730   22.7063 C   0  0  0  0  0  0  0  0  0  0  0  0
   11.2860   -0.2028   25.6774 C   0  0  0  0  0  0  0  0  0  0  0  0
   10.4472   -1.2944   25.0187 C   0  0  0  0  0  0  0  0  0  0  0  0
   12.5303   -0.7768   26.3495 C   0  0  0  0  0  0  0  0  0  0  0  0
   12.5245   -2.7015   24.7114 C   0  0  0  0  0  0  0  0  0  0  0  0
    9.3653   -5.2853   24.0104 C   0  0  0  0  0  0  0  0  0  0  0  0
   11.2756   -2.1243   24.0297 C   0  0  0  0  0  0  0  0  0  0  0  0
   13.3720   -1.6027   25.3686 C   0  0  0  0  0  0  0  0  0  0  0  0
   10.4316   -3.2367   23.4239 C   0  0  0  0  0  0  0  0  0  0  0  0
   14.5844   -2.2067   26.0749 C   0  0  0  0  0  0  0  0  0  0  0  0
    8.7873   -5.9717   25.2467 C   0  0  0  0  0  0  0  0  0  0  0  0
    9.8789   -6.2004   26.2148 N   0  0  0  0  0  0  0  0  0  0  0  0
    9.9762   -4.0741   24.4882 O   0  0  0  0  0  0  0  0  0  0  0  0
    5.5660   -4.3563   19.8742 O   0  0  0  0  0  0  0  0  0  0  0  0
    7.2623   -2.3330   20.6595 O   0  0  0  0  0  0  0  0  0  0  0  0
  1  2  2  0
  1  3  1  0
  2  5  1  0
  3  4  2  0
  3 12  1  0
  4  6  1  0
  4  7  1  0
  5  6  2  0
  5 20  1  0
  6 21  1  0
  7 15  1  0
  8  9  1  0
  8 10  1  0
  9 13  1  0
 10 14  1  0
 11 13  1  0
 11 14  1  0
 12 17  1  0
 12 19  1  0
 13 15  1  0
 14 16  1  0
 15 19  1  0
 17 18  1  0
M  CHG  1  18   1
M  END
