MAK-UNK-148caf23-22
     RDKit          3D

 34 37  0  0  0  0  0  0  0  0999 V2000
    4.6946    1.3478   30.9992 C   0  0  0  0  0  0  0  0  0  0  0  0
    6.3819   -0.5064   20.4872 C   0  0  0  0  0  0  0  0  0  0  0  0
    3.9455    1.4265   28.6661 C   0  0  0  0  0  0  0  0  0  0  0  0
    8.1586   -1.9059   25.8474 C   0  0  0  0  0  0  0  0  0  0  0  0
    8.2833   -3.2942   25.8981 C   0  0  0  0  0  0  0  0  0  0  0  0
    6.7227   -1.6631   21.1794 C   0  0  0  0  0  0  0  0  0  0  0  0
    4.2107    1.2409   27.3139 C   0  0  0  0  0  0  0  0  0  0  0  0
    6.1970   -2.1328   24.4554 C   0  0  0  0  0  0  0  0  0  0  0  0
    4.1816   -4.8724   24.2783 C   0  0  0  0  0  0  0  0  0  0  0  0
    5.7106   -0.6452   19.2831 C   0  0  0  0  0  0  0  0  0  0  0  0
    6.1668    0.7243   29.1448 C   0  0  0  0  0  0  0  0  0  0  0  0
    5.7149   -2.9371   19.4423 C   0  0  0  0  0  0  0  0  0  0  0  0
    4.4580   -5.5405   22.1459 C   0  0  0  0  0  0  0  0  0  0  0  0
    4.9368    1.1655   29.6055 C   0  0  0  0  0  0  0  0  0  0  0  0
    6.3217   -3.5212   24.5061 C   0  0  0  0  0  0  0  0  0  0  0  0
    7.1154   -1.3252   25.1261 C   0  0  0  0  0  0  0  0  0  0  0  0
    3.6051   -5.6234   23.2243 C   0  0  0  0  0  0  0  0  0  0  0  0
    7.3648   -4.1019   25.2274 C   0  0  0  0  0  0  0  0  0  0  0  0
    6.3865   -2.9057   20.6538 C   0  0  0  0  0  0  0  0  0  0  0  0
    5.3692   -4.3534   23.8118 C   0  0  0  0  0  0  0  0  0  0  0  0
    5.4732    0.7965   26.9558 C   0  0  0  0  0  0  0  0  0  0  0  0
    1.1214   -8.4049   24.0463 C   0  0  0  0  0  0  0  0  0  0  0  0
    6.9825    0.1595   25.0737 C   0  0  0  0  0  0  0  0  0  0  0  0
    2.3270   -6.3592   23.2715 C   0  0  0  0  0  0  0  0  0  0  0  0
    4.4974    1.4960   32.1332 N   0  0  0  0  0  0  0  0  0  0  0  0
    5.3671   -1.8350   18.7408 N   0  0  0  0  0  0  0  0  0  0  0  0
    6.4616    0.5324   27.8395 N   0  0  0  0  0  0  0  0  0  0  0  0
    5.5267   -4.7658   22.5144 N   0  0  0  0  0  0  0  0  0  0  0  0
    5.7223    0.6155   25.6030 N   0  0  0  0  0  0  0  0  0  0  0  0
    2.3904   -7.6366   24.0463 N   0  0  0  0  0  0  0  0  0  0  0  0
    6.8532   -5.4923   20.5328 O   0  0  0  0  0  0  0  0  0  0  0  0
    7.9708   -4.0879   22.3360 O   0  0  0  0  0  0  0  0  0  0  0  0
    7.4994   -5.4350   25.2852 F   0  0  0  0  0  0  0  0  0  0  0  0
    6.8045   -4.4034   21.5080 S   0  0  0  0  0  0  0  0  0  0  0  0
  1 14  1  0
  1 25  3  0
  2  6  2  0
  2 10  1  0
  3  7  2  0
  3 14  1  0
  4  5  2  0
  4 16  1  0
  5 18  1  0
  6 19  1  0
  7 21  1  0
  8 15  1  0
  8 16  2  0
  9 17  1  0
  9 20  2  0
 10 26  2  0
 11 14  2  0
 11 27  1  0
 12 19  2  0
 12 26  1  0
 13 17  2  0
 13 28  1  0
 15 18  2  0
 15 20  1  0
 16 23  1  0
 17 24  1  0
 18 33  1  0
 19 34  1  0
 20 28  1  0
 21 27  2  0
 21 29  1  0
 22 30  1  0
 23 29  1  0
 24 30  1  0
 28 34  1  0
 31 34  2  0
 32 34  2  0
M  CHG  1  30   1
M  END
