MAK-UNK-9e4a73aa-15
     RDKit          3D

 26 29  0  0  0  0  0  0  0  0999 V2000
   13.8898    0.0366   23.2221 C   0  0  0  0  0  0  0  0  0  0  0  0
   13.7016   -1.2594   22.7419 C   0  0  0  0  0  0  0  0  0  0  0  0
   12.7946    0.8839   23.3906 C   0  0  0  0  0  0  0  0  0  0  0  0
   12.4181   -1.7081   22.4302 C   0  0  0  0  0  0  0  0  0  0  0  0
   11.5112    0.4352   23.0789 C   0  0  0  0  0  0  0  0  0  0  0  0
    7.7318   -4.1420   23.1942 C   0  0  0  0  0  0  0  0  0  0  0  0
   10.1037   -3.0316   24.0937 C   0  0  0  0  0  0  0  0  0  0  0  0
    5.9952   -0.0130   20.1543 C   0  0  0  0  0  0  0  0  0  0  0  0
    7.7276   -0.3294   18.6198 C   0  0  0  0  0  0  0  0  0  0  0  0
    5.8192    0.7502   18.0204 C   0  0  0  0  0  0  0  0  0  0  0  0
    8.2646   -3.0068   22.5568 C   0  0  0  0  0  0  0  0  0  0  0  0
   11.3229   -0.8608   22.5987 C   0  0  0  0  0  0  0  0  0  0  0  0
    9.4788   -2.4568   22.9686 C   0  0  0  0  0  0  0  0  0  0  0  0
    7.2543   -0.5184   19.9022 C   0  0  0  0  0  0  0  0  0  0  0  0
    8.3923   -4.7206   24.2728 C   0  0  0  0  0  0  0  0  0  0  0  0
    9.5728   -4.1564   24.7316 C   0  0  0  0  0  0  0  0  0  0  0  0
    7.4785   -2.3680   21.4868 C   0  0  0  0  0  0  0  0  0  0  0  0
    9.3073   -0.6703   21.2382 C   0  0  0  0  0  0  0  0  0  0  0  0
    5.2470    0.6292   19.2334 N   0  0  0  0  0  0  0  0  0  0  0  0
    7.0342    0.3026   17.6503 N   0  0  0  0  0  0  0  0  0  0  0  0
   10.0030   -1.3226   22.2782 N   0  0  0  0  0  0  0  0  0  0  0  0
    8.0283   -1.2032   20.9185 N   0  0  0  0  0  0  0  0  0  0  0  0
    6.3796   -2.8503   21.2174 O   0  0  0  0  0  0  0  0  0  0  0  0
    9.8234    0.2490   20.5888 O   0  0  0  0  0  0  0  0  0  0  0  0
    7.8669   -5.8010   24.8672 F   0  0  0  0  0  0  0  0  0  0  0  0
   10.3922   -4.8403   26.0829 Cl  0  0  0  0  0  0  0  0  0  0  0  0
  1  2  2  0
  1  3  1  0
  2  4  1  0
  3  5  2  0
  4 12  2  0
  5 12  1  0
  6 11  2  0
  6 15  1  0
  7 13  2  0
  7 16  1  0
  8 14  2  0
  8 19  1  0
  9 14  1  0
  9 20  2  0
 10 19  2  0
 10 20  1  0
 11 13  1  0
 11 17  1  0
 12 21  1  0
 13 21  1  0
 14 22  1  0
 15 16  2  0
 15 25  1  0
 16 26  1  0
 17 22  1  0
 17 23  2  0
 18 21  1  0
 18 22  1  0
 18 24  2  0
M  END
