MAK-UNK-8145c7a0-1
     RDKit          3D

 26 28  0  0  1  0  0  0  0  0999 V2000
    5.8673   -5.1682   27.1448 C   0  0  0  0  0  0  0  0  0  0  0  0
    7.0870   -4.9541   27.7866 C   0  0  0  0  0  0  0  0  0  0  0  0
    5.8426   -5.5487   25.8030 C   0  0  0  0  0  0  0  0  0  0  0  0
    8.2821   -5.1203   27.0868 C   0  0  0  0  0  0  0  0  0  0  0  0
    7.0377   -5.7149   25.1031 C   0  0  0  0  0  0  0  0  0  0  0  0
    8.2574   -5.5007   25.7450 C   0  0  0  0  0  0  0  0  0  0  0  0
   11.3687    1.8777   22.3516 C   0  0  0  0  0  0  0  0  0  0  0  0
   10.8012   -0.4124   22.3720 C   0  0  0  0  0  0  0  0  0  0  0  0
    9.2170    6.1988   24.1847 C   0  0  0  0  0  0  0  0  0  0  0  0
    9.0984    4.9266   24.5851 C   0  0  0  0  0  0  0  0  0  0  0  0
   10.3144    6.6561   23.2694 C   0  0  0  0  0  0  0  0  0  0  0  0
   10.0297    3.8543   24.1234 C   0  0  0  0  0  0  0  0  0  0  0  0
   11.4535    5.6470   23.1196 C   0  0  0  0  0  0  0  0  0  0  0  0
    9.5499   -5.6805   24.9872 C   0  0  0  0  0  0  0  0  0  0  0  0
   11.9321    3.2434   22.6134 C   0  0  0  0  0  0  0  0  0  0  0  0
   10.6644   -1.8549   22.6547 C   0  0  0  0  0  0  0  0  0  0  0  0
   10.0238   -4.3992   24.3056 C   0  0  0  0  0  0  0  0  0  0  0  0
   10.5114    1.5791   21.3988 N   0  0  0  0  0  0  0  0  0  0  0  0
   10.1778    0.2361   21.4114 N   0  0  0  0  0  0  0  0  0  0  0  0
    9.0366   -3.8698   23.3475 N   0  0  0  0  0  0  0  0  0  0  0  0
   10.8775    4.2636   22.9330 N   0  0  0  0  0  0  0  0  0  0  0  0
    8.6628   -1.4941   24.3020 O   0  0  0  0  0  0  0  0  0  0  0  0
    8.1782   -1.9537   21.8708 O   0  0  0  0  0  0  0  0  0  0  0  0
    8.0837    4.5963   25.4142 F   0  0  0  0  0  0  0  0  0  0  0  0
   11.8395    0.5543   23.3358 S   0  0  0  0  0  0  0  0  0  0  0  0
    8.9759   -2.1856   23.0633 S   0  0  0  0  0  0  0  0  0  0  0  0
  1  2  2  0
  1  3  1  0
  2  4  1  0
  3  5  2  0
  4  6  2  0
  5  6  1  0
  6 14  1  0
  7 15  1  0
  7 18  2  0
  7 25  1  0
  8 16  1  0
  8 19  2  0
  8 25  1  0
  9 10  2  0
  9 11  1  0
 10 12  1  0
 10 24  1  0
 11 13  1  0
 12 21  1  0
 13 21  1  0
 14 17  1  0
 15 21  1  0
 16 26  1  0
 17 20  1  0
 18 19  1  0
 20 26  1  0
 22 26  2  0
 23 26  2  0
M  CHG  1  21   1
M  END
