MAK-UNK-acefcb18-27
     RDKit          3D

 21 23  0  0  0  0  0  0  0  0999 V2000
    9.2408   -1.1586   25.1452 C   0  0  0  0  0  0  0  0  0  0  0  0
    9.9270   -2.0148   22.9927 C   0  0  0  0  0  0  0  0  0  0  0  0
    8.8954   -2.4485   25.5482 C   0  0  0  0  0  0  0  0  0  0  0  0
    9.5816   -3.3048   23.3958 C   0  0  0  0  0  0  0  0  0  0  0  0
    9.7565   -0.9417   23.8674 C   0  0  0  0  0  0  0  0  0  0  0  0
    9.0658   -3.5216   24.6735 C   0  0  0  0  0  0  0  0  0  0  0  0
    7.0729    1.7617   21.5497 C   0  0  0  0  0  0  0  0  0  0  0  0
    7.9890    3.5866   23.0190 C   0  0  0  0  0  0  0  0  0  0  0  0
    8.8007   -5.2368   26.4740 C   0  0  0  0  0  0  0  0  0  0  0  0
    7.8602   -5.6483   24.2391 C   0  0  0  0  0  0  0  0  0  0  0  0
    8.3420    0.9528   21.7675 C   0  0  0  0  0  0  0  0  0  0  0  0
    9.2560    2.7735   23.2337 C   0  0  0  0  0  0  0  0  0  0  0  0
    7.4090   -5.2091   27.0947 C   0  0  0  0  0  0  0  0  0  0  0  0
    6.4442   -5.6331   24.8112 C   0  0  0  0  0  0  0  0  0  0  0  0
    7.3276    3.2602   21.6824 C   0  0  0  0  0  0  0  0  0  0  0  0
    5.1091   -6.1582   26.8574 C   0  0  0  0  0  0  0  0  0  0  0  0
   10.1279    0.4454   23.4328 C   0  0  0  0  0  0  0  0  0  0  0  0
    8.7232   -4.8082   25.0757 N   0  0  0  0  0  0  0  0  0  0  0  0
    6.4857   -6.0754   26.2602 N   0  0  0  0  0  0  0  0  0  0  0  0
    8.9340    1.3023   23.1130 N   0  0  0  0  0  0  0  0  0  0  0  0
    6.0848    3.9458   21.5806 O   0  0  0  0  0  0  0  0  0  0  0  0
  1  3  2  0
  1  5  1  0
  2  4  1  0
  2  5  2  0
  3  6  1  0
  4  6  2  0
  5 17  1  0
  6 18  1  0
  7 11  1  0
  7 15  1  0
  8 12  1  0
  8 15  1  0
  9 13  1  0
  9 18  1  0
 10 14  1  0
 10 18  1  0
 11 20  1  0
 12 20  1  0
 13 19  1  0
 14 19  1  0
 15 21  1  0
 16 19  1  0
 17 20  1  0
M  CHG  2  19   1  20   1
M  END
