MAK-UNK-bdda130a-5
     RDKit          3D

 23 26  0  0  1  0  0  0  0  0999 V2000
    7.3559   -1.8910   21.3490 C   0  0  0  0  0  0  0  0  0  0  0  0
   13.2215   -1.4826   24.0390 C   0  0  0  0  0  0  0  0  0  0  0  0
    6.1121   -2.2275   20.8440 C   0  0  0  0  0  0  0  0  0  0  0  0
    6.3083   -4.3695   21.6191 C   0  0  0  0  0  0  0  0  0  0  0  0
   14.1746   -1.7484   24.9973 C   0  0  0  0  0  0  0  0  0  0  0  0
   12.2467   -0.5341   25.9238 C   0  0  0  0  0  0  0  0  0  0  0  0
    8.1210   -2.8636   22.0230 C   0  0  0  0  0  0  0  0  0  0  0  0
    7.5673   -4.1453   22.1901 C   0  0  0  0  0  0  0  0  0  0  0  0
   12.1047   -0.7790   24.5755 C   0  0  0  0  0  0  0  0  0  0  0  0
    9.1412   -5.3184   23.8217 C   0  0  0  0  0  0  0  0  0  0  0  0
   10.0505    1.1447   24.2998 C   0  0  0  0  0  0  0  0  0  0  0  0
   11.2065    0.0891   22.0346 C   0  0  0  0  0  0  0  0  0  0  0  0
   10.2463   -3.5113   25.0165 C   0  0  0  0  0  0  0  0  0  0  0  0
    9.3343   -2.2856   24.8858 C   0  0  0  0  0  0  0  0  0  0  0  0
   10.4522   -3.6256   22.5928 C   0  0  0  0  0  0  0  0  0  0  0  0
    9.5213   -2.4365   22.4302 C   0  0  0  0  0  0  0  0  0  0  0  0
    5.5714   -3.4525   20.9527 N   0  0  0  0  0  0  0  0  0  0  0  0
    8.0954   -5.2444   22.9204 N   0  0  0  0  0  0  0  0  0  0  0  0
   10.0813   -4.3070   23.8110 N   0  0  0  0  0  0  0  0  0  0  0  0
    9.5543   -1.5460   23.6240 N   0  0  0  0  0  0  0  0  0  0  0  0
    9.1799   -6.2351   24.6510 O   0  0  0  0  0  0  0  0  0  0  0  0
   13.7218   -1.1509   26.5369 S   0  0  0  0  0  0  0  0  0  0  0  0
   10.7335   -0.2917   23.6441 S   0  0  0  0  0  0  0  0  0  0  0  0
  1  3  2  0
  1  7  1  0
  2  5  2  0
  2  9  1  0
  3 17  1  0
  4  8  1  0
  4 17  2  0
  5 22  1  0
  6  9  2  0
  6 22  1  0
  7  8  2  0
  7 16  1  0
  8 18  1  0
  9 23  1  0
 10 18  1  0
 10 19  1  0
 10 21  2  0
 11 23  2  0
 12 23  2  0
 13 14  1  0
 13 19  1  0
 14 20  1  0
 15 16  1  0
 15 19  1  0
 16 20  1  0
 20 23  1  0
M  END
