MAK-UNK-1bb0b7ee-9
     RDKit          3D

 24 27  0  0  0  0  0  0  0  0999 V2000
    8.6553   -6.5682   23.3307 C   0  0  0  0  0  0  0  0  0  0  0  0
   13.7899   -2.1280   24.8293 C   0  0  0  0  0  0  0  0  0  0  0  0
   13.5644   -0.7573   24.6827 C   0  0  0  0  0  0  0  0  0  0  0  0
    8.1429   -6.4035   22.0439 C   0  0  0  0  0  0  0  0  0  0  0  0
    8.2424   -0.9172   20.6347 C   0  0  0  0  0  0  0  0  0  0  0  0
    7.4483   -0.7455   19.5063 C   0  0  0  0  0  0  0  0  0  0  0  0
    8.3455   -5.6439   24.3284 C   0  0  0  0  0  0  0  0  0  0  0  0
   12.7218   -3.0258   24.9508 C   0  0  0  0  0  0  0  0  0  0  0  0
   12.2675   -0.2343   24.6520 C   0  0  0  0  0  0  0  0  0  0  0  0
    7.3206   -5.3145   21.7548 C   0  0  0  0  0  0  0  0  0  0  0  0
    7.8349   -1.7886   21.6387 C   0  0  0  0  0  0  0  0  0  0  0  0
    6.2653   -1.4627   19.4306 C   0  0  0  0  0  0  0  0  0  0  0  0
    7.5232   -4.5549   24.0393 C   0  0  0  0  0  0  0  0  0  0  0  0
   11.4121   -2.5176   24.9223 C   0  0  0  0  0  0  0  0  0  0  0  0
   11.2193   -1.1469   24.7749 C   0  0  0  0  0  0  0  0  0  0  0  0
    7.0108   -4.3902   22.7525 C   0  0  0  0  0  0  0  0  0  0  0  0
    6.6344   -2.4589   21.4676 C   0  0  0  0  0  0  0  0  0  0  0  0
    9.2964   -2.2293   24.9347 C   0  0  0  0  0  0  0  0  0  0  0  0
    7.2007   -3.5699   25.1256 C   0  0  0  0  0  0  0  0  0  0  0  0
    5.8363   -2.3181   20.3856 N   0  0  0  0  0  0  0  0  0  0  0  0
   10.2065   -3.1736   25.0198 N   0  0  0  0  0  0  0  0  0  0  0  0
    9.8569   -0.9912   24.7862 N   0  0  0  0  0  0  0  0  0  0  0  0
    7.9489   -2.3218   24.9727 N   0  0  0  0  0  0  0  0  0  0  0  0
    6.2068   -3.3317   22.4532 O   0  0  0  0  0  0  0  0  0  0  0  0
  1  4  2  0
  1  7  1  0
  2  3  2  0
  2  8  1  0
  3  9  1  0
  4 10  1  0
  5  6  2  0
  5 11  1  0
  6 12  1  0
  7 13  2  0
  8 14  2  0
  9 15  2  0
 10 16  2  0
 11 17  2  0
 12 20  2  0
 13 16  1  0
 13 19  1  0
 14 15  1  0
 14 21  1  0
 15 22  1  0
 16 24  1  0
 17 20  1  0
 17 24  1  0
 18 21  2  0
 18 22  1  0
 18 23  1  0
 19 23  1  0
M  END
