MAK-UNK-c44f4be0-16
     RDKit          3D

 32 33  0  0  1  0  0  0  0  0999 V2000
    7.7955   -2.5986   26.6962 C   0  0  0  0  0  0  0  0  0  0  0  0
    7.6229   -3.7687   26.9024 C   0  0  0  0  0  0  0  0  0  0  0  0
    8.7730    5.3771   25.6557 C   0  0  0  0  0  0  0  0  0  0  0  0
    7.3804    5.3493   25.7284 C   0  0  0  0  0  0  0  0  0  0  0  0
    9.4037    5.5601   24.4250 C   0  0  0  0  0  0  0  0  0  0  0  0
    6.6183    5.5044   24.5705 C   0  0  0  0  0  0  0  0  0  0  0  0
    8.6416    5.7151   23.2671 C   0  0  0  0  0  0  0  0  0  0  0  0
    7.2020   -0.0060   20.2884 C   0  0  0  0  0  0  0  0  0  0  0  0
    7.0468    0.0315   18.9027 C   0  0  0  0  0  0  0  0  0  0  0  0
    5.2011    1.5706   19.1511 C   0  0  0  0  0  0  0  0  0  0  0  0
    7.2489    5.6873   23.3398 C   0  0  0  0  0  0  0  0  0  0  0  0
    6.3568    0.7448   21.1055 C   0  0  0  0  0  0  0  0  0  0  0  0
    6.0464    0.8199   18.3341 C   0  0  0  0  0  0  0  0  0  0  0  0
    5.3563    1.5331   20.5369 C   0  0  0  0  0  0  0  0  0  0  0  0
   10.2313    1.2152   22.2198 C   0  0  0  0  0  0  0  0  0  0  0  0
    8.1456    0.3976   24.5176 C   0  0  0  0  0  0  0  0  0  0  0  0
   10.9628    2.4164   21.7195 C   0  0  0  0  0  0  0  0  0  0  0  0
    8.0060   -1.1726   26.4496 C   0  0  0  0  0  0  0  0  0  0  0  0
    6.4250    5.8549   22.0867 C   0  0  0  0  0  0  0  0  0  0  0  0
    6.5502    0.6802   22.6009 C   0  0  0  0  0  0  0  0  0  0  0  0
    6.1174    4.5293   21.3945 C   0  0  0  0  0  0  0  0  0  0  0  0
    8.0077    0.4214   22.9995 C   0  0  0  0  0  0  0  0  0  0  0  0
    7.9737   -0.8788   25.0349 N   0  0  0  0  0  0  0  0  0  0  0  0
    8.8967    1.4433   22.5066 N   0  0  0  0  0  0  0  0  0  0  0  0
    5.3405    3.6160   22.2448 N   0  0  0  0  0  0  0  0  0  0  0  0
   10.8274    0.1512   22.3391 O   0  0  0  0  0  0  0  0  0  0  0  0
    8.3417    1.4093   25.1876 O   0  0  0  0  0  0  0  0  0  0  0  0
    3.3504    3.1975   20.6632 O   0  0  0  0  0  0  0  0  0  0  0  0
    3.7547    1.6137   22.5743 O   0  0  0  0  0  0  0  0  0  0  0  0
    5.8953    0.8568   16.9821 O   0  0  0  0  0  0  0  0  0  0  0  0
    4.2766    2.4854   21.5321 S   0  0  0  0  0  0  0  0  0  0  0  0
    7.3493   -5.6205   27.2289 Br  0  0  0  0  0  0  0  0  0  0  0  0
  1  2  3  0
  1 18  1  0
  2 32  1  0
  3  4  2  0
  3  5  1  0
  4  6  1  0
  5  7  2  0
  6 11  2  0
  7 11  1  0
  8  9  2  0
  8 12  1  0
  9 13  1  0
 10 13  2  0
 10 14  1  0
 11 19  1  0
 12 14  2  0
 12 20  1  0
 13 30  1  0
 14 31  1  0
 15 17  1  0
 15 24  1  0
 15 26  2  0
 16 22  1  0
 16 23  1  0
 16 27  2  0
 18 23  1  0
 19 21  1  0
 20 22  1  0
 21 25  1  0
 22 24  1  0
 25 31  1  0
 28 31  2  0
 29 31  2  0
M  END
