MAK-UNK-51bb34f9-3
     RDKit          3D

 25 26  0  0  0  0  0  0  0  0999 V2000
    5.6787   -1.1310   24.1259 C   0  0  0  0  0  0  0  0  0  0  0  0
    6.2011   -0.0465   18.0698 C   0  0  0  0  0  0  0  0  0  0  0  0
    6.3366   -1.1388   18.9194 C   0  0  0  0  0  0  0  0  0  0  0  0
    3.8768   -4.1743   25.3149 C   0  0  0  0  0  0  0  0  0  0  0  0
    7.1493    0.9604   18.1516 C   0  0  0  0  0  0  0  0  0  0  0  0
    3.9702   -1.4950   25.8231 C   0  0  0  0  0  0  0  0  0  0  0  0
    8.2958   -0.1319   19.8161 C   0  0  0  0  0  0  0  0  0  0  0  0
    4.8034   -2.0061   24.8411 C   0  0  0  0  0  0  0  0  0  0  0  0
    7.4012   -1.1900   19.8124 C   0  0  0  0  0  0  0  0  0  0  0  0
    4.7497   -3.3722   24.5883 C   0  0  0  0  0  0  0  0  0  0  0  0
    3.0852   -3.5662   26.2758 C   0  0  0  0  0  0  0  0  0  0  0  0
    5.6189   -5.3163   23.2432 C   0  0  0  0  0  0  0  0  0  0  0  0
    6.7564   -3.4215   20.8048 C   0  0  0  0  0  0  0  0  0  0  0  0
    1.0917   -6.4200   27.6919 C   0  0  0  0  0  0  0  0  0  0  0  0
    6.6344   -5.5328   22.1378 C   0  0  0  0  0  0  0  0  0  0  0  0
    2.1041   -5.8024   26.7885 C   0  0  0  0  0  0  0  0  0  0  0  0
    6.3892   -0.4205   23.5452 N   0  0  0  0  0  0  0  0  0  0  0  0
    8.1969    0.9458   19.0060 N   0  0  0  0  0  0  0  0  0  0  0  0
    3.1093   -2.2425   26.5496 N   0  0  0  0  0  0  0  0  0  0  0  0
    5.5581   -3.9647   23.6130 N   0  0  0  0  0  0  0  0  0  0  0  0
    7.5653   -2.2876   20.6892 N   0  0  0  0  0  0  0  0  0  0  0  0
    2.2000   -4.3960   27.0079 N   0  0  0  0  0  0  0  0  0  0  0  0
    7.2572   -4.2804   21.7916 N   0  0  0  0  0  0  0  0  0  0  0  0
    4.9551   -6.2362   23.7104 O   0  0  0  0  0  0  0  0  0  0  0  0
    5.7438   -3.6684   20.1542 O   0  0  0  0  0  0  0  0  0  0  0  0
  1  8  1  0
  1 17  3  0
  2  3  2  0
  2  5  1  0
  3  9  1  0
  4 10  2  0
  4 11  1  0
  5 18  2  0
  6  8  2  0
  6 19  1  0
  7  9  2  0
  7 18  1  0
  8 10  1  0
  9 21  1  0
 10 20  1  0
 11 19  2  0
 11 22  1  0
 12 15  1  0
 12 20  1  0
 12 24  2  0
 13 21  1  0
 13 23  1  0
 13 25  2  0
 14 16  1  0
 15 23  1  0
 16 22  1  0
M  END
