MAK-UNK-9a6be56d-24
     RDKit          3D

 38 42  0  0  0  0  0  0  0  0999 V2000
   12.9951    0.0033   23.8365 C   0  0  0  0  0  0  0  0  0  0  0  0
    5.5998    0.8350   18.4711 C   0  0  0  0  0  0  0  0  0  0  0  0
    7.2855    1.9837   26.9576 C   0  0  0  0  0  0  0  0  0  0  0  0
   11.8604    0.1024   24.6416 C   0  0  0  0  0  0  0  0  0  0  0  0
   12.9306   -0.6785   22.6213 C   0  0  0  0  0  0  0  0  0  0  0  0
    6.2677    0.7920   19.6898 C   0  0  0  0  0  0  0  0  0  0  0  0
    7.5903    3.2010   26.3579 C   0  0  0  0  0  0  0  0  0  0  0  0
    8.9095   -3.0545   22.8016 C   0  0  0  0  0  0  0  0  0  0  0  0
    9.1575    2.0730   24.9084 C   0  0  0  0  0  0  0  0  0  0  0  0
    6.3319    0.5872   17.3212 C   0  0  0  0  0  0  0  0  0  0  0  0
    8.2695    0.2732   18.5150 C   0  0  0  0  0  0  0  0  0  0  0  0
    7.3833   -1.9742   21.5471 C   0  0  0  0  0  0  0  0  0  0  0  0
   10.5968   -1.1624   23.0166 C   0  0  0  0  0  0  0  0  0  0  0  0
    7.9244    0.8008   26.5460 C   0  0  0  0  0  0  0  0  0  0  0  0
    7.6551   -3.1799   22.1552 C   0  0  0  0  0  0  0  0  0  0  0  0
   10.6613   -0.4805   24.2317 C   0  0  0  0  0  0  0  0  0  0  0  0
    8.8835    0.8260   25.5058 C   0  0  0  0  0  0  0  0  0  0  0  0
   11.7315   -1.2614   22.2114 C   0  0  0  0  0  0  0  0  0  0  0  0
    8.5243    3.2449   25.3317 C   0  0  0  0  0  0  0  0  0  0  0  0
    7.6282    0.5065   19.7209 C   0  0  0  0  0  0  0  0  0  0  0  0
    9.3661   -1.7758   22.5689 C   0  0  0  0  0  0  0  0  0  0  0  0
    7.5190   -0.4914   27.2084 C   0  0  0  0  0  0  0  0  0  0  0  0
    8.5390   -1.5899   26.9576 C   0  0  0  0  0  0  0  0  0  0  0  0
    8.9010   -1.6330   25.4785 C   0  0  0  0  0  0  0  0  0  0  0  0
    4.7675   -5.5122   23.0516 C   0  0  0  0  0  0  0  0  0  0  0  0
    6.7969   -4.3800   22.1359 C   0  0  0  0  0  0  0  0  0  0  0  0
    7.6542    0.3064   17.3117 N   0  0  0  0  0  0  0  0  0  0  0  0
    8.4301   -1.1282   21.8055 N   0  0  0  0  0  0  0  0  0  0  0  0
    9.5263   -0.3633   25.0697 N   0  0  0  0  0  0  0  0  0  0  0  0
    7.7625    4.8019   23.3068 N   0  0  0  0  0  0  0  0  0  0  0  0
    5.5998   -4.2845   23.0271 N   0  0  0  0  0  0  0  0  0  0  0  0
    9.9306    0.6841   20.9820 O   0  0  0  0  0  0  0  0  0  0  0  0
    7.7765    1.2990   22.1882 O   0  0  0  0  0  0  0  0  0  0  0  0
    8.6096    5.8400   25.5091 O   0  0  0  0  0  0  0  0  0  0  0  0
   10.2431    4.6694   23.9895 O   0  0  0  0  0  0  0  0  0  0  0  0
   11.6877   -1.9126   21.0396 F   0  0  0  0  0  0  0  0  0  0  0  0
    8.5144    0.4428   21.2565 S   0  0  0  0  0  0  0  0  0  0  0  0
    8.9117    4.7685   24.5707 S   0  0  0  0  0  0  0  0  0  0  0  0
  1  4  2  0
  1  5  1  0
  2  6  2  0
  2 10  1  0
  3  7  2  0
  3 14  1  0
  4 16  1  0
  5 18  2  0
  6 20  1  0
  7 19  1  0
  8 15  1  0
  8 21  2  0
  9 17  1  0
  9 19  2  0
 10 27  2  0
 11 20  2  0
 11 27  1  0
 12 15  2  0
 12 28  1  0
 13 16  2  0
 13 18  1  0
 13 21  1  0
 14 17  2  0
 14 22  1  0
 15 26  1  0
 16 29  1  0
 17 29  1  0
 18 36  1  0
 19 38  1  0
 20 37  1  0
 21 28  1  0
 22 23  1  0
 23 24  1  0
 24 29  1  0
 25 31  1  0
 26 31  1  0
 28 37  1  0
 30 38  1  0
 32 37  2  0
 33 37  2  0
 34 38  2  0
 35 38  2  0
M  CHG  1  31   1
M  END
