MAK-UNK-2c1752f0-5
     RDKit          3D

 13 13  0  0  0  0  0  0  0  0999 V2000
   14.2952   -2.0195   22.5665 C   0  0  0  0  0  0  0  0  0  0  0  0
   14.5077   -1.5262   23.8538 C   0  0  0  0  0  0  0  0  0  0  0  0
   13.3461   -1.4207   21.7380 C   0  0  0  0  0  0  0  0  0  0  0  0
   13.7711   -0.4342   24.3126 C   0  0  0  0  0  0  0  0  0  0  0  0
   12.6095   -0.3287   22.1969 C   0  0  0  0  0  0  0  0  0  0  0  0
   12.8220    0.1646   23.4842 C   0  0  0  0  0  0  0  0  0  0  0  0
    7.5932   -0.0091   20.9853 C   0  0  0  0  0  0  0  0  0  0  0  0
    9.0695   -0.1264   20.6789 C   0  0  0  0  0  0  0  0  0  0  0  0
   11.6385    0.2820   21.3467 N   0  0  0  0  0  0  0  0  0  0  0  0
    9.8795   -0.2823   23.1461 O   0  0  0  0  0  0  0  0  0  0  0  0
    9.7798    1.9846   22.0525 O   0  0  0  0  0  0  0  0  0  0  0  0
   12.1190    1.2133   23.9352 F   0  0  0  0  0  0  0  0  0  0  0  0
   10.0632    0.5649   21.9825 S   0  0  0  0  0  0  0  0  0  0  0  0
  1  2  2  0
  1  3  1  0
  2  4  1  0
  3  5  2  0
  4  6  2  0
  5  6  1  0
  5  9  1  0
  6 12  1  0
  7  8  1  0
  8 13  1  0
  9 13  1  0
 10 13  2  0
 11 13  2  0
M  END
