MAK-UNK-148caf23-12
     RDKit          3D

 34 37  0  0  0  0  0  0  0  0999 V2000
   13.0410    4.2221   22.3071 C   0  0  0  0  0  0  0  0  0  0  0  0
    5.8264   -3.5792   20.9469 C   0  0  0  0  0  0  0  0  0  0  0  0
    5.2286   -2.5142   20.2732 C   0  0  0  0  0  0  0  0  0  0  0  0
    7.6228   -4.3342   27.1971 C   0  0  0  0  0  0  0  0  0  0  0  0
   11.3463    3.5575   23.9493 C   0  0  0  0  0  0  0  0  0  0  0  0
    7.0482   -3.3971   21.5948 C   0  0  0  0  0  0  0  0  0  0  0  0
    5.8526   -1.2669   20.2473 C   0  0  0  0  0  0  0  0  0  0  0  0
    7.9703   -3.1342   26.5867 C   0  0  0  0  0  0  0  0  0  0  0  0
   10.7633    2.5744   24.7411 C   0  0  0  0  0  0  0  0  0  0  0  0
   10.2066   -2.1366   21.7352 C   0  0  0  0  0  0  0  0  0  0  0  0
    6.6725   -5.1272   26.5742 C   0  0  0  0  0  0  0  0  0  0  0  0
   12.8764    1.9259   23.1411 C   0  0  0  0  0  0  0  0  0  0  0  0
    6.4270   -3.6322   24.8471 C   0  0  0  0  0  0  0  0  0  0  0  0
   12.4234    3.2353   23.1312 C   0  0  0  0  0  0  0  0  0  0  0  0
    7.6722   -2.1498   21.5688 C   0  0  0  0  0  0  0  0  0  0  0  0
   11.1190   -1.8367   22.7766 C   0  0  0  0  0  0  0  0  0  0  0  0
    7.0744   -1.0847   20.8951 C   0  0  0  0  0  0  0  0  0  0  0  0
    7.3656   -2.7690   25.3891 C   0  0  0  0  0  0  0  0  0  0  0  0
    8.9362   -1.9666   22.2397 C   0  0  0  0  0  0  0  0  0  0  0  0
   10.3785   -1.4928   23.8860 C   0  0  0  0  0  0  0  0  0  0  0  0
   11.2905    1.2946   24.6788 C   0  0  0  0  0  0  0  0  0  0  0  0
   14.6381   -1.0588   21.5133 C   0  0  0  0  0  0  0  0  0  0  0  0
   12.5915   -1.8863   22.6817 C   0  0  0  0  0  0  0  0  0  0  0  0
   10.8300   -1.0934   25.2368 C   0  0  0  0  0  0  0  0  0  0  0  0
   13.5436    5.0251   21.6367 N   0  0  0  0  0  0  0  0  0  0  0  0
    6.0635   -4.8060   25.4108 N   0  0  0  0  0  0  0  0  0  0  0  0
   12.3358    0.9437   23.8965 N   0  0  0  0  0  0  0  0  0  0  0  0
    9.0529   -1.5755   23.5481 N   0  0  0  0  0  0  0  0  0  0  0  0
   10.6997    0.3267   25.4736 N   0  0  0  0  0  0  0  0  0  0  0  0
   13.1635   -0.9685   21.6494 N   0  0  0  0  0  0  0  0  0  0  0  0
    6.6703   -0.8618   23.7152 O   0  0  0  0  0  0  0  0  0  0  0  0
    8.2648   -0.3460   25.6294 O   0  0  0  0  0  0  0  0  0  0  0  0
    7.6615    0.1206   20.8610 F   0  0  0  0  0  0  0  0  0  0  0  0
    7.7829   -1.2468   24.5813 S   0  0  0  0  0  0  0  0  0  0  0  0
  1 14  1  0
  1 25  3  0
  2  3  2  0
  2  6  1  0
  3  7  1  0
  4  8  2  0
  4 11  1  0
  5  9  2  0
  5 14  1  0
  6 15  2  0
  7 17  2  0
  8 18  1  0
  9 21  1  0
 10 16  1  0
 10 19  2  0
 11 26  2  0
 12 14  2  0
 12 27  1  0
 13 18  2  0
 13 26  1  0
 15 17  1  0
 15 19  1  0
 16 20  2  0
 16 23  1  0
 17 33  1  0
 18 34  1  0
 19 28  1  0
 20 24  1  0
 20 28  1  0
 21 27  2  0
 21 29  1  0
 22 30  1  0
 23 30  1  0
 24 29  1  0
 28 34  1  0
 31 34  2  0
 32 34  2  0
M  CHG  1  30   1
M  END
