MAK-UNK-10572812-7
     RDKit          3D

 34 38  0  0  1  0  0  0  0  0999 V2000
    9.1294   -4.6318   25.2169 C   0  0  0  0  0  0  0  0  0  0  0  0
    9.3370   -3.5406   24.3751 C   0  0  0  0  0  0  0  0  0  0  0  0
    5.2264    3.1196   22.3957 C   0  0  0  0  0  0  0  0  0  0  0  0
    5.2496    2.1387   23.3912 C   0  0  0  0  0  0  0  0  0  0  0  0
    7.0100    3.3102   24.5853 C   0  0  0  0  0  0  0  0  0  0  0  0
    8.7568   -4.3979   26.5338 C   0  0  0  0  0  0  0  0  0  0  0  0
    7.2925    6.0893   22.2280 C   0  0  0  0  0  0  0  0  0  0  0  0
    8.9485   -0.0755   25.4623 C   0  0  0  0  0  0  0  0  0  0  0  0
    9.1560   -2.2553   24.9109 C   0  0  0  0  0  0  0  0  0  0  0  0
    7.0047    4.3113   23.5938 C   0  0  0  0  0  0  0  0  0  0  0  0
    7.7411    5.5124   23.3937 C   0  0  0  0  0  0  0  0  0  0  0  0
    9.2591   -0.9257   24.4230 C   0  0  0  0  0  0  0  0  0  0  0  0
    6.1149    4.1931   22.5240 C   0  0  0  0  0  0  0  0  0  0  0  0
    6.1269    2.2305   24.4700 C   0  0  0  0  0  0  0  0  0  0  0  0
    8.7812   -2.1659   26.2483 C   0  0  0  0  0  0  0  0  0  0  0  0
   11.4844    4.1463   23.7307 C   0  0  0  0  0  0  0  0  0  0  0  0
   11.1181   -0.6453   22.7820 C   0  0  0  0  0  0  0  0  0  0  0  0
   13.3539    0.3988   22.8973 C   0  0  0  0  0  0  0  0  0  0  0  0
   11.4319    1.6858   23.7418 C   0  0  0  0  0  0  0  0  0  0  0  0
   13.8332    1.5970   22.0958 C   0  0  0  0  0  0  0  0  0  0  0  0
   11.8841    2.9240   22.9668 C   0  0  0  0  0  0  0  0  0  0  0  0
   13.9329    4.0769   22.0404 C   0  0  0  0  0  0  0  0  0  0  0  0
    9.6371   -0.5107   23.0323 C   0  0  0  0  0  0  0  0  0  0  0  0
    8.8203    6.0646   24.2923 C   0  0  0  0  0  0  0  0  0  0  0  0
   10.1572    6.2433   23.5768 C   0  0  0  0  0  0  0  0  0  0  0  0
    8.5684   -3.1845   27.1028 N   0  0  0  0  0  0  0  0  0  0  0  0
    6.3116    5.2864   21.7108 N   0  0  0  0  0  0  0  0  0  0  0  0
    8.6607   -0.8383   26.5644 N   0  0  0  0  0  0  0  0  0  0  0  0
   11.9112    0.4529   23.1139 N   0  0  0  0  0  0  0  0  0  0  0  0
   10.6619    5.0055   23.0272 N   0  0  0  0  0  0  0  0  0  0  0  0
   13.3920    2.8758   22.7757 N   0  0  0  0  0  0  0  0  0  0  0  0
   11.8896    4.3020   24.8767 O   0  0  0  0  0  0  0  0  0  0  0  0
   11.5547   -1.6952   22.3031 O   0  0  0  0  0  0  0  0  0  0  0  0
    6.1248    1.2749   25.4095 F   0  0  0  0  0  0  0  0  0  0  0  0
  1  2  2  0
  1  6  1  0
  2  9  1  0
  3  4  2  0
  3 13  1  0
  4 14  1  0
  5 10  1  0
  5 14  2  0
  6 26  2  0
  7 11  2  0
  7 27  1  0
  8 12  2  0
  8 28  1  0
  9 12  1  0
  9 15  2  0
 10 11  1  0
 10 13  2  0
 11 24  1  0
 12 23  1  0
 13 27  1  0
 14 34  1  0
 15 26  1  0
 15 28  1  0
 16 21  1  0
 16 30  1  0
 16 32  2  0
 17 23  1  0
 17 29  1  0
 17 33  2  0
 18 20  1  0
 18 29  1  0
 19 21  1  0
 19 29  1  0
 20 31  1  0
 21 31  1  0
 22 31  1  0
 24 25  1  0
 25 30  1  0
M  CHG  1  31   1
M  END
