MAK-UNK-c44f4be0-11
     RDKit          3D

 32 33  0  0  1  0  0  0  0  0999 V2000
    4.6275    5.1818   24.3765 C   0  0  0  0  0  0  0  0  0  0  0  0
    5.0450    6.1632   24.9276 C   0  0  0  0  0  0  0  0  0  0  0  0
   13.4664   -1.7456   23.2576 C   0  0  0  0  0  0  0  0  0  0  0  0
   13.3908   -0.7239   24.2042 C   0  0  0  0  0  0  0  0  0  0  0  0
   12.6232   -1.7308   22.1465 C   0  0  0  0  0  0  0  0  0  0  0  0
   12.4720    0.3125   24.0398 C   0  0  0  0  0  0  0  0  0  0  0  0
   11.7043   -0.6944   21.9822 C   0  0  0  0  0  0  0  0  0  0  0  0
    5.0074    0.8661   20.4421 C   0  0  0  0  0  0  0  0  0  0  0  0
    7.1915   -0.1462   20.2371 C   0  0  0  0  0  0  0  0  0  0  0  0
    4.9323    0.9852   19.0544 C   0  0  0  0  0  0  0  0  0  0  0  0
    7.1163   -0.0272   18.8493 C   0  0  0  0  0  0  0  0  0  0  0  0
    6.1370    0.3004   21.0335 C   0  0  0  0  0  0  0  0  0  0  0  0
   11.6286    0.3273   22.9288 C   0  0  0  0  0  0  0  0  0  0  0  0
    5.9867    0.5385   18.2580 C   0  0  0  0  0  0  0  0  0  0  0  0
    9.2979    1.0939   23.4222 C   0  0  0  0  0  0  0  0  0  0  0  0
    6.0488    2.6522   22.8724 C   0  0  0  0  0  0  0  0  0  0  0  0
   12.0622    5.6829   24.0017 C   0  0  0  0  0  0  0  0  0  0  0  0
    4.1148    3.9885   23.7043 C   0  0  0  0  0  0  0  0  0  0  0  0
    6.2182    0.1710   22.5349 C   0  0  0  0  0  0  0  0  0  0  0  0
   11.2049    2.7860   23.2722 C   0  0  0  0  0  0  0  0  0  0  0  0
   10.6259    1.4575   22.7490 C   0  0  0  0  0  0  0  0  0  0  0  0
    6.8501    1.3979   23.2024 C   0  0  0  0  0  0  0  0  0  0  0  0
    5.0502    2.8915   23.8062 N   0  0  0  0  0  0  0  0  0  0  0  0
    8.2014    1.6254   22.7558 N   0  0  0  0  0  0  0  0  0  0  0  0
   10.5018    3.9317   22.6988 N   0  0  0  0  0  0  0  0  0  0  0  0
    9.2292    0.3955   24.4316 O   0  0  0  0  0  0  0  0  0  0  0  0
    6.2522    3.3311   21.8681 O   0  0  0  0  0  0  0  0  0  0  0  0
    9.6554    5.0995   24.8485 O   0  0  0  0  0  0  0  0  0  0  0  0
    9.9146    6.4417   22.7301 O   0  0  0  0  0  0  0  0  0  0  0  0
    5.9126    0.6536   16.9038 O   0  0  0  0  0  0  0  0  0  0  0  0
   10.3553    5.3758   23.6093 S   0  0  0  0  0  0  0  0  0  0  0  0
    5.7058    7.7166   25.8000 Br  0  0  0  0  0  0  0  0  0  0  0  0
  1  2  3  0
  1 18  1  0
  2 32  1  0
  3  4  2  0
  3  5  1  0
  4  6  1  0
  5  7  2  0
  6 13  2  0
  7 13  1  0
  8 10  2  0
  8 12  1  0
  9 11  1  0
  9 12  2  0
 10 14  1  0
 11 14  2  0
 12 19  1  0
 13 21  1  0
 14 30  1  0
 15 21  1  0
 15 24  1  0
 15 26  2  0
 16 22  1  0
 16 23  1  0
 16 27  2  0
 17 31  1  0
 18 23  1  0
 19 22  1  0
 20 21  1  0
 20 25  1  0
 22 24  1  0
 25 31  1  0
 28 31  2  0
 29 31  2  0
M  END
