MAK-UNK-8fdbca50-18
     RDKit          3D

 40 43  0  0  1  0  0  0  0  0999 V2000
    6.6137   -5.7880   23.6655 C   0  0  0  0  0  0  0  0  0  0  0  0
    6.3559   -5.4910   25.0037 C   0  0  0  0  0  0  0  0  0  0  0  0
    6.0784   -0.4957   17.9546 C   0  0  0  0  0  0  0  0  0  0  0  0
    7.4199   -4.9404   22.9057 C   0  0  0  0  0  0  0  0  0  0  0  0
    6.9042   -4.3462   25.5822 C   0  0  0  0  0  0  0  0  0  0  0  0
    6.4411   -0.3910   19.2928 C   0  0  0  0  0  0  0  0  0  0  0  0
   10.1682   -2.9630   22.5135 C   0  0  0  0  0  0  0  0  0  0  0  0
    5.5582   -1.7027   17.5161 C   0  0  0  0  0  0  0  0  0  0  0  0
    5.7456   -2.6440   19.6035 C   0  0  0  0  0  0  0  0  0  0  0  0
    9.3541   -1.2297   21.3291 C   0  0  0  0  0  0  0  0  0  0  0  0
    7.9681   -3.7956   23.4841 C   0  0  0  0  0  0  0  0  0  0  0  0
   10.5168   -1.8942   21.6514 C   0  0  0  0  0  0  0  0  0  0  0  0
    7.7103   -3.4985   24.8224 C   0  0  0  0  0  0  0  0  0  0  0  0
    6.2748   -1.4811   20.1397 C   0  0  0  0  0  0  0  0  0  0  0  0
    8.8030   -2.9191   22.6917 C   0  0  0  0  0  0  0  0  0  0  0  0
   12.0657    0.6679   22.2863 C   0  0  0  0  0  0  0  0  0  0  0  0
   10.7130    4.5294   25.3389 C   0  0  0  0  0  0  0  0  0  0  0  0
   12.6744    3.0303   22.7762 C   0  0  0  0  0  0  0  0  0  0  0  0
   12.3405    1.3697   24.6720 C   0  0  0  0  0  0  0  0  0  0  0  0
   11.3090    3.6260   23.1142 C   0  0  0  0  0  0  0  0  0  0  0  0
   10.9922    2.0301   24.9634 C   0  0  0  0  0  0  0  0  0  0  0  0
   12.8076    1.5722   23.2270 C   0  0  0  0  0  0  0  0  0  0  0  0
   14.8510   -1.4008   21.5771 C   0  0  0  0  0  0  0  0  0  0  0  0
   13.6003   -2.2348   23.5985 C   0  0  0  0  0  0  0  0  0  0  0  0
   11.3849   -1.9573   18.7175 C   0  0  0  0  0  0  0  0  0  0  0  0
   10.4004    4.2403   26.7855 C   0  0  0  0  0  0  0  0  0  0  0  0
   11.9153   -1.5439   21.1700 C   0  0  0  0  0  0  0  0  0  0  0  0
   13.8710   -1.0473   22.6864 C   0  0  0  0  0  0  0  0  0  0  0  0
    5.3818   -2.7834   18.3089 N   0  0  0  0  0  0  0  0  0  0  0  0
    8.3187   -1.8617   21.9669 N   0  0  0  0  0  0  0  0  0  0  0  0
   10.9935    3.4301   24.5286 N   0  0  0  0  0  0  0  0  0  0  0  0
   12.6058   -0.6101   22.0880 N   0  0  0  0  0  0  0  0  0  0  0  0
   11.9856   -1.0519   19.7375 N   0  0  0  0  0  0  0  0  0  0  0  0
   11.0380    1.0801   21.7422 O   0  0  0  0  0  0  0  0  0  0  0  0
   10.7095    5.6981   24.9435 O   0  0  0  0  0  0  0  0  0  0  0  0
    6.7097    0.0202   22.2562 O   0  0  0  0  0  0  0  0  0  0  0  0
    5.8967   -2.3729   22.5479 O   0  0  0  0  0  0  0  0  0  0  0  0
    8.2301   -2.4019   25.3933 F   0  0  0  0  0  0  0  0  0  0  0  0
    6.7260   -1.3855   21.8528 S   0  0  0  0  0  0  0  0  0  0  0  0
   10.1271    5.7957   27.5624 Cl  0  0  0  0  0  0  0  0  0  0  0  0
  1  2  2  0
  1  4  1  0
  2  5  1  0
  3  6  2  0
  3  8  1  0
  4 11  2  0
  5 13  2  0
  6 14  1  0
  7 12  1  0
  7 15  2  0
  8 29  2  0
  9 14  2  0
  9 29  1  0
 10 12  2  0
 10 30  1  0
 11 13  1  0
 11 15  1  0
 12 27  1  0
 13 38  1  0
 14 39  1  0
 15 30  1  0
 16 22  1  0
 16 32  1  0
 16 34  2  0
 17 26  1  0
 17 31  1  0
 17 35  2  0
 18 20  1  0
 18 22  1  0
 19 21  1  0
 19 22  1  0
 20 31  1  0
 21 31  1  0
 23 28  1  0
 24 28  1  0
 25 33  1  0
 26 40  1  0
 27 32  1  0
 27 33  1  0
 28 32  1  0
 30 39  1  0
 36 39  2  0
 37 39  2  0
M  CHG  1  33   1
M  END
