MAK-UNK-f2409524-23
     RDKit          3D

 25 27  0  0  1  0  0  0  0  0999 V2000
    5.8807    1.1726   19.0900 C   0  0  0  0  0  0  0  0  0  0  0  0
    6.6664    0.8086   18.0084 C   0  0  0  0  0  0  0  0  0  0  0  0
    7.5504   -0.9849   19.1398 C   0  0  0  0  0  0  0  0  0  0  0  0
    9.0531    1.1785   22.4356 C   0  0  0  0  0  0  0  0  0  0  0  0
    5.9578    0.3962   20.2409 C   0  0  0  0  0  0  0  0  0  0  0  0
    6.8062   -0.7049   20.2745 C   0  0  0  0  0  0  0  0  0  0  0  0
   10.0785    1.3427   21.5386 C   0  0  0  0  0  0  0  0  0  0  0  0
    7.7238   -2.6468   21.5827 C   0  0  0  0  0  0  0  0  0  0  0  0
   13.4602   -1.3167   22.3669 C   0  0  0  0  0  0  0  0  0  0  0  0
   12.6056   -1.5846   21.1318 C   0  0  0  0  0  0  0  0  0  0  0  0
   13.6269    0.1782   22.6224 C   0  0  0  0  0  0  0  0  0  0  0  0
   11.2513   -0.8836   21.2200 C   0  0  0  0  0  0  0  0  0  0  0  0
   12.2775    0.8879   22.7180 C   0  0  0  0  0  0  0  0  0  0  0  0
   11.4107    0.6270   21.4725 C   0  0  0  0  0  0  0  0  0  0  0  0
    7.5556   -3.2431   22.9577 C   0  0  0  0  0  0  0  0  0  0  0  0
    4.8873    1.3597   23.8592 C   0  0  0  0  0  0  0  0  0  0  0  0
    5.1132    0.7700   21.4348 C   0  0  0  0  0  0  0  0  0  0  0  0
    6.8217    2.3276   22.5952 C   0  0  0  0  0  0  0  0  0  0  0  0
    5.8948    1.0954   22.7305 C   0  0  0  0  0  0  0  0  0  0  0  0
    7.5023   -0.2539   18.0036 N   0  0  0  0  0  0  0  0  0  0  0  0
    9.7414    2.3035   20.6262 N   0  0  0  0  0  0  0  0  0  0  0  0
    8.5268    2.7475   20.9308 N   0  0  0  0  0  0  0  0  0  0  0  0
    8.1160    2.0718   22.0161 N   0  0  0  0  0  0  0  0  0  0  0  0
    6.9178   -1.5139   21.4050 N   0  0  0  0  0  0  0  0  0  0  0  0
    8.4957   -3.1472   20.7711 O   0  0  0  0  0  0  0  0  0  0  0  0
  1  2  2  0
  1  5  1  0
  2 20  1  0
  3  6  1  0
  3 20  2  0
  4  7  2  0
  4 23  1  0
  5  6  2  0
  5 17  1  0
  6 24  1  0
  7 14  1  0
  7 21  1  0
  8 15  1  0
  8 24  1  0
  8 25  2  0
  9 10  1  0
  9 11  1  0
 10 12  1  0
 11 13  1  0
 12 14  1  0
 13 14  1  0
 16 19  1  0
 17 19  1  0
 18 19  1  0
 18 23  1  0
 21 22  2  0
 22 23  1  0
M  END
