MAK-UNK-c44f4be0-5
     RDKit          3D

 32 33  0  0  1  0  0  0  0  0999 V2000
    3.3596   -4.4487   23.2929 C   0  0  0  0  0  0  0  0  0  0  0  0
    3.2485   -5.4743   23.9069 C   0  0  0  0  0  0  0  0  0  0  0  0
   13.7982   -2.0755   25.3757 C   0  0  0  0  0  0  0  0  0  0  0  0
   12.7856   -1.9096   26.3205 C   0  0  0  0  0  0  0  0  0  0  0  0
   13.6899   -1.4704   24.1236 C   0  0  0  0  0  0  0  0  0  0  0  0
   11.6645   -1.1387   26.0132 C   0  0  0  0  0  0  0  0  0  0  0  0
   12.5688   -0.6995   23.8163 C   0  0  0  0  0  0  0  0  0  0  0  0
    7.0608   -4.8488   24.2740 C   0  0  0  0  0  0  0  0  0  0  0  0
    7.8999   -5.5954   22.1350 C   0  0  0  0  0  0  0  0  0  0  0  0
    6.8786   -6.1751   24.6655 C   0  0  0  0  0  0  0  0  0  0  0  0
    7.7178   -6.9217   22.5265 C   0  0  0  0  0  0  0  0  0  0  0  0
   11.5561   -0.5336   24.7610 C   0  0  0  0  0  0  0  0  0  0  0  0
    7.5714   -4.5589   23.0087 C   0  0  0  0  0  0  0  0  0  0  0  0
    7.2072   -7.2116   23.7918 C   0  0  0  0  0  0  0  0  0  0  0  0
    6.8143   -0.6397   19.9537 C   0  0  0  0  0  0  0  0  0  0  0  0
    5.6167   -3.2622   21.2751 C   0  0  0  0  0  0  0  0  0  0  0  0
    6.6649    0.8411   20.0680 C   0  0  0  0  0  0  0  0  0  0  0  0
    3.4900   -3.1992   22.5444 C   0  0  0  0  0  0  0  0  0  0  0  0
   10.3434    0.3004   24.4278 C   0  0  0  0  0  0  0  0  0  0  0  0
    9.2148   -0.5140   23.8002 C   0  0  0  0  0  0  0  0  0  0  0  0
    7.7697   -3.1195   22.5839 C   0  0  0  0  0  0  0  0  0  0  0  0
    7.0445   -2.7252   21.2880 C   0  0  0  0  0  0  0  0  0  0  0  0
    4.8772   -2.8405   22.3696 N   0  0  0  0  0  0  0  0  0  0  0  0
    6.8986   -1.2937   21.1690 N   0  0  0  0  0  0  0  0  0  0  0  0
    9.6270   -1.1858   22.5546 N   0  0  0  0  0  0  0  0  0  0  0  0
    6.8498   -1.1595   18.8445 O   0  0  0  0  0  0  0  0  0  0  0  0
    5.1804   -3.9657   20.3652 O   0  0  0  0  0  0  0  0  0  0  0  0
   10.1444   -3.4853   23.6218 O   0  0  0  0  0  0  0  0  0  0  0  0
    9.9206   -3.2926   21.1180 O   0  0  0  0  0  0  0  0  0  0  0  0
    7.0306   -8.5058   24.1745 O   0  0  0  0  0  0  0  0  0  0  0  0
    9.5280   -2.8871   22.4539 S   0  0  0  0  0  0  0  0  0  0  0  0
    3.0729   -7.0978   24.8786 Br  0  0  0  0  0  0  0  0  0  0  0  0
  1  2  3  0
  1 18  1  0
  2 32  1  0
  3  4  2  0
  3  5  1  0
  4  6  1  0
  5  7  2  0
  6 12  2  0
  7 12  1  0
  8 10  2  0
  8 13  1  0
  9 11  1  0
  9 13  2  0
 10 14  1  0
 11 14  2  0
 12 19  1  0
 13 21  1  0
 14 30  1  0
 15 17  1  0
 15 24  1  0
 15 26  2  0
 16 22  1  0
 16 23  1  0
 16 27  2  0
 18 23  1  0
 19 20  1  0
 20 25  1  0
 21 22  1  0
 21 31  1  0
 22 24  1  0
 25 31  1  0
 28 31  2  0
 29 31  2  0
M  END
