MAK-UNK-e4a48a85-15
     RDKit          3D

 45 51  0  0  0  0  0  0  0  0999 V2000
   -3.7282   -5.4148   15.0469 C   0  0  0  0  0  0  0  0  0  0  0  0
   -3.8015   -6.6204   14.3492 C   0  0  0  0  0  0  0  0  0  0  0  0
   -3.6451   -5.4187   16.4393 C   0  0  0  0  0  0  0  0  0  0  0  0
    6.7942    2.2847   31.4924 C   0  0  0  0  0  0  0  0  0  0  0  0
   -3.7087   -7.8339   16.4364 C   0  0  0  0  0  0  0  0  0  0  0  0
   -0.2705   -6.7382   22.9979 C   0  0  0  0  0  0  0  0  0  0  0  0
    1.8726   -6.9125   21.8962 C   0  0  0  0  0  0  0  0  0  0  0  0
    3.9463   -5.9023   28.4607 C   0  0  0  0  0  0  0  0  0  0  0  0
    7.7239    3.2253   31.1070 C   0  0  0  0  0  0  0  0  0  0  0  0
    8.6911    1.5297   32.6035 C   0  0  0  0  0  0  0  0  0  0  0  0
    3.4403   -5.2184   27.3697 C   0  0  0  0  0  0  0  0  0  0  0  0
    1.7093   -5.8489   24.0594 C   0  0  0  0  0  0  0  0  0  0  0  0
   -3.7918   -7.8299   15.0439 C   0  0  0  0  0  0  0  0  0  0  0  0
   -3.6354   -6.6282   17.1340 C   0  0  0  0  0  0  0  0  0  0  0  0
    7.3544    1.3025   32.3595 C   0  0  0  0  0  0  0  0  0  0  0  0
    0.4983   -7.1508   21.9097 C   0  0  0  0  0  0  0  0  0  0  0  0
    0.3350   -6.0872   24.0728 C   0  0  0  0  0  0  0  0  0  0  0  0
    2.4781   -6.2615   22.9711 C   0  0  0  0  0  0  0  0  0  0  0  0
    3.5497   -3.8385   27.4147 C   0  0  0  0  0  0  0  0  0  0  0  0
    4.5678   -3.9531   29.4508 C   0  0  0  0  0  0  0  0  0  0  0  0
    2.8202   -5.8743   26.2279 C   0  0  0  0  0  0  0  0  0  0  0  0
    2.3486   -5.1575   25.1933 C   0  0  0  0  0  0  0  0  0  0  0  0
    2.4604   -3.6579   25.2144 C   0  0  0  0  0  0  0  0  0  0  0  0
    6.4277   -2.4547   30.1457 C   0  0  0  0  0  0  0  0  0  0  0  0
    4.1730   -2.3125   31.2783 C   0  0  0  0  0  0  0  0  0  0  0  0
   -1.3008   -8.6287   20.9969 C   0  0  0  0  0  0  0  0  0  0  0  0
    0.1263   -7.3415   19.4621 C   0  0  0  0  0  0  0  0  0  0  0  0
    7.0413   -1.6561   31.2886 C   0  0  0  0  0  0  0  0  0  0  0  0
    4.8039   -1.5153   32.4127 C   0  0  0  0  0  0  0  0  0  0  0  0
   -2.5331   -7.8393   20.5714 C   0  0  0  0  0  0  0  0  0  0  0  0
   -1.0773   -6.5234   18.9986 C   0  0  0  0  0  0  0  0  0  0  0  0
    5.1944   -3.2465   30.6094 C   0  0  0  0  0  0  0  0  0  0  0  0
   -3.8687   -9.1186   14.2971 C   0  0  0  0  0  0  0  0  0  0  0  0
   -3.5467   -6.6323   18.6317 C   0  0  0  0  0  0  0  0  0  0  0  0
    6.5780    0.1559   32.9369 C   0  0  0  0  0  0  0  0  0  0  0  0
    4.5188   -5.2964   29.5214 N   0  0  0  0  0  0  0  0  0  0  0  0
    4.1122   -3.1768   28.4488 N   0  0  0  0  0  0  0  0  0  0  0  0
    3.0519   -3.0967   26.3296 N   0  0  0  0  0  0  0  0  0  0  0  0
   -0.1058   -7.7973   20.8365 N   0  0  0  0  0  0  0  0  0  0  0  0
    5.9935   -0.7484   31.8867 N   0  0  0  0  0  0  0  0  0  0  0  0
   -2.3349   -7.3559   19.1479 N   0  0  0  0  0  0  0  0  0  0  0  0
    2.0484   -2.9806   24.2734 O   0  0  0  0  0  0  0  0  0  0  0  0
    9.2651    2.9225   31.7892 S   0  0  0  0  0  0  0  0  0  0  0  0
   -0.6740   -5.6003   25.3922 Cl  0  0  0  0  0  0  0  0  0  0  0  0
    4.1871   -5.9973   22.8945 Cl  0  0  0  0  0  0  0  0  0  0  0  0
  1  2  2  0
  1  3  1  0
  2 13  1  0
  3 14  2  0
  4  9  2  0
  4 15  1  0
  5 13  2  0
  5 14  1  0
  6 16  2  0
  6 17  1  0
  7 16  1  0
  7 18  2  0
  8 11  2  0
  8 36  1  0
  9 43  1  0
 10 15  2  0
 10 43  1  0
 11 19  1  0
 11 21  1  0
 12 17  2  0
 12 18  1  0
 12 22  1  0
 13 33  1  0
 14 34  1  0
 15 35  1  0
 16 39  1  0
 17 44  1  0
 18 45  1  0
 19 37  2  0
 19 38  1  0
 20 32  1  0
 20 36  2  0
 20 37  1  0
 21 22  2  0
 22 23  1  0
 23 38  1  0
 23 42  2  0
 24 28  1  0
 24 32  1  0
 25 29  1  0
 25 32  1  0
 26 30  1  0
 26 39  1  0
 27 31  1  0
 27 39  1  0
 28 40  1  0
 29 40  1  0
 30 41  1  0
 31 41  1  0
 34 41  1  0
 35 40  1  0
M  CHG  2  40   1  41   1
M  END
