MAK-UNK-e4a48a85-11
     RDKit          3D

 20 21  0  0  1  0  0  0  0  0999 V2000
    5.8984    0.9747   17.8142 C   0  0  0  0  0  0  0  0  0  0  0  0
    4.8916    1.6721   18.4817 C   0  0  0  0  0  0  0  0  0  0  0  0
    6.6744    0.0416   18.5019 C   0  0  0  0  0  0  0  0  0  0  0  0
    5.4369    0.5036   20.5248 C   0  0  0  0  0  0  0  0  0  0  0  0
    4.6609    1.4366   19.8370 C   0  0  0  0  0  0  0  0  0  0  0  0
    6.4436   -0.1939   19.8572 C   0  0  0  0  0  0  0  0  0  0  0  0
   11.8522    0.7130   22.9757 C   0  0  0  0  0  0  0  0  0  0  0  0
   10.4793    2.1261   24.5201 C   0  0  0  0  0  0  0  0  0  0  0  0
   10.9867   -0.4850   23.3643 C   0  0  0  0  0  0  0  0  0  0  0  0
    9.6562    0.8847   24.8618 C   0  0  0  0  0  0  0  0  0  0  0  0
   11.8954    1.7519   24.0919 C   0  0  0  0  0  0  0  0  0  0  0  0
    3.5833    2.1816   20.5497 C   0  0  0  0  0  0  0  0  0  0  0  0
    7.2788   -1.1970   20.5971 C   0  0  0  0  0  0  0  0  0  0  0  0
    8.7990   -1.2185   24.0577 C   0  0  0  0  0  0  0  0  0  0  0  0
    7.3290   -3.0764   23.0956 C   0  0  0  0  0  0  0  0  0  0  0  0
    8.2300   -1.8796   22.8034 C   0  0  0  0  0  0  0  0  0  0  0  0
    9.6295   -0.0585   23.7346 N   0  0  0  0  0  0  0  0  0  0  0  0
    7.4430   -0.8693   22.0355 N   0  0  0  0  0  0  0  0  0  0  0  0
   12.5830    2.9053   23.6244 O   0  0  0  0  0  0  0  0  0  0  0  0
    6.2229   -2.6532   23.8848 O   0  0  0  0  0  0  0  0  0  0  0  0
  1  2  2  0
  1  3  1  0
  2  5  1  0
  3  6  2  0
  4  5  2  0
  4  6  1  0
  5 12  1  0
  6 13  1  0
  7  9  1  0
  7 11  1  0
  8 10  1  0
  8 11  1  0
  9 17  1  0
 10 17  1  0
 11 19  1  0
 13 18  1  0
 14 16  1  0
 14 17  1  0
 15 16  1  0
 15 20  1  0
 16 18  1  0
M  CHG  1  18   1
M  END
