MAK-UNK-af83ef51-15
     RDKit          3D

 31 32  0  0  1  0  0  0  0  0999 V2000
    9.6208   -3.4677   25.0809 C   0  0  0  0  0  0  0  0  0  0  0  0
    9.2541   -2.6243   26.1296 C   0  0  0  0  0  0  0  0  0  0  0  0
    9.6952   -2.9709   23.7797 C   0  0  0  0  0  0  0  0  0  0  0  0
    8.9617   -1.2840   25.8770 C   0  0  0  0  0  0  0  0  0  0  0  0
    9.4028   -1.6306   23.5271 C   0  0  0  0  0  0  0  0  0  0  0  0
    9.0360   -0.7872   24.5757 C   0  0  0  0  0  0  0  0  0  0  0  0
    5.5707   -1.2159   18.2050 C   0  0  0  0  0  0  0  0  0  0  0  0
   11.9511    0.8056   24.7520 C   0  0  0  0  0  0  0  0  0  0  0  0
    6.1256   -1.9440   20.5035 C   0  0  0  0  0  0  0  0  0  0  0  0
    6.8032    0.3223   19.8121 C   0  0  0  0  0  0  0  0  0  0  0  0
    7.5208   -2.2182   21.0453 C   0  0  0  0  0  0  0  0  0  0  0  0
    8.2092    0.0827   20.3456 C   0  0  0  0  0  0  0  0  0  0  0  0
    8.5718   -0.4018   27.0178 C   0  0  0  0  0  0  0  0  0  0  0  0
    7.7053    3.1093   25.9007 C   0  0  0  0  0  0  0  0  0  0  0  0
    8.7224    0.6500   24.3049 C   0  0  0  0  0  0  0  0  0  0  0  0
    9.4907   -1.1213   22.1186 C   0  0  0  0  0  0  0  0  0  0  0  0
    5.6568   -0.1325   17.1598 C   0  0  0  0  0  0  0  0  0  0  0  0
   13.1883    1.0644   23.9282 C   0  0  0  0  0  0  0  0  0  0  0  0
    9.6320    1.6533   25.0520 C   0  0  0  0  0  0  0  0  0  0  0  0
    9.0281    3.0700   25.1415 C   0  0  0  0  0  0  0  0  0  0  0  0
    6.1630   -0.9431   19.4372 N   0  0  0  0  0  0  0  0  0  0  0  0
   14.6909    0.6641   21.7757 N   0  0  0  0  0  0  0  0  0  0  0  0
   10.9336    1.6836   24.4160 N   0  0  0  0  0  0  0  0  0  0  0  0
    8.1451   -0.9120   21.4830 N   0  0  0  0  0  0  0  0  0  0  0  0
    4.9963   -2.2730   17.9317 O   0  0  0  0  0  0  0  0  0  0  0  0
   11.8741   -0.0761   25.6028 O   0  0  0  0  0  0  0  0  0  0  0  0
   13.3073   -1.2690   22.7583 O   0  0  0  0  0  0  0  0  0  0  0  0
   12.1262    0.6294   21.5807 O   0  0  0  0  0  0  0  0  0  0  0  0
    9.9543    3.9518   25.7718 O   0  0  0  0  0  0  0  0  0  0  0  0
   13.2034    0.1434   22.4281 S   0  0  0  0  0  0  0  0  0  0  0  0
    4.8677   -0.7604   15.7172 Cl  0  0  0  0  0  0  0  0  0  0  0  0
  1  2  2  0
  1  3  1  0
  2  4  1  0
  3  5  2  0
  4  6  2  0
  4 13  1  0
  5  6  1  0
  5 16  1  0
  6 15  1  0
  7 17  1  0
  7 21  1  0
  7 25  2  0
  8 18  1  0
  8 23  1  0
  8 26  2  0
  9 11  1  0
  9 21  1  0
 10 12  1  0
 10 21  1  0
 11 24  1  0
 12 24  1  0
 14 20  1  0
 15 19  1  0
 16 24  1  0
 17 31  1  0
 18 30  1  0
 19 20  1  0
 19 23  1  0
 20 29  1  0
 22 30  1  0
 27 30  2  0
 28 30  2  0
M  CHG  1  24   1
M  END
