MAK-UNK-acefcb18-22
     RDKit          3D

 24 26  0  0  0  0  0  0  0  0999 V2000
    8.1795   -3.4467   25.8445 C   0  0  0  0  0  0  0  0  0  0  0  0
    9.5796   -5.3650   25.4007 C   0  0  0  0  0  0  0  0  0  0  0  0
    8.8838   -2.7120   24.8907 C   0  0  0  0  0  0  0  0  0  0  0  0
   10.2839   -4.6303   24.4468 C   0  0  0  0  0  0  0  0  0  0  0  0
   13.3732    1.5237   22.4778 C   0  0  0  0  0  0  0  0  0  0  0  0
    8.5275   -4.7732   26.0996 C   0  0  0  0  0  0  0  0  0  0  0  0
    9.9359   -3.3038   24.1918 C   0  0  0  0  0  0  0  0  0  0  0  0
   12.2947    0.8061   22.9388 C   0  0  0  0  0  0  0  0  0  0  0  0
   12.0926    2.9513   23.4012 C   0  0  0  0  0  0  0  0  0  0  0  0
   12.0221   -0.5905   22.8572 C   0  0  0  0  0  0  0  0  0  0  0  0
    8.9759    6.6314   22.3573 C   0  0  0  0  0  0  0  0  0  0  0  0
    7.9724    4.3248   22.3895 C   0  0  0  0  0  0  0  0  0  0  0  0
   10.0668    6.1673   23.3097 C   0  0  0  0  0  0  0  0  0  0  0  0
    9.0657    3.8658   23.3417 C   0  0  0  0  0  0  0  0  0  0  0  0
    7.6950    5.8197   22.5260 C   0  0  0  0  0  0  0  0  0  0  0  0
    7.7742   -5.5591   27.1189 C   0  0  0  0  0  0  0  0  0  0  0  0
   11.4627    4.2001   23.9440 C   0  0  0  0  0  0  0  0  0  0  0  0
   10.7227   -1.1832   23.4569 C   0  0  0  0  0  0  0  0  0  0  0  0
   13.2414    2.8584   22.7691 N   0  0  0  0  0  0  0  0  0  0  0  0
   11.4832    1.7340   23.5283 N   0  0  0  0  0  0  0  0  0  0  0  0
   10.3108    4.6897   23.1099 N   0  0  0  0  0  0  0  0  0  0  0  0
   12.8164   -1.3998   22.3013 O   0  0  0  0  0  0  0  0  0  0  0  0
    6.7610    6.2282   21.5331 O   0  0  0  0  0  0  0  0  0  0  0  0
   10.6283   -2.5807   23.2519 O   0  0  0  0  0  0  0  0  0  0  0  0
  1  3  2  0
  1  6  1  0
  2  4  1  0
  2  6  2  0
  3  7  1  0
  4  7  2  0
  5  8  2  0
  5 19  1  0
  6 16  1  0
  7 24  1  0
  8 10  1  0
  8 20  1  0
  9 17  1  0
  9 19  2  0
  9 20  1  0
 10 18  1  0
 10 22  2  0
 11 13  1  0
 11 15  1  0
 12 14  1  0
 12 15  1  0
 13 21  1  0
 14 21  1  0
 15 23  1  0
 17 21  1  0
 18 24  1  0
M  CHG  1  21   1
M  END
