MAK-UNK-9955b1f3-15
     RDKit          3D

 15 16  0  0  1  0  0  0  0  0999 V2000
   12.5199    5.4511   23.6585 C   0  0  0  0  0  0  0  0  0  0  0  0
   13.1349    4.4077   23.0691 C   0  0  0  0  0  0  0  0  0  0  0  0
   10.9492    3.8247   23.4859 C   0  0  0  0  0  0  0  0  0  0  0  0
   13.0699   -1.0007   22.1394 C   0  0  0  0  0  0  0  0  0  0  0  0
   13.9888    0.1044   22.6434 C   0  0  0  0  0  0  0  0  0  0  0  0
   12.6034    0.8953   24.6006 C   0  0  0  0  0  0  0  0  0  0  0  0
   12.1182   -1.5649   23.1865 C   0  0  0  0  0  0  0  0  0  0  0  0
   11.2200    0.2801   24.4408 C   0  0  0  0  0  0  0  0  0  0  0  0
   12.4425    2.0940   22.3666 C   0  0  0  0  0  0  0  0  0  0  0  0
   11.2121    5.1444   23.9244 N   0  0  0  0  0  0  0  0  0  0  0  0
   12.1945    3.3777   22.9440 N   0  0  0  0  0  0  0  0  0  0  0  0
   14.4329    4.3623   22.6672 N   0  0  0  0  0  0  0  0  0  0  0  0
   13.2687    1.2551   23.2996 N   0  0  0  0  0  0  0  0  0  0  0  0
    9.8932    3.2156   23.5585 O   0  0  0  0  0  0  0  0  0  0  0  0
   11.0469   -0.6575   23.3898 O   0  0  0  0  0  0  0  0  0  0  0  0
  1  2  2  0
  1 10  1  0
  2 11  1  0
  2 12  1  0
  3 10  1  0
  3 11  1  0
  3 14  2  0
  4  5  1  0
  4  7  1  0
  5 13  1  0
  6  8  1  0
  6 13  1  0
  7 15  1  0
  8 15  1  0
  9 11  1  0
  9 13  1  0
M  CHG  1  13   1
M  END
