MAK-UNK-0d6072ac-38
     RDKit          3D

 19 21  0  0  1  0  0  0  0  0999 V2000
    6.3099    0.9392   20.4414 C   0  0  0  0  0  0  0  0  0  0  0  0
   10.6950   -1.0248   21.6926 C   0  0  0  0  0  0  0  0  0  0  0  0
    9.3947   -0.3779   23.5963 C   0  0  0  0  0  0  0  0  0  0  0  0
    6.4801    0.7937   18.0585 C   0  0  0  0  0  0  0  0  0  0  0  0
    7.5874    0.3584   20.5020 C   0  0  0  0  0  0  0  0  0  0  0  0
   10.5588   -0.9234   23.0734 C   0  0  0  0  0  0  0  0  0  0  0  0
    8.4871   -0.0225   21.5332 C   0  0  0  0  0  0  0  0  0  0  0  0
    9.6248   -0.5584   20.9305 C   0  0  0  0  0  0  0  0  0  0  0  0
    5.7523    1.1575   19.1832 C   0  0  0  0  0  0  0  0  0  0  0  0
    8.2047    0.0428   19.2951 C   0  0  0  0  0  0  0  0  0  0  0  0
   12.2338   -0.1828   24.7447 C   0  0  0  0  0  0  0  0  0  0  0  0
   11.2019   -2.5417   24.8919 C   0  0  0  0  0  0  0  0  0  0  0  0
   11.6477   -1.3922   23.9746 C   0  0  0  0  0  0  0  0  0  0  0  0
    8.3438    0.0807   22.8800 N   0  0  0  0  0  0  0  0  0  0  0  0
    7.7113    0.2327   18.0566 N   0  0  0  0  0  0  0  0  0  0  0  0
    9.4290   -0.5077   19.5718 N   0  0  0  0  0  0  0  0  0  0  0  0
   11.4031    0.4128   25.4914 O   0  0  0  0  0  0  0  0  0  0  0  0
   13.4558    0.0719   24.5534 O   0  0  0  0  0  0  0  0  0  0  0  0
    4.1952    1.8646   19.0300 Cl  0  0  0  0  0  0  0  0  0  0  0  0
  1  5  2  0
  1  9  1  0
  2  6  2  0
  2  8  1  0
  3  6  1  0
  3 14  2  0
  4  9  2  0
  4 15  1  0
  5  7  1  0
  5 10  1  0
  6 13  1  0
  7  8  2  0
  7 14  1  0
  8 16  1  0
  9 19  1  0
 10 15  2  0
 10 16  1  0
 11 13  1  0
 11 17  1  0
 11 18  2  0
 12 13  1  0
M  CHG  1  17  -1
M  END
