MAK-UNK-a7992eb3-28
     RDKit          3D

 26 27  0  0  1  0  0  0  0  0999 V2000
    6.7737   -0.0804   21.9870 C   0  0  0  0  0  0  0  0  0  0  0  0
    6.6193   -1.2704   21.9472 C   0  0  0  0  0  0  0  0  0  0  0  0
   11.1566   -0.6977   24.6567 C   0  0  0  0  0  0  0  0  0  0  0  0
   10.5724   -1.1174   22.3502 C   0  0  0  0  0  0  0  0  0  0  0  0
   10.6803   -1.9609   25.0072 C   0  0  0  0  0  0  0  0  0  0  0  0
   10.0961   -2.3807   22.7008 C   0  0  0  0  0  0  0  0  0  0  0  0
   11.1026   -0.2759   23.3282 C   0  0  0  0  0  0  0  0  0  0  0  0
   10.1501   -2.8025   24.0293 C   0  0  0  0  0  0  0  0  0  0  0  0
   12.0449    4.1181   23.3887 C   0  0  0  0  0  0  0  0  0  0  0  0
    9.4025    1.8602   22.0563 C   0  0  0  0  0  0  0  0  0  0  0  0
    9.0338   -4.3550   26.7922 C   0  0  0  0  0  0  0  0  0  0  0  0
    7.7603   -5.3834   25.2870 C   0  0  0  0  0  0  0  0  0  0  0  0
    8.6106   -4.0894   25.3256 C   0  0  0  0  0  0  0  0  0  0  0  0
   12.4176    5.4585   22.8478 C   0  0  0  0  0  0  0  0  0  0  0  0
    6.9577    1.3696   22.0327 C   0  0  0  0  0  0  0  0  0  0  0  0
   11.6185    1.0907   22.9486 C   0  0  0  0  0  0  0  0  0  0  0  0
   10.5371    2.1747   23.0247 C   0  0  0  0  0  0  0  0  0  0  0  0
    8.1863    1.7171   22.7098 N   0  0  0  0  0  0  0  0  0  0  0  0
   11.0463    3.4773   22.6762 N   0  0  0  0  0  0  0  0  0  0  0  0
   12.6188    3.6864   24.3817 O   0  0  0  0  0  0  0  0  0  0  0  0
    9.5755    1.7113   20.8485 O   0  0  0  0  0  0  0  0  0  0  0  0
    6.4499   -4.5027   27.4369 O   0  0  0  0  0  0  0  0  0  0  0  0
    7.8806   -6.5969   27.6571 O   0  0  0  0  0  0  0  0  0  0  0  0
    9.6866   -4.0356   24.3714 O   0  0  0  0  0  0  0  0  0  0  0  0
    7.5765   -5.3222   27.0436 S   0  0  0  0  0  0  0  0  0  0  0  0
    6.3753   -3.1537   21.8842 Br  0  0  0  0  0  0  0  0  0  0  0  0
  1  2  3  0
  1 15  1  0
  2 26  1  0
  3  5  2  0
  3  7  1  0
  4  6  1  0
  4  7  2  0
  5  8  1  0
  6  8  2  0
  7 16  1  0
  8 24  1  0
  9 14  1  0
  9 19  1  0
  9 20  2  0
 10 17  1  0
 10 18  1  0
 10 21  2  0
 11 13  1  0
 11 25  1  0
 12 13  1  0
 12 25  1  0
 13 24  1  0
 15 18  1  0
 16 17  1  0
 17 19  1  0
 22 25  2  0
 23 25  2  0
M  END
