MAK-UNK-7264f48c-3
     RDKit          3D

 27 29  0  0  0  0  0  0  0  0999 V2000
    5.2172    1.0025   18.7021 C   0  0  0  0  0  0  0  0  0  0  0  0
   11.8285    5.6242   25.1410 C   0  0  0  0  0  0  0  0  0  0  0  0
    5.9555    0.8264   17.5429 C   0  0  0  0  0  0  0  0  0  0  0  0
    7.7370   -0.0442   18.7034 C   0  0  0  0  0  0  0  0  0  0  0  0
   10.8761    6.5718   25.4452 C   0  0  0  0  0  0  0  0  0  0  0  0
   11.1126    6.2456   23.0188 C   0  0  0  0  0  0  0  0  0  0  0  0
    5.7985    0.6255   19.9076 C   0  0  0  0  0  0  0  0  0  0  0  0
    7.0822    0.0914   19.9169 C   0  0  0  0  0  0  0  0  0  0  0  0
   11.9657    5.4353   23.7354 C   0  0  0  0  0  0  0  0  0  0  0  0
   10.7268   -1.0167   23.0807 C   0  0  0  0  0  0  0  0  0  0  0  0
    8.9885   -0.8518   21.2636 C   0  0  0  0  0  0  0  0  0  0  0  0
   10.3262    1.4301   23.6502 C   0  0  0  0  0  0  0  0  0  0  0  0
   12.5502    0.4125   23.9512 C   0  0  0  0  0  0  0  0  0  0  0  0
   10.9641    2.6188   22.9375 C   0  0  0  0  0  0  0  0  0  0  0  0
   13.1949    1.5953   23.2373 C   0  0  0  0  0  0  0  0  0  0  0  0
    5.0252    0.8048   21.1727 C   0  0  0  0  0  0  0  0  0  0  0  0
    9.2676   -1.1321   22.7189 C   0  0  0  0  0  0  0  0  0  0  0  0
    7.2049    0.3109   17.5124 N   0  0  0  0  0  0  0  0  0  0  0  0
   11.1645    0.2331   23.5155 N   0  0  0  0  0  0  0  0  0  0  0  0
   12.3565    2.8148   23.4433 N   0  0  0  0  0  0  0  0  0  0  0  0
    7.7165   -0.3075   21.1174 N   0  0  0  0  0  0  0  0  0  0  0  0
   11.4545   -2.0074   22.9768 O   0  0  0  0  0  0  0  0  0  0  0  0
    9.8066   -1.0897   20.3810 O   0  0  0  0  0  0  0  0  0  0  0  0
   13.0114    4.4533   21.5639 O   0  0  0  0  0  0  0  0  0  0  0  0
   14.3613    4.4137   23.6909 O   0  0  0  0  0  0  0  0  0  0  0  0
   10.1519    7.2291   24.0396 S   0  0  0  0  0  0  0  0  0  0  0  0
   13.0955    4.2958   22.9998 S   0  0  0  0  0  0  0  0  0  0  0  0
  1  3  2  0
  1  7  1  0
  2  5  2  0
  2  9  1  0
  3 18  1  0
  4  8  1  0
  4 18  2  0
  5 26  1  0
  6  9  2  0
  6 26  1  0
  7  8  2  0
  7 16  1  0
  8 21  1  0
  9 27  1  0
 10 17  1  0
 10 19  1  0
 10 22  2  0
 11 17  1  0
 11 21  1  0
 11 23  2  0
 12 14  1  0
 12 19  1  0
 13 15  1  0
 13 19  1  0
 14 20  1  0
 15 20  1  0
 20 27  1  0
 24 27  2  0
 25 27  2  0
M  END
