MAK-UNK-702fb7d3-20
     RDKit          3D

 43 48  0  0  1  0  0  0  0  0999 V2000
   14.2138   -1.5788   21.8630 C   0  0  0  0  0  0  0  0  0  0  0  0
    6.0085   -0.2389   19.7170 C   0  0  0  0  0  0  0  0  0  0  0  0
   14.6224   -0.4096   22.5044 C   0  0  0  0  0  0  0  0  0  0  0  0
   12.8664   -1.9398   21.8628 C   0  0  0  0  0  0  0  0  0  0  0  0
   12.0033    5.1904   23.5006 C   0  0  0  0  0  0  0  0  0  0  0  0
   12.2281    4.3576   22.4098 C   0  0  0  0  0  0  0  0  0  0  0  0
    7.0018    0.1765   18.8303 C   0  0  0  0  0  0  0  0  0  0  0  0
    5.2550   -5.7884   23.1652 C   0  0  0  0  0  0  0  0  0  0  0  0
    6.3418   -0.5798   21.0279 C   0  0  0  0  0  0  0  0  0  0  0  0
   13.6838    0.3985   23.1459 C   0  0  0  0  0  0  0  0  0  0  0  0
   11.9278   -1.1317   22.5043 C   0  0  0  0  0  0  0  0  0  0  0  0
   11.5425    4.6531   24.7006 C   0  0  0  0  0  0  0  0  0  0  0  0
   12.0086    2.9842   22.5222 C   0  0  0  0  0  0  0  0  0  0  0  0
    8.3286    0.2509   19.2544 C   0  0  0  0  0  0  0  0  0  0  0  0
    6.5182   -5.2075   23.1793 C   0  0  0  0  0  0  0  0  0  0  0  0
    8.0569   -0.0509   23.9255 C   0  0  0  0  0  0  0  0  0  0  0  0
    4.3592   -5.3691   22.1949 C   0  0  0  0  0  0  0  0  0  0  0  0
    5.8755   -3.8889   21.3072 C   0  0  0  0  0  0  0  0  0  0  0  0
    8.6186   -2.1413   24.5457 C   0  0  0  0  0  0  0  0  0  0  0  0
    7.6686   -0.5055   21.4520 C   0  0  0  0  0  0  0  0  0  0  0  0
   12.3364    0.0375   23.1459 C   0  0  0  0  0  0  0  0  0  0  0  0
   11.3058    3.2749   24.8234 C   0  0  0  0  0  0  0  0  0  0  0  0
   11.5758    2.4188   23.7347 C   0  0  0  0  0  0  0  0  0  0  0  0
    8.4422   -0.8610   25.0221 C   0  0  0  0  0  0  0  0  0  0  0  0
    8.6620   -0.0901   20.5653 C   0  0  0  0  0  0  0  0  0  0  0  0
    6.8423   -4.2387   22.2361 C   0  0  0  0  0  0  0  0  0  0  0  0
    8.0095   -0.8609   22.8124 C   0  0  0  0  0  0  0  0  0  0  0  0
    9.0682    1.0296   26.6202 C   0  0  0  0  0  0  0  0  0  0  0  0
   10.7865    2.7453   26.1382 C   0  0  0  0  0  0  0  0  0  0  0  0
   11.1712    0.4653   25.3117 C   0  0  0  0  0  0  0  0  0  0  0  0
   11.3118    0.9187   23.8458 C   0  0  0  0  0  0  0  0  0  0  0  0
    9.7493   -0.7338   28.6359 C   0  0  0  0  0  0  0  0  0  0  0  0
    8.6273   -0.4034   26.4596 C   0  0  0  0  0  0  0  0  0  0  0  0
    4.6378   -4.4310   21.2622 N   0  0  0  0  0  0  0  0  0  0  0  0
    8.3525   -2.1295   23.2013 N   0  0  0  0  0  0  0  0  0  0  0  0
   10.2839    1.3768   26.0340 N   0  0  0  0  0  0  0  0  0  0  0  0
    9.5161   -1.2297   27.2846 N   0  0  0  0  0  0  0  0  0  0  0  0
    8.3521    1.8156   27.2457 O   0  0  0  0  0  0  0  0  0  0  0  0
    9.3889   -4.3742   22.8835 O   0  0  0  0  0  0  0  0  0  0  0  0
    8.6713   -3.0311   20.8454 O   0  0  0  0  0  0  0  0  0  0  0  0
    9.9422   -0.0132   20.9576 F   0  0  0  0  0  0  0  0  0  0  0  0
    8.4436   -3.4750   22.2226 S   0  0  0  0  0  0  0  0  0  0  0  0
    7.0171   -0.4988   27.2623 Cl  0  0  0  0  0  0  0  0  0  0  0  0
  1  3  2  0
  1  4  1  0
  2  7  2  0
  2  9  1  0
  3 10  1  0
  4 11  2  0
  5  6  2  0
  5 12  1  0
  6 13  1  0
  7 14  1  0
  8 15  2  0
  8 17  1  0
  9 20  2  0
 10 21  2  0
 11 21  1  0
 12 22  2  0
 13 23  2  0
 14 25  2  0
 15 26  1  0
 16 24  1  0
 16 27  2  0
 17 34  2  0
 18 26  2  0
 18 34  1  0
 19 24  2  0
 19 35  1  0
 20 25  1  0
 20 27  1  0
 21 31  1  0
 22 23  1  0
 22 29  1  0
 23 31  1  0
 24 33  1  0
 25 41  1  0
 26 42  1  0
 27 35  1  0
 28 33  1  0
 28 36  1  0
 28 38  2  0
 29 36  1  0
 30 31  1  0
 30 36  1  0
 32 37  1  0
 33 37  1  0
 33 43  1  0
 35 42  1  0
 39 42  2  0
 40 42  2  0
M  END
