MAK-UNK-a7992eb3-11
     RDKit          3D

 32 34  0  0  1  0  0  0  0  0999 V2000
   12.9268   -0.2115   23.7568 C   0  0  0  0  0  0  0  0  0  0  0  0
   12.9991    0.8435   23.1886 C   0  0  0  0  0  0  0  0  0  0  0  0
    7.7253   -1.7432   22.3880 C   0  0  0  0  0  0  0  0  0  0  0  0
   10.0138   -1.7725   21.6142 C   0  0  0  0  0  0  0  0  0  0  0  0
    7.5322   -0.5077   21.7701 C   0  0  0  0  0  0  0  0  0  0  0  0
    9.8207   -0.5370   20.9963 C   0  0  0  0  0  0  0  0  0  0  0  0
    9.4441    6.7077   25.4400 C   0  0  0  0  0  0  0  0  0  0  0  0
   10.6406    6.9446   26.0803 C   0  0  0  0  0  0  0  0  0  0  0  0
   10.9210    6.7375   23.6455 C   0  0  0  0  0  0  0  0  0  0  0  0
    8.9662   -2.3756   22.3101 C   0  0  0  0  0  0  0  0  0  0  0  0
    9.6065    6.5876   24.0296 C   0  0  0  0  0  0  0  0  0  0  0  0
    8.5798    0.0954   21.0742 C   0  0  0  0  0  0  0  0  0  0  0  0
    8.2414   -4.9700   25.9167 C   0  0  0  0  0  0  0  0  0  0  0  0
   11.1718   -3.3470   24.4721 C   0  0  0  0  0  0  0  0  0  0  0  0
    7.8204    3.6369   20.4433 C   0  0  0  0  0  0  0  0  0  0  0  0
    9.0950    2.6249   22.3616 C   0  0  0  0  0  0  0  0  0  0  0  0
    7.5350    4.8697   21.2867 C   0  0  0  0  0  0  0  0  0  0  0  0
    8.8070    3.8602   23.2006 C   0  0  0  0  0  0  0  0  0  0  0  0
    8.0161    2.3941   21.3066 C   0  0  0  0  0  0  0  0  0  0  0  0
    8.1737   -6.2853   26.6193 C   0  0  0  0  0  0  0  0  0  0  0  0
   12.8435   -1.4968   24.4495 C   0  0  0  0  0  0  0  0  0  0  0  0
    9.1727   -3.6968   22.9702 C   0  0  0  0  0  0  0  0  0  0  0  0
    8.4771    6.3291   23.0764 C   0  0  0  0  0  0  0  0  0  0  0  0
    9.6663   -3.5825   24.4245 C   0  0  0  0  0  0  0  0  0  0  0  0
   11.4869   -1.9953   24.4600 N   0  0  0  0  0  0  0  0  0  0  0  0
    9.3980   -4.7797   25.1807 N   0  0  0  0  0  0  0  0  0  0  0  0
    8.6470    5.0569   22.2923 N   0  0  0  0  0  0  0  0  0  0  0  0
    7.3133   -4.1775   26.0273 O   0  0  0  0  0  0  0  0  0  0  0  0
   11.9925   -4.2621   24.4754 O   0  0  0  0  0  0  0  0  0  0  0  0
    8.3895    1.3081   20.4663 O   0  0  0  0  0  0  0  0  0  0  0  0
   11.9526    7.0215   24.9825 S   0  0  0  0  0  0  0  0  0  0  0  0
   13.1135    2.5134   22.2890 Br  0  0  0  0  0  0  0  0  0  0  0  0
  1  2  3  0
  1 21  1  0
  2 32  1  0
  3  5  2  0
  3 10  1  0
  4  6  1  0
  4 10  2  0
  5 12  1  0
  6 12  2  0
  7  8  2  0
  7 11  1  0
  8 31  1  0
  9 11  2  0
  9 31  1  0
 10 22  1  0
 11 23  1  0
 12 30  1  0
 13 20  1  0
 13 26  1  0
 13 28  2  0
 14 24  1  0
 14 25  1  0
 14 29  2  0
 15 17  1  0
 15 19  1  0
 16 18  1  0
 16 19  1  0
 17 27  1  0
 18 27  1  0
 19 30  1  0
 21 25  1  0
 22 24  1  0
 23 27  1  0
 24 26  1  0
M  CHG  1  27   1
M  END
