MAK-UNK-9159f8ed-2
     RDKit          3D

 29 31  0  0  0  0  0  0  0  0999 V2000
    8.0487    7.4620   24.0298 C   0  0  0  0  0  0  0  0  0  0  0  0
   12.9167   -0.7318   21.8545 C   0  0  0  0  0  0  0  0  0  0  0  0
    7.0461    6.6444   23.5083 C   0  0  0  0  0  0  0  0  0  0  0  0
   11.9299   -1.4618   22.5170 C   0  0  0  0  0  0  0  0  0  0  0  0
    9.3873    7.1923   23.7448 C   0  0  0  0  0  0  0  0  0  0  0  0
   13.0288    0.6422   22.0669 C   0  0  0  0  0  0  0  0  0  0  0  0
    8.7207    5.2872   22.4168 C   0  0  0  0  0  0  0  0  0  0  0  0
   11.1671    0.5564   23.6043 C   0  0  0  0  0  0  0  0  0  0  0  0
    7.3821    5.5570   22.7018 C   0  0  0  0  0  0  0  0  0  0  0  0
   11.0551   -0.8177   23.3919 C   0  0  0  0  0  0  0  0  0  0  0  0
    9.7232    6.1049   22.9383 C   0  0  0  0  0  0  0  0  0  0  0  0
   12.1540    1.2863   22.9418 C   0  0  0  0  0  0  0  0  0  0  0  0
    9.0948   -1.0611   24.9775 C   0  0  0  0  0  0  0  0  0  0  0  0
    6.3370    4.7044   22.1583 C   0  0  0  0  0  0  0  0  0  0  0  0
   11.4905    3.4494   23.9912 C   0  0  0  0  0  0  0  0  0  0  0  0
    8.3128   -2.2415   25.5075 C   0  0  0  0  0  0  0  0  0  0  0  0
    8.5505   -3.3159   24.4653 C   0  0  0  0  0  0  0  0  0  0  0  0
    9.9417   -3.0065   23.9531 C   0  0  0  0  0  0  0  0  0  0  0  0
    5.8331    2.4811   21.4541 C   0  0  0  0  0  0  0  0  0  0  0  0
   10.0465   -1.5648   24.0694 N   0  0  0  0  0  0  0  0  0  0  0  0
   12.2667    2.6607   23.1540 N   0  0  0  0  0  0  0  0  0  0  0  0
   11.1064    5.8274   22.6447 N   0  0  0  0  0  0  0  0  0  0  0  0
    8.9069    0.0815   25.3692 O   0  0  0  0  0  0  0  0  0  0  0  0
    5.1926    5.0885   21.8824 O   0  0  0  0  0  0  0  0  0  0  0  0
   10.5570    3.1755   24.7242 O   0  0  0  0  0  0  0  0  0  0  0  0
   13.4369    5.0631   23.5558 O   0  0  0  0  0  0  0  0  0  0  0  0
   11.6192    5.7125   25.1796 O   0  0  0  0  0  0  0  0  0  0  0  0
    6.7743    3.4193   21.9865 O   0  0  0  0  0  0  0  0  0  0  0  0
   12.0350    5.1297   23.9185 S   0  0  0  0  0  0  0  0  0  0  0  0
  1  3  2  0
  1  5  1  0
  2  4  2  0
  2  6  1  0
  3  9  1  0
  4 10  1  0
  5 11  2  0
  6 12  2  0
  7  9  2  0
  7 11  1  0
  8 10  2  0
  8 12  1  0
  9 14  1  0
 10 20  1  0
 11 22  1  0
 12 21  1  0
 13 16  1  0
 13 20  1  0
 13 23  2  0
 14 24  2  0
 14 28  1  0
 15 21  1  0
 15 25  2  0
 15 29  1  0
 16 17  1  0
 17 18  1  0
 18 20  1  0
 19 28  1  0
 22 29  1  0
 26 29  2  0
 27 29  2  0
M  END
