MAK-UNK-3c359d2a-1
     RDKit          3D

 26 28  0  0  1  0  0  0  0  0999 V2000
   13.5538    0.6356   22.8274 C   0  0  0  0  0  0  0  0  0  0  0  0
   12.8291   -0.4182   22.2707 C   0  0  0  0  0  0  0  0  0  0  0  0
   13.0783    1.2834   23.9677 C   0  0  0  0  0  0  0  0  0  0  0  0
   11.1534   -0.1764   23.9943 C   0  0  0  0  0  0  0  0  0  0  0  0
   11.6289   -0.8241   22.8541 C   0  0  0  0  0  0  0  0  0  0  0  0
   11.8781    0.8774   24.5510 C   0  0  0  0  0  0  0  0  0  0  0  0
    6.5294   -1.1833   18.8737 C   0  0  0  0  0  0  0  0  0  0  0  0
    8.1385    2.8334   26.9446 C   0  0  0  0  0  0  0  0  0  0  0  0
    9.4632    2.0770   26.9363 C   0  0  0  0  0  0  0  0  0  0  0  0
    8.3132    4.2722   26.4687 C   0  0  0  0  0  0  0  0  0  0  0  0
   10.3146    3.5800   25.0975 C   0  0  0  0  0  0  0  0  0  0  0  0
    7.2657   -2.2808   20.9652 C   0  0  0  0  0  0  0  0  0  0  0  0
    8.0665    0.0057   20.5142 C   0  0  0  0  0  0  0  0  0  0  0  0
    8.6814   -2.7348   21.2897 C   0  0  0  0  0  0  0  0  0  0  0  0
    9.4950   -0.4136   20.8340 C   0  0  0  0  0  0  0  0  0  0  0  0
   10.1412    2.1381   25.5688 C   0  0  0  0  0  0  0  0  0  0  0  0
    8.9890    4.3378   25.1004 C   0  0  0  0  0  0  0  0  0  0  0  0
    9.4083    5.8765   23.3743 C   0  0  0  0  0  0  0  0  0  0  0  0
   10.8492   -1.9573   22.2548 C   0  0  0  0  0  0  0  0  0  0  0  0
    6.5980    0.0327   17.9847 C   0  0  0  0  0  0  0  0  0  0  0  0
    7.2763   -1.1395   20.0500 N   0  0  0  0  0  0  0  0  0  0  0  0
    9.4664   -1.5573   21.8232 N   0  0  0  0  0  0  0  0  0  0  0  0
    5.8345   -2.1430   18.5300 O   0  0  0  0  0  0  0  0  0  0  0  0
   11.4145    1.5091   25.6641 O   0  0  0  0  0  0  0  0  0  0  0  0
    9.2174    5.7035   24.7712 O   0  0  0  0  0  0  0  0  0  0  0  0
    5.6008   -0.3157   16.5768 Cl  0  0  0  0  0  0  0  0  0  0  0  0
  1  2  2  0
  1  3  1  0
  2  5  1  0
  3  6  2  0
  4  5  2  0
  4  6  1  0
  5 19  1  0
  6 24  1  0
  7 20  1  0
  7 21  1  0
  7 23  2  0
  8  9  1  0
  8 10  1  0
  9 16  1  0
 10 17  1  0
 11 16  1  0
 11 17  1  0
 12 14  1  0
 12 21  1  0
 13 15  1  0
 13 21  1  0
 14 22  1  0
 15 22  1  0
 16 24  1  0
 17 25  1  0
 18 25  1  0
 19 22  1  0
 20 26  1  0
M  CHG  1  22   1
M  END
