MAK-UNK-148caf23-9
     RDKit          3D

 34 37  0  0  1  0  0  0  0  0999 V2000
    8.9341    4.8316   23.4342 C   0  0  0  0  0  0  0  0  0  0  0  0
    6.3834   -2.9952   19.8931 C   0  0  0  0  0  0  0  0  0  0  0  0
    5.6927   -1.8125   19.6295 C   0  0  0  0  0  0  0  0  0  0  0  0
    9.3610    0.6835   27.0570 C   0  0  0  0  0  0  0  0  0  0  0  0
   11.3634    4.7523   23.7548 C   0  0  0  0  0  0  0  0  0  0  0  0
    7.6226   -2.9517   20.5320 C   0  0  0  0  0  0  0  0  0  0  0  0
    6.2412   -0.5861   20.0048 C   0  0  0  0  0  0  0  0  0  0  0  0
    9.2904   -0.4513   26.2566 C   0  0  0  0  0  0  0  0  0  0  0  0
   12.5553    4.0370   23.7219 C   0  0  0  0  0  0  0  0  0  0  0  0
   10.7102   -1.5880   21.0057 C   0  0  0  0  0  0  0  0  0  0  0  0
    8.6368    1.7984   26.6668 C   0  0  0  0  0  0  0  0  0  0  0  0
   10.2262    2.7895   23.0398 C   0  0  0  0  0  0  0  0  0  0  0  0
    7.8227    0.7284   24.8039 C   0  0  0  0  0  0  0  0  0  0  0  0
   10.9445   -1.6836   23.2431 C   0  0  0  0  0  0  0  0  0  0  0  0
   10.1723    4.1240   23.4087 C   0  0  0  0  0  0  0  0  0  0  0  0
    8.1711   -1.7253   20.9073 C   0  0  0  0  0  0  0  0  0  0  0  0
   11.6512   -1.5868   22.0648 C   0  0  0  0  0  0  0  0  0  0  0  0
    7.4804   -0.5425   20.6437 C   0  0  0  0  0  0  0  0  0  0  0  0
    8.5089   -0.4366   25.1067 C   0  0  0  0  0  0  0  0  0  0  0  0
    9.4570   -1.6853   21.5691 C   0  0  0  0  0  0  0  0  0  0  0  0
   12.5026    2.7063   23.3392 C   0  0  0  0  0  0  0  0  0  0  0  0
   15.0557   -0.0044   21.2318 C   0  0  0  0  0  0  0  0  0  0  0  0
   13.1517   -1.4964   21.9288 C   0  0  0  0  0  0  0  0  0  0  0  0
   13.7856    0.5664   23.3473 C   0  0  0  0  0  0  0  0  0  0  0  0
   13.6970   -0.0516   21.9408 C   0  0  0  0  0  0  0  0  0  0  0  0
    7.9266    5.4072   23.4549 N   0  0  0  0  0  0  0  0  0  0  0  0
    7.8667    1.8503   25.5569 N   0  0  0  0  0  0  0  0  0  0  0  0
   11.3648    2.0619   22.9960 N   0  0  0  0  0  0  0  0  0  0  0  0
    9.6116   -1.7425   22.9296 N   0  0  0  0  0  0  0  0  0  0  0  0
   13.6986    2.0071   23.3107 N   0  0  0  0  0  0  0  0  0  0  0  0
    8.7199   -3.0474   24.8574 O   0  0  0  0  0  0  0  0  0  0  0  0
    7.1073   -1.7604   23.3687 O   0  0  0  0  0  0  0  0  0  0  0  0
    7.9940    0.6446   20.9983 F   0  0  0  0  0  0  0  0  0  0  0  0
    8.3941   -1.8650   24.0606 S   0  0  0  0  0  0  0  0  0  0  0  0
  1 15  1  0
  1 26  3  0
  2  3  2  0
  2  6  1  0
  3  7  1  0
  4  8  2  0
  4 11  1  0
  5  9  2  0
  5 15  1  0
  6 16  2  0
  7 18  2  0
  8 19  1  0
  9 21  1  0
 10 17  1  0
 10 20  2  0
 11 27  2  0
 12 15  2  0
 12 28  1  0
 13 19  2  0
 13 27  1  0
 14 17  2  0
 14 29  1  0
 16 18  1  0
 16 20  1  0
 17 23  1  0
 18 33  1  0
 19 34  1  0
 20 29  1  0
 21 28  2  0
 21 30  1  0
 22 25  1  0
 23 25  1  0
 24 25  1  0
 24 30  1  0
 29 34  1  0
 31 34  2  0
 32 34  2  0
M  END
