MAK-UNK-acefcb18-29
     RDKit          3D

 42 46  0  0  1  0  0  0  0  0999 V2000
   13.1187   -1.3437   24.4724 C   0  0  0  0  0  0  0  0  0  0  0  0
   13.8526   -1.5418   22.1791 C   0  0  0  0  0  0  0  0  0  0  0  0
   12.9876    0.0355   24.3114 C   0  0  0  0  0  0  0  0  0  0  0  0
   13.7214   -0.1625   22.0180 C   0  0  0  0  0  0  0  0  0  0  0  0
    9.4033   -1.0574   23.5373 C   0  0  0  0  0  0  0  0  0  0  0  0
    9.5607   -2.2713   24.1692 C   0  0  0  0  0  0  0  0  0  0  0  0
    8.8426   -2.5330   21.8313 C   0  0  0  0  0  0  0  0  0  0  0  0
   13.5513   -2.1324   23.4063 C   0  0  0  0  0  0  0  0  0  0  0  0
    8.9872   -1.2089   22.1831 C   0  0  0  0  0  0  0  0  0  0  0  0
   13.2889    0.6262   23.0842 C   0  0  0  0  0  0  0  0  0  0  0  0
    4.7596    2.5792   20.0268 C   0  0  0  0  0  0  0  0  0  0  0  0
    4.6777    6.5178   22.0878 C   0  0  0  0  0  0  0  0  0  0  0  0
   12.1827    4.1094   23.3967 C   0  0  0  0  0  0  0  0  0  0  0  0
    6.0056    8.8718   24.4439 C   0  0  0  0  0  0  0  0  0  0  0  0
    7.3857    8.3050   24.7780 C   0  0  0  0  0  0  0  0  0  0  0  0
    5.8198    0.6331   18.8768 C   0  0  0  0  0  0  0  0  0  0  0  0
    4.9407    0.4040   21.2386 C   0  0  0  0  0  0  0  0  0  0  0  0
    5.6422    8.6134   22.9835 C   0  0  0  0  0  0  0  0  0  0  0  0
   11.2109    6.3391   23.8497 C   0  0  0  0  0  0  0  0  0  0  0  0
   10.3388    4.4165   25.1210 C   0  0  0  0  0  0  0  0  0  0  0  0
    7.0766    6.6006   22.9341 C   0  0  0  0  0  0  0  0  0  0  0  0
    7.2364    0.7378   19.4284 C   0  0  0  0  0  0  0  0  0  0  0  0
    6.3666    0.5110   21.7654 C   0  0  0  0  0  0  0  0  0  0  0  0
    9.7955    6.7856   23.5142 C   0  0  0  0  0  0  0  0  0  0  0  0
    8.9091    4.8355   24.8060 C   0  0  0  0  0  0  0  0  0  0  0  0
    4.7575    1.0834   19.8807 C   0  0  0  0  0  0  0  0  0  0  0  0
    7.4595    6.8268   24.3954 C   0  0  0  0  0  0  0  0  0  0  0  0
   13.6911   -3.6071   23.5782 C   0  0  0  0  0  0  0  0  0  0  0  0
    8.7375   -0.0600   21.2510 C   0  0  0  0  0  0  0  0  0  0  0  0
    4.8764    5.0546   21.7829 C   0  0  0  0  0  0  0  0  0  0  0  0
   12.1700    2.6324   23.7000 C   0  0  0  0  0  0  0  0  0  0  0  0
    3.6183    4.4680   21.1722 C   0  0  0  0  0  0  0  0  0  0  0  0
    5.7592    7.1901   22.6561 N   0  0  0  0  0  0  0  0  0  0  0  0
   11.2643    4.8969   24.0894 N   0  0  0  0  0  0  0  0  0  0  0  0
    3.7910    3.0624   20.8862 N   0  0  0  0  0  0  0  0  0  0  0  0
    8.8624    6.3351   24.6158 N   0  0  0  0  0  0  0  0  0  0  0  0
    7.3271   -0.0196   20.7300 N   0  0  0  0  0  0  0  0  0  0  0  0
    5.5802    3.2456   19.4070 O   0  0  0  0  0  0  0  0  0  0  0  0
    3.5926    7.0452   21.8301 O   0  0  0  0  0  0  0  0  0  0  0  0
   12.9837    4.5476   22.5670 O   0  0  0  0  0  0  0  0  0  0  0  0
   13.1583    1.9852   22.9253 O   0  0  0  0  0  0  0  0  0  0  0  0
    9.2074   -3.5865   23.1310 S   0  0  0  0  0  0  0  0  0  0  0  0
  1  3  2  0
  1  8  1  0
  2  4  1  0
  2  8  2  0
  3 10  1  0
  4 10  2  0
  5  6  2  0
  5  9  1  0
  6 42  1  0
  7  9  2  0
  7 42  1  0
  8 28  1  0
  9 29  1  0
 10 41  1  0
 11 26  1  0
 11 35  1  0
 11 38  2  0
 12 30  1  0
 12 33  1  0
 12 39  2  0
 13 31  1  0
 13 34  1  0
 13 40  2  0
 14 15  1  0
 14 18  1  0
 15 27  1  0
 16 22  1  0
 16 26  1  0
 17 23  1  0
 17 26  1  0
 18 33  1  0
 19 24  1  0
 19 34  1  0
 20 25  1  0
 20 34  1  0
 21 27  1  0
 21 33  1  0
 22 37  1  0
 23 37  1  0
 24 36  1  0
 25 36  1  0
 27 36  1  0
 29 37  1  0
 30 32  1  0
 31 41  1  0
 32 35  1  0
M  CHG  2  36   1  37   1
M  END
