MAK-UNK-07311286-4
     RDKit          3D

 23 24  0  0  0  0  0  0  0  0999 V2000
   13.5614   -1.5794   22.7443 C   0  0  0  0  0  0  0  0  0  0  0  0
   12.4136   -2.3665   22.8373 C   0  0  0  0  0  0  0  0  0  0  0  0
   13.4697   -0.1939   22.8768 C   0  0  0  0  0  0  0  0  0  0  0  0
   11.1740   -1.7680   23.0627 C   0  0  0  0  0  0  0  0  0  0  0  0
   12.2301    0.4046   23.1022 C   0  0  0  0  0  0  0  0  0  0  0  0
    4.9899    1.4133   19.5735 C   0  0  0  0  0  0  0  0  0  0  0  0
    4.1877    1.8872   20.6115 C   0  0  0  0  0  0  0  0  0  0  0  0
    5.2755    0.3697   22.1448 C   0  0  0  0  0  0  0  0  0  0  0  0
   11.0822   -0.3824   23.1952 C   0  0  0  0  0  0  0  0  0  0  0  0
    5.9348    0.4175   19.8211 C   0  0  0  0  0  0  0  0  0  0  0  0
    6.0776   -0.1042   21.1067 C   0  0  0  0  0  0  0  0  0  0  0  0
    4.3305    1.3654   21.8972 C   0  0  0  0  0  0  0  0  0  0  0  0
    9.7570    0.2582   23.4360 C   0  0  0  0  0  0  0  0  0  0  0  0
    9.0181    0.6410   22.1478 C   0  0  0  0  0  0  0  0  0  0  0  0
    6.3125    0.8180   17.2130 N   0  0  0  0  0  0  0  0  0  0  0  0
    8.7376   -0.5004   21.3187 N   0  0  0  0  0  0  0  0  0  0  0  0
    8.2978    0.2263   18.7474 O   0  0  0  0  0  0  0  0  0  0  0  0
    6.5763   -1.5371   18.2234 O   0  0  0  0  0  0  0  0  0  0  0  0
    7.0882   -1.7547   22.8574 O   0  0  0  0  0  0  0  0  0  0  0  0
    7.1544   -2.3600   20.4174 O   0  0  0  0  0  0  0  0  0  0  0  0
    6.9165   -0.1472   18.4858 S   0  0  0  0  0  0  0  0  0  0  0  0
    7.2593   -1.3678   21.4700 S   0  0  0  0  0  0  0  0  0  0  0  0
    3.2475    2.0135   23.3039 Br  0  0  0  0  0  0  0  0  0  0  0  0
  1  2  2  0
  1  3  1  0
  2  4  1  0
  3  5  2  0
  4  9  2  0
  5  9  1  0
  6  7  2  0
  6 10  1  0
  7 12  1  0
  8 11  1  0
  8 12  2  0
  9 13  1  0
 10 11  2  0
 10 21  1  0
 11 22  1  0
 12 23  1  0
 13 14  1  0
 14 16  1  0
 15 21  1  0
 16 22  1  0
 17 21  2  0
 18 21  2  0
 19 22  2  0
 20 22  2  0
M  END
