MAK-UNK-516d8086-31
     RDKit          3D

 22 24  0  0  0  0  0  0  0  0999 V2000
    5.2543   -6.1832   24.3423 C   0  0  0  0  0  0  0  0  0  0  0  0
    5.8917   -5.0629   22.2640 C   0  0  0  0  0  0  0  0  0  0  0  0
   11.0937   -3.9790   25.2431 C   0  0  0  0  0  0  0  0  0  0  0  0
    9.7563   -3.6616   24.9819 C   0  0  0  0  0  0  0  0  0  0  0  0
    6.5320   -4.0192   21.5959 C   0  0  0  0  0  0  0  0  0  0  0  0
    6.5720   -4.1235   24.3834 C   0  0  0  0  0  0  0  0  0  0  0  0
   10.2843   -1.2894   24.8934 C   0  0  0  0  0  0  0  0  0  0  0  0
    5.9117   -5.1150   23.6578 C   0  0  0  0  0  0  0  0  0  0  0  0
   11.5977   -1.6348   25.1523 C   0  0  0  0  0  0  0  0  0  0  0  0
   12.0155   -2.9482   25.3274 C   0  0  0  0  0  0  0  0  0  0  0  0
    9.3551   -2.3260   24.8084 C   0  0  0  0  0  0  0  0  0  0  0  0
    7.2124   -3.0798   23.7153 C   0  0  0  0  0  0  0  0  0  0  0  0
    7.1923   -3.0277   22.3215 C   0  0  0  0  0  0  0  0  0  0  0  0
   12.7565   -0.7674   25.2904 C   0  0  0  0  0  0  0  0  0  0  0  0
   13.4816   -3.0603   25.5956 C   0  0  0  0  0  0  0  0  0  0  0  0
   13.9807   -1.6050   25.5730 C   0  0  0  0  0  0  0  0  0  0  0  0
    6.0822   -1.2287   20.1527 C   0  0  0  0  0  0  0  0  0  0  0  0
    7.9222   -2.0166   24.5283 C   0  0  0  0  0  0  0  0  0  0  0  0
    7.5124   -1.6301   20.2795 C   0  0  0  0  0  0  0  0  0  0  0  0
    4.7203   -7.0506   24.8983 N   0  0  0  0  0  0  0  0  0  0  0  0
    7.8329   -1.9773   21.6283 N   0  0  0  0  0  0  0  0  0  0  0  0
   12.7205    0.4454   25.1900 O   0  0  0  0  0  0  0  0  0  0  0  0
  1  8  1  0
  1 20  3  0
  2  5  2  0
  2  8  1  0
  3  4  2  0
  3 10  1  0
  4 11  1  0
  5 13  1  0
  6  8  2  0
  6 12  1  0
  7  9  1  0
  7 11  2  0
  9 10  2  0
  9 14  1  0
 10 15  1  0
 11 18  1  0
 12 13  2  0
 12 18  1  0
 13 21  1  0
 14 16  1  0
 14 22  2  0
 15 16  1  0
 17 19  1  0
 19 21  1  0
M  END
