MAK-UNK-516d8086-22
     RDKit          3D

 22 24  0  0  0  0  0  0  0  0999 V2000
    7.3197   -0.0010   18.7437 C   0  0  0  0  0  0  0  0  0  0  0  0
   11.8311   -2.0056   22.5329 C   0  0  0  0  0  0  0  0  0  0  0  0
   10.4997   -2.4314   22.5902 C   0  0  0  0  0  0  0  0  0  0  0  0
    7.7124   -1.0206   20.9387 C   0  0  0  0  0  0  0  0  0  0  0  0
    9.8088   -0.3343   23.6216 C   0  0  0  0  0  0  0  0  0  0  0  0
    7.0334   -0.9803   19.7375 C   0  0  0  0  0  0  0  0  0  0  0  0
   11.1302    0.0610   23.5531 C   0  0  0  0  0  0  0  0  0  0  0  0
   12.1346   -0.7489   23.0210 C   0  0  0  0  0  0  0  0  0  0  0  0
    9.4979   -1.6029   23.1297 C   0  0  0  0  0  0  0  0  0  0  0  0
    7.3672   -2.0078   21.8449 C   0  0  0  0  0  0  0  0  0  0  0  0
    6.3658   -2.8891   21.4900 C   0  0  0  0  0  0  0  0  0  0  0  0
   11.7418    1.3210   23.9861 C   0  0  0  0  0  0  0  0  0  0  0  0
   13.4499   -0.0524   23.0834 C   0  0  0  0  0  0  0  0  0  0  0  0
    6.2398   -6.0869   21.4131 C   0  0  0  0  0  0  0  0  0  0  0  0
    8.0873   -2.0886   23.1753 C   0  0  0  0  0  0  0  0  0  0  0  0
    5.3046   -5.0879   22.0047 C   0  0  0  0  0  0  0  0  0  0  0  0
    7.5530    0.7969   17.9339 N   0  0  0  0  0  0  0  0  0  0  0  0
    6.0574   -1.8559   19.4166 N   0  0  0  0  0  0  0  0  0  0  0  0
    5.7180   -2.8259   20.3075 N   0  0  0  0  0  0  0  0  0  0  0  0
   13.0959    1.2147   23.6946 N   0  0  0  0  0  0  0  0  0  0  0  0
    5.9986   -3.9053   22.4031 N   0  0  0  0  0  0  0  0  0  0  0  0
   11.1389    2.2471   24.4952 O   0  0  0  0  0  0  0  0  0  0  0  0
  1  6  1  0
  1 17  3  0
  2  3  2  0
  2  8  1  0
  3  9  1  0
  4  6  2  0
  4 10  1  0
  5  7  1  0
  5  9  2  0
  6 18  1  0
  7  8  2  0
  7 12  1  0
  8 13  1  0
  9 15  1  0
 10 11  2  0
 10 15  1  0
 11 19  1  0
 11 21  1  0
 12 20  1  0
 12 22  2  0
 13 20  1  0
 14 16  1  0
 16 21  1  0
 18 19  2  0
M  END
