MAK-UNK-9e4a73aa-33
     RDKit          3D

 27 30  0  0  0  0  0  0  0  0999 V2000
   11.7104    0.6534   25.0238 C   0  0  0  0  0  0  0  0  0  0  0  0
    6.2257    1.2786   18.5963 C   0  0  0  0  0  0  0  0  0  0  0  0
   12.8302    0.7778   24.2015 C   0  0  0  0  0  0  0  0  0  0  0  0
   10.5496    0.0535   24.5354 C   0  0  0  0  0  0  0  0  0  0  0  0
    6.8798    0.7631   19.7097 C   0  0  0  0  0  0  0  0  0  0  0  0
    7.2507   -4.0790   23.3910 C   0  0  0  0  0  0  0  0  0  0  0  0
   11.6285   -0.2974   22.4024 C   0  0  0  0  0  0  0  0  0  0  0  0
    9.3138   -2.6832   24.6004 C   0  0  0  0  0  0  0  0  0  0  0  0
    5.6177    0.3847   17.7296 C   0  0  0  0  0  0  0  0  0  0  0  0
    6.2670   -1.4205   18.9937 C   0  0  0  0  0  0  0  0  0  0  0  0
    7.7498   -2.9051   22.7978 C   0  0  0  0  0  0  0  0  0  0  0  0
   12.7892    0.3024   22.8908 C   0  0  0  0  0  0  0  0  0  0  0  0
   10.5087   -0.4219   23.2247 C   0  0  0  0  0  0  0  0  0  0  0  0
    6.9055   -0.6112   19.9195 C   0  0  0  0  0  0  0  0  0  0  0  0
    8.8157   -2.2101   23.3697 C   0  0  0  0  0  0  0  0  0  0  0  0
    7.7915   -4.5529   24.5814 C   0  0  0  0  0  0  0  0  0  0  0  0
    8.8153   -3.8464   25.1939 C   0  0  0  0  0  0  0  0  0  0  0  0
    7.0776   -2.3857   21.5939 C   0  0  0  0  0  0  0  0  0  0  0  0
    8.7252   -0.4955   21.5621 C   0  0  0  0  0  0  0  0  0  0  0  0
   13.9867    0.4357   22.0121 C   0  0  0  0  0  0  0  0  0  0  0  0
    5.6215   -0.9564   17.9003 N   0  0  0  0  0  0  0  0  0  0  0  0
    9.3148   -1.0394   22.7229 N   0  0  0  0  0  0  0  0  0  0  0  0
    7.5793   -1.1789   21.0704 N   0  0  0  0  0  0  0  0  0  0  0  0
    6.0950   -2.9971   21.1777 O   0  0  0  0  0  0  0  0  0  0  0  0
    9.2336    0.4618   20.9634 O   0  0  0  0  0  0  0  0  0  0  0  0
    7.3004   -5.6725   25.1310 F   0  0  0  0  0  0  0  0  0  0  0  0
    9.4805   -4.4004   26.6825 Cl  0  0  0  0  0  0  0  0  0  0  0  0
  1  3  2  0
  1  4  1  0
  2  5  2  0
  2  9  1  0
  3 12  1  0
  4 13  2  0
  5 14  1  0
  6 11  2  0
  6 16  1  0
  7 12  2  0
  7 13  1  0
  8 15  2  0
  8 17  1  0
  9 21  2  0
 10 14  2  0
 10 21  1  0
 11 15  1  0
 11 18  1  0
 12 20  1  0
 13 22  1  0
 14 23  1  0
 15 22  1  0
 16 17  2  0
 16 26  1  0
 17 27  1  0
 18 23  1  0
 18 24  2  0
 19 22  1  0
 19 23  1  0
 19 25  2  0
M  END
