MAK-UNK-1bb0b7ee-15
     RDKit          3D

 32 36  0  0  1  0  0  0  0  0999 V2000
    5.5877   -6.4410   27.4946 C   0  0  0  0  0  0  0  0  0  0  0  0
    5.8224   -5.2886   28.2446 C   0  0  0  0  0  0  0  0  0  0  0  0
    6.2278   -6.6171   26.2677 C   0  0  0  0  0  0  0  0  0  0  0  0
   14.3423   -1.0701   23.4997 C   0  0  0  0  0  0  0  0  0  0  0  0
    8.8410    7.3129   25.8520 C   0  0  0  0  0  0  0  0  0  0  0  0
    8.8549    7.6491   24.4964 C   0  0  0  0  0  0  0  0  0  0  0  0
   13.5922   -1.9598   22.7307 C   0  0  0  0  0  0  0  0  0  0  0  0
    6.6970   -4.3122   27.7677 C   0  0  0  0  0  0  0  0  0  0  0  0
    7.1024   -5.6407   25.7909 C   0  0  0  0  0  0  0  0  0  0  0  0
   13.7111   -0.0179   24.1630 C   0  0  0  0  0  0  0  0  0  0  0  0
    9.3382    6.0807   26.2949 C   0  0  0  0  0  0  0  0  0  0  0  0
    9.3646    6.7694   23.5356 C   0  0  0  0  0  0  0  0  0  0  0  0
   12.2109   -1.7973   22.6249 C   0  0  0  0  0  0  0  0  0  0  0  0
    7.3370   -4.4882   26.5409 C   0  0  0  0  0  0  0  0  0  0  0  0
   12.3298    0.1447   24.0573 C   0  0  0  0  0  0  0  0  0  0  0  0
    9.8538    5.1847   25.3433 C   0  0  0  0  0  0  0  0  0  0  0  0
    9.8543    5.5481   23.9996 C   0  0  0  0  0  0  0  0  0  0  0  0
   11.5797   -0.7450   23.2882 C   0  0  0  0  0  0  0  0  0  0  0  0
   10.7183    3.5338   24.3008 C   0  0  0  0  0  0  0  0  0  0  0  0
    7.7396   -3.4140   22.9019 C   0  0  0  0  0  0  0  0  0  0  0  0
    8.6505   -2.2804   22.4510 C   0  0  0  0  0  0  0  0  0  0  0  0
    6.8136   -2.9847   24.0298 C   0  0  0  0  0  0  0  0  0  0  0  0
    9.4251   -1.6884   23.6271 C   0  0  0  0  0  0  0  0  0  0  0  0
    8.5178   -1.2478   24.7852 C   0  0  0  0  0  0  0  0  0  0  0  0
    7.6762   -0.0009   24.5006 C   0  0  0  0  0  0  0  0  0  0  0  0
   11.6712    1.2768   24.7738 C   0  0  0  0  0  0  0  0  0  0  0  0
    8.2777   -3.4383   26.0273 C   0  0  0  0  0  0  0  0  0  0  0  0
   10.3944    3.9304   25.5111 N   0  0  0  0  0  0  0  0  0  0  0  0
   10.4127    4.4735   23.3561 N   0  0  0  0  0  0  0  0  0  0  0  0
   11.3006    2.3458   23.8824 N   0  0  0  0  0  0  0  0  0  0  0  0
    7.5924   -2.3924   25.1837 N   0  0  0  0  0  0  0  0  0  0  0  0
   10.2244   -0.5993   23.1734 O   0  0  0  0  0  0  0  0  0  0  0  0
  1  2  2  0
  1  3  1  0
  2  8  1  0
  3  9  2  0
  4  7  2  0
  4 10  1  0
  5  6  2  0
  5 11  1  0
  6 12  1  0
  7 13  1  0
  8 14  2  0
  9 14  1  0
 10 15  2  0
 11 16  2  0
 12 17  2  0
 13 18  2  0
 14 27  1  0
 15 18  1  0
 15 26  1  0
 16 17  1  0
 16 28  1  0
 17 29  1  0
 18 32  1  0
 19 28  2  0
 19 29  1  0
 19 30  1  0
 20 21  1  0
 20 22  1  0
 21 23  1  0
 22 31  1  0
 23 24  1  0
 23 32  1  0
 24 25  1  0
 24 31  1  0
 26 30  1  0
 27 31  1  0
M  CHG  1  31   1
M  END
