MAK-UNK-a7992eb3-2
     RDKit          3D

 34 37  0  0  1  0  0  0  0  0999 V2000
   12.4783   -2.6369   20.5990 C   0  0  0  0  0  0  0  0  0  0  0  0
   12.9571   -2.5882   21.9081 C   0  0  0  0  0  0  0  0  0  0  0  0
   12.2048   -1.4542   19.9118 C   0  0  0  0  0  0  0  0  0  0  0  0
    6.6106   -2.3288   27.7985 C   0  0  0  0  0  0  0  0  0  0  0  0
    7.4260   -1.6139   28.6758 C   0  0  0  0  0  0  0  0  0  0  0  0
   13.1623   -1.3567   22.5303 C   0  0  0  0  0  0  0  0  0  0  0  0
   12.4100   -0.2228   20.5340 C   0  0  0  0  0  0  0  0  0  0  0  0
    6.9723   -2.4563   26.4573 C   0  0  0  0  0  0  0  0  0  0  0  0
    8.6030   -1.0264   28.2120 C   0  0  0  0  0  0  0  0  0  0  0  0
   12.8888   -0.1740   21.8432 C   0  0  0  0  0  0  0  0  0  0  0  0
    8.1493   -1.8688   25.9935 C   0  0  0  0  0  0  0  0  0  0  0  0
    8.9647   -1.1538   26.8708 C   0  0  0  0  0  0  0  0  0  0  0  0
    7.8002   -2.6805   23.6390 C   0  0  0  0  0  0  0  0  0  0  0  0
    6.5428   -0.9102   19.0190 C   0  0  0  0  0  0  0  0  0  0  0  0
    7.7538   -3.3978   21.2569 C   0  0  0  0  0  0  0  0  0  0  0  0
    8.7183   -1.1349   21.8990 C   0  0  0  0  0  0  0  0  0  0  0  0
    6.5060   -2.6752   20.7523 C   0  0  0  0  0  0  0  0  0  0  0  0
    7.4470   -0.4806   21.3565 C   0  0  0  0  0  0  0  0  0  0  0  0
   11.9227    3.1441   23.4398 C   0  0  0  0  0  0  0  0  0  0  0  0
   11.7113    0.9417   24.5733 C   0  0  0  0  0  0  0  0  0  0  0  0
   10.6400    3.5571   24.1403 C   0  0  0  0  0  0  0  0  0  0  0  0
    8.5097   -2.5934   22.3192 C   0  0  0  0  0  0  0  0  0  0  0  0
   10.4301    1.4639   25.2173 C   0  0  0  0  0  0  0  0  0  0  0  0
   13.1091    1.1509   22.5119 C   0  0  0  0  0  0  0  0  0  0  0  0
    6.9139    0.5052   18.6548 C   0  0  0  0  0  0  0  0  0  0  0  0
   10.2240    0.8429   26.5824 C   0  0  0  0  0  0  0  0  0  0  0  0
    6.8324   -1.3166   20.3209 N   0  0  0  0  0  0  0  0  0  0  0  0
    8.5023   -2.0064   24.6301 N   0  0  0  0  0  0  0  0  0  0  0  0
   11.8983    1.6464   23.2494 N   0  0  0  0  0  0  0  0  0  0  0  0
    6.7384   -3.2862   23.7426 O   0  0  0  0  0  0  0  0  0  0  0  0
    6.0135   -1.6320   18.1699 O   0  0  0  0  0  0  0  0  0  0  0  0
   10.5132    2.8829   25.3927 O   0  0  0  0  0  0  0  0  0  0  0  0
   10.1188   -0.5718   26.4380 O   0  0  0  0  0  0  0  0  0  0  0  0
    6.4712    0.7231   16.9653 Cl  0  0  0  0  0  0  0  0  0  0  0  0
  1  2  2  0
  1  3  1  0
  2  6  1  0
  3  7  2  0
  4  5  2  0
  4  8  1  0
  5  9  1  0
  6 10  2  0
  7 10  1  0
  8 11  2  0
  9 12  2  0
 10 24  1  0
 11 12  1  0
 11 28  1  0
 12 33  1  0
 13 22  1  0
 13 28  1  0
 13 30  2  0
 14 25  1  0
 14 27  1  0
 14 31  2  0
 15 17  1  0
 15 22  1  0
 16 18  1  0
 16 22  1  0
 17 27  1  0
 18 27  1  0
 19 21  1  0
 19 29  1  0
 20 23  1  0
 20 29  1  0
 21 32  1  0
 23 26  1  0
 23 32  1  0
 24 29  1  0
 25 34  1  0
 26 33  1  0
M  CHG  1  29   1
M  END
