MAK-UNK-516d8086-2
     RDKit          3D

 20 22  0  0  0  0  0  0  0  0999 V2000
   13.9978   -2.2624   25.1124 C   0  0  0  0  0  0  0  0  0  0  0  0
    7.9198   -4.7534   24.8604 C   0  0  0  0  0  0  0  0  0  0  0  0
    8.6793   -3.6101   24.5899 C   0  0  0  0  0  0  0  0  0  0  0  0
   11.7691   -2.0240   24.1161 C   0  0  0  0  0  0  0  0  0  0  0  0
    7.9241   -3.5811   22.2731 C   0  0  0  0  0  0  0  0  0  0  0  0
   12.2496   -0.9079   26.1606 C   0  0  0  0  0  0  0  0  0  0  0  0
   12.6738   -1.7321   25.1307 C   0  0  0  0  0  0  0  0  0  0  0  0
    7.1839   -4.7092   22.5671 C   0  0  0  0  0  0  0  0  0  0  0  0
    7.1718   -5.2964   23.8332 C   0  0  0  0  0  0  0  0  0  0  0  0
    8.6812   -3.0295   23.3078 C   0  0  0  0  0  0  0  0  0  0  0  0
   10.4859   -1.4904   24.1616 C   0  0  0  0  0  0  0  0  0  0  0  0
   10.1596   -0.6772   25.2349 C   0  0  0  0  0  0  0  0  0  0  0  0
    6.3069   -5.4933   21.6922 C   0  0  0  0  0  0  0  0  0  0  0  0
    6.2844   -6.4928   23.8415 C   0  0  0  0  0  0  0  0  0  0  0  0
    9.5030   -1.8097   23.0538 C   0  0  0  0  0  0  0  0  0  0  0  0
   15.0750   -2.6939   25.0975 N   0  0  0  0  0  0  0  0  0  0  0  0
   11.0113   -0.3710   26.2391 N   0  0  0  0  0  0  0  0  0  0  0  0
    5.8017   -6.5247   22.4738 N   0  0  0  0  0  0  0  0  0  0  0  0
    8.8528   -0.1306   25.2854 N   0  0  0  0  0  0  0  0  0  0  0  0
    6.0959   -5.2478   20.5194 O   0  0  0  0  0  0  0  0  0  0  0  0
  1  7  1  0
  1 16  3  0
  2  3  2  0
  2  9  1  0
  3 10  1  0
  4  7  2  0
  4 11  1  0
  5  8  1  0
  5 10  2  0
  6  7  1  0
  6 17  2  0
  8  9  2  0
  8 13  1  0
  9 14  1  0
 10 15  1  0
 11 12  2  0
 11 15  1  0
 12 17  1  0
 12 19  1  0
 13 18  1  0
 13 20  2  0
 14 18  1  0
M  END
