MAK-UNK-1bb0b7ee-7
     RDKit          3D

 21 21  0  0  1  0  0  0  0  0999 V2000
    9.5012    3.7054   23.5208 C   0  0  0  0  0  0  0  0  0  0  0  0
    9.2117    4.6898   22.8976 C   0  0  0  0  0  0  0  0  0  0  0  0
   14.0459   -2.5089   23.8613 C   0  0  0  0  0  0  0  0  0  0  0  0
   14.4735   -1.2675   24.3189 C   0  0  0  0  0  0  0  0  0  0  0  0
   12.9689   -2.5875   22.9854 C   0  0  0  0  0  0  0  0  0  0  0  0
   13.7959   -0.1437   23.8741 C   0  0  0  0  0  0  0  0  0  0  0  0
   12.3585   -1.4047   22.6005 C   0  0  0  0  0  0  0  0  0  0  0  0
    7.7286    0.2282   19.9588 C   0  0  0  0  0  0  0  0  0  0  0  0
    9.7386    0.9482   22.3548 C   0  0  0  0  0  0  0  0  0  0  0  0
    7.6929    0.1949   18.4669 C   0  0  0  0  0  0  0  0  0  0  0  0
    9.4064   -2.9023   21.8897 C   0  0  0  0  0  0  0  0  0  0  0  0
    9.8564    2.5090   24.2830 C   0  0  0  0  0  0  0  0  0  0  0  0
    9.1173   -0.3792   21.9299 C   0  0  0  0  0  0  0  0  0  0  0  0
   10.0017   -1.5698   22.3281 C   0  0  0  0  0  0  0  0  0  0  0  0
   12.7456   -0.1805   23.0237 N   0  0  0  0  0  0  0  0  0  0  0  0
    9.3606    1.3156   23.6385 N   0  0  0  0  0  0  0  0  0  0  0  0
    8.8773   -0.3125   20.5110 N   0  0  0  0  0  0  0  0  0  0  0  0
    6.7855    0.7103   20.5751 O   0  0  0  0  0  0  0  0  0  0  0  0
   10.5165    1.5820   21.6447 O   0  0  0  0  0  0  0  0  0  0  0  0
   11.2965   -1.4560   21.7396 O   0  0  0  0  0  0  0  0  0  0  0  0
    8.7536    6.2478   21.9110 Br  0  0  0  0  0  0  0  0  0  0  0  0
  1  2  3  0
  1 12  1  0
  2 21  1  0
  3  4  2  0
  3  5  1  0
  4  6  1  0
  5  7  2  0
  6 15  2  0
  7 15  1  0
  7 20  1  0
  8 10  1  0
  8 17  1  0
  8 18  2  0
  9 13  1  0
  9 16  1  0
  9 19  2  0
 11 14  1  0
 12 16  1  0
 13 14  1  0
 13 17  1  0
 14 20  1  0
M  END
