MAK-UNK-e4a48a85-19
     RDKit          3D

 35 38  0  0  1  0  0  0  0  0999 V2000
    9.0042   -2.1473   25.3386 C   0  0  0  0  0  0  0  0  0  0  0  0
    8.1283   -3.1356   25.7876 C   0  0  0  0  0  0  0  0  0  0  0  0
    9.4680   -4.8209   24.6912 C   0  0  0  0  0  0  0  0  0  0  0  0
   10.1119   -2.4957   24.5658 C   0  0  0  0  0  0  0  0  0  0  0  0
    8.3602   -4.4724   25.4639 C   0  0  0  0  0  0  0  0  0  0  0  0
   10.3439   -3.8325   24.2421 C   0  0  0  0  0  0  0  0  0  0  0  0
    2.6475   -6.7172   23.3897 C   0  0  0  0  0  0  0  0  0  0  0  0
    5.9069   -2.5325   20.8082 C   0  0  0  0  0  0  0  0  0  0  0  0
    5.9992   -1.4630   18.5331 C   0  0  0  0  0  0  0  0  0  0  0  0
    3.6543   -6.0763   25.5569 C   0  0  0  0  0  0  0  0  0  0  0  0
    4.5148   -4.9953   23.5164 C   0  0  0  0  0  0  0  0  0  0  0  0
    7.3404   -2.0968   21.0683 C   0  0  0  0  0  0  0  0  0  0  0  0
    7.4325   -1.0296   18.7984 C   0  0  0  0  0  0  0  0  0  0  0  0
    5.0718   -6.3877   26.0145 C   0  0  0  0  0  0  0  0  0  0  0  0
    5.9463   -5.2889   23.9444 C   0  0  0  0  0  0  0  0  0  0  0  0
   11.0473   -1.4071   24.0909 C   0  0  0  0  0  0  0  0  0  0  0  0
    5.6342   -2.7200   19.3187 C   0  0  0  0  0  0  0  0  0  0  0  0
   11.0841   -1.2683   22.5673 C   0  0  0  0  0  0  0  0  0  0  0  0
   10.5806    0.1364   22.2941 C   0  0  0  0  0  0  0  0  0  0  0  0
   10.7440    0.8634   23.6212 C   0  0  0  0  0  0  0  0  0  0  0  0
   11.5230   -4.2294   23.4157 C   0  0  0  0  0  0  0  0  0  0  0  0
    7.4179   -5.5355   25.9467 C   0  0  0  0  0  0  0  0  0  0  0  0
    2.6438   -6.5491   21.8913 C   0  0  0  0  0  0  0  0  0  0  0  0
   12.1024    1.5372   23.7733 C   0  0  0  0  0  0  0  0  0  0  0  0
    8.9995   -0.2959   20.5946 C   0  0  0  0  0  0  0  0  0  0  0  0
    3.5842   -5.9675   24.0997 N   0  0  0  0  0  0  0  0  0  0  0  0
    6.0111   -5.3430   25.4545 N   0  0  0  0  0  0  0  0  0  0  0  0
    7.6317   -0.8388   20.2839 N   0  0  0  0  0  0  0  0  0  0  0  0
    1.8432   -7.4938   23.9113 O   0  0  0  0  0  0  0  0  0  0  0  0
   10.6163   -0.1467   24.6345 O   0  0  0  0  0  0  0  0  0  0  0  0
    4.2536   -3.0148   19.1404 O   0  0  0  0  0  0  0  0  0  0  0  0
   12.4318   -1.3760   22.1163 O   0  0  0  0  0  0  0  0  0  0  0  0
   12.1504    2.1921   25.0303 O   0  0  0  0  0  0  0  0  0  0  0  0
    9.1967    0.0839   21.9537 O   0  0  0  0  0  0  0  0  0  0  0  0
    3.7847   -7.7256   21.2495 Cl  0  0  0  0  0  0  0  0  0  0  0  0
  1  2  2  0
  1  4  1  0
  2  5  1  0
  3  5  2  0
  3  6  1  0
  4  6  2  0
  4 16  1  0
  5 22  1  0
  6 21  1  0
  7 23  1  0
  7 26  1  0
  7 29  2  0
  8 12  1  0
  8 17  1  0
  9 13  1  0
  9 17  1  0
 10 14  1  0
 10 26  1  0
 11 15  1  0
 11 26  1  0
 12 28  1  0
 13 28  1  0
 14 27  1  0
 15 27  1  0
 16 18  1  0
 16 30  1  0
 17 31  1  0
 18 19  1  0
 18 32  1  0
 19 20  1  0
 19 34  1  0
 20 24  1  0
 20 30  1  0
 22 27  1  0
 23 35  1  0
 24 33  1  0
 25 28  1  0
 25 34  1  0
M  CHG  2  27   1  28   1
M  END
