MAK-UNK-8fdbca50-33
     RDKit          3D

 40 43  0  0  1  0  0  0  0  0999 V2000
   13.5916   -2.5495   23.4349 C   0  0  0  0  0  0  0  0  0  0  0  0
   14.1483   -1.3331   23.8296 C   0  0  0  0  0  0  0  0  0  0  0  0
    6.0171   -3.9230   27.2082 C   0  0  0  0  0  0  0  0  0  0  0  0
   12.2202   -2.6449   23.1982 C   0  0  0  0  0  0  0  0  0  0  0  0
   13.3337   -0.2119   23.9877 C   0  0  0  0  0  0  0  0  0  0  0  0
    6.9671   -3.0004   26.7845 C   0  0  0  0  0  0  0  0  0  0  0  0
    9.2990   -1.4281   21.9320 C   0  0  0  0  0  0  0  0  0  0  0  0
    6.3060   -5.2692   27.0532 C   0  0  0  0  0  0  0  0  0  0  0  0
    8.3533   -4.8135   26.1156 C   0  0  0  0  0  0  0  0  0  0  0  0
    7.8117   -1.9738   23.5320 C   0  0  0  0  0  0  0  0  0  0  0  0
   11.4056   -1.5237   23.3563 C   0  0  0  0  0  0  0  0  0  0  0  0
    7.9249   -1.6471   22.1987 C   0  0  0  0  0  0  0  0  0  0  0  0
   11.9623   -0.3072   23.7511 C   0  0  0  0  0  0  0  0  0  0  0  0
    8.1602   -3.4459   26.2265 C   0  0  0  0  0  0  0  0  0  0  0  0
    9.9836   -1.6278   23.1104 C   0  0  0  0  0  0  0  0  0  0  0  0
    8.7348    4.4759   25.0543 C   0  0  0  0  0  0  0  0  0  0  0  0
    5.7148    1.9423   21.8108 C   0  0  0  0  0  0  0  0  0  0  0  0
    6.4912    4.6447   23.9917 C   0  0  0  0  0  0  0  0  0  0  0  0
    7.2545    2.4589   25.0419 C   0  0  0  0  0  0  0  0  0  0  0  0
    6.7644    4.0316   22.6194 C   0  0  0  0  0  0  0  0  0  0  0  0
    7.4863    1.9068   23.6347 C   0  0  0  0  0  0  0  0  0  0  0  0
    7.3160    3.9885   25.1035 C   0  0  0  0  0  0  0  0  0  0  0  0
   10.7819    6.5919   24.3743 C   0  0  0  0  0  0  0  0  0  0  0  0
   11.3122    5.2372   26.4309 C   0  0  0  0  0  0  0  0  0  0  0  0
    7.9999    6.3762   26.5017 C   0  0  0  0  0  0  0  0  0  0  0  0
    6.7986   -1.5426   21.2114 C   0  0  0  0  0  0  0  0  0  0  0  0
    5.6229    0.4413   21.9213 C   0  0  0  0  0  0  0  0  0  0  0  0
   10.3565    6.2333   25.7908 C   0  0  0  0  0  0  0  0  0  0  0  0
    7.4538   -5.7399   26.5158 N   0  0  0  0  0  0  0  0  0  0  0  0
    9.0695   -1.9593   24.0761 N   0  0  0  0  0  0  0  0  0  0  0  0
    6.6175    2.5774   22.6627 N   0  0  0  0  0  0  0  0  0  0  0  0
    6.4668   -0.1553   20.9067 N   0  0  0  0  0  0  0  0  0  0  0  0
    9.0183    5.6489   25.7549 N   0  0  0  0  0  0  0  0  0  0  0  0
    9.5698    3.8337   24.4117 O   0  0  0  0  0  0  0  0  0  0  0  0
    5.0034    2.5311   20.9927 O   0  0  0  0  0  0  0  0  0  0  0  0
    9.2053   -1.0366   26.3879 O   0  0  0  0  0  0  0  0  0  0  0  0
   10.6736   -3.0122   25.7444 O   0  0  0  0  0  0  0  0  0  0  0  0
   11.1927    0.7800   23.9075 F   0  0  0  0  0  0  0  0  0  0  0  0
    9.3961   -2.2990   25.6744 S   0  0  0  0  0  0  0  0  0  0  0  0
    3.9459    0.0270   21.5461 Cl  0  0  0  0  0  0  0  0  0  0  0  0
  1  2  2  0
  1  4  1  0
  2  5  1  0
  3  6  2  0
  3  8  1  0
  4 11  2  0
  5 13  2  0
  6 14  1  0
  7 12  1  0
  7 15  2  0
  8 29  2  0
  9 14  2  0
  9 29  1  0
 10 12  2  0
 10 30  1  0
 11 13  1  0
 11 15  1  0
 12 26  1  0
 13 38  1  0
 14 39  1  0
 15 30  1  0
 16 22  1  0
 16 33  1  0
 16 34  2  0
 17 27  1  0
 17 31  1  0
 17 35  2  0
 18 20  1  0
 18 22  1  0
 19 21  1  0
 19 22  1  0
 20 31  1  0
 21 31  1  0
 23 28  1  0
 24 28  1  0
 25 33  1  0
 26 32  1  0
 27 32  1  0
 27 40  1  0
 28 33  1  0
 30 39  1  0
 36 39  2  0
 37 39  2  0
M  END
