MAK-UNK-2084232d-16
     RDKit          3D

 23 25  0  0  1  0  0  0  0  0999 V2000
    7.5125   -5.9251   22.5405 C   0  0  0  0  0  0  0  0  0  0  0  0
    6.4735   -5.5822   21.6736 C   0  0  0  0  0  0  0  0  0  0  0  0
    8.3565   -4.9394   23.0745 C   0  0  0  0  0  0  0  0  0  0  0  0
    8.1672   -3.6006   22.6819 C   0  0  0  0  0  0  0  0  0  0  0  0
    6.2703   -4.2518   21.3190 C   0  0  0  0  0  0  0  0  0  0  0  0
    7.1135   -3.2631   21.8212 C   0  0  0  0  0  0  0  0  0  0  0  0
    9.0645   -2.5190   23.2239 C   0  0  0  0  0  0  0  0  0  0  0  0
   11.9196   -1.1328   23.4165 C   0  0  0  0  0  0  0  0  0  0  0  0
   13.8387   -0.7655   25.0113 C   0  0  0  0  0  0  0  0  0  0  0  0
    9.5061   -5.3040   23.9976 C   0  0  0  0  0  0  0  0  0  0  0  0
   11.2318   -2.0580   24.4332 C   0  0  0  0  0  0  0  0  0  0  0  0
   10.3879   -3.1095   23.7071 C   0  0  0  0  0  0  0  0  0  0  0  0
   12.8209   -0.0989   24.0907 C   0  0  0  0  0  0  0  0  0  0  0  0
   13.1760   -1.6864   26.0370 C   0  0  0  0  0  0  0  0  0  0  0  0
   12.2620   -2.7174   25.3673 C   0  0  0  0  0  0  0  0  0  0  0  0
    9.1007   -6.2429   25.1325 C   0  0  0  0  0  0  0  0  0  0  0  0
   10.2989   -6.5598   25.9355 N   0  0  0  0  0  0  0  0  0  0  0  0
   10.0946   -4.1563   24.6342 O   0  0  0  0  0  0  0  0  0  0  0  0
    5.2477   -3.9325   20.4777 O   0  0  0  0  0  0  0  0  0  0  0  0
    6.9003   -1.9625   21.4657 O   0  0  0  0  0  0  0  0  0  0  0  0
   12.0088    0.8032   24.8383 O   0  0  0  0  0  0  0  0  0  0  0  0
   14.1932   -2.3832   26.7566 O   0  0  0  0  0  0  0  0  0  0  0  0
   11.5829   -3.4583   26.3830 O   0  0  0  0  0  0  0  0  0  0  0  0
  1  2  2  0
  1  3  1  0
  2  5  1  0
  3  4  2  0
  3 10  1  0
  4  6  1  0
  4  7  1  0
  5  6  2  0
  5 19  1  0
  6 20  1  0
  7 12  1  0
  8 11  1  0
  8 13  1  0
  9 13  1  0
  9 14  1  0
 10 16  1  0
 10 18  1  0
 11 12  1  0
 11 15  1  0
 12 18  1  0
 13 21  1  0
 14 15  1  0
 14 22  1  0
 15 23  1  0
 16 17  1  0
M  CHG  1  17   1
M  END
