MAK-UNK-176ca439-6
     RDKit          3D

 34 37  0  0  1  0  0  0  0  0999 V2000
   13.1438    1.0987   22.4730 C   0  0  0  0  0  0  0  0  0  0  0  0
   12.7754    1.4271   23.7776 C   0  0  0  0  0  0  0  0  0  0  0  0
   12.6056   -0.0330   21.8602 C   0  0  0  0  0  0  0  0  0  0  0  0
    5.5828   -3.6087   24.8170 C   0  0  0  0  0  0  0  0  0  0  0  0
    6.2691   -4.6865   25.3838 C   0  0  0  0  0  0  0  0  0  0  0  0
    8.1257   -3.2508   26.0077 C   0  0  0  0  0  0  0  0  0  0  0  0
   11.3308   -0.5078   23.8568 C   0  0  0  0  0  0  0  0  0  0  0  0
    6.7021   -0.1682   24.6544 C   0  0  0  0  0  0  0  0  0  0  0  0
    7.4528   -2.1493   25.4426 C   0  0  0  0  0  0  0  0  0  0  0  0
   11.8689    0.6239   24.4695 C   0  0  0  0  0  0  0  0  0  0  0  0
   11.6992   -0.8362   22.5522 C   0  0  0  0  0  0  0  0  0  0  0  0
    6.1994   -2.3533   24.8615 C   0  0  0  0  0  0  0  0  0  0  0  0
    7.7569   -0.7661   25.3047 C   0  0  0  0  0  0  0  0  0  0  0  0
    7.5210   -4.5126   25.9705 C   0  0  0  0  0  0  0  0  0  0  0  0
    6.1276   -2.0938   19.4938 C   0  0  0  0  0  0  0  0  0  0  0  0
    7.5447   -3.2053   21.1901 C   0  0  0  0  0  0  0  0  0  0  0  0
    7.6287   -0.7468   21.0431 C   0  0  0  0  0  0  0  0  0  0  0  0
    9.0646   -3.2784   21.1808 C   0  0  0  0  0  0  0  0  0  0  0  0
    9.1510   -0.7827   21.0335 C   0  0  0  0  0  0  0  0  0  0  0  0
   10.0283    2.1286   27.5680 C   0  0  0  0  0  0  0  0  0  0  0  0
   11.4745    0.9766   25.8639 C   0  0  0  0  0  0  0  0  0  0  0  0
   11.1209   -2.0538   21.8933 C   0  0  0  0  0  0  0  0  0  0  0  0
    5.6967   -0.8014   18.8476 C   0  0  0  0  0  0  0  0  0  0  0  0
   10.4390    3.2949   25.3798 C   0  0  0  0  0  0  0  0  0  0  0  0
    8.9408    1.2905   25.4626 C   0  0  0  0  0  0  0  0  0  0  0  0
   10.2289    1.9157   26.0472 C   0  0  0  0  0  0  0  0  0  0  0  0
    5.7675   -1.1335   24.3915 N   0  0  0  0  0  0  0  0  0  0  0  0
    7.0723   -1.9968   20.5145 N   0  0  0  0  0  0  0  0  0  0  0  0
    9.6228   -2.0084   21.7834 N   0  0  0  0  0  0  0  0  0  0  0  0
    5.6402   -3.1566   19.1003 O   0  0  0  0  0  0  0  0  0  0  0  0
    9.3133    4.1399   25.5796 O   0  0  0  0  0  0  0  0  0  0  0  0
    8.8813   -0.1053   25.7257 O   0  0  0  0  0  0  0  0  0  0  0  0
    8.1547   -5.5651   26.5058 F   0  0  0  0  0  0  0  0  0  0  0  0
    4.5431   -1.2279   17.5885 Cl  0  0  0  0  0  0  0  0  0  0  0  0
  1  2  2  0
  1  3  1  0
  2 10  1  0
  3 11  2  0
  4  5  2  0
  4 12  1  0
  5 14  1  0
  6  9  1  0
  6 14  2  0
  7 10  2  0
  7 11  1  0
  8 13  2  0
  8 27  1  0
  9 12  2  0
  9 13  1  0
 10 21  1  0
 11 22  1  0
 12 27  1  0
 13 32  1  0
 14 33  1  0
 15 23  1  0
 15 28  1  0
 15 30  2  0
 16 18  1  0
 16 28  1  0
 17 19  1  0
 17 28  1  0
 18 29  1  0
 19 29  1  0
 20 26  1  0
 21 26  1  0
 22 29  1  0
 23 34  1  0
 24 26  1  0
 24 31  1  0
 25 26  1  0
 25 32  1  0
M  CHG  1  29   1
M  END
