MAK-UNK-01147c51-3
     RDKit          3D

 24 26  0  0  1  0  0  0  0  0999 V2000
    7.6256   -6.1897   22.6843 C   0  0  0  0  0  0  0  0  0  0  0  0
    6.7881   -5.9464   21.5943 C   0  0  0  0  0  0  0  0  0  0  0  0
    8.4940   -5.1946   23.1584 C   0  0  0  0  0  0  0  0  0  0  0  0
    8.5411   -3.9595   22.4841 C   0  0  0  0  0  0  0  0  0  0  0  0
    6.8144   -4.7101   20.9559 C   0  0  0  0  0  0  0  0  0  0  0  0
    7.6874   -3.7188   21.3985 C   0  0  0  0  0  0  0  0  0  0  0  0
    9.4725   -2.8744   22.9567 C   0  0  0  0  0  0  0  0  0  0  0  0
   13.4756   -1.9093   25.8936 C   0  0  0  0  0  0  0  0  0  0  0  0
   12.5792   -2.9804   25.2772 C   0  0  0  0  0  0  0  0  0  0  0  0
   14.0538   -0.9760   24.8310 C   0  0  0  0  0  0  0  0  0  0  0  0
   12.0442   -1.4351   23.3476 C   0  0  0  0  0  0  0  0  0  0  0  0
    9.4283   -5.4572   24.3267 C   0  0  0  0  0  0  0  0  0  0  0  0
   11.4622   -2.3688   24.4215 C   0  0  0  0  0  0  0  0  0  0  0  0
   12.9871   -0.3735   23.9174 C   0  0  0  0  0  0  0  0  0  0  0  0
   10.6173   -3.4670   23.7764 C   0  0  0  0  0  0  0  0  0  0  0  0
    8.7331   -6.0894   25.5312 C   0  0  0  0  0  0  0  0  0  0  0  0
   11.5100    1.6386   23.8312 C   0  0  0  0  0  0  0  0  0  0  0  0
   10.7160    2.5822   24.7128 C   0  0  0  0  0  0  0  0  0  0  0  0
    9.7399   -6.3358   26.5832 N   0  0  0  0  0  0  0  0  0  0  0  0
   12.1943    0.6319   24.6820 N   0  0  0  0  0  0  0  0  0  0  0  0
   10.0509   -4.2590   24.8219 O   0  0  0  0  0  0  0  0  0  0  0  0
    5.9859   -4.4857   19.8981 O   0  0  0  0  0  0  0  0  0  0  0  0
    7.7004   -2.5107   20.7631 O   0  0  0  0  0  0  0  0  0  0  0  0
    9.7727    1.8409   25.4751 O   0  0  0  0  0  0  0  0  0  0  0  0
  1  2  2  0
  1  3  1  0
  2  5  1  0
  3  4  2  0
  3 12  1  0
  4  6  1  0
  4  7  1  0
  5  6  2  0
  5 22  1  0
  6 23  1  0
  7 15  1  0
  8  9  1  0
  8 10  1  0
  9 13  1  0
 10 14  1  0
 11 13  1  0
 11 14  1  0
 12 16  1  0
 12 21  1  0
 13 15  1  0
 14 20  1  0
 15 21  1  0
 16 19  1  0
 17 18  1  0
 17 20  1  0
 18 24  1  0
M  CHG  2  19   1  20   1
M  END
