MAK-UNK-9e4a73aa-28
     RDKit          3D

 27 30  0  0  0  0  0  0  0  0999 V2000
   12.7468    0.5905   24.3934 C   0  0  0  0  0  0  0  0  0  0  0  0
   11.5813    0.5021   25.1545 C   0  0  0  0  0  0  0  0  0  0  0  0
   12.7718    0.0829   23.0944 C   0  0  0  0  0  0  0  0  0  0  0  0
   10.4406   -0.0939   24.6166 C   0  0  0  0  0  0  0  0  0  0  0  0
   11.6311   -0.5130   22.5565 C   0  0  0  0  0  0  0  0  0  0  0  0
    5.6190   -0.1163   20.0022 C   0  0  0  0  0  0  0  0  0  0  0  0
    5.0644    0.4085   18.8401 C   0  0  0  0  0  0  0  0  0  0  0  0
    6.9267   -3.9793   23.6035 C   0  0  0  0  0  0  0  0  0  0  0  0
    9.3948   -3.0517   24.4496 C   0  0  0  0  0  0  0  0  0  0  0  0
    7.5736   -0.6610   18.7613 C   0  0  0  0  0  0  0  0  0  0  0  0
    7.5158   -2.8683   22.9729 C   0  0  0  0  0  0  0  0  0  0  0  0
   10.4655   -0.6014   23.3175 C   0  0  0  0  0  0  0  0  0  0  0  0
    6.8970   -0.6631   19.9705 C   0  0  0  0  0  0  0  0  0  0  0  0
    8.7394   -2.3609   23.4104 C   0  0  0  0  0  0  0  0  0  0  0  0
    7.5714   -4.6153   24.6591 C   0  0  0  0  0  0  0  0  0  0  0  0
    8.8133   -4.1589   25.0738 C   0  0  0  0  0  0  0  0  0  0  0  0
    5.8231    0.3628   17.6816 C   0  0  0  0  0  0  0  0  0  0  0  0
    6.8447   -2.2916   21.7947 C   0  0  0  0  0  0  0  0  0  0  0  0
    8.6961   -0.6075   21.6387 C   0  0  0  0  0  0  0  0  0  0  0  0
    5.2592    0.9167   16.4159 C   0  0  0  0  0  0  0  0  0  0  0  0
    7.0677   -0.1603   17.6120 N   0  0  0  0  0  0  0  0  0  0  0  0
    9.2922   -1.2142   22.7645 N   0  0  0  0  0  0  0  0  0  0  0  0
    7.5022   -1.2175   21.1652 N   0  0  0  0  0  0  0  0  0  0  0  0
    5.8068   -2.8260   21.4079 O   0  0  0  0  0  0  0  0  0  0  0  0
    9.1402    0.4429   21.1563 O   0  0  0  0  0  0  0  0  0  0  0  0
    6.9735   -5.6449   25.2747 F   0  0  0  0  0  0  0  0  0  0  0  0
    9.6463   -4.9556   26.3531 Cl  0  0  0  0  0  0  0  0  0  0  0  0
  1  2  2  0
  1  3  1  0
  2  4  1  0
  3  5  2  0
  4 12  2  0
  5 12  1  0
  6  7  2  0
  6 13  1  0
  7 17  1  0
  8 11  2  0
  8 15  1  0
  9 14  2  0
  9 16  1  0
 10 13  2  0
 10 21  1  0
 11 14  1  0
 11 18  1  0
 12 22  1  0
 13 23  1  0
 14 22  1  0
 15 16  2  0
 15 26  1  0
 16 27  1  0
 17 20  1  0
 17 21  2  0
 18 23  1  0
 18 24  2  0
 19 22  1  0
 19 23  1  0
 19 25  2  0
M  END
