MAK-UNK-de9577cf-5
     RDKit          3D

 37 40  0  0  0  0  0  0  0  0999 V2000
   13.9129   -1.2948   21.6655 C   0  0  0  0  0  0  0  0  0  0  0  0
   13.9631   -2.0317   22.8487 C   0  0  0  0  0  0  0  0  0  0  0  0
    5.8718    0.4084   19.2815 C   0  0  0  0  0  0  0  0  0  0  0  0
   12.9780   -0.2696   21.5215 C   0  0  0  0  0  0  0  0  0  0  0  0
    7.2699   -2.5092   26.7897 C   0  0  0  0  0  0  0  0  0  0  0  0
    8.4215   -3.4225   24.8722 C   0  0  0  0  0  0  0  0  0  0  0  0
   13.0785   -1.7435   23.8880 C   0  0  0  0  0  0  0  0  0  0  0  0
    6.7465    0.1072   20.3195 C   0  0  0  0  0  0  0  0  0  0  0  0
    6.3473   -3.5538   26.7331 C   0  0  0  0  0  0  0  0  0  0  0  0
    7.4989   -4.4671   24.8156 C   0  0  0  0  0  0  0  0  0  0  0  0
   11.2719    2.4219   22.6902 C   0  0  0  0  0  0  0  0  0  0  0  0
    6.3799    0.4366   17.9928 C   0  0  0  0  0  0  0  0  0  0  0  0
    8.4928   -0.0996   18.7183 C   0  0  0  0  0  0  0  0  0  0  0  0
    9.2168    2.0986   21.8288 C   0  0  0  0  0  0  0  0  0  0  0  0
   12.0933    0.0186   22.5607 C   0  0  0  0  0  0  0  0  0  0  0  0
    8.3070   -2.4435   25.8592 C   0  0  0  0  0  0  0  0  0  0  0  0
   12.1435   -0.7184   23.7439 C   0  0  0  0  0  0  0  0  0  0  0  0
   10.0587    3.0629   22.3373 C   0  0  0  0  0  0  0  0  0  0  0  0
    6.4618   -4.5328   25.7461 C   0  0  0  0  0  0  0  0  0  0  0  0
    8.0837   -0.1528   20.0410 C   0  0  0  0  0  0  0  0  0  0  0  0
   11.1344    1.0854   22.3864 C   0  0  0  0  0  0  0  0  0  0  0  0
    9.2869   -1.3295   25.9171 C   0  0  0  0  0  0  0  0  0  0  0  0
    9.1116    6.3477   24.0386 C   0  0  0  0  0  0  0  0  0  0  0  0
    9.7520    4.4985   22.4865 C   0  0  0  0  0  0  0  0  0  0  0  0
   11.2119   -0.4387   24.8795 C   0  0  0  0  0  0  0  0  0  0  0  0
    7.6725    0.1896   17.6833 N   0  0  0  0  0  0  0  0  0  0  0  0
    9.8814    0.9005   21.8631 N   0  0  0  0  0  0  0  0  0  0  0  0
    6.0622   -6.9968   26.6808 N   0  0  0  0  0  0  0  0  0  0  0  0
    9.4758    4.9168   23.8954 N   0  0  0  0  0  0  0  0  0  0  0  0
    9.2414   -0.4402   26.7528 O   0  0  0  0  0  0  0  0  0  0  0  0
    8.4763   -1.0648   22.4776 O   0  0  0  0  0  0  0  0  0  0  0  0
   10.2947   -1.3319   20.7183 O   0  0  0  0  0  0  0  0  0  0  0  0
    4.0736   -5.3984   26.3122 O   0  0  0  0  0  0  0  0  0  0  0  0
    5.2732   -6.3549   24.3139 O   0  0  0  0  0  0  0  0  0  0  0  0
   10.2146   -1.4499   24.9273 O   0  0  0  0  0  0  0  0  0  0  0  0
    9.2296   -0.5406   21.3388 S   0  0  0  0  0  0  0  0  0  0  0  0
    5.3065   -5.8401   25.6756 S   0  0  0  0  0  0  0  0  0  0  0  0
  1  2  2  0
  1  4  1  0
  2  7  1  0
  3  8  2  0
  3 12  1  0
  4 15  2  0
  5  9  2  0
  5 16  1  0
  6 10  1  0
  6 16  2  0
  7 17  2  0
  8 20  1  0
  9 19  1  0
 10 19  2  0
 11 18  1  0
 11 21  2  0
 12 26  2  0
 13 20  2  0
 13 26  1  0
 14 18  2  0
 14 27  1  0
 15 17  1  0
 15 21  1  0
 16 22  1  0
 17 25  1  0
 18 24  1  0
 19 37  1  0
 20 36  1  0
 21 27  1  0
 22 30  2  0
 22 35  1  0
 23 29  1  0
 24 29  1  0
 25 35  1  0
 27 36  1  0
 28 37  1  0
 31 36  2  0
 32 36  2  0
 33 37  2  0
 34 37  2  0
M  CHG  1  29   1
M  END
