MAK-UNK-30aad1f1-12
     RDKit          3D

 25 27  0  0  0  0  0  0  0  0999 V2000
   14.9792   -1.6769   26.6864 C   0  0  0  0  0  0  0  0  0  0  0  0
    2.1970   -7.7195   19.8260 C   0  0  0  0  0  0  0  0  0  0  0  0
   13.2130   -2.9823   25.5968 C   0  0  0  0  0  0  0  0  0  0  0  0
    3.1883   -7.0942   20.5741 C   0  0  0  0  0  0  0  0  0  0  0  0
    8.6416   -3.0324   22.3018 C   0  0  0  0  0  0  0  0  0  0  0  0
    8.9050   -3.4312   24.6700 C   0  0  0  0  0  0  0  0  0  0  0  0
    7.5634   -3.9167   22.2727 C   0  0  0  0  0  0  0  0  0  0  0  0
    7.8266   -4.3156   24.6410 C   0  0  0  0  0  0  0  0  0  0  0  0
   12.0693   -3.0296   24.8074 C   0  0  0  0  0  0  0  0  0  0  0  0
    1.3447   -8.5940   20.4807 C   0  0  0  0  0  0  0  0  0  0  0  0
   13.2217   -0.6167   25.3513 C   0  0  0  0  0  0  0  0  0  0  0  0
    2.3938   -8.2491   22.4954 C   0  0  0  0  0  0  0  0  0  0  0  0
   13.8063   -1.7568   25.8786 C   0  0  0  0  0  0  0  0  0  0  0  0
    9.3125   -2.7897   23.5004 C   0  0  0  0  0  0  0  0  0  0  0  0
    7.1558   -4.5583   23.4423 C   0  0  0  0  0  0  0  0  0  0  0  0
    3.2954   -7.3587   21.9350 C   0  0  0  0  0  0  0  0  0  0  0  0
   11.5624   -1.8324   24.3282 C   0  0  0  0  0  0  0  0  0  0  0  0
    5.2733   -5.8204   22.3100 C   0  0  0  0  0  0  0  0  0  0  0  0
   15.9335   -1.6118   27.3435 N   0  0  0  0  0  0  0  0  0  0  0  0
    1.4178   -8.8759   21.8009 N   0  0  0  0  0  0  0  0  0  0  0  0
   12.1111   -0.6229   24.5806 N   0  0  0  0  0  0  0  0  0  0  0  0
   10.4041   -1.8969   23.5296 N   0  0  0  0  0  0  0  0  0  0  0  0
    6.0773   -5.4427   23.4131 N   0  0  0  0  0  0  0  0  0  0  0  0
    4.2938   -6.7380   22.7223 N   0  0  0  0  0  0  0  0  0  0  0  0
    5.4176   -5.4031   21.1653 O   0  0  0  0  0  0  0  0  0  0  0  0
  1 13  1  0
  1 19  3  0
  2  4  2  0
  2 10  1  0
  3  9  2  0
  3 13  1  0
  4 16  1  0
  5  7  2  0
  5 14  1  0
  6  8  1  0
  6 14  2  0
  7 15  1  0
  8 15  2  0
  9 17  1  0
 10 20  2  0
 11 13  2  0
 11 21  1  0
 12 16  2  0
 12 20  1  0
 14 22  1  0
 15 23  1  0
 16 24  1  0
 17 21  2  0
 17 22  1  0
 18 23  1  0
 18 24  1  0
 18 25  2  0
M  END
