MAK-UNK-30aad1f1-6
     RDKit          3D

 26 28  0  0  0  0  0  0  0  0999 V2000
    8.6978   -0.4005   18.6412 C   0  0  0  0  0  0  0  0  0  0  0  0
    7.3557   -6.8119   22.5402 C   0  0  0  0  0  0  0  0  0  0  0  0
   14.6047   -1.6305   26.3835 C   0  0  0  0  0  0  0  0  0  0  0  0
    6.3743   -0.9589   19.1895 C   0  0  0  0  0  0  0  0  0  0  0  0
    6.2863   -5.9165   22.5558 C   0  0  0  0  0  0  0  0  0  0  0  0
    8.6023   -6.4180   23.0265 C   0  0  0  0  0  0  0  0  0  0  0  0
   13.8742   -2.6683   25.8155 C   0  0  0  0  0  0  0  0  0  0  0  0
    5.4601   -1.6495   19.9773 C   0  0  0  0  0  0  0  0  0  0  0  0
    7.7101   -4.2332   23.5438 C   0  0  0  0  0  0  0  0  0  0  0  0
   13.9513   -0.4321   26.6217 C   0  0  0  0  0  0  0  0  0  0  0  0
    8.1297   -1.9277   20.4688 C   0  0  0  0  0  0  0  0  0  0  0  0
   11.9710   -1.2425   25.7849 C   0  0  0  0  0  0  0  0  0  0  0  0
    7.7364   -1.0952   19.4334 C   0  0  0  0  0  0  0  0  0  0  0  0
    6.4635   -4.6272   23.0576 C   0  0  0  0  0  0  0  0  0  0  0  0
    8.7795   -5.1286   23.5282 C   0  0  0  0  0  0  0  0  0  0  0  0
   12.5317   -2.4787   25.5073 C   0  0  0  0  0  0  0  0  0  0  0  0
    5.9554   -2.4573   20.9882 C   0  0  0  0  0  0  0  0  0  0  0  0
   10.4080   -3.4849   24.5603 C   0  0  0  0  0  0  0  0  0  0  0  0
    5.3199   -3.6703   23.0740 C   0  0  0  0  0  0  0  0  0  0  0  0
    9.4799    0.1648   17.9966 N   0  0  0  0  0  0  0  0  0  0  0  0
   12.6486   -0.2106   26.3360 N   0  0  0  0  0  0  0  0  0  0  0  0
    7.2712   -2.6147   21.2553 N   0  0  0  0  0  0  0  0  0  0  0  0
   10.0264   -4.7351   24.0151 N   0  0  0  0  0  0  0  0  0  0  0  0
   11.7627   -3.5158   24.9285 N   0  0  0  0  0  0  0  0  0  0  0  0
    5.0309   -3.1392   21.7660 N   0  0  0  0  0  0  0  0  0  0  0  0
    9.6597   -2.5212   24.6888 O   0  0  0  0  0  0  0  0  0  0  0  0
  1 13  1  0
  1 20  3  0
  2  5  2  0
  2  6  1  0
  3  7  2  0
  3 10  1  0
  4  8  2  0
  4 13  1  0
  5 14  1  0
  6 15  2  0
  7 16  1  0
  8 17  1  0
  9 14  2  0
  9 15  1  0
 10 21  2  0
 11 13  2  0
 11 22  1  0
 12 16  2  0
 12 21  1  0
 14 19  1  0
 15 23  1  0
 16 24  1  0
 17 22  2  0
 17 25  1  0
 18 23  1  0
 18 24  1  0
 18 26  2  0
 19 25  1  0
M  END
