MAK-UNK-9a6be56d-22
     RDKit          3D

 38 42  0  0  0  0  0  0  0  0999 V2000
   13.5817   -2.5059   23.8424 C   0  0  0  0  0  0  0  0  0  0  0  0
    7.4062    0.8955   22.7960 C   0  0  0  0  0  0  0  0  0  0  0  0
   10.6704    7.3378   23.5356 C   0  0  0  0  0  0  0  0  0  0  0  0
    7.4872    2.2879   22.7871 C   0  0  0  0  0  0  0  0  0  0  0  0
   12.4274   -2.6085   23.0741 C   0  0  0  0  0  0  0  0  0  0  0  0
   11.8406    6.7672   23.0461 C   0  0  0  0  0  0  0  0  0  0  0  0
    7.1916   -2.0857   24.4268 C   0  0  0  0  0  0  0  0  0  0  0  0
    9.0529    2.2085   24.6255 C   0  0  0  0  0  0  0  0  0  0  0  0
   10.7405    4.6192   22.9738 C   0  0  0  0  0  0  0  0  0  0  0  0
   13.8492   -1.2907   24.4519 C   0  0  0  0  0  0  0  0  0  0  0  0
   11.9444   -0.3378   23.5905 C   0  0  0  0  0  0  0  0  0  0  0  0
    8.5506   -3.4037   23.2078 C   0  0  0  0  0  0  0  0  0  0  0  0
    8.1485    0.1595   23.7197 C   0  0  0  0  0  0  0  0  0  0  0  0
    9.5276    6.5505   23.7609 C   0  0  0  0  0  0  0  0  0  0  0  0
    7.5011   -3.4289   24.0995 C   0  0  0  0  0  0  0  0  0  0  0  0
    8.3106    2.9445   23.7019 C   0  0  0  0  0  0  0  0  0  0  0  0
    9.5443    5.1628   23.4839 C   0  0  0  0  0  0  0  0  0  0  0  0
    8.9718    0.8160   24.6344 C   0  0  0  0  0  0  0  0  0  0  0  0
   11.8745    5.4085   22.7629 C   0  0  0  0  0  0  0  0  0  0  0  0
   11.5878   -1.5083   22.9405 C   0  0  0  0  0  0  0  0  0  0  0  0
    8.0613   -1.2805   23.7249 C   0  0  0  0  0  0  0  0  0  0  0  0
    8.2792    7.2374   24.2533 C   0  0  0  0  0  0  0  0  0  0  0  0
    7.2795    6.2402   24.8157 C   0  0  0  0  0  0  0  0  0  0  0  0
    7.1144    5.0724   23.8516 C   0  0  0  0  0  0  0  0  0  0  0  0
    6.5512   -6.2162   26.5306 C   0  0  0  0  0  0  0  0  0  0  0  0
    6.8250   -4.6338   24.6175 C   0  0  0  0  0  0  0  0  0  0  0  0
   13.0575   -0.2001   24.3454 N   0  0  0  0  0  0  0  0  0  0  0  0
    8.8827   -2.0925   22.9872 N   0  0  0  0  0  0  0  0  0  0  0  0
    8.3928    4.3577   23.6929 N   0  0  0  0  0  0  0  0  0  0  0  0
   14.1169    4.2344   23.5986 N   0  0  0  0  0  0  0  0  0  0  0  0
    7.1864   -4.9732   26.0283 N   0  0  0  0  0  0  0  0  0  0  0  0
    9.7445   -0.2474   21.5495 O   0  0  0  0  0  0  0  0  0  0  0  0
   10.3351   -2.6550   20.9775 O   0  0  0  0  0  0  0  0  0  0  0  0
   12.9797    3.4777   21.4123 O   0  0  0  0  0  0  0  0  0  0  0  0
   14.1275    5.7191   21.4933 O   0  0  0  0  0  0  0  0  0  0  0  0
    9.6918    0.1228   25.5287 F   0  0  0  0  0  0  0  0  0  0  0  0
   10.1065   -1.6010   21.9686 S   0  0  0  0  0  0  0  0  0  0  0  0
   13.3386    4.6835   22.1454 S   0  0  0  0  0  0  0  0  0  0  0  0
  1  5  2  0
  1 10  1  0
  2  4  2  0
  2 13  1  0
  3  6  2  0
  3 14  1  0
  4 16  1  0
  5 20  1  0
  6 19  1  0
  7 15  1  0
  7 21  2  0
  8 16  2  0
  8 18  1  0
  9 17  1  0
  9 19  2  0
 10 27  2  0
 11 20  2  0
 11 27  1  0
 12 15  2  0
 12 28  1  0
 13 18  2  0
 13 21  1  0
 14 17  2  0
 14 22  1  0
 15 26  1  0
 16 29  1  0
 17 29  1  0
 18 36  1  0
 19 38  1  0
 20 37  1  0
 21 28  1  0
 22 23  1  0
 23 24  1  0
 24 29  1  0
 25 31  1  0
 26 31  1  0
 28 37  1  0
 30 38  1  0
 32 37  2  0
 33 37  2  0
 34 38  2  0
 35 38  2  0
M  CHG  1  31   1
M  END
