MAK-UNK-0cb6a3ad-7
     RDKit          3D

 11 11  0  0  1  0  0  0  0  0999 V2000
   12.2206   -0.2858   23.6092 C   0  0  0  0  0  0  0  0  0  0  0  0
   11.4150    0.8464   24.2106 C   0  0  0  0  0  0  0  0  0  0  0  0
   13.6556    1.2996   22.3254 C   0  0  0  0  0  0  0  0  0  0  0  0
   12.9113    2.4639   22.9794 C   0  0  0  0  0  0  0  0  0  0  0  0
   13.6536    0.0520   23.2128 C   0  0  0  0  0  0  0  0  0  0  0  0
   11.4618    2.0794   23.3065 C   0  0  0  0  0  0  0  0  0  0  0  0
   10.7269    3.2494   23.9568 C   0  0  0  0  0  0  0  0  0  0  0  0
   14.4127   -2.3318   23.4258 C   0  0  0  0  0  0  0  0  0  0  0  0
   13.5971   -1.4667   21.2144 C   0  0  0  0  0  0  0  0  0  0  0  0
   14.3346   -1.1151   22.5051 C   0  0  0  0  0  0  0  0  0  0  0  0
   11.7581   -1.4233   23.5364 O   0  0  0  0  0  0  0  0  0  0  0  0
  1  2  1  0
  1  5  1  0
  1 11  2  0
  2  6  1  0
  3  4  1  0
  3  5  1  0
  4  6  1  0
  5 10  1  0
  6  7  1  0
  8 10  1  0
  9 10  1  0
M  END
