MAK-UNK-702fb7d3-8
     RDKit          3D

 43 48  0  0  1  0  0  0  0  0999 V2000
    2.0409   -4.7901   23.6400 C   0  0  0  0  0  0  0  0  0  0  0  0
   16.9487   -0.8400   22.6772 C   0  0  0  0  0  0  0  0  0  0  0  0
    3.2200   -4.1824   24.0712 C   0  0  0  0  0  0  0  0  0  0  0  0
    2.0937   -5.8571   22.7430 C   0  0  0  0  0  0  0  0  0  0  0  0
   17.8140   -0.5668   23.7365 C   0  0  0  0  0  0  0  0  0  0  0  0
    7.9660   -7.1003   25.2462 C   0  0  0  0  0  0  0  0  0  0  0  0
    8.9995    1.9340   24.2946 C   0  0  0  0  0  0  0  0  0  0  0  0
   15.6430   -1.2588   22.9334 C   0  0  0  0  0  0  0  0  0  0  0  0
    4.4520   -4.6416   23.6053 C   0  0  0  0  0  0  0  0  0  0  0  0
    3.3257   -6.3162   22.2772 C   0  0  0  0  0  0  0  0  0  0  0  0
    6.9642   -7.1215   24.2769 C   0  0  0  0  0  0  0  0  0  0  0  0
    8.9647   -6.1323   25.1927 C   0  0  0  0  0  0  0  0  0  0  0  0
   17.3737   -0.7124   25.0521 C   0  0  0  0  0  0  0  0  0  0  0  0
   10.2228    1.5150   24.8057 C   0  0  0  0  0  0  0  0  0  0  0  0
   13.3723   -3.1236   24.6608 C   0  0  0  0  0  0  0  0  0  0  0  0
    8.8736    2.0405   22.9189 C   0  0  0  0  0  0  0  0  0  0  0  0
   11.0406    1.3577   22.5780 C   0  0  0  0  0  0  0  0  0  0  0  0
   11.6452   -1.6968   24.8875 C   0  0  0  0  0  0  0  0  0  0  0  0
   15.2027   -1.4044   24.2489 C   0  0  0  0  0  0  0  0  0  0  0  0
    4.5048   -5.7085   22.7083 C   0  0  0  0  0  0  0  0  0  0  0  0
    6.9513   -6.1724   23.2421 C   0  0  0  0  0  0  0  0  0  0  0  0
    7.9555   -5.1878   23.1930 C   0  0  0  0  0  0  0  0  0  0  0  0
   11.9789   -3.0332   24.9000 C   0  0  0  0  0  0  0  0  0  0  0  0
    8.9610   -5.1823   24.1718 C   0  0  0  0  0  0  0  0  0  0  0  0
   16.0681   -1.1312   25.3083 C   0  0  0  0  0  0  0  0  0  0  0  0
   11.2681    1.2194   23.9378 C   0  0  0  0  0  0  0  0  0  0  0  0
   13.8478   -1.8397   24.5095 C   0  0  0  0  0  0  0  0  0  0  0  0
    6.3383   -3.0396   20.5325 C   0  0  0  0  0  0  0  0  0  0  0  0
    7.9906   -4.1377   22.1089 C   0  0  0  0  0  0  0  0  0  0  0  0
    6.2767   -5.4797   20.9157 C   0  0  0  0  0  0  0  0  0  0  0  0
    5.8499   -6.2103   22.1990 C   0  0  0  0  0  0  0  0  0  0  0  0
   11.0379   -4.1812   25.1256 C   0  0  0  0  0  0  0  0  0  0  0  0
    7.0606   -1.7376   20.7755 C   0  0  0  0  0  0  0  0  0  0  0  0
    9.8662    1.7622   22.0443 N   0  0  0  0  0  0  0  0  0  0  0  0
   12.7892   -0.9807   24.6496 N   0  0  0  0  0  0  0  0  0  0  0  0
    6.8316   -4.1587   21.2071 N   0  0  0  0  0  0  0  0  0  0  0  0
    9.9967   -4.2182   24.1496 N   0  0  0  0  0  0  0  0  0  0  0  0
    5.3648   -3.0589   19.7755 O   0  0  0  0  0  0  0  0  0  0  0  0
   13.8584    0.9806   23.5431 O   0  0  0  0  0  0  0  0  0  0  0  0
   12.9560    1.2215   25.9096 O   0  0  0  0  0  0  0  0  0  0  0  0
   15.6600   -1.2661   26.5787 F   0  0  0  0  0  0  0  0  0  0  0  0
   12.8431    0.6820   24.5525 S   0  0  0  0  0  0  0  0  0  0  0  0
    6.2507   -0.9586   22.1297 Cl  0  0  0  0  0  0  0  0  0  0  0  0
  1  3  2  0
  1  4  1  0
  2  5  2  0
  2  8  1  0
  3  9  1  0
  4 10  2  0
  5 13  1  0
  6 11  2  0
  6 12  1  0
  7 14  2  0
  7 16  1  0
  8 19  2  0
  9 20  2  0
 10 20  1  0
 11 21  1  0
 12 24  2  0
 13 25  2  0
 14 26  1  0
 15 23  1  0
 15 27  2  0
 16 34  2  0
 17 26  2  0
 17 34  1  0
 18 23  2  0
 18 35  1  0
 19 25  1  0
 19 27  1  0
 20 31  1  0
 21 22  2  0
 21 31  1  0
 22 24  1  0
 22 29  1  0
 23 32  1  0
 24 37  1  0
 25 41  1  0
 26 42  1  0
 27 35  1  0
 28 33  1  0
 28 36  1  0
 28 38  2  0
 29 36  1  0
 30 31  1  0
 30 36  1  0
 32 37  1  0
 33 43  1  0
 35 42  1  0
 39 42  2  0
 40 42  2  0
M  END
