MAK-UNK-0d6072ac-34
     RDKit          3D

 19 21  0  0  1  0  0  0  0  0999 V2000
   13.0731   -0.4205   22.6734 C   0  0  0  0  0  0  0  0  0  0  0  0
   13.4059    0.7410   23.3762 C   0  0  0  0  0  0  0  0  0  0  0  0
   11.2287    0.7854   24.4506 C   0  0  0  0  0  0  0  0  0  0  0  0
   10.8695   -0.3850   23.7535 C   0  0  0  0  0  0  0  0  0  0  0  0
    9.7077   -1.1975   23.7057 C   0  0  0  0  0  0  0  0  0  0  0  0
   11.7993   -0.9621   22.8804 C   0  0  0  0  0  0  0  0  0  0  0  0
   12.4998    1.3361   24.2515 C   0  0  0  0  0  0  0  0  0  0  0  0
    9.9470   -2.2324   22.8223 C   0  0  0  0  0  0  0  0  0  0  0  0
    7.9276   -3.0216   23.2007 C   0  0  0  0  0  0  0  0  0  0  0  0
    6.9083   -4.4899   21.4823 C   0  0  0  0  0  0  0  0  0  0  0  0
    6.9111   -5.1955   23.9628 C   0  0  0  0  0  0  0  0  0  0  0  0
    6.8573   -4.0333   22.9606 C   0  0  0  0  0  0  0  0  0  0  0  0
    8.5157   -1.1062   24.3434 N   0  0  0  0  0  0  0  0  0  0  0  0
    9.0743   -3.2040   22.5173 N   0  0  0  0  0  0  0  0  0  0  0  0
    7.6198   -2.0359   24.0811 N   0  0  0  0  0  0  0  0  0  0  0  0
   11.2119   -2.0827   22.3292 N   0  0  0  0  0  0  0  0  0  0  0  0
    7.9919   -5.0507   21.1455 O   0  0  0  0  0  0  0  0  0  0  0  0
    5.8810   -4.2615   20.7844 O   0  0  0  0  0  0  0  0  0  0  0  0
   12.9476    2.7674   25.1000 Cl  0  0  0  0  0  0  0  0  0  0  0  0
  1  2  2  0
  1  6  1  0
  2  7  1  0
  3  4  1  0
  3  7  2  0
  4  5  1  0
  4  6  2  0
  5  8  2  0
  5 13  1  0
  6 16  1  0
  7 19  1  0
  8 14  1  0
  8 16  1  0
  9 12  1  0
  9 14  2  0
  9 15  1  0
 10 12  1  0
 10 17  1  0
 10 18  2  0
 11 12  1  0
 13 15  2  0
M  CHG  1  17  -1
M  END
