MAK-UNK-0955449e-8
     RDKit          3D

 21 23  0  0  0  0  0  0  0  0999 V2000
   12.5352    0.1533   22.2246 C   0  0  0  0  0  0  0  0  0  0  0  0
   12.7238    1.0426   23.2825 C   0  0  0  0  0  0  0  0  0  0  0  0
   11.3456   -0.5681   22.1235 C   0  0  0  0  0  0  0  0  0  0  0  0
   11.7230    1.2105   24.2394 C   0  0  0  0  0  0  0  0  0  0  0  0
    6.7116   -0.0227   18.8402 C   0  0  0  0  0  0  0  0  0  0  0  0
    8.5677   -2.0473   23.8607 C   0  0  0  0  0  0  0  0  0  0  0  0
    7.1981   -1.8847   22.0809 C   0  0  0  0  0  0  0  0  0  0  0  0
    5.4760    0.5300   18.5847 C   0  0  0  0  0  0  0  0  0  0  0  0
    6.2433    1.0013   20.8736 C   0  0  0  0  0  0  0  0  0  0  0  0
   10.3447   -0.4002   23.0805 C   0  0  0  0  0  0  0  0  0  0  0  0
    7.1562    0.2502   20.1662 C   0  0  0  0  0  0  0  0  0  0  0  0
    7.3541   -2.5125   23.2970 C   0  0  0  0  0  0  0  0  0  0  0  0
   10.5333    0.4891   24.1384 C   0  0  0  0  0  0  0  0  0  0  0  0
    9.1163   -1.1491   22.9720 C   0  0  0  0  0  0  0  0  0  0  0  0
    4.4594   -4.9888   23.5583 C   0  0  0  0  0  0  0  0  0  0  0  0
    8.4694   -0.2262   20.7257 C   0  0  0  0  0  0  0  0  0  0  0  0
    6.4275   -3.4893   23.8999 C   0  0  0  0  0  0  0  0  0  0  0  0
    8.2751   -1.0580   21.8940 N   0  0  0  0  0  0  0  0  0  0  0  0
    5.4271   -4.0499   22.9399 N   0  0  0  0  0  0  0  0  0  0  0  0
    9.5807    0.6620   25.0665 F   0  0  0  0  0  0  0  0  0  0  0  0
    4.8570    1.3740   19.9401 S   0  0  0  0  0  0  0  0  0  0  0  0
  1  2  2  0
  1  3  1  0
  2  4  1  0
  3 10  2  0
  4 13  2  0
  5  8  2  0
  5 11  1  0
  6 12  1  0
  6 14  2  0
  7 12  2  0
  7 18  1  0
  8 21  1  0
  9 11  2  0
  9 21  1  0
 10 13  1  0
 10 14  1  0
 11 16  1  0
 12 17  1  0
 13 20  1  0
 14 18  1  0
 15 19  1  0
 16 18  1  0
 17 19  1  0
M  CHG  1  19   1
M  END
