MAK-UNK-a7992eb3-15
     RDKit          3D

 19 21  0  0  0  0  0  0  0  0999 V2000
    9.7677    5.8960   23.2051 C   0  0  0  0  0  0  0  0  0  0  0  0
    8.9511    6.8385   23.7903 C   0  0  0  0  0  0  0  0  0  0  0  0
   10.8730    6.2686   25.2155 C   0  0  0  0  0  0  0  0  0  0  0  0
   10.8810    5.5657   24.0307 C   0  0  0  0  0  0  0  0  0  0  0  0
   10.6499    1.7861   24.4329 C   0  0  0  0  0  0  0  0  0  0  0  0
   12.9322    1.5796   23.3707 C   0  0  0  0  0  0  0  0  0  0  0  0
   10.2280    2.7424   23.3227 C   0  0  0  0  0  0  0  0  0  0  0  0
   12.4959    2.5355   22.2660 C   0  0  0  0  0  0  0  0  0  0  0  0
   10.5159   -2.4930   22.7591 C   0  0  0  0  0  0  0  0  0  0  0  0
    9.1035   -1.1843   23.8715 C   0  0  0  0  0  0  0  0  0  0  0  0
   11.7512    0.8278   23.9837 C   0  0  0  0  0  0  0  0  0  0  0  0
   10.6366   -1.2362   23.6572 C   0  0  0  0  0  0  0  0  0  0  0  0
   11.9373    4.5699   23.6519 C   0  0  0  0  0  0  0  0  0  0  0  0
   11.4214    3.4740   22.7587 N   0  0  0  0  0  0  0  0  0  0  0  0
    9.2111   -3.7016   24.7467 O   0  0  0  0  0  0  0  0  0  0  0  0
    7.9568   -3.2175   22.5849 O   0  0  0  0  0  0  0  0  0  0  0  0
   11.2055   -0.0758   23.0242 O   0  0  0  0  0  0  0  0  0  0  0  0
    9.5271    7.3213   25.3289 S   0  0  0  0  0  0  0  0  0  0  0  0
    8.9935   -2.9184   23.5490 S   0  0  0  0  0  0  0  0  0  0  0  0
  1  2  2  0
  1  4  1  0
  2 18  1  0
  3  4  2  0
  3 18  1  0
  4 13  1  0
  5  7  1  0
  5 11  1  0
  6  8  1  0
  6 11  1  0
  7 14  1  0
  8 14  1  0
  9 12  1  0
  9 19  1  0
 10 12  1  0
 10 19  1  0
 11 17  1  0
 12 17  1  0
 13 14  1  0
 15 19  2  0
 16 19  2  0
M  CHG  1  14   1
M  END
