MAK-UNK-acefcb18-21
     RDKit          3D

 31 34  0  0  0  0  0  0  0  0999 V2000
    8.6414    7.7765   23.8997 C   0  0  0  0  0  0  0  0  0  0  0  0
    9.1658    7.2899   26.2073 C   0  0  0  0  0  0  0  0  0  0  0  0
    9.7876    7.0925   23.4949 C   0  0  0  0  0  0  0  0  0  0  0  0
   10.3121    6.6059   25.8026 C   0  0  0  0  0  0  0  0  0  0  0  0
    9.1145   -2.5081   25.3139 C   0  0  0  0  0  0  0  0  0  0  0  0
   10.3319   -1.9946   22.9941 C   0  0  0  0  0  0  0  0  0  0  0  0
    8.3304    7.8752   25.2559 C   0  0  0  0  0  0  0  0  0  0  0  0
   10.6230    6.5072   24.4464 C   0  0  0  0  0  0  0  0  0  0  0  0
    9.1856   -3.4615   24.3222 C   0  0  0  0  0  0  0  0  0  0  0  0
   10.2602   -1.0409   23.9854 C   0  0  0  0  0  0  0  0  0  0  0  0
   12.6117    3.9897   22.8013 C   0  0  0  0  0  0  0  0  0  0  0  0
    5.1430   -5.8366   25.8591 C   0  0  0  0  0  0  0  0  0  0  0  0
    4.8436   -4.3588   23.8454 C   0  0  0  0  0  0  0  0  0  0  0  0
   12.0053    0.3303   22.8692 C   0  0  0  0  0  0  0  0  0  0  0  0
   10.3295    1.4122   24.4001 C   0  0  0  0  0  0  0  0  0  0  0  0
   12.8220    1.5689   23.2312 C   0  0  0  0  0  0  0  0  0  0  0  0
   10.6038    2.6475   23.5422 C   0  0  0  0  0  0  0  0  0  0  0  0
    6.6169   -5.9955   25.5202 C   0  0  0  0  0  0  0  0  0  0  0  0
    6.3183   -4.5209   23.5111 C   0  0  0  0  0  0  0  0  0  0  0  0
    4.3032   -5.5612   24.6154 C   0  0  0  0  0  0  0  0  0  0  0  0
    7.1047    8.6059   25.6888 C   0  0  0  0  0  0  0  0  0  0  0  0
    8.5774   -4.8179   24.5251 C   0  0  0  0  0  0  0  0  0  0  0  0
   11.7130    5.2018   22.7839 C   0  0  0  0  0  0  0  0  0  0  0  0
    9.7959   -3.2220   23.1446 N   0  0  0  0  0  0  0  0  0  0  0  0
    9.6502   -1.2805   25.1632 N   0  0  0  0  0  0  0  0  0  0  0  0
   10.8400    0.2032   23.7488 N   0  0  0  0  0  0  0  0  0  0  0  0
   12.0170    2.7867   23.1837 N   0  0  0  0  0  0  0  0  0  0  0  0
    7.0964   -4.7671   24.7826 N   0  0  0  0  0  0  0  0  0  0  0  0
   13.7996    4.1068   22.4913 O   0  0  0  0  0  0  0  0  0  0  0  0
    2.9609   -5.3118   25.0163 O   0  0  0  0  0  0  0  0  0  0  0  0
   11.7519    5.8320   24.0471 O   0  0  0  0  0  0  0  0  0  0  0  0
  1  3  2  0
  1  7  1  0
  2  4  1  0
  2  7  2  0
  3  8  1  0
  4  8  2  0
  5  9  2  0
  5 25  1  0
  6 10  1  0
  6 24  2  0
  7 21  1  0
  8 31  1  0
  9 22  1  0
  9 24  1  0
 10 25  2  0
 10 26  1  0
 11 23  1  0
 11 27  1  0
 11 29  2  0
 12 18  1  0
 12 20  1  0
 13 19  1  0
 13 20  1  0
 14 16  1  0
 14 26  1  0
 15 17  1  0
 15 26  1  0
 16 27  1  0
 17 27  1  0
 18 28  1  0
 19 28  1  0
 20 30  1  0
 22 28  1  0
 23 31  1  0
M  CHG  1  28   1
M  END
