MAK-UNK-8fdbca50-10
     RDKit          3D

 40 43  0  0  1  0  0  0  0  0999 V2000
   10.2743   -0.8561   25.7852 C   0  0  0  0  0  0  0  0  0  0  0  0
    9.3295   -0.0321   25.1737 C   0  0  0  0  0  0  0  0  0  0  0  0
    7.8453   -1.8062   21.5894 C   0  0  0  0  0  0  0  0  0  0  0  0
    9.9659   -2.1891   26.0565 C   0  0  0  0  0  0  0  0  0  0  0  0
    8.0762   -0.5411   24.8335 C   0  0  0  0  0  0  0  0  0  0  0  0
    8.6926   -2.6445   22.3055 C   0  0  0  0  0  0  0  0  0  0  0  0
    7.8316   -4.6174   27.1363 C   0  0  0  0  0  0  0  0  0  0  0  0
    6.5939   -2.2904   21.2440 C   0  0  0  0  0  0  0  0  0  0  0  0
    8.2270   -6.2915   25.6835 C   0  0  0  0  0  0  0  0  0  0  0  0
    8.7126   -2.6981   25.7163 C   0  0  0  0  0  0  0  0  0  0  0  0
    7.7239   -6.0157   26.9357 C   0  0  0  0  0  0  0  0  0  0  0  0
    7.7677   -1.8742   25.1048 C   0  0  0  0  0  0  0  0  0  0  0  0
    8.2685   -3.9233   22.6493 C   0  0  0  0  0  0  0  0  0  0  0  0
    8.3971   -4.0813   26.0004 C   0  0  0  0  0  0  0  0  0  0  0  0
    6.9981   -4.3126   22.2566 C   0  0  0  0  0  0  0  0  0  0  0  0
    4.5062   -5.4051   24.1179 C   0  0  0  0  0  0  0  0  0  0  0  0
    1.2144   -6.6500   27.8157 C   0  0  0  0  0  0  0  0  0  0  0  0
    2.5013   -6.8275   24.5030 C   0  0  0  0  0  0  0  0  0  0  0  0
    2.5367   -4.4137   25.3002 C   0  0  0  0  0  0  0  0  0  0  0  0
    2.7192   -7.2642   25.9505 C   0  0  0  0  0  0  0  0  0  0  0  0
    2.7348   -4.9269   26.7271 C   0  0  0  0  0  0  0  0  0  0  0  0
    3.0098   -5.4075   24.2344 C   0  0  0  0  0  0  0  0  0  0  0  0
    6.8110   -6.7266   21.5286 C   0  0  0  0  0  0  0  0  0  0  0  0
    4.1928   -5.9232   21.6932 C   0  0  0  0  0  0  0  0  0  0  0  0
    7.5594   -8.3356   29.9643 C   0  0  0  0  0  0  0  0  0  0  0  0
    7.1745   -6.9969   27.8910 C   0  0  0  0  0  0  0  0  0  0  0  0
    0.7044   -5.5671   28.7329 C   0  0  0  0  0  0  0  0  0  0  0  0
    6.4741   -5.6906   22.5991 C   0  0  0  0  0  0  0  0  0  0  0  0
    6.1469   -3.5264   21.5602 N   0  0  0  0  0  0  0  0  0  0  0  0
    8.6330   -5.1081   25.1241 N   0  0  0  0  0  0  0  0  0  0  0  0
    2.1755   -6.2735   26.8785 N   0  0  0  0  0  0  0  0  0  0  0  0
    5.0359   -5.6629   22.8530 N   0  0  0  0  0  0  0  0  0  0  0  0
    8.0869   -7.3071   29.0345 N   0  0  0  0  0  0  0  0  0  0  0  0
    5.1877   -5.1807   25.1218 O   0  0  0  0  0  0  0  0  0  0  0  0
    0.7692   -7.7950   27.9292 O   0  0  0  0  0  0  0  0  0  0  0  0
    9.2488   -6.3331   23.0422 O   0  0  0  0  0  0  0  0  0  0  0  0
   10.5982   -4.2901   23.7335 O   0  0  0  0  0  0  0  0  0  0  0  0
    6.5583   -2.3484   24.7714 F   0  0  0  0  0  0  0  0  0  0  0  0
    9.3320   -4.9746   23.5487 S   0  0  0  0  0  0  0  0  0  0  0  0
   -0.5066   -6.3136   29.7692 Cl  0  0  0  0  0  0  0  0  0  0  0  0
  1  2  2  0
  1  4  1  0
  2  5  1  0
  3  6  2  0
  3  8  1  0
  4 10  2  0
  5 12  2  0
  6 13  1  0
  7 11  1  0
  7 14  2  0
  8 29  2  0
  9 11  2  0
  9 30  1  0
 10 12  1  0
 10 14  1  0
 11 26  1  0
 12 38  1  0
 13 15  2  0
 13 39  1  0
 14 30  1  0
 15 28  1  0
 15 29  1  0
 16 22  1  0
 16 32  1  0
 16 34  2  0
 17 27  1  0
 17 31  1  0
 17 35  2  0
 18 20  1  0
 18 22  1  0
 19 21  1  0
 19 22  1  0
 20 31  1  0
 21 31  1  0
 23 28  1  0
 24 32  1  0
 25 33  1  0
 26 33  1  0
 27 40  1  0
 28 32  1  0
 30 39  1  0
 36 39  2  0
 37 39  2  0
M  CHG  1  33   1
M  END
