MAK-UNK-2084232d-20
     RDKit          3D

 21 23  0  0  1  0  0  0  0  0999 V2000
    7.5668   -5.7491   22.5631 C   0  0  0  0  0  0  0  0  0  0  0  0
    6.5756   -5.5812   21.5945 C   0  0  0  0  0  0  0  0  0  0  0  0
    8.4499   -4.7041   22.8749 C   0  0  0  0  0  0  0  0  0  0  0  0
    8.3499   -3.4963   22.1582 C   0  0  0  0  0  0  0  0  0  0  0  0
    6.4600   -4.3715   20.9162 C   0  0  0  0  0  0  0  0  0  0  0  0
    7.3435   -3.3314   21.1964 C   0  0  0  0  0  0  0  0  0  0  0  0
    9.2914   -2.3592   22.4566 C   0  0  0  0  0  0  0  0  0  0  0  0
   12.9774   -0.3901   25.7441 C   0  0  0  0  0  0  0  0  0  0  0  0
   13.6839   -0.9940   24.5302 C   0  0  0  0  0  0  0  0  0  0  0  0
   11.5513    0.0187   25.4141 C   0  0  0  0  0  0  0  0  0  0  0  0
    9.5486   -4.8846   23.9079 C   0  0  0  0  0  0  0  0  0  0  0  0
   11.4404   -1.7250   23.6057 C   0  0  0  0  0  0  0  0  0  0  0  0
   10.5636   -2.8755   23.1264 C   0  0  0  0  0  0  0  0  0  0  0  0
   12.8814   -2.1458   23.9187 C   0  0  0  0  0  0  0  0  0  0  0  0
    9.0560   -5.4930   25.2198 C   0  0  0  0  0  0  0  0  0  0  0  0
   10.8191   -1.1555   24.8515 N   0  0  0  0  0  0  0  0  0  0  0  0
   10.2054   -6.0995   25.9212 N   0  0  0  0  0  0  0  0  0  0  0  0
   10.1829   -3.6451   24.2683 O   0  0  0  0  0  0  0  0  0  0  0  0
    5.4831   -4.2209   19.9790 O   0  0  0  0  0  0  0  0  0  0  0  0
    7.2163   -2.1503   20.5240 O   0  0  0  0  0  0  0  0  0  0  0  0
   12.8799   -3.2558   24.8152 O   0  0  0  0  0  0  0  0  0  0  0  0
  1  2  2  0
  1  3  1  0
  2  5  1  0
  3  4  2  0
  3 11  1  0
  4  6  1  0
  4  7  1  0
  5  6  2  0
  5 19  1  0
  6 20  1  0
  7 13  1  0
  8  9  1  0
  8 10  1  0
  9 14  1  0
 10 16  1  0
 11 15  1  0
 11 18  1  0
 12 13  1  0
 12 14  1  0
 12 16  1  0
 13 18  1  0
 14 21  1  0
 15 17  1  0
M  CHG  2  16   1  17   1
M  END
