MAK-UNK-27459e11-1
     RDKit          3D

 17 17  0  0  0  0  0  0  0  0999 V2000
   13.5116   -0.2625   22.8995 C   0  0  0  0  0  0  0  0  0  0  0  0
   13.3035   -1.5872   22.5156 C   0  0  0  0  0  0  0  0  0  0  0  0
   12.4895    0.4510   23.5256 C   0  0  0  0  0  0  0  0  0  0  0  0
   12.0733   -2.1985   22.7577 C   0  0  0  0  0  0  0  0  0  0  0  0
   11.2593   -0.1603   23.7677 C   0  0  0  0  0  0  0  0  0  0  0  0
   11.0512   -1.4850   23.3837 C   0  0  0  0  0  0  0  0  0  0  0  0
    6.0874   -0.1012   18.1333 C   0  0  0  0  0  0  0  0  0  0  0  0
    9.7200   -2.1456   23.6457 C   0  0  0  0  0  0  0  0  0  0  0  0
    5.5772    0.2673   19.4757 C   0  0  0  0  0  0  0  0  0  0  0  0
    8.7315   -1.9702   22.4955 C   0  0  0  0  0  0  0  0  0  0  0  0
    6.3142   -0.4656   20.5861 C   0  0  0  0  0  0  0  0  0  0  0  0
    5.5089   -1.1204   17.5146 N   0  0  0  0  0  0  0  0  0  0  0  0
    8.4545   -0.5533   22.1989 N   0  0  0  0  0  0  0  0  0  0  0  0
    7.0848    0.6126   17.6319 N   0  0  0  0  0  0  0  0  0  0  0  0
    8.7049   -0.9956   19.6619 O   0  0  0  0  0  0  0  0  0  0  0  0
    8.1987    1.3352   20.4791 O   0  0  0  0  0  0  0  0  0  0  0  0
    8.0420   -0.1056   20.6012 S   0  0  0  0  0  0  0  0  0  0  0  0
  1  2  2  0
  1  3  1  0
  2  4  1  0
  3  5  2  0
  4  6  2  0
  5  6  1  0
  6  8  1  0
  7  9  1  0
  7 12  1  0
  7 14  2  0
  8 10  1  0
  9 11  1  0
 10 13  1  0
 11 17  1  0
 13 17  1  0
 15 17  2  0
 16 17  2  0
M  CHG  1  14   1
M  END
