MAK-UNK-0cb6a3ad-1
     RDKit          3D

 10 10  0  0  0  0  0  0  0  0999 V2000
   14.3471    0.8535   22.3468 C   0  0  0  0  0  0  0  0  0  0  0  0
   12.5893    2.3047   23.1475 C   0  0  0  0  0  0  0  0  0  0  0  0
   13.5995   -0.2613   22.7258 C   0  0  0  0  0  0  0  0  0  0  0  0
   11.8416    1.1898   23.5266 C   0  0  0  0  0  0  0  0  0  0  0  0
   13.8421    2.1366   22.5577 C   0  0  0  0  0  0  0  0  0  0  0  0
   12.3467   -0.0932   23.3157 C   0  0  0  0  0  0  0  0  0  0  0  0
   14.1804   -1.6169   22.4803 C   0  0  0  0  0  0  0  0  0  0  0  0
   10.5043    1.4176   24.1552 C   0  0  0  0  0  0  0  0  0  0  0  0
   14.5717    3.2243   22.1877 O   0  0  0  0  0  0  0  0  0  0  0  0
   11.4187   -1.4774   23.7863 Cl  0  0  0  0  0  0  0  0  0  0  0  0
  1  3  2  0
  1  5  1  0
  2  4  1  0
  2  5  2  0
  3  6  1  0
  3  7  1  0
  4  6  2  0
  4  8  1  0
  5  9  1  0
  6 10  1  0
M  END
