MAK-UNK-9e4a73aa-6
     RDKit          3D

 26 29  0  0  0  0  0  0  0  0999 V2000
   12.8342    0.9280   23.6112 C   0  0  0  0  0  0  0  0  0  0  0  0
    5.0124    1.5045   17.9999 C   0  0  0  0  0  0  0  0  0  0  0  0
   12.8357    0.0103   22.5607 C   0  0  0  0  0  0  0  0  0  0  0  0
   11.6379    1.2559   24.2492 C   0  0  0  0  0  0  0  0  0  0  0  0
    4.4425    1.2259   19.2421 C   0  0  0  0  0  0  0  0  0  0  0  0
    6.2928    1.0394   17.6998 C   0  0  0  0  0  0  0  0  0  0  0  0
   11.6408   -0.5794   22.1481 C   0  0  0  0  0  0  0  0  0  0  0  0
   10.4430    0.6662   23.8366 C   0  0  0  0  0  0  0  0  0  0  0  0
    5.1531    0.4824   20.1844 C   0  0  0  0  0  0  0  0  0  0  0  0
    7.0034    0.2959   18.6421 C   0  0  0  0  0  0  0  0  0  0  0  0
   10.4444   -0.2514   22.7861 C   0  0  0  0  0  0  0  0  0  0  0  0
    6.4335    0.0173   19.8845 C   0  0  0  0  0  0  0  0  0  0  0  0
    7.0120   -3.8931   22.9601 C   0  0  0  0  0  0  0  0  0  0  0  0
    9.4419   -2.7607   23.9281 C   0  0  0  0  0  0  0  0  0  0  0  0
    9.1774   -0.8762   22.3490 C   0  0  0  0  0  0  0  0  0  0  0  0
    7.4475   -2.6073   22.3750 C   0  0  0  0  0  0  0  0  0  0  0  0
    8.7145   -2.0291   22.8716 C   0  0  0  0  0  0  0  0  0  0  0  0
    7.7379   -4.4933   23.9156 C   0  0  0  0  0  0  0  0  0  0  0  0
    8.9695   -3.9226   24.4130 C   0  0  0  0  0  0  0  0  0  0  0  0
    6.7133   -2.0034   21.3997 C   0  0  0  0  0  0  0  0  0  0  0  0
    8.3842   -0.1658   21.2943 C   0  0  0  0  0  0  0  0  0  0  0  0
    7.1754   -0.7593   20.8687 N   0  0  0  0  0  0  0  0  0  0  0  0
    5.6605   -2.4362   20.8418 O   0  0  0  0  0  0  0  0  0  0  0  0
    8.8109    0.9197   20.8884 O   0  0  0  0  0  0  0  0  0  0  0  0
    7.3133   -5.6661   24.4330 F   0  0  0  0  0  0  0  0  0  0  0  0
    9.8272   -4.7701   25.6479 Cl  0  0  0  0  0  0  0  0  0  0  0  0
  1  3  2  0
  1  4  1  0
  2  5  2  0
  2  6  1  0
  3  7  1  0
  4  8  2  0
  5  9  1  0
  6 10  2  0
  7 11  2  0
  8 11  1  0
  9 12  2  0
 10 12  1  0
 11 15  1  0
 12 22  1  0
 13 16  1  0
 13 18  2  0
 14 17  1  0
 14 19  2  0
 15 17  2  0
 15 21  1  0
 16 17  1  0
 16 20  2  0
 18 19  1  0
 18 25  1  0
 19 26  1  0
 20 22  1  0
 20 23  1  0
 21 22  1  0
 21 24  2  0
M  CHG  1  23  -1
M  END
