MAK-UNK-01147c51-11
     RDKit          3D

 23 25  0  0  1  0  0  0  0  0999 V2000
   12.7928    0.3818   23.1806 C   0  0  0  0  0  0  0  0  0  0  0  0
   13.4874    1.5890   23.0856 C   0  0  0  0  0  0  0  0  0  0  0  0
   11.4163    0.3654   23.4525 C   0  0  0  0  0  0  0  0  0  0  0  0
   10.7554    1.5883   23.6762 C   0  0  0  0  0  0  0  0  0  0  0  0
   12.8192    2.7955   23.2720 C   0  0  0  0  0  0  0  0  0  0  0  0
   11.4576    2.7966   23.5661 C   0  0  0  0  0  0  0  0  0  0  0  0
    9.2815    1.6065   23.9855 C   0  0  0  0  0  0  0  0  0  0  0  0
    5.8139   -6.0385   26.8131 C   0  0  0  0  0  0  0  0  0  0  0  0
    4.9415   -4.7939   26.9440 C   0  0  0  0  0  0  0  0  0  0  0  0
    7.2901   -5.7129   27.0183 C   0  0  0  0  0  0  0  0  0  0  0  0
    5.4047   -3.6802   26.0075 C   0  0  0  0  0  0  0  0  0  0  0  0
    7.7573   -4.6007   26.0822 C   0  0  0  0  0  0  0  0  0  0  0  0
   10.6561   -0.9429   23.5842 C   0  0  0  0  0  0  0  0  0  0  0  0
    6.8873   -3.3437   26.2173 C   0  0  0  0  0  0  0  0  0  0  0  0
    8.8308    0.2555   24.5381 C   0  0  0  0  0  0  0  0  0  0  0  0
   10.9224   -1.9190   22.4396 C   0  0  0  0  0  0  0  0  0  0  0  0
    7.3402   -2.2660   25.2340 C   0  0  0  0  0  0  0  0  0  0  0  0
    7.3163    0.1945   24.6767 C   0  0  0  0  0  0  0  0  0  0  0  0
    6.8901   -0.8753   25.6808 C   0  0  0  0  0  0  0  0  0  0  0  0
   10.4755   -1.2995   21.1757 N   0  0  0  0  0  0  0  0  0  0  0  0
    9.2301   -0.7578   23.6133 O   0  0  0  0  0  0  0  0  0  0  0  0
   13.5096    3.9653   23.1689 O   0  0  0  0  0  0  0  0  0  0  0  0
   10.8158    3.9882   23.7444 O   0  0  0  0  0  0  0  0  0  0  0  0
  1  2  2  0
  1  3  1  0
  2  5  1  0
  3  4  2  0
  3 13  1  0
  4  6  1  0
  4  7  1  0
  5  6  2  0
  5 22  1  0
  6 23  1  0
  7 15  1  0
  8  9  1  0
  8 10  1  0
  9 11  1  0
 10 12  1  0
 11 14  1  0
 12 14  1  0
 13 16  1  0
 13 21  1  0
 14 17  1  0
 15 18  1  0
 15 21  1  0
 16 20  1  0
 17 19  1  0
 18 19  1  0
M  CHG  1  20   1
M  END
