MAK-UNK-0d6072ac-4
     RDKit          3D

 19 21  0  0  1  0  0  0  0  0999 V2000
   10.0672   -4.9175   24.7169 C   0  0  0  0  0  0  0  0  0  0  0  0
    8.9483   -5.5044   24.1152 C   0  0  0  0  0  0  0  0  0  0  0  0
   12.3834   -0.5697   23.9630 C   0  0  0  0  0  0  0  0  0  0  0  0
   13.4008   -0.6688   24.9159 C   0  0  0  0  0  0  0  0  0  0  0  0
   12.6062   -2.8527   25.6158 C   0  0  0  0  0  0  0  0  0  0  0  0
    8.6706   -3.5893   22.6485 C   0  0  0  0  0  0  0  0  0  0  0  0
   10.4993   -3.6468   24.2824 C   0  0  0  0  0  0  0  0  0  0  0  0
   11.5700   -2.7761   24.6615 C   0  0  0  0  0  0  0  0  0  0  0  0
    8.2618   -4.8482   23.0964 C   0  0  0  0  0  0  0  0  0  0  0  0
   11.4846   -1.6376   23.8597 C   0  0  0  0  0  0  0  0  0  0  0  0
    9.7910   -3.0151   23.2600 C   0  0  0  0  0  0  0  0  0  0  0  0
   13.5125   -1.7926   25.7311 C   0  0  0  0  0  0  0  0  0  0  0  0
    5.8100   -4.6561   22.7813 C   0  0  0  0  0  0  0  0  0  0  0  0
    7.2717   -5.7741   20.9745 C   0  0  0  0  0  0  0  0  0  0  0  0
    7.0713   -5.4976   22.4713 C   0  0  0  0  0  0  0  0  0  0  0  0
   10.4052   -1.8076   23.0251 N   0  0  0  0  0  0  0  0  0  0  0  0
    4.8962   -4.7428   21.9096 O   0  0  0  0  0  0  0  0  0  0  0  0
    5.8259   -3.9875   23.8524 O   0  0  0  0  0  0  0  0  0  0  0  0
   14.7788   -1.8819   26.8958 Cl  0  0  0  0  0  0  0  0  0  0  0  0
  1  2  2  0
  1  7  1  0
  2  9  1  0
  3  4  1  0
  3 10  2  0
  4 12  2  0
  5  8  2  0
  5 12  1  0
  6  9  2  0
  6 11  1  0
  7  8  1  0
  7 11  2  0
  8 10  1  0
  9 15  1  0
 10 16  1  0
 11 16  1  0
 12 19  1  0
 13 15  1  0
 13 17  1  0
 13 18  2  0
 14 15  1  0
M  CHG  1  17  -1
M  END
