MAK-UNK-27459e11-15
     RDKit          3D

 16 16  0  0  0  0  0  0  0  0999 V2000
   12.2446    0.2437   24.8008 C   0  0  0  0  0  0  0  0  0  0  0  0
   13.3860   -0.5560   24.8577 C   0  0  0  0  0  0  0  0  0  0  0  0
   11.2954    0.0344   23.8003 C   0  0  0  0  0  0  0  0  0  0  0  0
   12.6293   -1.7742   22.9133 C   0  0  0  0  0  0  0  0  0  0  0  0
   13.5784   -1.5649   23.9139 C   0  0  0  0  0  0  0  0  0  0  0  0
   11.4878   -0.9745   22.8565 C   0  0  0  0  0  0  0  0  0  0  0  0
   14.7622   -2.3936   23.9717 C   0  0  0  0  0  0  0  0  0  0  0  0
    6.5031    1.0989   20.9519 C   0  0  0  0  0  0  0  0  0  0  0  0
   10.4606   -1.2025   21.7749 C   0  0  0  0  0  0  0  0  0  0  0  0
    9.0447   -0.8341   22.2112 C   0  0  0  0  0  0  0  0  0  0  0  0
   15.6829   -2.1996   24.9309 N   0  0  0  0  0  0  0  0  0  0  0  0
    8.0448   -1.0852   21.1577 N   0  0  0  0  0  0  0  0  0  0  0  0
   14.9555   -3.3690   23.0683 N   0  0  0  0  0  0  0  0  0  0  0  0
    7.0182   -0.4143   18.8794 O   0  0  0  0  0  0  0  0  0  0  0  0
    8.8739    0.9752   19.8705 O   0  0  0  0  0  0  0  0  0  0  0  0
    7.6926    0.1494   20.0324 S   0  0  0  0  0  0  0  0  0  0  0  0
  1  2  2  0
  1  3  1  0
  2  5  1  0
  3  6  2  0
  4  5  2  0
  4  6  1  0
  5  7  1  0
  6  9  1  0
  7 11  1  0
  7 13  2  0
  8 16  1  0
  9 10  1  0
 10 12  1  0
 12 16  1  0
 14 16  2  0
 15 16  2  0
M  CHG  1  13   1
M  END
