MAK-UNK-10572812-5
     RDKit          3D

 33 38  0  0  1  0  0  0  0  0999 V2000
    5.4607   -2.6735   27.2430 C   0  0  0  0  0  0  0  0  0  0  0  0
    6.4123   -2.6125   26.2266 C   0  0  0  0  0  0  0  0  0  0  0  0
    7.9237    6.1586   22.5130 C   0  0  0  0  0  0  0  0  0  0  0  0
    8.9239    6.5946   23.3868 C   0  0  0  0  0  0  0  0  0  0  0  0
    9.5102    4.3062   23.9496 C   0  0  0  0  0  0  0  0  0  0  0  0
    5.3341   -3.8499   27.9695 C   0  0  0  0  0  0  0  0  0  0  0  0
    7.0226    2.7269   21.7867 C   0  0  0  0  0  0  0  0  0  0  0  0
    8.6037   -5.4062   25.3705 C   0  0  0  0  0  0  0  0  0  0  0  0
    7.1959   -3.7541   25.9926 C   0  0  0  0  0  0  0  0  0  0  0  0
    8.5077    3.8431   23.0743 C   0  0  0  0  0  0  0  0  0  0  0  0
    8.0445    2.5532   22.6913 C   0  0  0  0  0  0  0  0  0  0  0  0
    8.2366   -4.1070   25.0932 C   0  0  0  0  0  0  0  0  0  0  0  0
    7.7392    4.7781   22.3777 C   0  0  0  0  0  0  0  0  0  0  0  0
    9.7061    5.6844   24.0950 C   0  0  0  0  0  0  0  0  0  0  0  0
    6.9632   -4.8663   26.7963 C   0  0  0  0  0  0  0  0  0  0  0  0
    7.7868   -2.2846   23.4159 C   0  0  0  0  0  0  0  0  0  0  0  0
   10.1025   -2.4684   24.4842 C   0  0  0  0  0  0  0  0  0  0  0  0
   11.3256   -0.3720   24.0562 C   0  0  0  0  0  0  0  0  0  0  0  0
   10.5047   -1.6413   22.1072 C   0  0  0  0  0  0  0  0  0  0  0  0
    7.4222    0.1865   23.2741 C   0  0  0  0  0  0  0  0  0  0  0  0
   11.1373    0.8454   23.1539 C   0  0  0  0  0  0  0  0  0  0  0  0
    9.7726   -0.4514   21.4900 C   0  0  0  0  0  0  0  0  0  0  0  0
    8.8423   -3.2219   24.0168 C   0  0  0  0  0  0  0  0  0  0  0  0
    8.5773    1.2147   23.1859 C   0  0  0  0  0  0  0  0  0  0  0  0
    6.0597   -4.9778   27.7883 N   0  0  0  0  0  0  0  0  0  0  0  0
    6.8459    4.0722   21.6037 N   0  0  0  0  0  0  0  0  0  0  0  0
    7.8249   -5.8569   26.4046 N   0  0  0  0  0  0  0  0  0  0  0  0
    7.8386   -1.0119   23.9656 N   0  0  0  0  0  0  0  0  0  0  0  0
   10.6211   -1.5472   23.5613 N   0  0  0  0  0  0  0  0  0  0  0  0
    9.8290    0.7740   22.3773 N   0  0  0  0  0  0  0  0  0  0  0  0
    7.0389   -2.6419   22.5090 O   0  0  0  0  0  0  0  0  0  0  0  0
   10.5502   -2.6014   25.6252 O   0  0  0  0  0  0  0  0  0  0  0  0
   10.6582    6.1329   24.9245 F   0  0  0  0  0  0  0  0  0  0  0  0
  1  2  1  0
  1  6  2  0
  2  9  2  0
  3  4  1  0
  3 13  2  0
  4 14  2  0
  5 10  2  0
  5 14  1  0
  6 25  1  0
  7 11  2  0
  7 26  1  0
  8 12  2  0
  8 27  1  0
  9 12  1  0
  9 15  1  0
 10 11  1  0
 10 13  1  0
 11 24  1  0
 12 23  1  0
 13 26  1  0
 14 33  1  0
 15 25  2  0
 15 27  1  0
 16 23  1  0
 16 28  1  0
 16 31  2  0
 17 23  1  0
 17 29  1  0
 17 32  2  0
 18 21  1  0
 18 29  1  0
 19 22  1  0
 19 29  1  0
 20 24  1  0
 20 28  1  0
 21 30  1  0
 22 30  1  0
 24 30  1  0
M  CHG  1  30   1
M  END
