MAK-UNK-de9577cf-2
     RDKit          3D

 37 40  0  0  1  0  0  0  0  0999 V2000
   13.6251    5.9774   21.7524 C   0  0  0  0  0  0  0  0  0  0  0  0
   13.9129    7.0096   22.6452 C   0  0  0  0  0  0  0  0  0  0  0  0
    7.5601    6.6947   26.3855 C   0  0  0  0  0  0  0  0  0  0  0  0
   12.8580    4.8891   22.1684 C   0  0  0  0  0  0  0  0  0  0  0  0
    9.1584   -4.7934   25.2977 C   0  0  0  0  0  0  0  0  0  0  0  0
    7.5702   -3.1066   25.9830 C   0  0  0  0  0  0  0  0  0  0  0  0
   13.4338    6.9537   23.9540 C   0  0  0  0  0  0  0  0  0  0  0  0
    8.4487    6.3435   25.3754 C   0  0  0  0  0  0  0  0  0  0  0  0
    9.7789   -3.8682   24.4584 C   0  0  0  0  0  0  0  0  0  0  0  0
    8.1907   -2.1814   25.1436 C   0  0  0  0  0  0  0  0  0  0  0  0
   12.0083    2.5167   24.4634 C   0  0  0  0  0  0  0  0  0  0  0  0
    6.3650    5.9987   26.4689 C   0  0  0  0  0  0  0  0  0  0  0  0
    6.8995    4.6867   24.6603 C   0  0  0  0  0  0  0  0  0  0  0  0
    9.7643    2.4553   24.2893 C   0  0  0  0  0  0  0  0  0  0  0  0
   12.3789    4.8331   23.4772 C   0  0  0  0  0  0  0  0  0  0  0  0
    8.0540   -4.4126   26.0600 C   0  0  0  0  0  0  0  0  0  0  0  0
   10.8569    1.7281   24.7072 C   0  0  0  0  0  0  0  0  0  0  0  0
   12.6667    5.8654   24.3700 C   0  0  0  0  0  0  0  0  0  0  0  0
    9.2951   -2.5622   24.3813 C   0  0  0  0  0  0  0  0  0  0  0  0
    8.1196    5.3214   24.4920 C   0  0  0  0  0  0  0  0  0  0  0  0
   11.5843    3.7019   23.9041 C   0  0  0  0  0  0  0  0  0  0  0  0
    7.4048   -5.3782   26.9324 C   0  0  0  0  0  0  0  0  0  0  0  0
   12.3030   -1.5828   24.9293 C   0  0  0  0  0  0  0  0  0  0  0  0
    5.6234   -5.6772   28.4912 C   0  0  0  0  0  0  0  0  0  0  0  0
   10.8306    0.3532   25.3098 C   0  0  0  0  0  0  0  0  0  0  0  0
    6.0105    5.0002   25.6293 N   0  0  0  0  0  0  0  0  0  0  0  0
   10.2184    3.6535   23.8032 N   0  0  0  0  0  0  0  0  0  0  0  0
   11.2746   -0.6849   24.3450 N   0  0  0  0  0  0  0  0  0  0  0  0
    7.7625   -6.5565   27.0617 O   0  0  0  0  0  0  0  0  0  0  0  0
    8.4484    4.1994   22.1349 O   0  0  0  0  0  0  0  0  0  0  0  0
   10.0465    6.0246   22.9013 O   0  0  0  0  0  0  0  0  0  0  0  0
   10.7389   -2.1370   22.2592 O   0  0  0  0  0  0  0  0  0  0  0  0
    9.0911   -0.3866   22.9697 O   0  0  0  0  0  0  0  0  0  0  0  0
    6.3456   -4.8232   27.5974 O   0  0  0  0  0  0  0  0  0  0  0  0
   12.2134    5.8266   25.6316 F   0  0  0  0  0  0  0  0  0  0  0  0
    9.2276    4.8451   23.1908 S   0  0  0  0  0  0  0  0  0  0  0  0
   10.0832   -1.3879   23.3153 S   0  0  0  0  0  0  0  0  0  0  0  0
  1  2  2  0
  1  4  1  0
  2  7  1  0
  3  8  2  0
  3 12  1  0
  4 15  2  0
  5  9  2  0
  5 16  1  0
  6 10  1  0
  6 16  2  0
  7 18  2  0
  8 20  1  0
  9 19  1  0
 10 19  2  0
 11 17  1  0
 11 21  2  0
 12 26  2  0
 13 20  2  0
 13 26  1  0
 14 17  2  0
 14 27  1  0
 15 18  1  0
 15 21  1  0
 16 22  1  0
 17 25  1  0
 18 35  1  0
 19 37  1  0
 20 36  1  0
 21 27  1  0
 22 29  2  0
 22 34  1  0
 23 28  1  0
 24 34  1  0
 25 28  1  0
 27 36  1  0
 28 37  1  0
 30 36  2  0
 31 36  2  0
 32 37  2  0
 33 37  2  0
M  END
