MAK-UNK-5e88aa6a-2
     RDKit          3D

 17 18  0  0  0  0  0  0  0  0999 V2000
   13.1424   -3.0475   25.8715 C   0  0  0  0  0  0  0  0  0  0  0  0
   12.7034   -0.6774   25.7062 C   0  0  0  0  0  0  0  0  0  0  0  0
   11.8514   -3.3182   25.4180 C   0  0  0  0  0  0  0  0  0  0  0  0
   11.4124   -0.9482   25.2526 C   0  0  0  0  0  0  0  0  0  0  0  0
   13.5684   -1.7270   26.0156 C   0  0  0  0  0  0  0  0  0  0  0  0
   10.9865   -2.2686   25.1085 C   0  0  0  0  0  0  0  0  0  0  0  0
    7.4130   -2.2273   22.7537 C   0  0  0  0  0  0  0  0  0  0  0  0
    7.4031   -4.3586   24.1147 C   0  0  0  0  0  0  0  0  0  0  0  0
    8.8822   -2.4610   22.3953 C   0  0  0  0  0  0  0  0  0  0  0  0
    8.8739   -4.5926   23.7608 C   0  0  0  0  0  0  0  0  0  0  0  0
    6.6554   -3.5269   23.0624 C   0  0  0  0  0  0  0  0  0  0  0  0
    9.6090   -3.2882   23.4557 C   0  0  0  0  0  0  0  0  0  0  0  0
   14.9488   -1.4374   26.4999 C   0  0  0  0  0  0  0  0  0  0  0  0
    4.3400   -5.3852   22.8152 C   0  0  0  0  0  0  0  0  0  0  0  0
    6.3823   -4.3371   21.7921 C   0  0  0  0  0  0  0  0  0  0  0  0
    5.6641   -5.6430   22.1139 C   0  0  0  0  0  0  0  0  0  0  0  0
    9.7193   -2.5347   24.6619 O   0  0  0  0  0  0  0  0  0  0  0  0
  1  3  2  0
  1  5  1  0
  2  4  1  0
  2  5  2  0
  3  6  1  0
  4  6  2  0
  5 13  1  0
  6 17  1  0
  7  9  1  0
  7 11  1  0
  8 10  1  0
  8 11  1  0
  9 12  1  0
 10 12  1  0
 11 15  1  0
 12 17  1  0
 14 16  1  0
 15 16  1  0
M  END
