MAK-UNK-0955449e-12
     RDKit          3D

 23 25  0  0  1  0  0  0  0  0999 V2000
    4.7882    0.5547   19.4557 C   0  0  0  0  0  0  0  0  0  0  0  0
   13.2352   -1.2573   22.7404 C   0  0  0  0  0  0  0  0  0  0  0  0
    4.8854    0.7320   20.8358 C   0  0  0  0  0  0  0  0  0  0  0  0
    5.8943    0.1129   18.7297 C   0  0  0  0  0  0  0  0  0  0  0  0
   13.2228   -0.0663   23.4664 C   0  0  0  0  0  0  0  0  0  0  0  0
   12.0425   -1.9386   22.4977 C   0  0  0  0  0  0  0  0  0  0  0  0
    6.0887    0.4676   21.4899 C   0  0  0  0  0  0  0  0  0  0  0  0
    7.0976   -0.1515   19.3838 C   0  0  0  0  0  0  0  0  0  0  0  0
   12.0177    0.4432   23.9498 C   0  0  0  0  0  0  0  0  0  0  0  0
    9.2522   -3.4174   23.0952 C   0  0  0  0  0  0  0  0  0  0  0  0
    7.5338   -2.5032   21.9632 C   0  0  0  0  0  0  0  0  0  0  0  0
   10.8374   -1.4291   22.9811 C   0  0  0  0  0  0  0  0  0  0  0  0
    7.1948    0.0258   20.7640 C   0  0  0  0  0  0  0  0  0  0  0  0
    7.9409   -3.6484   22.6114 C   0  0  0  0  0  0  0  0  0  0  0  0
   10.8249   -0.2382   23.7071 C   0  0  0  0  0  0  0  0  0  0  0  0
    9.6065   -2.1379   22.7281 C   0  0  0  0  0  0  0  0  0  0  0  0
    6.5388   -4.4120   25.1448 C   0  0  0  0  0  0  0  0  0  0  0  0
    7.1551   -4.8867   22.7713 C   0  0  0  0  0  0  0  0  0  0  0  0
    8.5017   -0.2612   21.4736 C   0  0  0  0  0  0  0  0  0  0  0  0
    8.5542   -1.5916   22.0408 N   0  0  0  0  0  0  0  0  0  0  0  0
    6.0647   -4.7865   23.7900 N   0  0  0  0  0  0  0  0  0  0  0  0
    9.6024   -0.0155   20.5940 O   0  0  0  0  0  0  0  0  0  0  0  0
    9.6746    0.2650   24.1786 F   0  0  0  0  0  0  0  0  0  0  0  0
  1  3  2  0
  1  4  1  0
  2  5  2  0
  2  6  1  0
  3  7  1  0
  4  8  2  0
  5  9  1  0
  6 12  2  0
  7 13  2  0
  8 13  1  0
  9 15  2  0
 10 14  1  0
 10 16  2  0
 11 14  2  0
 11 20  1  0
 12 15  1  0
 12 16  1  0
 13 19  1  0
 14 18  1  0
 15 23  1  0
 16 20  1  0
 17 21  1  0
 18 21  1  0
 19 20  1  0
 19 22  1  0
M  CHG  1  21   1
M  END
