MAK-UNK-37f1d6fa-6
     RDKit          3D

 31 34  0  0  0  0  0  0  0  0999 V2000
    8.0601    6.8940   24.0809 C   0  0  0  0  0  0  0  0  0  0  0  0
    6.3822   -0.6508   18.8742 C   0  0  0  0  0  0  0  0  0  0  0  0
    9.3276    6.3887   24.3705 C   0  0  0  0  0  0  0  0  0  0  0  0
    9.0498   -1.1802   22.7182 C   0  0  0  0  0  0  0  0  0  0  0  0
    7.1939    6.1747   23.2575 C   0  0  0  0  0  0  0  0  0  0  0  0
    6.6045    0.4854   19.6442 C   0  0  0  0  0  0  0  0  0  0  0  0
    8.1548   -0.8138   23.7274 C   0  0  0  0  0  0  0  0  0  0  0  0
    9.7616    0.7464   24.6659 C   0  0  0  0  0  0  0  0  0  0  0  0
    8.8626    4.4448   23.0132 C   0  0  0  0  0  0  0  0  0  0  0  0
    5.1584   -0.7726   18.2360 C   0  0  0  0  0  0  0  0  0  0  0  0
    4.4211    1.2358   19.0733 C   0  0  0  0  0  0  0  0  0  0  0  0
   12.4026    0.0968   22.2240 C   0  0  0  0  0  0  0  0  0  0  0  0
   10.6807    0.3930   23.6581 C   0  0  0  0  0  0  0  0  0  0  0  0
    9.7288    5.1641   23.8366 C   0  0  0  0  0  0  0  0  0  0  0  0
   12.0068    0.7987   23.3391 C   0  0  0  0  0  0  0  0  0  0  0  0
   10.3044   -0.5602   22.7094 C   0  0  0  0  0  0  0  0  0  0  0  0
    7.5951    4.9502   22.7237 C   0  0  0  0  0  0  0  0  0  0  0  0
    5.6103    1.4515   19.7509 C   0  0  0  0  0  0  0  0  0  0  0  0
    8.5030    0.1344   24.6872 C   0  0  0  0  0  0  0  0  0  0  0  0
   11.0790    4.6271   24.1459 C   0  0  0  0  0  0  0  0  0  0  0  0
    6.9436    2.9825   21.2666 C   0  0  0  0  0  0  0  0  0  0  0  0
   12.8207    1.7942   24.0663 C   0  0  0  0  0  0  0  0  0  0  0  0
   12.9192    3.1593   23.3616 C   0  0  0  0  0  0  0  0  0  0  0  0
    4.1686    0.1447   18.3160 N   0  0  0  0  0  0  0  0  0  0  0  0
   11.3690   -0.7200   21.8513 N   0  0  0  0  0  0  0  0  0  0  0  0
    6.7284    4.2307   21.9003 N   0  0  0  0  0  0  0  0  0  0  0  0
    5.8070    2.6181   20.5271 N   0  0  0  0  0  0  0  0  0  0  0  0
   11.6313    3.7777   23.1950 N   0  0  0  0  0  0  0  0  0  0  0  0
   11.6184    4.9339   25.2058 O   0  0  0  0  0  0  0  0  0  0  0  0
    7.9740    2.3226   21.3554 O   0  0  0  0  0  0  0  0  0  0  0  0
    7.6228    0.4659   25.6417 F   0  0  0  0  0  0  0  0  0  0  0  0
  1  3  2  0
  1  5  1  0
  2  6  2  0
  2 10  1  0
  3 14  1  0
  4  7  2  0
  4 16  1  0
  5 17  2  0
  6 18  1  0
  7 19  1  0
  8 13  1  0
  8 19  2  0
  9 14  2  0
  9 17  1  0
 10 24  2  0
 11 18  2  0
 11 24  1  0
 12 15  2  0
 12 25  1  0
 13 15  1  0
 13 16  2  0
 14 20  1  0
 15 22  1  0
 16 25  1  0
 17 26  1  0
 18 27  1  0
 19 31  1  0
 20 28  1  0
 20 29  2  0
 21 26  1  0
 21 27  1  0
 21 30  2  0
 22 23  1  0
 23 28  1  0
M  END
