MAK-UNK-c7aa8293-10
     RDKit          3D

 23 25  0  0  1  0  0  0  0  0999 V2000
    7.6018   -5.7037   22.2510 C   0  0  0  0  0  0  0  0  0  0  0  0
    6.6565   -5.3621   21.2823 C   0  0  0  0  0  0  0  0  0  0  0  0
    8.5388   -4.7619   22.7029 C   0  0  0  0  0  0  0  0  0  0  0  0
    8.5402   -3.4775   22.1262 C   0  0  0  0  0  0  0  0  0  0  0  0
    6.6412   -4.0790   20.7434 C   0  0  0  0  0  0  0  0  0  0  0  0
    7.5792   -3.1386   21.1634 C   0  0  0  0  0  0  0  0  0  0  0  0
    9.5418   -2.4468   22.5767 C   0  0  0  0  0  0  0  0  0  0  0  0
   12.9257   -2.7794   24.4421 C   0  0  0  0  0  0  0  0  0  0  0  0
   11.9092   -0.2654   25.6155 C   0  0  0  0  0  0  0  0  0  0  0  0
    9.5883   -5.1303   23.7371 C   0  0  0  0  0  0  0  0  0  0  0  0
   11.6913   -2.0863   23.8495 C   0  0  0  0  0  0  0  0  0  0  0  0
   10.7552   -3.1191   23.2165 C   0  0  0  0  0  0  0  0  0  0  0  0
   13.8555   -1.7774   25.1264 C   0  0  0  0  0  0  0  0  0  0  0  0
   10.9613   -1.2455   24.9127 C   0  0  0  0  0  0  0  0  0  0  0  0
   13.1296   -0.9696   26.2046 C   0  0  0  0  0  0  0  0  0  0  0  0
    9.0141   -5.8473   24.9577 C   0  0  0  0  0  0  0  0  0  0  0  0
   10.1235   -6.1914   25.8698 N   0  0  0  0  0  0  0  0  0  0  0  0
   10.2880   -3.9845   24.2529 O   0  0  0  0  0  0  0  0  0  0  0  0
    5.7079   -3.7591   19.8042 O   0  0  0  0  0  0  0  0  0  0  0  0
    7.5504   -1.8837   20.6268 O   0  0  0  0  0  0  0  0  0  0  0  0
   14.9515   -2.4853   25.6969 O   0  0  0  0  0  0  0  0  0  0  0  0
    9.9156   -0.5038   24.2880 O   0  0  0  0  0  0  0  0  0  0  0  0
   12.7098   -1.8471   27.2500 O   0  0  0  0  0  0  0  0  0  0  0  0
  1  2  2  0
  1  3  1  0
  2  5  1  0
  3  4  2  0
  3 10  1  0
  4  6  1  0
  4  7  1  0
  5  6  2  0
  5 19  1  0
  6 20  1  0
  7 12  1  0
  8 11  1  0
  8 13  1  0
  9 14  1  0
  9 15  1  0
 10 16  1  0
 10 18  1  0
 11 12  1  0
 11 14  1  0
 12 18  1  0
 13 15  1  0
 13 21  1  0
 14 22  1  0
 15 23  1  0
 16 17  1  0
M  CHG  1  17   1
M  END
