MAK-UNK-902cc841-18
     RDKit          3D

 25 27  0  0  1  0  0  0  0  0999 V2000
   12.3539   -1.5427   22.3291 C   0  0  0  0  0  0  0  0  0  0  0  0
   10.3446   -3.6278   24.2795 C   0  0  0  0  0  0  0  0  0  0  0  0
   13.5742   -0.8998   22.4606 C   0  0  0  0  0  0  0  0  0  0  0  0
   12.6215    0.8746   23.5661 C   0  0  0  0  0  0  0  0  0  0  0  0
    9.8418   -4.2626   25.3939 C   0  0  0  0  0  0  0  0  0  0  0  0
    8.4948   -2.3049   24.7595 C   0  0  0  0  0  0  0  0  0  0  0  0
   11.2287   -0.9171   22.8544 C   0  0  0  0  0  0  0  0  0  0  0  0
    9.5645   -2.4936   23.9120 C   0  0  0  0  0  0  0  0  0  0  0  0
   11.3565    0.3149   23.4862 C   0  0  0  0  0  0  0  0  0  0  0  0
    6.5451   -1.0523   18.9010 C   0  0  0  0  0  0  0  0  0  0  0  0
   10.2351    2.2173   24.6894 C   0  0  0  0  0  0  0  0  0  0  0  0
    8.6859   -0.4940   20.0061 C   0  0  0  0  0  0  0  0  0  0  0  0
    7.2078   -2.1400   21.1014 C   0  0  0  0  0  0  0  0  0  0  0  0
    9.8845   -1.4101   20.2040 C   0  0  0  0  0  0  0  0  0  0  0  0
    8.3878   -3.0783   21.3169 C   0  0  0  0  0  0  0  0  0  0  0  0
    6.5196    0.3279   18.2943 C   0  0  0  0  0  0  0  0  0  0  0  0
    8.8415    2.5917   25.1277 C   0  0  0  0  0  0  0  0  0  0  0  0
    9.8768   -1.5992   22.7239 C   0  0  0  0  0  0  0  0  0  0  0  0
   13.7376    0.2970   23.0677 N   0  0  0  0  0  0  0  0  0  0  0  0
    7.4381   -1.2566   19.9528 N   0  0  0  0  0  0  0  0  0  0  0  0
   10.2581    0.9813   24.0289 N   0  0  0  0  0  0  0  0  0  0  0  0
    9.6798   -2.3003   21.4077 N   0  0  0  0  0  0  0  0  0  0  0  0
    5.7915   -1.9208   18.4540 O   0  0  0  0  0  0  0  0  0  0  0  0
   11.1855    2.9590   24.9164 O   0  0  0  0  0  0  0  0  0  0  0  0
    8.4346   -3.4919   25.9922 S   0  0  0  0  0  0  0  0  0  0  0  0
  1  3  2  0
  1  7  1  0
  2  5  2  0
  2  8  1  0
  3 19  1  0
  4  9  1  0
  4 19  2  0
  5 25  1  0
  6  8  2  0
  6 25  1  0
  7  9  2  0
  7 18  1  0
  8 18  1  0
  9 21  1  0
 10 16  1  0
 10 20  1  0
 10 23  2  0
 11 17  1  0
 11 21  1  0
 11 24  2  0
 12 14  1  0
 12 20  1  0
 13 15  1  0
 13 20  1  0
 14 22  1  0
 15 22  1  0
 18 22  1  0
M  CHG  1  22   1
M  END
