MAK-UNK-e4a48a85-22
     RDKit          3D

 24 26  0  0  0  0  0  0  0  0999 V2000
    6.6261   -6.4093   28.8018 C   0  0  0  0  0  0  0  0  0  0  0  0
    8.6771   -2.6819   26.6827 C   0  0  0  0  0  0  0  0  0  0  0  0
    5.2637   -6.5982   28.7249 C   0  0  0  0  0  0  0  0  0  0  0  0
    5.9764   -4.5383   27.5854 C   0  0  0  0  0  0  0  0  0  0  0  0
    7.0390   -5.2159   28.1419 C   0  0  0  0  0  0  0  0  0  0  0  0
    8.8229   -4.0495   26.7958 C   0  0  0  0  0  0  0  0  0  0  0  0
    9.2977   -4.6943   25.6720 C   0  0  0  0  0  0  0  0  0  0  0  0
    9.4242   -2.7292   24.5363 C   0  0  0  0  0  0  0  0  0  0  0  0
    6.1800   -1.6829   19.0569 C   0  0  0  0  0  0  0  0  0  0  0  0
    6.4028   -2.2234   21.4610 C   0  0  0  0  0  0  0  0  0  0  0  0
    7.6390   -0.2760   20.5932 C   0  0  0  0  0  0  0  0  0  0  0  0
    7.6571   -2.7375   22.1523 C   0  0  0  0  0  0  0  0  0  0  0  0
    8.9124   -0.7602   21.2735 C   0  0  0  0  0  0  0  0  0  0  0  0
    8.4807   -4.7487   28.0618 C   0  0  0  0  0  0  0  0  0  0  0  0
    9.7599   -1.9917   23.2737 C   0  0  0  0  0  0  0  0  0  0  0  0
    6.5848   -0.7876   17.9131 C   0  0  0  0  0  0  0  0  0  0  0  0
    8.9693   -1.9869   25.5638 N   0  0  0  0  0  0  0  0  0  0  0  0
    9.6094   -4.0630   24.5210 N   0  0  0  0  0  0  0  0  0  0  0  0
    6.7422   -1.3994   20.3008 N   0  0  0  0  0  0  0  0  0  0  0  0
    9.4682   -6.0996   25.7280 N   0  0  0  0  0  0  0  0  0  0  0  0
    8.5441   -1.5632   22.5010 N   0  0  0  0  0  0  0  0  0  0  0  0
    5.3900   -2.6073   18.8486 O   0  0  0  0  0  0  0  0  0  0  0  0
    4.4885   -5.3402   27.8597 S   0  0  0  0  0  0  0  0  0  0  0  0
    8.0312   -1.4978   17.2050 Cl  0  0  0  0  0  0  0  0  0  0  0  0
  1  3  2  0
  1  5  1  0
  2  6  2  0
  2 17  1  0
  3 23  1  0
  4  5  2  0
  4 23  1  0
  5 14  1  0
  6  7  1  0
  6 14  1  0
  7 18  2  0
  7 20  1  0
  8 15  1  0
  8 17  2  0
  8 18  1  0
  9 16  1  0
  9 19  1  0
  9 22  2  0
 10 12  1  0
 10 19  1  0
 11 13  1  0
 11 19  1  0
 12 21  1  0
 13 21  1  0
 15 21  1  0
 16 24  1  0
M  CHG  1  21   1
M  END
