MAK-UNK-148caf23-6
     RDKit          3D

 34 37  0  0  1  0  0  0  0  0999 V2000
   12.5567    5.3589   24.7981 C   0  0  0  0  0  0  0  0  0  0  0  0
    5.4746   -5.7457   24.0176 C   0  0  0  0  0  0  0  0  0  0  0  0
    5.5454   -6.5325   22.8681 C   0  0  0  0  0  0  0  0  0  0  0  0
    6.9576   -0.7136   18.2053 C   0  0  0  0  0  0  0  0  0  0  0  0
   12.4879    3.5868   23.1046 C   0  0  0  0  0  0  0  0  0  0  0  0
    6.2777   -4.6114   24.1370 C   0  0  0  0  0  0  0  0  0  0  0  0
    6.4195   -6.1853   21.8380 C   0  0  0  0  0  0  0  0  0  0  0  0
    6.7999   -0.5455   19.5765 C   0  0  0  0  0  0  0  0  0  0  0  0
   12.6341    2.2468   22.7639 C   0  0  0  0  0  0  0  0  0  0  0  0
    9.2499   -2.9845   23.7674 C   0  0  0  0  0  0  0  0  0  0  0  0
    6.6664   -1.9564   17.6665 C   0  0  0  0  0  0  0  0  0  0  0  0
   13.0509    3.0246   25.3459 C   0  0  0  0  0  0  0  0  0  0  0  0
    6.0970   -2.8130   19.7208 C   0  0  0  0  0  0  0  0  0  0  0  0
    8.6017   -0.9406   23.0804 C   0  0  0  0  0  0  0  0  0  0  0  0
   12.6984    3.9914   24.4181 C   0  0  0  0  0  0  0  0  0  0  0  0
    7.1517   -4.2642   23.1069 C   0  0  0  0  0  0  0  0  0  0  0  0
    9.6411   -1.6265   23.6689 C   0  0  0  0  0  0  0  0  0  0  0  0
    7.2227   -5.0511   21.9574 C   0  0  0  0  0  0  0  0  0  0  0  0
    6.3618   -1.6104   20.3560 C   0  0  0  0  0  0  0  0  0  0  0  0
    7.9833   -3.0872   23.2358 C   0  0  0  0  0  0  0  0  0  0  0  0
   12.9897    1.3581   23.7657 C   0  0  0  0  0  0  0  0  0  0  0  0
   15.6066    0.0339   22.7312 C   0  0  0  0  0  0  0  0  0  0  0  0
   10.9464   -1.0415   24.1218 C   0  0  0  0  0  0  0  0  0  0  0  0
   14.1974   -0.3877   22.3330 C   0  0  0  0  0  0  0  0  0  0  0  0
   13.1578   -0.1079   23.4312 C   0  0  0  0  0  0  0  0  0  0  0  0
   12.4413    6.4715   25.1072 N   0  0  0  0  0  0  0  0  0  0  0  0
    6.2386   -3.0143   18.3915 N   0  0  0  0  0  0  0  0  0  0  0  0
   13.2025    1.7137   25.0525 N   0  0  0  0  0  0  0  0  0  0  0  0
    7.5995   -1.8387   22.8212 N   0  0  0  0  0  0  0  0  0  0  0  0
   11.8640   -0.7314   23.0003 N   0  0  0  0  0  0  0  0  0  0  0  0
    5.9490   -0.0166   22.4084 O   0  0  0  0  0  0  0  0  0  0  0  0
    5.1475   -2.4296   22.4989 O   0  0  0  0  0  0  0  0  0  0  0  0
    8.0578   -4.7307   20.9581 F   0  0  0  0  0  0  0  0  0  0  0  0
    6.1486   -1.4341   22.1084 S   0  0  0  0  0  0  0  0  0  0  0  0
  1 15  1  0
  1 26  3  0
  2  3  2  0
  2  6  1  0
  3  7  1  0
  4  8  2  0
  4 11  1  0
  5  9  2  0
  5 15  1  0
  6 16  2  0
  7 18  2  0
  8 19  1  0
  9 21  1  0
 10 17  1  0
 10 20  2  0
 11 27  2  0
 12 15  2  0
 12 28  1  0
 13 19  2  0
 13 27  1  0
 14 17  2  0
 14 29  1  0
 16 18  1  0
 16 20  1  0
 17 23  1  0
 18 33  1  0
 19 34  1  0
 20 29  1  0
 21 25  1  0
 21 28  2  0
 22 24  1  0
 23 30  1  0
 24 25  1  0
 25 30  1  0
 29 34  1  0
 31 34  2  0
 32 34  2  0
M  CHG  1  30   1
M  END
