MAK-UNK-9e4a73aa-13
     RDKit          3D

 26 29  0  0  0  0  0  0  0  0999 V2000
    8.1646   -4.8619   25.2145 C   0  0  0  0  0  0  0  0  0  0  0  0
    8.5833   -3.6088   25.6615 C   0  0  0  0  0  0  0  0  0  0  0  0
    8.1640   -5.1513   23.8499 C   0  0  0  0  0  0  0  0  0  0  0  0
    5.9391    0.9852   19.0361 C   0  0  0  0  0  0  0  0  0  0  0  0
    9.0012   -2.6448   24.7440 C   0  0  0  0  0  0  0  0  0  0  0  0
    8.5819   -4.1873   22.9324 C   0  0  0  0  0  0  0  0  0  0  0  0
    6.8121    0.5389   20.0126 C   0  0  0  0  0  0  0  0  0  0  0  0
   12.4295    0.1894   21.7973 C   0  0  0  0  0  0  0  0  0  0  0  0
   11.7470   -1.9903   23.3628 C   0  0  0  0  0  0  0  0  0  0  0  0
    6.3401    0.8900   17.7187 C   0  0  0  0  0  0  0  0  0  0  0  0
   11.1369   -0.3595   21.7157 C   0  0  0  0  0  0  0  0  0  0  0  0
    9.0006   -2.9341   23.3794 C   0  0  0  0  0  0  0  0  0  0  0  0
   10.7606   -1.4315   22.5253 C   0  0  0  0  0  0  0  0  0  0  0  0
   13.3713   -0.3496   22.6673 C   0  0  0  0  0  0  0  0  0  0  0  0
   13.0335   -1.4495   23.4411 C   0  0  0  0  0  0  0  0  0  0  0  0
    8.0281    0.0267   19.6071 C   0  0  0  0  0  0  0  0  0  0  0  0
   10.2076    0.1783   20.7066 C   0  0  0  0  0  0  0  0  0  0  0  0
    8.4883   -1.4656   21.5003 C   0  0  0  0  0  0  0  0  0  0  0  0
    7.5363    0.3843   17.3506 N   0  0  0  0  0  0  0  0  0  0  0  0
    8.3941   -0.0546   18.3104 N   0  0  0  0  0  0  0  0  0  0  0  0
    9.4306   -1.9425   22.4359 N   0  0  0  0  0  0  0  0  0  0  0  0
    8.9459   -0.4412   20.6268 N   0  0  0  0  0  0  0  0  0  0  0  0
   10.6186    1.0716   19.9679 O   0  0  0  0  0  0  0  0  0  0  0  0
    7.3128   -1.8547   21.5070 O   0  0  0  0  0  0  0  0  0  0  0  0
   14.5979    0.1872   22.7287 F   0  0  0  0  0  0  0  0  0  0  0  0
   14.1930   -2.1497   24.5044 Cl  0  0  0  0  0  0  0  0  0  0  0  0
  1  2  2  0
  1  3  1  0
  2  5  1  0
  3  6  2  0
  4  7  2  0
  4 10  1  0
  5 12  2  0
  6 12  1  0
  7 16  1  0
  8 11  2  0
  8 14  1  0
  9 13  2  0
  9 15  1  0
 10 19  2  0
 11 13  1  0
 11 17  1  0
 12 21  1  0
 13 21  1  0
 14 15  2  0
 14 25  1  0
 15 26  1  0
 16 20  2  0
 16 22  1  0
 17 22  1  0
 17 23  2  0
 18 21  1  0
 18 22  1  0
 18 24  2  0
 19 20  1  0
M  END
