MAK-UNK-af83ef51-30
     RDKit          3D

 30 32  0  0  1  0  0  0  0  0999 V2000
    6.2648   -4.4577   25.2294 C   0  0  0  0  0  0  0  0  0  0  0  0
    5.5772   -5.1553   26.2163 C   0  0  0  0  0  0  0  0  0  0  0  0
    5.9920   -6.3302   23.7887 C   0  0  0  0  0  0  0  0  0  0  0  0
    6.4804   -5.0493   23.9897 C   0  0  0  0  0  0  0  0  0  0  0  0
    5.1291   -6.4314   25.9155 C   0  0  0  0  0  0  0  0  0  0  0  0
   12.9577    3.3910   24.0853 C   0  0  0  0  0  0  0  0  0  0  0  0
   10.5709    2.7960   23.8200 C   0  0  0  0  0  0  0  0  0  0  0  0
   12.2284    0.9726   23.7894 C   0  0  0  0  0  0  0  0  0  0  0  0
    9.9172    2.2507   22.5587 C   0  0  0  0  0  0  0  0  0  0  0  0
   11.5981    0.3983   22.5278 C   0  0  0  0  0  0  0  0  0  0  0  0
    7.2158   -4.3263   22.9098 C   0  0  0  0  0  0  0  0  0  0  0  0
    8.8016   -2.0248   22.1661 C   0  0  0  0  0  0  0  0  0  0  0  0
    6.5274   -2.9883   22.5816 C   0  0  0  0  0  0  0  0  0  0  0  0
    7.3806   -2.1695   21.6061 C   0  0  0  0  0  0  0  0  0  0  0  0
    9.3920   -3.4050   22.4958 C   0  0  0  0  0  0  0  0  0  0  0  0
    3.4327   -7.5223   29.0866 C   0  0  0  0  0  0  0  0  0  0  0  0
   14.3874    2.9149   24.1395 C   0  0  0  0  0  0  0  0  0  0  0  0
    4.1813   -6.5680   28.2195 C   0  0  0  0  0  0  0  0  0  0  0  0
    9.4246    0.1351   21.3270 C   0  0  0  0  0  0  0  0  0  0  0  0
    5.3195   -7.0391   24.7230 N   0  0  0  0  0  0  0  0  0  0  0  0
   11.9818    2.4152   23.8877 N   0  0  0  0  0  0  0  0  0  0  0  0
    4.4295   -7.1289   26.9316 N   0  0  0  0  0  0  0  0  0  0  0  0
    9.6438   -1.3010   21.2231 N   0  0  0  0  0  0  0  0  0  0  0  0
   10.1284    0.7542   22.5017 N   0  0  0  0  0  0  0  0  0  0  0  0
   12.7178    4.5945   24.2123 O   0  0  0  0  0  0  0  0  0  0  0  0
    8.5384   -4.0950   23.4115 O   0  0  0  0  0  0  0  0  0  0  0  0
    5.2458   -3.2311   22.0104 O   0  0  0  0  0  0  0  0  0  0  0  0
    7.4355   -2.8491   20.3481 O   0  0  0  0  0  0  0  0  0  0  0  0
   10.6722   -3.2180   23.0977 O   0  0  0  0  0  0  0  0  0  0  0  0
   14.9857    2.9273   22.4843 Cl  0  0  0  0  0  0  0  0  0  0  0  0
  1  2  2  0
  1  4  1  0
  2  5  1  0
  3  4  2  0
  3 20  1  0
  4 11  1  0
  5 20  2  0
  5 22  1  0
  6 17  1  0
  6 21  1  0
  6 25  2  0
  7  9  1  0
  7 21  1  0
  8 10  1  0
  8 21  1  0
  9 24  1  0
 10 24  1  0
 11 13  1  0
 11 26  1  0
 12 14  1  0
 12 15  1  0
 12 23  1  0
 13 14  1  0
 13 27  1  0
 14 28  1  0
 15 26  1  0
 15 29  1  0
 16 18  1  0
 17 30  1  0
 18 22  1  0
 19 23  1  0
 19 24  1  0
M  CHG  1  24   1
M  END
