MAK-UNK-8fdbca50-17
     RDKit          3D

 40 43  0  0  1  0  0  0  0  0999 V2000
   15.4017   -1.5282   27.7817 C   0  0  0  0  0  0  0  0  0  0  0  0
   16.4486   -1.8715   26.9263 C   0  0  0  0  0  0  0  0  0  0  0  0
    9.2794    2.9683   23.9988 C   0  0  0  0  0  0  0  0  0  0  0  0
   14.0834   -1.5874   27.3295 C   0  0  0  0  0  0  0  0  0  0  0  0
   16.1773   -2.2739   25.6186 C   0  0  0  0  0  0  0  0  0  0  0  0
   10.2670    2.2283   24.6394 C   0  0  0  0  0  0  0  0  0  0  0  0
   11.5632   -3.1072   25.6101 C   0  0  0  0  0  0  0  0  0  0  0  0
    9.2280    2.9203   22.6150 C   0  0  0  0  0  0  0  0  0  0  0  0
   11.0245    1.4922   22.5086 C   0  0  0  0  0  0  0  0  0  0  0  0
   10.5189   -1.3650   24.6385 C   0  0  0  0  0  0  0  0  0  0  0  0
   13.8122   -1.9898   26.0218 C   0  0  0  0  0  0  0  0  0  0  0  0
   10.3457   -2.6745   25.0291 C   0  0  0  0  0  0  0  0  0  0  0  0
   14.8591   -2.3331   25.1663 C   0  0  0  0  0  0  0  0  0  0  0  0
   11.1602    1.4734   23.8874 C   0  0  0  0  0  0  0  0  0  0  0  0
   12.4433   -2.0489   25.5571 C   0  0  0  0  0  0  0  0  0  0  0  0
    7.0002   -4.1438   22.0710 C   0  0  0  0  0  0  0  0  0  0  0  0
    5.9138   -0.4597   18.7085 C   0  0  0  0  0  0  0  0  0  0  0  0
    7.3974   -3.5416   19.6896 C   0  0  0  0  0  0  0  0  0  0  0  0
    7.7329   -1.8147   21.5249 C   0  0  0  0  0  0  0  0  0  0  0  0
    6.0839   -2.8470   19.3348 C   0  0  0  0  0  0  0  0  0  0  0  0
    6.4167   -1.1620   21.1001 C   0  0  0  0  0  0  0  0  0  0  0  0
    7.8189   -3.2956   21.1418 C   0  0  0  0  0  0  0  0  0  0  0  0
    6.5217   -6.7271   23.5575 C   0  0  0  0  0  0  0  0  0  0  0  0
    5.7713   -4.6551   24.7780 C   0  0  0  0  0  0  0  0  0  0  0  0
    9.8280   -5.5679   23.5739 C   0  0  0  0  0  0  0  0  0  0  0  0
    9.0892   -3.4959   24.8669 C   0  0  0  0  0  0  0  0  0  0  0  0
    5.9882    0.9791   19.1539 C   0  0  0  0  0  0  0  0  0  0  0  0
    6.9568   -5.4260   24.2158 C   0  0  0  0  0  0  0  0  0  0  0  0
    9.0246   -4.2678   23.5364 C   0  0  0  0  0  0  0  0  0  0  0  0
   10.0781    2.1987   21.8507 N   0  0  0  0  0  0  0  0  0  0  0  0
   11.7976   -0.9952   24.9647 N   0  0  0  0  0  0  0  0  0  0  0  0
    6.1360   -1.4286   19.6862 N   0  0  0  0  0  0  0  0  0  0  0  0
    7.6347   -4.5951   23.2289 N   0  0  0  0  0  0  0  0  0  0  0  0
    5.8292   -4.3996   21.7781 O   0  0  0  0  0  0  0  0  0  0  0  0
    5.6674   -0.7126   17.5264 O   0  0  0  0  0  0  0  0  0  0  0  0
   13.5100    0.3041   23.7023 O   0  0  0  0  0  0  0  0  0  0  0  0
   12.6996    1.1662   25.9546 O   0  0  0  0  0  0  0  0  0  0  0  0
   14.6150   -2.7222   23.9063 F   0  0  0  0  0  0  0  0  0  0  0  0
   12.4333    0.5165   24.6691 S   0  0  0  0  0  0  0  0  0  0  0  0
    5.7064    1.9645   17.7231 Cl  0  0  0  0  0  0  0  0  0  0  0  0
  1  2  2  0
  1  4  1  0
  2  5  1  0
  3  6  2  0
  3  8  1  0
  4 11  2  0
  5 13  2  0
  6 14  1  0
  7 12  1  0
  7 15  2  0
  8 30  2  0
  9 14  2  0
  9 30  1  0
 10 12  2  0
 10 31  1  0
 11 13  1  0
 11 15  1  0
 12 26  1  0
 13 38  1  0
 14 39  1  0
 15 31  1  0
 16 22  1  0
 16 33  1  0
 16 34  2  0
 17 27  1  0
 17 32  1  0
 17 35  2  0
 18 20  1  0
 18 22  1  0
 19 21  1  0
 19 22  1  0
 20 32  1  0
 21 32  1  0
 23 28  1  0
 24 28  1  0
 25 29  1  0
 26 29  1  0
 27 40  1  0
 28 33  1  0
 29 33  1  0
 31 39  1  0
 36 39  2  0
 37 39  2  0
M  END
