MAK-UNK-5e88aa6a-11
     RDKit          3D

 12 12  0  0  1  0  0  0  0  0999 V2000
    6.6809    0.7983   19.8373 C   0  0  0  0  0  0  0  0  0  0  0  0
    6.0522   -0.9765   18.1537 C   0  0  0  0  0  0  0  0  0  0  0  0
    8.0355    0.1251   20.0300 C   0  0  0  0  0  0  0  0  0  0  0  0
    7.4111   -1.6378   18.3551 C   0  0  0  0  0  0  0  0  0  0  0  0
    6.0879    0.5209   18.4573 C   0  0  0  0  0  0  0  0  0  0  0  0
    7.8625   -5.8848   21.8006 C   0  0  0  0  0  0  0  0  0  0  0  0
    7.5385   -4.4129   22.0082 C   0  0  0  0  0  0  0  0  0  0  0  0
    7.6753   -3.6234   20.7055 C   0  0  0  0  0  0  0  0  0  0  0  0
    7.2806   -2.1488   20.8235 C   0  0  0  0  0  0  0  0  0  0  0  0
    7.9500   -1.3527   19.7358 N   0  0  0  0  0  0  0  0  0  0  0  0
    6.8791    1.1918   17.4781 O   0  0  0  0  0  0  0  0  0  0  0  0
    5.8581   -2.0727   20.8150 O   0  0  0  0  0  0  0  0  0  0  0  0
  1  3  1  0
  1  5  1  0
  2  4  1  0
  2  5  1  0
  3 10  1  0
  4 10  1  0
  5 11  1  0
  6  7  1  0
  7  8  1  0
  8  9  1  0
  9 10  1  0
  9 12  1  0
M  CHG  1  10   1
M  END
