MAK-UNK-8145c7a0-5
     RDKit          3D

 26 28  0  0  1  0  0  0  0  0999 V2000
    7.4020   -0.0710   25.9173 C   0  0  0  0  0  0  0  0  0  0  0  0
    8.0670   -1.2635   26.2025 C   0  0  0  0  0  0  0  0  0  0  0  0
    7.4689    0.4757   24.6358 C   0  0  0  0  0  0  0  0  0  0  0  0
    8.7991   -1.9093   25.2062 C   0  0  0  0  0  0  0  0  0  0  0  0
    8.2010   -0.1701   23.6395 C   0  0  0  0  0  0  0  0  0  0  0  0
    8.8661   -1.3626   23.9247 C   0  0  0  0  0  0  0  0  0  0  0  0
    7.2131    7.0407   22.8152 C   0  0  0  0  0  0  0  0  0  0  0  0
    9.5000    6.6921   23.2796 C   0  0  0  0  0  0  0  0  0  0  0  0
   11.1546    2.6618   23.9728 C   0  0  0  0  0  0  0  0  0  0  0  0
   12.2138    2.3084   23.2325 C   0  0  0  0  0  0  0  0  0  0  0  0
   10.6928    4.0815   24.0535 C   0  0  0  0  0  0  0  0  0  0  0  0
   13.0398    3.2915   22.4590 C   0  0  0  0  0  0  0  0  0  0  0  0
   12.7926    4.7441   22.8684 C   0  0  0  0  0  0  0  0  0  0  0  0
    5.8822    7.2040   22.1962 C   0  0  0  0  0  0  0  0  0  0  0  0
    9.6581   -2.0606   22.8464 C   0  0  0  0  0  0  0  0  0  0  0  0
   10.9759    6.4279   23.2253 C   0  0  0  0  0  0  0  0  0  0  0  0
   11.1155   -1.6090   22.7911 C   0  0  0  0  0  0  0  0  0  0  0  0
    7.4701    7.1398   24.1021 N   0  0  0  0  0  0  0  0  0  0  0  0
    8.8116    6.9364   24.3744 N   0  0  0  0  0  0  0  0  0  0  0  0
   11.2504   -0.1587   22.5506 N   0  0  0  0  0  0  0  0  0  0  0  0
   11.3066    4.9812   22.9964 N   0  0  0  0  0  0  0  0  0  0  0  0
   13.7333    0.4572   22.2523 O   0  0  0  0  0  0  0  0  0  0  0  0
   12.7954    0.1792   24.5646 O   0  0  0  0  0  0  0  0  0  0  0  0
   10.4592    1.7242   24.6558 F   0  0  0  0  0  0  0  0  0  0  0  0
    8.5762    6.6907   21.8347 S   0  0  0  0  0  0  0  0  0  0  0  0
   12.6370    0.6395   23.1927 S   0  0  0  0  0  0  0  0  0  0  0  0
  1  2  2  0
  1  3  1  0
  2  4  1  0
  3  5  2  0
  4  6  2  0
  5  6  1  0
  6 15  1  0
  7 14  1  0
  7 18  2  0
  7 25  1  0
  8 16  1  0
  8 19  2  0
  8 25  1  0
  9 10  2  0
  9 11  1  0
  9 24  1  0
 10 12  1  0
 10 26  1  0
 11 21  1  0
 12 13  1  0
 13 21  1  0
 15 17  1  0
 16 21  1  0
 17 20  1  0
 18 19  1  0
 20 26  1  0
 22 26  2  0
 23 26  2  0
M  CHG  1  21   1
M  END
