MAK-UNK-9a6be56d-32
     RDKit          3D

 38 42  0  0  1  0  0  0  0  0999 V2000
   12.4256    3.7450   23.0999 C   0  0  0  0  0  0  0  0  0  0  0  0
   11.9593    4.9082   23.7123 C   0  0  0  0  0  0  0  0  0  0  0  0
    4.8994    0.2806   20.1005 C   0  0  0  0  0  0  0  0  0  0  0  0
   11.6628    2.5780   23.1472 C   0  0  0  0  0  0  0  0  0  0  0  0
    5.6270   -5.8567   25.6679 C   0  0  0  0  0  0  0  0  0  0  0  0
   10.7304    4.9045   24.3722 C   0  0  0  0  0  0  0  0  0  0  0  0
    6.2430    0.5258   20.3613 C   0  0  0  0  0  0  0  0  0  0  0  0
    5.3600   -5.9456   24.3038 C   0  0  0  0  0  0  0  0  0  0  0  0
    7.4950   -4.9280   23.8333 C   0  0  0  0  0  0  0  0  0  0  0  0
    9.6716    0.3573   24.7967 C   0  0  0  0  0  0  0  0  0  0  0  0
    3.9613    1.1044   20.7013 C   0  0  0  0  0  0  0  0  0  0  0  0
    5.5879    2.3386   21.7545 C   0  0  0  0  0  0  0  0  0  0  0  0
    8.1415   -0.1761   23.2334 C   0  0  0  0  0  0  0  0  0  0  0  0
   10.4339    2.5744   23.8070 C   0  0  0  0  0  0  0  0  0  0  0  0
    6.8356   -5.3093   26.1319 C   0  0  0  0  0  0  0  0  0  0  0  0
    7.7812   -4.8180   25.2076 C   0  0  0  0  0  0  0  0  0  0  0  0
    8.7192   -0.6152   24.4042 C   0  0  0  0  0  0  0  0  0  0  0  0
    9.9677    3.7376   24.4195 C   0  0  0  0  0  0  0  0  0  0  0  0
    6.2959   -5.4844   23.3863 C   0  0  0  0  0  0  0  0  0  0  0  0
    6.6023    1.5725   21.2031 C   0  0  0  0  0  0  0  0  0  0  0  0
    9.6468    1.3613   23.8540 C   0  0  0  0  0  0  0  0  0  0  0  0
    7.0484   -5.2196   27.6223 C   0  0  0  0  0  0  0  0  0  0  0  0
    8.5037   -4.9945   28.0128 C   0  0  0  0  0  0  0  0  0  0  0  0
    9.0983   -3.8703   27.1746 C   0  0  0  0  0  0  0  0  0  0  0  0
    9.1082   -4.2229   25.6703 C   0  0  0  0  0  0  0  0  0  0  0  0
   10.2596   -5.1921   25.3458 C   0  0  0  0  0  0  0  0  0  0  0  0
    8.3980   -1.8891   25.1287 C   0  0  0  0  0  0  0  0  0  0  0  0
    4.2720    2.1308   21.5246 N   0  0  0  0  0  0  0  0  0  0  0  0
    8.7128    1.0265   22.9086 N   0  0  0  0  0  0  0  0  0  0  0  0
    5.1956   -4.1011   21.3911 N   0  0  0  0  0  0  0  0  0  0  0  0
    9.4365   -2.9266   24.9636 N   0  0  0  0  0  0  0  0  0  0  0  0
    9.1226    1.3734   20.4743 O   0  0  0  0  0  0  0  0  0  0  0  0
    8.3708    3.3378   21.9057 O   0  0  0  0  0  0  0  0  0  0  0  0
    7.2410   -5.6112   20.9650 O   0  0  0  0  0  0  0  0  0  0  0  0
    5.0083   -6.6697   21.4574 O   0  0  0  0  0  0  0  0  0  0  0  0
    8.7882    3.7505   25.0578 F   0  0  0  0  0  0  0  0  0  0  0  0
    8.3060    1.9160   21.5595 S   0  0  0  0  0  0  0  0  0  0  0  0
    5.9697   -5.5977   21.6751 S   0  0  0  0  0  0  0  0  0  0  0  0
  1  2  2  0
  1  4  1  0
  2  6  1  0
  3  7  2  0
  3 11  1  0
  4 14  2  0
  5  8  2  0
  5 15  1  0
  6 18  2  0
  7 20  1  0
  8 19  1  0
  9 16  1  0
  9 19  2  0
 10 17  1  0
 10 21  2  0
 11 28  2  0
 12 20  2  0
 12 28  1  0
 13 17  2  0
 13 29  1  0
 14 18  1  0
 14 21  1  0
 15 16  2  0
 15 22  1  0
 16 25  1  0
 17 27  1  0
 18 36  1  0
 19 38  1  0
 20 37  1  0
 21 29  1  0
 22 23  1  0
 23 24  1  0
 24 25  1  0
 25 26  1  0
 25 31  1  0
 27 31  1  0
 29 37  1  0
 30 38  1  0
 32 37  2  0
 33 37  2  0
 34 38  2  0
 35 38  2  0
M  CHG  1  31   1
M  END
