MAK-UNK-176ca439-2
     RDKit          3D

 29 30  0  0  1  0  0  0  0  0999 V2000
   13.1809    0.0940   22.5865 C   0  0  0  0  0  0  0  0  0  0  0  0
   12.1777    0.0641   21.6179 C   0  0  0  0  0  0  0  0  0  0  0  0
   12.9986    0.8304   23.7570 C   0  0  0  0  0  0  0  0  0  0  0  0
   10.8098    1.5074   22.9901 C   0  0  0  0  0  0  0  0  0  0  0  0
   10.9922    0.7709   21.8197 C   0  0  0  0  0  0  0  0  0  0  0  0
   11.8131    1.5372   23.9588 C   0  0  0  0  0  0  0  0  0  0  0  0
    6.2698   -3.4146   20.3506 C   0  0  0  0  0  0  0  0  0  0  0  0
    7.8024   -0.9541   26.0073 C   0  0  0  0  0  0  0  0  0  0  0  0
   11.3735    3.8076   24.9258 C   0  0  0  0  0  0  0  0  0  0  0  0
    7.9618   -2.0981   19.1155 C   0  0  0  0  0  0  0  0  0  0  0  0
    8.4667   -2.7408   21.4404 C   0  0  0  0  0  0  0  0  0  0  0  0
    8.3646   -0.6594   19.4040 C   0  0  0  0  0  0  0  0  0  0  0  0
    8.8792   -1.3111   21.7636 C   0  0  0  0  0  0  0  0  0  0  0  0
    6.5044   -0.6455   25.3378 C   0  0  0  0  0  0  0  0  0  0  0  0
   12.5852    5.9626   24.6423 C   0  0  0  0  0  0  0  0  0  0  0  0
    9.9130    0.7371   20.7779 C   0  0  0  0  0  0  0  0  0  0  0  0
    5.8742   -4.0799   21.6446 C   0  0  0  0  0  0  0  0  0  0  0  0
    9.5697    0.0147   27.4635 C   0  0  0  0  0  0  0  0  0  0  0  0
   10.7261    0.4335   26.5755 C   0  0  0  0  0  0  0  0  0  0  0  0
   11.6185    2.3252   25.2102 C   0  0  0  0  0  0  0  0  0  0  0  0
    7.5061   -2.7706   20.3323 N   0  0  0  0  0  0  0  0  0  0  0  0
   12.5485    4.5444   24.9155 N   0  0  0  0  0  0  0  0  0  0  0  0
    8.2940    0.1001   26.7182 N   0  0  0  0  0  0  0  0  0  0  0  0
    9.3990   -0.6489   20.5072 N   0  0  0  0  0  0  0  0  0  0  0  0
   10.5017    1.8086   26.0786 N   0  0  0  0  0  0  0  0  0  0  0  0
    5.5008   -3.4646   19.3872 O   0  0  0  0  0  0  0  0  0  0  0  0
    8.2998   -2.0665   25.8774 O   0  0  0  0  0  0  0  0  0  0  0  0
   10.2521    4.2626   24.7091 O   0  0  0  0  0  0  0  0  0  0  0  0
    5.0368   -2.8628   22.6014 Cl  0  0  0  0  0  0  0  0  0  0  0  0
  1  2  2  0
  1  3  1  0
  2  5  1  0
  3  6  2  0
  4  5  2  0
  4  6  1  0
  5 16  1  0
  6 20  1  0
  7 17  1  0
  7 21  1  0
  7 26  2  0
  8 14  1  0
  8 23  1  0
  8 27  2  0
  9 20  1  0
  9 22  1  0
  9 28  2  0
 10 12  1  0
 10 21  1  0
 11 13  1  0
 11 21  1  0
 12 24  1  0
 13 24  1  0
 15 22  1  0
 16 24  1  0
 17 29  1  0
 18 19  1  0
 18 23  1  0
 19 25  1  0
 20 25  1  0
M  CHG  2  24   1  25   1
M  END
