MAK-UNK-194150d3-14
     RDKit          3D

 33 37  0  0  1  0  0  0  0  0999 V2000
    9.8523    4.8038   25.4239 C   0  0  0  0  0  0  0  0  0  0  0  0
    9.2428    5.9991   25.0428 C   0  0  0  0  0  0  0  0  0  0  0  0
    9.9405    3.7462   24.5186 C   0  0  0  0  0  0  0  0  0  0  0  0
    8.7213    6.1369   23.7564 C   0  0  0  0  0  0  0  0  0  0  0  0
    9.4191    3.8840   23.2322 C   0  0  0  0  0  0  0  0  0  0  0  0
    7.8956   -0.5842   24.2513 C   0  0  0  0  0  0  0  0  0  0  0  0
    6.7732    0.2179   24.0857 C   0  0  0  0  0  0  0  0  0  0  0  0
    8.0889   -0.7441   21.8529 C   0  0  0  0  0  0  0  0  0  0  0  0
    7.2724    0.0403   19.1767 C   0  0  0  0  0  0  0  0  0  0  0  0
    8.8094    5.0793   22.8511 C   0  0  0  0  0  0  0  0  0  0  0  0
    8.5522   -1.0680   23.1322 C   0  0  0  0  0  0  0  0  0  0  0  0
    6.9526    0.0705   21.6562 C   0  0  0  0  0  0  0  0  0  0  0  0
    6.2853    0.5376   22.8022 C   0  0  0  0  0  0  0  0  0  0  0  0
    5.4264    1.0005   19.7953 C   0  0  0  0  0  0  0  0  0  0  0  0
    4.2668    1.5922   20.5121 C   0  0  0  0  0  0  0  0  0  0  0  0
   13.7491   -0.6033   24.4465 C   0  0  0  0  0  0  0  0  0  0  0  0
   12.5574    0.2701   24.8261 C   0  0  0  0  0  0  0  0  0  0  0  0
   13.5668   -1.2331   23.0690 C   0  0  0  0  0  0  0  0  0  0  0  0
   11.2420   -0.4997   24.7320 C   0  0  0  0  0  0  0  0  0  0  0  0
   12.2531   -2.0053   22.9719 C   0  0  0  0  0  0  0  0  0  0  0  0
    4.0351    1.0672   21.9055 C   0  0  0  0  0  0  0  0  0  0  0  0
   11.0509   -1.1273   23.3446 C   0  0  0  0  0  0  0  0  0  0  0  0
    9.7557   -1.9355   23.2920 C   0  0  0  0  0  0  0  0  0  0  0  0
    8.2453    5.2276   21.4594 C   0  0  0  0  0  0  0  0  0  0  0  0
    6.7837    4.7977   21.3604 C   0  0  0  0  0  0  0  0  0  0  0  0
    6.6553    0.4260   18.0889 N   0  0  0  0  0  0  0  0  0  0  0  0
    5.5009    1.0294   18.4762 N   0  0  0  0  0  0  0  0  0  0  0  0
    6.5527    0.3648   20.3116 N   0  0  0  0  0  0  0  0  0  0  0  0
    5.1573    1.4226   22.7885 N   0  0  0  0  0  0  0  0  0  0  0  0
    6.5789    3.3913   21.7576 N   0  0  0  0  0  0  0  0  0  0  0  0
    6.2818    3.1708   24.2979 O   0  0  0  0  0  0  0  0  0  0  0  0
    4.3020    3.8498   22.8964 O   0  0  0  0  0  0  0  0  0  0  0  0
    5.5152    3.0672   23.0667 S   0  0  0  0  0  0  0  0  0  0  0  0
  1  2  2  0
  1  3  1  0
  2  4  1  0
  3  5  2  0
  4 10  2  0
  5 10  1  0
  6  7  2  0
  6 11  1  0
  7 13  1  0
  8 11  2  0
  8 12  1  0
  9 26  2  0
  9 28  1  0
 10 24  1  0
 11 23  1  0
 12 13  2  0
 12 28  1  0
 13 29  1  0
 14 15  1  0
 14 27  2  0
 14 28  1  0
 15 21  1  0
 16 17  1  0
 16 18  1  0
 17 19  1  0
 18 20  1  0
 19 22  1  0
 20 22  1  0
 21 29  1  0
 22 23  1  0
 24 25  1  0
 25 30  1  0
 26 27  1  0
 29 33  1  0
 30 33  1  0
 31 33  2  0
 32 33  2  0
M  END
