MAK-UNK-27459e11-14
     RDKit          3D

 16 16  0  0  0  0  0  0  0  0999 V2000
    3.7678    1.5165   21.0172 C   0  0  0  0  0  0  0  0  0  0  0  0
    4.4986    1.2200   22.1676 C   0  0  0  0  0  0  0  0  0  0  0  0
    4.2199    1.0799   19.7718 C   0  0  0  0  0  0  0  0  0  0  0  0
    5.6816    0.4871   22.0728 C   0  0  0  0  0  0  0  0  0  0  0  0
    5.4029    0.3470   19.6770 C   0  0  0  0  0  0  0  0  0  0  0  0
    6.1338    0.0506   20.8275 C   0  0  0  0  0  0  0  0  0  0  0  0
    5.8547   -0.0973   18.3750 C   0  0  0  0  0  0  0  0  0  0  0  0
    9.8431   -2.6257   23.1319 C   0  0  0  0  0  0  0  0  0  0  0  0
    7.4164   -0.7407   20.7511 C   0  0  0  0  0  0  0  0  0  0  0  0
    8.6170    0.0154   21.3147 C   0  0  0  0  0  0  0  0  0  0  0  0
    5.4672   -1.2886   17.8919 N   0  0  0  0  0  0  0  0  0  0  0  0
    9.8696   -0.7546   21.2115 N   0  0  0  0  0  0  0  0  0  0  0  0
    6.6644    0.6779   17.6361 N   0  0  0  0  0  0  0  0  0  0  0  0
   10.4949   -0.1436   23.6467 O   0  0  0  0  0  0  0  0  0  0  0  0
   12.0638   -1.5601   22.2724 O   0  0  0  0  0  0  0  0  0  0  0  0
   10.7184   -1.1592   22.6364 S   0  0  0  0  0  0  0  0  0  0  0  0
  1  2  2  0
  1  3  1  0
  2  4  1  0
  3  5  2  0
  4  6  2  0
  5  6  1  0
  5  7  1  0
  6  9  1  0
  7 11  1  0
  7 13  2  0
  8 16  1  0
  9 10  1  0
 10 12  1  0
 12 16  1  0
 14 16  2  0
 15 16  2  0
M  CHG  1  13   1
M  END
