MAK-UNK-e4a48a85-4
     RDKit          3D

 27 30  0  0  0  0  0  0  0  0999 V2000
    9.5825   -3.1043   22.2255 C   0  0  0  0  0  0  0  0  0  0  0  0
    9.7204   -1.8169   21.7068 C   0  0  0  0  0  0  0  0  0  0  0  0
    9.7035   -3.3198   23.5984 C   0  0  0  0  0  0  0  0  0  0  0  0
   14.1536   -1.9410   22.2856 C   0  0  0  0  0  0  0  0  0  0  0  0
   13.4509   -0.7371   22.3343 C   0  0  0  0  0  0  0  0  0  0  0  0
    9.9793   -0.7449   22.5609 C   0  0  0  0  0  0  0  0  0  0  0  0
    9.9623   -2.2478   24.4524 C   0  0  0  0  0  0  0  0  0  0  0  0
   14.5184   -2.5840   23.4685 C   0  0  0  0  0  0  0  0  0  0  0  0
   13.4780   -0.8190   24.7487 C   0  0  0  0  0  0  0  0  0  0  0  0
   12.7225    2.3104   23.1288 C   0  0  0  0  0  0  0  0  0  0  0  0
   13.1131   -0.1761   23.5658 C   0  0  0  0  0  0  0  0  0  0  0  0
   10.1002   -0.9603   23.9337 C   0  0  0  0  0  0  0  0  0  0  0  0
   14.1806   -2.0230   24.7000 C   0  0  0  0  0  0  0  0  0  0  0  0
   12.3875    1.0705   23.6155 C   0  0  0  0  0  0  0  0  0  0  0  0
   11.6309    3.1302   23.4727 C   0  0  0  0  0  0  0  0  0  0  0  0
    7.9983    4.9088   21.5955 C   0  0  0  0  0  0  0  0  0  0  0  0
    8.3360    6.7952   23.2253 C   0  0  0  0  0  0  0  0  0  0  0  0
    9.4827    4.5861   21.6656 C   0  0  0  0  0  0  0  0  0  0  0  0
    9.8196    6.4681   23.2917 C   0  0  0  0  0  0  0  0  0  0  0  0
    7.7252    6.3810   21.8889 C   0  0  0  0  0  0  0  0  0  0  0  0
   14.5725   -2.7098   25.9645 C   0  0  0  0  0  0  0  0  0  0  0  0
   10.3798    0.1957   24.8556 C   0  0  0  0  0  0  0  0  0  0  0  0
   11.4603    4.5928   23.1853 C   0  0  0  0  0  0  0  0  0  0  0  0
   10.6740    2.4669   24.1272 N   0  0  0  0  0  0  0  0  0  0  0  0
   11.1632    1.2172   24.1984 N   0  0  0  0  0  0  0  0  0  0  0  0
   10.0213    4.9963   23.0163 N   0  0  0  0  0  0  0  0  0  0  0  0
    6.3177    6.5876   21.9187 O   0  0  0  0  0  0  0  0  0  0  0  0
  1  2  2  0
  1  3  1  0
  2  6  1  0
  3  7  2  0
  4  5  2  0
  4  8  1  0
  5 11  1  0
  6 12  2  0
  7 12  1  0
  8 13  2  0
  9 11  2  0
  9 13  1  0
 10 14  2  0
 10 15  1  0
 11 14  1  0
 12 22  1  0
 13 21  1  0
 14 25  1  0
 15 23  1  0
 15 24  2  0
 16 18  1  0
 16 20  1  0
 17 19  1  0
 17 20  1  0
 18 26  1  0
 19 26  1  0
 20 27  1  0
 22 25  1  0
 23 26  1  0
 24 25  1  0
M  CHG  1  26   1
M  END
