MAK-UNK-0955449e-25
     RDKit          3D

 27 29  0  0  0  0  0  0  0  0999 V2000
    6.6455   -5.2487   26.7709 C   0  0  0  0  0  0  0  0  0  0  0  0
    7.7385   -0.8539   26.7980 C   0  0  0  0  0  0  0  0  0  0  0  0
    7.9680   -5.0890   27.1843 C   0  0  0  0  0  0  0  0  0  0  0  0
    6.2673   -4.8719   25.4822 C   0  0  0  0  0  0  0  0  0  0  0  0
    6.3801   -0.6150   26.5896 C   0  0  0  0  0  0  0  0  0  0  0  0
    8.6838   -0.3088   25.9291 C   0  0  0  0  0  0  0  0  0  0  0  0
    8.9124   -4.5526   26.3091 C   0  0  0  0  0  0  0  0  0  0  0  0
    7.2116   -4.3355   24.6070 C   0  0  0  0  0  0  0  0  0  0  0  0
    5.9671    0.1689   25.5123 C   0  0  0  0  0  0  0  0  0  0  0  0
   10.2876    1.9047   24.2326 C   0  0  0  0  0  0  0  0  0  0  0  0
   10.3294    1.4383   22.0302 C   0  0  0  0  0  0  0  0  0  0  0  0
    8.2708    0.4750   24.8518 C   0  0  0  0  0  0  0  0  0  0  0  0
    8.5342   -4.1758   25.0204 C   0  0  0  0  0  0  0  0  0  0  0  0
   10.9676    2.1583   23.0159 C   0  0  0  0  0  0  0  0  0  0  0  0
    6.9125    0.7139   24.6434 C   0  0  0  0  0  0  0  0  0  0  0  0
    9.2546    1.0373   23.9534 C   0  0  0  0  0  0  0  0  0  0  0  0
    9.5401   -3.6043   24.0883 C   0  0  0  0  0  0  0  0  0  0  0  0
   12.9961    5.3712   22.6383 C   0  0  0  0  0  0  0  0  0  0  0  0
   12.1425    3.0322   22.8363 C   0  0  0  0  0  0  0  0  0  0  0  0
    9.1132   -1.2431   21.1625 C   0  0  0  0  0  0  0  0  0  0  0  0
    8.3745   -0.1165   21.8876 C   0  0  0  0  0  0  0  0  0  0  0  0
    9.8944   -2.1365   22.1196 C   0  0  0  0  0  0  0  0  0  0  0  0
    9.2899    0.7604   22.6117 N   0  0  0  0  0  0  0  0  0  0  0  0
    9.0503   -2.7482   23.1085 N   0  0  0  0  0  0  0  0  0  0  0  0
   11.8244    4.4929   22.8757 N   0  0  0  0  0  0  0  0  0  0  0  0
   10.7201   -3.9221   24.2107 O   0  0  0  0  0  0  0  0  0  0  0  0
    6.4991    1.4655   23.6124 F   0  0  0  0  0  0  0  0  0  0  0  0
  1  3  2  0
  1  4  1  0
  2  5  2  0
  2  6  1  0
  3  7  1  0
  4  8  2  0
  5  9  1  0
  6 12  2  0
  7 13  2  0
  8 13  1  0
  9 15  2  0
 10 14  1  0
 10 16  2  0
 11 14  2  0
 11 23  1  0
 12 15  1  0
 12 16  1  0
 13 17  1  0
 14 19  1  0
 15 27  1  0
 16 23  1  0
 17 24  1  0
 17 26  2  0
 18 25  1  0
 19 25  1  0
 20 21  1  0
 20 22  1  0
 21 23  1  0
 22 24  1  0
M  CHG  1  25   1
M  END
