MAK-UNK-c44f4be0-9
     RDKit          3D

 31 32  0  0  1  0  0  0  0  0999 V2000
    6.1658    0.0414   20.7866 C   0  0  0  0  0  0  0  0  0  0  0  0
    5.8925   -0.7413   19.9182 C   0  0  0  0  0  0  0  0  0  0  0  0
    6.6571    5.2505   21.9835 C   0  0  0  0  0  0  0  0  0  0  0  0
    7.7134    5.8100   21.2646 C   0  0  0  0  0  0  0  0  0  0  0  0
    6.7229    5.1750   23.3748 C   0  0  0  0  0  0  0  0  0  0  0  0
    8.8357    6.2938   21.9370 C   0  0  0  0  0  0  0  0  0  0  0  0
    7.8452    5.6589   24.0472 C   0  0  0  0  0  0  0  0  0  0  0  0
   13.2336   -0.4959   22.3776 C   0  0  0  0  0  0  0  0  0  0  0  0
   11.5031   -1.9329   23.2593 C   0  0  0  0  0  0  0  0  0  0  0  0
   14.1871   -1.1835   23.1283 C   0  0  0  0  0  0  0  0  0  0  0  0
   12.4566   -2.6206   24.0100 C   0  0  0  0  0  0  0  0  0  0  0  0
    8.9015    6.2183   23.3283 C   0  0  0  0  0  0  0  0  0  0  0  0
   11.8915   -0.8705   22.4432 C   0  0  0  0  0  0  0  0  0  0  0  0
   13.7987   -2.2459   23.9445 C   0  0  0  0  0  0  0  0  0  0  0  0
    8.9380    1.4833   21.7440 C   0  0  0  0  0  0  0  0  0  0  0  0
   12.0447    2.4655   23.3608 C   0  0  0  0  0  0  0  0  0  0  0  0
    6.4944    0.9968   21.8438 C   0  0  0  0  0  0  0  0  0  0  0  0
   10.1154    6.7413   24.0564 C   0  0  0  0  0  0  0  0  0  0  0  0
   10.8598   -0.1270   21.6306 C   0  0  0  0  0  0  0  0  0  0  0  0
   11.1983    5.6820   24.2461 C   0  0  0  0  0  0  0  0  0  0  0  0
   10.2556    1.0628   22.3853 C   0  0  0  0  0  0  0  0  0  0  0  0
    7.8538    0.8196   22.3012 N   0  0  0  0  0  0  0  0  0  0  0  0
   11.1230    2.2138   22.3713 N   0  0  0  0  0  0  0  0  0  0  0  0
   11.7128    5.1620   22.9641 N   0  0  0  0  0  0  0  0  0  0  0  0
    8.8721    2.2844   20.8140 O   0  0  0  0  0  0  0  0  0  0  0  0
   12.3065    1.8326   24.3702 O   0  0  0  0  0  0  0  0  0  0  0  0
   13.7668    4.1663   24.1769 O   0  0  0  0  0  0  0  0  0  0  0  0
   13.4943    3.7656   21.6981 O   0  0  0  0  0  0  0  0  0  0  0  0
   14.7294   -2.9176   24.6759 O   0  0  0  0  0  0  0  0  0  0  0  0
   12.9235    3.9501   23.0178 S   0  0  0  0  0  0  0  0  0  0  0  0
    5.4600   -1.9800   18.5437 Br  0  0  0  0  0  0  0  0  0  0  0  0
  1  2  3  0
  1 17  1  0
  2 31  1  0
  3  4  2  0
  3  5  1  0
  4  6  1  0
  5  7  2  0
  6 12  2  0
  7 12  1  0
  8 10  2  0
  8 13  1  0
  9 11  1  0
  9 13  2  0
 10 14  1  0
 11 14  2  0
 12 18  1  0
 13 19  1  0
 14 29  1  0
 15 21  1  0
 15 22  1  0
 15 25  2  0
 16 23  1  0
 16 26  2  0
 16 30  1  0
 17 22  1  0
 18 20  1  0
 19 21  1  0
 20 24  1  0
 21 23  1  0
 24 30  1  0
 27 30  2  0
 28 30  2  0
M  END
