MAK-UNK-516d8086-25
     RDKit          3D

 23 25  0  0  0  0  0  0  0  0999 V2000
    7.9054   -0.1348   20.0306 C   0  0  0  0  0  0  0  0  0  0  0  0
   11.3112   -1.8024   22.3499 C   0  0  0  0  0  0  0  0  0  0  0  0
   10.2212   -2.4600   22.9302 C   0  0  0  0  0  0  0  0  0  0  0  0
    7.5604   -1.1660   22.2293 C   0  0  0  0  0  0  0  0  0  0  0  0
   10.4025   -1.1089   24.9502 C   0  0  0  0  0  0  0  0  0  0  0  0
    6.3806   -2.0222   20.3501 C   0  0  0  0  0  0  0  0  0  0  0  0
    7.2821   -1.1065   20.8683 C   0  0  0  0  0  0  0  0  0  0  0  0
   11.4755   -0.4762   24.3542 C   0  0  0  0  0  0  0  0  0  0  0  0
   11.9333   -0.8059   23.0776 C   0  0  0  0  0  0  0  0  0  0  0  0
    9.7712   -2.1160   24.2187 C   0  0  0  0  0  0  0  0  0  0  0  0
    6.9376   -2.1258   23.0193 C   0  0  0  0  0  0  0  0  0  0  0  0
    6.0514   -2.9958   22.4049 C   0  0  0  0  0  0  0  0  0  0  0  0
   12.3188    0.6032   24.8766 C   0  0  0  0  0  0  0  0  0  0  0  0
   13.0988    0.0453   22.7088 C   0  0  0  0  0  0  0  0  0  0  0  0
    5.8467   -5.9801   21.9452 C   0  0  0  0  0  0  0  0  0  0  0  0
    8.6052   -2.8379   24.8077 C   0  0  0  0  0  0  0  0  0  0  0  0
    7.2429   -2.1883   24.4961 C   0  0  0  0  0  0  0  0  0  0  0  0
    4.8292   -5.1563   22.6586 C   0  0  0  0  0  0  0  0  0  0  0  0
    8.4126    0.6557   19.3490 N   0  0  0  0  0  0  0  0  0  0  0  0
    5.7558   -2.9687   21.0860 N   0  0  0  0  0  0  0  0  0  0  0  0
   13.2536    0.8784   23.8863 N   0  0  0  0  0  0  0  0  0  0  0  0
    5.4145   -3.9763   23.2061 N   0  0  0  0  0  0  0  0  0  0  0  0
   12.1856    1.1224   25.9688 O   0  0  0  0  0  0  0  0  0  0  0  0
  1  7  1  0
  1 19  3  0
  2  3  2  0
  2  9  1  0
  3 10  1  0
  4  7  2  0
  4 11  1  0
  5  8  1  0
  5 10  2  0
  6  7  1  0
  6 20  2  0
  8  9  2  0
  8 13  1  0
  9 14  1  0
 10 16  1  0
 11 12  2  0
 11 17  1  0
 12 20  1  0
 12 22  1  0
 13 21  1  0
 13 23  2  0
 14 21  1  0
 15 18  1  0
 16 17  1  0
 18 22  1  0
M  END
