MAK-UNK-0d6072ac-11
     RDKit          3D

 19 21  0  0  1  0  0  0  0  0999 V2000
   13.1447   -3.6936   25.8427 C   0  0  0  0  0  0  0  0  0  0  0  0
   13.5834   -2.4382   26.2720 C   0  0  0  0  0  0  0  0  0  0  0  0
   11.5124   -1.4046   25.5418 C   0  0  0  0  0  0  0  0  0  0  0  0
    8.9628   -5.2505   23.6857 C   0  0  0  0  0  0  0  0  0  0  0  0
    8.6583   -2.4870   24.0668 C   0  0  0  0  0  0  0  0  0  0  0  0
   11.0472   -2.6609   25.0999 C   0  0  0  0  0  0  0  0  0  0  0  0
    9.8412   -3.1129   24.4778 C   0  0  0  0  0  0  0  0  0  0  0  0
   11.8742   -3.7729   25.2610 C   0  0  0  0  0  0  0  0  0  0  0  0
    9.9655   -4.4868   24.2761 C   0  0  0  0  0  0  0  0  0  0  0  0
   12.7811   -1.3092   26.1248 C   0  0  0  0  0  0  0  0  0  0  0  0
    7.8358   -4.5343   23.3158 C   0  0  0  0  0  0  0  0  0  0  0  0
    6.3699   -4.5969   21.3171 C   0  0  0  0  0  0  0  0  0  0  0  0
    6.9617   -6.7737   22.5669 C   0  0  0  0  0  0  0  0  0  0  0  0
    6.7021   -5.2645   22.6730 C   0  0  0  0  0  0  0  0  0  0  0  0
    7.6650   -3.2040   23.4886 N   0  0  0  0  0  0  0  0  0  0  0  0
   11.1984   -4.8594   24.7569 N   0  0  0  0  0  0  0  0  0  0  0  0
    5.8719   -5.3801   20.4564 O   0  0  0  0  0  0  0  0  0  0  0  0
    6.6241   -3.3640   21.2172 O   0  0  0  0  0  0  0  0  0  0  0  0
   13.3543    0.2228   26.6657 Cl  0  0  0  0  0  0  0  0  0  0  0  0
  1  2  2  0
  1  8  1  0
  2 10  1  0
  3  6  1  0
  3 10  2  0
  4  9  2  0
  4 11  1  0
  5  7  2  0
  5 15  1  0
  6  7  1  0
  6  8  2  0
  7  9  1  0
  8 16  1  0
  9 16  1  0
 10 19  1  0
 11 14  1  0
 11 15  2  0
 12 14  1  0
 12 17  1  0
 12 18  2  0
 13 14  1  0
M  CHG  1  17  -1
M  END
