MAK-UNK-1cb0e944-10
     RDKit          3D

 23 24  0  0  0  0  0  0  0  0999 V2000
   13.5367   -1.7541   22.2399 C   0  0  0  0  0  0  0  0  0  0  0  0
   13.0745   -0.4839   22.5140 C   0  0  0  0  0  0  0  0  0  0  0  0
   11.2281   -1.5992   22.9098 C   0  0  0  0  0  0  0  0  0  0  0  0
   12.4641    2.7534   23.0517 C   0  0  0  0  0  0  0  0  0  0  0  0
    8.1672    7.1160   22.4788 C   0  0  0  0  0  0  0  0  0  0  0  0
    7.5122    4.7501   21.9288 C   0  0  0  0  0  0  0  0  0  0  0  0
    9.3505    6.5988   23.2819 C   0  0  0  0  0  0  0  0  0  0  0  0
    8.6971    4.2384   22.7330 C   0  0  0  0  0  0  0  0  0  0  0  0
    7.0257    6.1044   22.4386 C   0  0  0  0  0  0  0  0  0  0  0  0
   12.8822    2.1796   20.6493 C   0  0  0  0  0  0  0  0  0  0  0  0
   13.8810    0.7796   22.4283 C   0  0  0  0  0  0  0  0  0  0  0  0
   11.0416    4.7693   23.3972 C   0  0  0  0  0  0  0  0  0  0  0  0
   11.7508   -0.3931   22.8979 N   0  0  0  0  0  0  0  0  0  0  0  0
    8.9590   -0.4326   23.6811 N   0  0  0  0  0  0  0  0  0  0  0  0
   11.7158    3.8148   22.5477 N   0  0  0  0  0  0  0  0  0  0  0  0
   13.0560    1.9316   22.0743 N   0  0  0  0  0  0  0  0  0  0  0  0
    9.7989    5.2720   22.7151 N   0  0  0  0  0  0  0  0  0  0  0  0
   12.5986    2.5610   24.2638 O   0  0  0  0  0  0  0  0  0  0  0  0
    8.9101   -2.5027   22.1456 O   0  0  0  0  0  0  0  0  0  0  0  0
    9.5869   -2.7724   24.5574 O   0  0  0  0  0  0  0  0  0  0  0  0
    6.0040    6.6020   21.5822 O   0  0  0  0  0  0  0  0  0  0  0  0
   12.2717   -2.8888   22.4707 S   0  0  0  0  0  0  0  0  0  0  0  0
    9.5852   -1.9846   23.3300 S   0  0  0  0  0  0  0  0  0  0  0  0
  1  2  2  0
  1 22  1  0
  2 11  1  0
  2 13  1  0
  3 13  2  0
  3 22  1  0
  3 23  1  0
  4 15  1  0
  4 16  1  0
  4 18  2  0
  5  7  1  0
  5  9  1  0
  6  8  1  0
  6  9  1  0
  7 17  1  0
  8 17  1  0
  9 21  1  0
 10 16  1  0
 11 16  1  0
 12 15  1  0
 12 17  1  0
 14 23  1  0
 19 23  2  0
 20 23  2  0
M  CHG  1  17   1
M  END
