MAK-UNK-c7aa8293-2
     RDKit          3D

 21 22  0  0  1  0  0  0  0  0999 V2000
    7.1920   -6.1365   22.5616 C   0  0  0  0  0  0  0  0  0  0  0  0
    6.2797   -5.7831   21.5658 C   0  0  0  0  0  0  0  0  0  0  0  0
    8.1154   -5.2015   23.0535 C   0  0  0  0  0  0  0  0  0  0  0  0
    8.1384   -3.9114   22.4901 C   0  0  0  0  0  0  0  0  0  0  0  0
    6.2847   -4.4947   21.0397 C   0  0  0  0  0  0  0  0  0  0  0  0
    7.2103   -3.5607   21.4997 C   0  0  0  0  0  0  0  0  0  0  0  0
   13.3381   -0.1090   24.3688 C   0  0  0  0  0  0  0  0  0  0  0  0
    9.1267   -2.8876   22.9837 C   0  0  0  0  0  0  0  0  0  0  0  0
    9.1297   -5.5827   24.1178 C   0  0  0  0  0  0  0  0  0  0  0  0
   10.3171   -3.5691   23.6562 C   0  0  0  0  0  0  0  0  0  0  0  0
   14.0876    0.6757   23.3437 C   0  0  0  0  0  0  0  0  0  0  0  0
    8.5142   -6.3106   25.3116 C   0  0  0  0  0  0  0  0  0  0  0  0
   11.2286   -2.5508   24.3261 C   0  0  0  0  0  0  0  0  0  0  0  0
   12.4030   -3.2325   25.0309 C   0  0  0  0  0  0  0  0  0  0  0  0
   13.3668   -2.2329   25.6614 C   0  0  0  0  0  0  0  0  0  0  0  0
   13.9213   -1.3233   24.6974 N   0  0  0  0  0  0  0  0  0  0  0  0
    9.5923   -6.6663   26.2562 N   0  0  0  0  0  0  0  0  0  0  0  0
   12.3015    0.3454   24.8385 O   0  0  0  0  0  0  0  0  0  0  0  0
    9.8143   -4.4437   24.6679 O   0  0  0  0  0  0  0  0  0  0  0  0
    5.3835   -4.1632   20.0736 O   0  0  0  0  0  0  0  0  0  0  0  0
    7.2016   -2.3004   20.9752 O   0  0  0  0  0  0  0  0  0  0  0  0
  1  2  2  0
  1  3  1  0
  2  5  1  0
  3  4  2  0
  3  9  1  0
  4  6  1  0
  4  8  1  0
  5  6  2  0
  5 20  1  0
  6 21  1  0
  7 11  1  0
  7 16  1  0
  7 18  2  0
  8 10  1  0
  9 12  1  0
  9 19  1  0
 10 13  1  0
 10 19  1  0
 12 17  1  0
 13 14  1  0
 14 15  1  0
 15 16  1  0
M  CHG  1  17   1
M  END
