MAK-UNK-b2c98f02-4
     RDKit          3D

 28 30  0  0  0  0  0  0  0  0999 V2000
   11.0722    6.5597   24.7846 C   0  0  0  0  0  0  0  0  0  0  0  0
    9.7680    7.0541   24.7773 C   0  0  0  0  0  0  0  0  0  0  0  0
   11.4486    5.5711   23.8753 C   0  0  0  0  0  0  0  0  0  0  0  0
    8.8400    6.5598   23.8607 C   0  0  0  0  0  0  0  0  0  0  0  0
   10.5205    5.0768   22.9588 C   0  0  0  0  0  0  0  0  0  0  0  0
    8.4875    0.4956   20.9461 C   0  0  0  0  0  0  0  0  0  0  0  0
    9.0786   -0.1299   18.7289 C   0  0  0  0  0  0  0  0  0  0  0  0
    7.0239    0.8280   19.1012 C   0  0  0  0  0  0  0  0  0  0  0  0
    9.2162    5.5712   22.9514 C   0  0  0  0  0  0  0  0  0  0  0  0
    9.4168   -0.0549   20.0704 C   0  0  0  0  0  0  0  0  0  0  0  0
    7.2657    0.9478   20.4602 C   0  0  0  0  0  0  0  0  0  0  0  0
   11.1447   -0.5181   21.8430 C   0  0  0  0  0  0  0  0  0  0  0  0
   15.3737   -0.7526   25.1949 C   0  0  0  0  0  0  0  0  0  0  0  0
   14.8663   -2.1437   24.8281 C   0  0  0  0  0  0  0  0  0  0  0  0
   14.2746    0.2974   25.0665 C   0  0  0  0  0  0  0  0  0  0  0  0
   14.2321   -2.1640   23.4392 C   0  0  0  0  0  0  0  0  0  0  0  0
   13.6393    0.2812   23.6780 C   0  0  0  0  0  0  0  0  0  0  0  0
   13.1197   -1.1148   23.3089 C   0  0  0  0  0  0  0  0  0  0  0  0
    8.2127    5.0358   21.9598 C   0  0  0  0  0  0  0  0  0  0  0  0
   12.5380   -1.1179   21.8965 C   0  0  0  0  0  0  0  0  0  0  0  0
    7.4357    3.8330   22.4892 C   0  0  0  0  0  0  0  0  0  0  0  0
    7.9019    0.2989   18.2198 N   0  0  0  0  0  0  0  0  0  0  0  0
   10.6681   -0.5251   20.5351 N   0  0  0  0  0  0  0  0  0  0  0  0
    6.4798    3.3021   21.5068 N   0  0  0  0  0  0  0  0  0  0  0  0
   10.5699   -0.1028   22.8438 O   0  0  0  0  0  0  0  0  0  0  0  0
    4.7542    1.4780   20.9308 O   0  0  0  0  0  0  0  0  0  0  0  0
    6.3182    1.1215   22.8676 O   0  0  0  0  0  0  0  0  0  0  0  0
    6.0765    1.6402   21.5260 S   0  0  0  0  0  0  0  0  0  0  0  0
  1  2  2  0
  1  3  1  0
  2  4  1  0
  3  5  2  0
  4  9  2  0
  5  9  1  0
  6 10  2  0
  6 11  1  0
  7 10  1  0
  7 22  2  0
  8 11  2  0
  8 22  1  0
  9 19  1  0
 10 23  1  0
 11 28  1  0
 12 20  1  0
 12 23  1  0
 12 25  2  0
 13 14  1  0
 13 15  1  0
 14 16  1  0
 15 17  1  0
 16 18  1  0
 17 18  1  0
 18 20  1  0
 19 21  1  0
 21 24  1  0
 24 28  1  0
 26 28  2  0
 27 28  2  0
M  END
