MAK-UNK-f2409524-29
     RDKit          3D

 30 32  0  0  1  0  0  0  0  0999 V2000
    6.1268   -2.3138   22.2004 C   0  0  0  0  0  0  0  0  0  0  0  0
    5.2889   -3.2367   21.5954 C   0  0  0  0  0  0  0  0  0  0  0  0
    5.8335   -2.4868   19.4932 C   0  0  0  0  0  0  0  0  0  0  0  0
    6.8407   -1.4472   21.3803 C   0  0  0  0  0  0  0  0  0  0  0  0
    6.6968   -1.5287   19.9997 C   0  0  0  0  0  0  0  0  0  0  0  0
    7.3474   -0.6489   17.7355 C   0  0  0  0  0  0  0  0  0  0  0  0
    9.2360   -2.9018   25.0945 C   0  0  0  0  0  0  0  0  0  0  0  0
    6.6263   -2.7830   29.2541 C   0  0  0  0  0  0  0  0  0  0  0  0
    6.1627   -2.7936   27.7998 C   0  0  0  0  0  0  0  0  0  0  0  0
    8.1484   -2.8044   29.3669 C   0  0  0  0  0  0  0  0  0  0  0  0
    6.8075   -1.6640   26.9954 C   0  0  0  0  0  0  0  0  0  0  0  0
    8.7884   -1.6745   28.5591 C   0  0  0  0  0  0  0  0  0  0  0  0
    7.0809   -6.6894   25.4777 C   0  0  0  0  0  0  0  0  0  0  0  0
    8.3390   -1.6632   27.0919 C   0  0  0  0  0  0  0  0  0  0  0  0
    8.1768   -7.5352   24.8633 C   0  0  0  0  0  0  0  0  0  0  0  0
    8.5750   -6.7248   23.6490 C   0  0  0  0  0  0  0  0  0  0  0  0
    8.3369   -5.2816   24.0874 C   0  0  0  0  0  0  0  0  0  0  0  0
    8.2511    0.4193   17.1725 C   0  0  0  0  0  0  0  0  0  0  0  0
    7.7597   -0.4322   22.0119 C   0  0  0  0  0  0  0  0  0  0  0  0
    9.2408   -0.8308   21.9790 C   0  0  0  0  0  0  0  0  0  0  0  0
    9.5609   -2.1185   22.7290 C   0  0  0  0  0  0  0  0  0  0  0  0
    5.1232   -3.3459   20.2582 N   0  0  0  0  0  0  0  0  0  0  0  0
    7.3913   -0.6821   19.1360 N   0  0  0  0  0  0  0  0  0  0  0  0
    8.8921   -2.8194   26.3833 N   0  0  0  0  0  0  0  0  0  0  0  0
    9.1707   -1.9791   24.1301 N   0  0  0  0  0  0  0  0  0  0  0  0
    6.6809   -1.3629   16.9934 O   0  0  0  0  0  0  0  0  0  0  0  0
    7.4042   -5.3224   25.1823 O   0  0  0  0  0  0  0  0  0  0  0  0
    9.2616   -7.6177   25.7791 O   0  0  0  0  0  0  0  0  0  0  0  0
    7.6800   -7.0144   22.5754 O   0  0  0  0  0  0  0  0  0  0  0  0
    9.8835   -4.4563   24.5827 S   0  0  0  0  0  0  0  0  0  0  0  0
  1  2  2  0
  1  4  1  0
  2 22  1  0
  3  5  1  0
  3 22  2  0
  4  5  2  0
  4 19  1  0
  5 23  1  0
  6 18  1  0
  6 23  1  0
  6 26  2  0
  7 24  1  0
  7 25  2  0
  7 30  1  0
  8  9  1  0
  8 10  1  0
  9 11  1  0
 10 12  1  0
 11 14  1  0
 12 14  1  0
 13 15  1  0
 13 27  1  0
 14 24  1  0
 15 16  1  0
 15 28  1  0
 16 17  1  0
 16 29  1  0
 17 27  1  0
 17 30  1  0
 19 20  1  0
 20 21  1  0
 21 25  1  0
M  CHG  1  25   1
M  END
