MAK-UNK-0955449e-14
     RDKit          3D

 23 25  0  0  1  0  0  0  0  0999 V2000
    6.3576    0.5763   18.7690 C   0  0  0  0  0  0  0  0  0  0  0  0
   13.7701   -1.3289   21.7141 C   0  0  0  0  0  0  0  0  0  0  0  0
    7.5203   -0.1600   18.5421 C   0  0  0  0  0  0  0  0  0  0  0  0
    6.1801    1.2439   19.9808 C   0  0  0  0  0  0  0  0  0  0  0  0
   14.3786   -0.5127   22.6675 C   0  0  0  0  0  0  0  0  0  0  0  0
   12.4291   -1.6859   21.8552 C   0  0  0  0  0  0  0  0  0  0  0  0
    8.5055   -0.2289   19.5271 C   0  0  0  0  0  0  0  0  0  0  0  0
    7.1653    1.1751   20.9658 C   0  0  0  0  0  0  0  0  0  0  0  0
   13.6462   -0.0535   23.7622 C   0  0  0  0  0  0  0  0  0  0  0  0
    9.7674   -2.6900   23.7348 C   0  0  0  0  0  0  0  0  0  0  0  0
    8.0859   -1.4696   22.8672 C   0  0  0  0  0  0  0  0  0  0  0  0
   11.6966   -1.2268   22.9499 C   0  0  0  0  0  0  0  0  0  0  0  0
    8.3281    0.4387   20.7390 C   0  0  0  0  0  0  0  0  0  0  0  0
    8.3602   -2.6079   23.5927 C   0  0  0  0  0  0  0  0  0  0  0  0
   12.3051   -0.4106   23.9034 C   0  0  0  0  0  0  0  0  0  0  0  0
   10.3101   -1.5994   23.0919 C   0  0  0  0  0  0  0  0  0  0  0  0
    9.5169    1.5846   22.7353 C   0  0  0  0  0  0  0  0  0  0  0  0
    5.4892   -5.1251   23.6095 C   0  0  0  0  0  0  0  0  0  0  0  0
    7.3702   -3.5643   24.1233 C   0  0  0  0  0  0  0  0  0  0  0  0
    9.4012    0.3639   21.8129 C   0  0  0  0  0  0  0  0  0  0  0  0
    9.2786   -0.8644   22.5685 N   0  0  0  0  0  0  0  0  0  0  0  0
    6.5226   -4.2066   23.0719 N   0  0  0  0  0  0  0  0  0  0  0  0
   11.6146    0.0392   24.9615 F   0  0  0  0  0  0  0  0  0  0  0  0
  1  3  2  0
  1  4  1  0
  2  5  2  0
  2  6  1  0
  3  7  1  0
  4  8  2  0
  5  9  1  0
  6 12  2  0
  7 13  2  0
  8 13  1  0
  9 15  2  0
 10 14  1  0
 10 16  2  0
 11 14  2  0
 11 21  1  0
 12 15  1  0
 12 16  1  0
 13 20  1  0
 14 19  1  0
 15 23  1  0
 16 21  1  0
 17 20  1  0
 18 22  1  0
 19 22  1  0
 20 21  1  0
M  CHG  1  22   1
M  END
