MAK-UNK-0955449e-27
     RDKit          3D

 28 31  0  0  0  0  0  0  0  0999 V2000
   13.8518   -1.3871   26.1216 C   0  0  0  0  0  0  0  0  0  0  0  0
    6.1230   -1.9651   20.9676 C   0  0  0  0  0  0  0  0  0  0  0  0
    6.3687   -2.7016   19.8088 C   0  0  0  0  0  0  0  0  0  0  0  0
    6.1946   -2.5839   22.2157 C   0  0  0  0  0  0  0  0  0  0  0  0
    6.6859   -4.0569   19.8981 C   0  0  0  0  0  0  0  0  0  0  0  0
    5.6021   -4.7083   24.5578 C   0  0  0  0  0  0  0  0  0  0  0  0
    7.4782   -5.6862   25.3284 C   0  0  0  0  0  0  0  0  0  0  0  0
    6.5119   -3.9392   22.3049 C   0  0  0  0  0  0  0  0  0  0  0  0
    6.1676   -5.4105   25.6506 C   0  0  0  0  0  0  0  0  0  0  0  0
    6.7576   -4.6758   21.1461 C   0  0  0  0  0  0  0  0  0  0  0  0
    6.5842   -4.5764   23.6010 C   0  0  0  0  0  0  0  0  0  0  0  0
   11.1557   -4.6656   24.5287 C   0  0  0  0  0  0  0  0  0  0  0  0
   11.7966   -0.3603   25.2094 C   0  0  0  0  0  0  0  0  0  0  0  0
   12.5802   -1.4007   25.5244 C   0  0  0  0  0  0  0  0  0  0  0  0
    9.9815   -4.3021   23.9713 C   0  0  0  0  0  0  0  0  0  0  0  0
   11.8190   -2.5810   25.0425 C   0  0  0  0  0  0  0  0  0  0  0  0
    9.6355   -2.8421   23.9292 C   0  0  0  0  0  0  0  0  0  0  0  0
    4.3800   -7.5873   28.2285 C   0  0  0  0  0  0  0  0  0  0  0  0
    5.4809   -5.7789   26.9032 C   0  0  0  0  0  0  0  0  0  0  0  0
    8.9986   -5.2672   23.3922 C   0  0  0  0  0  0  0  0  0  0  0  0
   14.9017   -1.3760   26.6149 N   0  0  0  0  0  0  0  0  0  0  0  0
   12.1108   -3.8347   25.0829 N   0  0  0  0  0  0  0  0  0  0  0  0
    7.7202   -5.1748   24.0802 N   0  0  0  0  0  0  0  0  0  0  0  0
   10.6227   -0.7394   24.6226 N   0  0  0  0  0  0  0  0  0  0  0  0
   10.6424   -2.0933   24.4867 N   0  0  0  0  0  0  0  0  0  0  0  0
    5.1210   -7.2276   26.9947 N   0  0  0  0  0  0  0  0  0  0  0  0
    8.5862   -2.4246   23.4561 O   0  0  0  0  0  0  0  0  0  0  0  0
    7.0640   -5.9797   21.2150 F   0  0  0  0  0  0  0  0  0  0  0  0
  1 14  1  0
  1 21  3  0
  2  3  2  0
  2  4  1  0
  3  5  1  0
  4  8  2  0
  5 10  2  0
  6  9  1  0
  6 11  2  0
  7  9  2  0
  7 23  1  0
  8 10  1  0
  8 11  1  0
  9 19  1  0
 10 28  1  0
 11 23  1  0
 12 15  2  0
 12 22  1  0
 13 14  2  0
 13 24  1  0
 14 16  1  0
 15 17  1  0
 15 20  1  0
 16 22  2  0
 16 25  1  0
 17 25  1  0
 17 27  2  0
 18 26  1  0
 19 26  1  0
 20 23  1  0
 24 25  1  0
M  CHG  1  26   1
M  END
