MAK-UNK-2084232d-10
     RDKit          3D

 22 24  0  0  1  0  0  0  0  0999 V2000
    7.4112   -6.1356   22.1778 C   0  0  0  0  0  0  0  0  0  0  0  0
    6.5655   -5.6682   21.1703 C   0  0  0  0  0  0  0  0  0  0  0  0
    8.2268   -5.2499   22.8985 C   0  0  0  0  0  0  0  0  0  0  0  0
    8.2134   -3.8846   22.5545 C   0  0  0  0  0  0  0  0  0  0  0  0
    6.5312   -4.3117   20.8610 C   0  0  0  0  0  0  0  0  0  0  0  0
    7.3517   -3.4216   21.5503 C   0  0  0  0  0  0  0  0  0  0  0  0
    9.0875   -2.9085   23.2972 C   0  0  0  0  0  0  0  0  0  0  0  0
   13.0794   -2.4354   26.3161 C   0  0  0  0  0  0  0  0  0  0  0  0
   12.2350   -3.4111   25.5029 C   0  0  0  0  0  0  0  0  0  0  0  0
   13.4378   -1.2117   25.4790 C   0  0  0  0  0  0  0  0  0  0  0  0
    9.1699   -5.7509   23.9785 C   0  0  0  0  0  0  0  0  0  0  0  0
   10.2585   -3.6314   23.9605 C   0  0  0  0  0  0  0  0  0  0  0  0
   11.0417   -2.6938   24.8684 C   0  0  0  0  0  0  0  0  0  0  0  0
   12.1834   -0.6047   24.8475 C   0  0  0  0  0  0  0  0  0  0  0  0
   11.3288    1.1310   23.2645 C   0  0  0  0  0  0  0  0  0  0  0  0
    8.5042   -6.6968   24.9763 C   0  0  0  0  0  0  0  0  0  0  0  0
   12.5403    0.5478   23.9189 C   0  0  0  0  0  0  0  0  0  0  0  0
    9.5503   -7.5117   25.6264 N   0  0  0  0  0  0  0  0  0  0  0  0
    9.7298   -4.6859   24.7666 O   0  0  0  0  0  0  0  0  0  0  0  0
   11.4928   -1.5915   24.0740 O   0  0  0  0  0  0  0  0  0  0  0  0
    5.6954   -3.8702   19.8801 O   0  0  0  0  0  0  0  0  0  0  0  0
    7.3054   -2.0938   21.2368 O   0  0  0  0  0  0  0  0  0  0  0  0
  1  2  2  0
  1  3  1  0
  2  5  1  0
  3  4  2  0
  3 11  1  0
  4  6  1  0
  4  7  1  0
  5  6  2  0
  5 21  1  0
  6 22  1  0
  7 12  1  0
  8  9  1  0
  8 10  1  0
  9 13  1  0
 10 14  1  0
 11 16  1  0
 11 19  1  0
 12 13  1  0
 12 19  1  0
 13 20  1  0
 14 17  1  0
 14 20  1  0
 15 17  1  0
 16 18  1  0
M  CHG  1  18   1
M  END
