MAK-UNK-7264f48c-5
     RDKit          3D

 24 26  0  0  0  0  0  0  0  0999 V2000
    5.0060    1.5356   18.6209 C   0  0  0  0  0  0  0  0  0  0  0  0
    7.9957   -5.7496   22.4554 C   0  0  0  0  0  0  0  0  0  0  0  0
    5.7547    1.1015   17.5389 C   0  0  0  0  0  0  0  0  0  0  0  0
    7.2807    0.0550   18.9007 C   0  0  0  0  0  0  0  0  0  0  0  0
    6.8831   -5.9957   21.6814 C   0  0  0  0  0  0  0  0  0  0  0  0
    6.2857   -5.2140   23.9357 C   0  0  0  0  0  0  0  0  0  0  0  0
    5.4453    1.1945   19.8953 C   0  0  0  0  0  0  0  0  0  0  0  0
    6.6036    0.4403   20.0465 C   0  0  0  0  0  0  0  0  0  0  0  0
    7.6497   -5.2969   23.7614 C   0  0  0  0  0  0  0  0  0  0  0  0
    8.4194   -0.1486   21.6991 C   0  0  0  0  0  0  0  0  0  0  0  0
    7.4677   -1.8033   23.3962 C   0  0  0  0  0  0  0  0  0  0  0  0
    9.9196   -1.4269   23.2101 C   0  0  0  0  0  0  0  0  0  0  0  0
    7.8618   -2.3469   24.7634 C   0  0  0  0  0  0  0  0  0  0  0  0
   10.0196   -2.8979   23.5897 C   0  0  0  0  0  0  0  0  0  0  0  0
    4.6576    1.6498   21.0797 C   0  0  0  0  0  0  0  0  0  0  0  0
    6.8848    0.3674   17.6464 N   0  0  0  0  0  0  0  0  0  0  0  0
    8.5744   -1.0994   22.7338 N   0  0  0  0  0  0  0  0  0  0  0  0
    9.0556   -3.2323   24.6742 N   0  0  0  0  0  0  0  0  0  0  0  0
    7.0917    0.0671   21.3234 N   0  0  0  0  0  0  0  0  0  0  0  0
    9.3904    0.4088   21.1826 O   0  0  0  0  0  0  0  0  0  0  0  0
    8.1826   -5.0276   26.2945 O   0  0  0  0  0  0  0  0  0  0  0  0
   10.0566   -5.5984   24.7103 O   0  0  0  0  0  0  0  0  0  0  0  0
    5.4286   -5.6810   22.5287 S   0  0  0  0  0  0  0  0  0  0  0  0
    8.8309   -4.8895   25.0083 S   0  0  0  0  0  0  0  0  0  0  0  0
  1  3  2  0
  1  7  1  0
  2  5  2  0
  2  9  1  0
  3 16  1  0
  4  8  1  0
  4 16  2  0
  5 23  1  0
  6  9  2  0
  6 23  1  0
  7  8  2  0
  7 15  1  0
  8 19  1  0
  9 24  1  0
 10 17  1  0
 10 19  1  0
 10 20  2  0
 11 13  1  0
 11 17  1  0
 12 14  1  0
 12 17  1  0
 13 18  1  0
 14 18  1  0
 18 24  1  0
 21 24  2  0
 22 24  2  0
M  END
