MAK-UNK-702fb7d3-10
     RDKit          3D

 43 48  0  0  1  0  0  0  0  0999 V2000
   11.6749   -5.6083   28.8923 C   0  0  0  0  0  0  0  0  0  0  0  0
    6.7139    0.3227   18.0386 C   0  0  0  0  0  0  0  0  0  0  0  0
   10.6035   -4.8264   29.3240 C   0  0  0  0  0  0  0  0  0  0  0  0
   11.6929   -6.1090   27.5905 C   0  0  0  0  0  0  0  0  0  0  0  0
    5.4276   -0.2130   18.1015 C   0  0  0  0  0  0  0  0  0  0  0  0
    7.4699   -6.2838   22.1720 C   0  0  0  0  0  0  0  0  0  0  0  0
    7.5930    0.1534   19.1083 C   0  0  0  0  0  0  0  0  0  0  0  0
    9.5501   -4.5453   28.4540 C   0  0  0  0  0  0  0  0  0  0  0  0
   10.6396   -5.8278   26.7204 C   0  0  0  0  0  0  0  0  0  0  0  0
    6.1114   -1.8326   27.1270 C   0  0  0  0  0  0  0  0  0  0  0  0
    6.8351   -0.7432   26.6428 C   0  0  0  0  0  0  0  0  0  0  0  0
    5.0203   -0.9179   19.2342 C   0  0  0  0  0  0  0  0  0  0  0  0
    8.3800   -5.3037   21.7921 C   0  0  0  0  0  0  0  0  0  0  0  0
    8.5694   -2.2368   25.8808 C   0  0  0  0  0  0  0  0  0  0  0  0
    8.2842    0.0887   22.4453 C   0  0  0  0  0  0  0  0  0  0  0  0
    6.1953   -6.2299   21.6314 C   0  0  0  0  0  0  0  0  0  0  0  0
    6.6952   -4.3480   20.4121 C   0  0  0  0  0  0  0  0  0  0  0  0
    9.6928   -1.6597   22.6149 C   0  0  0  0  0  0  0  0  0  0  0  0
    7.1857   -0.5515   20.2410 C   0  0  0  0  0  0  0  0  0  0  0  0
    9.5681   -5.0460   27.1521 C   0  0  0  0  0  0  0  0  0  0  0  0
    6.6105   -3.1376   26.9978 C   0  0  0  0  0  0  0  0  0  0  0  0
    7.8487   -3.3420   26.3612 C   0  0  0  0  0  0  0  0  0  0  0  0
    9.2912   -0.5035   23.2468 C   0  0  0  0  0  0  0  0  0  0  0  0
    8.0641   -0.9451   26.0215 C   0  0  0  0  0  0  0  0  0  0  0  0
    5.8994   -1.0872   20.3039 C   0  0  0  0  0  0  0  0  0  0  0  0
    7.9931   -4.3136   20.8957 C   0  0  0  0  0  0  0  0  0  0  0  0
    8.1009   -0.7237   21.3482 C   0  0  0  0  0  0  0  0  0  0  0  0
    6.2168   -6.6531   28.3375 C   0  0  0  0  0  0  0  0  0  0  0  0
    5.7934   -4.2854   27.5401 C   0  0  0  0  0  0  0  0  0  0  0  0
    7.3112   -5.8024   26.2922 C   0  0  0  0  0  0  0  0  0  0  0  0
    8.4180   -4.7395   26.2015 C   0  0  0  0  0  0  0  0  0  0  0  0
    9.8238    0.0296   24.5454 C   0  0  0  0  0  0  0  0  0  0  0  0
    5.2097   -6.4025   29.4324 C   0  0  0  0  0  0  0  0  0  0  0  0
    5.7830   -5.2839   20.7581 N   0  0  0  0  0  0  0  0  0  0  0  0
    8.9622   -1.7836   21.4620 N   0  0  0  0  0  0  0  0  0  0  0  0
    6.4576   -5.5929   27.4607 N   0  0  0  0  0  0  0  0  0  0  0  0
    8.7973    0.1562   25.5332 N   0  0  0  0  0  0  0  0  0  0  0  0
    6.7756   -7.7506   28.2694 O   0  0  0  0  0  0  0  0  0  0  0  0
   10.4887   -3.5439   20.5758 O   0  0  0  0  0  0  0  0  0  0  0  0
    8.6694   -2.5963   19.0707 O   0  0  0  0  0  0  0  0  0  0  0  0
    5.4926   -1.7676   21.3857 F   0  0  0  0  0  0  0  0  0  0  0  0
    9.1262   -3.0466   20.3875 S   0  0  0  0  0  0  0  0  0  0  0  0
    6.1123   -5.7995   30.8175 Cl  0  0  0  0  0  0  0  0  0  0  0  0
  1  3  2  0
  1  4  1  0
  2  5  2  0
  2  7  1  0
  3  8  1  0
  4  9  2  0
  5 12  1  0
  6 13  2  0
  6 16  1  0
  7 19  2  0
  8 20  2  0
  9 20  1  0
 10 11  2  0
 10 21  1  0
 11 24  1  0
 12 25  2  0
 13 26  1  0
 14 22  1  0
 14 24  2  0
 15 23  1  0
 15 27  2  0
 16 34  2  0
 17 26  2  0
 17 34  1  0
 18 23  2  0
 18 35  1  0
 19 25  1  0
 19 27  1  0
 20 31  1  0
 21 22  2  0
 21 29  1  0
 22 31  1  0
 23 32  1  0
 24 37  1  0
 25 41  1  0
 26 42  1  0
 27 35  1  0
 28 33  1  0
 28 36  1  0
 28 38  2  0
 29 36  1  0
 30 31  1  0
 30 36  1  0
 32 37  1  0
 33 43  1  0
 35 42  1  0
 39 42  2  0
 40 42  2  0
M  END
