MAK-UNK-60abb798-10
     RDKit          3D

 22 24  0  0  1  0  0  0  0  0999 V2000
    7.5499   -5.5540   22.1873 C   0  0  0  0  0  0  0  0  0  0  0  0
    6.6419   -5.2348   21.1762 C   0  0  0  0  0  0  0  0  0  0  0  0
    8.1594   -4.5454   22.9491 C   0  0  0  0  0  0  0  0  0  0  0  0
    7.8756   -3.2007   22.6434 C   0  0  0  0  0  0  0  0  0  0  0  0
    6.3388   -3.9039   20.9044 C   0  0  0  0  0  0  0  0  0  0  0  0
    6.9527   -2.8891   21.6352 C   0  0  0  0  0  0  0  0  0  0  0  0
   14.0751   -2.5875   25.6341 C   0  0  0  0  0  0  0  0  0  0  0  0
    8.5238   -2.0925   23.4310 C   0  0  0  0  0  0  0  0  0  0  0  0
   11.8842   -0.2616   23.4379 C   0  0  0  0  0  0  0  0  0  0  0  0
   13.1022   -0.7517   24.2139 C   0  0  0  0  0  0  0  0  0  0  0  0
   10.6279   -0.2339   24.3065 C   0  0  0  0  0  0  0  0  0  0  0  0
   11.6066   -2.0973   25.7433 C   0  0  0  0  0  0  0  0  0  0  0  0
    9.1685   -4.8801   24.0338 C   0  0  0  0  0  0  0  0  0  0  0  0
   12.8513   -2.1267   24.8429 C   0  0  0  0  0  0  0  0  0  0  0  0
   10.3638   -1.5527   25.0344 C   0  0  0  0  0  0  0  0  0  0  0  0
    9.8069   -2.5854   24.0976 C   0  0  0  0  0  0  0  0  0  0  0  0
    8.6932   -5.9719   24.9908 C   0  0  0  0  0  0  0  0  0  0  0  0
    9.7645   -6.2415   25.9708 N   0  0  0  0  0  0  0  0  0  0  0  0
   14.0448   -2.8560   26.8305 O   0  0  0  0  0  0  0  0  0  0  0  0
    9.4905   -3.7498   24.8627 O   0  0  0  0  0  0  0  0  0  0  0  0
    5.4453   -3.6090   19.9194 O   0  0  0  0  0  0  0  0  0  0  0  0
    6.6438   -1.5886   21.3581 O   0  0  0  0  0  0  0  0  0  0  0  0
  1  2  2  0
  1  3  1  0
  2  5  1  0
  3  4  2  0
  3 13  1  0
  4  6  1  0
  4  8  1  0
  5  6  2  0
  5 21  1  0
  6 22  1  0
  7 14  1  0
  7 19  2  0
  8 16  1  0
  9 10  1  0
  9 11  1  0
 10 14  1  0
 11 15  1  0
 12 14  1  0
 12 15  1  0
 13 17  1  0
 13 20  1  0
 15 16  1  0
 16 20  1  0
 17 18  1  0
M  CHG  1  18   1
M  END
