MAK-UNK-10572812-12
     RDKit          3D

 34 38  0  0  0  0  0  0  0  0999 V2000
    5.2336   -3.6457   26.5077 C   0  0  0  0  0  0  0  0  0  0  0  0
    6.5689   -3.2943   26.3183 C   0  0  0  0  0  0  0  0  0  0  0  0
   12.2525    4.8920   22.7138 C   0  0  0  0  0  0  0  0  0  0  0  0
   12.7549    2.5274   22.4824 C   0  0  0  0  0  0  0  0  0  0  0  0
    4.9243   -4.9711   26.7820 C   0  0  0  0  0  0  0  0  0  0  0  0
    9.3548    4.4592   24.8993 C   0  0  0  0  0  0  0  0  0  0  0  0
    9.3136   -5.6965   26.5076 C   0  0  0  0  0  0  0  0  0  0  0  0
    7.5343   -4.3093   26.4163 C   0  0  0  0  0  0  0  0  0  0  0  0
   11.1620    4.5701   23.5461 C   0  0  0  0  0  0  0  0  0  0  0  0
   10.1788    5.3363   24.2325 C   0  0  0  0  0  0  0  0  0  0  0  0
    8.9474   -4.3844   26.2986 C   0  0  0  0  0  0  0  0  0  0  0  0
   10.9007    3.2263   23.8221 C   0  0  0  0  0  0  0  0  0  0  0  0
   11.6786    2.1841   23.3055 C   0  0  0  0  0  0  0  0  0  0  0  0
   13.0393    3.8598   22.1898 C   0  0  0  0  0  0  0  0  0  0  0  0
    7.0843   -5.5962   26.6965 C   0  0  0  0  0  0  0  0  0  0  0  0
    9.8465   -2.8539   24.5462 C   0  0  0  0  0  0  0  0  0  0  0  0
    6.9812    7.5313   23.1715 C   0  0  0  0  0  0  0  0  0  0  0  0
   10.4996    0.1204   22.6816 C   0  0  0  0  0  0  0  0  0  0  0  0
   11.4351    0.3712   24.9799 C   0  0  0  0  0  0  0  0  0  0  0  0
   10.7448   -1.3842   22.7688 C   0  0  0  0  0  0  0  0  0  0  0  0
   11.6615   -1.1396   25.0296 C   0  0  0  0  0  0  0  0  0  0  0  0
    5.7063    6.8520   22.7956 C   0  0  0  0  0  0  0  0  0  0  0  0
    9.8808   -3.2494   26.0007 C   0  0  0  0  0  0  0  0  0  0  0  0
   10.0556    6.8080   24.2355 C   0  0  0  0  0  0  0  0  0  0  0  0
    9.4532    7.3900   22.9437 C   0  0  0  0  0  0  0  0  0  0  0  0
    5.8105   -5.9885   26.8877 N   0  0  0  0  0  0  0  0  0  0  0  0
    9.7984    3.1889   24.6459 N   0  0  0  0  0  0  0  0  0  0  0  0
    8.1759   -6.4226   26.7476 N   0  0  0  0  0  0  0  0  0  0  0  0
   11.4092    0.8401   23.5876 N   0  0  0  0  0  0  0  0  0  0  0  0
   10.7119   -1.8340   24.1581 N   0  0  0  0  0  0  0  0  0  0  0  0
    8.1222    6.9029   22.6988 N   0  0  0  0  0  0  0  0  0  0  0  0
    9.0722   -3.4337   23.7806 O   0  0  0  0  0  0  0  0  0  0  0  0
    6.9448    8.5562   23.8423 O   0  0  0  0  0  0  0  0  0  0  0  0
   14.0783    4.1579   21.3976 F   0  0  0  0  0  0  0  0  0  0  0  0
  1  2  2  0
  1  5  1  0
  2  8  1  0
  3  9  2  0
  3 14  1  0
  4 13  1  0
  4 14  2  0
  5 26  2  0
  6 10  2  0
  6 27  1  0
  7 11  2  0
  7 28  1  0
  8 11  1  0
  8 15  2  0
  9 10  1  0
  9 12  1  0
 10 24  1  0
 11 23  1  0
 12 13  2  0
 12 27  1  0
 13 29  1  0
 14 34  1  0
 15 26  1  0
 15 28  1  0
 16 23  1  0
 16 30  1  0
 16 32  2  0
 17 22  1  0
 17 31  1  0
 17 33  2  0
 18 20  1  0
 18 29  1  0
 19 21  1  0
 19 29  1  0
 20 30  1  0
 21 30  1  0
 24 25  1  0
 25 31  1  0
M  END
