MAK-UNK-129dcd6f-3
     RDKit          3D

 26 28  0  0  0  0  0  0  0  0999 V2000
   12.3165    6.6073   22.1286 C   0  0  0  0  0  0  0  0  0  0  0  0
   10.0687   -2.2216   24.0844 C   0  0  0  0  0  0  0  0  0  0  0  0
    8.2296   -1.5009   25.4755 C   0  0  0  0  0  0  0  0  0  0  0  0
   11.3522    5.6858   22.5215 C   0  0  0  0  0  0  0  0  0  0  0  0
   10.3069   -0.8983   23.7136 C   0  0  0  0  0  0  0  0  0  0  0  0
    8.4678   -0.1775   25.1047 C   0  0  0  0  0  0  0  0  0  0  0  0
    9.7896   -4.6063   25.9912 C   0  0  0  0  0  0  0  0  0  0  0  0
   13.6259    6.1682   22.0170 C   0  0  0  0  0  0  0  0  0  0  0  0
    9.5305   -5.9196   26.3489 C   0  0  0  0  0  0  0  0  0  0  0  0
   13.0576    4.0328   22.6459 C   0  0  0  0  0  0  0  0  0  0  0  0
    7.4034   -5.8293   25.4854 C   0  0  0  0  0  0  0  0  0  0  0  0
    9.0300   -2.5230   24.9653 C   0  0  0  0  0  0  0  0  0  0  0  0
    8.7817   -3.8959   25.3488 C   0  0  0  0  0  0  0  0  0  0  0  0
    9.5065    0.1238   24.2238 C   0  0  0  0  0  0  0  0  0  0  0  0
   11.7216    4.3719   22.7871 C   0  0  0  0  0  0  0  0  0  0  0  0
    7.5627   -4.5117   25.0874 C   0  0  0  0  0  0  0  0  0  0  0  0
    5.2448   -4.3482   24.1259 C   0  0  0  0  0  0  0  0  0  0  0  0
   10.9720    2.0570   23.4929 C   0  0  0  0  0  0  0  0  0  0  0  0
    4.3963   -3.3117   23.4329 C   0  0  0  0  0  0  0  0  0  0  0  0
   14.0227    4.9002   22.2664 N   0  0  0  0  0  0  0  0  0  0  0  0
    8.3592   -6.5517   26.1117 N   0  0  0  0  0  0  0  0  0  0  0  0
    6.5136   -3.8495   24.4468 N   0  0  0  0  0  0  0  0  0  0  0  0
    9.7452    1.4473   23.8523 N   0  0  0  0  0  0  0  0  0  0  0  0
   10.7632    3.4118   23.1890 N   0  0  0  0  0  0  0  0  0  0  0  0
    4.8056   -5.4714   24.3504 O   0  0  0  0  0  0  0  0  0  0  0  0
   12.0540    1.4799   23.4549 O   0  0  0  0  0  0  0  0  0  0  0  0
  1  4  2  0
  1  8  1  0
  2  5  2  0
  2 12  1  0
  3  6  1  0
  3 12  2  0
  4 15  1  0
  5 14  1  0
  6 14  2  0
  7  9  2  0
  7 13  1  0
  8 20  2  0
  9 21  1  0
 10 15  2  0
 10 20  1  0
 11 16  1  0
 11 21  2  0
 12 13  1  0
 13 16  2  0
 14 23  1  0
 15 24  1  0
 16 22  1  0
 17 19  1  0
 17 22  1  0
 17 25  2  0
 18 23  1  0
 18 24  1  0
 18 26  2  0
M  END
