MAK-UNK-b2c98f02-8
     RDKit          3D

 28 30  0  0  1  0  0  0  0  0999 V2000
   12.8034    0.9191   23.4343 C   0  0  0  0  0  0  0  0  0  0  0  0
   13.4537   -0.1251   22.7768 C   0  0  0  0  0  0  0  0  0  0  0  0
   12.2496    0.7105   24.6975 C   0  0  0  0  0  0  0  0  0  0  0  0
    6.5027    1.2109   19.9150 C   0  0  0  0  0  0  0  0  0  0  0  0
   13.5501   -1.3780   23.3823 C   0  0  0  0  0  0  0  0  0  0  0  0
   12.3460   -0.5424   25.3030 C   0  0  0  0  0  0  0  0  0  0  0  0
    6.2201    0.0918   20.6902 C   0  0  0  0  0  0  0  0  0  0  0  0
    6.9137    1.0072   18.6076 C   0  0  0  0  0  0  0  0  0  0  0  0
    6.7726   -1.2756   18.8244 C   0  0  0  0  0  0  0  0  0  0  0  0
   12.9963   -1.5866   24.6454 C   0  0  0  0  0  0  0  0  0  0  0  0
    6.3552   -1.1789   20.1421 C   0  0  0  0  0  0  0  0  0  0  0  0
    6.1641   -3.6645   20.4984 C   0  0  0  0  0  0  0  0  0  0  0  0
    7.1465   -5.2544   25.2029 C   0  0  0  0  0  0  0  0  0  0  0  0
    6.2247   -5.3524   23.9911 C   0  0  0  0  0  0  0  0  0  0  0  0
    8.6004   -5.5386   24.8328 C   0  0  0  0  0  0  0  0  0  0  0  0
    8.1448   -4.7235   22.4706 C   0  0  0  0  0  0  0  0  0  0  0  0
    6.6848   -4.4346   22.8525 C   0  0  0  0  0  0  0  0  0  0  0  0
    9.0991   -4.6857   23.6662 C   0  0  0  0  0  0  0  0  0  0  0  0
   13.1000   -2.9418   25.3010 C   0  0  0  0  0  0  0  0  0  0  0  0
    5.7720   -4.5889   21.6362 C   0  0  0  0  0  0  0  0  0  0  0  0
   11.9261   -3.8579   24.9638 C   0  0  0  0  0  0  0  0  0  0  0  0
    7.0565   -0.2116   18.0403 N   0  0  0  0  0  0  0  0  0  0  0  0
    6.0751   -2.3366   20.9063 N   0  0  0  0  0  0  0  0  0  0  0  0
   10.6286   -3.2863   25.3668 N   0  0  0  0  0  0  0  0  0  0  0  0
    6.5031   -4.0852   19.3972 O   0  0  0  0  0  0  0  0  0  0  0  0
   10.0099   -2.3101   23.0519 O   0  0  0  0  0  0  0  0  0  0  0  0
    8.2383   -2.5174   24.8337 O   0  0  0  0  0  0  0  0  0  0  0  0
    9.4319   -3.0190   24.1780 S   0  0  0  0  0  0  0  0  0  0  0  0
  1  2  2  0
  1  3  1  0
  2  5  1  0
  3  6  2  0
  4  7  2  0
  4  8  1  0
  5 10  2  0
  6 10  1  0
  7 11  1  0
  8 22  2  0
  9 11  2  0
  9 22  1  0
 10 19  1  0
 11 23  1  0
 12 20  1  0
 12 23  1  0
 12 25  2  0
 13 14  1  0
 13 15  1  0
 14 17  1  0
 15 18  1  0
 16 17  1  0
 16 18  1  0
 17 20  1  0
 18 28  1  0
 19 21  1  0
 21 24  1  0
 24 28  1  0
 26 28  2  0
 27 28  2  0
M  END
