MAK-UNK-8fdbca50-26
     RDKit          3D

 40 43  0  0  0  0  0  0  0  0999 V2000
    9.5759   -5.2815   25.3619 C   0  0  0  0  0  0  0  0  0  0  0  0
   10.5964   -4.3528   25.5660 C   0  0  0  0  0  0  0  0  0  0  0  0
    3.0810   -4.8983   26.1296 C   0  0  0  0  0  0  0  0  0  0  0  0
    8.5494   -5.0027   24.4596 C   0  0  0  0  0  0  0  0  0  0  0  0
   10.5904   -3.1453   24.8679 C   0  0  0  0  0  0  0  0  0  0  0  0
    3.6934   -3.8452   25.4594 C   0  0  0  0  0  0  0  0  0  0  0  0
    7.4017   -3.8279   21.4891 C   0  0  0  0  0  0  0  0  0  0  0  0
    3.8855   -5.7561   26.8622 C   0  0  0  0  0  0  0  0  0  0  0  0
    5.7874   -4.5963   26.3004 C   0  0  0  0  0  0  0  0  0  0  0  0
    5.4859   -2.8058   22.0850 C   0  0  0  0  0  0  0  0  0  0  0  0
    8.5433   -3.7952   23.7614 C   0  0  0  0  0  0  0  0  0  0  0  0
    9.5638   -2.8664   23.9655 C   0  0  0  0  0  0  0  0  0  0  0  0
    6.1474   -3.3695   21.0163 C   0  0  0  0  0  0  0  0  0  0  0  0
    5.0721   -3.6842   25.5412 C   0  0  0  0  0  0  0  0  0  0  0  0
    7.4685   -3.5306   22.8325 C   0  0  0  0  0  0  0  0  0  0  0  0
   11.7251   -0.3853   22.6655 C   0  0  0  0  0  0  0  0  0  0  0  0
   12.8568    4.4967   23.6377 C   0  0  0  0  0  0  0  0  0  0  0  0
   12.7138    1.0358   24.4527 C   0  0  0  0  0  0  0  0  0  0  0  0
   10.5524    1.7293   23.3080 C   0  0  0  0  0  0  0  0  0  0  0  0
   13.4419    2.0929   23.6244 C   0  0  0  0  0  0  0  0  0  0  0  0
   11.3455    2.7788   22.5282 C   0  0  0  0  0  0  0  0  0  0  0  0
   11.4171    0.5600   23.7900 C   0  0  0  0  0  0  0  0  0  0  0  0
   12.2589   -3.1711   21.6239 C   0  0  0  0  0  0  0  0  0  0  0  0
   11.0077   -1.6738   20.0306 C   0  0  0  0  0  0  0  0  0  0  0  0
    6.5161   -1.2717   18.8485 C   0  0  0  0  0  0  0  0  0  0  0  0
    9.5913   -1.5563   23.2327 C   0  0  0  0  0  0  0  0  0  0  0  0
    5.6413   -3.4753   19.6343 C   0  0  0  0  0  0  0  0  0  0  0  0
   11.8716    5.5667   23.2397 C   0  0  0  0  0  0  0  0  0  0  0  0
   10.9762   -2.3919   21.3718 C   0  0  0  0  0  0  0  0  0  0  0  0
    5.2277   -5.6318   26.9653 N   0  0  0  0  0  0  0  0  0  0  0  0
    6.2984   -2.9097   23.1838 N   0  0  0  0  0  0  0  0  0  0  0  0
   12.5395    3.1888   23.2735 N   0  0  0  0  0  0  0  0  0  0  0  0
   10.8002   -1.4040   22.4332 N   0  0  0  0  0  0  0  0  0  0  0  0
    5.3353   -2.1574   18.9975 N   0  0  0  0  0  0  0  0  0  0  0  0
   12.7583   -0.2250   22.0103 O   0  0  0  0  0  0  0  0  0  0  0  0
   13.8760    4.8155   24.2555 O   0  0  0  0  0  0  0  0  0  0  0  0
    4.9160   -1.2847   24.4731 O   0  0  0  0  0  0  0  0  0  0  0  0
    7.1223   -2.0951   25.4471 O   0  0  0  0  0  0  0  0  0  0  0  0
    5.8890   -2.3528   24.7000 S   0  0  0  0  0  0  0  0  0  0  0  0
   10.7048    5.6902   24.5515 Cl  0  0  0  0  0  0  0  0  0  0  0  0
  1  2  2  0
  1  4  1  0
  2  5  1  0
  3  6  2  0
  3  8  1  0
  4 11  2  0
  5 12  2  0
  6 14  1  0
  7 13  1  0
  7 15  2  0
  8 30  2  0
  9 14  2  0
  9 30  1  0
 10 13  2  0
 10 31  1  0
 11 12  1  0
 11 15  1  0
 12 26  1  0
 13 27  1  0
 14 39  1  0
 15 31  1  0
 16 22  1  0
 16 33  1  0
 16 35  2  0
 17 28  1  0
 17 32  1  0
 17 36  2  0
 18 20  1  0
 18 22  1  0
 19 21  1  0
 19 22  1  0
 20 32  1  0
 21 32  1  0
 23 29  1  0
 24 29  1  0
 25 34  1  0
 26 33  1  0
 27 34  1  0
 28 40  1  0
 29 33  1  0
 31 39  1  0
 37 39  2  0
 38 39  2  0
M  CHG  1  34   1
M  END
