MAK-UNK-516d8086-24
     RDKit          3D

 22 24  0  0  0  0  0  0  0  0999 V2000
   14.2619   -2.0559   25.9140 C   0  0  0  0  0  0  0  0  0  0  0  0
    9.7127   -5.2996   24.0610 C   0  0  0  0  0  0  0  0  0  0  0  0
   10.3516   -4.0636   23.9142 C   0  0  0  0  0  0  0  0  0  0  0  0
    8.6449   -3.2972   22.3526 C   0  0  0  0  0  0  0  0  0  0  0  0
   13.0074   -1.4744   25.5873 C   0  0  0  0  0  0  0  0  0  0  0  0
    8.0348   -4.5252   22.5156 C   0  0  0  0  0  0  0  0  0  0  0  0
    8.5474   -5.5187   23.3512 C   0  0  0  0  0  0  0  0  0  0  0  0
    9.8221   -3.0717   23.0676 C   0  0  0  0  0  0  0  0  0  0  0  0
   11.2336   -1.3158   24.1987 C   0  0  0  0  0  0  0  0  0  0  0  0
   10.6930   -0.3676   25.0288 C   0  0  0  0  0  0  0  0  0  0  0  0
    6.8053   -5.0354   21.9015 C   0  0  0  0  0  0  0  0  0  0  0  0
    7.6736   -6.7246   23.3197 C   0  0  0  0  0  0  0  0  0  0  0  0
    7.6617    1.8324   24.7555 C   0  0  0  0  0  0  0  0  0  0  0  0
   10.5294   -1.7641   22.9344 C   0  0  0  0  0  0  0  0  0  0  0  0
    9.0154    1.4647   25.2605 C   0  0  0  0  0  0  0  0  0  0  0  0
   15.2867   -2.5308   26.1808 N   0  0  0  0  0  0  0  0  0  0  0  0
   12.4141   -1.8968   24.4609 N   0  0  0  0  0  0  0  0  0  0  0  0
   12.5252   -0.5482   26.4390 N   0  0  0  0  0  0  0  0  0  0  0  0
   11.3353    0.0169   26.1467 N   0  0  0  0  0  0  0  0  0  0  0  0
    6.6297   -6.3215   22.3965 N   0  0  0  0  0  0  0  0  0  0  0  0
    9.4491    0.2167   24.7127 N   0  0  0  0  0  0  0  0  0  0  0  0
    6.1107   -4.4153   21.1183 O   0  0  0  0  0  0  0  0  0  0  0  0
  1  5  1  0
  1 16  3  0
  2  3  2  0
  2  7  1  0
  3  8  1  0
  4  6  1  0
  4  8  2  0
  5 17  2  0
  5 18  1  0
  6  7  2  0
  6 11  1  0
  7 12  1  0
  8 14  1  0
  9 10  2  0
  9 14  1  0
  9 17  1  0
 10 19  1  0
 10 21  1  0
 11 20  1  0
 11 22  2  0
 12 20  1  0
 13 15  1  0
 15 21  1  0
 18 19  2  0
M  END
