MAK-UNK-1bb0b7ee-12
     RDKit          3D

 24 27  0  0  0  0  0  0  0  0999 V2000
   14.3309   -1.8867   23.2818 C   0  0  0  0  0  0  0  0  0  0  0  0
    5.7301    1.1822   19.7519 C   0  0  0  0  0  0  0  0  0  0  0  0
    6.2930    1.0560   18.4798 C   0  0  0  0  0  0  0  0  0  0  0  0
   14.3268   -0.8151   24.1747 C   0  0  0  0  0  0  0  0  0  0  0  0
   13.1255   -2.4015   22.8045 C   0  0  0  0  0  0  0  0  0  0  0  0
    6.3390    0.6010   20.8713 C   0  0  0  0  0  0  0  0  0  0  0  0
    7.4818    0.3465   18.2793 C   0  0  0  0  0  0  0  0  0  0  0  0
   13.1174   -0.2584   24.5904 C   0  0  0  0  0  0  0  0  0  0  0  0
   11.9161   -1.8448   23.2203 C   0  0  0  0  0  0  0  0  0  0  0  0
    7.5338   -0.1155   20.6881 C   0  0  0  0  0  0  0  0  0  0  0  0
    8.0705   -0.2239   19.4083 C   0  0  0  0  0  0  0  0  0  0  0  0
   11.9119   -0.7732   24.1133 C   0  0  0  0  0  0  0  0  0  0  0  0
    9.3156   -1.2716   20.9073 C   0  0  0  0  0  0  0  0  0  0  0  0
    9.0878    1.5731   23.8580 C   0  0  0  0  0  0  0  0  0  0  0  0
   11.0767    1.6482   22.8664 C   0  0  0  0  0  0  0  0  0  0  0  0
   10.5363    1.1764   24.2390 C   0  0  0  0  0  0  0  0  0  0  0  0
   10.6284   -2.4121   22.6966 C   0  0  0  0  0  0  0  0  0  0  0  0
    8.3209   -0.7723   21.6060 N   0  0  0  0  0  0  0  0  0  0  0  0
    9.2097   -0.9683   19.5784 N   0  0  0  0  0  0  0  0  0  0  0  0
   10.3739   -2.0069   21.3139 N   0  0  0  0  0  0  0  0  0  0  0  0
    9.9751    4.0325   23.3311 O   0  0  0  0  0  0  0  0  0  0  0  0
    9.0705    2.6278   21.4103 O   0  0  0  0  0  0  0  0  0  0  0  0
   10.7394   -0.2183   24.5300 O   0  0  0  0  0  0  0  0  0  0  0  0
    9.7097    2.7561   22.7021 S   0  0  0  0  0  0  0  0  0  0  0  0
  1  4  2  0
  1  5  1  0
  2  3  2  0
  2  6  1  0
  3  7  1  0
  4  8  1  0
  5  9  2  0
  6 10  2  0
  7 11  2  0
  8 12  2  0
  9 12  1  0
  9 17  1  0
 10 11  1  0
 10 18  1  0
 11 19  1  0
 12 23  1  0
 13 18  2  0
 13 19  1  0
 13 20  1  0
 14 16  1  0
 14 24  1  0
 15 16  1  0
 15 24  1  0
 16 23  1  0
 17 20  1  0
 21 24  2  0
 22 24  2  0
M  END
