MAK-UNK-2c1752f0-2
     RDKit          3D

 11 11  0  0  1  0  0  0  0  0999 V2000
    5.3184    1.2585   19.6483 C   0  0  0  0  0  0  0  0  0  0  0  0
    5.9970    0.8172   20.7788 C   0  0  0  0  0  0  0  0  0  0  0  0
    5.8871    1.0054   18.4105 C   0  0  0  0  0  0  0  0  0  0  0  0
    7.6906   -0.0577   19.3568 C   0  0  0  0  0  0  0  0  0  0  0  0
    7.2065    0.1458   20.6390 C   0  0  0  0  0  0  0  0  0  0  0  0
    9.3308    0.3364   21.9714 C   0  0  0  0  0  0  0  0  0  0  0  0
   10.1877   -0.0528   23.1513 C   0  0  0  0  0  0  0  0  0  0  0  0
    8.1076   -1.8722   21.8417 C   0  0  0  0  0  0  0  0  0  0  0  0
    7.9697   -0.3481   21.8509 C   0  0  0  0  0  0  0  0  0  0  0  0
    7.0600    0.3563   18.2349 N   0  0  0  0  0  0  0  0  0  0  0  0
    9.7205    1.1793   21.1630 O   0  0  0  0  0  0  0  0  0  0  0  0
  1  2  2  0
  1  3  1  0
  2  5  1  0
  3 10  2  0
  4  5  2  0
  4 10  1  0
  5  9  1  0
  6  7  1  0
  6  9  1  0
  6 11  2  0
  8  9  1  0
M  END
