MAK-UNK-9e4a73aa-14
     RDKit          3D

 26 29  0  0  0  0  0  0  0  0999 V2000
    8.0389   -4.8299   25.3688 C   0  0  0  0  0  0  0  0  0  0  0  0
    8.4575   -3.5767   25.8157 C   0  0  0  0  0  0  0  0  0  0  0  0
    8.0383   -5.1193   24.0043 C   0  0  0  0  0  0  0  0  0  0  0  0
    8.8755   -2.6128   24.8982 C   0  0  0  0  0  0  0  0  0  0  0  0
    8.4562   -4.1555   23.0867 C   0  0  0  0  0  0  0  0  0  0  0  0
   12.3038    0.2211   21.9513 C   0  0  0  0  0  0  0  0  0  0  0  0
   11.6213   -1.9584   23.5169 C   0  0  0  0  0  0  0  0  0  0  0  0
    6.2912    0.8835   17.7988 C   0  0  0  0  0  0  0  0  0  0  0  0
    5.9066    0.9717   19.1186 C   0  0  0  0  0  0  0  0  0  0  0  0
    8.2865   -0.0305   18.4411 C   0  0  0  0  0  0  0  0  0  0  0  0
   11.0112   -0.3278   21.8697 C   0  0  0  0  0  0  0  0  0  0  0  0
    8.8748   -2.9022   23.5336 C   0  0  0  0  0  0  0  0  0  0  0  0
   10.6348   -1.3997   22.6794 C   0  0  0  0  0  0  0  0  0  0  0  0
   13.2455   -0.3178   22.8213 C   0  0  0  0  0  0  0  0  0  0  0  0
   12.9078   -1.4176   23.5952 C   0  0  0  0  0  0  0  0  0  0  0  0
    7.9024    0.0583   19.7610 C   0  0  0  0  0  0  0  0  0  0  0  0
   10.0819    0.2100   20.8606 C   0  0  0  0  0  0  0  0  0  0  0  0
    8.3626   -1.4339   21.6544 C   0  0  0  0  0  0  0  0  0  0  0  0
    7.4880    0.3808   17.4364 N   0  0  0  0  0  0  0  0  0  0  0  0
    6.7054    0.5607   20.1234 N   0  0  0  0  0  0  0  0  0  0  0  0
    9.3049   -1.9107   22.5900 N   0  0  0  0  0  0  0  0  0  0  0  0
    8.8202   -0.4095   20.7807 N   0  0  0  0  0  0  0  0  0  0  0  0
   10.4928    1.1032   20.1217 O   0  0  0  0  0  0  0  0  0  0  0  0
    7.1870   -1.8230   21.6611 O   0  0  0  0  0  0  0  0  0  0  0  0
   14.4722    0.2190   22.8826 F   0  0  0  0  0  0  0  0  0  0  0  0
   14.0673   -2.1178   24.6586 Cl  0  0  0  0  0  0  0  0  0  0  0  0
  1  2  2  0
  1  3  1  0
  2  4  1  0
  3  5  2  0
  4 12  2  0
  5 12  1  0
  6 11  2  0
  6 14  1  0
  7 13  2  0
  7 15  1  0
  8  9  2  0
  8 19  1  0
  9 20  1  0
 10 16  1  0
 10 19  2  0
 11 13  1  0
 11 17  1  0
 12 21  1  0
 13 21  1  0
 14 15  2  0
 14 25  1  0
 15 26  1  0
 16 20  2  0
 16 22  1  0
 17 22  1  0
 17 23  2  0
 18 21  1  0
 18 22  1  0
 18 24  2  0
M  END
