MAK-UNK-acefcb18-7
     RDKit          3D

 22 24  0  0  1  0  0  0  0  0999 V2000
   11.8695   -1.7433   23.6151 C   0  0  0  0  0  0  0  0  0  0  0  0
   14.0388   -0.7819   24.0702 C   0  0  0  0  0  0  0  0  0  0  0  0
   12.3005   -2.9630   24.1367 C   0  0  0  0  0  0  0  0  0  0  0  0
   14.4698   -2.0016   24.5918 C   0  0  0  0  0  0  0  0  0  0  0  0
   10.2969    6.8355   23.0444 C   0  0  0  0  0  0  0  0  0  0  0  0
    9.8091    7.7007   23.9989 C   0  0  0  0  0  0  0  0  0  0  0  0
   11.2330    5.9511   24.9793 C   0  0  0  0  0  0  0  0  0  0  0  0
   12.7386   -0.6528   23.5818 C   0  0  0  0  0  0  0  0  0  0  0  0
   13.6007   -3.0922   24.6251 C   0  0  0  0  0  0  0  0  0  0  0  0
   11.1217    5.8219   23.6122 C   0  0  0  0  0  0  0  0  0  0  0  0
   12.2779    0.6535   23.0234 C   0  0  0  0  0  0  0  0  0  0  0  0
   12.0300    3.5072   23.4054 C   0  0  0  0  0  0  0  0  0  0  0  0
   11.1129    1.2226   23.8548 C   0  0  0  0  0  0  0  0  0  0  0  0
   10.7651    2.6433   23.3950 C   0  0  0  0  0  0  0  0  0  0  0  0
   13.1407    2.8455   22.5781 C   0  0  0  0  0  0  0  0  0  0  0  0
   14.0603   -4.3962   25.1843 C   0  0  0  0  0  0  0  0  0  0  0  0
   11.7401    4.8254   22.8792 N   0  0  0  0  0  0  0  0  0  0  0  0
   13.4072    1.5346   23.0815 O   0  0  0  0  0  0  0  0  0  0  0  0
    9.9702    0.3830   23.7233 O   0  0  0  0  0  0  0  0  0  0  0  0
   10.2392    2.5925   22.0659 O   0  0  0  0  0  0  0  0  0  0  0  0
   14.3197    3.6409   22.6852 O   0  0  0  0  0  0  0  0  0  0  0  0
   10.3452    7.2898   25.5725 S   0  0  0  0  0  0  0  0  0  0  0  0
  1  3  2  0
  1  8  1  0
  2  4  1  0
  2  8  2  0
  3  9  1  0
  4  9  2  0
  5  6  2  0
  5 10  1  0
  6 22  1  0
  7 10  2  0
  7 22  1  0
  8 11  1  0
  9 16  1  0
 10 17  1  0
 11 13  1  0
 11 18  1  0
 12 14  1  0
 12 15  1  0
 12 17  1  0
 13 14  1  0
 13 19  1  0
 14 20  1  0
 15 18  1  0
 15 21  1  0
M  END
