MAK-UNK-8fdbca50-20
     RDKit          3D

 40 43  0  0  1  0  0  0  0  0999 V2000
    8.2803   -5.8059   20.1840 C   0  0  0  0  0  0  0  0  0  0  0  0
    9.6598   -5.9662   20.3131 C   0  0  0  0  0  0  0  0  0  0  0  0
    7.1868   -1.4795   19.9704 C   0  0  0  0  0  0  0  0  0  0  0  0
    7.4854   -5.6611   21.3211 C   0  0  0  0  0  0  0  0  0  0  0  0
   10.2446   -5.9818   21.5794 C   0  0  0  0  0  0  0  0  0  0  0  0
    7.6578   -1.6863   21.2622 C   0  0  0  0  0  0  0  0  0  0  0  0
    6.6216   -6.5063   24.5081 C   0  0  0  0  0  0  0  0  0  0  0  0
    5.9833   -2.0680   19.6168 C   0  0  0  0  0  0  0  0  0  0  0  0
    5.7295   -3.0088   21.6974 C   0  0  0  0  0  0  0  0  0  0  0  0
    6.1412   -4.5075   25.4266 C   0  0  0  0  0  0  0  0  0  0  0  0
    8.0702   -5.6767   22.5874 C   0  0  0  0  0  0  0  0  0  0  0  0
    5.9256   -5.8614   25.5601 C   0  0  0  0  0  0  0  0  0  0  0  0
    9.4498   -5.8371   22.7165 C   0  0  0  0  0  0  0  0  0  0  0  0
    6.9212   -2.4645   22.1484 C   0  0  0  0  0  0  0  0  0  0  0  0
    7.2415   -5.5269   23.7638 C   0  0  0  0  0  0  0  0  0  0  0  0
    9.2041   -2.7275   23.8547 C   0  0  0  0  0  0  0  0  0  0  0  0
   11.2840   -2.9220   25.1489 C   0  0  0  0  0  0  0  0  0  0  0  0
   14.4388    1.0738   25.5228 C   0  0  0  0  0  0  0  0  0  0  0  0
   11.5689   -0.6132   24.2659 C   0  0  0  0  0  0  0  0  0  0  0  0
   13.5395   -2.2182   24.3263 C   0  0  0  0  0  0  0  0  0  0  0  0
   12.1657    0.0982   25.4789 C   0  0  0  0  0  0  0  0  0  0  0  0
   14.0853   -1.4443   25.5272 C   0  0  0  0  0  0  0  0  0  0  0  0
   12.0238   -2.0721   24.1573 C   0  0  0  0  0  0  0  0  0  0  0  0
    9.5134   -2.0606   27.2997 C   0  0  0  0  0  0  0  0  0  0  0  0
    9.5553   -4.5388   26.8492 C   0  0  0  0  0  0  0  0  0  0  0  0
    4.9964   -7.2758   28.9831 C   0  0  0  0  0  0  0  0  0  0  0  0
    5.1181   -6.5174   26.6064 C   0  0  0  0  0  0  0  0  0  0  0  0
   15.9264    0.8284   25.5477 C   0  0  0  0  0  0  0  0  0  0  0  0
    9.1644   -3.1682   26.3161 C   0  0  0  0  0  0  0  0  0  0  0  0
    5.2399   -2.8301   20.4500 N   0  0  0  0  0  0  0  0  0  0  0  0
    6.9427   -4.3159   24.3315 N   0  0  0  0  0  0  0  0  0  0  0  0
   13.6197   -0.0544   25.5060 N   0  0  0  0  0  0  0  0  0  0  0  0
    9.8714   -2.9303   25.0552 N   0  0  0  0  0  0  0  0  0  0  0  0
    5.7833   -6.5662   27.9449 N   0  0  0  0  0  0  0  0  0  0  0  0
   11.9310   -3.5757   25.9724 O   0  0  0  0  0  0  0  0  0  0  0  0
   14.0193    2.2341   25.5163 O   0  0  0  0  0  0  0  0  0  0  0  0
    6.9949   -1.7188   24.6717 O   0  0  0  0  0  0  0  0  0  0  0  0
   10.0273   -5.8541   23.9268 F   0  0  0  0  0  0  0  0  0  0  0  0
    7.4801   -2.7459   23.7764 S   0  0  0  0  0  0  0  0  0  0  0  0
   16.6982    2.4101   25.5282 Cl  0  0  0  0  0  0  0  0  0  0  0  0
  1  2  2  0
  1  4  1  0
  2  5  1  0
  3  6  2  0
  3  8  1  0
  4 11  2  0
  5 13  2  0
  6 14  1  0
  7 12  1  0
  7 15  2  0
  8 30  2  0
  9 14  2  0
  9 30  1  0
 10 12  2  0
 10 31  1  0
 11 13  1  0
 11 15  1  0
 12 27  1  0
 13 38  1  0
 14 39  1  0
 15 31  1  0
 16 33  1  0
 16 39  2  0
 17 23  1  0
 17 33  1  0
 17 35  2  0
 18 28  1  0
 18 32  1  0
 18 36  2  0
 19 21  1  0
 19 23  1  0
 20 22  1  0
 20 23  1  0
 21 32  1  0
 22 32  1  0
 24 29  1  0
 25 29  1  0
 26 34  1  0
 27 34  1  0
 28 40  1  0
 29 33  1  0
 31 39  1  0
 37 39  2  0
M  CHG  1  34   1
M  END
