MAK-UNK-f2409524-24
     RDKit          3D

 24 26  0  0  0  0  0  0  0  0999 V2000
   12.8616    4.7103   23.9548 C   0  0  0  0  0  0  0  0  0  0  0  0
   12.7005    5.6646   24.9464 C   0  0  0  0  0  0  0  0  0  0  0  0
   10.4240    5.7249   24.6431 C   0  0  0  0  0  0  0  0  0  0  0  0
   11.6600   -0.7995   23.5378 C   0  0  0  0  0  0  0  0  0  0  0  0
   11.7244    4.2616   23.2925 C   0  0  0  0  0  0  0  0  0  0  0  0
   10.4784    4.7736   23.6372 C   0  0  0  0  0  0  0  0  0  0  0  0
   10.3334   -1.0628   23.7699 C   0  0  0  0  0  0  0  0  0  0  0  0
    7.9948    4.7783   23.2422 C   0  0  0  0  0  0  0  0  0  0  0  0
    7.2226   -4.1457   23.8837 C   0  0  0  0  0  0  0  0  0  0  0  0
    7.7889   -3.7290   22.5297 C   0  0  0  0  0  0  0  0  0  0  0  0
    8.2985   -4.1533   24.9654 C   0  0  0  0  0  0  0  0  0  0  0  0
    8.5048   -2.3818   22.6081 C   0  0  0  0  0  0  0  0  0  0  0  0
    9.0169   -2.8083   25.0559 C   0  0  0  0  0  0  0  0  0  0  0  0
    9.5963   -2.3828   23.6942 C   0  0  0  0  0  0  0  0  0  0  0  0
    7.0088    4.0806   22.3392 C   0  0  0  0  0  0  0  0  0  0  0  0
   11.8704    3.2233   22.2080 C   0  0  0  0  0  0  0  0  0  0  0  0
   13.0275    2.2292   22.3893 C   0  0  0  0  0  0  0  0  0  0  0  0
   12.9415    1.3615   23.6522 C   0  0  0  0  0  0  0  0  0  0  0  0
   11.5068    6.1853   25.3089 N   0  0  0  0  0  0  0  0  0  0  0  0
    9.6882    0.0935   24.1105 N   0  0  0  0  0  0  0  0  0  0  0  0
   10.5802    1.0780   24.0967 N   0  0  0  0  0  0  0  0  0  0  0  0
   11.7618    0.5404   23.7530 N   0  0  0  0  0  0  0  0  0  0  0  0
    9.3093    4.3550   23.0024 N   0  0  0  0  0  0  0  0  0  0  0  0
    7.6169    5.6086   24.0623 O   0  0  0  0  0  0  0  0  0  0  0  0
  1  2  2  0
  1  5  1  0
  2 19  1  0
  3  6  1  0
  3 19  2  0
  4  7  2  0
  4 22  1  0
  5  6  2  0
  5 16  1  0
  6 23  1  0
  7 14  1  0
  7 20  1  0
  8 15  1  0
  8 23  1  0
  8 24  2  0
  9 10  1  0
  9 11  1  0
 10 12  1  0
 11 13  1  0
 12 14  1  0
 13 14  1  0
 16 17  1  0
 17 18  1  0
 18 22  1  0
 20 21  2  0
 21 22  1  0
M  END
