MAK-UNK-9955b1f3-12
     RDKit          3D

 19 20  0  0  1  0  0  0  0  0999 V2000
    4.1352   -5.8363   22.6060 C   0  0  0  0  0  0  0  0  0  0  0  0
   12.9650    0.1246   23.3663 C   0  0  0  0  0  0  0  0  0  0  0  0
   12.2650    0.0165   24.5679 C   0  0  0  0  0  0  0  0  0  0  0  0
   12.5425   -0.5913   22.2461 C   0  0  0  0  0  0  0  0  0  0  0  0
    6.0648   -4.8300   23.7305 C   0  0  0  0  0  0  0  0  0  0  0  0
   11.1425   -0.8076   24.6494 C   0  0  0  0  0  0  0  0  0  0  0  0
   11.4201   -1.4154   22.3276 C   0  0  0  0  0  0  0  0  0  0  0  0
    7.1911   -4.0202   23.6352 C   0  0  0  0  0  0  0  0  0  0  0  0
    6.6917   -3.6856   21.3340 C   0  0  0  0  0  0  0  0  0  0  0  0
    5.3040   -5.0196   22.5881 C   0  0  0  0  0  0  0  0  0  0  0  0
   10.7201   -1.5235   23.5293 C   0  0  0  0  0  0  0  0  0  0  0  0
    7.5175   -3.4333   22.4177 C   0  0  0  0  0  0  0  0  0  0  0  0
    8.3017   -1.1818   21.7417 C   0  0  0  0  0  0  0  0  0  0  0  0
    9.5201   -2.4050   23.6158 C   0  0  0  0  0  0  0  0  0  0  0  0
    8.7439   -2.5414   22.2812 C   0  0  0  0  0  0  0  0  0  0  0  0
    3.1840   -6.5010   22.6205 N   0  0  0  0  0  0  0  0  0  0  0  0
    5.5895   -4.4664   21.3881 N   0  0  0  0  0  0  0  0  0  0  0  0
    8.8549   -0.8777   20.5154 N   0  0  0  0  0  0  0  0  0  0  0  0
    7.5273   -0.4359   22.3368 O   0  0  0  0  0  0  0  0  0  0  0  0
  1 10  1  0
  1 16  3  0
  2  3  2  0
  2  4  1  0
  3  6  1  0
  4  7  2  0
  5  8  2  0
  5 10  1  0
  6 11  2  0
  7 11  1  0
  8 12  1  0
  9 12  2  0
  9 17  1  0
 10 17  2  0
 11 14  1  0
 12 15  1  0
 13 15  1  0
 13 18  1  0
 13 19  2  0
 14 15  1  0
M  END
