MAK-UNK-0d6072ac-5
     RDKit          3D

 19 21  0  0  1  0  0  0  0  0999 V2000
    8.5898   -2.7239   23.9173 C   0  0  0  0  0  0  0  0  0  0  0  0
    7.6108   -3.6203   23.4741 C   0  0  0  0  0  0  0  0  0  0  0  0
   13.1635   -3.4056   25.7754 C   0  0  0  0  0  0  0  0  0  0  0  0
   13.5394   -2.0764   25.9873 C   0  0  0  0  0  0  0  0  0  0  0  0
   11.4073   -1.2822   25.1423 C   0  0  0  0  0  0  0  0  0  0  0  0
    9.0430   -5.5137   23.9841 C   0  0  0  0  0  0  0  0  0  0  0  0
    9.8166   -3.2237   24.4023 C   0  0  0  0  0  0  0  0  0  0  0  0
   11.0048   -2.6158   24.9189 C   0  0  0  0  0  0  0  0  0  0  0  0
    7.8363   -4.9943   23.5079 C   0  0  0  0  0  0  0  0  0  0  0  0
   11.8920   -3.6431   25.2408 C   0  0  0  0  0  0  0  0  0  0  0  0
   10.0124   -4.6047   24.4236 C   0  0  0  0  0  0  0  0  0  0  0  0
   12.6759   -1.0289   25.6763 C   0  0  0  0  0  0  0  0  0  0  0  0
    5.5107   -5.1932   22.5732 C   0  0  0  0  0  0  0  0  0  0  0  0
    7.2622   -6.8434   21.8904 C   0  0  0  0  0  0  0  0  0  0  0  0
    6.7743   -5.9286   23.0292 C   0  0  0  0  0  0  0  0  0  0  0  0
   11.2696   -4.8298   24.9328 N   0  0  0  0  0  0  0  0  0  0  0  0
    5.3186   -4.7849   21.4348 O   0  0  0  0  0  0  0  0  0  0  0  0
    4.1428   -4.9154   23.7266 S   0  0  0  0  0  0  0  0  0  0  0  0
   13.1716    0.5982   25.9500 Cl  0  0  0  0  0  0  0  0  0  0  0  0
  1  2  2  0
  1  7  1  0
  2  9  1  0
  3  4  1  0
  3 10  2  0
  4 12  2  0
  5  8  2  0
  5 12  1  0
  6  9  2  0
  6 11  1  0
  7  8  1  0
  7 11  2  0
  8 10  1  0
  9 15  1  0
 10 16  1  0
 11 16  1  0
 12 19  1  0
 13 15  1  0
 13 17  2  0
 13 18  1  0
 14 15  1  0
M  CHG  1  18  -1
M  END
