MAK-UNK-8fdbca50-14
     RDKit          3D

 40 43  0  0  1  0  0  0  0  0999 V2000
    6.1028   -0.8040   19.1781 C   0  0  0  0  0  0  0  0  0  0  0  0
   12.1201   -2.6640   23.3924 C   0  0  0  0  0  0  0  0  0  0  0  0
   11.4942   -3.7335   24.0326 C   0  0  0  0  0  0  0  0  0  0  0  0
    6.0717   -1.8502   20.0934 C   0  0  0  0  0  0  0  0  0  0  0  0
   10.0156   -1.4799   23.3130 C   0  0  0  0  0  0  0  0  0  0  0  0
    7.3527   -2.0027   25.3708 C   0  0  0  0  0  0  0  0  0  0  0  0
    7.3272   -0.2139   18.9093 C   0  0  0  0  0  0  0  0  0  0  0  0
    8.4223   -1.6128   20.3660 C   0  0  0  0  0  0  0  0  0  0  0  0
    5.7719   -2.7311   23.9423 C   0  0  0  0  0  0  0  0  0  0  0  0
    9.3897   -2.5495   23.9532 C   0  0  0  0  0  0  0  0  0  0  0  0
   11.3808   -1.5371   23.0327 C   0  0  0  0  0  0  0  0  0  0  0  0
    5.9573   -2.1575   25.1808 C   0  0  0  0  0  0  0  0  0  0  0  0
   10.1290   -3.6763   24.3130 C   0  0  0  0  0  0  0  0  0  0  0  0
    7.2492   -2.2684   20.7033 C   0  0  0  0  0  0  0  0  0  0  0  0
    7.9775   -2.4864   24.2425 C   0  0  0  0  0  0  0  0  0  0  0  0
   11.9864    1.9443   23.2709 C   0  0  0  0  0  0  0  0  0  0  0  0
    8.2107    4.1169   25.9324 C   0  0  0  0  0  0  0  0  0  0  0  0
   11.4116    4.0973   24.3781 C   0  0  0  0  0  0  0  0  0  0  0  0
   11.0401    1.8916   25.5863 C   0  0  0  0  0  0  0  0  0  0  0  0
    9.9057    4.1668   24.1310 C   0  0  0  0  0  0  0  0  0  0  0  0
    9.5419    2.0394   25.3178 C   0  0  0  0  0  0  0  0  0  0  0  0
   11.9076    2.6628   24.5864 C   0  0  0  0  0  0  0  0  0  0  0  0
   13.2394   -0.8219   21.4751 C   0  0  0  0  0  0  0  0  0  0  0  0
   13.4592    0.1993   24.2868 C   0  0  0  0  0  0  0  0  0  0  0  0
    3.8532    0.0558   27.4734 C   0  0  0  0  0  0  0  0  0  0  0  0
    4.8969   -1.7753   26.1331 C   0  0  0  0  0  0  0  0  0  0  0  0
    7.5058    3.3075   26.9916 C   0  0  0  0  0  0  0  0  0  0  0  0
   12.0614   -0.3767   22.3392 C   0  0  0  0  0  0  0  0  0  0  0  0
    8.4919   -0.5926   19.4816 N   0  0  0  0  0  0  0  0  0  0  0  0
    7.0067   -2.9262   23.3809 N   0  0  0  0  0  0  0  0  0  0  0  0
    9.1752    3.4517   25.1765 N   0  0  0  0  0  0  0  0  0  0  0  0
   12.4832    0.6407   23.2986 N   0  0  0  0  0  0  0  0  0  0  0  0
    4.8823   -0.3191   26.4728 N   0  0  0  0  0  0  0  0  0  0  0  0
   11.6174    2.5234   22.2457 O   0  0  0  0  0  0  0  0  0  0  0  0
    7.9132    5.3051   25.7842 O   0  0  0  0  0  0  0  0  0  0  0  0
    6.0727   -4.4326   21.6280 O   0  0  0  0  0  0  0  0  0  0  0  0
    8.5952   -4.1758   21.8380 O   0  0  0  0  0  0  0  0  0  0  0  0
    9.5421   -4.7135   24.9281 F   0  0  0  0  0  0  0  0  0  0  0  0
    7.2490   -3.5996   21.8760 S   0  0  0  0  0  0  0  0  0  0  0  0
    6.3864    4.4000   27.7985 Cl  0  0  0  0  0  0  0  0  0  0  0  0
  1  4  2  0
  1  7  1  0
  2  3  2  0
  2 11  1  0
  3 13  1  0
  4 14  1  0
  5 10  1  0
  5 11  2  0
  6 12  1  0
  6 15  2  0
  7 29  2  0
  8 14  2  0
  8 29  1  0
  9 12  2  0
  9 30  1  0
 10 13  2  0
 10 15  1  0
 11 28  1  0
 12 26  1  0
 13 38  1  0
 14 39  1  0
 15 30  1  0
 16 22  1  0
 16 32  1  0
 16 34  2  0
 17 27  1  0
 17 31  1  0
 17 35  2  0
 18 20  1  0
 18 22  1  0
 19 21  1  0
 19 22  1  0
 20 31  1  0
 21 31  1  0
 23 28  1  0
 24 32  1  0
 25 33  1  0
 26 33  1  0
 27 40  1  0
 28 32  1  0
 30 39  1  0
 36 39  2  0
 37 39  2  0
M  CHG  1  33   1
M  END
