MAK-UNK-2084232d-1
     RDKit          3D

 21 23  0  0  1  0  0  0  0  0999 V2000
    7.6080   -5.8669   22.3785 C   0  0  0  0  0  0  0  0  0  0  0  0
    6.6134   -5.5090   21.4668 C   0  0  0  0  0  0  0  0  0  0  0  0
    8.5492   -4.9246   22.8204 C   0  0  0  0  0  0  0  0  0  0  0  0
    8.5028   -3.6211   22.2903 C   0  0  0  0  0  0  0  0  0  0  0  0
    6.5520   -4.2084   20.9752 C   0  0  0  0  0  0  0  0  0  0  0  0
    7.4928   -3.2664   21.3851 C   0  0  0  0  0  0  0  0  0  0  0  0
    9.5070   -2.5887   22.7311 C   0  0  0  0  0  0  0  0  0  0  0  0
   11.9403   -0.4701   25.7180 C   0  0  0  0  0  0  0  0  0  0  0  0
   11.0001   -1.4637   25.0389 C   0  0  0  0  0  0  0  0  0  0  0  0
   13.2052   -1.1524   26.2257 C   0  0  0  0  0  0  0  0  0  0  0  0
   12.9756   -2.9182   24.4359 C   0  0  0  0  0  0  0  0  0  0  0  0
    9.6515   -5.3097   23.7918 C   0  0  0  0  0  0  0  0  0  0  0  0
   11.7047   -2.2362   23.9150 C   0  0  0  0  0  0  0  0  0  0  0  0
   10.7597   -3.2608   23.2904 C   0  0  0  0  0  0  0  0  0  0  0  0
   13.9150   -1.9207   25.1139 C   0  0  0  0  0  0  0  0  0  0  0  0
    9.1463   -6.0791   25.0110 C   0  0  0  0  0  0  0  0  0  0  0  0
   10.3022   -6.4346   25.8587 N   0  0  0  0  0  0  0  0  0  0  0  0
   10.3553   -4.1701   24.3156 O   0  0  0  0  0  0  0  0  0  0  0  0
    5.5711   -3.8729   20.0916 O   0  0  0  0  0  0  0  0  0  0  0  0
    7.4184   -1.9943   20.8955 O   0  0  0  0  0  0  0  0  0  0  0  0
   15.0227   -2.6146   25.6779 O   0  0  0  0  0  0  0  0  0  0  0  0
  1  2  2  0
  1  3  1  0
  2  5  1  0
  3  4  2  0
  3 12  1  0
  4  6  1  0
  4  7  1  0
  5  6  2  0
  5 19  1  0
  6 20  1  0
  7 14  1  0
  8  9  1  0
  8 10  1  0
  9 13  1  0
 10 15  1  0
 11 13  1  0
 11 15  1  0
 12 16  1  0
 12 18  1  0
 13 14  1  0
 14 18  1  0
 15 21  1  0
 16 17  1  0
M  CHG  1  17   1
M  END
