MAK-UNK-198e6d85-8
     RDKit          3D

 31 35  0  0  1  0  0  0  0  0999 V2000
    2.7343    1.9587   19.5039 C   0  0  0  0  0  0  0  0  0  0  0  0
    3.1073    2.0983   20.8349 C   0  0  0  0  0  0  0  0  0  0  0  0
    3.6285    1.4011   18.5946 C   0  0  0  0  0  0  0  0  0  0  0  0
    5.8211    0.4160   18.1219 C   0  0  0  0  0  0  0  0  0  0  0  0
    6.6475   -3.3407   26.5517 C   0  0  0  0  0  0  0  0  0  0  0  0
    4.3729    1.6802   21.2535 C   0  0  0  0  0  0  0  0  0  0  0  0
    6.7806   -4.6285   27.0737 C   0  0  0  0  0  0  0  0  0  0  0  0
    7.0704    0.0105   18.5691 C   0  0  0  0  0  0  0  0  0  0  0  0
    4.9014    0.9805   19.0159 C   0  0  0  0  0  0  0  0  0  0  0  0
    7.6271   -2.8065   25.7008 C   0  0  0  0  0  0  0  0  0  0  0  0
    8.7730   -3.5751   25.4206 C   0  0  0  0  0  0  0  0  0  0  0  0
    5.2869    1.1191   20.3658 C   0  0  0  0  0  0  0  0  0  0  0  0
    7.8991   -5.3960   26.7625 C   0  0  0  0  0  0  0  0  0  0  0  0
    8.8927   -4.8723   25.9384 C   0  0  0  0  0  0  0  0  0  0  0  0
    7.3569    0.1863   19.9076 C   0  0  0  0  0  0  0  0  0  0  0  0
    9.8513   -3.0266   24.5234 C   0  0  0  0  0  0  0  0  0  0  0  0
    9.9898    1.5014   23.4363 C   0  0  0  0  0  0  0  0  0  0  0  0
   11.1250    0.5211   23.7246 C   0  0  0  0  0  0  0  0  0  0  0  0
    9.4575    1.3457   22.0151 C   0  0  0  0  0  0  0  0  0  0  0  0
   10.1833   -1.0771   22.0070 C   0  0  0  0  0  0  0  0  0  0  0  0
    7.5053   -1.3969   25.1484 C   0  0  0  0  0  0  0  0  0  0  0  0
   10.7505   -0.9380   23.4277 C   0  0  0  0  0  0  0  0  0  0  0  0
    9.0420   -0.0961   21.7170 C   0  0  0  0  0  0  0  0  0  0  0  0
    9.7896   -1.5008   24.4786 C   0  0  0  0  0  0  0  0  0  0  0  0
    6.1370   -1.0991   24.5378 C   0  0  0  0  0  0  0  0  0  0  0  0
    6.4985    0.7265   20.8027 N   0  0  0  0  0  0  0  0  0  0  0  0
    8.6024   -0.2191   20.3471 N   0  0  0  0  0  0  0  0  0  0  0  0
    5.9163   -2.0157   23.4011 N   0  0  0  0  0  0  0  0  0  0  0  0
    8.4623   -1.1209   24.1108 O   0  0  0  0  0  0  0  0  0  0  0  0
    8.0109   -6.6535   27.2741 O   0  0  0  0  0  0  0  0  0  0  0  0
    9.9830   -5.6379   25.6408 O   0  0  0  0  0  0  0  0  0  0  0  0
  1  2  2  0
  1  3  1  0
  2  6  1  0
  3  9  2  0
  4  8  2  0
  4  9  1  0
  5  7  2  0
  5 10  1  0
  6 12  2  0
  7 13  1  0
  8 15  1  0
  9 12  1  0
 10 11  2  0
 10 21  1  0
 11 14  1  0
 11 16  1  0
 12 26  1  0
 13 14  2  0
 13 30  1  0
 14 31  1  0
 15 26  2  0
 15 27  1  0
 16 24  1  0
 17 18  1  0
 17 19  1  0
 18 22  1  0
 19 23  1  0
 20 22  1  0
 20 23  1  0
 21 25  1  0
 21 29  1  0
 22 24  1  0
 23 27  1  0
 24 29  1  0
 25 28  1  0
M  CHG  1  28   1
M  END
