MAK-UNK-0d6072ac-29
     RDKit          3D

 19 21  0  0  1  0  0  0  0  0999 V2000
    8.3809    0.2933   22.8478 C   0  0  0  0  0  0  0  0  0  0  0  0
    9.4507   -0.2207   23.5894 C   0  0  0  0  0  0  0  0  0  0  0  0
   10.5517   -0.9931   21.5659 C   0  0  0  0  0  0  0  0  0  0  0  0
    6.3399    0.9775   18.0498 C   0  0  0  0  0  0  0  0  0  0  0  0
    8.3914    0.1649   21.4445 C   0  0  0  0  0  0  0  0  0  0  0  0
   10.5184   -0.8536   22.9562 C   0  0  0  0  0  0  0  0  0  0  0  0
    7.5053    0.5533   20.4040 C   0  0  0  0  0  0  0  0  0  0  0  0
    9.4763   -0.4751   20.8349 C   0  0  0  0  0  0  0  0  0  0  0  0
    8.0625    0.1463   19.2006 C   0  0  0  0  0  0  0  0  0  0  0  0
    5.7587    1.3959   19.2334 C   0  0  0  0  0  0  0  0  0  0  0  0
   12.3776   -0.2183   24.4686 C   0  0  0  0  0  0  0  0  0  0  0  0
   11.1945   -2.4933   24.7435 C   0  0  0  0  0  0  0  0  0  0  0  0
   11.6459   -1.3918   23.7739 C   0  0  0  0  0  0  0  0  0  0  0  0
    7.5225    0.3316   17.9822 N   0  0  0  0  0  0  0  0  0  0  0  0
    6.3131    1.2023   20.4478 N   0  0  0  0  0  0  0  0  0  0  0  0
    9.2498   -0.4720   19.4743 N   0  0  0  0  0  0  0  0  0  0  0  0
   11.6579    0.4448   25.2716 O   0  0  0  0  0  0  0  0  0  0  0  0
   13.5928   -0.0527   24.1679 O   0  0  0  0  0  0  0  0  0  0  0  0
    4.2513    2.2126   19.2465 Cl  0  0  0  0  0  0  0  0  0  0  0  0
  1  2  2  0
  1  5  1  0
  2  6  1  0
  3  6  2  0
  3  8  1  0
  4 10  1  0
  4 14  2  0
  5  7  1  0
  5  8  2  0
  6 13  1  0
  7  9  2  0
  7 15  1  0
  8 16  1  0
  9 14  1  0
  9 16  1  0
 10 15  2  0
 10 19  1  0
 11 13  1  0
 11 17  1  0
 11 18  2  0
 12 13  1  0
M  CHG  1  17  -1
M  END
