MAK-UNK-516d8086-4
     RDKit          3D

 22 24  0  0  0  0  0  0  0  0999 V2000
   13.7379   -1.2001   21.3331 C   0  0  0  0  0  0  0  0  0  0  0  0
   13.1583    0.1718   23.2729 C   0  0  0  0  0  0  0  0  0  0  0  0
    8.1101    0.5483   19.8980 C   0  0  0  0  0  0  0  0  0  0  0  0
    8.7314    0.2314   21.1107 C   0  0  0  0  0  0  0  0  0  0  0  0
   12.2221    0.6221   24.2036 C   0  0  0  0  0  0  0  0  0  0  0  0
   11.4642   -1.2017   22.2333 C   0  0  0  0  0  0  0  0  0  0  0  0
    7.4921   -1.8609   21.2700 C   0  0  0  0  0  0  0  0  0  0  0  0
   12.7793   -0.7401   22.2877 C   0  0  0  0  0  0  0  0  0  0  0  0
    6.8937   -1.5237   20.0719 C   0  0  0  0  0  0  0  0  0  0  0  0
    7.1871   -0.3439   19.3864 C   0  0  0  0  0  0  0  0  0  0  0  0
    8.4250   -0.9625   21.7902 C   0  0  0  0  0  0  0  0  0  0  0  0
   10.5279   -0.7514   23.1641 C   0  0  0  0  0  0  0  0  0  0  0  0
   10.9069    0.1605   24.1493 C   0  0  0  0  0  0  0  0  0  0  0  0
    5.8916   -2.2634   19.2987 C   0  0  0  0  0  0  0  0  0  0  0  0
    6.3877   -0.2603   18.1323 C   0  0  0  0  0  0  0  0  0  0  0  0
   10.2703    3.0143   24.9386 C   0  0  0  0  0  0  0  0  0  0  0  0
    9.1067   -1.2695   23.0820 C   0  0  0  0  0  0  0  0  0  0  0  0
   10.1618    1.8342   25.8431 C   0  0  0  0  0  0  0  0  0  0  0  0
   14.5165   -1.5736   20.5578 N   0  0  0  0  0  0  0  0  0  0  0  0
    5.6232   -1.4925   18.1746 N   0  0  0  0  0  0  0  0  0  0  0  0
    9.9721    0.6293   25.0982 N   0  0  0  0  0  0  0  0  0  0  0  0
    5.4194   -3.3374   19.6208 O   0  0  0  0  0  0  0  0  0  0  0  0
  1  8  1  0
  1 19  3  0
  2  5  2  0
  2  8  1  0
  3  4  2  0
  3 10  1  0
  4 11  1  0
  5 13  1  0
  6  8  2  0
  6 12  1  0
  7  9  1  0
  7 11  2  0
  9 10  2  0
  9 14  1  0
 10 15  1  0
 11 17  1  0
 12 13  2  0
 12 17  1  0
 13 21  1  0
 14 20  1  0
 14 22  2  0
 15 20  1  0
 16 18  1  0
 18 21  1  0
M  END
