MAK-UNK-5e88aa6a-6
     RDKit          3D

 20 21  0  0  0  0  0  0  0  0999 V2000
    5.7211   -0.0344   19.5458 C   0  0  0  0  0  0  0  0  0  0  0  0
    5.3252    1.2258   19.1739 C   0  0  0  0  0  0  0  0  0  0  0  0
    6.7375   -2.6826   19.3653 C   0  0  0  0  0  0  0  0  0  0  0  0
    7.8817   -1.2217   22.4891 C   0  0  0  0  0  0  0  0  0  0  0  0
    6.2914   -3.1288   22.8935 C   0  0  0  0  0  0  0  0  0  0  0  0
    8.3227   -1.8915   21.1909 C   0  0  0  0  0  0  0  0  0  0  0  0
    6.7611   -3.7658   21.5900 C   0  0  0  0  0  0  0  0  0  0  0  0
    7.3843   -2.2504   23.5047 C   0  0  0  0  0  0  0  0  0  0  0  0
    4.3841    2.1341   19.8417 C   0  0  0  0  0  0  0  0  0  0  0  0
    7.3315   -1.6399   18.4523 C   0  0  0  0  0  0  0  0  0  0  0  0
    5.9567    1.5824   18.0148 N   0  0  0  0  0  0  0  0  0  0  0  0
    6.7401    0.5734   17.6496 N   0  0  0  0  0  0  0  0  0  0  0  0
    6.5972   -0.3951   18.5688 N   0  0  0  0  0  0  0  0  0  0  0  0
    7.2548   -2.7483   20.6588 N   0  0  0  0  0  0  0  0  0  0  0  0
    3.9068    3.7894   21.8625 N   0  0  0  0  0  0  0  0  0  0  0  0
    5.8392   -3.4141   18.9409 O   0  0  0  0  0  0  0  0  0  0  0  0
    5.3776    1.7097   22.2208 O   0  0  0  0  0  0  0  0  0  0  0  0
    6.2673    3.6381   20.8514 O   0  0  0  0  0  0  0  0  0  0  0  0
    6.8722   -1.5634   24.6402 O   0  0  0  0  0  0  0  0  0  0  0  0
    5.1667    2.7981   21.2849 S   0  0  0  0  0  0  0  0  0  0  0  0
  1  2  2  0
  1 13  1  0
  2  9  1  0
  2 11  1  0
  3 10  1  0
  3 14  1  0
  3 16  2  0
  4  6  1  0
  4  8  1  0
  5  7  1  0
  5  8  1  0
  6 14  1  0
  7 14  1  0
  8 19  1  0
  9 20  1  0
 10 13  1  0
 11 12  2  0
 12 13  1  0
 15 20  1  0
 17 20  2  0
 18 20  2  0
M  END
