MAK-UNK-c44f4be0-7
     RDKit          3D

 32 33  0  0  1  0  0  0  0  0999 V2000
    8.5761    4.2109   22.4804 C   0  0  0  0  0  0  0  0  0  0  0  0
    9.0857    5.2382   22.8355 C   0  0  0  0  0  0  0  0  0  0  0  0
    5.2990   -0.1039   16.0109 C   0  0  0  0  0  0  0  0  0  0  0  0
    4.6062   -0.8821   16.9382 C   0  0  0  0  0  0  0  0  0  0  0  0
    6.3111    0.7553   16.4390 C   0  0  0  0  0  0  0  0  0  0  0  0
    4.9252   -0.8011   18.2937 C   0  0  0  0  0  0  0  0  0  0  0  0
    6.6301    0.8363   17.7945 C   0  0  0  0  0  0  0  0  0  0  0  0
   13.2594    0.0179   23.9615 C   0  0  0  0  0  0  0  0  0  0  0  0
   13.5627   -1.4345   22.0548 C   0  0  0  0  0  0  0  0  0  0  0  0
   14.0549   -0.8290   24.7332 C   0  0  0  0  0  0  0  0  0  0  0  0
   14.3583   -2.2814   22.8265 C   0  0  0  0  0  0  0  0  0  0  0  0
    5.9372    0.0581   18.7218 C   0  0  0  0  0  0  0  0  0  0  0  0
   13.0132   -0.2849   22.6223 C   0  0  0  0  0  0  0  0  0  0  0  0
   14.6044   -1.9786   24.1658 C   0  0  0  0  0  0  0  0  0  0  0  0
    9.3499   -1.7392   21.1867 C   0  0  0  0  0  0  0  0  0  0  0  0
    9.7968    1.4250   21.3146 C   0  0  0  0  0  0  0  0  0  0  0  0
    9.2462   -2.8255   20.1680 C   0  0  0  0  0  0  0  0  0  0  0  0
    6.2827    0.1465   20.1881 C   0  0  0  0  0  0  0  0  0  0  0  0
   12.1530    0.6317   21.7870 C   0  0  0  0  0  0  0  0  0  0  0  0
    5.4762    1.2117   20.9268 C   0  0  0  0  0  0  0  0  0  0  0  0
    7.9608    2.9508   22.0429 C   0  0  0  0  0  0  0  0  0  0  0  0
   10.6619    0.2756   21.8204 C   0  0  0  0  0  0  0  0  0  0  0  0
    8.8693    1.8391   22.2604 N   0  0  0  0  0  0  0  0  0  0  0  0
   10.3841   -0.8482   20.9607 N   0  0  0  0  0  0  0  0  0  0  0  0
    5.8394    1.3089   22.3522 N   0  0  0  0  0  0  0  0  0  0  0  0
    8.5509   -1.7034   22.1151 O   0  0  0  0  0  0  0  0  0  0  0  0
    9.9509    1.9415   20.2097 O   0  0  0  0  0  0  0  0  0  0  0  0
    6.7515    2.6088   24.3641 O   0  0  0  0  0  0  0  0  0  0  0  0
    5.5346    3.8638   22.5466 O   0  0  0  0  0  0  0  0  0  0  0  0
   15.3817   -2.8042   24.9186 O   0  0  0  0  0  0  0  0  0  0  0  0
    6.4244    2.7962   22.9626 S   0  0  0  0  0  0  0  0  0  0  0  0
    9.8984    6.8578   23.4035 Br  0  0  0  0  0  0  0  0  0  0  0  0
  1  2  3  0
  1 21  1  0
  2 32  1  0
  3  4  2  0
  3  5  1  0
  4  6  1  0
  5  7  2  0
  6 12  2  0
  7 12  1  0
  8 10  2  0
  8 13  1  0
  9 11  1  0
  9 13  2  0
 10 14  1  0
 11 14  2  0
 12 18  1  0
 13 19  1  0
 14 30  1  0
 15 17  1  0
 15 24  1  0
 15 26  2  0
 16 22  1  0
 16 23  1  0
 16 27  2  0
 18 20  1  0
 19 22  1  0
 20 25  1  0
 21 23  1  0
 21 31  1  0
 22 24  1  0
 25 31  1  0
 28 31  2  0
 29 31  2  0
M  END
