MAK-UNK-194150d3-6
     RDKit          3D

 14 14  0  0  0  0  0  0  0  0999 V2000
   13.8924   -2.2137   22.9327 C   0  0  0  0  0  0  0  0  0  0  0  0
   13.5521   -1.7247   24.1939 C   0  0  0  0  0  0  0  0  0  0  0  0
   13.8942   -1.3589   21.8304 C   0  0  0  0  0  0  0  0  0  0  0  0
   13.2133   -0.3810   24.3528 C   0  0  0  0  0  0  0  0  0  0  0  0
   13.5555   -0.0152   21.9893 C   0  0  0  0  0  0  0  0  0  0  0  0
   13.2150    0.4738   23.2505 C   0  0  0  0  0  0  0  0  0  0  0  0
    6.8946    5.7616   21.6861 C   0  0  0  0  0  0  0  0  0  0  0  0
   12.8503    1.9202   23.4208 C   0  0  0  0  0  0  0  0  0  0  0  0
    7.9095    5.6054   22.8091 C   0  0  0  0  0  0  0  0  0  0  0  0
   12.2022    2.5420   22.1879 C   0  0  0  0  0  0  0  0  0  0  0  0
    9.2925    6.0711   22.3678 C   0  0  0  0  0  0  0  0  0  0  0  0
   10.8061    4.1165   23.5403 C   0  0  0  0  0  0  0  0  0  0  0  0
   11.8187    3.9524   22.4602 N   0  0  0  0  0  0  0  0  0  0  0  0
   10.4839    5.8832   23.7145 S   0  0  0  0  0  0  0  0  0  0  0  0
  1  2  2  0
  1  3  1  0
  2  4  1  0
  3  5  2  0
  4  6  2  0
  5  6  1  0
  6  8  1  0
  7  9  1  0
  8 10  1  0
  9 11  1  0
 10 13  1  0
 11 14  1  0
 12 13  1  0
 12 14  1  0
M  CHG  1  13   1
M  END
