MAK-UNK-e05327b2-1
     RDKit          3D

 52 58  0  0  0  0  0  0  0  0999 V2000
    6.8721   -1.3037   20.3335 C   0  0  0  0  0  0  0  0  0  0  0  0
   12.8610   -6.1914   22.7695 C   0  0  0  0  0  0  0  0  0  0  0  0
    8.0966   -0.6704   20.5483 C   0  0  0  0  0  0  0  0  0  0  0  0
    6.5589   -2.4686   21.0275 C   0  0  0  0  0  0  0  0  0  0  0  0
   12.4461   -4.8308   22.6877 C   0  0  0  0  0  0  0  0  0  0  0  0
    3.2927   -1.6697   28.4076 C   0  0  0  0  0  0  0  0  0  0  0  0
   10.3321    1.4507   24.9720 C   0  0  0  0  0  0  0  0  0  0  0  0
    2.6109   -0.4468   28.6718 C   0  0  0  0  0  0  0  0  0  0  0  0
    9.5866    2.6544   24.8122 C   0  0  0  0  0  0  0  0  0  0  0  0
   10.2617   -0.5720   21.6907 C   0  0  0  0  0  0  0  0  0  0  0  0
    9.6340   -2.9063   23.0815 C   0  0  0  0  0  0  0  0  0  0  0  0
   12.9727   -6.6208   24.0736 C   0  0  0  0  0  0  0  0  0  0  0  0
    9.0246   -1.1961   21.4620 C   0  0  0  0  0  0  0  0  0  0  0  0
    8.7060   -2.3807   22.1678 C   0  0  0  0  0  0  0  0  0  0  0  0
   10.8585   -2.2731   23.2963 C   0  0  0  0  0  0  0  0  0  0  0  0
   11.1717   -1.1081   22.6022 C   0  0  0  0  0  0  0  0  0  0  0  0
    7.4689   -3.0048   21.9390 C   0  0  0  0  0  0  0  0  0  0  0  0
   12.2563   -4.2721   23.9326 C   0  0  0  0  0  0  0  0  0  0  0  0
   11.4953    1.4607   24.2342 C   0  0  0  0  0  0  0  0  0  0  0  0
    4.6603   -1.5289   28.4940 C   0  0  0  0  0  0  0  0  0  0  0  0
    3.4835    0.5822   28.9503 C   0  0  0  0  0  0  0  0  0  0  0  0
   10.2086    3.5387   23.9584 C   0  0  0  0  0  0  0  0  0  0  0  0
    3.3010    3.1877   23.6001 C   0  0  0  0  0  0  0  0  0  0  0  0
    4.5475    3.6431   25.7705 C   0  0  0  0  0  0  0  0  0  0  0  0
    2.0844    3.6006   25.7154 C   0  0  0  0  0  0  0  0  0  0  0  0
    4.5378    2.7409   27.0008 C   0  0  0  0  0  0  0  0  0  0  0  0
    2.0663    2.6963   26.9427 C   0  0  0  0  0  0  0  0  0  0  0  0
    5.7142   -2.8019   24.4777 C   0  0  0  0  0  0  0  0  0  0  0  0
    6.5951   -4.9091   25.4160 C   0  0  0  0  0  0  0  0  0  0  0  0
    5.8417   -2.1285   25.8353 C   0  0  0  0  0  0  0  0  0  0  0  0
    6.7330   -4.2583   26.7836 C   0  0  0  0  0  0  0  0  0  0  0  0
   11.8185   -2.8636   24.2766 C   0  0  0  0  0  0  0  0  0  0  0  0
   12.4765   -0.4134   22.8163 C   0  0  0  0  0  0  0  0  0  0  0  0
   12.5513    0.3873   24.1304 C   0  0  0  0  0  0  0  0  0  0  0  0
    5.7061   -2.5546   28.2908 C   0  0  0  0  0  0  0  0  0  0  0  0
    4.6321    3.1111   22.8961 C   0  0  0  0  0  0  0  0  0  0  0  0
    3.3339    3.4427   24.9700 N   0  0  0  0  0  0  0  0  0  0  0  0
    3.2787    2.9651   27.7736 N   0  0  0  0  0  0  0  0  0  0  0  0
    6.7418   -3.8755   24.3509 N   0  0  0  0  0  0  0  0  0  0  0  0
    5.6950   -3.1696   26.9198 N   0  0  0  0  0  0  0  0  0  0  0  0
    2.2648    3.0230   22.9514 O   0  0  0  0  0  0  0  0  0  0  0  0
    5.6961   -4.8888   22.2237 O   0  0  0  0  0  0  0  0  0  0  0  0
    8.1035   -5.3894   22.7729 O   0  0  0  0  0  0  0  0  0  0  0  0
    1.9273    2.4372   29.9045 O   0  0  0  0  0  0  0  0  0  0  0  0
    4.4232    2.7379   30.0704 O   0  0  0  0  0  0  0  0  0  0  0  0
   12.5782   -5.3861   25.1926 S   0  0  0  0  0  0  0  0  0  0  0  0
    5.1173    0.0726   28.8923 S   0  0  0  0  0  0  0  0  0  0  0  0
   11.6850    2.9169   23.3535 S   0  0  0  0  0  0  0  0  0  0  0  0
    6.9749   -4.4840   22.7660 S   0  0  0  0  0  0  0  0  0  0  0  0
    3.2540    2.2869   29.3470 S   0  0  0  0  0  0  0  0  0  0  0  0
    9.6709    5.0951   23.4835 Cl  0  0  0  0  0  0  0  0  0  0  0  0
    4.2892    2.7476   21.2084 Cl  0  0  0  0  0  0  0  0  0  0  0  0
  1  3  2  0
  1  4  1  0
  2  5  1  0
  2 12  2  0
  3 13  1  0
  4 17  2  0
  5 18  2  0
  6  8  1  0
  6 20  2  0
  7  9  1  0
  7 19  2  0
  8 21  2  0
  9 22  2  0
 10 13  2  0
 10 16  1  0
 11 14  2  0
 11 15  1  0
 12 46  1  0
 13 14  1  0
 14 17  1  0
 15 16  2  0
 15 32  1  0
 16 33  1  0
 17 49  1  0
 18 32  1  0
 18 46  1  0
 19 34  1  0
 19 48  1  0
 20 35  1  0
 20 47  1  0
 21 47  1  0
 21 50  1  0
 22 48  1  0
 22 51  1  0
 23 36  1  0
 23 37  1  0
 23 41  2  0
 24 26  1  0
 24 37  1  0
 25 27  1  0
 25 37  1  0
 26 38  1  0
 27 38  1  0
 28 30  1  0
 28 39  1  0
 29 31  1  0
 29 39  1  0
 30 40  1  0
 31 40  1  0
 33 34  1  0
 35 40  1  0
 36 52  1  0
 38 50  1  0
 39 49  1  0
 42 49  2  0
 43 49  2  0
 44 50  2  0
 45 50  2  0
M  CHG  1  40   1
M  END
