MAK-UNK-9955b1f3-17
     RDKit          3D

 13 13  0  0  0  0  0  0  0  0999 V2000
    6.9615   -4.2139   22.0057 C   0  0  0  0  0  0  0  0  0  0  0  0
    8.5872   -5.1566   23.5772 C   0  0  0  0  0  0  0  0  0  0  0  0
    9.7640   -4.9832   24.2970 C   0  0  0  0  0  0  0  0  0  0  0  0
    9.9533   -2.8043   23.3628 C   0  0  0  0  0  0  0  0  0  0  0  0
    8.1583   -4.1119   22.7743 C   0  0  0  0  0  0  0  0  0  0  0  0
   10.4662   -3.7876   24.1933 C   0  0  0  0  0  0  0  0  0  0  0  0
   11.9493   -2.1121   25.3068 C   0  0  0  0  0  0  0  0  0  0  0  0
   12.7303   -0.1968   23.9225 C   0  0  0  0  0  0  0  0  0  0  0  0
   11.7434   -3.5696   24.9605 C   0  0  0  0  0  0  0  0  0  0  0  0
   13.1577   -1.3857   24.7628 C   0  0  0  0  0  0  0  0  0  0  0  0
    5.9876   -4.2969   21.3801 N   0  0  0  0  0  0  0  0  0  0  0  0
    8.8134   -2.9361   22.6480 N   0  0  0  0  0  0  0  0  0  0  0  0
   11.1133   -1.4753   26.0623 N   0  0  0  0  0  0  0  0  0  0  0  0
  1  5  1  0
  1 11  3  0
  2  3  2  0
  2  5  1  0
  3  6  1  0
  4  6  2  0
  4 12  1  0
  5 12  2  0
  6  9  1  0
  7  9  1  0
  7 10  1  0
  7 13  2  0
  8 10  1  0
M  END
