MAK-UNK-a7992eb3-29
     RDKit          3D

 26 27  0  0  1  0  0  0  0  0999 V2000
    6.5485    0.1071   21.8565 C   0  0  0  0  0  0  0  0  0  0  0  0
    6.3968   -1.0776   21.7351 C   0  0  0  0  0  0  0  0  0  0  0  0
    7.7891   -5.3809   27.1462 C   0  0  0  0  0  0  0  0  0  0  0  0
    6.7662   -4.4574   27.3309 C   0  0  0  0  0  0  0  0  0  0  0  0
   10.7804   -0.6875   24.7163 C   0  0  0  0  0  0  0  0  0  0  0  0
   10.3222   -0.9624   22.3601 C   0  0  0  0  0  0  0  0  0  0  0  0
   10.2860   -1.9684   24.9619 C   0  0  0  0  0  0  0  0  0  0  0  0
    9.8278   -2.2434   22.6057 C   0  0  0  0  0  0  0  0  0  0  0  0
    8.6626   -5.2372   26.0740 C   0  0  0  0  0  0  0  0  0  0  0  0
    6.6604   -3.4165   26.4226 C   0  0  0  0  0  0  0  0  0  0  0  0
   10.7984   -0.1844   23.4154 C   0  0  0  0  0  0  0  0  0  0  0  0
    9.8097   -2.7464   23.9067 C   0  0  0  0  0  0  0  0  0  0  0  0
    8.4718   -4.1615   25.2219 C   0  0  0  0  0  0  0  0  0  0  0  0
   11.2269    4.4348   24.0038 C   0  0  0  0  0  0  0  0  0  0  0  0
    9.1694    2.0314   22.1876 C   0  0  0  0  0  0  0  0  0  0  0  0
   11.7326    5.7557   23.5264 C   0  0  0  0  0  0  0  0  0  0  0  0
    6.7295    1.5510   22.0016 C   0  0  0  0  0  0  0  0  0  0  0  0
   11.3339    1.2013   23.1493 C   0  0  0  0  0  0  0  0  0  0  0  0
   10.2498    2.2820   23.2335 C   0  0  0  0  0  0  0  0  0  0  0  0
    7.4898   -3.2441   25.3691 N   0  0  0  0  0  0  0  0  0  0  0  0
    7.9196    1.8522   22.7643 N   0  0  0  0  0  0  0  0  0  0  0  0
   10.7769    3.6019   22.9941 N   0  0  0  0  0  0  0  0  0  0  0  0
   11.2415    4.1795   25.2022 O   0  0  0  0  0  0  0  0  0  0  0  0
    9.4076    1.9566   20.9841 O   0  0  0  0  0  0  0  0  0  0  0  0
    9.3286   -3.9968   24.1464 O   0  0  0  0  0  0  0  0  0  0  0  0
    6.1568   -2.9528   21.5428 Br  0  0  0  0  0  0  0  0  0  0  0  0
  1  2  3  0
  1 17  1  0
  2 26  1  0
  3  4  2  0
  3  9  1  0
  4 10  1  0
  5  7  2  0
  5 11  1  0
  6  8  1  0
  6 11  2  0
  7 12  1  0
  8 12  2  0
  9 13  2  0
 10 20  2  0
 11 18  1  0
 12 25  1  0
 13 20  1  0
 13 25  1  0
 14 16  1  0
 14 22  1  0
 14 23  2  0
 15 19  1  0
 15 21  1  0
 15 24  2  0
 17 21  1  0
 18 19  1  0
 19 22  1  0
M  END
