MAK-UNK-516d8086-15
     RDKit          3D

 22 24  0  0  0  0  0  0  0  0999 V2000
   14.2920   -2.0181   25.6225 C   0  0  0  0  0  0  0  0  0  0  0  0
    9.1119   -5.1034   23.7199 C   0  0  0  0  0  0  0  0  0  0  0  0
    9.9099   -3.9647   23.5650 C   0  0  0  0  0  0  0  0  0  0  0  0
   12.3704   -1.8685   24.1053 C   0  0  0  0  0  0  0  0  0  0  0  0
    8.3940   -3.0547   21.8880 C   0  0  0  0  0  0  0  0  0  0  0  0
   12.3609   -0.5978   26.1156 C   0  0  0  0  0  0  0  0  0  0  0  0
   13.0091   -1.4953   25.2826 C   0  0  0  0  0  0  0  0  0  0  0  0
    7.6247   -4.1885   22.0603 C   0  0  0  0  0  0  0  0  0  0  0  0
    7.9645   -5.2033   22.9563 C   0  0  0  0  0  0  0  0  0  0  0  0
    9.5538   -2.9498   22.6573 C   0  0  0  0  0  0  0  0  0  0  0  0
   11.1207   -1.3403   23.8013 C   0  0  0  0  0  0  0  0  0  0  0  0
   10.5569   -0.4498   24.7008 C   0  0  0  0  0  0  0  0  0  0  0  0
    6.3718   -4.5648   21.3988 C   0  0  0  0  0  0  0  0  0  0  0  0
    6.9464   -6.2900   22.9195 C   0  0  0  0  0  0  0  0  0  0  0  0
    7.4277    1.6211   24.4930 C   0  0  0  0  0  0  0  0  0  0  0  0
   10.4280   -1.7482   22.5172 C   0  0  0  0  0  0  0  0  0  0  0  0
    8.7927    1.2903   24.9929 C   0  0  0  0  0  0  0  0  0  0  0  0
   15.3358   -2.4434   25.8989 N   0  0  0  0  0  0  0  0  0  0  0  0
   11.1470   -0.0635   25.8541 N   0  0  0  0  0  0  0  0  0  0  0  0
    6.0092   -5.7972   21.9279 N   0  0  0  0  0  0  0  0  0  0  0  0
    9.2833    0.0918   24.3949 N   0  0  0  0  0  0  0  0  0  0  0  0
    5.8014   -3.8952   20.5582 O   0  0  0  0  0  0  0  0  0  0  0  0
  1  7  1  0
  1 18  3  0
  2  3  2  0
  2  9  1  0
  3 10  1  0
  4  7  2  0
  4 11  1  0
  5  8  1  0
  5 10  2  0
  6  7  1  0
  6 19  2  0
  8  9  2  0
  8 13  1  0
  9 14  1  0
 10 16  1  0
 11 12  2  0
 11 16  1  0
 12 19  1  0
 12 21  1  0
 13 20  1  0
 13 22  2  0
 14 20  1  0
 15 17  1  0
 17 21  1  0
M  END
