MAK-UNK-b2c98f02-9
     RDKit          3D

 28 30  0  0  0  0  0  0  0  0999 V2000
    7.5728   -5.8620   22.6167 C   0  0  0  0  0  0  0  0  0  0  0  0
    6.5767   -5.4917   23.5202 C   0  0  0  0  0  0  0  0  0  0  0  0
    8.8825   -6.0468   23.0596 C   0  0  0  0  0  0  0  0  0  0  0  0
    4.9468    1.5150   18.8362 C   0  0  0  0  0  0  0  0  0  0  0  0
    6.8903   -5.3060   24.8666 C   0  0  0  0  0  0  0  0  0  0  0  0
    9.1961   -5.8612   24.4060 C   0  0  0  0  0  0  0  0  0  0  0  0
    5.6485    1.6798   20.0253 C   0  0  0  0  0  0  0  0  0  0  0  0
    5.6176    0.9583   17.7592 C   0  0  0  0  0  0  0  0  0  0  0  0
    7.5603    0.7419   18.9663 C   0  0  0  0  0  0  0  0  0  0  0  0
    8.2001   -5.4908   25.3095 C   0  0  0  0  0  0  0  0  0  0  0  0
    6.9806    1.2885   20.0999 C   0  0  0  0  0  0  0  0  0  0  0  0
    9.0513    1.1022   21.5210 C   0  0  0  0  0  0  0  0  0  0  0  0
   10.9381    0.8805   24.9213 C   0  0  0  0  0  0  0  0  0  0  0  0
   10.0445   -0.9731   23.4541 C   0  0  0  0  0  0  0  0  0  0  0  0
    9.8786    0.5599   25.9743 C   0  0  0  0  0  0  0  0  0  0  0  0
    8.9835   -1.2957   24.5048 C   0  0  0  0  0  0  0  0  0  0  0  0
   10.5109    0.4892   23.4993 C   0  0  0  0  0  0  0  0  0  0  0  0
    9.4443   -0.9035   25.9078 C   0  0  0  0  0  0  0  0  0  0  0  0
    8.5401   -5.2899   26.7659 C   0  0  0  0  0  0  0  0  0  0  0  0
    9.4451    1.4398   22.9474 C   0  0  0  0  0  0  0  0  0  0  0  0
    8.9503   -3.8553   27.0893 C   0  0  0  0  0  0  0  0  0  0  0  0
    6.9109    0.5661   17.7937 N   0  0  0  0  0  0  0  0  0  0  0  0
    7.7208    1.4440   21.2960 N   0  0  0  0  0  0  0  0  0  0  0  0
    7.8786   -2.8834   26.8072 N   0  0  0  0  0  0  0  0  0  0  0  0
    9.8373    0.6006   20.7241 O   0  0  0  0  0  0  0  0  0  0  0  0
    8.7239   -1.0436   28.4181 O   0  0  0  0  0  0  0  0  0  0  0  0
    6.9901   -0.4787   26.6771 O   0  0  0  0  0  0  0  0  0  0  0  0
    8.1644   -1.2239   27.0918 S   0  0  0  0  0  0  0  0  0  0  0  0
  1  2  2  0
  1  3  1  0
  2  5  1  0
  3  6  2  0
  4  7  2  0
  4  8  1  0
  5 10  2  0
  6 10  1  0
  7 11  1  0
  8 22  2  0
  9 11  2  0
  9 22  1  0
 10 19  1  0
 11 23  1  0
 12 20  1  0
 12 23  1  0
 12 25  2  0
 13 15  1  0
 13 17  1  0
 14 16  1  0
 14 17  1  0
 15 18  1  0
 16 18  1  0
 17 20  1  0
 18 28  1  0
 19 21  1  0
 21 24  1  0
 24 28  1  0
 26 28  2  0
 27 28  2  0
M  END
