MAK-UNK-9e4a73aa-7
     RDKit          3D

 26 29  0  0  0  0  0  0  0  0999 V2000
   13.1328    0.2334   23.9278 C   0  0  0  0  0  0  0  0  0  0  0  0
   13.1146   -0.6988   22.8904 C   0  0  0  0  0  0  0  0  0  0  0  0
   11.9348    0.6764   24.4885 C   0  0  0  0  0  0  0  0  0  0  0  0
    4.8606    0.1580   18.8211 C   0  0  0  0  0  0  0  0  0  0  0  0
   11.8984   -1.1880   22.4135 C   0  0  0  0  0  0  0  0  0  0  0  0
   10.7187    0.1872   24.0117 C   0  0  0  0  0  0  0  0  0  0  0  0
    5.5223   -0.3117   19.9501 C   0  0  0  0  0  0  0  0  0  0  0  0
    7.1876   -4.0910   23.3625 C   0  0  0  0  0  0  0  0  0  0  0  0
    9.6487   -3.0985   24.1510 C   0  0  0  0  0  0  0  0  0  0  0  0
    5.5593    0.1871   17.6250 C   0  0  0  0  0  0  0  0  0  0  0  0
    7.4538   -0.6633   18.6078 C   0  0  0  0  0  0  0  0  0  0  0  0
    7.7228   -2.9527   22.7325 C   0  0  0  0  0  0  0  0  0  0  0  0
   10.7004   -0.7449   22.9742 C   0  0  0  0  0  0  0  0  0  0  0  0
    6.8439   -0.7321   19.8500 C   0  0  0  0  0  0  0  0  0  0  0  0
    8.9503   -2.4240   23.1267 C   0  0  0  0  0  0  0  0  0  0  0  0
    7.8840   -4.7241   24.3866 C   0  0  0  0  0  0  0  0  0  0  0  0
    9.1198   -4.2314   24.7761 C   0  0  0  0  0  0  0  0  0  0  0  0
    6.9827   -2.3609   21.6092 C   0  0  0  0  0  0  0  0  0  0  0  0
    8.7570   -0.5719   21.4437 C   0  0  0  0  0  0  0  0  0  0  0  0
    6.8435   -0.2128   17.4887 N   0  0  0  0  0  0  0  0  0  0  0  0
    9.4538   -1.2466   22.4853 N   0  0  0  0  0  0  0  0  0  0  0  0
    7.5579   -1.2246   21.0043 N   0  0  0  0  0  0  0  0  0  0  0  0
    5.9445   -2.9116   21.2439 O   0  0  0  0  0  0  0  0  0  0  0  0
    7.3566   -5.8082   24.9724 F   0  0  0  0  0  0  0  0  0  0  0  0
    9.2646    0.9517   20.8461 S   0  0  0  0  0  0  0  0  0  0  0  0
   10.0058   -5.0100   26.0306 Cl  0  0  0  0  0  0  0  0  0  0  0  0
  1  2  2  0
  1  3  1  0
  2  5  1  0
  3  6  2  0
  4  7  2  0
  4 10  1  0
  5 13  2  0
  6 13  1  0
  7 14  1  0
  8 12  2  0
  8 16  1  0
  9 15  2  0
  9 17  1  0
 10 20  2  0
 11 14  2  0
 11 20  1  0
 12 15  1  0
 12 18  1  0
 13 21  1  0
 14 22  1  0
 15 21  1  0
 16 17  2  0
 16 24  1  0
 17 26  1  0
 18 22  1  0
 18 23  2  0
 19 21  1  0
 19 22  1  0
 19 25  2  0
M  END
