MAK-UNK-acefcb18-12
     RDKit          3D

 12 13  0  0  0  0  0  0  0  0999 V2000
   11.3592   -1.2512   25.3167 C   0  0  0  0  0  0  0  0  0  0  0  0
   12.5083   -0.7596   25.8959 C   0  0  0  0  0  0  0  0  0  0  0  0
   12.7365   -3.1223   25.2517 C   0  0  0  0  0  0  0  0  0  0  0  0
   11.4912   -2.6200   24.9436 C   0  0  0  0  0  0  0  0  0  0  0  0
    9.3391   -5.5235   23.9843 C   0  0  0  0  0  0  0  0  0  0  0  0
    8.9046   -3.5950   22.4512 C   0  0  0  0  0  0  0  0  0  0  0  0
    9.9667   -4.5703   25.0012 C   0  0  0  0  0  0  0  0  0  0  0  0
    9.5280   -2.6473   23.4746 C   0  0  0  0  0  0  0  0  0  0  0  0
    8.2813   -4.8200   23.1284 C   0  0  0  0  0  0  0  0  0  0  0  0
    7.6964   -5.7758   22.0915 C   0  0  0  0  0  0  0  0  0  0  0  0
   10.4769   -3.3680   24.3341 N   0  0  0  0  0  0  0  0  0  0  0  0
   13.7397   -1.9460   25.9879 S   0  0  0  0  0  0  0  0  0  0  0  0
  1  2  2  0
  1  4  1  0
  2 12  1  0
  3  4  2  0
  3 12  1  0
  4 11  1  0
  5  7  1  0
  5  9  1  0
  6  8  1  0
  6  9  1  0
  7 11  1  0
  8 11  1  0
  9 10  1  0
M  END
