MAK-UNK-9a6be56d-20
     RDKit          3D

 38 42  0  0  1  0  0  0  0  0999 V2000
   13.3928   -0.3009   21.1118 C   0  0  0  0  0  0  0  0  0  0  0  0
   13.4897   -1.5352   21.7542 C   0  0  0  0  0  0  0  0  0  0  0  0
   10.7344    5.4301   23.9519 C   0  0  0  0  0  0  0  0  0  0  0  0
   12.2664    0.4990   21.3043 C   0  0  0  0  0  0  0  0  0  0  0  0
    6.4053   -2.8760   22.1025 C   0  0  0  0  0  0  0  0  0  0  0  0
   12.4602   -1.9697   22.5891 C   0  0  0  0  0  0  0  0  0  0  0  0
   10.1595    4.2638   24.4446 C   0  0  0  0  0  0  0  0  0  0  0  0
    6.3209   -2.3439   20.8211 C   0  0  0  0  0  0  0  0  0  0  0  0
    7.7316   -0.5094   21.5126 C   0  0  0  0  0  0  0  0  0  0  0  0
   11.9736    5.3338   23.3396 C   0  0  0  0  0  0  0  0  0  0  0  0
   12.0666    3.0641   23.6831 C   0  0  0  0  0  0  0  0  0  0  0  0
   11.2369    0.0646   22.1392 C   0  0  0  0  0  0  0  0  0  0  0  0
    7.1629   -2.2319   23.0962 C   0  0  0  0  0  0  0  0  0  0  0  0
    7.8336   -1.0145   22.8238 C   0  0  0  0  0  0  0  0  0  0  0  0
   11.3337   -1.1698   22.7816 C   0  0  0  0  0  0  0  0  0  0  0  0
    6.9867   -1.1624   20.5255 C   0  0  0  0  0  0  0  0  0  0  0  0
   10.8318    3.0540   24.3117 C   0  0  0  0  0  0  0  0  0  0  0  0
    9.5543    1.7653   21.4428 C   0  0  0  0  0  0  0  0  0  0  0  0
    8.1563    1.9492   23.2242 C   0  0  0  0  0  0  0  0  0  0  0  0
   10.0733    0.8964   22.3349 C   0  0  0  0  0  0  0  0  0  0  0  0
    8.3836    2.4130   21.9870 C   0  0  0  0  0  0  0  0  0  0  0  0
    7.2044   -2.8484   24.4736 C   0  0  0  0  0  0  0  0  0  0  0  0
    8.4007   -2.3425   25.2667 C   0  0  0  0  0  0  0  0  0  0  0  0
    8.4555   -0.8236   25.2006 C   0  0  0  0  0  0  0  0  0  0  0  0
    9.1987    0.9226   23.5743 C   0  0  0  0  0  0  0  0  0  0  0  0
    5.3599    4.4130   20.7799 C   0  0  0  0  0  0  0  0  0  0  0  0
    7.6103    3.4274   21.2306 C   0  0  0  0  0  0  0  0  0  0  0  0
   12.6569    4.1767   23.1920 N   0  0  0  0  0  0  0  0  0  0  0  0
    8.5762   -0.3711   23.8155 N   0  0  0  0  0  0  0  0  0  0  0  0
    5.5207    0.5086   19.0546 N   0  0  0  0  0  0  0  0  0  0  0  0
    6.1641    3.4414   21.5688 N   0  0  0  0  0  0  0  0  0  0  0  0
   11.2427    0.6481   25.1934 O   0  0  0  0  0  0  0  0  0  0  0  0
    9.2048    1.8945   25.9928 O   0  0  0  0  0  0  0  0  0  0  0  0
    8.0691    0.3456   18.7013 O   0  0  0  0  0  0  0  0  0  0  0  0
    6.5997   -1.5705   17.9822 O   0  0  0  0  0  0  0  0  0  0  0  0
   10.3523   -1.6015   23.5873 F   0  0  0  0  0  0  0  0  0  0  0  0
   10.1320    1.5490   24.9261 S   0  0  0  0  0  0  0  0  0  0  0  0
    6.8980   -0.4927   18.9147 S   0  0  0  0  0  0  0  0  0  0  0  0
  1  2  2  0
  1  4  1  0
  2  6  1  0
  3  7  2  0
  3 10  1  0
  4 12  2  0
  5  8  2  0
  5 13  1  0
  6 15  2  0
  7 17  1  0
  8 16  1  0
  9 14  1  0
  9 16  2  0
 10 28  2  0
 11 17  2  0
 11 28  1  0
 12 15  1  0
 12 20  1  0
 13 14  2  0
 13 22  1  0
 14 29  1  0
 15 36  1  0
 16 38  1  0
 17 37  1  0
 18 20  2  0
 18 21  1  0
 19 21  2  0
 19 25  1  0
 20 25  1  0
 21 27  1  0
 22 23  1  0
 23 24  1  0
 24 29  1  0
 25 29  1  0
 25 37  1  0
 26 31  1  0
 27 31  1  0
 30 38  1  0
 32 37  2  0
 33 37  2  0
 34 38  2  0
 35 38  2  0
M  CHG  1  31   1
M  END
