MAK-UNK-c44f4be0-14
     RDKit          3D

 32 33  0  0  1  0  0  0  0  0999 V2000
    8.6852    6.5372   23.0506 C   0  0  0  0  0  0  0  0  0  0  0  0
    7.5157    6.7839   22.9383 C   0  0  0  0  0  0  0  0  0  0  0  0
    7.1353   -0.7922   23.2008 C   0  0  0  0  0  0  0  0  0  0  0  0
    9.0161   -0.9407   24.7100 C   0  0  0  0  0  0  0  0  0  0  0  0
    6.4721   -1.7789   23.9303 C   0  0  0  0  0  0  0  0  0  0  0  0
    8.3528   -1.9274   25.4395 C   0  0  0  0  0  0  0  0  0  0  0  0
   12.8096   -0.1646   23.1076 C   0  0  0  0  0  0  0  0  0  0  0  0
   13.1293    1.0182   21.0253 C   0  0  0  0  0  0  0  0  0  0  0  0
   13.2344   -1.3467   22.5013 C   0  0  0  0  0  0  0  0  0  0  0  0
   13.5541   -0.1640   20.4190 C   0  0  0  0  0  0  0  0  0  0  0  0
    8.4074   -0.3732   23.5906 C   0  0  0  0  0  0  0  0  0  0  0  0
    7.0808   -2.3464   25.0496 C   0  0  0  0  0  0  0  0  0  0  0  0
   12.7570    1.0179   22.3695 C   0  0  0  0  0  0  0  0  0  0  0  0
   13.6066   -1.3465   21.1570 C   0  0  0  0  0  0  0  0  0  0  0  0
    9.1146    0.6780   22.8147 C   0  0  0  0  0  0  0  0  0  0  0  0
   10.3772    3.7995   23.6194 C   0  0  0  0  0  0  0  0  0  0  0  0
    7.1059   -7.5672   23.9139 C   0  0  0  0  0  0  0  0  0  0  0  0
   10.1106    6.2411   23.1888 C   0  0  0  0  0  0  0  0  0  0  0  0
    6.3706   -3.4007   25.8300 C   0  0  0  0  0  0  0  0  0  0  0  0
   12.2981    2.2973   23.0255 C   0  0  0  0  0  0  0  0  0  0  0  0
    6.6547   -4.8246   25.3365 C   0  0  0  0  0  0  0  0  0  0  0  0
   10.7841    2.5108   22.9138 C   0  0  0  0  0  0  0  0  0  0  0  0
   10.0366    1.4382   23.5206 N   0  0  0  0  0  0  0  0  0  0  0  0
   10.4055    4.8917   22.7634 N   0  0  0  0  0  0  0  0  0  0  0  0
    6.2774   -5.0119   23.9612 N   0  0  0  0  0  0  0  0  0  0  0  0
    8.8423    0.8325   21.6270 O   0  0  0  0  0  0  0  0  0  0  0  0
   10.1035    3.8491   24.8167 O   0  0  0  0  0  0  0  0  0  0  0  0
    5.6881   -6.5519   21.9622 O   0  0  0  0  0  0  0  0  0  0  0  0
    4.5820   -6.9676   24.1894 O   0  0  0  0  0  0  0  0  0  0  0  0
   14.0223   -2.4999   20.5660 O   0  0  0  0  0  0  0  0  0  0  0  0
    5.7339   -6.5538   23.4113 S   0  0  0  0  0  0  0  0  0  0  0  0
    5.6646    7.1745   22.7603 Br  0  0  0  0  0  0  0  0  0  0  0  0
  1  2  3  0
  1 18  1  0
  2 32  1  0
  3  5  2  0
  3 11  1  0
  4  6  1  0
  4 11  2  0
  5 12  1  0
  6 12  2  0
  7  9  2  0
  7 13  1  0
  8 10  1  0
  8 13  2  0
  9 14  1  0
 10 14  2  0
 11 15  1  0
 12 19  1  0
 13 20  1  0
 14 30  1  0
 15 23  1  0
 15 26  2  0
 16 22  1  0
 16 24  1  0
 16 27  2  0
 17 31  1  0
 18 24  1  0
 19 21  1  0
 20 22  1  0
 21 25  1  0
 22 23  1  0
 25 31  1  0
 28 31  2  0
 29 31  2  0
M  END
