MAK-UNK-a7992eb3-26
     RDKit          3D

 34 36  0  0  1  0  0  0  0  0999 V2000
    6.2957    0.2434   20.2252 C   0  0  0  0  0  0  0  0  0  0  0  0
    5.3084    0.6607   19.6843 C   0  0  0  0  0  0  0  0  0  0  0  0
    5.9931   -6.1633   20.9120 C   0  0  0  0  0  0  0  0  0  0  0  0
    6.6928   -5.0627   21.4067 C   0  0  0  0  0  0  0  0  0  0  0  0
    5.0630   -6.8186   21.7189 C   0  0  0  0  0  0  0  0  0  0  0  0
    6.4624   -4.6175   22.7084 C   0  0  0  0  0  0  0  0  0  0  0  0
    4.8326   -6.3734   23.0206 C   0  0  0  0  0  0  0  0  0  0  0  0
    9.5361    0.4526   25.9637 C   0  0  0  0  0  0  0  0  0  0  0  0
   10.0255   -0.7987   23.9558 C   0  0  0  0  0  0  0  0  0  0  0  0
    9.2463   -0.7360   26.6338 C   0  0  0  0  0  0  0  0  0  0  0  0
    9.7358   -1.9873   24.6258 C   0  0  0  0  0  0  0  0  0  0  0  0
    9.9257    0.4212   24.6247 C   0  0  0  0  0  0  0  0  0  0  0  0
    5.5323   -5.2729   23.5153 C   0  0  0  0  0  0  0  0  0  0  0  0
    9.3462   -1.9559   25.9649 C   0  0  0  0  0  0  0  0  0  0  0  0
    8.8100    4.7139   23.8557 C   0  0  0  0  0  0  0  0  0  0  0  0
    8.7409    1.6517   21.8742 C   0  0  0  0  0  0  0  0  0  0  0  0
    5.6924   -4.0997   27.9830 C   0  0  0  0  0  0  0  0  0  0  0  0
    7.1213   -3.5739   27.9823 C   0  0  0  0  0  0  0  0  0  0  0  0
    5.5893   -5.4663   27.3230 C   0  0  0  0  0  0  0  0  0  0  0  0
    7.7113   -3.5697   26.5733 C   0  0  0  0  0  0  0  0  0  0  0  0
    7.6195   -4.9357   25.8776 C   0  0  0  0  0  0  0  0  0  0  0  0
    9.0990    6.1023   23.3897 C   0  0  0  0  0  0  0  0  0  0  0  0
    8.5563   -6.0065   26.4431 C   0  0  0  0  0  0  0  0  0  0  0  0
    7.4982   -0.2687   20.8811 C   0  0  0  0  0  0  0  0  0  0  0  0
   10.2361    1.6918   23.9083 C   0  0  0  0  0  0  0  0  0  0  0  0
    5.2842   -4.7947   24.9156 C   0  0  0  0  0  0  0  0  0  0  0  0
    9.0105    2.3190   23.2182 C   0  0  0  0  0  0  0  0  0  0  0  0
    7.8804    0.5693   21.9949 N   0  0  0  0  0  0  0  0  0  0  0  0
    9.1950    3.7260   22.9661 N   0  0  0  0  0  0  0  0  0  0  0  0
    6.1851   -5.4504   25.9324 N   0  0  0  0  0  0  0  0  0  0  0  0
    8.2766    4.5411   24.9454 O   0  0  0  0  0  0  0  0  0  0  0  0
    9.2694    2.0187   20.8269 O   0  0  0  0  0  0  0  0  0  0  0  0
    9.0632   -3.1215   26.6226 O   0  0  0  0  0  0  0  0  0  0  0  0
    3.7457    1.3210   18.8285 Br  0  0  0  0  0  0  0  0  0  0  0  0
  1  2  3  0
  1 24  1  0
  2 34  1  0
  3  4  2  0
  3  5  1  0
  4  6  1  0
  5  7  2  0
  6 13  2  0
  7 13  1  0
  8 10  2  0
  8 12  1  0
  9 11  1  0
  9 12  2  0
 10 14  1  0
 11 14  2  0
 12 25  1  0
 13 26  1  0
 14 33  1  0
 15 22  1  0
 15 29  1  0
 15 31  2  0
 16 27  1  0
 16 28  1  0
 16 32  2  0
 17 18  1  0
 17 19  1  0
 18 20  1  0
 19 30  1  0
 20 21  1  0
 20 33  1  0
 21 23  1  0
 21 30  1  0
 24 28  1  0
 25 27  1  0
 26 30  1  0
 27 29  1  0
M  CHG  1  30   1
M  END
