MAK-UNK-1cb0e944-12
     RDKit          3D

 22 23  0  0  0  0  0  0  0  0999 V2000
    7.4363   -2.2130   22.5048 C   0  0  0  0  0  0  0  0  0  0  0  0
    9.4704   -2.7669   23.7718 C   0  0  0  0  0  0  0  0  0  0  0  0
    8.5100   -1.4385   22.1240 C   0  0  0  0  0  0  0  0  0  0  0  0
    9.6884   -1.7594   22.8578 C   0  0  0  0  0  0  0  0  0  0  0  0
    8.4005   -0.4338   21.0977 C   0  0  0  0  0  0  0  0  0  0  0  0
   11.9240    2.6171   22.4174 C   0  0  0  0  0  0  0  0  0  0  0  0
   10.7725    2.1937   24.6136 C   0  0  0  0  0  0  0  0  0  0  0  0
   12.0888    1.1186   22.2179 C   0  0  0  0  0  0  0  0  0  0  0  0
   10.9397    0.6962   24.4090 C   0  0  0  0  0  0  0  0  0  0  0  0
   11.8617    2.9873   23.8963 C   0  0  0  0  0  0  0  0  0  0  0  0
   11.0164   -1.0877   22.6678 C   0  0  0  0  0  0  0  0  0  0  0  0
    7.2485    0.2520   18.9657 C   0  0  0  0  0  0  0  0  0  0  0  0
    6.1952    1.2992   19.2723 C   0  0  0  0  0  0  0  0  0  0  0  0
    3.7103    2.0008   19.8922 N   0  0  0  0  0  0  0  0  0  0  0  0
    7.4599   -0.6499   20.0751 N   0  0  0  0  0  0  0  0  0  0  0  0
   10.9708    0.3927   22.9293 N   0  0  0  0  0  0  0  0  0  0  0  0
    9.1311    0.5815   21.1081 O   0  0  0  0  0  0  0  0  0  0  0  0
    4.1342   -0.0327   18.3751 O   0  0  0  0  0  0  0  0  0  0  0  0
    4.7064   -0.1766   20.8322 O   0  0  0  0  0  0  0  0  0  0  0  0
   11.5944    4.3804   24.0079 O   0  0  0  0  0  0  0  0  0  0  0  0
    7.8506   -3.3216   23.7424 S   0  0  0  0  0  0  0  0  0  0  0  0
    4.6137    0.5851   19.5990 S   0  0  0  0  0  0  0  0  0  0  0  0
  1  3  2  0
  1 21  1  0
  2  4  2  0
  2 21  1  0
  3  4  1  0
  3  5  1  0
  4 11  1  0
  5 15  1  0
  5 17  2  0
  6  8  1  0
  6 10  1  0
  7  9  1  0
  7 10  1  0
  8 16  1  0
  9 16  1  0
 10 20  1  0
 11 16  1  0
 12 13  1  0
 12 15  1  0
 13 22  1  0
 14 22  1  0
 18 22  2  0
 19 22  2  0
M  CHG  1  16   1
M  END
