MAK-UNK-9a6be56d-29
     RDKit          3D

 38 42  0  0  1  0  0  0  0  0999 V2000
   11.9586   -0.2435   25.5357 C   0  0  0  0  0  0  0  0  0  0  0  0
   13.1997   -0.2271   24.8992 C   0  0  0  0  0  0  0  0  0  0  0  0
    8.0197    2.4089   25.1232 C   0  0  0  0  0  0  0  0  0  0  0  0
   10.8543   -0.8069   24.8963 C   0  0  0  0  0  0  0  0  0  0  0  0
    6.6631   -4.3298   26.2824 C   0  0  0  0  0  0  0  0  0  0  0  0
   13.3365   -0.7738   23.6233 C   0  0  0  0  0  0  0  0  0  0  0  0
    8.7734    1.7206   24.1790 C   0  0  0  0  0  0  0  0  0  0  0  0
    6.5152   -4.7130   27.6102 C   0  0  0  0  0  0  0  0  0  0  0  0
    9.3961   -3.2385   23.0046 C   0  0  0  0  0  0  0  0  0  0  0  0
    4.3858   -5.7092   27.0600 C   0  0  0  0  0  0  0  0  0  0  0  0
    6.6782    2.6236   24.8509 C   0  0  0  0  0  0  0  0  0  0  0  0
    6.8227    1.5396   22.8304 C   0  0  0  0  0  0  0  0  0  0  0  0
    8.0087   -2.0577   21.6815 C   0  0  0  0  0  0  0  0  0  0  0  0
   10.9911   -1.3537   23.6203 C   0  0  0  0  0  0  0  0  0  0  0  0
    5.6692   -4.6304   25.3321 C   0  0  0  0  0  0  0  0  0  0  0  0
    8.2358   -3.3153   22.1953 C   0  0  0  0  0  0  0  0  0  0  0  0
    4.5028   -5.3427   25.7037 C   0  0  0  0  0  0  0  0  0  0  0  0
   12.2322   -1.3372   22.9838 C   0  0  0  0  0  0  0  0  0  0  0  0
    5.3753   -5.4016   27.9992 C   0  0  0  0  0  0  0  0  0  0  0  0
    8.1711    1.2744   23.0079 C   0  0  0  0  0  0  0  0  0  0  0  0
    9.8426   -1.9362   22.9609 C   0  0  0  0  0  0  0  0  0  0  0  0
    4.5759   -4.1346   23.1361 C   0  0  0  0  0  0  0  0  0  0  0  0
    3.7540   -5.3987   23.3456 C   0  0  0  0  0  0  0  0  0  0  0  0
    5.8944   -4.1987   23.9017 C   0  0  0  0  0  0  0  0  0  0  0  0
    2.3538   -6.4471   25.1259 C   0  0  0  0  0  0  0  0  0  0  0  0
    7.4064   -4.5399   21.9432 C   0  0  0  0  0  0  0  0  0  0  0  0
    6.0581    2.2052   23.7249 N   0  0  0  0  0  0  0  0  0  0  0  0
    8.9914   -1.2274   22.1539 N   0  0  0  0  0  0  0  0  0  0  0  0
    3.5120   -5.6396   24.7673 N   0  0  0  0  0  0  0  0  0  0  0  0
    4.3742   -4.5216   30.3074 N   0  0  0  0  0  0  0  0  0  0  0  0
    6.8301   -5.1169   23.1824 N   0  0  0  0  0  0  0  0  0  0  0  0
    8.4216    0.5422   20.4932 O   0  0  0  0  0  0  0  0  0  0  0  0
   10.4936    0.8134   21.9444 O   0  0  0  0  0  0  0  0  0  0  0  0
    4.2721   -7.0265   29.7068 O   0  0  0  0  0  0  0  0  0  0  0  0
    6.4941   -5.9852   30.2778 O   0  0  0  0  0  0  0  0  0  0  0  0
   12.3802   -1.8589   21.7573 F   0  0  0  0  0  0  0  0  0  0  0  0
    9.1001    0.3929   21.7801 S   0  0  0  0  0  0  0  0  0  0  0  0
    5.1768   -5.8864   29.6654 S   0  0  0  0  0  0  0  0  0  0  0  0
  1  2  2  0
  1  4  1  0
  2  6  1  0
  3  7  2  0
  3 11  1  0
  4 14  2  0
  5  8  2  0
  5 15  1  0
  6 18  2  0
  7 20  1  0
  8 19  1  0
  9 16  1  0
  9 21  2  0
 10 17  1  0
 10 19  2  0
 11 27  2  0
 12 20  2  0
 12 27  1  0
 13 16  2  0
 13 28  1  0
 14 18  1  0
 14 21  1  0
 15 17  2  0
 15 24  1  0
 16 26  1  0
 17 29  1  0
 18 36  1  0
 19 38  1  0
 20 37  1  0
 21 28  1  0
 22 23  1  0
 22 24  1  0
 23 29  1  0
 24 31  1  0
 25 29  1  0
 26 31  1  0
 28 37  1  0
 30 38  1  0
 32 37  2  0
 33 37  2  0
 34 38  2  0
 35 38  2  0
M  CHG  1  31   1
M  END
