MAK-UNK-0d6072ac-10
     RDKit          3D

 19 21  0  0  1  0  0  0  0  0999 V2000
    9.8816   -4.7953   24.0598 C   0  0  0  0  0  0  0  0  0  0  0  0
   11.9289   -0.4926   25.5230 C   0  0  0  0  0  0  0  0  0  0  0  0
   13.1864   -0.9397   25.9378 C   0  0  0  0  0  0  0  0  0  0  0  0
    8.6160   -5.0445   23.5325 C   0  0  0  0  0  0  0  0  0  0  0  0
   12.6234   -3.2298   25.3626 C   0  0  0  0  0  0  0  0  0  0  0  0
   10.2076   -3.4692   24.3933 C   0  0  0  0  0  0  0  0  0  0  0  0
   11.3479   -2.8040   24.9374 C   0  0  0  0  0  0  0  0  0  0  0  0
   11.0314   -1.4457   25.0279 C   0  0  0  0  0  0  0  0  0  0  0  0
   13.5305   -2.2872   25.8597 C   0  0  0  0  0  0  0  0  0  0  0  0
    7.7433   -3.9788   23.3630 C   0  0  0  0  0  0  0  0  0  0  0  0
    9.2359   -2.5001   24.1705 C   0  0  0  0  0  0  0  0  0  0  0  0
    6.1653   -3.3635   21.5522 C   0  0  0  0  0  0  0  0  0  0  0  0
    6.1572   -5.7490   22.5319 C   0  0  0  0  0  0  0  0  0  0  0  0
    6.3873   -4.2552   22.7967 C   0  0  0  0  0  0  0  0  0  0  0  0
    8.0016   -2.6856   23.6653 N   0  0  0  0  0  0  0  0  0  0  0  0
    9.7469   -1.2912   24.5571 N   0  0  0  0  0  0  0  0  0  0  0  0
    5.3773   -3.8532   20.6911 O   0  0  0  0  0  0  0  0  0  0  0  0
    6.7817   -2.2616   21.5300 O   0  0  0  0  0  0  0  0  0  0  0  0
   15.0901   -2.8020   26.3805 Cl  0  0  0  0  0  0  0  0  0  0  0  0
  1  4  2  0
  1  6  1  0
  2  3  1  0
  2  8  2  0
  3  9  2  0
  4 10  1  0
  5  7  2  0
  5  9  1  0
  6  7  1  0
  6 11  2  0
  7  8  1  0
  8 16  1  0
  9 19  1  0
 10 14  1  0
 10 15  2  0
 11 15  1  0
 11 16  1  0
 12 14  1  0
 12 17  1  0
 12 18  2  0
 13 14  1  0
M  CHG  1  17  -1
M  END
