MAK-UNK-148caf23-11
     RDKit          3D

 34 37  0  0  0  0  0  0  0  0999 V2000
   14.4411   -1.3320   20.7845 C   0  0  0  0  0  0  0  0  0  0  0  0
    5.7514   -4.7583   24.2827 C   0  0  0  0  0  0  0  0  0  0  0  0
    6.2189   -5.5426   23.2284 C   0  0  0  0  0  0  0  0  0  0  0  0
    6.2418    0.1054   18.1841 C   0  0  0  0  0  0  0  0  0  0  0  0
   12.8997   -2.9957   21.7154 C   0  0  0  0  0  0  0  0  0  0  0  0
    6.1227   -3.4166   24.3720 C   0  0  0  0  0  0  0  0  0  0  0  0
    7.0579   -4.9855   22.2633 C   0  0  0  0  0  0  0  0  0  0  0  0
    5.8650    0.2932   19.5092 C   0  0  0  0  0  0  0  0  0  0  0  0
   11.8303   -3.3074   22.5476 C   0  0  0  0  0  0  0  0  0  0  0  0
    6.4456   -1.1931   17.7456 C   0  0  0  0  0  0  0  0  0  0  0  0
   12.6939   -0.7239   22.3884 C   0  0  0  0  0  0  0  0  0  0  0  0
    5.9333   -2.0652   19.8084 C   0  0  0  0  0  0  0  0  0  0  0  0
    7.2365    0.7438   23.1957 C   0  0  0  0  0  0  0  0  0  0  0  0
   13.3458   -1.6817   21.6286 C   0  0  0  0  0  0  0  0  0  0  0  0
    6.9616   -2.8595   23.4069 C   0  0  0  0  0  0  0  0  0  0  0  0
    8.3597    0.4874   23.9507 C   0  0  0  0  0  0  0  0  0  0  0  0
    8.4273   -0.9142   24.1458 C   0  0  0  0  0  0  0  0  0  0  0  0
    7.4293   -3.6439   22.3525 C   0  0  0  0  0  0  0  0  0  0  0  0
    5.7057   -0.8076   20.3436 C   0  0  0  0  0  0  0  0  0  0  0  0
    7.3435   -1.4716   23.5040 C   0  0  0  0  0  0  0  0  0  0  0  0
   11.2463   -2.2769   23.2665 C   0  0  0  0  0  0  0  0  0  0  0  0
   11.2179    3.0202   23.9268 C   0  0  0  0  0  0  0  0  0  0  0  0
    9.4720   -1.6389   24.9007 C   0  0  0  0  0  0  0  0  0  0  0  0
    9.3106    1.4970   24.4567 C   0  0  0  0  0  0  0  0  0  0  0  0
   15.3322   -1.0474   20.0977 N   0  0  0  0  0  0  0  0  0  0  0  0
    6.3005   -2.2871   18.5264 N   0  0  0  0  0  0  0  0  0  0  0  0
   11.6519   -0.9885   23.2080 N   0  0  0  0  0  0  0  0  0  0  0  0
    6.6268   -0.4544   22.9297 N   0  0  0  0  0  0  0  0  0  0  0  0
   10.1823   -2.6029   24.0903 N   0  0  0  0  0  0  0  0  0  0  0  0
   10.2241    2.0478   23.4092 N   0  0  0  0  0  0  0  0  0  0  0  0
    4.5360    0.6746   22.1760 O   0  0  0  0  0  0  0  0  0  0  0  0
    4.5666   -1.8570   22.4265 O   0  0  0  0  0  0  0  0  0  0  0  0
    8.2364   -3.1232   21.4165 F   0  0  0  0  0  0  0  0  0  0  0  0
    5.2260   -0.6076   22.0398 S   0  0  0  0  0  0  0  0  0  0  0  0
  1 14  1  0
  1 25  3  0
  2  3  2  0
  2  6  1  0
  3  7  1  0
  4  8  2  0
  4 10  1  0
  5  9  2  0
  5 14  1  0
  6 15  2  0
  7 18  2  0
  8 19  1  0
  9 21  1  0
 10 26  2  0
 11 14  2  0
 11 27  1  0
 12 19  2  0
 12 26  1  0
 13 16  2  0
 13 28  1  0
 15 18  1  0
 15 20  1  0
 16 17  1  0
 16 24  1  0
 17 20  2  0
 17 23  1  0
 18 33  1  0
 19 34  1  0
 20 28  1  0
 21 27  2  0
 21 29  1  0
 22 30  1  0
 23 29  1  0
 24 30  1  0
 28 34  1  0
 31 34  2  0
 32 34  2  0
M  CHG  1  30   1
M  END
