MAK-UNK-9955b1f3-4
     RDKit          3D

 20 21  0  0  1  0  0  0  0  0999 V2000
   11.9494   -0.4692   22.2332 C   0  0  0  0  0  0  0  0  0  0  0  0
   11.7065   -1.3807   23.4283 C   0  0  0  0  0  0  0  0  0  0  0  0
   11.1720    0.3861   25.1877 C   0  0  0  0  0  0  0  0  0  0  0  0
   12.9369    0.6691   22.4815 C   0  0  0  0  0  0  0  0  0  0  0  0
   11.6535    1.5258   24.3073 C   0  0  0  0  0  0  0  0  0  0  0  0
    7.7036   -1.8364   20.2351 C   0  0  0  0  0  0  0  0  0  0  0  0
    6.2560   -2.2768   20.2686 C   0  0  0  0  0  0  0  0  0  0  0  0
    6.3305   -3.5061   21.1447 C   0  0  0  0  0  0  0  0  0  0  0  0
    7.3827   -3.1085   22.1727 C   0  0  0  0  0  0  0  0  0  0  0  0
    6.3098   -0.0032   24.9016 C   0  0  0  0  0  0  0  0  0  0  0  0
    6.8431   -2.3943   23.4062 C   0  0  0  0  0  0  0  0  0  0  0  0
    7.3809   -0.9735   25.2675 C   0  0  0  0  0  0  0  0  0  0  0  0
    8.9842   -2.5803   24.4800 C   0  0  0  0  0  0  0  0  0  0  0  0
   10.0604   -1.8320   25.2438 C   0  0  0  0  0  0  0  0  0  0  0  0
    7.8966   -1.6560   24.0888 N   0  0  0  0  0  0  0  0  0  0  0  0
   10.6726   -0.7741   24.3573 N   0  0  0  0  0  0  0  0  0  0  0  0
   12.9398    1.2080   23.7947 O   0  0  0  0  0  0  0  0  0  0  0  0
    8.2834   -2.2129   21.4921 O   0  0  0  0  0  0  0  0  0  0  0  0
    5.7714   -2.5918   18.9782 O   0  0  0  0  0  0  0  0  0  0  0  0
    5.0824   -3.8273   21.7237 O   0  0  0  0  0  0  0  0  0  0  0  0
  1  2  1  0
  1  4  1  0
  2 16  1  0
  3  5  1  0
  3 16  1  0
  4 17  1  0
  5 17  1  0
  6  7  1  0
  6 18  1  0
  7  8  1  0
  7 19  1  0
  8  9  1  0
  8 20  1  0
  9 11  1  0
  9 18  1  0
 10 12  1  0
 11 15  1  0
 12 15  1  0
 13 14  1  0
 13 15  1  0
 14 16  1  0
M  CHG  1  16   1
M  END
