MAK-UNK-8fdbca50-9
     RDKit          3D

 40 43  0  0  1  0  0  0  0  0999 V2000
    6.0958    0.5923   21.6801 C   0  0  0  0  0  0  0  0  0  0  0  0
    7.2136    1.1923   21.1004 C   0  0  0  0  0  0  0  0  0  0  0  0
   12.0898   -4.0701   23.6390 C   0  0  0  0  0  0  0  0  0  0  0  0
    6.0284   -0.7965   21.7909 C   0  0  0  0  0  0  0  0  0  0  0  0
   12.6526   -2.9428   23.0408 C   0  0  0  0  0  0  0  0  0  0  0  0
    8.2640    0.4035   20.6314 C   0  0  0  0  0  0  0  0  0  0  0  0
   10.7226   -4.1049   23.9135 C   0  0  0  0  0  0  0  0  0  0  0  0
   10.4811   -1.8848   22.9916 C   0  0  0  0  0  0  0  0  0  0  0  0
    6.4877   -3.9340   20.5409 C   0  0  0  0  0  0  0  0  0  0  0  0
    7.2500   -5.0634   22.3335 C   0  0  0  0  0  0  0  0  0  0  0  0
    7.0789   -1.5853   21.3219 C   0  0  0  0  0  0  0  0  0  0  0  0
   11.8483   -1.8501   22.7171 C   0  0  0  0  0  0  0  0  0  0  0  0
    6.6434   -5.2233   21.1072 C   0  0  0  0  0  0  0  0  0  0  0  0
    8.1967   -0.9853   20.7421 C   0  0  0  0  0  0  0  0  0  0  0  0
    9.9183   -3.0122   23.5898 C   0  0  0  0  0  0  0  0  0  0  0  0
    7.0040   -3.0255   21.4383 C   0  0  0  0  0  0  0  0  0  0  0  0
   12.2431    1.6508   23.0802 C   0  0  0  0  0  0  0  0  0  0  0  0
    8.3366    3.4979   25.7982 C   0  0  0  0  0  0  0  0  0  0  0  0
   11.5371    3.7250   24.2595 C   0  0  0  0  0  0  0  0  0  0  0  0
   11.2955    1.4597   25.3878 C   0  0  0  0  0  0  0  0  0  0  0  0
   10.0303    3.7128   24.0077 C   0  0  0  0  0  0  0  0  0  0  0  0
    9.7918    1.5268   25.1174 C   0  0  0  0  0  0  0  0  0  0  0  0
   12.1177    2.3164   24.4197 C   0  0  0  0  0  0  0  0  0  0  0  0
   13.6648   -0.9703   21.1945 C   0  0  0  0  0  0  0  0  0  0  0  0
   13.8153   -0.0376   24.0414 C   0  0  0  0  0  0  0  0  0  0  0  0
    4.3488   -8.0572   19.9737 C   0  0  0  0  0  0  0  0  0  0  0  0
    6.2322   -6.5024   20.4973 C   0  0  0  0  0  0  0  0  0  0  0  0
    7.6788    2.6108   26.8249 C   0  0  0  0  0  0  0  0  0  0  0  0
   12.4598   -0.6272   22.0680 C   0  0  0  0  0  0  0  0  0  0  0  0
    7.4648   -3.7233   22.5241 N   0  0  0  0  0  0  0  0  0  0  0  0
    9.3413    2.9188   25.0241 N   0  0  0  0  0  0  0  0  0  0  0  0
   12.8173    0.3791   23.0646 N   0  0  0  0  0  0  0  0  0  0  0  0
    4.7573   -6.7462   20.5352 N   0  0  0  0  0  0  0  0  0  0  0  0
   11.8427    2.2425   22.0743 O   0  0  0  0  0  0  0  0  0  0  0  0
    7.9686    4.6705   25.6904 O   0  0  0  0  0  0  0  0  0  0  0  0
    7.9218   -4.0512   24.9526 O   0  0  0  0  0  0  0  0  0  0  0  0
    7.7282   -1.6893   24.0269 O   0  0  0  0  0  0  0  0  0  0  0  0
    9.2150   -1.7297   20.2864 F   0  0  0  0  0  0  0  0  0  0  0  0
    8.2075   -3.0557   23.9348 S   0  0  0  0  0  0  0  0  0  0  0  0
    6.4936    3.6050   27.6643 Cl  0  0  0  0  0  0  0  0  0  0  0  0
  1  2  2  0
  1  4  1  0
  2  6  1  0
  3  5  2  0
  3  7  1  0
  4 11  2  0
  5 12  1  0
  6 14  2  0
  7 15  2  0
  8 12  2  0
  8 15  1  0
  9 13  1  0
  9 16  2  0
 10 13  2  0
 10 30  1  0
 11 14  1  0
 11 16  1  0
 12 29  1  0
 13 27  1  0
 14 38  1  0
 15 39  1  0
 16 30  1  0
 17 23  1  0
 17 32  1  0
 17 34  2  0
 18 28  1  0
 18 31  1  0
 18 35  2  0
 19 21  1  0
 19 23  1  0
 20 22  1  0
 20 23  1  0
 21 31  1  0
 22 31  1  0
 24 29  1  0
 25 32  1  0
 26 33  1  0
 27 33  1  0
 28 40  1  0
 29 32  1  0
 30 39  1  0
 36 39  2  0
 37 39  2  0
M  CHG  1  33   1
M  END
