MAK-UNK-0955449e-24
     RDKit          3D

 18 19  0  0  0  0  0  0  0  0999 V2000
   13.9358   -0.3972   22.3711 C   0  0  0  0  0  0  0  0  0  0  0  0
   13.3486   -1.5848   21.9348 C   0  0  0  0  0  0  0  0  0  0  0  0
   13.1353    0.6507   22.8258 C   0  0  0  0  0  0  0  0  0  0  0  0
   11.9608   -1.7245   21.9531 C   0  0  0  0  0  0  0  0  0  0  0  0
   10.8223    2.8823   22.8268 C   0  0  0  0  0  0  0  0  0  0  0  0
    9.4322    2.6805   24.5865 C   0  0  0  0  0  0  0  0  0  0  0  0
   11.7475    0.5111   22.8440 C   0  0  0  0  0  0  0  0  0  0  0  0
    9.8786    3.5671   23.6315 C   0  0  0  0  0  0  0  0  0  0  0  0
   11.1603   -0.6765   22.4077 C   0  0  0  0  0  0  0  0  0  0  0  0
   10.9238    1.5981   23.3144 C   0  0  0  0  0  0  0  0  0  0  0  0
    8.2047   -1.3708   26.0656 C   0  0  0  0  0  0  0  0  0  0  0  0
   11.7629    5.8937   23.6911 C   0  0  0  0  0  0  0  0  0  0  0  0
    9.4519    4.9707   23.4766 C   0  0  0  0  0  0  0  0  0  0  0  0
    8.4048   -0.1353   25.2034 C   0  0  0  0  0  0  0  0  0  0  0  0
    9.8672    0.3041   25.1921 C   0  0  0  0  0  0  0  0  0  0  0  0
   10.0741    1.4867   24.3839 N   0  0  0  0  0  0  0  0  0  0  0  0
   10.5049    5.8659   22.9053 N   0  0  0  0  0  0  0  0  0  0  0  0
    9.8276   -0.8266   22.4191 F   0  0  0  0  0  0  0  0  0  0  0  0
  1  2  2  0
  1  3  1  0
  2  4  1  0
  3  7  2  0
  4  9  2  0
  5  8  1  0
  5 10  2  0
  6  8  2  0
  6 16  1  0
  7  9  1  0
  7 10  1  0
  8 13  1  0
  9 18  1  0
 10 16  1  0
 11 14  1  0
 12 17  1  0
 13 17  1  0
 14 15  1  0
 15 16  1  0
M  CHG  1  17   1
M  END
