MAK-UNK-129dcd6f-12
     RDKit          3D

 26 28  0  0  0  0  0  0  0  0999 V2000
    4.1950   -4.9903   28.5932 C   0  0  0  0  0  0  0  0  0  0  0  0
   11.0089   -1.4935   23.2836 C   0  0  0  0  0  0  0  0  0  0  0  0
    9.9475   -0.1409   24.9810 C   0  0  0  0  0  0  0  0  0  0  0  0
    5.2137   -4.4954   27.7867 C   0  0  0  0  0  0  0  0  0  0  0  0
   10.1870   -2.5674   23.6254 C   0  0  0  0  0  0  0  0  0  0  0  0
    9.1256   -1.2148   25.3228 C   0  0  0  0  0  0  0  0  0  0  0  0
   11.7158    5.7836   23.6472 C   0  0  0  0  0  0  0  0  0  0  0  0
    3.7938   -6.3023   28.3996 C   0  0  0  0  0  0  0  0  0  0  0  0
   12.9660    5.7720   23.0501 C   0  0  0  0  0  0  0  0  0  0  0  0
    5.3196   -6.6136   26.7104 C   0  0  0  0  0  0  0  0  0  0  0  0
   13.0243    3.4757   23.0098 C   0  0  0  0  0  0  0  0  0  0  0  0
   10.8892   -0.2803   23.9614 C   0  0  0  0  0  0  0  0  0  0  0  0
   11.1167    4.5604   23.9268 C   0  0  0  0  0  0  0  0  0  0  0  0
    9.2453   -2.4281   24.6449 C   0  0  0  0  0  0  0  0  0  0  0  0
    5.7921   -5.3161   26.8248 C   0  0  0  0  0  0  0  0  0  0  0  0
   11.7768    3.3796   23.6052 C   0  0  0  0  0  0  0  0  0  0  0  0
   11.7462    0.8394   23.6052 C   0  0  0  0  0  0  0  0  0  0  0  0
    7.4164   -3.5649   25.9796 C   0  0  0  0  0  0  0  0  0  0  0  0
    9.7693    4.5434   24.5708 C   0  0  0  0  0  0  0  0  0  0  0  0
    4.3318   -7.1297   27.4757 N   0  0  0  0  0  0  0  0  0  0  0  0
   13.6381    4.6455   22.7230 N   0  0  0  0  0  0  0  0  0  0  0  0
   11.2079    2.1083   23.8697 N   0  0  0  0  0  0  0  0  0  0  0  0
    8.4237   -3.5028   24.9859 N   0  0  0  0  0  0  0  0  0  0  0  0
    6.8303   -4.8408   25.9892 N   0  0  0  0  0  0  0  0  0  0  0  0
   12.8531    0.6695   23.0754 O   0  0  0  0  0  0  0  0  0  0  0  0
    7.1069   -2.6365   26.7194 O   0  0  0  0  0  0  0  0  0  0  0  0
  1  4  2  0
  1  8  1  0
  2  5  2  0
  2 12  1  0
  3  6  1  0
  3 12  2  0
  4 15  1  0
  5 14  1  0
  6 14  2  0
  7  9  2  0
  7 13  1  0
  8 20  2  0
  9 21  1  0
 10 15  2  0
 10 20  1  0
 11 16  1  0
 11 21  2  0
 12 17  1  0
 13 16  2  0
 13 19  1  0
 14 23  1  0
 15 24  1  0
 16 22  1  0
 17 22  1  0
 17 25  2  0
 18 23  1  0
 18 24  1  0
 18 26  2  0
M  END
