MAK-UNK-acefcb18-6
     RDKit          3D

 21 23  0  0  1  0  0  0  0  0999 V2000
   11.8900   -0.1585   23.6208 C   0  0  0  0  0  0  0  0  0  0  0  0
    9.8026    0.6597   24.5207 C   0  0  0  0  0  0  0  0  0  0  0  0
   11.3410   -1.4358   23.5085 C   0  0  0  0  0  0  0  0  0  0  0  0
    9.2535   -0.6176   24.4085 C   0  0  0  0  0  0  0  0  0  0  0  0
    9.4948    7.2684   24.2466 C   0  0  0  0  0  0  0  0  0  0  0  0
    8.4257    8.1371   24.2468 C   0  0  0  0  0  0  0  0  0  0  0  0
    8.2339    6.4368   22.4799 C   0  0  0  0  0  0  0  0  0  0  0  0
   11.1208    0.8893   24.1269 C   0  0  0  0  0  0  0  0  0  0  0  0
   10.0227   -1.6654   23.9023 C   0  0  0  0  0  0  0  0  0  0  0  0
    9.3838    6.2834   23.2230 C   0  0  0  0  0  0  0  0  0  0  0  0
   11.1862    4.4421   25.1043 C   0  0  0  0  0  0  0  0  0  0  0  0
   11.7168    2.2778   24.2492 C   0  0  0  0  0  0  0  0  0  0  0  0
   11.5261    5.1374   23.7903 C   0  0  0  0  0  0  0  0  0  0  0  0
   12.1462    2.8480   22.8843 C   0  0  0  0  0  0  0  0  0  0  0  0
   12.5623    4.3161   23.0197 C   0  0  0  0  0  0  0  0  0  0  0  0
    9.4359   -3.0311   23.7804 C   0  0  0  0  0  0  0  0  0  0  0  0
   10.3171    5.2899   23.0010 N   0  0  0  0  0  0  0  0  0  0  0  0
   10.7316    3.1090   24.8748 O   0  0  0  0  0  0  0  0  0  0  0  0
   13.2713    2.1225   22.3867 O   0  0  0  0  0  0  0  0  0  0  0  0
   12.7805    4.8711   21.7243 O   0  0  0  0  0  0  0  0  0  0  0  0
    7.2944    7.7640   23.0167 S   0  0  0  0  0  0  0  0  0  0  0  0
  1  3  2  0
  1  8  1  0
  2  4  1  0
  2  8  2  0
  3  9  1  0
  4  9  2  0
  5  6  2  0
  5 10  1  0
  6 21  1  0
  7 10  2  0
  7 21  1  0
  8 12  1  0
  9 16  1  0
 10 17  1  0
 11 13  1  0
 11 18  1  0
 12 14  1  0
 12 18  1  0
 13 15  1  0
 13 17  1  0
 14 15  1  0
 14 19  1  0
 15 20  1  0
M  END
