MAK-UNK-516d8086-8
     RDKit          3D

 22 24  0  0  0  0  0  0  0  0999 V2000
    7.5771    0.1870   19.2621 C   0  0  0  0  0  0  0  0  0  0  0  0
   10.9208    0.3576   24.4868 C   0  0  0  0  0  0  0  0  0  0  0  0
    9.8745   -0.5582   24.3321 C   0  0  0  0  0  0  0  0  0  0  0  0
    8.1677   -1.1722   21.2159 C   0  0  0  0  0  0  0  0  0  0  0  0
   11.0608   -1.7050   22.5387 C   0  0  0  0  0  0  0  0  0  0  0  0
    6.2515   -1.7579   19.9346 C   0  0  0  0  0  0  0  0  0  0  0  0
    7.3313   -0.9133   20.1358 C   0  0  0  0  0  0  0  0  0  0  0  0
   12.0789   -0.7883   22.7122 C   0  0  0  0  0  0  0  0  0  0  0  0
   12.0244    0.2303   23.6649 C   0  0  0  0  0  0  0  0  0  0  0  0
    9.9442   -1.5800   23.3668 C   0  0  0  0  0  0  0  0  0  0  0  0
    7.9026   -2.2526   22.0500 C   0  0  0  0  0  0  0  0  0  0  0  0
    6.7972   -3.0372   21.7632 C   0  0  0  0  0  0  0  0  0  0  0  0
   13.3537   -0.6762   21.9971 C   0  0  0  0  0  0  0  0  0  0  0  0
   13.2639    1.0548   23.6140 C   0  0  0  0  0  0  0  0  0  0  0  0
    4.9332   -5.1185   24.4276 C   0  0  0  0  0  0  0  0  0  0  0  0
    8.8099   -2.5402   23.2287 C   0  0  0  0  0  0  0  0  0  0  0  0
    6.4634   -4.2101   22.6256 C   0  0  0  0  0  0  0  0  0  0  0  0
    5.2934   -3.9127   23.5743 C   0  0  0  0  0  0  0  0  0  0  0  0
    7.7771    1.0822   18.5512 N   0  0  0  0  0  0  0  0  0  0  0  0
    5.9619   -2.8170   20.7233 N   0  0  0  0  0  0  0  0  0  0  0  0
   14.0156    0.4113   22.5531 N   0  0  0  0  0  0  0  0  0  0  0  0
   13.7147   -1.4151   21.1004 O   0  0  0  0  0  0  0  0  0  0  0  0
  1  7  1  0
  1 19  3  0
  2  3  2  0
  2  9  1  0
  3 10  1  0
  4  7  2  0
  4 11  1  0
  5  8  1  0
  5 10  2  0
  6  7  1  0
  6 20  2  0
  8  9  2  0
  8 13  1  0
  9 14  1  0
 10 16  1  0
 11 12  2  0
 11 16  1  0
 12 17  1  0
 12 20  1  0
 13 21  1  0
 13 22  2  0
 14 21  1  0
 15 18  1  0
 17 18  1  0
M  END
