MAK-UNK-2084232d-4
     RDKit          3D

 22 24  0  0  1  0  0  0  0  0999 V2000
    7.4078   -5.9067   22.4479 C   0  0  0  0  0  0  0  0  0  0  0  0
    6.3563   -5.6329   21.5715 C   0  0  0  0  0  0  0  0  0  0  0  0
    8.3325   -4.9093   22.7932 C   0  0  0  0  0  0  0  0  0  0  0  0
    8.2095   -3.6377   22.2015 C   0  0  0  0  0  0  0  0  0  0  0  0
    6.2204   -4.3628   21.0192 C   0  0  0  0  0  0  0  0  0  0  0  0
    7.1431   -3.3673   21.3326 C   0  0  0  0  0  0  0  0  0  0  0  0
    9.1935   -2.5482   22.5379 C   0  0  0  0  0  0  0  0  0  0  0  0
   10.6453   -0.9672   24.3235 C   0  0  0  0  0  0  0  0  0  0  0  0
   12.4987   -2.6473   24.5145 C   0  0  0  0  0  0  0  0  0  0  0  0
   11.5949    0.0486   24.9456 C   0  0  0  0  0  0  0  0  0  0  0  0
    9.4954   -5.2034   23.7248 C   0  0  0  0  0  0  0  0  0  0  0  0
   11.4284   -2.0592   23.5866 C   0  0  0  0  0  0  0  0  0  0  0  0
   10.4973   -3.1445   23.0652 C   0  0  0  0  0  0  0  0  0  0  0  0
   13.3557   -1.5336   25.1229 C   0  0  0  0  0  0  0  0  0  0  0  0
   15.1775   -1.0192   26.7553 C   0  0  0  0  0  0  0  0  0  0  0  0
    9.0812   -5.9261   25.0054 C   0  0  0  0  0  0  0  0  0  0  0  0
   14.3552   -2.0966   26.1239 C   0  0  0  0  0  0  0  0  0  0  0  0
   10.2904   -6.1949   25.8095 N   0  0  0  0  0  0  0  0  0  0  0  0
   12.5264   -0.5944   25.8145 O   0  0  0  0  0  0  0  0  0  0  0  0
   10.1796   -4.0133   24.1541 O   0  0  0  0  0  0  0  0  0  0  0  0
    5.1848   -4.1094   20.1713 O   0  0  0  0  0  0  0  0  0  0  0  0
    6.9955   -2.1259   20.7843 O   0  0  0  0  0  0  0  0  0  0  0  0
  1  2  2  0
  1  3  1  0
  2  5  1  0
  3  4  2  0
  3 11  1  0
  4  6  1  0
  4  7  1  0
  5  6  2  0
  5 21  1  0
  6 22  1  0
  7 13  1  0
  8 10  1  0
  8 12  1  0
  9 12  1  0
  9 14  1  0
 10 19  1  0
 11 16  1  0
 11 20  1  0
 12 13  1  0
 13 20  1  0
 14 17  1  0
 14 19  1  0
 15 17  1  0
 16 18  1  0
M  CHG  1  18   1
M  END
