MAK-UNK-2c1752f0-3
     RDKit          3D

  7  7  0  0  0  0  0  0  0  0999 V2000
    7.2574    0.0800   20.1000 C   0  0  0  0  0  0  0  0  0  0  0  0
    6.0554    0.7330   20.3493 C   0  0  0  0  0  0  0  0  0  0  0  0
    7.6894   -0.0042   18.7862 C   0  0  0  0  0  0  0  0  0  0  0  0
    5.8506    1.1366   18.0144 C   0  0  0  0  0  0  0  0  0  0  0  0
    5.3323    1.2741   19.2921 C   0  0  0  0  0  0  0  0  0  0  0  0
    7.0146    0.5091   17.7332 N   0  0  0  0  0  0  0  0  0  0  0  0
    3.7006    2.1656   19.5884 Br  0  0  0  0  0  0  0  0  0  0  0  0
  1  2  2  0
  1  3  1  0
  2  5  1  0
  3  6  2  0
  4  5  2  0
  4  6  1  0
  5  7  1  0
M  END
