MAK-UNK-0955449e-29
     RDKit          3D

 24 26  0  0  0  0  0  0  0  0999 V2000
   14.0805   -1.7237   22.6601 C   0  0  0  0  0  0  0  0  0  0  0  0
   14.2935   -0.6311   23.5007 C   0  0  0  0  0  0  0  0  0  0  0  0
    6.0260    1.0092   19.4119 C   0  0  0  0  0  0  0  0  0  0  0  0
   12.7821   -2.1659   22.4066 C   0  0  0  0  0  0  0  0  0  0  0  0
   13.2082    0.0192   24.0878 C   0  0  0  0  0  0  0  0  0  0  0  0
    6.9117    0.9237   20.4803 C   0  0  0  0  0  0  0  0  0  0  0  0
    9.7818   -3.2408   22.9878 C   0  0  0  0  0  0  0  0  0  0  0  0
    6.5194    0.7695   18.1396 C   0  0  0  0  0  0  0  0  0  0  0  0
    8.6391    0.3837   18.9373 C   0  0  0  0  0  0  0  0  0  0  0  0
   11.6967   -1.5156   22.9937 C   0  0  0  0  0  0  0  0  0  0  0  0
   10.3614   -1.9741   22.7296 C   0  0  0  0  0  0  0  0  0  0  0  0
   11.9097   -0.4230   23.8343 C   0  0  0  0  0  0  0  0  0  0  0  0
    8.2450    0.6056   20.2470 C   0  0  0  0  0  0  0  0  0  0  0  0
    8.4733   -3.1892   22.5606 C   0  0  0  0  0  0  0  0  0  0  0  0
    9.3893   -1.1870   22.1526 C   0  0  0  0  0  0  0  0  0  0  0  0
    5.3375   -5.0464   23.6983 C   0  0  0  0  0  0  0  0  0  0  0  0
    7.4107   -4.2112   22.5833 C   0  0  0  0  0  0  0  0  0  0  0  0
    7.8077    0.4578   17.8738 N   0  0  0  0  0  0  0  0  0  0  0  0
    8.2458   -1.9359   22.0551 N   0  0  0  0  0  0  0  0  0  0  0  0
    6.3745   -3.9875   23.6387 N   0  0  0  0  0  0  0  0  0  0  0  0
   10.6980    0.7590   20.9960 O   0  0  0  0  0  0  0  0  0  0  0  0
    8.9026    1.2786   22.6865 O   0  0  0  0  0  0  0  0  0  0  0  0
   10.8770    0.2130   24.4067 F   0  0  0  0  0  0  0  0  0  0  0  0
    9.3986    0.4880   21.5776 S   0  0  0  0  0  0  0  0  0  0  0  0
  1  2  2  0
  1  4  1  0
  2  5  1  0
  3  6  2  0
  3  8  1  0
  4 10  2  0
  5 12  2  0
  6 13  1  0
  7 11  1  0
  7 14  2  0
  8 18  2  0
  9 13  2  0
  9 18  1  0
 10 11  1  0
 10 12  1  0
 11 15  2  0
 12 23  1  0
 13 24  1  0
 14 17  1  0
 14 19  1  0
 15 19  1  0
 15 24  1  0
 16 20  1  0
 17 20  1  0
 21 24  2  0
 22 24  2  0
M  CHG  1  20   1
M  END
