MAK-UNK-60abb798-9
     RDKit          3D

 22 24  0  0  1  0  0  0  0  0999 V2000
    7.6638   -6.0795   22.2407 C   0  0  0  0  0  0  0  0  0  0  0  0
    6.6406   -5.8301   21.3244 C   0  0  0  0  0  0  0  0  0  0  0  0
    8.4048   -5.0241   22.7938 C   0  0  0  0  0  0  0  0  0  0  0  0
    8.1303   -3.7094   22.3712 C   0  0  0  0  0  0  0  0  0  0  0  0
    6.3511   -4.5245   20.9393 C   0  0  0  0  0  0  0  0  0  0  0  0
    7.0925   -3.4665   21.4605 C   0  0  0  0  0  0  0  0  0  0  0  0
    8.9167   -2.5542   22.9330 C   0  0  0  0  0  0  0  0  0  0  0  0
   11.9984    0.3841   24.0013 C   0  0  0  0  0  0  0  0  0  0  0  0
   11.2144   -0.7175   23.2949 C   0  0  0  0  0  0  0  0  0  0  0  0
   13.3051   -0.1374   24.5797 C   0  0  0  0  0  0  0  0  0  0  0  0
   12.3042   -2.4273   24.7979 C   0  0  0  0  0  0  0  0  0  0  0  0
    9.5374   -5.2858   23.7713 C   0  0  0  0  0  0  0  0  0  0  0  0
   10.9822   -1.9166   24.2216 C   0  0  0  0  0  0  0  0  0  0  0  0
   10.2592   -3.0334   23.4822 C   0  0  0  0  0  0  0  0  0  0  0  0
   13.9003   -2.8780   27.1670 C   0  0  0  0  0  0  0  0  0  0  0  0
    9.1561   -6.2381   24.9033 C   0  0  0  0  0  0  0  0  0  0  0  0
   14.2624   -1.7736   26.1983 C   0  0  0  0  0  0  0  0  0  0  0  0
   13.0169   -1.2964   25.5030 N   0  0  0  0  0  0  0  0  0  0  0  0
   10.3387   -6.4501   25.7621 N   0  0  0  0  0  0  0  0  0  0  0  0
   10.0070   -4.0874   24.4133 O   0  0  0  0  0  0  0  0  0  0  0  0
    5.3449   -4.2970   20.0497 O   0  0  0  0  0  0  0  0  0  0  0  0
    6.7955   -2.1913   21.0745 O   0  0  0  0  0  0  0  0  0  0  0  0
  1  2  2  0
  1  3  1  0
  2  5  1  0
  3  4  2  0
  3 12  1  0
  4  6  1  0
  4  7  1  0
  5  6  2  0
  5 21  1  0
  6 22  1  0
  7 14  1  0
  8  9  1  0
  8 10  1  0
  9 13  1  0
 10 18  1  0
 11 13  1  0
 11 18  1  0
 12 16  1  0
 12 20  1  0
 13 14  1  0
 14 20  1  0
 15 17  1  0
 16 19  1  0
 17 18  1  0
M  CHG  2  18   1  19   1
M  END
