MAK-UNK-ae34c249-7
     RDKit          3D

 29 32  0  0  1  0  0  0  0  0999 V2000
    3.9255   -7.6066   24.3284 C   0  0  0  0  0  0  0  0  0  0  0  0
    9.4191   -0.1889   24.3535 C   0  0  0  0  0  0  0  0  0  0  0  0
   10.7692   -1.0047   22.5236 C   0  0  0  0  0  0  0  0  0  0  0  0
    4.9553   -6.8896   23.7295 C   0  0  0  0  0  0  0  0  0  0  0  0
    8.6886   -1.3771   24.3443 C   0  0  0  0  0  0  0  0  0  0  0  0
   10.0388   -2.1929   22.5144 C   0  0  0  0  0  0  0  0  0  0  0  0
    3.6692   -7.3753   25.6703 C   0  0  0  0  0  0  0  0  0  0  0  0
    5.3518   -5.8177   25.8152 C   0  0  0  0  0  0  0  0  0  0  0  0
   10.4594   -0.0026   23.4431 C   0  0  0  0  0  0  0  0  0  0  0  0
    8.9984   -2.3792   23.4247 C   0  0  0  0  0  0  0  0  0  0  0  0
    5.6871   -5.9761   24.4801 C   0  0  0  0  0  0  0  0  0  0  0  0
   11.2141    1.2253   23.4523 C   0  0  0  0  0  0  0  0  0  0  0  0
   11.9874    3.4350   23.7453 C   0  0  0  0  0  0  0  0  0  0  0  0
    8.8389    7.6179   23.9642 C   0  0  0  0  0  0  0  0  0  0  0  0
    9.7667    7.7650   24.9183 C   0  0  0  0  0  0  0  0  0  0  0  0
    7.1865   -3.9471   24.2477 C   0  0  0  0  0  0  0  0  0  0  0  0
    8.9535    6.5854   22.8816 C   0  0  0  0  0  0  0  0  0  0  0  0
   10.9731    6.8885   25.0005 C   0  0  0  0  0  0  0  0  0  0  0  0
   10.3480    5.9698   22.7613 C   0  0  0  0  0  0  0  0  0  0  0  0
   12.1678    4.8835   24.0922 C   0  0  0  0  0  0  0  0  0  0  0  0
    4.3583   -6.4962   26.4318 N   0  0  0  0  0  0  0  0  0  0  0  0
   12.4125    1.3952   22.9356 N   0  0  0  0  0  0  0  0  0  0  0  0
   12.8665    2.6911   23.1084 N   0  0  0  0  0  0  0  0  0  0  0  0
    8.2678   -3.5677   23.4154 N   0  0  0  0  0  0  0  0  0  0  0  0
    6.7407   -5.2321   23.8987 N   0  0  0  0  0  0  0  0  0  0  0  0
   10.8732    5.6431   24.1389 N   0  0  0  0  0  0  0  0  0  0  0  0
    6.7141   -3.2503   25.1401 O   0  0  0  0  0  0  0  0  0  0  0  0
    9.5913    8.7222   25.8558 F   0  0  0  0  0  0  0  0  0  0  0  0
   10.5425    2.6228   24.1856 S   0  0  0  0  0  0  0  0  0  0  0  0
  1  4  2  0
  1  7  1  0
  2  5  2  0
  2  9  1  0
  3  6  1  0
  3  9  2  0
  4 11  1  0
  5 10  1  0
  6 10  2  0
  7 21  2  0
  8 11  2  0
  8 21  1  0
  9 12  1  0
 10 24  1  0
 11 25  1  0
 12 22  2  0
 12 29  1  0
 13 20  1  0
 13 23  2  0
 13 29  1  0
 14 15  2  0
 14 17  1  0
 15 18  1  0
 15 28  1  0
 16 24  1  0
 16 25  1  0
 16 27  2  0
 17 19  1  0
 18 26  1  0
 19 26  1  0
 20 26  1  0
 22 23  1  0
M  CHG  1  26   1
M  END
