MAK-UNK-acefcb18-30
     RDKit          3D

 45 50  0  0  0  0  0  0  0  0999 V2000
    9.2847   -2.3267   25.3725 C   0  0  0  0  0  0  0  0  0  0  0  0
    8.4720   -4.6569   26.9101 C   0  0  0  0  0  0  0  0  0  0  0  0
   10.4224   -4.2643   28.2807 C   0  0  0  0  0  0  0  0  0  0  0  0
    9.7584   -1.4130   24.4303 C   0  0  0  0  0  0  0  0  0  0  0  0
    7.9945   -5.5693   27.8508 C   0  0  0  0  0  0  0  0  0  0  0  0
    9.9450   -5.1768   29.2215 C   0  0  0  0  0  0  0  0  0  0  0  0
    8.6030    8.3694   26.3480 C   0  0  0  0  0  0  0  0  0  0  0  0
   11.5550   -2.8785   25.9877 C   0  0  0  0  0  0  0  0  0  0  0  0
    7.7993    8.2392   27.4592 C   0  0  0  0  0  0  0  0  0  0  0  0
    6.6614    7.5069   25.4053 C   0  0  0  0  0  0  0  0  0  0  0  0
    9.6860   -4.0043   27.1250 C   0  0  0  0  0  0  0  0  0  0  0  0
   10.1812   -3.0580   26.1496 C   0  0  0  0  0  0  0  0  0  0  0  0
   11.1364   -1.2294   24.2643 C   0  0  0  0  0  0  0  0  0  0  0  0
   12.0328   -1.9625   25.0435 C   0  0  0  0  0  0  0  0  0  0  0  0
    7.9438    7.9453   25.1581 C   0  0  0  0  0  0  0  0  0  0  0  0
    8.7310   -5.8293   29.0065 C   0  0  0  0  0  0  0  0  0  0  0  0
   13.9432   -0.8019   23.8708 C   0  0  0  0  0  0  0  0  0  0  0  0
   11.6261   -0.2596   23.2637 C   0  0  0  0  0  0  0  0  0  0  0  0
   13.4854   -1.7790   24.8795 C   0  0  0  0  0  0  0  0  0  0  0  0
   13.0976   -0.0913   23.1158 C   0  0  0  0  0  0  0  0  0  0  0  0
   13.6504    2.2827   22.6558 C   0  0  0  0  0  0  0  0  0  0  0  0
   12.9286    3.3093   22.1909 C   0  0  0  0  0  0  0  0  0  0  0  0
    6.5046   -7.2493   31.4610 C   0  0  0  0  0  0  0  0  0  0  0  0
   12.0077    6.7778   22.6148 C   0  0  0  0  0  0  0  0  0  0  0  0
   10.7661    4.8446   23.6395 C   0  0  0  0  0  0  0  0  0  0  0  0
    4.7243   -7.8022   33.0877 C   0  0  0  0  0  0  0  0  0  0  0  0
    4.0606   -7.3285   30.7621 C   0  0  0  0  0  0  0  0  0  0  0  0
   10.7198    7.5859   22.5853 C   0  0  0  0  0  0  0  0  0  0  0  0
    9.4810    5.6572   23.6078 C   0  0  0  0  0  0  0  0  0  0  0  0
    3.6573   -6.8501   33.6078 C   0  0  0  0  0  0  0  0  0  0  0  0
    2.9816   -6.3701   31.2476 C   0  0  0  0  0  0  0  0  0  0  0  0
   11.7360    5.2780   22.5433 C   0  0  0  0  0  0  0  0  0  0  0  0
    1.3792   -5.9533   33.1168 C   0  0  0  0  0  0  0  0  0  0  0  0
    8.5746    7.9729   23.7971 C   0  0  0  0  0  0  0  0  0  0  0  0
   13.5701    0.8981   22.0945 C   0  0  0  0  0  0  0  0  0  0  0  0
    6.8583   -6.8613   30.0475 C   0  0  0  0  0  0  0  0  0  0  0  0
    5.1502   -7.4283   31.7390 N   0  0  0  0  0  0  0  0  0  0  0  0
    2.5139   -6.8036   32.6190 N   0  0  0  0  0  0  0  0  0  0  0  0
    9.8151    7.1274   23.7052 N   0  0  0  0  0  0  0  0  0  0  0  0
   10.8394    0.3842   22.5785 O   0  0  0  0  0  0  0  0  0  0  0  0
   14.2950   -2.4083   25.5495 O   0  0  0  0  0  0  0  0  0  0  0  0
    7.4060   -7.3860   32.2922 O   0  0  0  0  0  0  0  0  0  0  0  0
    8.2600   -6.7280   29.9337 O   0  0  0  0  0  0  0  0  0  0  0  0
   12.9689    4.5827   22.6894 O   0  0  0  0  0  0  0  0  0  0  0  0
    6.2568    7.6079   27.0661 S   0  0  0  0  0  0  0  0  0  0  0  0
  1  4  2  0
  1 12  1  0
  2  5  2  0
  2 11  1  0
  3  6  1  0
  3 11  2  0
  4 13  1  0
  5 16  1  0
  6 16  2  0
  7  9  2  0
  7 15  1  0
  8 12  2  0
  8 14  1  0
  9 45  1  0
 10 15  2  0
 10 45  1  0
 11 12  1  0
 13 14  2  0
 13 18  1  0
 14 19  1  0
 15 34  1  0
 16 43  1  0
 17 19  1  0
 17 20  2  0
 18 20  1  0
 18 40  2  0
 19 41  2  0
 20 35  1  0
 21 22  2  0
 21 35  1  0
 22 44  1  0
 23 36  1  0
 23 37  1  0
 23 42  2  0
 24 28  1  0
 24 32  1  0
 25 29  1  0
 25 32  1  0
 26 30  1  0
 26 37  1  0
 27 31  1  0
 27 37  1  0
 28 39  1  0
 29 39  1  0
 30 38  1  0
 31 38  1  0
 32 44  1  0
 33 38  1  0
 34 39  1  0
 36 43  1  0
M  CHG  2  38   1  39   1
M  END
