MAK-UNK-6435e6c2-8
     RDKit          3D

 11 11  0  0  0  0  0  0  0  0999 V2000
    4.8165    0.8781   19.2824 C   0  0  0  0  0  0  0  0  0  0  0  0
    5.6256    0.7351   18.1668 C   0  0  0  0  0  0  0  0  0  0  0  0
    7.1744   -0.4939   19.3369 C   0  0  0  0  0  0  0  0  0  0  0  0
    5.2376    0.2926   20.4712 C   0  0  0  0  0  0  0  0  0  0  0  0
    6.4380   -0.4082   20.5074 C   0  0  0  0  0  0  0  0  0  0  0  0
    8.0826   -1.7460   21.8602 C   0  0  0  0  0  0  0  0  0  0  0  0
    4.3851    0.4316   21.6896 C   0  0  0  0  0  0  0  0  0  0  0  0
    8.2204   -2.2356   23.2800 C   0  0  0  0  0  0  0  0  0  0  0  0
    6.7979    0.0617   18.1634 N   0  0  0  0  0  0  0  0  0  0  0  0
    6.9023   -1.0130   21.6752 N   0  0  0  0  0  0  0  0  0  0  0  0
    8.9438   -1.9960   21.0232 O   0  0  0  0  0  0  0  0  0  0  0  0
  1  2  2  0
  1  4  1  0
  2  9  1  0
  3  5  1  0
  3  9  2  0
  4  5  2  0
  4  7  1  0
  5 10  1  0
  6  8  1  0
  6 10  1  0
  6 11  2  0
M  END
