MAK-UNK-2c1752f0-4
     RDKit          3D

 10 10  0  0  0  0  0  0  0  0999 V2000
    6.2217    0.8370   19.7269 C   0  0  0  0  0  0  0  0  0  0  0  0
    7.1669    0.5791   20.7134 C   0  0  0  0  0  0  0  0  0  0  0  0
    6.5726    0.5843   18.4105 C   0  0  0  0  0  0  0  0  0  0  0  0
    8.6692   -0.1359   19.0139 C   0  0  0  0  0  0  0  0  0  0  0  0
    8.4166    0.0833   20.3585 C   0  0  0  0  0  0  0  0  0  0  0  0
    8.9501   -2.3756   22.3044 C   0  0  0  0  0  0  0  0  0  0  0  0
   11.2736   -1.4068   22.2111 C   0  0  0  0  0  0  0  0  0  0  0  0
    9.9329   -1.5343   21.5029 C   0  0  0  0  0  0  0  0  0  0  0  0
    7.7763    0.1028   18.0272 N   0  0  0  0  0  0  0  0  0  0  0  0
    9.3635   -0.1792   21.3048 N   0  0  0  0  0  0  0  0  0  0  0  0
  1  2  2  0
  1  3  1  0
  2  5  1  0
  3  9  2  0
  4  5  2  0
  4  9  1  0
  5 10  1  0
  6  8  1  0
  7  8  1  0
  8 10  1  0
M  END
