MAK-UNK-10572812-11
     RDKit          3D

 34 38  0  0  0  0  0  0  0  0999 V2000
    5.9541   -6.1571   22.8835 C   0  0  0  0  0  0  0  0  0  0  0  0
    5.9597   -4.8486   23.3632 C   0  0  0  0  0  0  0  0  0  0  0  0
   13.7006    0.0831   22.1508 C   0  0  0  0  0  0  0  0  0  0  0  0
   13.1436   -1.1925   22.2796 C   0  0  0  0  0  0  0  0  0  0  0  0
    4.9176   -7.0014   23.2584 C   0  0  0  0  0  0  0  0  0  0  0  0
   12.3000    3.1943   23.3653 C   0  0  0  0  0  0  0  0  0  0  0  0
    3.3712   -3.5182   25.5700 C   0  0  0  0  0  0  0  0  0  0  0  0
    4.9077   -4.4547   24.2059 C   0  0  0  0  0  0  0  0  0  0  0  0
   11.7664    0.9978   23.3509 C   0  0  0  0  0  0  0  0  0  0  0  0
   11.3433    2.2910   23.7675 C   0  0  0  0  0  0  0  0  0  0  0  0
    4.5418   -3.2643   24.8882 C   0  0  0  0  0  0  0  0  0  0  0  0
   12.9894    1.1579   22.6961 C   0  0  0  0  0  0  0  0  0  0  0  0
   11.2245   -0.2976   23.4685 C   0  0  0  0  0  0  0  0  0  0  0  0
   11.9247   -1.3822   22.9279 C   0  0  0  0  0  0  0  0  0  0  0  0
    3.9335   -5.4040   24.5007 C   0  0  0  0  0  0  0  0  0  0  0  0
    6.5163   -2.0056   25.7474 C   0  0  0  0  0  0  0  0  0  0  0  0
    9.3024    5.7286   23.5751 C   0  0  0  0  0  0  0  0  0  0  0  0
   10.0086   -1.4245   25.2822 C   0  0  0  0  0  0  0  0  0  0  0  0
    8.7564   -0.4977   23.3346 C   0  0  0  0  0  0  0  0  0  0  0  0
    8.7975   -1.1422   26.1683 C   0  0  0  0  0  0  0  0  0  0  0  0
    7.5640   -0.2340   24.2538 C   0  0  0  0  0  0  0  0  0  0  0  0
    9.8337    6.8533   22.7499 C   0  0  0  0  0  0  0  0  0  0  0  0
    5.2862   -1.9629   24.8767 C   0  0  0  0  0  0  0  0  0  0  0  0
   10.1052    2.6290   24.4995 C   0  0  0  0  0  0  0  0  0  0  0  0
    9.0098    3.2599   23.6211 C   0  0  0  0  0  0  0  0  0  0  0  0
    3.8808   -6.6771   24.0655 N   0  0  0  0  0  0  0  0  0  0  0  0
   13.2887    2.5014   22.7198 N   0  0  0  0  0  0  0  0  0  0  0  0
    3.0117   -4.8187   25.3282 N   0  0  0  0  0  0  0  0  0  0  0  0
   10.0036   -0.5339   24.1105 N   0  0  0  0  0  0  0  0  0  0  0  0
    7.5658   -1.1653   25.3835 N   0  0  0  0  0  0  0  0  0  0  0  0
    9.4503    4.4783   22.9965 N   0  0  0  0  0  0  0  0  0  0  0  0
    6.5423   -2.7645   26.7196 O   0  0  0  0  0  0  0  0  0  0  0  0
    8.7928    5.9664   24.6639 O   0  0  0  0  0  0  0  0  0  0  0  0
   11.4260   -2.6233   23.0302 F   0  0  0  0  0  0  0  0  0  0  0  0
  1  2  2  0
  1  5  1  0
  2  8  1  0
  3  4  2  0
  3 12  1  0
  4 14  1  0
  5 26  2  0
  6 10  2  0
  6 27  1  0
  7 11  2  0
  7 28  1  0
  8 11  1  0
  8 15  2  0
  9 10  1  0
  9 12  2  0
  9 13  1  0
 10 24  1  0
 11 23  1  0
 12 27  1  0
 13 14  2  0
 13 29  1  0
 14 34  1  0
 15 26  1  0
 15 28  1  0
 16 23  1  0
 16 30  1  0
 16 32  2  0
 17 22  1  0
 17 31  1  0
 17 33  2  0
 18 20  1  0
 18 29  1  0
 19 21  1  0
 19 29  1  0
 20 30  1  0
 21 30  1  0
 24 25  1  0
 25 31  1  0
M  END
