MAK-UNK-b1d4dcd7-7
     RDKit          3D

 29 32  0  0  1  0  0  0  0  0999 V2000
   13.9833    0.2533   22.4582 C   0  0  0  0  0  0  0  0  0  0  0  0
   13.7433    0.7739   23.7297 C   0  0  0  0  0  0  0  0  0  0  0  0
   12.9790    0.2849   21.4906 C   0  0  0  0  0  0  0  0  0  0  0  0
    7.8480   -5.8154   27.0913 C   0  0  0  0  0  0  0  0  0  0  0  0
   12.4990    1.3260   24.0339 C   0  0  0  0  0  0  0  0  0  0  0  0
   11.7347    0.8370   21.7948 C   0  0  0  0  0  0  0  0  0  0  0  0
    8.4762   -5.3781   25.8896 C   0  0  0  0  0  0  0  0  0  0  0  0
    6.5490   -5.3674   27.1888 C   0  0  0  0  0  0  0  0  0  0  0  0
   11.4947    1.3576   23.0664 C   0  0  0  0  0  0  0  0  0  0  0  0
    7.6332   -4.6126   25.1141 C   0  0  0  0  0  0  0  0  0  0  0  0
    9.0018    1.3367   22.6318 C   0  0  0  0  0  0  0  0  0  0  0  0
   11.5624    5.5003   23.4052 C   0  0  0  0  0  0  0  0  0  0  0  0
   10.4258    6.2473   24.0914 C   0  0  0  0  0  0  0  0  0  0  0  0
    7.2560   -0.4145   22.5487 C   0  0  0  0  0  0  0  0  0  0  0  0
    8.6910   -0.3050   24.5491 C   0  0  0  0  0  0  0  0  0  0  0  0
   11.4950    4.0098   23.6892 C   0  0  0  0  0  0  0  0  0  0  0  0
    7.4936   -1.9132   22.4350 C   0  0  0  0  0  0  0  0  0  0  0  0
    8.9489   -1.8034   24.4667 C   0  0  0  0  0  0  0  0  0  0  0  0
    9.0676    5.6637   23.7111 C   0  0  0  0  0  0  0  0  0  0  0  0
    8.9895    4.1498   23.9751 C   0  0  0  0  0  0  0  0  0  0  0  0
    7.6529    3.5785   23.4993 C   0  0  0  0  0  0  0  0  0  0  0  0
    7.9114   -3.9707   23.7869 C   0  0  0  0  0  0  0  0  0  0  0  0
   10.1449    1.9560   23.3956 C   0  0  0  0  0  0  0  0  0  0  0  0
    8.3719    0.2448   23.2272 N   0  0  0  0  0  0  0  0  0  0  0  0
    7.7621   -2.4755   23.8131 N   0  0  0  0  0  0  0  0  0  0  0  0
   10.1503    3.4593   23.2557 N   0  0  0  0  0  0  0  0  0  0  0  0
    8.6815    1.8090   21.5380 O   0  0  0  0  0  0  0  0  0  0  0  0
    8.8024    5.9277   22.3335 O   0  0  0  0  0  0  0  0  0  0  0  0
    6.0916   -4.4236   25.8352 S   0  0  0  0  0  0  0  0  0  0  0  0
  1  2  2  0
  1  3  1  0
  2  5  1  0
  3  6  2  0
  4  7  1  0
  4  8  2  0
  5  9  2  0
  6  9  1  0
  7 10  2  0
  8 29  1  0
  9 23  1  0
 10 22  1  0
 10 29  1  0
 11 23  1  0
 11 24  1  0
 11 27  2  0
 12 13  1  0
 12 16  1  0
 13 19  1  0
 14 17  1  0
 14 24  1  0
 15 18  1  0
 15 24  1  0
 16 26  1  0
 17 25  1  0
 18 25  1  0
 19 20  1  0
 19 28  1  0
 20 21  1  0
 20 26  1  0
 22 25  1  0
 23 26  1  0
M  CHG  2  25   1  26   1
M  END
