MAK-UNK-37f1d6fa-3
     RDKit          3D

 31 34  0  0  0  0  0  0  0  0999 V2000
    4.5803   -0.5622   18.6760 C   0  0  0  0  0  0  0  0  0  0  0  0
    3.6314    0.4389   18.8837 C   0  0  0  0  0  0  0  0  0  0  0  0
    5.8662   -0.4236   19.1984 C   0  0  0  0  0  0  0  0  0  0  0  0
    9.1160   -1.0708   22.7497 C   0  0  0  0  0  0  0  0  0  0  0  0
    3.9685    1.5786   19.6138 C   0  0  0  0  0  0  0  0  0  0  0  0
    6.2033    0.7161   19.9285 C   0  0  0  0  0  0  0  0  0  0  0  0
    8.3315   -0.6786   23.8382 C   0  0  0  0  0  0  0  0  0  0  0  0
   10.0427    0.8735   24.5863 C   0  0  0  0  0  0  0  0  0  0  0  0
    9.0116    4.5795   22.9826 C   0  0  0  0  0  0  0  0  0  0  0  0
    9.6242    6.5057   24.2360 C   0  0  0  0  0  0  0  0  0  0  0  0
    7.4861    6.3535   23.4093 C   0  0  0  0  0  0  0  0  0  0  0  0
   12.4165    0.1552   21.9012 C   0  0  0  0  0  0  0  0  0  0  0  0
   10.8514    0.4940   23.4966 C   0  0  0  0  0  0  0  0  0  0  0  0
    9.9777    5.2792   23.6969 C   0  0  0  0  0  0  0  0  0  0  0  0
   12.1432    0.8778   23.0397 C   0  0  0  0  0  0  0  0  0  0  0  0
   10.3703   -0.4674   22.6053 C   0  0  0  0  0  0  0  0  0  0  0  0
    5.2545    1.7173   20.1362 C   0  0  0  0  0  0  0  0  0  0  0  0
    7.7395    5.1200   22.8313 C   0  0  0  0  0  0  0  0  0  0  0  0
    8.7857    0.2784   24.7435 C   0  0  0  0  0  0  0  0  0  0  0  0
   11.3459    4.7290   23.8770 C   0  0  0  0  0  0  0  0  0  0  0  0
    6.8285    3.1847   21.4734 C   0  0  0  0  0  0  0  0  0  0  0  0
   13.0377    1.8727   23.6659 C   0  0  0  0  0  0  0  0  0  0  0  0
   13.0805    3.2263   22.9341 C   0  0  0  0  0  0  0  0  0  0  0  0
    8.3989    7.0628   24.1101 N   0  0  0  0  0  0  0  0  0  0  0  0
   11.3412   -0.6532   21.6470 N   0  0  0  0  0  0  0  0  0  0  0  0
    5.5961    2.8734   20.8769 N   0  0  0  0  0  0  0  0  0  0  0  0
    6.7502    4.4428   22.1226 N   0  0  0  0  0  0  0  0  0  0  0  0
   11.7896    3.8591   22.8885 N   0  0  0  0  0  0  0  0  0  0  0  0
   11.9929    5.0436   24.8725 O   0  0  0  0  0  0  0  0  0  0  0  0
    7.8306    2.4776   21.4421 O   0  0  0  0  0  0  0  0  0  0  0  0
    8.0101    0.6347   25.7765 F   0  0  0  0  0  0  0  0  0  0  0  0
  1  2  2  0
  1  3  1  0
  2  5  1  0
  3  6  2  0
  4  7  2  0
  4 16  1  0
  5 17  2  0
  6 17  1  0
  7 19  1  0
  8 13  1  0
  8 19  2  0
  9 14  2  0
  9 18  1  0
 10 14  1  0
 10 24  2  0
 11 18  2  0
 11 24  1  0
 12 15  2  0
 12 25  1  0
 13 15  1  0
 13 16  2  0
 14 20  1  0
 15 22  1  0
 16 25  1  0
 17 26  1  0
 18 27  1  0
 19 31  1  0
 20 28  1  0
 20 29  2  0
 21 26  1  0
 21 27  1  0
 21 30  2  0
 22 23  1  0
 23 28  1  0
M  END
