MAK-UNK-1cb0e944-7
     RDKit          3D

 20 20  0  0  0  0  0  0  0  0999 V2000
    9.3010    0.7824   21.5356 C   0  0  0  0  0  0  0  0  0  0  0  0
    6.6150    0.2251   19.8368 C   0  0  0  0  0  0  0  0  0  0  0  0
   14.0901   -1.6984   22.5769 C   0  0  0  0  0  0  0  0  0  0  0  0
   13.2889   -0.4976   24.6372 C   0  0  0  0  0  0  0  0  0  0  0  0
   12.6571   -2.0887   22.2503 C   0  0  0  0  0  0  0  0  0  0  0  0
   11.8577   -0.8904   24.3058 C   0  0  0  0  0  0  0  0  0  0  0  0
   14.2945   -1.4997   24.0759 C   0  0  0  0  0  0  0  0  0  0  0  0
    8.4427    1.9559   21.9804 C   0  0  0  0  0  0  0  0  0  0  0  0
    6.9520    1.7306   21.7706 C   0  0  0  0  0  0  0  0  0  0  0  0
   10.2895   -1.3221   22.4152 C   0  0  0  0  0  0  0  0  0  0  0  0
    6.2079   -1.3075   17.6075 N   0  0  0  0  0  0  0  0  0  0  0  0
    9.4999   -0.1239   22.5680 N   0  0  0  0  0  0  0  0  0  0  0  0
    6.6331    1.4866   20.3898 N   0  0  0  0  0  0  0  0  0  0  0  0
   11.7148   -1.0487   22.8101 N   0  0  0  0  0  0  0  0  0  0  0  0
    9.7611    0.6736   20.4022 O   0  0  0  0  0  0  0  0  0  0  0  0
    6.8434   -0.8590   20.3465 O   0  0  0  0  0  0  0  0  0  0  0  0
    4.8228    0.8068   18.1158 O   0  0  0  0  0  0  0  0  0  0  0  0
    7.2748    1.0376   17.5094 O   0  0  0  0  0  0  0  0  0  0  0  0
   15.6185   -1.0283   24.2981 O   0  0  0  0  0  0  0  0  0  0  0  0
    6.1858    0.3160   18.1359 S   0  0  0  0  0  0  0  0  0  0  0  0
  1  8  1  0
  1 12  1  0
  1 15  2  0
  2 13  1  0
  2 16  2  0
  2 20  1  0
  3  5  1  0
  3  7  1  0
  4  6  1  0
  4  7  1  0
  5 14  1  0
  6 14  1  0
  7 19  1  0
  8  9  1  0
  9 13  1  0
 10 12  1  0
 10 14  1  0
 11 20  1  0
 17 20  2  0
 18 20  2  0
M  CHG  1  14   1
M  END
