MAK-UNK-af83ef51-16
     RDKit          3D

 37 39  0  0  1  0  0  0  0  0999 V2000
    9.1250   -0.4917   23.9765 C   0  0  0  0  0  0  0  0  0  0  0  0
    8.1766   -1.1376   23.1835 C   0  0  0  0  0  0  0  0  0  0  0  0
   10.8384   -1.0184   22.3567 C   0  0  0  0  0  0  0  0  0  0  0  0
   10.4559   -0.4320   23.5631 C   0  0  0  0  0  0  0  0  0  0  0  0
    8.5591   -1.7241   21.9771 C   0  0  0  0  0  0  0  0  0  0  0  0
    9.8900   -1.6645   21.5637 C   0  0  0  0  0  0  0  0  0  0  0  0
   13.1545    5.5336   24.1199 C   0  0  0  0  0  0  0  0  0  0  0  0
    6.8407   -3.5498   21.8954 C   0  0  0  0  0  0  0  0  0  0  0  0
   11.7394    3.8172   23.0370 C   0  0  0  0  0  0  0  0  0  0  0  0
   11.7541    3.9199   25.4992 C   0  0  0  0  0  0  0  0  0  0  0  0
   11.9646    2.3128   23.0778 C   0  0  0  0  0  0  0  0  0  0  0  0
   11.9777    2.4157   25.5772 C   0  0  0  0  0  0  0  0  0  0  0  0
    7.1274    1.3364   18.3254 C   0  0  0  0  0  0  0  0  0  0  0  0
    5.7560   -1.1720   18.4943 C   0  0  0  0  0  0  0  0  0  0  0  0
    7.0249    0.6394   19.6760 C   0  0  0  0  0  0  0  0  0  0  0  0
    6.8732   -0.8727   19.4933 C   0  0  0  0  0  0  0  0  0  0  0  0
    5.9077   -0.3613   17.2060 C   0  0  0  0  0  0  0  0  0  0  0  0
   10.3228   -2.2854   20.2761 C   0  0  0  0  0  0  0  0  0  0  0  0
    7.0489   -3.0757   17.5234 C   0  0  0  0  0  0  0  0  0  0  0  0
   11.4758    0.2624   24.4166 C   0  0  0  0  0  0  0  0  0  0  0  0
   13.6585    6.1381   25.4061 C   0  0  0  0  0  0  0  0  0  0  0  0
    7.5262   -2.4112   21.1455 C   0  0  0  0  0  0  0  0  0  0  0  0
   12.2715    4.4613   24.2379 N   0  0  0  0  0  0  0  0  0  0  0  0
    7.5303   -5.4957   24.7176 N   0  0  0  0  0  0  0  0  0  0  0  0
    7.7362   -4.6099   22.2581 N   0  0  0  0  0  0  0  0  0  0  0  0
   11.3731    1.7605   24.3555 N   0  0  0  0  0  0  0  0  0  0  0  0
    5.7854   -2.6253   18.1609 N   0  0  0  0  0  0  0  0  0  0  0  0
   13.5372    6.0002   23.0438 O   0  0  0  0  0  0  0  0  0  0  0  0
    5.6438   -3.5530   22.1625 O   0  0  0  0  0  0  0  0  0  0  0  0
    5.8712   -6.2831   22.9109 O   0  0  0  0  0  0  0  0  0  0  0  0
    8.2675   -7.0566   22.8153 O   0  0  0  0  0  0  0  0  0  0  0  0
    6.0018    1.0342   17.5072 O   0  0  0  0  0  0  0  0  0  0  0  0
    8.2037    0.9291   20.4190 O   0  0  0  0  0  0  0  0  0  0  0  0
    4.7652   -0.5965   16.3863 O   0  0  0  0  0  0  0  0  0  0  0  0
    6.5399   -1.4664   20.7393 O   0  0  0  0  0  0  0  0  0  0  0  0
    7.2856   -6.0285   23.1042 S   0  0  0  0  0  0  0  0  0  0  0  0
   14.7671    7.4288   24.9556 Cl  0  0  0  0  0  0  0  0  0  0  0  0
  1  2  2  0
  1  4  1  0
  2  5  1  0
  3  4  2  0
  3  6  1  0
  4 20  1  0
  5  6  2  0
  5 22  1  0
  6 18  1  0
  7 21  1  0
  7 23  1  0
  7 28  2  0
  8 22  1  0
  8 25  1  0
  8 29  2  0
  9 11  1  0
  9 23  1  0
 10 12  1  0
 10 23  1  0
 11 26  1  0
 12 26  1  0
 13 15  1  0
 13 32  1  0
 14 16  1  0
 14 17  1  0
 14 27  1  0
 15 16  1  0
 15 33  1  0
 16 35  1  0
 17 32  1  0
 17 34  1  0
 19 27  1  0
 20 26  1  0
 21 37  1  0
 22 35  1  0
 24 36  1  0
 25 36  1  0
 30 36  2  0
 31 36  2  0
M  CHG  2  26   1  27   1
M  END
