MAK-UNK-1bb0b7ee-1
     RDKit          3D

 19 21  0  0  0  0  0  0  0  0999 V2000
   12.1715    0.7765   23.6180 C   0  0  0  0  0  0  0  0  0  0  0  0
    4.8489    0.7636   18.9904 C   0  0  0  0  0  0  0  0  0  0  0  0
   13.2646   -0.0121   23.2765 C   0  0  0  0  0  0  0  0  0  0  0  0
    4.9134    1.9177   19.7633 C   0  0  0  0  0  0  0  0  0  0  0  0
   10.8948    0.3947   23.2211 C   0  0  0  0  0  0  0  0  0  0  0  0
    5.8075   -0.2303   19.1538 C   0  0  0  0  0  0  0  0  0  0  0  0
   13.0295   -1.1639   22.5430 C   0  0  0  0  0  0  0  0  0  0  0  0
    5.9480    2.0285   20.6782 C   0  0  0  0  0  0  0  0  0  0  0  0
   10.7658   -0.7752   22.4900 C   0  0  0  0  0  0  0  0  0  0  0  0
    6.8022   -0.0232   20.0959 C   0  0  0  0  0  0  0  0  0  0  0  0
    9.0528   -3.2424   23.3649 C   0  0  0  0  0  0  0  0  0  0  0  0
    8.3233   -2.0990   24.0672 C   0  0  0  0  0  0  0  0  0  0  0  0
    9.2814   -2.7691   21.9301 C   0  0  0  0  0  0  0  0  0  0  0  0
    8.2153   -0.9787   23.0332 C   0  0  0  0  0  0  0  0  0  0  0  0
    9.3699   -1.2283   22.0341 C   0  0  0  0  0  0  0  0  0  0  0  0
    9.0423   -0.5574   20.6896 C   0  0  0  0  0  0  0  0  0  0  0  0
   11.8039   -1.5672   22.1395 N   0  0  0  0  0  0  0  0  0  0  0  0
    6.8975    1.0845   20.8651 N   0  0  0  0  0  0  0  0  0  0  0  0
    7.7610   -0.9904   20.2756 O   0  0  0  0  0  0  0  0  0  0  0  0
  1  3  2  0
  1  5  1  0
  2  4  2  0
  2  6  1  0
  3  7  1  0
  4  8  1  0
  5  9  2  0
  6 10  2  0
  7 17  2  0
  8 18  2  0
  9 15  1  0
  9 17  1  0
 10 18  1  0
 10 19  1  0
 11 12  1  0
 11 13  1  0
 12 14  1  0
 13 15  1  0
 14 15  1  0
 15 16  1  0
 16 19  1  0
M  END
