MAK-UNK-148caf23-21
     RDKit          3D

 34 37  0  0  0  0  0  0  0  0999 V2000
    4.3465   -5.4440   30.5000 C   0  0  0  0  0  0  0  0  0  0  0  0
    6.8225   -6.1698   21.3989 C   0  0  0  0  0  0  0  0  0  0  0  0
    5.7277   -6.8521   29.0439 C   0  0  0  0  0  0  0  0  0  0  0  0
    8.9015   -2.0765   25.3117 C   0  0  0  0  0  0  0  0  0  0  0  0
    9.1785   -2.9368   26.3741 C   0  0  0  0  0  0  0  0  0  0  0  0
    6.8261   -5.0252   22.1882 C   0  0  0  0  0  0  0  0  0  0  0  0
    6.8742   -7.0224   28.2758 C   0  0  0  0  0  0  0  0  0  0  0  0
    9.8126   -4.6649   24.8094 C   0  0  0  0  0  0  0  0  0  0  0  0
    9.6392   -0.7311   22.2720 C   0  0  0  0  0  0  0  0  0  0  0  0
    6.1972   -6.1041   20.1641 C   0  0  0  0  0  0  0  0  0  0  0  0
    6.4689   -4.6541   29.5691 C   0  0  0  0  0  0  0  0  0  0  0  0
    5.6152   -3.9036   20.4759 C   0  0  0  0  0  0  0  0  0  0  0  0
    7.6125   -0.5875   21.3015 C   0  0  0  0  0  0  0  0  0  0  0  0
    5.5137   -5.6483   29.7060 C   0  0  0  0  0  0  0  0  0  0  0  0
    9.0800   -2.5104   23.9981 C   0  0  0  0  0  0  0  0  0  0  0  0
    9.6340   -4.2310   26.1230 C   0  0  0  0  0  0  0  0  0  0  0  0
    8.8924   -0.0803   21.2591 C   0  0  0  0  0  0  0  0  0  0  0  0
    9.5356   -3.8046   23.7469 C   0  0  0  0  0  0  0  0  0  0  0  0
    6.2130   -3.8663   21.7253 C   0  0  0  0  0  0  0  0  0  0  0  0
    8.7929   -1.6163   22.9025 C   0  0  0  0  0  0  0  0  0  0  0  0
    7.7684   -5.9666   28.2028 C   0  0  0  0  0  0  0  0  0  0  0  0
   10.0204    3.3469   20.0088 C   0  0  0  0  0  0  0  0  0  0  0  0
    9.9294   -5.1508   27.2591 C   0  0  0  0  0  0  0  0  0  0  0  0
    9.3920    0.9509   20.3294 C   0  0  0  0  0  0  0  0  0  0  0  0
    3.3969   -5.2778   31.1460 N   0  0  0  0  0  0  0  0  0  0  0  0
    5.5913   -4.9966   19.6806 N   0  0  0  0  0  0  0  0  0  0  0  0
    7.5948   -4.7826   28.8319 N   0  0  0  0  0  0  0  0  0  0  0  0
    7.5637   -1.5207   22.3041 N   0  0  0  0  0  0  0  0  0  0  0  0
    8.9077   -6.1520   27.4332 N   0  0  0  0  0  0  0  0  0  0  0  0
    9.5727    2.2966   20.9560 N   0  0  0  0  0  0  0  0  0  0  0  0
    5.0714   -1.5594   22.2712 O   0  0  0  0  0  0  0  0  0  0  0  0
    6.3151   -2.8194   24.0984 O   0  0  0  0  0  0  0  0  0  0  0  0
    9.7121   -4.2368   22.4897 F   0  0  0  0  0  0  0  0  0  0  0  0
    6.1973   -2.3865   22.7039 S   0  0  0  0  0  0  0  0  0  0  0  0
  1 14  1  0
  1 25  3  0
  2  6  2  0
  2 10  1  0
  3  7  2  0
  3 14  1  0
  4  5  2  0
  4 15  1  0
  5 16  1  0
  6 19  1  0
  7 21  1  0
  8 16  2  0
  8 18  1  0
  9 17  1  0
  9 20  2  0
 10 26  2  0
 11 14  2  0
 11 27  1  0
 12 19  2  0
 12 26  1  0
 13 17  2  0
 13 28  1  0
 15 18  2  0
 15 20  1  0
 16 23  1  0
 17 24  1  0
 18 33  1  0
 19 34  1  0
 20 28  1  0
 21 27  2  0
 21 29  1  0
 22 30  1  0
 23 29  1  0
 24 30  1  0
 28 34  1  0
 31 34  2  0
 32 34  2  0
M  CHG  1  30   1
M  END
