MAK-UNK-acefcb18-31
     RDKit          3D

 26 28  0  0  0  0  0  0  0  0999 V2000
   12.2846   -0.7513   22.1484 C   0  0  0  0  0  0  0  0  0  0  0  0
   11.6473    0.4374   24.1528 C   0  0  0  0  0  0  0  0  0  0  0  0
   11.5700   -1.8675   22.5831 C   0  0  0  0  0  0  0  0  0  0  0  0
   10.9326   -0.6788   24.5876 C   0  0  0  0  0  0  0  0  0  0  0  0
   10.4175    6.0956   25.4350 C   0  0  0  0  0  0  0  0  0  0  0  0
   11.7819    6.2667   25.5173 C   0  0  0  0  0  0  0  0  0  0  0  0
   11.1013    5.2909   23.3645 C   0  0  0  0  0  0  0  0  0  0  0  0
   12.3233    0.4011   22.9333 C   0  0  0  0  0  0  0  0  0  0  0  0
   10.8940   -1.8313   23.8027 C   0  0  0  0  0  0  0  0  0  0  0  0
   10.0232    5.5302   24.1881 C   0  0  0  0  0  0  0  0  0  0  0  0
    7.9624   -2.8319   23.3336 C   0  0  0  0  0  0  0  0  0  0  0  0
    7.0274    2.1094   22.2724 C   0  0  0  0  0  0  0  0  0  0  0  0
    8.1646    1.4837   24.4275 C   0  0  0  0  0  0  0  0  0  0  0  0
    7.1512    3.5805   22.6373 C   0  0  0  0  0  0  0  0  0  0  0  0
    8.2860    2.9563   24.7873 C   0  0  0  0  0  0  0  0  0  0  0  0
    6.9710    1.2220   23.5124 C   0  0  0  0  0  0  0  0  0  0  0  0
   13.0870    1.5950   22.4692 C   0  0  0  0  0  0  0  0  0  0  0  0
    8.6003    5.2322   23.8171 C   0  0  0  0  0  0  0  0  0  0  0  0
   10.1241   -3.0319   24.2688 C   0  0  0  0  0  0  0  0  0  0  0  0
    6.5420   -2.4340   23.6516 C   0  0  0  0  0  0  0  0  0  0  0  0
    6.4700   -0.9919   24.1208 C   0  0  0  0  0  0  0  0  0  0  0  0
    8.3608    3.7772   23.5211 N   0  0  0  0  0  0  0  0  0  0  0  0
    8.3238   -3.2509   22.2415 O   0  0  0  0  0  0  0  0  0  0  0  0
    8.7497   -2.6696   24.4354 O   0  0  0  0  0  0  0  0  0  0  0  0
    6.9704   -0.1399   23.1002 O   0  0  0  0  0  0  0  0  0  0  0  0
   12.5814    5.7469   24.0950 S   0  0  0  0  0  0  0  0  0  0  0  0
  1  3  2  0
  1  8  1  0
  2  4  1  0
  2  8  2  0
  3  9  1  0
  4  9  2  0
  5  6  2  0
  5 10  1  0
  6 26  1  0
  7 10  2  0
  7 26  1  0
  8 17  1  0
  9 19  1  0
 10 18  1  0
 11 20  1  0
 11 23  2  0
 11 24  1  0
 12 14  1  0
 12 16  1  0
 13 15  1  0
 13 16  1  0
 14 22  1  0
 15 22  1  0
 16 25  1  0
 18 22  1  0
 19 24  1  0
 20 21  1  0
 21 25  1  0
M  CHG  1  22   1
M  END
