MAK-UNK-f2409524-1
     RDKit          3D

 22 23  0  0  0  0  0  0  0  0999 V2000
   12.1505    6.3519   25.0345 C   0  0  0  0  0  0  0  0  0  0  0  0
   11.4786    6.6165   26.2170 C   0  0  0  0  0  0  0  0  0  0  0  0
    9.5901    5.5275   25.4922 C   0  0  0  0  0  0  0  0  0  0  0  0
   11.4783    5.6357   24.0503 C   0  0  0  0  0  0  0  0  0  0  0  0
   10.1733    5.2120   24.2756 C   0  0  0  0  0  0  0  0  0  0  0  0
   13.1511    0.4628   22.9805 C   0  0  0  0  0  0  0  0  0  0  0  0
    8.1476    4.0015   23.4065 C   0  0  0  0  0  0  0  0  0  0  0  0
    8.9579   -1.9910   23.1333 C   0  0  0  0  0  0  0  0  0  0  0  0
   10.0317   -1.7819   24.1964 C   0  0  0  0  0  0  0  0  0  0  0  0
    9.2874   -1.2403   21.8470 C   0  0  0  0  0  0  0  0  0  0  0  0
   11.4197   -2.1558   23.6784 C   0  0  0  0  0  0  0  0  0  0  0  0
   10.6716   -1.6104   21.3157 C   0  0  0  0  0  0  0  0  0  0  0  0
   11.7662   -1.4491   22.3690 C   0  0  0  0  0  0  0  0  0  0  0  0
    7.7396    3.2694   22.1526 C   0  0  0  0  0  0  0  0  0  0  0  0
   12.1852    5.3340   22.7530 C   0  0  0  0  0  0  0  0  0  0  0  0
   13.1641    4.1554   22.8386 C   0  0  0  0  0  0  0  0  0  0  0  0
   12.5169    2.8206   23.2029 C   0  0  0  0  0  0  0  0  0  0  0  0
   10.2112    6.2214   26.4722 N   0  0  0  0  0  0  0  0  0  0  0  0
    9.4582    4.4909   23.3198 N   0  0  0  0  0  0  0  0  0  0  0  0
   13.4810    1.7214   23.2493 N   0  0  0  0  0  0  0  0  0  0  0  0
   11.9654   -0.0173   22.6382 N   0  0  0  0  0  0  0  0  0  0  0  0
    7.3693    4.1173   24.3476 O   0  0  0  0  0  0  0  0  0  0  0  0
  1  2  2  0
  1  4  1  0
  2 18  1  0
  3  5  1  0
  3 18  2  0
  4  5  2  0
  4 15  1  0
  5 19  1  0
  6 20  1  0
  6 21  2  0
  7 14  1  0
  7 19  1  0
  7 22  2  0
  8  9  1  0
  8 10  1  0
  9 11  1  0
 10 12  1  0
 11 13  1  0
 12 13  1  0
 13 21  1  0
 15 16  1  0
 16 17  1  0
 17 20  1  0
M  CHG  1  21   1
M  END
