MAK-UNK-c7aa8293-11
     RDKit          3D

 20 21  0  0  1  0  0  0  0  0999 V2000
    7.6822   -5.8011   22.6901 C   0  0  0  0  0  0  0  0  0  0  0  0
    6.6586   -5.6055   21.7614 C   0  0  0  0  0  0  0  0  0  0  0  0
    8.5093   -4.7372   23.0813 C   0  0  0  0  0  0  0  0  0  0  0  0
    8.3197   -3.4767   22.4834 C   0  0  0  0  0  0  0  0  0  0  0  0
    6.4542   -4.3476   21.2021 C   0  0  0  0  0  0  0  0  0  0  0  0
    7.2811   -3.2856   21.5613 C   0  0  0  0  0  0  0  0  0  0  0  0
    9.1993   -2.3164   22.8686 C   0  0  0  0  0  0  0  0  0  0  0  0
    9.6426   -4.9446   24.0709 C   0  0  0  0  0  0  0  0  0  0  0  0
   10.5165   -2.8132   23.4618 C   0  0  0  0  0  0  0  0  0  0  0  0
   15.6368   -0.4197   26.2550 C   0  0  0  0  0  0  0  0  0  0  0  0
   14.5120   -2.5728   26.8024 C   0  0  0  0  0  0  0  0  0  0  0  0
    9.2205   -5.7010   25.3293 C   0  0  0  0  0  0  0  0  0  0  0  0
   11.3343   -1.6617   24.0290 C   0  0  0  0  0  0  0  0  0  0  0  0
   12.6356   -2.1569   24.6575 C   0  0  0  0  0  0  0  0  0  0  0  0
   13.4608   -0.9943   25.1888 C   0  0  0  0  0  0  0  0  0  0  0  0
   10.4213   -6.2980   25.9478 N   0  0  0  0  0  0  0  0  0  0  0  0
   14.7313   -1.5156   25.7475 N   0  0  0  0  0  0  0  0  0  0  0  0
   10.2112   -3.7072   24.5336 O   0  0  0  0  0  0  0  0  0  0  0  0
    5.4466   -4.1712   20.3026 O   0  0  0  0  0  0  0  0  0  0  0  0
    7.0671   -2.0573   21.0054 O   0  0  0  0  0  0  0  0  0  0  0  0
  1  2  2  0
  1  3  1  0
  2  5  1  0
  3  4  2  0
  3  8  1  0
  4  6  1  0
  4  7  1  0
  5  6  2  0
  5 19  1  0
  6 20  1  0
  7  9  1  0
  8 12  1  0
  8 18  1  0
  9 13  1  0
  9 18  1  0
 10 17  1  0
 11 17  1  0
 12 16  1  0
 13 14  1  0
 14 15  1  0
 15 17  1  0
M  CHG  2  16   1  17   1
M  END
