MAK-UNK-9e4a73aa-18
     RDKit          3D

 26 29  0  0  0  0  0  0  0  0999 V2000
   12.2195   -0.2165   23.2342 C   0  0  0  0  0  0  0  0  0  0  0  0
    6.1921    0.7104   18.1815 C   0  0  0  0  0  0  0  0  0  0  0  0
   11.1273   -0.8172   22.6182 C   0  0  0  0  0  0  0  0  0  0  0  0
    6.7121    0.2208   19.3745 C   0  0  0  0  0  0  0  0  0  0  0  0
    6.5884   -4.5044   23.2206 C   0  0  0  0  0  0  0  0  0  0  0  0
    8.5363   -3.1039   24.6032 C   0  0  0  0  0  0  0  0  0  0  0  0
   12.0509    0.2736   24.5192 C   0  0  0  0  0  0  0  0  0  0  0  0
    5.6635   -0.2012   17.2819 C   0  0  0  0  0  0  0  0  0  0  0  0
    9.8515   -0.3874   24.5788 C   0  0  0  0  0  0  0  0  0  0  0  0
    6.1370   -1.9746   18.6635 C   0  0  0  0  0  0  0  0  0  0  0  0
    7.1716   -3.3588   22.6494 C   0  0  0  0  0  0  0  0  0  0  0  0
    9.9169   -0.9083   23.2965 C   0  0  0  0  0  0  0  0  0  0  0  0
    6.6879   -1.1462   19.6278 C   0  0  0  0  0  0  0  0  0  0  0  0
    8.1832   -2.6630   23.3118 C   0  0  0  0  0  0  0  0  0  0  0  0
    6.9883   -4.9481   24.4766 C   0  0  0  0  0  0  0  0  0  0  0  0
    7.9540   -4.2389   25.1745 C   0  0  0  0  0  0  0  0  0  0  0  0
    6.6435   -2.8679   21.3645 C   0  0  0  0  0  0  0  0  0  0  0  0
    8.3220   -1.0069   21.4536 C   0  0  0  0  0  0  0  0  0  0  0  0
   10.8909    0.2034   25.2098 N   0  0  0  0  0  0  0  0  0  0  0  0
    5.6224   -1.5359   17.4928 N   0  0  0  0  0  0  0  0  0  0  0  0
    8.7722   -1.5223   22.6875 N   0  0  0  0  0  0  0  0  0  0  0  0
    7.2224   -1.6871   20.8617 N   0  0  0  0  0  0  0  0  0  0  0  0
    5.6995   -3.4763   20.8631 O   0  0  0  0  0  0  0  0  0  0  0  0
    8.9107   -0.0780   20.8844 O   0  0  0  0  0  0  0  0  0  0  0  0
    6.4188   -6.0410   25.0037 F   0  0  0  0  0  0  0  0  0  0  0  0
    8.4437   -4.7549   26.7426 Cl  0  0  0  0  0  0  0  0  0  0  0  0
  1  3  2  0
  1  7  1  0
  2  4  2  0
  2  8  1  0
  3 12  1  0
  4 13  1  0
  5 11  2  0
  5 15  1  0
  6 14  2  0
  6 16  1  0
  7 19  2  0
  8 20  2  0
  9 12  2  0
  9 19  1  0
 10 13  2  0
 10 20  1  0
 11 14  1  0
 11 17  1  0
 12 21  1  0
 13 22  1  0
 14 21  1  0
 15 16  2  0
 15 25  1  0
 16 26  1  0
 17 22  1  0
 17 23  2  0
 18 21  1  0
 18 22  1  0
 18 24  2  0
M  END
