MAK-UNK-194150d3-16
     RDKit          3D

 20 21  0  0  1  0  0  0  0  0999 V2000
   12.1222    3.3103   22.8236 C   0  0  0  0  0  0  0  0  0  0  0  0
   12.6526    2.0956   22.3890 C   0  0  0  0  0  0  0  0  0  0  0  0
   11.2318    3.3383   23.8970 C   0  0  0  0  0  0  0  0  0  0  0  0
    4.2393    1.6238   19.1550 C   0  0  0  0  0  0  0  0  0  0  0  0
    4.6114    1.7554   20.4928 C   0  0  0  0  0  0  0  0  0  0  0  0
   12.2926    0.9090   23.0277 C   0  0  0  0  0  0  0  0  0  0  0  0
   10.8718    2.1517   24.5357 C   0  0  0  0  0  0  0  0  0  0  0  0
    5.1241    1.0574   18.2374 C   0  0  0  0  0  0  0  0  0  0  0  0
    5.8684    1.3207   20.9130 C   0  0  0  0  0  0  0  0  0  0  0  0
   11.4022    0.9370   24.1011 C   0  0  0  0  0  0  0  0  0  0  0  0
    6.3811    0.6227   18.6576 C   0  0  0  0  0  0  0  0  0  0  0  0
    6.7533    0.7543   19.9954 C   0  0  0  0  0  0  0  0  0  0  0  0
   11.0167   -0.3315   24.7843 C   0  0  0  0  0  0  0  0  0  0  0  0
    9.7808   -1.0048   24.1750 C   0  0  0  0  0  0  0  0  0  0  0  0
    8.7874   -1.9964   22.2274 C   0  0  0  0  0  0  0  0  0  0  0  0
    7.7231   -0.9858   21.8348 C   0  0  0  0  0  0  0  0  0  0  0  0
    9.9789   -1.3664   22.7970 N   0  0  0  0  0  0  0  0  0  0  0  0
    7.1695    0.1065   17.7862 O   0  0  0  0  0  0  0  0  0  0  0  0
    8.9092    1.3710   21.4081 O   0  0  0  0  0  0  0  0  0  0  0  0
    8.3563    0.2203   20.6262 S   0  0  0  0  0  0  0  0  0  0  0  0
  1  2  2  0
  1  3  1  0
  2  6  1  0
  3  7  2  0
  4  5  2  0
  4  8  1  0
  5  9  1  0
  6 10  2  0
  7 10  1  0
  8 11  2  0
  9 12  2  0
 10 13  1  0
 11 12  1  0
 11 18  1  0
 12 20  1  0
 13 14  1  0
 14 17  1  0
 15 16  1  0
 15 17  1  0
 16 20  1  0
 19 20  2  0
M  CHG  1  18  -1
M  END
