MAK-UNK-af83ef51-2
     RDKit          3D

 20 21  0  0  1  0  0  0  0  0999 V2000
   11.9601    3.8561   23.9076 C   0  0  0  0  0  0  0  0  0  0  0  0
   12.8158    2.7787   23.6785 C   0  0  0  0  0  0  0  0  0  0  0  0
   10.7135    3.6438   24.4964 C   0  0  0  0  0  0  0  0  0  0  0  0
   12.4250    1.4889   24.0382 C   0  0  0  0  0  0  0  0  0  0  0  0
   10.3226    2.3541   24.8560 C   0  0  0  0  0  0  0  0  0  0  0  0
   11.1784    1.2766   24.6270 C   0  0  0  0  0  0  0  0  0  0  0  0
    5.9571   -0.9973   19.8425 C   0  0  0  0  0  0  0  0  0  0  0  0
    8.3033   -0.2156   19.7677 C   0  0  0  0  0  0  0  0  0  0  0  0
    7.8696   -2.4981   20.5893 C   0  0  0  0  0  0  0  0  0  0  0  0
    9.1922    0.0702   20.9692 C   0  0  0  0  0  0  0  0  0  0  0  0
    8.7542   -2.2472   21.8031 C   0  0  0  0  0  0  0  0  0  0  0  0
   11.7367   -2.1864   22.6068 C   0  0  0  0  0  0  0  0  0  0  0  0
   10.7548   -0.1183   25.0160 C   0  0  0  0  0  0  0  0  0  0  0  0
    5.5024    0.4371   19.9401 C   0  0  0  0  0  0  0  0  0  0  0  0
   10.0130   -0.8612   23.8955 C   0  0  0  0  0  0  0  0  0  0  0  0
   10.7777   -1.0027   22.5725 C   0  0  0  0  0  0  0  0  0  0  0  0
    7.3087   -1.2414   20.0817 N   0  0  0  0  0  0  0  0  0  0  0  0
    9.8103   -1.2258   21.4443 N   0  0  0  0  0  0  0  0  0  0  0  0
    5.1349   -1.8724   19.5594 O   0  0  0  0  0  0  0  0  0  0  0  0
    5.8191    0.9546   21.5923 Cl  0  0  0  0  0  0  0  0  0  0  0  0
  1  2  2  0
  1  3  1  0
  2  4  1  0
  3  5  2  0
  4  6  2  0
  5  6  1  0
  6 13  1  0
  7 14  1  0
  7 17  1  0
  7 19  2  0
  8 10  1  0
  8 17  1  0
  9 11  1  0
  9 17  1  0
 10 18  1  0
 11 18  1  0
 12 16  1  0
 13 15  1  0
 14 20  1  0
 15 16  1  0
 16 18  1  0
M  CHG  1  18   1
M  END
