MAK-UNK-de9577cf-21
     RDKit          3D

 37 40  0  0  0  0  0  0  0  0999 V2000
   13.5742   -1.8056   22.6626 C   0  0  0  0  0  0  0  0  0  0  0  0
   14.0626   -0.5404   22.9884 C   0  0  0  0  0  0  0  0  0  0  0  0
    6.0143   -4.0403   25.5262 C   0  0  0  0  0  0  0  0  0  0  0  0
   12.2458   -1.9594   22.2655 C   0  0  0  0  0  0  0  0  0  0  0  0
    8.3050    2.4401   23.4628 C   0  0  0  0  0  0  0  0  0  0  0  0
    8.4718    2.3971   25.8727 C   0  0  0  0  0  0  0  0  0  0  0  0
   13.2228    0.5711   22.9173 C   0  0  0  0  0  0  0  0  0  0  0  0
    7.2086   -3.9826   24.8164 C   0  0  0  0  0  0  0  0  0  0  0  0
    9.0224    3.6360   23.4345 C   0  0  0  0  0  0  0  0  0  0  0  0
    9.1892    3.5930   25.8444 C   0  0  0  0  0  0  0  0  0  0  0  0
    9.3850   -0.4486   20.7067 C   0  0  0  0  0  0  0  0  0  0  0  0
    5.5590   -2.8769   26.1252 C   0  0  0  0  0  0  0  0  0  0  0  0
    7.9175   -1.7467   21.8164 C   0  0  0  0  0  0  0  0  0  0  0  0
   11.4060   -0.8480   22.1944 C   0  0  0  0  0  0  0  0  0  0  0  0
    8.0297    1.8207   24.6819 C   0  0  0  0  0  0  0  0  0  0  0  0
    8.0469   -0.9134   20.7273 C   0  0  0  0  0  0  0  0  0  0  0  0
   11.8945    0.4173   22.5202 C   0  0  0  0  0  0  0  0  0  0  0  0
    9.4645    4.2124   24.6253 C   0  0  0  0  0  0  0  0  0  0  0  0
    7.9011   -2.7801   24.7285 C   0  0  0  0  0  0  0  0  0  0  0  0
   10.0328   -1.0123   21.7838 C   0  0  0  0  0  0  0  0  0  0  0  0
    7.3612   -1.6730   25.3630 C   0  0  0  0  0  0  0  0  0  0  0  0
    7.2626    0.5492   24.7122 C   0  0  0  0  0  0  0  0  0  0  0  0
    5.3255    1.1347   19.0007 C   0  0  0  0  0  0  0  0  0  0  0  0
    6.9861   -0.5691   19.7611 C   0  0  0  0  0  0  0  0  0  0  0  0
    6.2039   -1.6905   26.0616 N   0  0  0  0  0  0  0  0  0  0  0  0
    9.1310   -1.7996   22.4510 N   0  0  0  0  0  0  0  0  0  0  0  0
    9.0957    6.8513   24.6975 N   0  0  0  0  0  0  0  0  0  0  0  0
    6.4310    0.8085   19.9346 N   0  0  0  0  0  0  0  0  0  0  0  0
    6.1254    0.4436   24.2777 O   0  0  0  0  0  0  0  0  0  0  0  0
   10.3824   -1.9138   24.6040 O   0  0  0  0  0  0  0  0  0  0  0  0
    9.7346   -4.0711   23.4211 O   0  0  0  0  0  0  0  0  0  0  0  0
   11.1711    5.7893   25.7976 O   0  0  0  0  0  0  0  0  0  0  0  0
   10.9964    5.8374   23.2847 O   0  0  0  0  0  0  0  0  0  0  0  0
    8.0104   -0.4676   25.3019 O   0  0  0  0  0  0  0  0  0  0  0  0
   11.0999    1.4958   22.4567 F   0  0  0  0  0  0  0  0  0  0  0  0
    9.4250   -2.6972   23.8238 S   0  0  0  0  0  0  0  0  0  0  0  0
   10.3623    5.7096   24.5894 S   0  0  0  0  0  0  0  0  0  0  0  0
  1  2  2  0
  1  4  1  0
  2  7  1  0
  3  8  2  0
  3 12  1  0
  4 14  2  0
  5  9  2  0
  5 15  1  0
  6 10  1  0
  6 15  2  0
  7 17  2  0
  8 19  1  0
  9 18  1  0
 10 18  2  0
 11 16  1  0
 11 20  2  0
 12 25  2  0
 13 16  2  0
 13 26  1  0
 14 17  1  0
 14 20  1  0
 15 22  1  0
 16 24  1  0
 17 35  1  0
 18 37  1  0
 19 21  2  0
 19 36  1  0
 20 26  1  0
 21 25  1  0
 21 34  1  0
 22 29  2  0
 22 34  1  0
 23 28  1  0
 24 28  1  0
 26 36  1  0
 27 37  1  0
 30 36  2  0
 31 36  2  0
 32 37  2  0
 33 37  2  0
M  CHG  1  28   1
M  END
