MAK-UNK-702fb7d3-3
     RDKit          3D

 43 48  0  0  1  0  0  0  0  0999 V2000
    9.7049    8.0921   25.3221 C   0  0  0  0  0  0  0  0  0  0  0  0
    6.8872   -5.0971   21.9599 C   0  0  0  0  0  0  0  0  0  0  0  0
    9.6422    7.2075   26.3987 C   0  0  0  0  0  0  0  0  0  0  0  0
    9.5281    7.6209   24.0211 C   0  0  0  0  0  0  0  0  0  0  0  0
    6.0318    3.1613   21.5338 C   0  0  0  0  0  0  0  0  0  0  0  0
    5.6432    3.7051   22.7544 C   0  0  0  0  0  0  0  0  0  0  0  0
    5.8090   -4.3129   21.5498 C   0  0  0  0  0  0  0  0  0  0  0  0
    6.4295    0.6496   27.2580 C   0  0  0  0  0  0  0  0  0  0  0  0
    7.9856   -4.5025   22.5810 C   0  0  0  0  0  0  0  0  0  0  0  0
    9.4028    5.8518   26.1745 C   0  0  0  0  0  0  0  0  0  0  0  0
    9.2887    6.2652   23.7968 C   0  0  0  0  0  0  0  0  0  0  0  0
    7.3707    2.8458   21.3063 C   0  0  0  0  0  0  0  0  0  0  0  0
    6.5931    3.9333   23.7493 C   0  0  0  0  0  0  0  0  0  0  0  0
    5.8293   -2.9343   21.7607 C   0  0  0  0  0  0  0  0  0  0  0  0
    7.3022   -0.4223   27.1072 C   0  0  0  0  0  0  0  0  0  0  0  0
   10.2922   -2.0084   22.8576 C   0  0  0  0  0  0  0  0  0  0  0  0
    5.3119    0.6959   26.4403 C   0  0  0  0  0  0  0  0  0  0  0  0
    5.8896   -1.2633   25.3887 C   0  0  0  0  0  0  0  0  0  0  0  0
   10.4451   -1.7345   25.0873 C   0  0  0  0  0  0  0  0  0  0  0  0
    8.0059   -3.1239   22.7919 C   0  0  0  0  0  0  0  0  0  0  0  0
    9.2261    5.3806   24.8735 C   0  0  0  0  0  0  0  0  0  0  0  0
    8.3368    3.0795   22.2956 C   0  0  0  0  0  0  0  0  0  0  0  0
    7.9460    3.6219   23.5332 C   0  0  0  0  0  0  0  0  0  0  0  0
   11.1129   -1.5165   23.9025 C   0  0  0  0  0  0  0  0  0  0  0  0
    6.9277   -2.3397   22.3817 C   0  0  0  0  0  0  0  0  0  0  0  0
    7.0344   -1.4013   26.1569 C   0  0  0  0  0  0  0  0  0  0  0  0
    9.1478   -2.5118   23.4358 C   0  0  0  0  0  0  0  0  0  0  0  0
   12.2243    1.3997   23.5398 C   0  0  0  0  0  0  0  0  0  0  0  0
    9.7652    2.6914   22.0305 C   0  0  0  0  0  0  0  0  0  0  0  0
   10.2793    3.1229   24.4295 C   0  0  0  0  0  0  0  0  0  0  0  0
    8.9644    3.8978   24.6275 C   0  0  0  0  0  0  0  0  0  0  0  0
   12.4634   -0.8751   23.7482 C   0  0  0  0  0  0  0  0  0  0  0  0
   13.1431    3.7227   23.3536 C   0  0  0  0  0  0  0  0  0  0  0  0
   12.1394    2.7157   22.8101 C   0  0  0  0  0  0  0  0  0  0  0  0
    5.0184   -0.2362   25.5063 N   0  0  0  0  0  0  0  0  0  0  0  0
   12.4102    0.3041   22.8893 N   0  0  0  0  0  0  0  0  0  0  0  0
    9.2516   -2.3397   24.7915 N   0  0  0  0  0  0  0  0  0  0  0  0
   10.7597    3.2777   23.0082 N   0  0  0  0  0  0  0  0  0  0  0  0
    8.8803   -2.9774   27.1725 O   0  0  0  0  0  0  0  0  0  0  0  0
    7.3044   -3.8641   25.3827 O   0  0  0  0  0  0  0  0  0  0  0  0
    6.9317   -1.0129   22.5773 F   0  0  0  0  0  0  0  0  0  0  0  0
    8.1244   -2.7835   25.9356 S   0  0  0  0  0  0  0  0  0  0  0  0
   13.0050    5.2816   22.4986 Cl  0  0  0  0  0  0  0  0  0  0  0  0
  1  3  2  0
  1  4  1  0
  2  7  2  0
  2  9  1  0
  3 10  1  0
  4 11  2  0
  5  6  2  0
  5 12  1  0
  6 13  1  0
  7 14  1  0
  8 15  2  0
  8 17  1  0
  9 20  2  0
 10 21  2  0
 11 21  1  0
 12 22  2  0
 13 23  2  0
 14 25  2  0
 15 26  1  0
 16 24  1  0
 16 27  2  0
 17 35  2  0
 18 26  2  0
 18 35  1  0
 19 24  2  0
 19 37  1  0
 20 25  1  0
 20 27  1  0
 21 31  1  0
 22 23  1  0
 22 29  1  0
 23 31  1  0
 24 32  1  0
 25 41  1  0
 26 42  1  0
 27 37  1  0
 28 34  1  0
 28 36  2  0
 29 38  1  0
 30 31  1  0
 30 38  1  0
 32 36  1  0
 33 34  1  0
 33 43  1  0
 34 38  1  0
 37 42  1  0
 39 42  2  0
 40 42  2  0
M  CHG  1  38   1
M  END
