MAK-UNK-0955449e-33
     RDKit          3D

 29 32  0  0  0  0  0  0  0  0999 V2000
    3.8787    2.0554   17.6855 C   0  0  0  0  0  0  0  0  0  0  0  0
    4.9966    1.3169   17.2974 C   0  0  0  0  0  0  0  0  0  0  0  0
    3.5025    2.0977   19.0280 C   0  0  0  0  0  0  0  0  0  0  0  0
   11.3984    1.7003   22.3937 C   0  0  0  0  0  0  0  0  0  0  0  0
    5.7382    0.6206   18.2518 C   0  0  0  0  0  0  0  0  0  0  0  0
    4.2441    1.4014   19.9824 C   0  0  0  0  0  0  0  0  0  0  0  0
    8.1678   -0.9721   21.4067 C   0  0  0  0  0  0  0  0  0  0  0  0
   10.2270    1.1955   22.9470 C   0  0  0  0  0  0  0  0  0  0  0  0
    7.4907   -0.2699   20.4158 C   0  0  0  0  0  0  0  0  0  0  0  0
    8.3422   -3.5252   23.6702 C   0  0  0  0  0  0  0  0  0  0  0  0
   12.5396    1.6999   23.1796 C   0  0  0  0  0  0  0  0  0  0  0  0
    6.1165   -1.1725   22.5936 C   0  0  0  0  0  0  0  0  0  0  0  0
   11.4258    0.7559   24.9535 C   0  0  0  0  0  0  0  0  0  0  0  0
    9.2789   -2.5306   25.4600 C   0  0  0  0  0  0  0  0  0  0  0  0
    5.3619    0.6629   19.5943 C   0  0  0  0  0  0  0  0  0  0  0  0
    7.4749   -1.4354   22.5196 C   0  0  0  0  0  0  0  0  0  0  0  0
    9.0578   -3.7559   24.8709 C   0  0  0  0  0  0  0  0  0  0  0  0
   10.2324    0.7123   24.2508 C   0  0  0  0  0  0  0  0  0  0  0  0
    6.1315   -0.0593   20.5840 C   0  0  0  0  0  0  0  0  0  0  0  0
    8.1479   -2.1658   23.5619 C   0  0  0  0  0  0  0  0  0  0  0  0
    7.6619   -5.1955   27.0949 C   0  0  0  0  0  0  0  0  0  0  0  0
    9.4877   -5.0665   25.3953 C   0  0  0  0  0  0  0  0  0  0  0  0
   12.5836    1.2390   24.4497 N   0  0  0  0  0  0  0  0  0  0  0  0
    5.4245   -0.4940   21.6511 N   0  0  0  0  0  0  0  0  0  0  0  0
    8.7217   -1.5713   24.6553 N   0  0  0  0  0  0  0  0  0  0  0  0
    8.3791   -5.8759   25.9888 N   0  0  0  0  0  0  0  0  0  0  0  0
    8.8895    0.1567   26.4441 O   0  0  0  0  0  0  0  0  0  0  0  0
    7.6372    0.7004   24.2973 O   0  0  0  0  0  0  0  0  0  0  0  0
    8.7576    0.0605   24.9907 S   0  0  0  0  0  0  0  0  0  0  0  0
  1  2  2  0
  1  3  1  0
  2  5  1  0
  3  6  2  0
  4  8  2  0
  4 11  1  0
  5 15  2  0
  6 15  1  0
  7  9  2  0
  7 16  1  0
  8 18  1  0
  9 19  1  0
 10 17  1  0
 10 20  2  0
 11 23  2  0
 12 16  2  0
 12 24  1  0
 13 18  2  0
 13 23  1  0
 14 17  2  0
 14 25  1  0
 15 19  1  0
 16 20  1  0
 17 22  1  0
 18 29  1  0
 19 24  2  0
 20 25  1  0
 21 26  1  0
 22 26  1  0
 25 29  1  0
 27 29  2  0
 28 29  2  0
M  CHG  1  26   1
M  END
