MAK-UNK-acefcb18-1
     RDKit          3D

 18 19  0  0  1  0  0  0  0  0999 V2000
   10.5836   -0.5871   23.7173 C   0  0  0  0  0  0  0  0  0  0  0  0
   12.4154   -1.3370   22.3319 C   0  0  0  0  0  0  0  0  0  0  0  0
   11.2146    0.6455   23.8846 C   0  0  0  0  0  0  0  0  0  0  0  0
   13.0465   -0.1043   22.4992 C   0  0  0  0  0  0  0  0  0  0  0  0
    9.9994    5.5493   22.5138 C   0  0  0  0  0  0  0  0  0  0  0  0
    8.6870    5.9352   22.6760 C   0  0  0  0  0  0  0  0  0  0  0  0
   10.1164    6.7261   24.5147 C   0  0  0  0  0  0  0  0  0  0  0  0
   10.8275    6.0073   23.5790 C   0  0  0  0  0  0  0  0  0  0  0  0
   11.1839   -1.5784   22.9410 C   0  0  0  0  0  0  0  0  0  0  0  0
   12.4461    0.8869   23.2756 C   0  0  0  0  0  0  0  0  0  0  0  0
   12.2952    5.7613   23.7026 C   0  0  0  0  0  0  0  0  0  0  0  0
   10.5091   -2.8960   22.7615 C   0  0  0  0  0  0  0  0  0  0  0  0
   12.2212    3.2276   23.6307 C   0  0  0  0  0  0  0  0  0  0  0  0
   12.9014    4.4921   23.1153 C   0  0  0  0  0  0  0  0  0  0  0  0
   12.7708    4.5132   21.6241 N   0  0  0  0  0  0  0  0  0  0  0  0
   12.9899    6.6007   24.2739 O   0  0  0  0  0  0  0  0  0  0  0  0
   13.0650    2.0979   23.4390 O   0  0  0  0  0  0  0  0  0  0  0  0
    8.4574    6.8461   24.1077 S   0  0  0  0  0  0  0  0  0  0  0  0
  1  3  2  0
  1  9  1  0
  2  4  1  0
  2  9  2  0
  3 10  1  0
  4 10  2  0
  5  6  2  0
  5  8  1  0
  6 18  1  0
  7  8  2  0
  7 18  1  0
  8 11  1  0
  9 12  1  0
 10 17  1  0
 11 14  1  0
 11 16  2  0
 13 14  1  0
 13 17  1  0
 14 15  1  0
M  CHG  1  15   1
M  END
