MAK-UNK-9e4a73aa-9
     RDKit          3D

 26 29  0  0  0  0  0  0  0  0999 V2000
   12.6343    0.7485   24.5945 C   0  0  0  0  0  0  0  0  0  0  0  0
   12.7986   -0.1462   23.5371 C   0  0  0  0  0  0  0  0  0  0  0  0
   11.3532    1.0730   25.0408 C   0  0  0  0  0  0  0  0  0  0  0  0
    5.2100    1.0393   19.0658 C   0  0  0  0  0  0  0  0  0  0  0  0
   11.6818   -0.7164   22.9260 C   0  0  0  0  0  0  0  0  0  0  0  0
   10.2364    0.5028   24.4297 C   0  0  0  0  0  0  0  0  0  0  0  0
    5.8265    0.4695   20.1742 C   0  0  0  0  0  0  0  0  0  0  0  0
    7.2724   -4.0754   23.3484 C   0  0  0  0  0  0  0  0  0  0  0  0
    9.4617   -2.7987   24.4245 C   0  0  0  0  0  0  0  0  0  0  0  0
    5.6694    0.6761   17.8101 C   0  0  0  0  0  0  0  0  0  0  0  0
    7.2538   -0.7307   18.6982 C   0  0  0  0  0  0  0  0  0  0  0  0
    7.7010   -2.8573   22.7712 C   0  0  0  0  0  0  0  0  0  0  0  0
   10.4007   -0.3919   23.3723 C   0  0  0  0  0  0  0  0  0  0  0  0
    6.8688   -0.4333   19.9955 C   0  0  0  0  0  0  0  0  0  0  0  0
    8.8128   -2.2035   23.3143 C   0  0  0  0  0  0  0  0  0  0  0  0
    7.9274   -4.6404   24.4408 C   0  0  0  0  0  0  0  0  0  0  0  0
    9.0256   -4.0001   24.9807 C   0  0  0  0  0  0  0  0  0  0  0  0
    6.9845   -2.2656   21.5947 C   0  0  0  0  0  0  0  0  0  0  0  0
    8.6560   -0.3374   21.6466 C   0  0  0  0  0  0  0  0  0  0  0  0
    6.6790   -0.1973   17.5969 N   0  0  0  0  0  0  0  0  0  0  0  0
    9.2709   -0.9690   22.7539 N   0  0  0  0  0  0  0  0  0  0  0  0
    7.5196   -1.0329   21.1106 N   0  0  0  0  0  0  0  0  0  0  0  0
    7.4809   -5.7960   24.9528 F   0  0  0  0  0  0  0  0  0  0  0  0
    5.6244   -3.0139   20.8893 S   0  0  0  0  0  0  0  0  0  0  0  0
    9.2311    1.1388   21.0073 S   0  0  0  0  0  0  0  0  0  0  0  0
    9.8508   -4.6750   26.3317 Cl  0  0  0  0  0  0  0  0  0  0  0  0
  1  2  2  0
  1  3  1  0
  2  5  1  0
  3  6  2  0
  4  7  2  0
  4 10  1  0
  5 13  2  0
  6 13  1  0
  7 14  1  0
  8 12  2  0
  8 16  1  0
  9 15  2  0
  9 17  1  0
 10 20  2  0
 11 14  2  0
 11 20  1  0
 12 15  1  0
 12 18  1  0
 13 21  1  0
 14 22  1  0
 15 21  1  0
 16 17  2  0
 16 23  1  0
 17 26  1  0
 18 22  1  0
 18 24  2  0
 19 21  1  0
 19 22  1  0
 19 25  2  0
M  END
