MAK-UNK-10572812-13
     RDKit          3D

 34 38  0  0  0  0  0  0  0  0999 V2000
    3.7726   -3.7449   23.7642 C   0  0  0  0  0  0  0  0  0  0  0  0
    5.1042   -3.7375   23.3529 C   0  0  0  0  0  0  0  0  0  0  0  0
   10.5761    3.5826   24.3468 C   0  0  0  0  0  0  0  0  0  0  0  0
   11.9755    1.5846   22.9109 C   0  0  0  0  0  0  0  0  0  0  0  0
    3.0424   -4.9195   23.6420 C   0  0  0  0  0  0  0  0  0  0  0  0
   13.6137    4.8092   22.7252 C   0  0  0  0  0  0  0  0  0  0  0  0
    6.7821   -6.6680   21.9613 C   0  0  0  0  0  0  0  0  0  0  0  0
    5.6367   -4.9286   22.8337 C   0  0  0  0  0  0  0  0  0  0  0  0
   11.7677    3.9085   23.6688 C   0  0  0  0  0  0  0  0  0  0  0  0
   12.5206    5.1050   23.5065 C   0  0  0  0  0  0  0  0  0  0  0  0
    6.8944   -5.3421   22.3203 C   0  0  0  0  0  0  0  0  0  0  0  0
   12.4385    2.9039   22.9680 C   0  0  0  0  0  0  0  0  0  0  0  0
   10.7917    1.2849   23.5911 C   0  0  0  0  0  0  0  0  0  0  0  0
   10.1012    2.2670   24.2985 C   0  0  0  0  0  0  0  0  0  0  0  0
    4.7918   -6.0327   22.7680 C   0  0  0  0  0  0  0  0  0  0  0  0
    8.5808   -3.9443   23.5157 C   0  0  0  0  0  0  0  0  0  0  0  0
    9.1335    7.2162   23.0174 C   0  0  0  0  0  0  0  0  0  0  0  0
   10.5390   -0.8883   22.4047 C   0  0  0  0  0  0  0  0  0  0  0  0
    9.5566   -0.5655   24.6967 C   0  0  0  0  0  0  0  0  0  0  0  0
    9.4189   -1.9187   22.2602 C   0  0  0  0  0  0  0  0  0  0  0  0
    9.6648   -2.0884   24.7282 C   0  0  0  0  0  0  0  0  0  0  0  0
    7.9935    6.6245   22.2568 C   0  0  0  0  0  0  0  0  0  0  0  0
    8.1265   -4.4982   22.1876 C   0  0  0  0  0  0  0  0  0  0  0  0
   12.1963    6.4308   24.0708 C   0  0  0  0  0  0  0  0  0  0  0  0
   11.6113    7.4220   23.0483 C   0  0  0  0  0  0  0  0  0  0  0  0
    3.5022   -6.0935   23.1503 N   0  0  0  0  0  0  0  0  0  0  0  0
   13.5553    3.4793   22.4051 N   0  0  0  0  0  0  0  0  0  0  0  0
    5.5029   -7.0764   22.2369 N   0  0  0  0  0  0  0  0  0  0  0  0
   10.2986   -0.0173   23.5579 N   0  0  0  0  0  0  0  0  0  0  0  0
    9.2007   -2.6947   23.4830 N   0  0  0  0  0  0  0  0  0  0  0  0
   10.3802    6.9470   22.4759 N   0  0  0  0  0  0  0  0  0  0  0  0
    8.3964   -4.5988   24.5446 O   0  0  0  0  0  0  0  0  0  0  0  0
    8.9098    7.8747   24.0264 O   0  0  0  0  0  0  0  0  0  0  0  0
    8.9667    1.9603   24.9455 F   0  0  0  0  0  0  0  0  0  0  0  0
  1  2  2  0
  1  5  1  0
  2  8  1  0
  3  9  2  0
  3 14  1  0
  4 12  2  0
  4 13  1  0
  5 26  2  0
  6 10  2  0
  6 27  1  0
  7 11  2  0
  7 28  1  0
  8 11  1  0
  8 15  2  0
  9 10  1  0
  9 12  1  0
 10 24  1  0
 11 23  1  0
 12 27  1  0
 13 14  2  0
 13 29  1  0
 14 34  1  0
 15 26  1  0
 15 28  1  0
 16 23  1  0
 16 30  1  0
 16 32  2  0
 17 22  1  0
 17 31  1  0
 17 33  2  0
 18 20  1  0
 18 29  1  0
 19 21  1  0
 19 29  1  0
 20 30  1  0
 21 30  1  0
 24 25  1  0
 25 31  1  0
M  END
