MAK-UNK-de9577cf-16
     RDKit          3D

 37 40  0  0  0  0  0  0  0  0999 V2000
    4.8890   -4.6240   24.6865 C   0  0  0  0  0  0  0  0  0  0  0  0
    4.7001   -5.8547   24.0576 C   0  0  0  0  0  0  0  0  0  0  0  0
    5.7184   -3.6643   24.1062 C   0  0  0  0  0  0  0  0  0  0  0  0
    8.9713    2.1175   24.5938 C   0  0  0  0  0  0  0  0  0  0  0  0
   10.9076    0.6797   24.4505 C   0  0  0  0  0  0  0  0  0  0  0  0
    5.3407   -6.1257   22.8486 C   0  0  0  0  0  0  0  0  0  0  0  0
    9.7209    3.1777   24.0843 C   0  0  0  0  0  0  0  0  0  0  0  0
   11.6572    1.7399   23.9410 C   0  0  0  0  0  0  0  0  0  0  0  0
    8.3056   -2.4142   27.2024 C   0  0  0  0  0  0  0  0  0  0  0  0
    6.8853   -1.9432   21.4101 C   0  0  0  0  0  0  0  0  0  0  0  0
    7.6296   -3.5251   27.6804 C   0  0  0  0  0  0  0  0  0  0  0  0
    8.0511   -4.7180   25.7627 C   0  0  0  0  0  0  0  0  0  0  0  0
    9.0907   -1.8034   21.8420 C   0  0  0  0  0  0  0  0  0  0  0  0
    6.3591   -3.9354   22.8972 C   0  0  0  0  0  0  0  0  0  0  0  0
    9.5647    0.8685   24.7770 C   0  0  0  0  0  0  0  0  0  0  0  0
    8.0710   -1.2242   21.1196 C   0  0  0  0  0  0  0  0  0  0  0  0
    8.8719   -2.4925   25.9349 C   0  0  0  0  0  0  0  0  0  0  0  0
    6.1702   -5.1660   22.2683 C   0  0  0  0  0  0  0  0  0  0  0  0
   11.0638    2.9890   23.7579 C   0  0  0  0  0  0  0  0  0  0  0  0
    8.7466   -3.6628   25.1947 C   0  0  0  0  0  0  0  0  0  0  0  0
    7.2166   -2.9399   22.3014 C   0  0  0  0  0  0  0  0  0  0  0  0
    8.7675   -0.2595   25.3230 C   0  0  0  0  0  0  0  0  0  0  0  0
    8.3250    0.7259   17.8464 C   0  0  0  0  0  0  0  0  0  0  0  0
    8.1928   -0.0681   20.2109 C   0  0  0  0  0  0  0  0  0  0  0  0
    7.4872   -4.6791   26.9908 N   0  0  0  0  0  0  0  0  0  0  0  0
    8.5597   -2.8451   22.5570 N   0  0  0  0  0  0  0  0  0  0  0  0
   12.6169    5.0013   24.5598 N   0  0  0  0  0  0  0  0  0  0  0  0
    8.1455   -0.4287   18.7604 N   0  0  0  0  0  0  0  0  0  0  0  0
    7.5893   -0.1585   25.6309 O   0  0  0  0  0  0  0  0  0  0  0  0
   10.7914   -3.2507   23.5910 O   0  0  0  0  0  0  0  0  0  0  0  0
    9.2330   -5.2180   23.1742 O   0  0  0  0  0  0  0  0  0  0  0  0
   13.1093    3.7683   22.3501 O   0  0  0  0  0  0  0  0  0  0  0  0
   11.0920    5.2701   22.5008 O   0  0  0  0  0  0  0  0  0  0  0  0
    9.5423   -1.4158   25.4389 O   0  0  0  0  0  0  0  0  0  0  0  0
    6.7788   -5.4420   21.1055 F   0  0  0  0  0  0  0  0  0  0  0  0
    9.4463   -3.8246   23.5724 S   0  0  0  0  0  0  0  0  0  0  0  0
   12.0018    4.3166   23.1203 S   0  0  0  0  0  0  0  0  0  0  0  0
  1  2  2  0
  1  3  1  0
  2  6  1  0
  3 14  2  0
  4  7  2  0
  4 15  1  0
  5  8  1  0
  5 15  2  0
  6 18  2  0
  7 19  1  0
  8 19  2  0
  9 11  2  0
  9 17  1  0
 10 16  1  0
 10 21  2  0
 11 25  1  0
 12 20  1  0
 12 25  2  0
 13 16  2  0
 13 26  1  0
 14 18  1  0
 14 21  1  0
 15 22  1  0
 16 24  1  0
 17 20  2  0
 17 34  1  0
 18 35  1  0
 19 37  1  0
 20 36  1  0
 21 26  1  0
 22 29  2  0
 22 34  1  0
 23 28  1  0
 24 28  1  0
 26 36  1  0
 27 37  1  0
 30 36  2  0
 31 36  2  0
 32 37  2  0
 33 37  2  0
M  CHG  1  28   1
M  END
