MAK-UNK-7264f48c-4
     RDKit          3D

 26 28  0  0  0  0  0  0  0  0999 V2000
    4.6779    0.8073   19.1671 C   0  0  0  0  0  0  0  0  0  0  0  0
    7.1556   -4.8959   23.1839 C   0  0  0  0  0  0  0  0  0  0  0  0
    5.4653    0.4462   18.0858 C   0  0  0  0  0  0  0  0  0  0  0  0
    7.3517    0.3113   19.3902 C   0  0  0  0  0  0  0  0  0  0  0  0
    5.7899   -4.9027   23.0039 C   0  0  0  0  0  0  0  0  0  0  0  0
    6.4148   -4.3220   25.3109 C   0  0  0  0  0  0  0  0  0  0  0  0
    5.2906    0.9173   20.4104 C   0  0  0  0  0  0  0  0  0  0  0  0
    6.6528    0.6663   20.5326 C   0  0  0  0  0  0  0  0  0  0  0  0
    7.5177   -4.5596   24.5203 C   0  0  0  0  0  0  0  0  0  0  0  0
    8.9887    1.1065   23.4274 C   0  0  0  0  0  0  0  0  0  0  0  0
    8.6451    1.1100   21.9867 C   0  0  0  0  0  0  0  0  0  0  0  0
    9.2181   -0.4316   25.3412 C   0  0  0  0  0  0  0  0  0  0  0  0
   10.2707   -1.0632   23.1992 C   0  0  0  0  0  0  0  0  0  0  0  0
    8.6252   -1.8303   25.4670 C   0  0  0  0  0  0  0  0  0  0  0  0
    9.6816   -2.4649   23.3230 C   0  0  0  0  0  0  0  0  0  0  0  0
    4.4657    1.3057   21.5934 C   0  0  0  0  0  0  0  0  0  0  0  0
    6.7912    0.1944   18.1655 N   0  0  0  0  0  0  0  0  0  0  0  0
    9.4598   -0.0923   23.9407 N   0  0  0  0  0  0  0  0  0  0  0  0
    9.5124   -2.8089   24.7676 N   0  0  0  0  0  0  0  0  0  0  0  0
    7.3223    0.7646   21.7767 N   0  0  0  0  0  0  0  0  0  0  0  0
    8.8214    2.1679   24.0136 O   0  0  0  0  0  0  0  0  0  0  0  0
    9.5067    1.4004   21.1683 O   0  0  0  0  0  0  0  0  0  0  0  0
    9.1722   -4.6625   26.5266 O   0  0  0  0  0  0  0  0  0  0  0  0
   10.0039   -5.2799   24.2300 O   0  0  0  0  0  0  0  0  0  0  0  0
    4.9504   -4.5047   24.4424 S   0  0  0  0  0  0  0  0  0  0  0  0
    9.1840   -4.4586   25.0941 S   0  0  0  0  0  0  0  0  0  0  0  0
  1  3  2  0
  1  7  1  0
  2  5  2  0
  2  9  1  0
  3 17  1  0
  4  8  1  0
  4 17  2  0
  5 25  1  0
  6  9  2  0
  6 25  1  0
  7  8  2  0
  7 16  1  0
  8 20  1  0
  9 26  1  0
 10 11  1  0
 10 18  1  0
 10 21  2  0
 11 20  1  0
 11 22  2  0
 12 14  1  0
 12 18  1  0
 13 15  1  0
 13 18  1  0
 14 19  1  0
 15 19  1  0
 19 26  1  0
 23 26  2  0
 24 26  2  0
M  END
