MAK-UNK-902cc841-14
     RDKit          3D

 29 31  0  0  1  0  0  0  0  0999 V2000
   11.9478    2.6246   23.7010 C   0  0  0  0  0  0  0  0  0  0  0  0
   12.8270    1.8207   22.9756 C   0  0  0  0  0  0  0  0  0  0  0  0
   11.0810    2.0487   24.6298 C   0  0  0  0  0  0  0  0  0  0  0  0
    9.5586   -3.5617   25.1315 C   0  0  0  0  0  0  0  0  0  0  0  0
   11.9725   -0.1352   24.1077 C   0  0  0  0  0  0  0  0  0  0  0  0
    9.3126   -4.6172   25.9818 C   0  0  0  0  0  0  0  0  0  0  0  0
    7.4576   -3.0022   25.9533 C   0  0  0  0  0  0  0  0  0  0  0  0
   12.8393    0.4407   23.1789 C   0  0  0  0  0  0  0  0  0  0  0  0
    8.4841   -2.6260   25.1150 C   0  0  0  0  0  0  0  0  0  0  0  0
   11.0933    0.6688   24.8331 C   0  0  0  0  0  0  0  0  0  0  0  0
   13.7557   -0.3975   22.4225 C   0  0  0  0  0  0  0  0  0  0  0  0
    5.8763   -1.8755   19.4046 C   0  0  0  0  0  0  0  0  0  0  0  0
    6.5118   -0.2476   21.2491 C   0  0  0  0  0  0  0  0  0  0  0  0
    5.9276   -2.5817   21.7733 C   0  0  0  0  0  0  0  0  0  0  0  0
    7.6723   -0.3431   22.2413 C   0  0  0  0  0  0  0  0  0  0  0  0
    7.1018   -2.6345   22.7500 C   0  0  0  0  0  0  0  0  0  0  0  0
    5.9856   -0.7393   18.4192 C   0  0  0  0  0  0  0  0  0  0  0  0
   14.0569   -2.5730   21.4902 C   0  0  0  0  0  0  0  0  0  0  0  0
    8.4735   -1.3650   24.2721 C   0  0  0  0  0  0  0  0  0  0  0  0
    6.1429   -1.5713   20.7387 N   0  0  0  0  0  0  0  0  0  0  0  0
    7.3712   -1.3035   23.3131 N   0  0  0  0  0  0  0  0  0  0  0  0
   10.1984    0.0759   25.7918 N   0  0  0  0  0  0  0  0  0  0  0  0
   14.8628   -0.0286   22.0083 O   0  0  0  0  0  0  0  0  0  0  0  0
    5.5673   -2.9989   18.9992 O   0  0  0  0  0  0  0  0  0  0  0  0
    8.2148    1.2391   24.6597 O   0  0  0  0  0  0  0  0  0  0  0  0
    7.7447   -0.3059   26.5903 O   0  0  0  0  0  0  0  0  0  0  0  0
   13.2440   -1.6509   22.2240 O   0  0  0  0  0  0  0  0  0  0  0  0
    7.7913   -4.4778   26.7555 S   0  0  0  0  0  0  0  0  0  0  0  0
    8.5192    0.0355   25.4123 S   0  0  0  0  0  0  0  0  0  0  0  0
  1  2  2  0
  1  3  1  0
  2  8  1  0
  3 10  2  0
  4  6  2  0
  4  9  1  0
  5  8  2  0
  5 10  1  0
  6 28  1  0
  7  9  2  0
  7 28  1  0
  8 11  1  0
  9 19  1  0
 10 22  1  0
 11 23  2  0
 11 27  1  0
 12 17  1  0
 12 20  1  0
 12 24  2  0
 13 15  1  0
 13 20  1  0
 14 16  1  0
 14 20  1  0
 15 21  1  0
 16 21  1  0
 18 27  1  0
 19 21  1  0
 19 29  1  0
 22 29  1  0
 25 29  2  0
 26 29  2  0
M  END
