MAK-UNK-8145c7a0-6
     RDKit          3D

 26 28  0  0  1  0  0  0  0  0999 V2000
   13.1383    0.5998   24.3951 C   0  0  0  0  0  0  0  0  0  0  0  0
   13.7400   -0.4622   23.7200 C   0  0  0  0  0  0  0  0  0  0  0  0
   12.3371    0.3533   25.5100 C   0  0  0  0  0  0  0  0  0  0  0  0
   13.5403   -1.7708   24.1597 C   0  0  0  0  0  0  0  0  0  0  0  0
   12.1374   -0.9553   25.9497 C   0  0  0  0  0  0  0  0  0  0  0  0
   12.7390   -2.0174   25.2746 C   0  0  0  0  0  0  0  0  0  0  0  0
    6.6837   -0.0477   19.1976 C   0  0  0  0  0  0  0  0  0  0  0  0
    6.1938   -1.9689   20.4766 C   0  0  0  0  0  0  0  0  0  0  0  0
    7.8847   -5.0576   24.2724 C   0  0  0  0  0  0  0  0  0  0  0  0
    6.5754   -5.2844   24.1059 C   0  0  0  0  0  0  0  0  0  0  0  0
    5.8156   -4.7593   22.9231 C   0  0  0  0  0  0  0  0  0  0  0  0
    7.9165   -4.0452   21.9441 C   0  0  0  0  0  0  0  0  0  0  0  0
    8.6805   -4.2983   23.2545 C   0  0  0  0  0  0  0  0  0  0  0  0
    6.9106    0.9472   18.1299 C   0  0  0  0  0  0  0  0  0  0  0  0
   12.5224   -3.4328   25.7506 C   0  0  0  0  0  0  0  0  0  0  0  0
    5.8189   -3.3350   20.9741 C   0  0  0  0  0  0  0  0  0  0  0  0
   11.3104   -4.0995   25.1046 C   0  0  0  0  0  0  0  0  0  0  0  0
    6.8339    0.1729   20.4863 N   0  0  0  0  0  0  0  0  0  0  0  0
    6.5475   -0.9543   21.2365 N   0  0  0  0  0  0  0  0  0  0  0  0
    6.5173   -3.6772   22.2114 N   0  0  0  0  0  0  0  0  0  0  0  0
   10.0578   -3.3659   25.3609 N   0  0  0  0  0  0  0  0  0  0  0  0
   10.0290   -2.0553   23.1302 O   0  0  0  0  0  0  0  0  0  0  0  0
    7.9470   -2.1520   24.5488 O   0  0  0  0  0  0  0  0  0  0  0  0
    5.9109   -5.9917   25.0462 F   0  0  0  0  0  0  0  0  0  0  0  0
    6.1814   -1.6372   18.7940 S   0  0  0  0  0  0  0  0  0  0  0  0
    9.1531   -2.7787   24.0354 S   0  0  0  0  0  0  0  0  0  0  0  0
  1  2  2  0
  1  3  1  0
  2  4  1  0
  3  5  2  0
  4  6  2  0
  5  6  1  0
  6 15  1  0
  7 14  1  0
  7 18  2  0
  7 25  1  0
  8 16  1  0
  8 19  2  0
  8 25  1  0
  9 10  2  0
  9 13  1  0
 10 11  1  0
 10 24  1  0
 11 20  1  0
 12 13  1  0
 12 20  1  0
 13 26  1  0
 15 17  1  0
 16 20  1  0
 17 21  1  0
 18 19  1  0
 21 26  1  0
 22 26  2  0
 23 26  2  0
M  END
