MAK-UNK-516d8086-27
     RDKit          3D

 22 24  0  0  0  0  0  0  0  0999 V2000
    7.1781   -0.0619   19.3147 C   0  0  0  0  0  0  0  0  0  0  0  0
    9.9859    0.1463   24.8241 C   0  0  0  0  0  0  0  0  0  0  0  0
    8.9645   -0.7770   24.5758 C   0  0  0  0  0  0  0  0  0  0  0  0
    7.5778   -1.4167   21.3201 C   0  0  0  0  0  0  0  0  0  0  0  0
   10.3287   -1.9157   22.9156 C   0  0  0  0  0  0  0  0  0  0  0  0
    5.8057   -2.0159   19.8514 C   0  0  0  0  0  0  0  0  0  0  0  0
    6.8532   -1.1634   20.1607 C   0  0  0  0  0  0  0  0  0  0  0  0
   11.3190   -0.9888   23.1833 C   0  0  0  0  0  0  0  0  0  0  0  0
   11.1708    0.0307   24.1155 C   0  0  0  0  0  0  0  0  0  0  0  0
    9.1353   -1.8005   23.6282 C   0  0  0  0  0  0  0  0  0  0  0  0
    7.2374   -2.4994   22.1234 C   0  0  0  0  0  0  0  0  0  0  0  0
    6.1725   -3.2919   21.7263 C   0  0  0  0  0  0  0  0  0  0  0  0
   12.6438   -0.8769   22.5945 C   0  0  0  0  0  0  0  0  0  0  0  0
   12.3814    0.9009   24.2216 C   0  0  0  0  0  0  0  0  0  0  0  0
   13.3679    0.2986   23.2059 C   0  0  0  0  0  0  0  0  0  0  0  0
    4.5990   -6.3424   23.2570 C   0  0  0  0  0  0  0  0  0  0  0  0
    8.0296   -2.7731   23.3854 C   0  0  0  0  0  0  0  0  0  0  0  0
    4.7441   -5.2759   22.2254 C   0  0  0  0  0  0  0  0  0  0  0  0
    7.4425    0.8342   18.6264 N   0  0  0  0  0  0  0  0  0  0  0  0
    5.4453   -3.0774   20.6070 N   0  0  0  0  0  0  0  0  0  0  0  0
    5.8221   -4.3971   22.5417 N   0  0  0  0  0  0  0  0  0  0  0  0
   13.0799   -1.6272   21.7407 O   0  0  0  0  0  0  0  0  0  0  0  0
  1  7  1  0
  1 19  3  0
  2  3  2  0
  2  9  1  0
  3 10  1  0
  4  7  2  0
  4 11  1  0
  5  8  1  0
  5 10  2  0
  6  7  1  0
  6 20  2  0
  8  9  2  0
  8 13  1  0
  9 14  1  0
 10 17  1  0
 11 12  2  0
 11 17  1  0
 12 20  1  0
 12 21  1  0
 13 15  1  0
 13 22  2  0
 14 15  1  0
 16 18  1  0
 18 21  1  0
M  END
