MAK-UNK-6435e6c2-2
     RDKit          3D

 15 16  0  0  0  0  0  0  0  0999 V2000
    5.2558    0.9467   19.2083 C   0  0  0  0  0  0  0  0  0  0  0  0
    5.7465    0.1663   20.2947 C   0  0  0  0  0  0  0  0  0  0  0  0
    6.0945    0.8989   18.1165 C   0  0  0  0  0  0  0  0  0  0  0  0
    6.9416   -0.4485   19.9918 C   0  0  0  0  0  0  0  0  0  0  0  0
   11.9488    1.0966   23.5563 C   0  0  0  0  0  0  0  0  0  0  0  0
   11.2482   -0.9796   22.4075 C   0  0  0  0  0  0  0  0  0  0  0  0
   10.5958    1.1747   21.4042 C   0  0  0  0  0  0  0  0  0  0  0  0
    9.8226   -1.4954   22.2773 C   0  0  0  0  0  0  0  0  0  0  0  0
    9.1597    0.6903   21.2571 C   0  0  0  0  0  0  0  0  0  0  0  0
   12.5319    2.4590   23.2775 C   0  0  0  0  0  0  0  0  0  0  0  0
    7.7742   -1.3482   20.8568 C   0  0  0  0  0  0  0  0  0  0  0  0
   11.2724    0.4799   22.5047 N   0  0  0  0  0  0  0  0  0  0  0  0
    9.1573   -0.8141   21.1023 N   0  0  0  0  0  0  0  0  0  0  0  0
   12.0890    0.5984   24.6762 O   0  0  0  0  0  0  0  0  0  0  0  0
    7.4671   -0.0839   18.4033 S   0  0  0  0  0  0  0  0  0  0  0  0
  1  2  1  0
  1  3  2  0
  2  4  2  0
  3 15  1  0
  4 11  1  0
  4 15  1  0
  5 10  1  0
  5 12  1  0
  5 14  2  0
  6  8  1  0
  6 12  1  0
  7  9  1  0
  7 12  1  0
  8 13  1  0
  9 13  1  0
 11 13  1  0
M  CHG  1  13   1
M  END
