MAK-UNK-b1d4dcd7-10
     RDKit          3D

 29 32  0  0  1  0  0  0  0  0999 V2000
    7.3520    0.7670   26.3037 C   0  0  0  0  0  0  0  0  0  0  0  0
    7.8212   -0.2584   27.1247 C   0  0  0  0  0  0  0  0  0  0  0  0
    6.3149    0.5208   25.4040 C   0  0  0  0  0  0  0  0  0  0  0  0
   11.9790    1.6106   22.8450 C   0  0  0  0  0  0  0  0  0  0  0  0
    7.2534   -1.5300   27.0460 C   0  0  0  0  0  0  0  0  0  0  0  0
    5.7471   -0.7509   25.3253 C   0  0  0  0  0  0  0  0  0  0  0  0
   12.1208    0.2090   22.6316 C   0  0  0  0  0  0  0  0  0  0  0  0
   11.2370    1.8900   23.9714 C   0  0  0  0  0  0  0  0  0  0  0  0
    6.2163   -1.7763   26.1462 C   0  0  0  0  0  0  0  0  0  0  0  0
   11.4820   -0.5295   23.6034 C   0  0  0  0  0  0  0  0  0  0  0  0
    6.7481   -4.7554   22.1048 C   0  0  0  0  0  0  0  0  0  0  0  0
    5.8963   -6.3020   26.0468 C   0  0  0  0  0  0  0  0  0  0  0  0
    7.3927   -6.4648   26.2755 C   0  0  0  0  0  0  0  0  0  0  0  0
    7.8198   -2.5739   22.5259 C   0  0  0  0  0  0  0  0  0  0  0  0
    5.5975   -5.3692   24.8830 C   0  0  0  0  0  0  0  0  0  0  0  0
    9.2701   -2.1293   22.4411 C   0  0  0  0  0  0  0  0  0  0  0  0
    9.9296   -4.0314   23.8990 C   0  0  0  0  0  0  0  0  0  0  0  0
    8.4754   -4.5100   23.9620 C   0  0  0  0  0  0  0  0  0  0  0  0
    7.7951   -4.1438   25.2838 C   0  0  0  0  0  0  0  0  0  0  0  0
    8.0802   -5.1109   26.4423 C   0  0  0  0  0  0  0  0  0  0  0  0
    7.0751   -6.2079   21.8615 C   0  0  0  0  0  0  0  0  0  0  0  0
    5.6053   -3.1439   26.0608 C   0  0  0  0  0  0  0  0  0  0  0  0
   11.3973   -2.0214   23.7373 C   0  0  0  0  0  0  0  0  0  0  0  0
    7.6946   -4.0065   22.8113 N   0  0  0  0  0  0  0  0  0  0  0  0
    9.9854   -2.5366   23.7045 N   0  0  0  0  0  0  0  0  0  0  0  0
    6.2912   -4.0360   25.0562 N   0  0  0  0  0  0  0  0  0  0  0  0
    5.6873   -4.2981   21.6711 O   0  0  0  0  0  0  0  0  0  0  0  0
    9.4832   -5.3035   26.6015 O   0  0  0  0  0  0  0  0  0  0  0  0
   10.7150    0.4661   24.7665 S   0  0  0  0  0  0  0  0  0  0  0  0
  1  2  2  0
  1  3  1  0
  2  5  1  0
  3  6  2  0
  4  7  1  0
  4  8  2  0
  5  9  2  0
  6  9  1  0
  7 10  2  0
  8 29  1  0
  9 22  1  0
 10 23  1  0
 10 29  1  0
 11 21  1  0
 11 24  1  0
 11 27  2  0
 12 13  1  0
 12 15  1  0
 13 20  1  0
 14 16  1  0
 14 24  1  0
 15 26  1  0
 16 25  1  0
 17 18  1  0
 17 25  1  0
 18 19  1  0
 18 24  1  0
 19 20  1  0
 19 26  1  0
 20 28  1  0
 22 26  1  0
 23 25  1  0
M  CHG  2  25   1  26   1
M  END
