MAK-UNK-176ca439-1
     RDKit          3D

 25 25  0  0  0  0  0  0  0  0999 V2000
   11.9719    0.7498   23.7923 C   0  0  0  0  0  0  0  0  0  0  0  0
    9.6339   -4.6647   25.5817 C   0  0  0  0  0  0  0  0  0  0  0  0
    4.9216   -5.6430   24.2925 C   0  0  0  0  0  0  0  0  0  0  0  0
    6.1196   -3.3972   22.2375 C   0  0  0  0  0  0  0  0  0  0  0  0
    9.6489   -0.0222   24.1507 C   0  0  0  0  0  0  0  0  0  0  0  0
   11.1381   -1.4303   22.7824 C   0  0  0  0  0  0  0  0  0  0  0  0
    8.5593   -0.1099   23.0921 C   0  0  0  0  0  0  0  0  0  0  0  0
   10.0696   -1.5409   21.7032 C   0  0  0  0  0  0  0  0  0  0  0  0
   10.9322   -4.3902   26.2653 C   0  0  0  0  0  0  0  0  0  0  0  0
   13.3080    0.4983   23.1402 C   0  0  0  0  0  0  0  0  0  0  0  0
    5.1741   -6.0953   25.7214 C   0  0  0  0  0  0  0  0  0  0  0  0
    4.7807   -3.5752   22.9203 C   0  0  0  0  0  0  0  0  0  0  0  0
    6.5357   -5.6671   26.2717 C   0  0  0  0  0  0  0  0  0  0  0  0
    7.7213   -6.2518   25.5068 C   0  0  0  0  0  0  0  0  0  0  0  0
    7.5997   -1.6112   21.3427 C   0  0  0  0  0  0  0  0  0  0  0  0
   10.9744   -0.1952   23.5565 N   0  0  0  0  0  0  0  0  0  0  0  0
    4.9631   -4.2554   24.1681 N   0  0  0  0  0  0  0  0  0  0  0  0
    8.9837   -5.8052   26.0277 N   0  0  0  0  0  0  0  0  0  0  0  0
    6.4033   -2.0568   22.0158 N   0  0  0  0  0  0  0  0  0  0  0  0
    8.7046   -1.4153   22.3423 N   0  0  0  0  0  0  0  0  0  0  0  0
   11.8206    1.7575   24.4877 O   0  0  0  0  0  0  0  0  0  0  0  0
    9.2373   -3.9013   24.7090 O   0  0  0  0  0  0  0  0  0  0  0  0
    4.7276   -6.4219   23.3632 O   0  0  0  0  0  0  0  0  0  0  0  0
    6.8341   -4.3364   21.8960 O   0  0  0  0  0  0  0  0  0  0  0  0
   14.3446    1.8520   23.5770 Cl  0  0  0  0  0  0  0  0  0  0  0  0
  1 10  1  0
  1 16  1  0
  1 21  2  0
  2  9  1  0
  2 18  1  0
  2 22  2  0
  3 11  1  0
  3 17  1  0
  3 23  2  0
  4 12  1  0
  4 19  1  0
  4 24  2  0
  5  7  1  0
  5 16  1  0
  6  8  1  0
  6 16  1  0
  7 20  1  0
  8 20  1  0
 10 25  1  0
 11 13  1  0
 12 17  1  0
 13 14  1  0
 14 18  1  0
 15 19  1  0
 15 20  1  0
M  CHG  1  20   1
M  END
