MAK-UNK-1bb0b7ee-6
     RDKit          3D

 13 14  0  0  0  0  0  0  0  0999 V2000
   12.3030   -0.2327   24.3446 C   0  0  0  0  0  0  0  0  0  0  0  0
   13.4892   -0.8653   23.9897 C   0  0  0  0  0  0  0  0  0  0  0  0
   11.0895   -0.7385   23.8919 C   0  0  0  0  0  0  0  0  0  0  0  0
   13.4086   -1.9914   23.1866 C   0  0  0  0  0  0  0  0  0  0  0  0
   11.1163   -1.8703   23.0931 C   0  0  0  0  0  0  0  0  0  0  0  0
    9.6148   -3.4639   24.8991 C   0  0  0  0  0  0  0  0  0  0  0  0
    8.1958   -4.0819   23.3024 C   0  0  0  0  0  0  0  0  0  0  0  0
    8.9979   -2.8011   23.6419 C   0  0  0  0  0  0  0  0  0  0  0  0
   12.2486   -2.5121   22.7275 N   0  0  0  0  0  0  0  0  0  0  0  0
    7.1418   -3.9862   25.7508 O   0  0  0  0  0  0  0  0  0  0  0  0
    8.6619   -5.9398   25.1558 O   0  0  0  0  0  0  0  0  0  0  0  0
    9.9400   -2.3847   22.6368 O   0  0  0  0  0  0  0  0  0  0  0  0
    8.2368   -4.5653   25.0017 S   0  0  0  0  0  0  0  0  0  0  0  0
  1  2  2  0
  1  3  1  0
  2  4  1  0
  3  5  2  0
  4  9  2  0
  5  9  1  0
  5 12  1  0
  6  8  1  0
  6 13  1  0
  7  8  1  0
  7 13  1  0
  8 12  1  0
 10 13  2  0
 11 13  2  0
M  END
