MAK-UNK-9e4a73aa-12
     RDKit          3D

 26 29  0  0  0  0  0  0  0  0999 V2000
   14.1370   -0.3680   23.4348 C   0  0  0  0  0  0  0  0  0  0  0  0
   13.1139   -0.2507   24.3755 C   0  0  0  0  0  0  0  0  0  0  0  0
   13.8522   -0.8240   22.1476 C   0  0  0  0  0  0  0  0  0  0  0  0
    5.7917    1.1711   19.2063 C   0  0  0  0  0  0  0  0  0  0  0  0
   11.8058   -0.5895   24.0291 C   0  0  0  0  0  0  0  0  0  0  0  0
   12.5442   -1.1627   21.8013 C   0  0  0  0  0  0  0  0  0  0  0  0
    6.4068    0.5064   20.2613 C   0  0  0  0  0  0  0  0  0  0  0  0
    7.4667   -3.6636   23.5919 C   0  0  0  0  0  0  0  0  0  0  0  0
   10.1736   -3.2739   24.0267 C   0  0  0  0  0  0  0  0  0  0  0  0
    6.3316    1.0168   17.9396 C   0  0  0  0  0  0  0  0  0  0  0  0
    7.9893   -0.3706   18.7177 C   0  0  0  0  0  0  0  0  0  0  0  0
    8.1592   -2.6697   22.8768 C   0  0  0  0  0  0  0  0  0  0  0  0
   11.5210   -1.0455   22.7420 C   0  0  0  0  0  0  0  0  0  0  0  0
    7.5272   -0.2811   20.0209 C   0  0  0  0  0  0  0  0  0  0  0  0
    9.5136   -2.4304   23.1102 C   0  0  0  0  0  0  0  0  0  0  0  0
    9.4883   -4.2654   24.7343 C   0  0  0  0  0  0  0  0  0  0  0  0
    8.1301   -4.4518   24.5264 C   0  0  0  0  0  0  0  0  0  0  0  0
    7.4391   -1.9303   21.8252 C   0  0  0  0  0  0  0  0  0  0  0  0
    9.5424   -0.6414   21.3743 C   0  0  0  0  0  0  0  0  0  0  0  0
    7.4185    0.2604   17.6672 N   0  0  0  0  0  0  0  0  0  0  0  0
   10.1757   -1.3937   22.3860 N   0  0  0  0  0  0  0  0  0  0  0  0
    8.1905   -0.9861   21.0998 N   0  0  0  0  0  0  0  0  0  0  0  0
    6.2669   -2.2347   21.6111 O   0  0  0  0  0  0  0  0  0  0  0  0
   10.1059    0.3172   20.8294 O   0  0  0  0  0  0  0  0  0  0  0  0
   10.1588   -5.0264   25.6113 F   0  0  0  0  0  0  0  0  0  0  0  0
    7.2744   -5.6679   25.3916 Cl  0  0  0  0  0  0  0  0  0  0  0  0
  1  2  2  0
  1  3  1  0
  2  5  1  0
  3  6  2  0
  4  7  2  0
  4 10  1  0
  5 13  2  0
  6 13  1  0
  7 14  1  0
  8 12  2  0
  8 17  1  0
  9 15  2  0
  9 16  1  0
 10 20  2  0
 11 14  2  0
 11 20  1  0
 12 15  1  0
 12 18  1  0
 13 21  1  0
 14 22  1  0
 15 21  1  0
 16 17  2  0
 16 25  1  0
 17 26  1  0
 18 22  1  0
 18 23  2  0
 19 21  1  0
 19 22  1  0
 19 24  2  0
M  END
