MAK-UNK-902cc841-17
     RDKit          3D

 25 27  0  0  1  0  0  0  0  0999 V2000
    5.6577    1.2942   19.0689 C   0  0  0  0  0  0  0  0  0  0  0  0
    9.0693   -2.4918   24.8196 C   0  0  0  0  0  0  0  0  0  0  0  0
    6.2690    0.9539   17.8730 C   0  0  0  0  0  0  0  0  0  0  0  0
    8.0605    0.0064   18.9551 C   0  0  0  0  0  0  0  0  0  0  0  0
    8.6442   -3.7846   25.0331 C   0  0  0  0  0  0  0  0  0  0  0  0
    9.1833   -3.3679   22.6698 C   0  0  0  0  0  0  0  0  0  0  0  0
    6.3083    0.9587   20.2510 C   0  0  0  0  0  0  0  0  0  0  0  0
    9.3815   -2.2503   23.4505 C   0  0  0  0  0  0  0  0  0  0  0  0
    7.5331    0.3025   20.2018 C   0  0  0  0  0  0  0  0  0  0  0  0
   15.0188   -1.8717   24.7401 C   0  0  0  0  0  0  0  0  0  0  0  0
    9.4586   -0.7156   21.4657 C   0  0  0  0  0  0  0  0  0  0  0  0
   13.5972   -1.7611   22.7183 C   0  0  0  0  0  0  0  0  0  0  0  0
   13.2628   -0.0530   24.4629 C   0  0  0  0  0  0  0  0  0  0  0  0
   12.0995   -2.0237   22.6594 C   0  0  0  0  0  0  0  0  0  0  0  0
   11.7589   -0.2887   24.4289 C   0  0  0  0  0  0  0  0  0  0  0  0
    5.6722    1.3141   21.5547 C   0  0  0  0  0  0  0  0  0  0  0  0
   15.8289   -0.9946   25.6611 C   0  0  0  0  0  0  0  0  0  0  0  0
    9.8736   -0.9223   22.9191 C   0  0  0  0  0  0  0  0  0  0  0  0
    7.4579    0.3164   17.7853 N   0  0  0  0  0  0  0  0  0  0  0  0
   13.9903   -1.2516   24.0321 N   0  0  0  0  0  0  0  0  0  0  0  0
    8.2339   -0.0603   21.3764 N   0  0  0  0  0  0  0  0  0  0  0  0
   11.3622   -0.7618   23.0483 N   0  0  0  0  0  0  0  0  0  0  0  0
   15.2918   -3.0718   24.6559 O   0  0  0  0  0  0  0  0  0  0  0  0
   10.1589   -1.1116   20.5379 O   0  0  0  0  0  0  0  0  0  0  0  0
    8.6228   -4.7010   23.5868 S   0  0  0  0  0  0  0  0  0  0  0  0
  1  3  2  0
  1  7  1  0
  2  5  2  0
  2  8  1  0
  3 19  1  0
  4  9  1  0
  4 19  2  0
  5 25  1  0
  6  8  2  0
  6 25  1  0
  7  9  2  0
  7 16  1  0
  8 18  1  0
  9 21  1  0
 10 17  1  0
 10 20  1  0
 10 23  2  0
 11 18  1  0
 11 21  1  0
 11 24  2  0
 12 14  1  0
 12 20  1  0
 13 15  1  0
 13 20  1  0
 14 22  1  0
 15 22  1  0
 18 22  1  0
M  CHG  1  22   1
M  END
