MAK-UNK-516d8086-11
     RDKit          3D

 22 24  0  0  0  0  0  0  0  0999 V2000
   14.0311   -2.3640   26.3887 C   0  0  0  0  0  0  0  0  0  0  0  0
    8.5736   -4.8264   24.3579 C   0  0  0  0  0  0  0  0  0  0  0  0
    9.5630   -3.8599   24.1475 C   0  0  0  0  0  0  0  0  0  0  0  0
   12.2915   -2.1233   24.6762 C   0  0  0  0  0  0  0  0  0  0  0  0
    8.3636   -2.9614   22.2258 C   0  0  0  0  0  0  0  0  0  0  0  0
   12.3354   -0.6031   26.5048 C   0  0  0  0  0  0  0  0  0  0  0  0
   12.8871   -1.6974   25.8582 C   0  0  0  0  0  0  0  0  0  0  0  0
    7.4019   -3.9253   22.4558 C   0  0  0  0  0  0  0  0  0  0  0  0
    7.4913   -4.8482   23.4990 C   0  0  0  0  0  0  0  0  0  0  0  0
    9.4585   -2.9359   23.0910 C   0  0  0  0  0  0  0  0  0  0  0  0
   11.1781   -1.4516   24.1839 C   0  0  0  0  0  0  0  0  0  0  0  0
   10.7027   -0.3685   24.9056 C   0  0  0  0  0  0  0  0  0  0  0  0
    6.1608   -4.1868   21.7206 C   0  0  0  0  0  0  0  0  0  0  0  0
    6.3101   -5.7557   23.4913 C   0  0  0  0  0  0  0  0  0  0  0  0
   10.5322   -1.9177   22.8952 C   0  0  0  0  0  0  0  0  0  0  0  0
    9.2417    1.6488   24.8004 C   0  0  0  0  0  0  0  0  0  0  0  0
   14.9620   -2.9063   26.8202 N   0  0  0  0  0  0  0  0  0  0  0  0
   11.2547    0.0747   26.0574 N   0  0  0  0  0  0  0  0  0  0  0  0
    5.5530   -5.2622   22.3565 N   0  0  0  0  0  0  0  0  0  0  0  0
    9.5682    0.3197   24.4074 N   0  0  0  0  0  0  0  0  0  0  0  0
    5.7819   -3.5575   20.7507 O   0  0  0  0  0  0  0  0  0  0  0  0
    8.0792    1.9879   24.1785 F   0  0  0  0  0  0  0  0  0  0  0  0
  1  7  1  0
  1 17  3  0
  2  3  2  0
  2  9  1  0
  3 10  1  0
  4  7  2  0
  4 11  1  0
  5  8  1  0
  5 10  2  0
  6  7  1  0
  6 18  2  0
  8  9  2  0
  8 13  1  0
  9 14  1  0
 10 15  1  0
 11 12  2  0
 11 15  1  0
 12 18  1  0
 12 20  1  0
 13 19  1  0
 13 21  2  0
 14 19  1  0
 16 20  1  0
 16 22  1  0
M  END
