MAK-UNK-0d6072ac-21
     RDKit          3D

 20 22  0  0  1  0  0  0  0  0999 V2000
   13.1162   -3.5831   25.4151 C   0  0  0  0  0  0  0  0  0  0  0  0
   13.6738   -2.3385   25.7197 C   0  0  0  0  0  0  0  0  0  0  0  0
   11.6118   -1.2076   25.1201 C   0  0  0  0  0  0  0  0  0  0  0  0
    7.4442   -2.8818   23.5416 C   0  0  0  0  0  0  0  0  0  0  0  0
    8.6498   -4.9780   23.7609 C   0  0  0  0  0  0  0  0  0  0  0  0
   11.0265   -2.4521   24.8057 C   0  0  0  0  0  0  0  0  0  0  0  0
    9.7385   -2.8544   24.3287 C   0  0  0  0  0  0  0  0  0  0  0  0
    7.4919   -4.2693   23.4301 C   0  0  0  0  0  0  0  0  0  0  0  0
    8.5576   -2.1616   23.9888 C   0  0  0  0  0  0  0  0  0  0  0  0
   11.7925   -3.6077   24.9610 C   0  0  0  0  0  0  0  0  0  0  0  0
    9.7551   -4.2440   24.2064 C   0  0  0  0  0  0  0  0  0  0  0  0
   12.9346   -1.1670   25.5751 C   0  0  0  0  0  0  0  0  0  0  0  0
    6.6125   -5.6876   21.5963 C   0  0  0  0  0  0  0  0  0  0  0  0
    8.4293   -0.6733   24.0834 C   0  0  0  0  0  0  0  0  0  0  0  0
    5.7420   -5.9859   24.0055 C   0  0  0  0  0  0  0  0  0  0  0  0
    6.2890   -5.0131   22.9512 C   0  0  0  0  0  0  0  0  0  0  0  0
   11.0032   -4.6718   24.5935 N   0  0  0  0  0  0  0  0  0  0  0  0
    7.5458   -6.5413   21.6468 O   0  0  0  0  0  0  0  0  0  0  0  0
    5.9215   -5.3230   20.6043 O   0  0  0  0  0  0  0  0  0  0  0  0
   13.6543    0.3501   25.9614 Cl  0  0  0  0  0  0  0  0  0  0  0  0
  1  2  2  0
  1 10  1  0
  2 12  1  0
  3  6  1  0
  3 12  2  0
  4  8  2  0
  4  9  1  0
  5  8  1  0
  5 11  2  0
  6  7  1  0
  6 10  2  0
  7  9  2  0
  7 11  1  0
  8 16  1  0
  9 14  1  0
 10 17  1  0
 11 17  1  0
 12 20  1  0
 13 16  1  0
 13 18  1  0
 13 19  2  0
 15 16  1  0
M  CHG  1  18  -1
M  END
