MAK-UNK-9a6be56d-2
     RDKit          3D

 38 42  0  0  1  0  0  0  0  0999 V2000
   14.5331   -1.3151   24.3667 C   0  0  0  0  0  0  0  0  0  0  0  0
   14.5719   -2.0598   23.1879 C   0  0  0  0  0  0  0  0  0  0  0  0
   10.9850    6.3832   23.1872 C   0  0  0  0  0  0  0  0  0  0  0  0
   13.4139   -0.5375   24.6639 C   0  0  0  0  0  0  0  0  0  0  0  0
    6.4748   -2.5636   21.4208 C   0  0  0  0  0  0  0  0  0  0  0  0
   13.4915   -2.0268   22.3063 C   0  0  0  0  0  0  0  0  0  0  0  0
   11.0954    5.0661   22.7554 C   0  0  0  0  0  0  0  0  0  0  0  0
    6.2184   -1.5709   20.4820 C   0  0  0  0  0  0  0  0  0  0  0  0
   10.0596   -0.0433   24.8236 C   0  0  0  0  0  0  0  0  0  0  0  0
    8.5282   -0.8769   20.6161 C   0  0  0  0  0  0  0  0  0  0  0  0
   11.7797    6.7866   24.2480 C   0  0  0  0  0  0  0  0  0  0  0  0
   12.7346    4.7059   24.4404 C   0  0  0  0  0  0  0  0  0  0  0  0
    9.8620    2.1127   24.2052 C   0  0  0  0  0  0  0  0  0  0  0  0
   12.3335   -0.5045   23.7823 C   0  0  0  0  0  0  0  0  0  0  0  0
    7.7599   -2.7135   21.9710 C   0  0  0  0  0  0  0  0  0  0  0  0
   12.3722   -1.2492   22.6034 C   0  0  0  0  0  0  0  0  0  0  0  0
    9.2220    1.0978   24.8818 C   0  0  0  0  0  0  0  0  0  0  0  0
    8.8272   -1.8767   21.5626 C   0  0  0  0  0  0  0  0  0  0  0  0
    7.2444   -0.7255   20.0824 C   0  0  0  0  0  0  0  0  0  0  0  0
   11.9845    4.2049   23.3887 C   0  0  0  0  0  0  0  0  0  0  0  0
   11.1860    0.3090   24.1134 C   0  0  0  0  0  0  0  0  0  0  0  0
    7.9818   -3.8194   22.9743 C   0  0  0  0  0  0  0  0  0  0  0  0
    9.2274   -3.5622   23.8103 C   0  0  0  0  0  0  0  0  0  0  0  0
   10.3976   -3.2265   22.8980 C   0  0  0  0  0  0  0  0  0  0  0  0
    5.4708    0.6425   25.4322 C   0  0  0  0  0  0  0  0  0  0  0  0
   11.2290   -1.2390   21.6303 C   0  0  0  0  0  0  0  0  0  0  0  0
    7.9064    1.1848   25.5443 C   0  0  0  0  0  0  0  0  0  0  0  0
   12.6548    5.9790   24.8881 N   0  0  0  0  0  0  0  0  0  0  0  0
   11.0551    1.6219   23.7428 N   0  0  0  0  0  0  0  0  0  0  0  0
   10.1053   -2.0356   22.1016 N   0  0  0  0  0  0  0  0  0  0  0  0
    6.4795    1.8229   19.9230 N   0  0  0  0  0  0  0  0  0  0  0  0
    6.8039    0.5066   24.7955 N   0  0  0  0  0  0  0  0  0  0  0  0
   11.7130    2.4201   21.4747 O   0  0  0  0  0  0  0  0  0  0  0  0
   13.5033    2.1042   23.2545 O   0  0  0  0  0  0  0  0  0  0  0  0
    8.1870    0.8616   18.2478 O   0  0  0  0  0  0  0  0  0  0  0  0
    5.7789    0.1340   18.1081 O   0  0  0  0  0  0  0  0  0  0  0  0
   12.1529    2.5179   22.8660 S   0  0  0  0  0  0  0  0  0  0  0  0
    6.9320    0.5269   18.9057 S   0  0  0  0  0  0  0  0  0  0  0  0
  1  2  2  0
  1  4  1  0
  2  6  1  0
  3  7  2  0
  3 11  1  0
  4 14  2  0
  5  8  2  0
  5 15  1  0
  6 16  2  0
  7 20  1  0
  8 19  1  0
  9 17  1  0
  9 21  2  0
 10 18  1  0
 10 19  2  0
 11 28  2  0
 12 20  2  0
 12 28  1  0
 13 17  2  0
 13 29  1  0
 14 16  1  0
 14 21  1  0
 15 18  2  0
 15 22  1  0
 16 26  1  0
 17 27  1  0
 18 30  1  0
 19 38  1  0
 20 37  1  0
 21 29  1  0
 22 23  1  0
 23 24  1  0
 24 30  1  0
 25 32  1  0
 26 30  1  0
 27 32  1  0
 29 37  1  0
 31 38  1  0
 33 37  2  0
 34 37  2  0
 35 38  2  0
 36 38  2  0
M  CHG  1  32   1
M  END
