MAK-UNK-f2409524-14
     RDKit          3D

 25 26  0  0  1  0  0  0  0  0999 V2000
    7.6764   -0.0471   19.3295 C   0  0  0  0  0  0  0  0  0  0  0  0
    5.7036    0.7288   20.3105 C   0  0  0  0  0  0  0  0  0  0  0  0
    6.2338    1.2703   18.1675 C   0  0  0  0  0  0  0  0  0  0  0  0
    6.8619   -0.0096   20.4428 C   0  0  0  0  0  0  0  0  0  0  0  0
    9.6932   -2.8195   23.4703 C   0  0  0  0  0  0  0  0  0  0  0  0
   12.4572    0.4251   22.8827 C   0  0  0  0  0  0  0  0  0  0  0  0
   11.1465    5.6871   22.9555 C   0  0  0  0  0  0  0  0  0  0  0  0
   10.1751    4.5102   22.9493 C   0  0  0  0  0  0  0  0  0  0  0  0
   12.4302    5.3618   22.1972 C   0  0  0  0  0  0  0  0  0  0  0  0
   10.8308    3.2354   23.4774 C   0  0  0  0  0  0  0  0  0  0  0  0
   13.0889    4.0884   22.7250 C   0  0  0  0  0  0  0  0  0  0  0  0
   12.1135    2.9064   22.7057 C   0  0  0  0  0  0  0  0  0  0  0  0
   12.3078   -2.3566   25.7640 C   0  0  0  0  0  0  0  0  0  0  0  0
    8.4415   -2.0001   23.2120 C   0  0  0  0  0  0  0  0  0  0  0  0
    8.3884   -1.4482   21.7940 C   0  0  0  0  0  0  0  0  0  0  0  0
   13.0989   -1.9298   23.3789 C   0  0  0  0  0  0  0  0  0  0  0  0
   12.0328   -2.5605   24.2774 C   0  0  0  0  0  0  0  0  0  0  0  0
    7.3921    0.5834   18.1711 N   0  0  0  0  0  0  0  0  0  0  0  0
    5.3570    1.3841   19.1833 N   0  0  0  0  0  0  0  0  0  0  0  0
    7.1871   -0.6693   21.6181 N   0  0  0  0  0  0  0  0  0  0  0  0
   10.7260   -2.0295   23.9472 N   0  0  0  0  0  0  0  0  0  0  0  0
   12.7522    1.7258   23.2842 N   0  0  0  0  0  0  0  0  0  0  0  0
   13.2077   -0.5064   23.5956 N   0  0  0  0  0  0  0  0  0  0  0  0
    9.7563   -4.0302   23.2747 O   0  0  0  0  0  0  0  0  0  0  0  0
   11.6397    0.1350   22.0102 O   0  0  0  0  0  0  0  0  0  0  0  0
  1  4  2  0
  1 18  1  0
  2  4  1  0
  2 19  2  0
  3 18  2  0
  3 19  1  0
  4 20  1  0
  5 14  1  0
  5 21  1  0
  5 24  2  0
  6 22  1  0
  6 23  1  0
  6 25  2  0
  7  8  1  0
  7  9  1  0
  8 10  1  0
  9 11  1  0
 10 12  1  0
 11 12  1  0
 12 22  1  0
 13 17  1  0
 14 15  1  0
 15 20  1  0
 16 17  1  0
 16 23  1  0
 17 21  1  0
M  END
