MAK-UNK-194150d3-12
     RDKit          3D

 19 19  0  0  0  0  0  0  0  0999 V2000
    9.7840   -1.8135   23.6292 C   0  0  0  0  0  0  0  0  0  0  0  0
   10.2174   -1.0322   24.7003 C   0  0  0  0  0  0  0  0  0  0  0  0
   10.4054   -1.6986   22.3857 C   0  0  0  0  0  0  0  0  0  0  0  0
   11.2721   -0.1358   24.5279 C   0  0  0  0  0  0  0  0  0  0  0  0
   11.4602   -0.8023   22.2133 C   0  0  0  0  0  0  0  0  0  0  0  0
   11.8936   -0.0209   23.2844 C   0  0  0  0  0  0  0  0  0  0  0  0
   12.4676    5.2523   23.1875 C   0  0  0  0  0  0  0  0  0  0  0  0
    8.3253    3.1201   25.1943 C   0  0  0  0  0  0  0  0  0  0  0  0
    7.6594    1.7927   24.9667 C   0  0  0  0  0  0  0  0  0  0  0  0
   13.0288    0.9438   23.0981 C   0  0  0  0  0  0  0  0  0  0  0  0
   13.4298    4.6432   22.1989 C   0  0  0  0  0  0  0  0  0  0  0  0
   10.2191    6.2858   23.3047 C   0  0  0  0  0  0  0  0  0  0  0  0
   12.5884    2.3373   22.6610 C   0  0  0  0  0  0  0  0  0  0  0  0
    9.6502    5.3854   24.3928 C   0  0  0  0  0  0  0  0  0  0  0  0
   11.2984    5.6704   22.5698 N   0  0  0  0  0  0  0  0  0  0  0  0
   13.7645    3.2444   22.5585 N   0  0  0  0  0  0  0  0  0  0  0  0
   12.7087    5.3548   24.3874 O   0  0  0  0  0  0  0  0  0  0  0  0
    8.4250    3.6365   26.3006 O   0  0  0  0  0  0  0  0  0  0  0  0
    8.9457    3.8509   23.7169 S   0  0  0  0  0  0  0  0  0  0  0  0
  1  2  2  0
  1  3  1  0
  2  4  1  0
  3  5  2  0
  4  6  2  0
  5  6  1  0
  6 10  1  0
  7 11  1  0
  7 15  1  0
  7 17  2  0
  8  9  1  0
  8 18  2  0
  8 19  1  0
 10 13  1  0
 11 16  1  0
 12 14  1  0
 12 15  1  0
 13 16  1  0
 14 19  1  0
M  CHG  1  16   1
M  END
