MAK-MCD-5988fef6-1
     RDKit          3D

 23 25  0  0  1  0  0  0  0  0999 V2000
    6.6964   -1.2041   24.6859 C   0  0  0  0  0  0  0  0  0  0  0  0
    7.6545   -0.2664   25.0711 C   0  0  0  0  0  0  0  0  0  0  0  0
    6.7888   -2.5211   25.1363 C   0  0  0  0  0  0  0  0  0  0  0  0
    6.2254   -5.9705   24.0942 C   0  0  0  0  0  0  0  0  0  0  0  0
    8.7976   -1.9626   26.3569 C   0  0  0  0  0  0  0  0  0  0  0  0
    5.3140   -5.8292   23.0675 C   0  0  0  0  0  0  0  0  0  0  0  0
    6.6287   -4.2586   22.0124 C   0  0  0  0  0  0  0  0  0  0  0  0
    7.3921   -5.2072   24.0340 C   0  0  0  0  0  0  0  0  0  0  0  0
    7.5973   -4.2680   23.0105 C   0  0  0  0  0  0  0  0  0  0  0  0
    8.7051   -0.6456   25.9066 C   0  0  0  0  0  0  0  0  0  0  0  0
    7.8395   -2.9003   25.9717 C   0  0  0  0  0  0  0  0  0  0  0  0
    8.9721   -2.2544   22.2881 C   0  0  0  0  0  0  0  0  0  0  0  0
    9.8791   -3.8237   23.9024 C   0  0  0  0  0  0  0  0  0  0  0  0
    9.7509   -5.1732   24.5858 C   0  0  0  0  0  0  0  0  0  0  0  0
   10.2890   -1.5275   22.4012 C   0  0  0  0  0  0  0  0  0  0  0  0
    5.4945   -5.0047   22.0173 N   0  0  0  0  0  0  0  0  0  0  0  0
    8.7747   -3.4451   23.0048 N   0  0  0  0  0  0  0  0  0  0  0  0
    8.3678   -5.3552   25.0818 N   0  0  0  0  0  0  0  0  0  0  0  0
    8.1351   -1.8048   21.4945 O   0  0  0  0  0  0  0  0  0  0  0  0
    9.0764   -4.6449   27.4548 O   0  0  0  0  0  0  0  0  0  0  0  0
    6.6327   -4.9915   26.9491 O   0  0  0  0  0  0  0  0  0  0  0  0
    9.6252    0.2550   26.2760 F   0  0  0  0  0  0  0  0  0  0  0  0
    7.9551   -4.5663   26.5437 S   0  0  0  0  0  0  0  0  0  0  0  0
  1  2  2  0
  1  3  1  0
  2 10  1  0
  3 11  2  0
  4  6  2  0
  4  8  1  0
  5 10  2  0
  5 11  1  0
  6 16  1  0
  7  9  1  0
  7 16  2  0
  8  9  2  0
  8 18  1  0
  9 17  1  0
 10 22  1  0
 11 23  1  0
 12 15  1  0
 12 17  1  0
 12 19  2  0
 13 14  1  0
 13 17  1  0
 14 18  1  0
 18 23  1  0
 20 23  2  0
 21 23  2  0
M  END
