MAK-UNK-0955449e-7
     RDKit          3D

 19 20  0  0  1  0  0  0  0  0999 V2000
   14.8765   -1.6269   23.8582 C   0  0  0  0  0  0  0  0  0  0  0  0
   14.7446   -2.2829   22.6344 C   0  0  0  0  0  0  0  0  0  0  0  0
   14.0017   -0.5935   24.1935 C   0  0  0  0  0  0  0  0  0  0  0  0
   13.7379   -1.9054   21.7457 C   0  0  0  0  0  0  0  0  0  0  0  0
   12.2135    2.2071   23.4158 C   0  0  0  0  0  0  0  0  0  0  0  0
   10.2780    1.8552   24.5112 C   0  0  0  0  0  0  0  0  0  0  0  0
   12.9950   -0.2160   23.3049 C   0  0  0  0  0  0  0  0  0  0  0  0
   11.0664    2.8389   23.9563 C   0  0  0  0  0  0  0  0  0  0  0  0
   12.8630   -0.8720   22.0809 C   0  0  0  0  0  0  0  0  0  0  0  0
   12.0910    0.8564   23.6567 C   0  0  0  0  0  0  0  0  0  0  0  0
    9.0194   -0.5197   25.5022 C   0  0  0  0  0  0  0  0  0  0  0  0
   11.3536    6.5201   22.9833 C   0  0  0  0  0  0  0  0  0  0  0  0
    9.2538   -1.2768   22.5883 C   0  0  0  0  0  0  0  0  0  0  0  0
   10.7698    4.2838   23.9305 C   0  0  0  0  0  0  0  0  0  0  0  0
   10.3646   -0.6779   24.7907 C   0  0  0  0  0  0  0  0  0  0  0  0
   10.9105    0.6541   24.3228 N   0  0  0  0  0  0  0  0  0  0  0  0
   11.6120    5.0594   22.9683 N   0  0  0  0  0  0  0  0  0  0  0  0
   10.1781   -1.6897   23.6819 N   0  0  0  0  0  0  0  0  0  0  0  0
   11.9003   -0.5211   21.2157 F   0  0  0  0  0  0  0  0  0  0  0  0
  1  2  2  0
  1  3  1  0
  2  4  1  0
  3  7  2  0
  4  9  2  0
  5  8  1  0
  5 10  2  0
  6  8  2  0
  6 16  1  0
  7  9  1  0
  7 10  1  0
  8 14  1  0
  9 19  1  0
 10 16  1  0
 11 15  1  0
 12 17  1  0
 13 18  1  0
 14 17  1  0
 15 16  1  0
 15 18  1  0
M  CHG  2  17   1  18   1
M  END
