MAK-UNK-702fb7d3-19
     RDKit          3D

 43 48  0  0  1  0  0  0  0  0999 V2000
    7.2862    6.7341   24.0640 C   0  0  0  0  0  0  0  0  0  0  0  0
    4.9041   -5.2479   25.2693 C   0  0  0  0  0  0  0  0  0  0  0  0
    8.3434    6.8137   23.1577 C   0  0  0  0  0  0  0  0  0  0  0  0
    7.2514    5.7064   25.0066 C   0  0  0  0  0  0  0  0  0  0  0  0
   14.4309    5.3462   23.3906 C   0  0  0  0  0  0  0  0  0  0  0  0
   13.5188    6.1030   24.1167 C   0  0  0  0  0  0  0  0  0  0  0  0
    4.7624   -6.4326   24.5467 C   0  0  0  0  0  0  0  0  0  0  0  0
    6.5951    1.5015   20.4115 C   0  0  0  0  0  0  0  0  0  0  0  0
    5.9011   -4.3355   24.9241 C   0  0  0  0  0  0  0  0  0  0  0  0
    9.3660    5.8657   23.1939 C   0  0  0  0  0  0  0  0  0  0  0  0
    8.2739    4.7583   25.0427 C   0  0  0  0  0  0  0  0  0  0  0  0
   14.0694    4.0831   22.9278 C   0  0  0  0  0  0  0  0  0  0  0  0
   12.2393    5.6046   24.3650 C   0  0  0  0  0  0  0  0  0  0  0  0
    5.6178   -6.7050   23.4791 C   0  0  0  0  0  0  0  0  0  0  0  0
    6.3237    0.4095   21.2283 C   0  0  0  0  0  0  0  0  0  0  0  0
    9.0852   -3.5874   23.9651 C   0  0  0  0  0  0  0  0  0  0  0  0
    7.0814    1.2539   19.1380 C   0  0  0  0  0  0  0  0  0  0  0  0
    7.0322   -1.0197   19.4643 C   0  0  0  0  0  0  0  0  0  0  0  0
    8.7671   -1.9184   22.4875 C   0  0  0  0  0  0  0  0  0  0  0  0
    6.7565   -4.6078   23.8565 C   0  0  0  0  0  0  0  0  0  0  0  0
    9.3312    4.8380   24.1364 C   0  0  0  0  0  0  0  0  0  0  0  0
   12.7882    3.5643   23.1794 C   0  0  0  0  0  0  0  0  0  0  0  0
   11.8420    4.3465   23.8752 C   0  0  0  0  0  0  0  0  0  0  0  0
    9.7036   -2.4865   23.3227 C   0  0  0  0  0  0  0  0  0  0  0  0
    6.6148   -5.7926   23.1340 C   0  0  0  0  0  0  0  0  0  0  0  0
    6.5438   -0.8786   20.7532 C   0  0  0  0  0  0  0  0  0  0  0  0
    7.7896   -3.6587   23.5028 C   0  0  0  0  0  0  0  0  0  0  0  0
   11.0779    0.4523   23.6929 C   0  0  0  0  0  0  0  0  0  0  0  0
   12.4745    2.1778   22.6757 C   0  0  0  0  0  0  0  0  0  0  0  0
   10.0733    2.6322   23.2547 C   0  0  0  0  0  0  0  0  0  0  0  0
   10.4466    3.8028   24.1763 C   0  0  0  0  0  0  0  0  0  0  0  0
   11.6083   -0.5400   21.5299 C   0  0  0  0  0  0  0  0  0  0  0  0
   11.1166   -2.0238   23.5153 C   0  0  0  0  0  0  0  0  0  0  0  0
   10.7085    0.3585   25.1269 C   0  0  0  0  0  0  0  0  0  0  0  0
    7.3078    0.0170   18.6415 N   0  0  0  0  0  0  0  0  0  0  0  0
    7.6075   -2.6394   22.6050 N   0  0  0  0  0  0  0  0  0  0  0  0
   11.2027    1.6912   23.2374 N   0  0  0  0  0  0  0  0  0  0  0  0
   11.2582   -0.6638   22.9594 N   0  0  0  0  0  0  0  0  0  0  0  0
    5.2284   -1.9164   22.7819 O   0  0  0  0  0  0  0  0  0  0  0  0
    5.9405   -3.4016   20.8428 O   0  0  0  0  0  0  0  0  0  0  0  0
    7.4291   -6.0691   22.1048 F   0  0  0  0  0  0  0  0  0  0  0  0
    6.2093   -2.2964   21.7658 S   0  0  0  0  0  0  0  0  0  0  0  0
   12.1724    0.3498   26.1374 Cl  0  0  0  0  0  0  0  0  0  0  0  0
  1  3  2  0
  1  4  1  0
  2  7  2  0
  2  9  1  0
  3 10  1  0
  4 11  2  0
  5  6  2  0
  5 12  1  0
  6 13  1  0
  7 14  1  0
  8 15  2  0
  8 17  1  0
  9 20  2  0
 10 21  2  0
 11 21  1  0
 12 22  2  0
 13 23  2  0
 14 25  2  0
 15 26  1  0
 16 24  1  0
 16 27  2  0
 17 35  2  0
 18 26  2  0
 18 35  1  0
 19 24  2  0
 19 36  1  0
 20 25  1  0
 20 27  1  0
 21 31  1  0
 22 23  1  0
 22 29  1  0
 23 31  1  0
 24 33  1  0
 25 41  1  0
 26 42  1  0
 27 36  1  0
 28 34  1  0
 28 37  1  0
 28 38  2  0
 29 37  1  0
 30 31  1  0
 30 37  1  0
 32 38  1  0
 33 38  1  0
 34 43  1  0
 36 42  1  0
 39 42  2  0
 40 42  2  0
M  CHG  1  38   1
M  END
