MAK-UNK-f2409524-20
     RDKit          3D

 23 24  0  0  0  0  0  0  0  0999 V2000
   10.4978    7.0363   24.1896 C   0  0  0  0  0  0  0  0  0  0  0  0
    9.6400    8.0023   24.6963 C   0  0  0  0  0  0  0  0  0  0  0  0
    7.8681    7.1895   23.3874 C   0  0  0  0  0  0  0  0  0  0  0  0
   10.0082    6.1289   23.2552 C   0  0  0  0  0  0  0  0  0  0  0  0
    8.6799    6.2026   22.8467 C   0  0  0  0  0  0  0  0  0  0  0  0
   12.8557    3.8697   22.3816 C   0  0  0  0  0  0  0  0  0  0  0  0
   12.2322    2.5229   22.6080 C   0  0  0  0  0  0  0  0  0  0  0  0
    6.8438    5.2645   21.4070 C   0  0  0  0  0  0  0  0  0  0  0  0
   13.4563   -2.6641   23.5110 C   0  0  0  0  0  0  0  0  0  0  0  0
   12.6439   -2.1146   22.3418 C   0  0  0  0  0  0  0  0  0  0  0  0
   13.2664   -1.8257   24.7720 C   0  0  0  0  0  0  0  0  0  0  0  0
   12.9504   -0.6398   22.0864 C   0  0  0  0  0  0  0  0  0  0  0  0
   13.5743   -0.3508   24.5194 C   0  0  0  0  0  0  0  0  0  0  0  0
   12.7476    0.2000   23.3524 C   0  0  0  0  0  0  0  0  0  0  0  0
    6.6713    4.1479   20.4080 C   0  0  0  0  0  0  0  0  0  0  0  0
   12.2437    5.0286   23.1230 C   0  0  0  0  0  0  0  0  0  0  0  0
    8.3653    8.0506   24.2857 N   0  0  0  0  0  0  0  0  0  0  0  0
    8.1499    5.3125   21.9110 N   0  0  0  0  0  0  0  0  0  0  0  0
   10.8597    5.1604   22.7439 N   0  0  0  0  0  0  0  0  0  0  0  0
   13.1200    1.5892   23.0918 N   0  0  0  0  0  0  0  0  0  0  0  0
   13.8024    3.9234   21.6105 O   0  0  0  0  0  0  0  0  0  0  0  0
   11.0527    2.3870   22.3236 O   0  0  0  0  0  0  0  0  0  0  0  0
    5.9067    6.0036   21.6909 O   0  0  0  0  0  0  0  0  0  0  0  0
  1  2  2  0
  1  4  1  0
  2 17  1  0
  3  5  1  0
  3 17  2  0
  4  5  2  0
  4 19  1  0
  5 18  1  0
  6  7  1  0
  6 16  1  0
  6 21  2  0
  7 20  1  0
  7 22  2  0
  8 15  1  0
  8 18  1  0
  8 23  2  0
  9 10  1  0
  9 11  1  0
 10 12  1  0
 11 13  1  0
 12 14  1  0
 13 14  1  0
 14 20  1  0
 16 19  1  0
M  CHG  1  17   1
M  END
