MAK-UNK-8fdbca50-41
     RDKit          3D

 40 43  0  0  0  0  0  0  0  0999 V2000
    6.0523   -5.5156   21.1839 C   0  0  0  0  0  0  0  0  0  0  0  0
    5.4858   -5.7603   22.4348 C   0  0  0  0  0  0  0  0  0  0  0  0
    5.5149   -0.4287   17.0501 C   0  0  0  0  0  0  0  0  0  0  0  0
    6.8414   -4.3826   20.9852 C   0  0  0  0  0  0  0  0  0  0  0  0
    5.7082   -4.8720   23.4870 C   0  0  0  0  0  0  0  0  0  0  0  0
    5.7270   -0.1279   18.3909 C   0  0  0  0  0  0  0  0  0  0  0  0
    9.2432   -2.1816   21.9871 C   0  0  0  0  0  0  0  0  0  0  0  0
    5.1083   -1.7140   16.7301 C   0  0  0  0  0  0  0  0  0  0  0  0
    5.1213   -2.3627   18.9340 C   0  0  0  0  0  0  0  0  0  0  0  0
    8.4053   -0.2057   21.3064 C   0  0  0  0  0  0  0  0  0  0  0  0
    7.0638   -3.4943   22.0373 C   0  0  0  0  0  0  0  0  0  0  0  0
    9.5741   -0.8439   21.6583 C   0  0  0  0  0  0  0  0  0  0  0  0
    6.4972   -3.7389   23.2882 C   0  0  0  0  0  0  0  0  0  0  0  0
    5.5287   -1.1079   19.3572 C   0  0  0  0  0  0  0  0  0  0  0  0
    7.8823   -2.3202   21.8260 C   0  0  0  0  0  0  0  0  0  0  0  0
   12.4035    1.6702   24.3391 C   0  0  0  0  0  0  0  0  0  0  0  0
    8.9329    4.8677   26.2859 C   0  0  0  0  0  0  0  0  0  0  0  0
   11.2021    3.7743   23.7726 C   0  0  0  0  0  0  0  0  0  0  0  0
   12.2639    3.4776   26.0634 C   0  0  0  0  0  0  0  0  0  0  0  0
    9.8405    3.5231   24.4181 C   0  0  0  0  0  0  0  0  0  0  0  0
   10.8658    3.2542   26.6414 C   0  0  0  0  0  0  0  0  0  0  0  0
   12.3539    3.1527   24.5689 C   0  0  0  0  0  0  0  0  0  0  0  0
   13.8826   -1.0009   24.0697 C   0  0  0  0  0  0  0  0  0  0  0  0
   14.0305   -0.5714   21.6223 C   0  0  0  0  0  0  0  0  0  0  0  0
   13.8221    2.1603   22.3356 C   0  0  0  0  0  0  0  0  0  0  0  0
   10.9443   -0.2334   21.6875 C   0  0  0  0  0  0  0  0  0  0  0  0
    9.0132    5.2289   27.7478 C   0  0  0  0  0  0  0  0  0  0  0  0
   13.2272   -0.2410   22.8990 C   0  0  0  0  0  0  0  0  0  0  0  0
    4.9053   -2.6923   17.6408 N   0  0  0  0  0  0  0  0  0  0  0  0
    7.3835   -1.1128   21.4117 N   0  0  0  0  0  0  0  0  0  0  0  0
    9.8510    3.9257   25.8238 N   0  0  0  0  0  0  0  0  0  0  0  0
   13.1314    1.2183   23.2224 N   0  0  0  0  0  0  0  0  0  0  0  0
   11.8367   -0.8488   22.7124 N   0  0  0  0  0  0  0  0  0  0  0  0
   11.8008    0.9320   25.1235 O   0  0  0  0  0  0  0  0  0  0  0  0
    8.0804    5.4092   25.5773 O   0  0  0  0  0  0  0  0  0  0  0  0
    5.6564    0.6802   21.2832 O   0  0  0  0  0  0  0  0  0  0  0  0
    4.9435   -1.7034   21.8149 O   0  0  0  0  0  0  0  0  0  0  0  0
    6.7016   -2.8947   24.3101 F   0  0  0  0  0  0  0  0  0  0  0  0
    5.7892   -0.7617   21.0777 S   0  0  0  0  0  0  0  0  0  0  0  0
    7.7766    6.4482   28.0341 Cl  0  0  0  0  0  0  0  0  0  0  0  0
  1  2  2  0
  1  4  1  0
  2  5  1  0
  3  6  2  0
  3  8  1  0
  4 11  2  0
  5 13  2  0
  6 14  1  0
  7 12  1  0
  7 15  2  0
  8 29  2  0
  9 14  2  0
  9 29  1  0
 10 12  2  0
 10 30  1  0
 11 13  1  0
 11 15  1  0
 12 26  1  0
 13 38  1  0
 14 39  1  0
 15 30  1  0
 16 22  1  0
 16 32  1  0
 16 34  2  0
 17 27  1  0
 17 31  1  0
 17 35  2  0
 18 20  1  0
 18 22  1  0
 19 21  1  0
 19 22  1  0
 20 31  1  0
 21 31  1  0
 23 28  1  0
 24 28  1  0
 25 32  1  0
 26 33  1  0
 27 40  1  0
 28 32  1  0
 28 33  1  0
 30 39  1  0
 36 39  2  0
 37 39  2  0
M  CHG  1  33   1
M  END
