MAK-UNK-10572812-15
     RDKit          3D

 34 38  0  0  0  0  0  0  0  0999 V2000
    6.8183   -5.5633   27.5467 C   0  0  0  0  0  0  0  0  0  0  0  0
    5.5513   -4.9729   27.5405 C   0  0  0  0  0  0  0  0  0  0  0  0
   12.5542   -2.2848   23.0772 C   0  0  0  0  0  0  0  0  0  0  0  0
    5.7895   -4.3496   25.2056 C   0  0  0  0  0  0  0  0  0  0  0  0
   13.7947   -1.9918   23.6278 C   0  0  0  0  0  0  0  0  0  0  0  0
    9.1316   -5.7635   24.7673 C   0  0  0  0  0  0  0  0  0  0  0  0
   11.9944    1.9310   24.7407 C   0  0  0  0  0  0  0  0  0  0  0  0
    7.0695   -4.9384   25.1878 C   0  0  0  0  0  0  0  0  0  0  0  0
   11.8399   -0.1114   23.7901 C   0  0  0  0  0  0  0  0  0  0  0  0
   11.5438   -1.3280   23.1544 C   0  0  0  0  0  0  0  0  0  0  0  0
    8.0758   -5.0932   24.1936 C   0  0  0  0  0  0  0  0  0  0  0  0
   11.1321    1.0860   24.0759 C   0  0  0  0  0  0  0  0  0  0  0  0
    7.5534   -5.5305   26.3564 C   0  0  0  0  0  0  0  0  0  0  0  0
    5.0429   -4.3748   26.3892 C   0  0  0  0  0  0  0  0  0  0  0  0
   13.1257    0.0495   24.2979 C   0  0  0  0  0  0  0  0  0  0  0  0
   10.2345   -1.5995   22.5892 C   0  0  0  0  0  0  0  0  0  0  0  0
    8.7442    0.4089   24.3339 C   0  0  0  0  0  0  0  0  0  0  0  0
    6.3961   -0.3288   24.5856 C   0  0  0  0  0  0  0  0  0  0  0  0
    6.8502    1.6125   23.1371 C   0  0  0  0  0  0  0  0  0  0  0  0
    5.2873    0.4342   25.2955 C   0  0  0  0  0  0  0  0  0  0  0  0
    5.7463    2.4047   23.8244 C   0  0  0  0  0  0  0  0  0  0  0  0
    3.5281    2.1719   24.9474 C   0  0  0  0  0  0  0  0  0  0  0  0
    9.7071    1.3981   23.7274 C   0  0  0  0  0  0  0  0  0  0  0  0
    8.0077   -4.6142   22.7643 C   0  0  0  0  0  0  0  0  0  0  0  0
    8.2313   -3.1100   22.6291 C   0  0  0  0  0  0  0  0  0  0  0  0
   14.1358   -0.8396   24.2502 N   0  0  0  0  0  0  0  0  0  0  0  0
    8.8070   -6.0231   26.0718 N   0  0  0  0  0  0  0  0  0  0  0  0
   13.2006    1.2924   24.8695 N   0  0  0  0  0  0  0  0  0  0  0  0
    7.3945    0.5870   24.0336 N   0  0  0  0  0  0  0  0  0  0  0  0
    9.5330   -2.6980   23.1030 N   0  0  0  0  0  0  0  0  0  0  0  0
    4.6959    1.4466   24.3401 N   0  0  0  0  0  0  0  0  0  0  0  0
    9.7794   -0.8889   21.6736 O   0  0  0  0  0  0  0  0  0  0  0  0
    9.1801   -0.4926   25.0545 O   0  0  0  0  0  0  0  0  0  0  0  0
    3.8242   -3.8181   26.4140 F   0  0  0  0  0  0  0  0  0  0  0  0
  1  2  2  0
  1 13  1  0
  2 14  1  0
  3  5  2  0
  3 10  1  0
  4  8  1  0
  4 14  2  0
  5 26  1  0
  6 11  2  0
  6 27  1  0
  7 12  2  0
  7 28  1  0
  8 11  1  0
  8 13  2  0
  9 10  2  0
  9 12  1  0
  9 15  1  0
 10 16  1  0
 11 24  1  0
 12 23  1  0
 13 27  1  0
 14 34  1  0
 15 26  2  0
 15 28  1  0
 16 30  1  0
 16 32  2  0
 17 23  1  0
 17 29  1  0
 17 33  2  0
 18 20  1  0
 18 29  1  0
 19 21  1  0
 19 29  1  0
 20 31  1  0
 21 31  1  0
 22 31  1  0
 24 25  1  0
 25 30  1  0
M  CHG  1  31   1
M  END
