MAK-UNK-30aad1f1-15
     RDKit          3D

 25 27  0  0  0  0  0  0  0  0999 V2000
    6.0998    0.5576   18.2881 C   0  0  0  0  0  0  0  0  0  0  0  0
   12.7775    1.3894   23.5449 C   0  0  0  0  0  0  0  0  0  0  0  0
   13.1577    0.4930   22.5462 C   0  0  0  0  0  0  0  0  0  0  0  0
   11.5475    1.2394   24.1855 C   0  0  0  0  0  0  0  0  0  0  0  0
    6.2302   -0.8131   20.3166 C   0  0  0  0  0  0  0  0  0  0  0  0
   12.3078   -0.5534   22.1878 C   0  0  0  0  0  0  0  0  0  0  0  0
   10.6976    0.1930   23.8271 C   0  0  0  0  0  0  0  0  0  0  0  0
    6.3660   -2.0608   20.9149 C   0  0  0  0  0  0  0  0  0  0  0  0
    5.7077   -5.7087   22.5285 C   0  0  0  0  0  0  0  0  0  0  0  0
    5.7586   -6.0802   23.8623 C   0  0  0  0  0  0  0  0  0  0  0  0
    6.3842   -1.8724   18.1928 C   0  0  0  0  0  0  0  0  0  0  0  0
    7.6031   -4.7667   24.2504 C   0  0  0  0  0  0  0  0  0  0  0  0
    6.2384   -0.7085   18.9302 C   0  0  0  0  0  0  0  0  0  0  0  0
   11.0777   -0.7034   22.8283 C   0  0  0  0  0  0  0  0  0  0  0  0
    6.6693   -4.8184   22.0637 C   0  0  0  0  0  0  0  0  0  0  0  0
    7.6387   -4.3337   22.9347 C   0  0  0  0  0  0  0  0  0  0  0  0
    6.5059   -3.1643   20.0887 C   0  0  0  0  0  0  0  0  0  0  0  0
    9.2883   -2.4408   23.2737 C   0  0  0  0  0  0  0  0  0  0  0  0
    5.9871    1.5878   17.7658 N   0  0  0  0  0  0  0  0  0  0  0  0
    6.6848   -5.6306   24.7384 N   0  0  0  0  0  0  0  0  0  0  0  0
    6.5187   -3.1020   18.7383 N   0  0  0  0  0  0  0  0  0  0  0  0
    6.6431   -4.4199   20.7093 N   0  0  0  0  0  0  0  0  0  0  0  0
   10.2278   -1.7502   22.4698 N   0  0  0  0  0  0  0  0  0  0  0  0
    8.6406   -3.4278   22.5135 N   0  0  0  0  0  0  0  0  0  0  0  0
    9.0768   -2.2057   24.4591 O   0  0  0  0  0  0  0  0  0  0  0  0
  1 13  1  0
  1 19  3  0
  2  3  2  0
  2  4  1  0
  3  6  1  0
  4  7  2  0
  5  8  2  0
  5 13  1  0
  6 14  2  0
  7 14  1  0
  8 17  1  0
  9 10  2  0
  9 15  1  0
 10 20  1  0
 11 13  2  0
 11 21  1  0
 12 16  1  0
 12 20  2  0
 14 23  1  0
 15 16  2  0
 15 22  1  0
 16 24  1  0
 17 21  2  0
 17 22  1  0
 18 23  1  0
 18 24  1  0
 18 25  2  0
M  END
