MAK-UNK-9955b1f3-1
     RDKit          3D

 37 41  0  0  1  0  0  0  0  0999 V2000
    8.8396   -5.6553   26.2942 C   0  0  0  0  0  0  0  0  0  0  0  0
   -0.3672  -10.7241   26.1357 C   0  0  0  0  0  0  0  0  0  0  0  0
    9.0656   -3.2617   25.8471 C   0  0  0  0  0  0  0  0  0  0  0  0
    9.9834   -4.8598   24.2847 C   0  0  0  0  0  0  0  0  0  0  0  0
    0.8999  -10.0047   24.1664 C   0  0  0  0  0  0  0  0  0  0  0  0
    5.7064   -2.5131   23.1712 C   0  0  0  0  0  0  0  0  0  0  0  0
    1.8152   -9.1132   23.6180 C   0  0  0  0  0  0  0  0  0  0  0  0
    9.5157   -2.2157   25.0415 C   0  0  0  0  0  0  0  0  0  0  0  0
   10.4334   -3.8138   23.4791 C   0  0  0  0  0  0  0  0  0  0  0  0
    6.5881   -1.5322   22.7309 C   0  0  0  0  0  0  0  0  0  0  0  0
    7.1943   -4.1603   22.3172 C   0  0  0  0  0  0  0  0  0  0  0  0
    1.9576   -8.0381   25.7347 C   0  0  0  0  0  0  0  0  0  0  0  0
    9.2995   -4.5838   25.4687 C   0  0  0  0  0  0  0  0  0  0  0  0
    0.5641   -9.8498   25.5018 C   0  0  0  0  0  0  0  0  0  0  0  0
    6.0079   -3.8546   22.9643 C   0  0  0  0  0  0  0  0  0  0  0  0
    2.3588   -8.1083   24.4103 C   0  0  0  0  0  0  0  0  0  0  0  0
   10.1995   -2.4918   23.8575 C   0  0  0  0  0  0  0  0  0  0  0  0
    7.7486   -1.9419   22.0945 C   0  0  0  0  0  0  0  0  0  0  0  0
    5.0801   -4.9358   23.4269 C   0  0  0  0  0  0  0  0  0  0  0  0
    5.6881   -6.2739   23.8192 C   0  0  0  0  0  0  0  0  0  0  0  0
    4.7114   -7.1782   24.5495 C   0  0  0  0  0  0  0  0  0  0  0  0
    2.8442   -5.6831   23.9083 C   0  0  0  0  0  0  0  0  0  0  0  0
    8.6617   -1.3490   19.1418 C   0  0  0  0  0  0  0  0  0  0  0  0
    8.9061    0.9850   19.9630 C   0  0  0  0  0  0  0  0  0  0  0  0
    8.1640   -0.7669   17.8297 C   0  0  0  0  0  0  0  0  0  0  0  0
    8.3962    1.4465   18.6082 C   0  0  0  0  0  0  0  0  0  0  0  0
    3.3598   -7.1209   23.8415 C   0  0  0  0  0  0  0  0  0  0  0  0
   10.6826   -1.3659   22.9896 C   0  0  0  0  0  0  0  0  0  0  0  0
    8.7348   -0.8968   21.5983 C   0  0  0  0  0  0  0  0  0  0  0  0
    8.4661   -6.5257   26.9649 N   0  0  0  0  0  0  0  0  0  0  0  0
   -1.1251  -11.4355   26.6517 N   0  0  0  0  0  0  0  0  0  0  0  0
    1.0711   -8.8860   26.3028 N   0  0  0  0  0  0  0  0  0  0  0  0
    8.0756   -3.2353   21.8754 N   0  0  0  0  0  0  0  0  0  0  0  0
    3.8147   -4.6938   23.4442 N   0  0  0  0  0  0  0  0  0  0  0  0
   10.1080   -1.4238   21.6507 N   0  0  0  0  0  0  0  0  0  0  0  0
    8.3240   -0.3793   20.2497 N   0  0  0  0  0  0  0  0  0  0  0  0
    8.7570    0.5105   17.5914 O   0  0  0  0  0  0  0  0  0  0  0  0
  1 13  1  0
  1 30  3  0
  2 14  1  0
  2 31  3  0
  3  8  2  0
  3 13  1  0
  4  9  1  0
  4 13  2  0
  5  7  2  0
  5 14  1  0
  6 10  2  0
  6 15  1  0
  7 16  1  0
  8 17  1  0
  9 17  2  0
 10 18  1  0
 11 15  2  0
 11 33  1  0
 12 16  2  0
 12 32  1  0
 14 32  2  0
 15 19  1  0
 16 27  1  0
 17 28  1  0
 18 29  1  0
 18 33  2  0
 19 20  1  0
 19 34  2  0
 20 21  1  0
 21 27  1  0
 22 27  1  0
 22 34  1  0
 23 25  1  0
 23 36  1  0
 24 26  1  0
 24 36  1  0
 25 37  1  0
 26 37  1  0
 28 35  1  0
 29 35  1  0
 29 36  1  0
M  CHG  1  36   1
M  END
