MAN-SYN-45e45961-2
     RDKit          3D

 18 19  0  0  0  0  0  0  0  0999 V2000
   13.0696   -1.6950   22.8297 C   0  0  0  0  0  0  0  0  0  0  0  0
   14.2598   -1.2322   22.2138 C   0  0  0  0  0  0  0  0  0  0  0  0
   12.3447   -0.5822   23.1969 C   0  0  0  0  0  0  0  0  0  0  0  0
   14.2241    0.1459   22.2250 C   0  0  0  0  0  0  0  0  0  0  0  0
   11.0711   -0.4059   23.8507 C   0  0  0  0  0  0  0  0  0  0  0  0
   11.4752    1.8797   23.6313 C   0  0  0  0  0  0  0  0  0  0  0  0
   10.9942    3.2699   23.8718 C   0  0  0  0  0  0  0  0  0  0  0  0
   11.7005    6.1623   22.9514 C   0  0  0  0  0  0  0  0  0  0  0  0
    9.4176   -1.3592   25.4051 C   0  0  0  0  0  0  0  0  0  0  0  0
   10.1369   -2.6419   23.4156 C   0  0  0  0  0  0  0  0  0  0  0  0
   11.7777    5.4339   24.2763 C   0  0  0  0  0  0  0  0  0  0  0  0
   10.6764    0.8273   24.0471 N   0  0  0  0  0  0  0  0  0  0  0  0
   12.6317    1.7993   23.0374 N   0  0  0  0  0  0  0  0  0  0  0  0
   13.0540    0.5299   22.8261 N   0  0  0  0  0  0  0  0  0  0  0  0
   10.2969   -1.4672   24.2544 N   0  0  0  0  0  0  0  0  0  0  0  0
    9.8221    3.5566   23.9013 O   0  0  0  0  0  0  0  0  0  0  0  0
   12.0788    4.0558   24.0338 O   0  0  0  0  0  0  0  0  0  0  0  0
   15.5643    1.2866   21.5277 Br  0  0  0  0  0  0  0  0  0  0  0  0
  1  2  1  0
  1  3  2  0
  2  4  2  0
  3  5  1  0
  3 14  1  0
  4 14  1  0
  4 18  1  0
  5 12  2  0
  5 15  1  0
  6  7  1  0
  6 12  1  0
  6 13  2  0
  7 16  2  0
  7 17  1  0
  8 11  1  0
  9 15  1  0
 10 15  1  0
 11 17  1  0
 13 14  1  0
M  END
