MAN-SYN-45e45961-6
     RDKit          3D

 20 21  0  0  1  0  0  0  0  0999 V2000
   11.9892    0.6984   24.2169 C   0  0  0  0  0  0  0  0  0  0  0  0
   13.0165    0.5591   23.2500 C   0  0  0  0  0  0  0  0  0  0  0  0
   11.3582   -0.5225   24.3166 C   0  0  0  0  0  0  0  0  0  0  0  0
   12.9807   -0.7402   22.7905 C   0  0  0  0  0  0  0  0  0  0  0  0
   10.5981   -3.0367   24.0440 C   0  0  0  0  0  0  0  0  0  0  0  0
   10.2566   -1.0012   25.1170 C   0  0  0  0  0  0  0  0  0  0  0  0
    4.9146   -3.4157   25.3392 C   0  0  0  0  0  0  0  0  0  0  0  0
    7.1866   -0.6479   26.0351 C   0  0  0  0  0  0  0  0  0  0  0  0
    6.0101   -1.1171   26.8993 C   0  0  0  0  0  0  0  0  0  0  0  0
    8.5138   -0.6852   26.7873 C   0  0  0  0  0  0  0  0  0  0  0  0
    6.1282   -2.5705   27.3426 C   0  0  0  0  0  0  0  0  0  0  0  0
    6.5153   -4.8965   26.5421 C   0  0  0  0  0  0  0  0  0  0  0  0
    7.9879   -4.9833   26.8916 C   0  0  0  0  0  0  0  0  0  0  0  0
   11.5981   -2.6828   23.2872 N   0  0  0  0  0  0  0  0  0  0  0  0
    9.9097   -2.2536   24.9524 N   0  0  0  0  0  0  0  0  0  0  0  0
   11.9677   -1.3891   23.4466 N   0  0  0  0  0  0  0  0  0  0  0  0
    9.6115   -0.2209   25.9849 N   0  0  0  0  0  0  0  0  0  0  0  0
    6.1747   -3.4737   26.1688 N   0  0  0  0  0  0  0  0  0  0  0  0
    8.3232   -6.3276   27.2092 O   0  0  0  0  0  0  0  0  0  0  0  0
   13.7890   -1.2701   21.8707 F   0  0  0  0  0  0  0  0  0  0  0  0
  1  2  1  0
  1  3  2  0
  2  4  2  0
  3  6  1  0
  3 16  1  0
  4 16  1  0
  4 20  1  0
  5 14  2  0
  5 15  1  0
  6 15  2  0
  6 17  1  0
  7 18  1  0
  8  9  1  0
  8 10  1  0
  9 11  1  0
 10 17  1  0
 11 18  1  0
 12 13  1  0
 12 18  1  0
 13 19  1  0
 14 16  1  0
M  CHG  1  18   1
M  END
