MAN-SYN-45e45961-7
     RDKit          3D

 18 19  0  0  0  0  0  0  0  0999 V2000
   11.4108    0.7178   23.9730 C   0  0  0  0  0  0  0  0  0  0  0  0
   12.0393    1.8628   23.4215 C   0  0  0  0  0  0  0  0  0  0  0  0
   10.4011    0.3544   23.1089 C   0  0  0  0  0  0  0  0  0  0  0  0
   11.3941    2.1619   22.2405 C   0  0  0  0  0  0  0  0  0  0  0  0
    9.4279   -0.7102   23.1205 C   0  0  0  0  0  0  0  0  0  0  0  0
    8.6828    0.1885   21.1025 C   0  0  0  0  0  0  0  0  0  0  0  0
    7.7188    0.1032   19.9686 C   0  0  0  0  0  0  0  0  0  0  0  0
    5.6102    1.2795   18.5119 C   0  0  0  0  0  0  0  0  0  0  0  0
    9.1170   -1.2315   25.5060 C   0  0  0  0  0  0  0  0  0  0  0  0
    9.2850   -3.0586   23.8462 C   0  0  0  0  0  0  0  0  0  0  0  0
    5.4291    0.1513   19.5048 C   0  0  0  0  0  0  0  0  0  0  0  0
    8.5960   -0.7578   22.1101 N   0  0  0  0  0  0  0  0  0  0  0  0
    9.5305    1.1744   21.0234 N   0  0  0  0  0  0  0  0  0  0  0  0
   10.3987    1.2372   22.0609 N   0  0  0  0  0  0  0  0  0  0  0  0
    9.3619   -1.6370   24.1333 N   0  0  0  0  0  0  0  0  0  0  0  0
    8.0726   -0.0420   18.8238 O   0  0  0  0  0  0  0  0  0  0  0  0
    6.4753    0.2157   20.4796 O   0  0  0  0  0  0  0  0  0  0  0  0
   11.6875    3.1716   21.4192 F   0  0  0  0  0  0  0  0  0  0  0  0
  1  2  1  0
  1  3  2  0
  2  4  2  0
  3  5  1  0
  3 14  1  0
  4 14  1  0
  4 18  1  0
  5 12  2  0
  5 15  1  0
  6  7  1  0
  6 12  1  0
  6 13  2  0
  7 16  2  0
  7 17  1  0
  8 11  1  0
  9 15  1  0
 10 15  1  0
 11 17  1  0
 13 14  1  0
M  END
