MAN-SYN-45e45961-5
     RDKit          3D

 14 15  0  0  0  0  0  0  0  0999 V2000
   13.6148   -1.1764   23.8426 C   0  0  0  0  0  0  0  0  0  0  0  0
   14.4002   -1.6467   22.7617 C   0  0  0  0  0  0  0  0  0  0  0  0
   12.4155   -0.7402   23.3202 C   0  0  0  0  0  0  0  0  0  0  0  0
   13.6608   -1.4852   21.6102 C   0  0  0  0  0  0  0  0  0  0  0  0
   11.2523   -0.1692   23.9540 C   0  0  0  0  0  0  0  0  0  0  0  0
   10.4073   -0.1096   21.6762 C   0  0  0  0  0  0  0  0  0  0  0  0
    9.2407    0.2742   20.8463 C   0  0  0  0  0  0  0  0  0  0  0  0
   11.4438   -0.6215   21.0880 N   0  0  0  0  0  0  0  0  0  0  0  0
   12.4525   -0.9329   21.9536 N   0  0  0  0  0  0  0  0  0  0  0  0
   10.2546    0.1302   23.0307 N   0  0  0  0  0  0  0  0  0  0  0  0
    9.4314    0.0224   19.5148 N   0  0  0  0  0  0  0  0  0  0  0  0
   11.1438    0.0334   25.1597 O   0  0  0  0  0  0  0  0  0  0  0  0
    8.2415    0.7592   21.3513 O   0  0  0  0  0  0  0  0  0  0  0  0
   14.0515   -1.8096   20.3760 F   0  0  0  0  0  0  0  0  0  0  0  0
  1  2  1  0
  1  3  2  0
  2  4  2  0
  3  5  1  0
  3  9  1  0
  4  9  1  0
  4 14  1  0
  5 10  1  0
  5 12  2  0
  6  7  1  0
  6  8  2  0
  6 10  1  0
  7 11  1  0
  7 13  2  0
  8  9  1  0
M  END
