MAN-SYN-45e45961-8
     RDKit          3D

 19 20  0  0  0  0  0  0  0  0999 V2000
   13.1229   -1.9555   22.8366 C   0  0  0  0  0  0  0  0  0  0  0  0
   14.2838   -1.4666   22.1847 C   0  0  0  0  0  0  0  0  0  0  0  0
   12.3897   -0.8587   23.2317 C   0  0  0  0  0  0  0  0  0  0  0  0
   14.2229   -0.0892   22.2032 C   0  0  0  0  0  0  0  0  0  0  0  0
   11.1502   -0.6719   23.9183 C   0  0  0  0  0  0  0  0  0  0  0  0
   11.4835    1.5950   23.7081 C   0  0  0  0  0  0  0  0  0  0  0  0
   10.9891    2.9770   23.9681 C   0  0  0  0  0  0  0  0  0  0  0  0
    9.2375   -1.7030   24.9928 C   0  0  0  0  0  0  0  0  0  0  0  0
    8.7020   -3.0659   25.3461 C   0  0  0  0  0  0  0  0  0  0  0  0
   11.6197    5.8822   23.0333 C   0  0  0  0  0  0  0  0  0  0  0  0
   11.7516    5.1520   24.3528 C   0  0  0  0  0  0  0  0  0  0  0  0
   10.7138    0.5274   24.1477 N   0  0  0  0  0  0  0  0  0  0  0  0
   12.6227    1.5331   23.0753 N   0  0  0  0  0  0  0  0  0  0  0  0
   13.0656    0.2698   22.8431 N   0  0  0  0  0  0  0  0  0  0  0  0
   10.4451   -1.7743   24.3225 N   0  0  0  0  0  0  0  0  0  0  0  0
    9.8143    3.2452   24.0368 O   0  0  0  0  0  0  0  0  0  0  0  0
    8.6419   -0.6765   25.3122 O   0  0  0  0  0  0  0  0  0  0  0  0
   12.0660    3.7793   24.0967 O   0  0  0  0  0  0  0  0  0  0  0  0
   15.1290    0.7447   21.6896 F   0  0  0  0  0  0  0  0  0  0  0  0
  1  2  1  0
  1  3  2  0
  2  4  2  0
  3  5  1  0
  3 14  1  0
  4 14  1  0
  4 19  1  0
  5 12  2  0
  5 15  1  0
  6  7  1  0
  6 12  1  0
  6 13  2  0
  7 16  2  0
  7 18  1  0
  8  9  1  0
  8 15  1  0
  8 17  2  0
 10 11  1  0
 11 18  1  0
 13 14  1  0
M  END
