MAN-SYN-45e45961-9
     RDKit          3D

 18 19  0  0  1  0  0  0  0  0999 V2000
   12.9642    1.4332   22.7562 C   0  0  0  0  0  0  0  0  0  0  0  0
   12.9559    0.0360   22.5087 C   0  0  0  0  0  0  0  0  0  0  0  0
   11.8129    1.7212   23.4516 C   0  0  0  0  0  0  0  0  0  0  0  0
   11.8015   -0.4801   23.0606 C   0  0  0  0  0  0  0  0  0  0  0  0
   11.2298    2.8987   23.9904 C   0  0  0  0  0  0  0  0  0  0  0  0
    9.4814    1.6325   24.7376 C   0  0  0  0  0  0  0  0  0  0  0  0
    8.1760    1.5603   25.4534 C   0  0  0  0  0  0  0  0  0  0  0  0
    9.7102    7.0540   23.8188 C   0  0  0  0  0  0  0  0  0  0  0  0
   12.4424    6.1555   24.7643 C   0  0  0  0  0  0  0  0  0  0  0  0
   10.4269    5.8181   23.2910 C   0  0  0  0  0  0  0  0  0  0  0  0
   11.3454    5.1882   24.3402 C   0  0  0  0  0  0  0  0  0  0  0  0
   10.0993    2.8714   24.6168 N   0  0  0  0  0  0  0  0  0  0  0  0
    9.9197    0.4878   24.2858 N   0  0  0  0  0  0  0  0  0  0  0  0
   11.1121    0.5570   23.6324 N   0  0  0  0  0  0  0  0  0  0  0  0
    8.3264    1.3381   26.7920 N   0  0  0  0  0  0  0  0  0  0  0  0
    7.1288    1.6937   24.8500 O   0  0  0  0  0  0  0  0  0  0  0  0
   11.9464    4.0244   23.7940 O   0  0  0  0  0  0  0  0  0  0  0  0
   11.1962   -2.0667   23.1127 Cl  0  0  0  0  0  0  0  0  0  0  0  0
  1  2  1  0
  1  3  2  0
  2  4  2  0
  3  5  1  0
  3 14  1  0
  4 14  1  0
  4 18  1  0
  5 12  2  0
  5 17  1  0
  6  7  1  0
  6 12  1  0
  6 13  2  0
  7 15  1  0
  7 16  2  0
  8 10  1  0
  9 11  1  0
 10 11  1  0
 11 17  1  0
 13 14  1  0
M  END
