MAR-UNI-9d4da90d-5
     RDKit          3D

 16 17  0  0  0  0  0  0  0  0999 V2000
   11.2828   -2.0200   22.8006 C   0  0  0  0  0  0  0  0  0  0  0  0
   12.2960    0.0519   23.3815 C   0  0  0  0  0  0  0  0  0  0  0  0
   12.2903   -1.0853   22.5898 C   0  0  0  0  0  0  0  0  0  0  0  0
   10.3252   -1.7923   23.7827 C   0  0  0  0  0  0  0  0  0  0  0  0
   10.4189   -0.6236   24.5210 C   0  0  0  0  0  0  0  0  0  0  0  0
    7.6610   -5.3531   25.0183 C   0  0  0  0  0  0  0  0  0  0  0  0
    9.0971   -4.2833   26.7995 C   0  0  0  0  0  0  0  0  0  0  0  0
    8.8349   -5.2939   24.0469 C   0  0  0  0  0  0  0  0  0  0  0  0
   10.2627   -4.2323   25.8181 C   0  0  0  0  0  0  0  0  0  0  0  0
    8.1174   -5.4105   26.4748 C   0  0  0  0  0  0  0  0  0  0  0  0
   13.3288   -1.2983   21.5466 C   0  0  0  0  0  0  0  0  0  0  0  0
    9.2393   -2.8029   24.0069 C   0  0  0  0  0  0  0  0  0  0  0  0
   11.3829    0.3077   24.3451 N   0  0  0  0  0  0  0  0  0  0  0  0
    9.4450   -0.3873   25.5234 N   0  0  0  0  0  0  0  0  0  0  0  0
    9.7660   -4.1583   24.3948 N   0  0  0  0  0  0  0  0  0  0  0  0
    8.7411   -6.6721   26.7075 O   0  0  0  0  0  0  0  0  0  0  0  0
  1  3  2  0
  1  4  1  0
  2  3  1  0
  2 13  2  0
  3 11  1  0
  4  5  2  0
  4 12  1  0
  5 13  1  0
  5 14  1  0
  6  8  1  0
  6 10  1  0
  7  9  1  0
  7 10  1  0
  8 15  1  0
  9 15  1  0
 10 16  1  0
 12 15  1  0
M  CHG  1  15   1
M  END
