MAR-UNI-c84db004-3
     RDKit          3D

 24 27  0  0  0  0  0  0  0  0999 V2000
   12.8119   -1.5365   22.8191 C   0  0  0  0  0  0  0  0  0  0  0  0
   11.2350    0.1879   23.4331 C   0  0  0  0  0  0  0  0  0  0  0  0
   13.8419   -0.5960   22.8230 C   0  0  0  0  0  0  0  0  0  0  0  0
   12.2650    1.1284   23.4370 C   0  0  0  0  0  0  0  0  0  0  0  0
   11.5084   -1.1446   23.1241 C   0  0  0  0  0  0  0  0  0  0  0  0
   13.5685    0.7364   23.1319 C   0  0  0  0  0  0  0  0  0  0  0  0
    6.9119    0.0355   21.7683 C   0  0  0  0  0  0  0  0  0  0  0  0
    5.2454    1.3148   17.7684 C   0  0  0  0  0  0  0  0  0  0  0  0
    5.6758    0.8087   19.7842 C   0  0  0  0  0  0  0  0  0  0  0  0
    4.7275    1.4509   19.1278 C   0  0  0  0  0  0  0  0  0  0  0  0
    6.7171    0.3531   18.9408 C   0  0  0  0  0  0  0  0  0  0  0  0
    7.8998   -0.3984   20.9426 C   0  0  0  0  0  0  0  0  0  0  0  0
    7.7918   -0.2354   19.4771 C   0  0  0  0  0  0  0  0  0  0  0  0
    5.6663    0.6734   21.2328 C   0  0  0  0  0  0  0  0  0  0  0  0
    3.5789    2.0896   19.7773 C   0  0  0  0  0  0  0  0  0  0  0  0
    3.3668    1.5677   21.2156 C   0  0  0  0  0  0  0  0  0  0  0  0
    4.5835    0.9991   23.3989 C   0  0  0  0  0  0  0  0  0  0  0  0
   10.3940   -2.1621   23.1206 C   0  0  0  0  0  0  0  0  0  0  0  0
    9.0404   -1.5615   22.7491 C   0  0  0  0  0  0  0  0  0  0  0  0
    6.3836    0.6804   17.6489 N   0  0  0  0  0  0  0  0  0  0  0  0
    4.6390    1.0802   21.9123 N   0  0  0  0  0  0  0  0  0  0  0  0
    9.0329   -0.9947   21.4335 N   0  0  0  0  0  0  0  0  0  0  0  0
   14.5740    1.6538   23.1369 O   0  0  0  0  0  0  0  0  0  0  0  0
    8.8548   -0.6905   18.7292 O   0  0  0  0  0  0  0  0  0  0  0  0
  1  3  2  0
  1  5  1  0
  2  4  1  0
  2  5  2  0
  3  6  1  0
  4  6  2  0
  5 18  1  0
  6 23  1  0
  7 12  2  0
  7 14  1  0
  8 10  1  0
  8 20  2  0
  9 10  2  0
  9 11  1  0
  9 14  1  0
 10 15  1  0
 11 13  2  0
 11 20  1  0
 12 13  1  0
 12 22  1  0
 13 24  1  0
 14 21  2  0
 15 16  1  0
 16 21  1  0
 17 21  1  0
 18 19  1  0
 19 22  1  0
M  CHG  1  21   1
M  END
