MAR-UNI-c84db004-5
     RDKit          3D

 27 30  0  0  0  0  0  0  0  0999 V2000
    4.0123   -4.8012   25.2785 C   0  0  0  0  0  0  0  0  0  0  0  0
    3.2340    1.9379   19.4539 C   0  0  0  0  0  0  0  0  0  0  0  0
    3.9514   -4.8984   23.8884 C   0  0  0  0  0  0  0  0  0  0  0  0
    5.2487   -4.8054   25.9244 C   0  0  0  0  0  0  0  0  0  0  0  0
    3.0501    1.8113   20.8316 C   0  0  0  0  0  0  0  0  0  0  0  0
    4.3829    1.4261   18.8495 C   0  0  0  0  0  0  0  0  0  0  0  0
    5.1267   -4.9998   23.1441 C   0  0  0  0  0  0  0  0  0  0  0  0
    6.4240   -4.9069   25.1801 C   0  0  0  0  0  0  0  0  0  0  0  0
    4.0147    1.1722   21.6111 C   0  0  0  0  0  0  0  0  0  0  0  0
    9.8342   -2.3779   24.0497 C   0  0  0  0  0  0  0  0  0  0  0  0
    9.9931   -1.0194   23.7766 C   0  0  0  0  0  0  0  0  0  0  0  0
    7.9838   -2.4732   22.4992 C   0  0  0  0  0  0  0  0  0  0  0  0
    5.3464    0.7873   19.6334 C   0  0  0  0  0  0  0  0  0  0  0  0
    8.1427   -1.1146   22.2261 C   0  0  0  0  0  0  0  0  0  0  0  0
    6.3630   -5.0041   23.7900 C   0  0  0  0  0  0  0  0  0  0  0  0
    5.1645    0.6601   21.0095 C   0  0  0  0  0  0  0  0  0  0  0  0
    8.8295   -3.1049   23.4109 C   0  0  0  0  0  0  0  0  0  0  0  0
    9.1474   -0.3877   22.8648 C   0  0  0  0  0  0  0  0  0  0  0  0
    7.5191   -0.4144   19.9477 C   0  0  0  0  0  0  0  0  0  0  0  0
    7.2333   -0.4688   21.2583 C   0  0  0  0  0  0  0  0  0  0  0  0
    6.5673    0.2370   19.0253 C   0  0  0  0  0  0  0  0  0  0  0  0
   10.3789    1.5957   23.3180 C   0  0  0  0  0  0  0  0  0  0  0  0
    7.6278   -5.1135   22.9900 C   0  0  0  0  0  0  0  0  0  0  0  0
    6.7900    0.3094   17.8247 O   0  0  0  0  0  0  0  0  0  0  0  0
    6.0768    0.0425   21.8270 O   0  0  0  0  0  0  0  0  0  0  0  0
    9.3252    0.9411   22.6154 O   0  0  0  0  0  0  0  0  0  0  0  0
    8.6746   -4.4305   23.6780 O   0  0  0  0  0  0  0  0  0  0  0  0
  1  3  2  0
  1  4  1  0
  2  5  2  0
  2  6  1  0
  3  7  1  0
  4  8  2  0
  5  9  1  0
  6 13  2  0
  7 15  2  0
  8 15  1  0
  9 16  2  0
 10 11  2  0
 10 17  1  0
 11 18  1  0
 12 14  1  0
 12 17  2  0
 13 16  1  0
 13 21  1  0
 14 18  2  0
 14 20  1  0
 15 23  1  0
 16 25  1  0
 17 27  1  0
 18 26  1  0
 19 20  2  0
 19 21  1  0
 20 25  1  0
 21 24  2  0
 22 26  1  0
 23 27  1  0
M  END
