MAR-UNI-c84db004-1
     RDKit          3D

 27 30  0  0  1  0  0  0  0  0999 V2000
   11.4054    1.4066   23.8419 C   0  0  0  0  0  0  0  0  0  0  0  0
   11.8924    0.1434   23.8011 C   0  0  0  0  0  0  0  0  0  0  0  0
   13.5753   -1.3142   22.6033 C   0  0  0  0  0  0  0  0  0  0  0  0
    7.8852   -2.6754   22.0662 C   0  0  0  0  0  0  0  0  0  0  0  0
    9.9286    1.6976   24.0231 C   0  0  0  0  0  0  0  0  0  0  0  0
    9.0819    0.4995   24.4473 C   0  0  0  0  0  0  0  0  0  0  0  0
   13.0491    4.0096   21.6603 C   0  0  0  0  0  0  0  0  0  0  0  0
   12.9664    2.6481   22.3565 C   0  0  0  0  0  0  0  0  0  0  0  0
   13.1862    5.1602   22.6478 C   0  0  0  0  0  0  0  0  0  0  0  0
   11.3009    3.8908   23.8423 C   0  0  0  0  0  0  0  0  0  0  0  0
   13.3453   -0.2160   23.6236 C   0  0  0  0  0  0  0  0  0  0  0  0
   11.0004   -1.0648   23.9452 C   0  0  0  0  0  0  0  0  0  0  0  0
    9.5160   -0.7909   23.7721 C   0  0  0  0  0  0  0  0  0  0  0  0
   11.2320   -2.0483   22.8130 C   0  0  0  0  0  0  0  0  0  0  0  0
    9.3310   -0.8157   22.2531 C   0  0  0  0  0  0  0  0  0  0  0  0
   12.2394    2.6647   23.7247 C   0  0  0  0  0  0  0  0  0  0  0  0
   11.9551    5.2762   23.5751 C   0  0  0  0  0  0  0  0  0  0  0  0
    6.4813   -3.0630   21.7127 C   0  0  0  0  0  0  0  0  0  0  0  0
   13.9987   -0.6163   24.9458 C   0  0  0  0  0  0  0  0  0  0  0  0
   13.2622    2.6288   24.8760 C   0  0  0  0  0  0  0  0  0  0  0  0
   10.8984    6.1881   22.9095 C   0  0  0  0  0  0  0  0  0  0  0  0
   12.3664    5.9576   24.8943 C   0  0  0  0  0  0  0  0  0  0  0  0
   14.6657   -1.4335   22.0446 O   0  0  0  0  0  0  0  0  0  0  0  0
    8.7495   -3.4703   22.4101 O   0  0  0  0  0  0  0  0  0  0  0  0
   12.5924   -2.2118   22.3864 O   0  0  0  0  0  0  0  0  0  0  0  0
   10.3705   -1.6573   21.7309 O   0  0  0  0  0  0  0  0  0  0  0  0
    8.0395   -1.3216   21.9455 O   0  0  0  0  0  0  0  0  0  0  0  0
  1  2  2  0
  1  5  1  0
  1 16  1  0
  2 11  1  0
  2 12  1  0
  3 11  1  0
  3 23  2  0
  3 25  1  0
  4 18  1  0
  4 24  2  0
  4 27  1  0
  5  6  1  0
  6 13  1  0
  7  8  1  0
  7  9  1  0
  8 16  1  0
  9 17  1  0
 10 16  1  0
 10 17  1  0
 11 19  1  0
 12 13  1  0
 12 14  1  0
 13 15  1  0
 14 25  1  0
 14 26  1  0
 15 26  1  0
 15 27  1  0
 16 20  1  0
 17 21  1  0
 17 22  1  0
M  END
