MAR-UNI-9d4da90d-6
     RDKit          3D

 17 18  0  0  0  0  0  0  0  0999 V2000
    8.0948   -0.1029   20.8547 C   0  0  0  0  0  0  0  0  0  0  0  0
    7.6962   -1.6938   22.6787 C   0  0  0  0  0  0  0  0  0  0  0  0
    6.4349   -1.8921   20.6721 C   0  0  0  0  0  0  0  0  0  0  0  0
    7.4086   -1.2280   21.4005 C   0  0  0  0  0  0  0  0  0  0  0  0
    7.0109   -2.7939   23.1822 C   0  0  0  0  0  0  0  0  0  0  0  0
    6.0549   -3.3878   22.3740 C   0  0  0  0  0  0  0  0  0  0  0  0
    8.5468   -4.9729   26.9501 C   0  0  0  0  0  0  0  0  0  0  0  0
   10.2242   -4.4176   25.1452 C   0  0  0  0  0  0  0  0  0  0  0  0
    7.5606   -5.4325   25.8818 C   0  0  0  0  0  0  0  0  0  0  0  0
    9.2287   -4.8823   24.0880 C   0  0  0  0  0  0  0  0  0  0  0  0
    9.9982   -5.1030   26.4923 C   0  0  0  0  0  0  0  0  0  0  0  0
    7.3244   -3.2946   24.5613 C   0  0  0  0  0  0  0  0  0  0  0  0
    8.6531    0.8124   20.4106 N   0  0  0  0  0  0  0  0  0  0  0  0
    5.7482   -2.9638   21.1275 N   0  0  0  0  0  0  0  0  0  0  0  0
    5.3541   -4.5099   22.8828 N   0  0  0  0  0  0  0  0  0  0  0  0
    7.8096   -4.7191   24.5753 N   0  0  0  0  0  0  0  0  0  0  0  0
   10.3203   -6.4887   26.3873 O   0  0  0  0  0  0  0  0  0  0  0  0
  1  4  1  0
  1 13  3  0
  2  4  2  0
  2  5  1  0
  3  4  1  0
  3 14  2  0
  5  6  2  0
  5 12  1  0
  6 14  1  0
  6 15  1  0
  7  9  1  0
  7 11  1  0
  8 10  1  0
  8 11  1  0
  9 16  1  0
 10 16  1  0
 11 17  1  0
 12 16  1  0
M  CHG  1  16   1
M  END
