MAR-SOS-82e3a7c7-2
     RDKit          3D

 32 35  0  0  1  0  0  0  0  0999 V2000
    8.5316    6.0894   23.9485 C   0  0  0  0  0  0  0  0  0  0  0  0
    5.3367   -4.1227   26.5553 C   0  0  0  0  0  0  0  0  0  0  0  0
    9.7632    6.2007   23.3033 C   0  0  0  0  0  0  0  0  0  0  0  0
    8.2130    4.9249   24.6473 C   0  0  0  0  0  0  0  0  0  0  0  0
    6.3160   -4.9922   26.0753 C   0  0  0  0  0  0  0  0  0  0  0  0
    5.5257   -2.7433   26.4687 C   0  0  0  0  0  0  0  0  0  0  0  0
   10.6763    5.1475   23.3568 C   0  0  0  0  0  0  0  0  0  0  0  0
    9.1260    3.8718   24.7007 C   0  0  0  0  0  0  0  0  0  0  0  0
    7.4843   -4.4826   25.5088 C   0  0  0  0  0  0  0  0  0  0  0  0
    6.6940   -2.2336   25.9022 C   0  0  0  0  0  0  0  0  0  0  0  0
   10.3577    3.9830   24.0555 C   0  0  0  0  0  0  0  0  0  0  0  0
    7.6733   -3.1032   25.4222 C   0  0  0  0  0  0  0  0  0  0  0  0
   12.1519    0.7007   23.1084 C   0  0  0  0  0  0  0  0  0  0  0  0
   11.7042   -0.6278   22.6460 C   0  0  0  0  0  0  0  0  0  0  0  0
    8.9977    1.3293   21.8640 C   0  0  0  0  0  0  0  0  0  0  0  0
    5.8863    2.0027   21.2547 C   0  0  0  0  0  0  0  0  0  0  0  0
    6.5964    1.5930   22.5337 C   0  0  0  0  0  0  0  0  0  0  0  0
    9.1370   -2.9445   23.4539 C   0  0  0  0  0  0  0  0  0  0  0  0
    9.3732   -1.3004   25.3200 C   0  0  0  0  0  0  0  0  0  0  0  0
   10.6285   -2.7874   23.1605 C   0  0  0  0  0  0  0  0  0  0  0  0
   10.8613   -1.1879   24.9931 C   0  0  0  0  0  0  0  0  0  0  0  0
    5.8616    0.7205   20.4534 C   0  0  0  0  0  0  0  0  0  0  0  0
    7.6891    0.6400   22.0687 C   0  0  0  0  0  0  0  0  0  0  0  0
   11.3450    2.8431   24.1136 C   0  0  0  0  0  0  0  0  0  0  0  0
   11.1666    1.8482   22.9637 C   0  0  0  0  0  0  0  0  0  0  0  0
    8.8457   -2.5913   24.8535 N   0  0  0  0  0  0  0  0  0  0  0  0
   11.0935   -1.4648   23.5728 N   0  0  0  0  0  0  0  0  0  0  0  0
    9.8537    1.2538   22.9491 N   0  0  0  0  0  0  0  0  0  0  0  0
    7.1865    0.0898   20.7590 N   0  0  0  0  0  0  0  0  0  0  0  0
   13.2897    0.8389   23.5518 O   0  0  0  0  0  0  0  0  0  0  0  0
   11.8951   -0.9139   21.4627 O   0  0  0  0  0  0  0  0  0  0  0  0
    9.2245    1.8915   20.7990 O   0  0  0  0  0  0  0  0  0  0  0  0
  1  3  2  0
  1  4  1  0
  2  5  2  0
  2  6  1  0
  3  7  1  0
  4  8  2  0
  5  9  1  0
  6 10  2  0
  7 11  2  0
  8 11  1  0
  9 12  2  0
 10 12  1  0
 11 24  1  0
 12 26  1  0
 13 14  1  0
 13 25  1  0
 13 30  2  0
 14 27  1  0
 14 31  2  0
 15 23  1  0
 15 28  1  0
 15 32  2  0
 16 17  1  0
 16 22  1  0
 17 23  1  0
 18 20  1  0
 18 26  1  0
 19 21  1  0
 19 26  1  0
 20 27  1  0
 21 27  1  0
 22 29  1  0
 23 29  1  0
 24 25  1  0
 25 28  1  0
M  CHG  1  29   1
M  END
