MAR-UNI-c84db004-7
     RDKit          3D

 27 30  0  0  0  0  0  0  0  0999 V2000
    7.8158    6.8891   24.0323 C   0  0  0  0  0  0  0  0  0  0  0  0
    8.5816    6.9806   25.1945 C   0  0  0  0  0  0  0  0  0  0  0  0
    8.4331    6.6272   22.8091 C   0  0  0  0  0  0  0  0  0  0  0  0
   12.7361    1.8590   22.3536 C   0  0  0  0  0  0  0  0  0  0  0  0
   12.1661    2.3436   24.6508 C   0  0  0  0  0  0  0  0  0  0  0  0
   12.1483   -4.1161   24.7659 C   0  0  0  0  0  0  0  0  0  0  0  0
    9.9647    6.8103   25.1336 C   0  0  0  0  0  0  0  0  0  0  0  0
    9.8162    6.4570   22.7482 C   0  0  0  0  0  0  0  0  0  0  0  0
   12.7083    3.2221   22.0591 C   0  0  0  0  0  0  0  0  0  0  0  0
   12.1384    3.7068   24.3564 C   0  0  0  0  0  0  0  0  0  0  0  0
   10.9042   -4.7254   24.5976 C   0  0  0  0  0  0  0  0  0  0  0  0
    9.9491   -2.6112   23.9145 C   0  0  0  0  0  0  0  0  0  0  0  0
   12.4649    1.4197   23.6494 C   0  0  0  0  0  0  0  0  0  0  0  0
   12.2865   -2.7508   24.5058 C   0  0  0  0  0  0  0  0  0  0  0  0
   10.5820    6.5486   23.9104 C   0  0  0  0  0  0  0  0  0  0  0  0
   11.1918   -1.9996   24.0814 C   0  0  0  0  0  0  0  0  0  0  0  0
   12.4095    4.1460   23.0605 C   0  0  0  0  0  0  0  0  0  0  0  0
    9.8069   -3.9748   24.1729 C   0  0  0  0  0  0  0  0  0  0  0  0
   13.6173   -0.6357   24.3689 C   0  0  0  0  0  0  0  0  0  0  0  0
   12.4943   -0.0234   23.9611 C   0  0  0  0  0  0  0  0  0  0  0  0
   13.5845   -2.0801   24.6748 C   0  0  0  0  0  0  0  0  0  0  0  0
    7.5158   -3.7495   23.5763 C   0  0  0  0  0  0  0  0  0  0  0  0
   12.0698    6.3656   23.8441 C   0  0  0  0  0  0  0  0  0  0  0  0
   14.5854   -2.6764   25.0476 O   0  0  0  0  0  0  0  0  0  0  0  0
   11.2698   -0.6567   23.8122 O   0  0  0  0  0  0  0  0  0  0  0  0
    8.5950   -4.5742   24.0127 O   0  0  0  0  0  0  0  0  0  0  0  0
   12.3824    5.4762   22.7732 O   0  0  0  0  0  0  0  0  0  0  0  0
  1  2  2  0
  1  3  1  0
  2  7  1  0
  3  8  2  0
  4  9  2  0
  4 13  1  0
  5 10  1  0
  5 13  2  0
  6 11  2  0
  6 14  1  0
  7 15  2  0
  8 15  1  0
  9 17  1  0
 10 17  2  0
 11 18  1  0
 12 16  1  0
 12 18  2  0
 13 20  1  0
 14 16  2  0
 14 21  1  0
 15 23  1  0
 16 25  1  0
 17 27  1  0
 18 26  1  0
 19 20  2  0
 19 21  1  0
 20 25  1  0
 21 24  2  0
 22 26  1  0
 23 27  1  0
M  END
