MAR-SOS-c7881798-12
     RDKit          3D

 38 41  0  0  1  0  0  0  0  0999 V2000
    9.0723    8.2237   24.6776 C   0  0  0  0  0  0  0  0  0  0  0  0
   12.3432   -1.8017   22.5743 C   0  0  0  0  0  0  0  0  0  0  0  0
    6.8972   -5.4253   25.3535 C   0  0  0  0  0  0  0  0  0  0  0  0
    7.9641    7.5591   25.2028 C   0  0  0  0  0  0  0  0  0  0  0  0
    9.5918    7.8433   23.4402 C   0  0  0  0  0  0  0  0  0  0  0  0
   11.5266   -1.3195   23.5972 C   0  0  0  0  0  0  0  0  0  0  0  0
   13.2363   -0.9442   21.9319 C   0  0  0  0  0  0  0  0  0  0  0  0
    7.6858   -4.6887   24.4697 C   0  0  0  0  0  0  0  0  0  0  0  0
    6.0272   -4.7695   26.2246 C   0  0  0  0  0  0  0  0  0  0  0  0
    7.3754    6.5142   24.4907 C   0  0  0  0  0  0  0  0  0  0  0  0
    9.0032    6.7983   22.7281 C   0  0  0  0  0  0  0  0  0  0  0  0
   11.6030    0.0203   23.9776 C   0  0  0  0  0  0  0  0  0  0  0  0
   13.3128    0.3956   22.3123 C   0  0  0  0  0  0  0  0  0  0  0  0
    7.6044   -3.2962   24.4570 C   0  0  0  0  0  0  0  0  0  0  0  0
    5.9459   -3.3771   26.2119 C   0  0  0  0  0  0  0  0  0  0  0  0
    7.8950    6.1337   23.2533 C   0  0  0  0  0  0  0  0  0  0  0  0
   12.4961    0.8779   23.3351 C   0  0  0  0  0  0  0  0  0  0  0  0
    6.7345   -2.6404   25.3281 C   0  0  0  0  0  0  0  0  0  0  0  0
    7.2218    2.5543   21.9789 C   0  0  0  0  0  0  0  0  0  0  0  0
    6.0656    1.8475   22.5660 C   0  0  0  0  0  0  0  0  0  0  0  0
   10.2126    3.2704   23.5243 C   0  0  0  0  0  0  0  0  0  0  0  0
    7.7900   -0.4031   24.9557 C   0  0  0  0  0  0  0  0  0  0  0  0
    5.3562   -0.5780   25.1989 C   0  0  0  0  0  0  0  0  0  0  0  0
    7.6414    0.0718   23.5090 C   0  0  0  0  0  0  0  0  0  0  0  0
    5.1736   -0.1215   23.7503 C   0  0  0  0  0  0  0  0  0  0  0  0
   12.5978    5.1034   24.3820 C   0  0  0  0  0  0  0  0  0  0  0  0
   13.3139    4.8331   22.0125 C   0  0  0  0  0  0  0  0  0  0  0  0
    7.2587    5.0031   22.4824 C   0  0  0  0  0  0  0  0  0  0  0  0
   12.5789    2.3233   23.7448 C   0  0  0  0  0  0  0  0  0  0  0  0
    7.8666    3.6400   22.8238 C   0  0  0  0  0  0  0  0  0  0  0  0
   11.6368    3.2744   22.9916 C   0  0  0  0  0  0  0  0  0  0  0  0
    6.6531   -1.2525   25.3157 N   0  0  0  0  0  0  0  0  0  0  0  0
    6.3150    0.6755   23.2777 N   0  0  0  0  0  0  0  0  0  0  0  0
    9.2796    3.5825   22.5456 N   0  0  0  0  0  0  0  0  0  0  0  0
   12.1914    4.6587   23.0016 N   0  0  0  0  0  0  0  0  0  0  0  0
    7.5935    2.2727   20.8419 O   0  0  0  0  0  0  0  0  0  0  0  0
    4.9481    2.3342   22.3850 O   0  0  0  0  0  0  0  0  0  0  0  0
    9.9406    3.0179   24.6962 O   0  0  0  0  0  0  0  0  0  0  0  0
  1  4  2  0
  1  5  1  0
  2  6  2  0
  2  7  1  0
  3  8  2  0
  3  9  1  0
  4 10  1  0
  5 11  2  0
  6 12  1  0
  7 13  2  0
  8 14  1  0
  9 15  2  0
 10 16  2  0
 11 16  1  0
 12 17  2  0
 13 17  1  0
 14 18  2  0
 15 18  1  0
 16 28  1  0
 17 29  1  0
 18 32  1  0
 19 20  1  0
 19 30  1  0
 19 36  2  0
 20 33  1  0
 20 37  2  0
 21 31  1  0
 21 34  1  0
 21 38  2  0
 22 24  1  0
 22 32  1  0
 23 25  1  0
 23 32  1  0
 24 33  1  0
 25 33  1  0
 26 35  1  0
 27 35  1  0
 28 30  1  0
 29 31  1  0
 30 34  1  0
 31 35  1  0
M  CHG  1  35   1
M  END
