MAR-UNI-c84db004-4
     RDKit          3D

 24 27  0  0  0  0  0  0  0  0999 V2000
    8.8051    7.6159   24.3898 C   0  0  0  0  0  0  0  0  0  0  0  0
    9.0066    5.8475   22.7561 C   0  0  0  0  0  0  0  0  0  0  0  0
    7.6964    8.1187   23.7089 C   0  0  0  0  0  0  0  0  0  0  0  0
    7.8979    6.3502   22.0752 C   0  0  0  0  0  0  0  0  0  0  0  0
    9.4602    6.4803   23.9134 C   0  0  0  0  0  0  0  0  0  0  0  0
    7.2428    7.4859   22.5516 C   0  0  0  0  0  0  0  0  0  0  0  0
   10.4555    1.8177   23.9333 C   0  0  0  0  0  0  0  0  0  0  0  0
   13.2253   -1.3253   22.2301 C   0  0  0  0  0  0  0  0  0  0  0  0
   11.7416   -0.1504   23.1918 C   0  0  0  0  0  0  0  0  0  0  0  0
   11.9480   -1.4281   22.9324 C   0  0  0  0  0  0  0  0  0  0  0  0
   12.7558    0.6880   22.6668 C   0  0  0  0  0  0  0  0  0  0  0  0
   11.4461    2.5893   23.4234 C   0  0  0  0  0  0  0  0  0  0  0  0
   12.6352    2.0162   22.7737 C   0  0  0  0  0  0  0  0  0  0  0  0
   10.5452    0.3226   23.8750 C   0  0  0  0  0  0  0  0  0  0  0  0
   10.7661    4.4467   24.4788 C   0  0  0  0  0  0  0  0  0  0  0  0
   11.0094   -2.4938   23.2960 C   0  0  0  0  0  0  0  0  0  0  0  0
   10.0012   -2.0322   24.3714 C   0  0  0  0  0  0  0  0  0  0  0  0
    8.4453   -0.1104   25.0463 C   0  0  0  0  0  0  0  0  0  0  0  0
   10.6555    5.9376   24.6481 C   0  0  0  0  0  0  0  0  0  0  0  0
   13.7012   -0.1160   22.0779 N   0  0  0  0  0  0  0  0  0  0  0  0
   11.4038    3.9579   23.4711 N   0  0  0  0  0  0  0  0  0  0  0  0
    9.7010   -0.5320   24.3640 N   0  0  0  0  0  0  0  0  0  0  0  0
    6.1602    7.9759   21.8880 O   0  0  0  0  0  0  0  0  0  0  0  0
   13.5622    2.9040   22.2772 O   0  0  0  0  0  0  0  0  0  0  0  0
  1  3  2  0
  1  5  1  0
  2  4  1  0
  2  5  2  0
  3  6  1  0
  4  6  2  0
  5 19  1  0
  6 23  1  0
  7 12  2  0
  7 14  1  0
  8 10  1  0
  8 20  2  0
  9 10  2  0
  9 11  1  0
  9 14  1  0
 10 16  1  0
 11 13  2  0
 11 20  1  0
 12 13  1  0
 12 21  1  0
 13 24  1  0
 14 22  2  0
 15 19  1  0
 15 21  2  0
 16 17  1  0
 17 22  1  0
 18 22  1  0
M  CHG  1  22   1
M  END
