MAR-UNI-c84db004-17
     RDKit          3D

 28 31  0  0  0  0  0  0  0  0999 V2000
   10.1700   -2.3431   22.3334 C   0  0  0  0  0  0  0  0  0  0  0  0
    5.2043    0.6329   22.9771 C   0  0  0  0  0  0  0  0  0  0  0  0
    7.3052    0.0149   21.9533 C   0  0  0  0  0  0  0  0  0  0  0  0
    8.6661   -0.4590   22.1538 C   0  0  0  0  0  0  0  0  0  0  0  0
   11.2430   -1.4671   22.5321 C   0  0  0  0  0  0  0  0  0  0  0  0
    6.7734    0.3004   20.6908 C   0  0  0  0  0  0  0  0  0  0  0  0
   11.0247   -0.0868   22.5412 C   0  0  0  0  0  0  0  0  0  0  0  0
    5.4562    0.7522   20.5742 C   0  0  0  0  0  0  0  0  0  0  0  0
    8.8839   -1.8359   22.1447 C   0  0  0  0  0  0  0  0  0  0  0  0
    6.5183    0.1821   23.0934 C   0  0  0  0  0  0  0  0  0  0  0  0
    4.6704    0.9186   21.7201 C   0  0  0  0  0  0  0  0  0  0  0  0
    9.7333    0.4178   22.3515 C   0  0  0  0  0  0  0  0  0  0  0  0
   13.7016   -1.0486   22.9373 C   0  0  0  0  0  0  0  0  0  0  0  0
    7.0083    0.4351   18.1788 C   0  0  0  0  0  0  0  0  0  0  0  0
   13.4932    0.2687   22.9458 C   0  0  0  0  0  0  0  0  0  0  0  0
    5.7510    0.8663   18.0675 C   0  0  0  0  0  0  0  0  0  0  0  0
   12.6005   -2.0118   22.7311 C   0  0  0  0  0  0  0  0  0  0  0  0
    7.6126    0.1209   19.4897 C   0  0  0  0  0  0  0  0  0  0  0  0
   12.1483    0.8477   22.7496 C   0  0  0  0  0  0  0  0  0  0  0  0
    4.8836    1.0567   19.2481 C   0  0  0  0  0  0  0  0  0  0  0  0
    7.7682   -2.8110   21.9348 C   0  0  0  0  0  0  0  0  0  0  0  0
    7.0402   -0.1091   24.4661 C   0  0  0  0  0  0  0  0  0  0  0  0
    3.4536    1.3292   21.6975 O   0  0  0  0  0  0  0  0  0  0  0  0
    9.4838    1.6811   22.3525 O   0  0  0  0  0  0  0  0  0  0  0  0
   12.8196   -3.2169   22.7275 O   0  0  0  0  0  0  0  0  0  0  0  0
    8.7732   -0.2701   19.5136 O   0  0  0  0  0  0  0  0  0  0  0  0
   12.0507    2.0692   22.7722 O   0  0  0  0  0  0  0  0  0  0  0  0
    3.7402    1.4547   19.0579 O   0  0  0  0  0  0  0  0  0  0  0  0
  1  5  2  0
  1  9  1  0
  2 10  2  0
  2 11  1  0
  3  4  1  0
  3  6  2  0
  3 10  1  0
  4  9  2  0
  4 12  1  0
  5  7  1  0
  5 17  1  0
  6  8  1  0
  6 18  1  0
  7 12  2  0
  7 19  1  0
  8 11  2  0
  8 20  1  0
  9 21  1  0
 10 22  1  0
 11 23  1  0
 12 24  1  0
 13 15  2  0
 13 17  1  0
 14 16  2  0
 14 18  1  0
 15 19  1  0
 16 20  1  0
 17 25  2  0
 18 26  2  0
 19 27  2  0
 20 28  2  0
M  CHG  2  23  -1  24  -1
M  END
