MAR-UNI-9d4da90d-4
     RDKit          3D

 17 17  0  0  0  0  0  0  0  0999 V2000
    6.0854   -0.4852   20.4087 C   0  0  0  0  0  0  0  0  0  0  0  0
    5.9520    0.6199   18.3069 C   0  0  0  0  0  0  0  0  0  0  0  0
    5.4565    0.4454   19.5890 C   0  0  0  0  0  0  0  0  0  0  0  0
    7.1751   -1.2027   19.9280 C   0  0  0  0  0  0  0  0  0  0  0  0
    7.5935   -0.9545   18.6307 C   0  0  0  0  0  0  0  0  0  0  0  0
    4.2895    1.2300   20.0733 C   0  0  0  0  0  0  0  0  0  0  0  0
    7.8519   -2.2062   20.8163 C   0  0  0  0  0  0  0  0  0  0  0  0
    7.0558   -5.1918   22.3261 C   0  0  0  0  0  0  0  0  0  0  0  0
    7.0080   -0.0585   17.8048 N   0  0  0  0  0  0  0  0  0  0  0  0
    8.7038   -1.6838   18.1363 N   0  0  0  0  0  0  0  0  0  0  0  0
    7.0353   -2.5364   21.9974 N   0  0  0  0  0  0  0  0  0  0  0  0
    4.9857   -3.7561   22.9970 O   0  0  0  0  0  0  0  0  0  0  0  0
    5.5427   -4.0428   20.5542 O   0  0  0  0  0  0  0  0  0  0  0  0
    6.4142   -6.3852   22.3352 F   0  0  0  0  0  0  0  0  0  0  0  0
    7.6050   -5.0238   23.5540 F   0  0  0  0  0  0  0  0  0  0  0  0
    8.0789   -5.2876   21.4433 F   0  0  0  0  0  0  0  0  0  0  0  0
    5.9621   -3.8609   21.9306 S   0  0  0  0  0  0  0  0  0  0  0  0
  1  3  2  0
  1  4  1  0
  2  3  1  0
  2  9  2  0
  3  6  1  0
  4  5  2  0
  4  7  1  0
  5  9  1  0
  5 10  1  0
  7 11  1  0
  8 14  1  0
  8 15  1  0
  8 16  1  0
  8 17  1  0
 11 17  1  0
 12 17  2  0
 13 17  2  0
M  END
