MAR-UNI-9ca61fdc-1
     RDKit          3D

 18 19  0  0  0  0  0  0  0  0999 V2000
   11.9874    1.1540   24.5514 C   0  0  0  0  0  0  0  0  0  0  0  0
   12.9237    0.9425   23.5353 C   0  0  0  0  0  0  0  0  0  0  0  0
   11.8728   -1.1600   22.9253 C   0  0  0  0  0  0  0  0  0  0  0  0
    9.2332   -1.0193   25.4498 C   0  0  0  0  0  0  0  0  0  0  0  0
   10.9179   -0.9684   23.9436 C   0  0  0  0  0  0  0  0  0  0  0  0
    9.8001   -1.7166   24.4080 C   0  0  0  0  0  0  0  0  0  0  0  0
   10.9971    0.1819   24.7316 C   0  0  0  0  0  0  0  0  0  0  0  0
   12.8692   -0.1959   22.7336 C   0  0  0  0  0  0  0  0  0  0  0  0
   13.6861   -1.5589   20.9642 C   0  0  0  0  0  0  0  0  0  0  0  0
    6.2208   -0.3937   21.5204 C   0  0  0  0  0  0  0  0  0  0  0  0
    9.3244   -3.0090   23.8750 C   0  0  0  0  0  0  0  0  0  0  0  0
    8.0692   -2.8994   22.9903 C   0  0  0  0  0  0  0  0  0  0  0  0
    9.9619    0.1245   25.6373 N   0  0  0  0  0  0  0  0  0  0  0  0
    8.2924   -2.0757   21.8324 N   0  0  0  0  0  0  0  0  0  0  0  0
    6.0848   -2.8906   20.7475 O   0  0  0  0  0  0  0  0  0  0  0  0
    7.5555   -1.2926   19.4671 O   0  0  0  0  0  0  0  0  0  0  0  0
   13.7958   -0.3741   21.7500 O   0  0  0  0  0  0  0  0  0  0  0  0
    7.0082   -1.7733   20.7212 S   0  0  0  0  0  0  0  0  0  0  0  0
  1  2  2  0
  1  7  1  0
  2  8  1  0
  3  5  1  0
  3  8  2  0
  4  6  2  0
  4 13  1  0
  5  6  1  0
  5  7  2  0
  6 11  1  0
  7 13  1  0
  8 17  1  0
  9 17  1  0
 10 18  1  0
 11 12  1  0
 12 14  1  0
 14 18  1  0
 15 18  2  0
 16 18  2  0
M  END
