MAR-SOS-82e3a7c7-8
     RDKit          3D

 35 38  0  0  1  0  0  0  0  0999 V2000
   13.9403   -2.4506   24.4111 C   0  0  0  0  0  0  0  0  0  0  0  0
   14.0068   -1.2736   25.1565 C   0  0  0  0  0  0  0  0  0  0  0  0
   13.5276   -2.4103   23.0792 C   0  0  0  0  0  0  0  0  0  0  0  0
   10.8740   -3.1742   25.7006 C   0  0  0  0  0  0  0  0  0  0  0  0
    7.0640    2.9974   21.3582 C   0  0  0  0  0  0  0  0  0  0  0  0
   10.8608   -4.4417   25.1291 C   0  0  0  0  0  0  0  0  0  0  0  0
    6.5580    2.3423   22.4754 C   0  0  0  0  0  0  0  0  0  0  0  0
   13.6605   -0.0562   24.5702 C   0  0  0  0  0  0  0  0  0  0  0  0
   13.1814   -1.1930   22.4929 C   0  0  0  0  0  0  0  0  0  0  0  0
   10.0417   -2.1813   25.1957 C   0  0  0  0  0  0  0  0  0  0  0  0
    7.7191    4.2144   21.5103 C   0  0  0  0  0  0  0  0  0  0  0  0
   10.0040   -4.6636   24.0631 C   0  0  0  0  0  0  0  0  0  0  0  0
    6.7319    2.9413   23.7126 C   0  0  0  0  0  0  0  0  0  0  0  0
   13.2478   -0.0159   23.2384 C   0  0  0  0  0  0  0  0  0  0  0  0
    9.2218   -2.5043   24.1265 C   0  0  0  0  0  0  0  0  0  0  0  0
    7.8408    4.7297   22.7907 C   0  0  0  0  0  0  0  0  0  0  0  0
   10.5549    0.9479   21.6953 C   0  0  0  0  0  0  0  0  0  0  0  0
    9.9610   -0.3857   22.0506 C   0  0  0  0  0  0  0  0  0  0  0  0
   11.2113    3.9701   23.6165 C   0  0  0  0  0  0  0  0  0  0  0  0
   11.5910    7.0212   24.8652 C   0  0  0  0  0  0  0  0  0  0  0  0
   12.1168    6.3094   23.6309 C   0  0  0  0  0  0  0  0  0  0  0  0
   10.1317    7.2385   24.5338 C   0  0  0  0  0  0  0  0  0  0  0  0
   10.9833    5.3850   23.1953 C   0  0  0  0  0  0  0  0  0  0  0  0
   12.8724    1.3023   22.6028 C   0  0  0  0  0  0  0  0  0  0  0  0
    8.3102   -1.4568   23.5556 C   0  0  0  0  0  0  0  0  0  0  0  0
    8.5416    6.0409   22.9920 C   0  0  0  0  0  0  0  0  0  0  0  0
   11.3842    1.6423   22.7598 C   0  0  0  0  0  0  0  0  0  0  0  0
    9.1812   -3.7242   23.5452 N   0  0  0  0  0  0  0  0  0  0  0  0
    7.3625    4.1223   23.8997 N   0  0  0  0  0  0  0  0  0  0  0  0
    9.0417   -0.3096   23.0715 N   0  0  0  0  0  0  0  0  0  0  0  0
   11.1849    3.0619   22.5754 N   0  0  0  0  0  0  0  0  0  0  0  0
    9.7398    5.9346   23.8803 N   0  0  0  0  0  0  0  0  0  0  0  0
   10.3630    1.3579   20.5588 O   0  0  0  0  0  0  0  0  0  0  0  0
   10.3127   -1.3593   21.4036 O   0  0  0  0  0  0  0  0  0  0  0  0
   11.3999    3.7150   24.8002 O   0  0  0  0  0  0  0  0  0  0  0  0
  1  2  2  0
  1  3  1  0
  2  8  1  0
  3  9  2  0
  4  6  2  0
  4 10  1  0
  5  7  2  0
  5 11  1  0
  6 12  1  0
  7 13  1  0
  8 14  2  0
  9 14  1  0
 10 15  2  0
 11 16  2  0
 12 28  2  0
 13 29  2  0
 14 24  1  0
 15 25  1  0
 15 28  1  0
 16 26  1  0
 16 29  1  0
 17 18  1  0
 17 27  1  0
 17 33  2  0
 18 30  1  0
 18 34  2  0
 19 23  1  0
 19 31  1  0
 19 35  2  0
 20 21  1  0
 20 22  1  0
 21 23  1  0
 22 32  1  0
 23 32  1  0
 24 27  1  0
 25 30  1  0
 26 32  1  0
 27 31  1  0
M  CHG  1  32   1
M  END
