MAR-UNI-c84db004-2
     RDKit          3D

 29 32  0  0  0  0  0  0  0  0999 V2000
    4.7978   -5.7703   23.1604 C   0  0  0  0  0  0  0  0  0  0  0  0
    5.1653   -5.3259   24.4304 C   0  0  0  0  0  0  0  0  0  0  0  0
    5.7405   -5.8022   22.1328 C   0  0  0  0  0  0  0  0  0  0  0  0
   11.7558    4.9980   22.8277 C   0  0  0  0  0  0  0  0  0  0  0  0
    6.4755   -4.9133   24.6729 C   0  0  0  0  0  0  0  0  0  0  0  0
    7.0507   -5.3896   22.3752 C   0  0  0  0  0  0  0  0  0  0  0  0
   10.5863    5.7157   23.0815 C   0  0  0  0  0  0  0  0  0  0  0  0
   11.2416   -3.3106   24.2050 C   0  0  0  0  0  0  0  0  0  0  0  0
   12.4974   -2.7260   24.3684 C   0  0  0  0  0  0  0  0  0  0  0  0
   10.3286   -1.1690   23.5594 C   0  0  0  0  0  0  0  0  0  0  0  0
    9.4632    3.6759   23.7344 C   0  0  0  0  0  0  0  0  0  0  0  0
   11.7726    3.6161   23.0302 C   0  0  0  0  0  0  0  0  0  0  0  0
   11.5844   -0.5843   23.7228 C   0  0  0  0  0  0  0  0  0  0  0  0
    7.4182   -4.9451   23.6453 C   0  0  0  0  0  0  0  0  0  0  0  0
   10.6312    2.9559   23.4820 C   0  0  0  0  0  0  0  0  0  0  0  0
   10.1572   -2.5321   23.8004 C   0  0  0  0  0  0  0  0  0  0  0  0
    9.4425    5.0563   23.5338 C   0  0  0  0  0  0  0  0  0  0  0  0
   12.6688   -1.3628   24.1274 C   0  0  0  0  0  0  0  0  0  0  0  0
   12.8961    1.3798   23.0214 C   0  0  0  0  0  0  0  0  0  0  0  0
   11.7393    0.8611   23.4632 C   0  0  0  0  0  0  0  0  0  0  0  0
   12.9897    2.8322   22.7707 C   0  0  0  0  0  0  0  0  0  0  0  0
    8.3504    7.1689   23.5493 C   0  0  0  0  0  0  0  0  0  0  0  0
   14.9506   -1.6949   24.7096 C   0  0  0  0  0  0  0  0  0  0  0  0
    8.8277   -4.5012   23.9053 C   0  0  0  0  0  0  0  0  0  0  0  0
   14.0252    3.3452   22.3695 O   0  0  0  0  0  0  0  0  0  0  0  0
   10.5908    1.6016   23.6975 O   0  0  0  0  0  0  0  0  0  0  0  0
    8.3036    5.7614   23.7774 O   0  0  0  0  0  0  0  0  0  0  0  0
   13.9073   -0.8169   24.2938 O   0  0  0  0  0  0  0  0  0  0  0  0
    8.9318   -3.1029   23.6414 O   0  0  0  0  0  0  0  0  0  0  0  0
  1  2  2  0
  1  3  1  0
  2  5  1  0
  3  6  2  0
  4  7  2  0
  4 12  1  0
  5 14  2  0
  6 14  1  0
  7 17  1  0
  8  9  2  0
  8 16  1  0
  9 18  1  0
 10 13  1  0
 10 16  2  0
 11 15  1  0
 11 17  2  0
 12 15  2  0
 12 21  1  0
 13 18  2  0
 13 20  1  0
 14 24  1  0
 15 26  1  0
 16 29  1  0
 17 27  1  0
 18 28  1  0
 19 20  2  0
 19 21  1  0
 20 26  1  0
 21 25  2  0
 22 27  1  0
 23 28  1  0
 24 29  1  0
M  END
