MAR-UNI-c84db004-15
     RDKit          3D

 35 40  0  0  1  0  0  0  0  0999 V2000
   10.4621    6.4919   25.4575 C   0  0  0  0  0  0  0  0  0  0  0  0
    9.5735    5.5425   25.9366 C   0  0  0  0  0  0  0  0  0  0  0  0
    7.6917   -4.0872   22.3507 C   0  0  0  0  0  0  0  0  0  0  0  0
    6.7587   -3.5678   23.2455 C   0  0  0  0  0  0  0  0  0  0  0  0
   11.4432    6.1192   24.5395 C   0  0  0  0  0  0  0  0  0  0  0  0
    9.6698    4.2229   25.4979 C   0  0  0  0  0  0  0  0  0  0  0  0
    8.8651   -3.3837   22.0772 C   0  0  0  0  0  0  0  0  0  0  0  0
    6.9956   -2.3429   23.8696 C   0  0  0  0  0  0  0  0  0  0  0  0
   11.5624    4.7873   24.0782 C   0  0  0  0  0  0  0  0  0  0  0  0
   10.6583    3.8202   24.5703 C   0  0  0  0  0  0  0  0  0  0  0  0
    9.1068   -2.1541   22.7022 C   0  0  0  0  0  0  0  0  0  0  0  0
    8.1723   -1.6346   23.5971 C   0  0  0  0  0  0  0  0  0  0  0  0
   12.6632    3.0605   22.7024 C   0  0  0  0  0  0  0  0  0  0  0  0
   11.7755    2.0863   23.2090 C   0  0  0  0  0  0  0  0  0  0  0  0
   12.5454    4.3934   23.1372 C   0  0  0  0  0  0  0  0  0  0  0  0
   10.7727    2.4866   24.1144 C   0  0  0  0  0  0  0  0  0  0  0  0
   13.7173    2.7391   21.7400 C   0  0  0  0  0  0  0  0  0  0  0  0
   14.4306    3.7252   21.1934 C   0  0  0  0  0  0  0  0  0  0  0  0
   10.3511   -1.4200   22.4064 C   0  0  0  0  0  0  0  0  0  0  0  0
    8.4110   -0.3405   24.2590 C   0  0  0  0  0  0  0  0  0  0  0  0
   10.5819   -0.1275   23.1082 C   0  0  0  0  0  0  0  0  0  0  0  0
    9.6693    0.3806   23.9465 C   0  0  0  0  0  0  0  0  0  0  0  0
   11.8736    0.6099   22.8426 C   0  0  0  0  0  0  0  0  0  0  0  0
   14.2100    5.1692   21.5427 C   0  0  0  0  0  0  0  0  0  0  0  0
   15.5607    5.8280   21.8480 C   0  0  0  0  0  0  0  0  0  0  0  0
   13.5368    5.8947   20.3721 C   0  0  0  0  0  0  0  0  0  0  0  0
   14.9694   -1.6828   23.4847 C   0  0  0  0  0  0  0  0  0  0  0  0
   13.6126   -1.1369   21.4530 C   0  0  0  0  0  0  0  0  0  0  0  0
   13.0102   -0.0570   23.6329 C   0  0  0  0  0  0  0  0  0  0  0  0
   13.5732   -1.3252   22.9730 C   0  0  0  0  0  0  0  0  0  0  0  0
   11.1631   -1.8689   21.6053 O   0  0  0  0  0  0  0  0  0  0  0  0
    7.5942    0.1287   25.0434 O   0  0  0  0  0  0  0  0  0  0  0  0
    9.8386    1.5889   24.5989 O   0  0  0  0  0  0  0  0  0  0  0  0
   13.3980    5.3842   22.7103 O   0  0  0  0  0  0  0  0  0  0  0  0
   12.7171   -2.4339   23.2564 O   0  0  0  0  0  0  0  0  0  0  0  0
  1  2  2  0
  1  5  1  0
  2  6  1  0
  3  4  2  0
  3  7  1  0
  4  8  1  0
  5  9  2  0
  6 10  2  0
  7 11  2  0
  8 12  2  0
  9 10  1  0
  9 15  1  0
 10 16  1  0
 11 12  1  0
 11 19  1  0
 12 20  1  0
 13 14  1  0
 13 15  2  0
 13 17  1  0
 14 16  2  0
 14 23  1  0
 15 34  1  0
 16 33  1  0
 17 18  2  0
 18 24  1  0
 19 21  1  0
 19 31  2  0
 20 22  1  0
 20 32  2  0
 21 22  2  0
 21 23  1  0
 22 33  1  0
 23 29  1  0
 24 25  1  0
 24 26  1  0
 24 34  1  0
 27 30  1  0
 28 30  1  0
 29 30  1  0
 30 35  1  0
M  END
