MAT-CRI-83f800fc-2
     RDKit          3D

 34 35  0  0  1  0  0  0  0  0999 V2000
    6.3539   -2.8209   21.5969 C   0  0  0  0  0  0  0  0  0  0  0  0
    5.8181   -3.8853   21.7424 C   0  0  0  0  0  0  0  0  0  0  0  0
    7.7403   -5.5344   27.7929 C   0  0  0  0  0  0  0  0  0  0  0  0
    7.4581   -5.9833   26.5028 C   0  0  0  0  0  0  0  0  0  0  0  0
    8.6073   -4.4582   27.9828 C   0  0  0  0  0  0  0  0  0  0  0  0
    8.0428   -5.3563   25.4026 C   0  0  0  0  0  0  0  0  0  0  0  0
    9.1920   -3.8311   26.8826 C   0  0  0  0  0  0  0  0  0  0  0  0
    8.9098   -4.2801   25.5925 C   0  0  0  0  0  0  0  0  0  0  0  0
   11.4180    1.7669   24.0064 C   0  0  0  0  0  0  0  0  0  0  0  0
    9.9585    2.4291   22.5373 C   0  0  0  0  0  0  0  0  0  0  0  0
   11.1265    2.8586   23.3011 C   0  0  0  0  0  0  0  0  0  0  0  0
    6.0074    3.6715   22.2938 C   0  0  0  0  0  0  0  0  0  0  0  0
    6.2564    0.8099   20.8603 C   0  0  0  0  0  0  0  0  0  0  0  0
   10.3878   -2.5611   24.4762 C   0  0  0  0  0  0  0  0  0  0  0  0
   10.4594    0.6569   23.7171 C   0  0  0  0  0  0  0  0  0  0  0  0
   11.7515    4.1907   23.2339 C   0  0  0  0  0  0  0  0  0  0  0  0
    6.4895    5.0750   22.1332 C   0  0  0  0  0  0  0  0  0  0  0  0
    2.8331    2.4853   20.0776 C   0  0  0  0  0  0  0  0  0  0  0  0
   11.1280   -0.5511   23.1548 C   0  0  0  0  0  0  0  0  0  0  0  0
    9.3699   -2.0271   22.2329 C   0  0  0  0  0  0  0  0  0  0  0  0
    7.0148   -1.5221   21.4299 C   0  0  0  0  0  0  0  0  0  0  0  0
    5.0604    1.7383   21.0493 C   0  0  0  0  0  0  0  0  0  0  0  0
    4.0258    1.5470   19.9320 C   0  0  0  0  0  0  0  0  0  0  0  0
    9.5266    1.2160   22.7068 N   0  0  0  0  0  0  0  0  0  0  0  0
    9.5037   -3.6431   24.4745 N   0  0  0  0  0  0  0  0  0  0  0  0
    6.0643   -0.4203   21.4805 N   0  0  0  0  0  0  0  0  0  0  0  0
    5.5651    3.0860   21.1199 N   0  0  0  0  0  0  0  0  0  0  0  0
   10.2990   -1.7392   23.3259 N   0  0  0  0  0  0  0  0  0  0  0  0
    8.0753   -1.3186   22.4715 N   0  0  0  0  0  0  0  0  0  0  0  0
    6.0323    3.1470   23.4010 O   0  0  0  0  0  0  0  0  0  0  0  0
    7.2448    1.1181   20.1972 O   0  0  0  0  0  0  0  0  0  0  0  0
   11.1740   -2.3105   25.3925 O   0  0  0  0  0  0  0  0  0  0  0  0
    4.6435    1.7739   18.6658 O   0  0  0  0  0  0  0  0  0  0  0  0
    4.9759   -5.5702   21.9858 Br  0  0  0  0  0  0  0  0  0  0  0  0
  1  2  3  0
  1 21  1  0
  2 34  1  0
  3  4  2  0
  3  5  1  0
  4  6  1  0
  5  7  2  0
  6  8  2  0
  7  8  1  0
  8 25  1  0
  9 11  2  0
  9 15  1  0
 10 11  1  0
 10 24  2  0
 11 16  1  0
 12 17  1  0
 12 27  1  0
 12 30  2  0
 13 22  1  0
 13 26  1  0
 13 31  2  0
 14 25  1  0
 14 28  1  0
 14 32  2  0
 15 19  1  0
 15 24  1  0
 18 23  1  0
 19 28  1  0
 20 28  1  0
 20 29  1  0
 21 26  1  0
 21 29  1  0
 22 23  1  0
 22 27  1  0
 23 33  1  0
M  CHG  1  29   1
M  END
