MAT-POS-916a2c5a-3
     RDKit          3D

 32 35  0  0  0  0  0  0  0  0999 V2000
    4.5799    2.6342   21.9569 C   0  0  0  0  0  0  0  0  0  0  0  0
    3.5786    2.7514   20.9961 C   0  0  0  0  0  0  0  0  0  0  0  0
    5.7344    1.8927   21.6870 C   0  0  0  0  0  0  0  0  0  0  0  0
    3.7278    2.1278   19.7607 C   0  0  0  0  0  0  0  0  0  0  0  0
    5.0198   -5.5365   26.8401 C   0  0  0  0  0  0  0  0  0  0  0  0
    5.9026    1.2571   20.4498 C   0  0  0  0  0  0  0  0  0  0  0  0
    6.2217   -4.8766   27.0959 C   0  0  0  0  0  0  0  0  0  0  0  0
    4.7547   -6.0332   25.5639 C   0  0  0  0  0  0  0  0  0  0  0  0
    7.1585   -4.7132   26.0754 C   0  0  0  0  0  0  0  0  0  0  0  0
    5.6915   -5.8698   24.5434 C   0  0  0  0  0  0  0  0  0  0  0  0
    4.8831    1.3865   19.4931 C   0  0  0  0  0  0  0  0  0  0  0  0
    6.8934   -5.2098   24.7991 C   0  0  0  0  0  0  0  0  0  0  0  0
    7.1879   -0.1220   18.8958 C   0  0  0  0  0  0  0  0  0  0  0  0
    7.0894    0.4614   20.0998 C   0  0  0  0  0  0  0  0  0  0  0  0
    6.1117    0.0107   17.8775 C   0  0  0  0  0  0  0  0  0  0  0  0
    8.2466    0.2294   20.9978 C   0  0  0  0  0  0  0  0  0  0  0  0
    7.0201   -1.8039   21.8347 C   0  0  0  0  0  0  0  0  0  0  0  0
    9.2778   -1.2154   22.7037 C   0  0  0  0  0  0  0  0  0  0  0  0
    6.9156   -2.5560   23.1545 C   0  0  0  0  0  0  0  0  0  0  0  0
    9.4159   -2.7209   22.8807 C   0  0  0  0  0  0  0  0  0  0  0  0
    6.4800   -4.3557   28.4719 C   0  0  0  0  0  0  0  0  0  0  0  0
    3.4597   -6.7358   25.3176 C   0  0  0  0  0  0  0  0  0  0  0  0
    8.4433   -4.0019   26.3636 C   0  0  0  0  0  0  0  0  0  0  0  0
    5.3937   -6.4079   23.1790 C   0  0  0  0  0  0  0  0  0  0  0  0
    5.0159    0.7630   18.2400 N   0  0  0  0  0  0  0  0  0  0  0  0
    8.1656   -0.8895   21.8143 N   0  0  0  0  0  0  0  0  0  0  0  0
    8.1709   -3.3004   23.4589 N   0  0  0  0  0  0  0  0  0  0  0  0
    6.2308   -0.5378   16.7839 O   0  0  0  0  0  0  0  0  0  0  0  0
    9.1585    1.0414   20.9167 O   0  0  0  0  0  0  0  0  0  0  0  0
    9.3420   -5.5302   23.9774 O   0  0  0  0  0  0  0  0  0  0  0  0
    7.4843   -5.4760   22.2764 O   0  0  0  0  0  0  0  0  0  0  0  0
    8.0790   -5.0032   23.5078 S   0  0  0  0  0  0  0  0  0  0  0  0
  1  2  2  0
  1  3  1  0
  2  4  1  0
  3  6  2  0
  4 11  2  0
  5  7  2  0
  5  8  1  0
  6 11  1  0
  6 14  1  0
  7  9  1  0
  7 21  1  0
  8 10  2  0
  8 22  1  0
  9 12  2  0
  9 23  1  0
 10 12  1  0
 10 24  1  0
 11 25  1  0
 12 32  1  0
 13 14  2  0
 13 15  1  0
 14 16  1  0
 15 25  1  0
 15 28  2  0
 16 26  1  0
 16 29  2  0
 17 19  1  0
 17 26  1  0
 18 20  1  0
 18 26  1  0
 19 27  1  0
 20 27  1  0
 27 32  1  0
 30 32  2  0
 31 32  2  0
M  END
