MAT-POS-916a2c5a-4
     RDKit          3D

 25 28  0  0  0  0  0  0  0  0999 V2000
    7.6779   -4.7348   26.9593 C   0  0  0  0  0  0  0  0  0  0  0  0
    4.1379    1.3702   22.5359 C   0  0  0  0  0  0  0  0  0  0  0  0
    6.6961   -4.0213   26.2719 C   0  0  0  0  0  0  0  0  0  0  0  0
    8.9200   -4.9607   26.3661 C   0  0  0  0  0  0  0  0  0  0  0  0
    3.1236    1.6334   21.6185 C   0  0  0  0  0  0  0  0  0  0  0  0
    5.4240    1.0455   22.0929 C   0  0  0  0  0  0  0  0  0  0  0  0
    6.9563   -3.5338   24.9912 C   0  0  0  0  0  0  0  0  0  0  0  0
    9.1802   -4.4732   25.0854 C   0  0  0  0  0  0  0  0  0  0  0  0
    3.3912    1.5733   20.2539 C   0  0  0  0  0  0  0  0  0  0  0  0
    5.7127    0.9792   20.7235 C   0  0  0  0  0  0  0  0  0  0  0  0
    8.1984   -3.7597   24.3979 C   0  0  0  0  0  0  0  0  0  0  0  0
    4.6781    1.2480   19.8133 C   0  0  0  0  0  0  0  0  0  0  0  0
    7.2509    0.5964   18.8644 C   0  0  0  0  0  0  0  0  0  0  0  0
    7.0412    0.6429   20.1886 C   0  0  0  0  0  0  0  0  0  0  0  0
    6.1594    0.8798   17.8943 C   0  0  0  0  0  0  0  0  0  0  0  0
    8.2270    0.3340   21.0128 C   0  0  0  0  0  0  0  0  0  0  0  0
    7.4071   -3.1101   22.1153 C   0  0  0  0  0  0  0  0  0  0  0  0
    9.6577   -2.4744   22.8526 C   0  0  0  0  0  0  0  0  0  0  0  0
    6.9820   -1.6420   22.0477 C   0  0  0  0  0  0  0  0  0  0  0  0
    9.2596   -0.9979   22.8115 C   0  0  0  0  0  0  0  0  0  0  0  0
    4.9294    1.1913   18.4312 N   0  0  0  0  0  0  0  0  0  0  0  0
    8.4581   -3.2738   23.1213 N   0  0  0  0  0  0  0  0  0  0  0  0
    8.1488   -0.7545   21.8797 N   0  0  0  0  0  0  0  0  0  0  0  0
    6.3828    0.8272   16.6867 O   0  0  0  0  0  0  0  0  0  0  0  0
    9.2130    1.0626   20.8886 O   0  0  0  0  0  0  0  0  0  0  0  0
  1  3  2  0
  1  4  1  0
  2  5  2  0
  2  6  1  0
  3  7  1  0
  4  8  2  0
  5  9  1  0
  6 10  2  0
  7 11  2  0
  8 11  1  0
  9 12  2  0
 10 12  1  0
 10 14  1  0
 11 22  1  0
 12 21  1  0
 13 14  2  0
 13 15  1  0
 14 16  1  0
 15 21  1  0
 15 24  2  0
 16 23  1  0
 16 25  2  0
 17 19  1  0
 17 22  1  0
 18 20  1  0
 18 22  1  0
 19 23  1  0
 20 23  1  0
M  END
