MAT-POS-916a2c5a-2
     RDKit          3D

 25 27  0  0  0  0  0  0  0  0999 V2000
    3.1907    2.7862   21.9416 C   0  0  0  0  0  0  0  0  0  0  0  0
    2.5835    3.1015   20.7285 C   0  0  0  0  0  0  0  0  0  0  0  0
   13.8135   -0.5300   23.0730 C   0  0  0  0  0  0  0  0  0  0  0  0
   13.2310   -1.7547   22.7469 C   0  0  0  0  0  0  0  0  0  0  0  0
    4.3465    1.9996   21.9693 C   0  0  0  0  0  0  0  0  0  0  0  0
    3.1299    2.6317   19.5377 C   0  0  0  0  0  0  0  0  0  0  0  0
   13.0216    0.6139   23.1746 C   0  0  0  0  0  0  0  0  0  0  0  0
   11.8567   -1.8355   22.5223 C   0  0  0  0  0  0  0  0  0  0  0  0
    4.9111    1.5167   20.7814 C   0  0  0  0  0  0  0  0  0  0  0  0
    4.2857    1.8449   19.5680 C   0  0  0  0  0  0  0  0  0  0  0  0
   11.6474    0.5331   22.9500 C   0  0  0  0  0  0  0  0  0  0  0  0
   11.0649   -0.6917   22.6238 C   0  0  0  0  0  0  0  0  0  0  0  0
    6.6124    0.2540   19.5648 C   0  0  0  0  0  0  0  0  0  0  0  0
    6.1233    0.6843   20.7375 C   0  0  0  0  0  0  0  0  0  0  0  0
    5.9549    0.5977   18.2755 C   0  0  0  0  0  0  0  0  0  0  0  0
    6.8881    0.2557   21.9166 C   0  0  0  0  0  0  0  0  0  0  0  0
   10.7111    2.4313   21.8657 C   0  0  0  0  0  0  0  0  0  0  0  0
    7.6548   -1.7782   23.1213 C   0  0  0  0  0  0  0  0  0  0  0  0
    9.0971   -2.0239   22.7175 C   0  0  0  0  0  0  0  0  0  0  0  0
    4.8228    1.3787   18.3552 N   0  0  0  0  0  0  0  0  0  0  0  0
    6.9546   -1.1196   22.0420 N   0  0  0  0  0  0  0  0  0  0  0  0
    6.4265    0.1864   17.2174 O   0  0  0  0  0  0  0  0  0  0  0  0
    7.3938    1.0810   22.6735 O   0  0  0  0  0  0  0  0  0  0  0  0
   10.8851    1.6576   23.0511 O   0  0  0  0  0  0  0  0  0  0  0  0
    9.7162   -0.7839   22.3996 O   0  0  0  0  0  0  0  0  0  0  0  0
  1  2  2  0
  1  5  1  0
  2  6  1  0
  3  4  2  0
  3  7  1  0
  4  8  1  0
  5  9  2  0
  6 10  2  0
  7 11  2  0
  8 12  2  0
  9 10  1  0
  9 14  1  0
 10 20  1  0
 11 12  1  0
 11 24  1  0
 12 25  1  0
 13 14  2  0
 13 15  1  0
 14 16  1  0
 15 20  1  0
 15 22  2  0
 16 21  1  0
 16 23  2  0
 17 24  1  0
 18 19  1  0
 18 21  1  0
 19 25  1  0
M  END
