MAT-GIT-deadff56-4
     RDKit          3D

 32 35  0  0  0  0  0  0  0  0999 V2000
   10.1732    0.8205   24.4087 C   0  0  0  0  0  0  0  0  0  0  0  0
   11.3319    0.8919   24.1001 C   0  0  0  0  0  0  0  0  0  0  0  0
    9.9154   -3.9418   25.6449 C   0  0  0  0  0  0  0  0  0  0  0  0
    7.0508    0.0026   26.2635 C   0  0  0  0  0  0  0  0  0  0  0  0
    8.3999    0.0736   25.9348 C   0  0  0  0  0  0  0  0  0  0  0  0
   11.2144   -2.6591   24.0501 C   0  0  0  0  0  0  0  0  0  0  0  0
    6.1418    0.5992   25.4047 C   0  0  0  0  0  0  0  0  0  0  0  0
    7.8062    1.2937   23.9815 C   0  0  0  0  0  0  0  0  0  0  0  0
    8.6753   -0.8286   20.6832 C   0  0  0  0  0  0  0  0  0  0  0  0
   14.4662   -1.2080   21.4933 C   0  0  0  0  0  0  0  0  0  0  0  0
    8.7933    0.7298   24.7737 C   0  0  0  0  0  0  0  0  0  0  0  0
    9.9718   -3.1389   24.4592 C   0  0  0  0  0  0  0  0  0  0  0  0
    8.9168   -2.0504   22.5696 C   0  0  0  0  0  0  0  0  0  0  0  0
   11.3406   -1.8708   22.9027 C   0  0  0  0  0  0  0  0  0  0  0  0
    7.9804   -1.5665   21.6136 C   0  0  0  0  0  0  0  0  0  0  0  0
   10.1751   -1.5834   22.1836 C   0  0  0  0  0  0  0  0  0  0  0  0
    8.8143   -2.8434   23.7298 C   0  0  0  0  0  0  0  0  0  0  0  0
   12.6069   -1.3666   22.4633 C   0  0  0  0  0  0  0  0  0  0  0  0
   13.1623   -0.1664   22.8316 C   0  0  0  0  0  0  0  0  0  0  0  0
    6.0193   -5.0769   21.5584 C   0  0  0  0  0  0  0  0  0  0  0  0
    6.7823   -6.3549   21.6711 C   0  0  0  0  0  0  0  0  0  0  0  0
   12.7588    0.9466   23.6992 C   0  0  0  0  0  0  0  0  0  0  0  0
    6.5185   -1.7819   21.5725 C   0  0  0  0  0  0  0  0  0  0  0  0
    6.0670   -2.8156   20.5256 C   0  0  0  0  0  0  0  0  0  0  0  0
    9.8698   -4.5921   26.6050 N   0  0  0  0  0  0  0  0  0  0  0  0
    6.4859    1.2452   24.2681 N   0  0  0  0  0  0  0  0  0  0  0  0
   13.4469   -2.0295   21.6055 N   0  0  0  0  0  0  0  0  0  0  0  0
    9.9983   -0.8448   21.0353 N   0  0  0  0  0  0  0  0  0  0  0  0
    6.6308   -4.1162   20.7690 N   0  0  0  0  0  0  0  0  0  0  0  0
    4.9479   -4.9594   22.1416 O   0  0  0  0  0  0  0  0  0  0  0  0
   14.3682   -0.0538   22.2081 O   0  0  0  0  0  0  0  0  0  0  0  0
    7.2550   -3.3970   24.1729 Cl  0  0  0  0  0  0  0  0  0  0  0  0
  1  2  3  0
  1 11  1  0
  2 22  1  0
  3 12  1  0
  3 25  3  0
  4  5  2  0
  4  7  1  0
  5 11  1  0
  6 12  2  0
  6 14  1  0
  7 26  2  0
  8 11  2  0
  8 26  1  0
  9 15  2  0
  9 28  1  0
 10 27  2  0
 10 31  1  0
 12 17  1  0
 13 15  1  0
 13 16  1  0
 13 17  2  0
 14 16  2  0
 14 18  1  0
 15 23  1  0
 16 28  1  0
 17 32  1  0
 18 19  2  0
 18 27  1  0
 19 22  1  0
 19 31  1  0
 20 21  1  0
 20 29  1  0
 20 30  2  0
 23 24  1  0
 24 29  1  0
M  END
