MAT-CRI-b80b8c24-1
     RDKit          3D

 26 28  0  0  1  0  0  0  0  0999 V2000
   12.2428    3.1159   23.1344 C   0  0  0  0  0  0  0  0  0  0  0  0
   11.3106    4.0950   23.4778 C   0  0  0  0  0  0  0  0  0  0  0  0
   11.8702    1.7718   23.1223 C   0  0  0  0  0  0  0  0  0  0  0  0
   10.0058    3.7300   23.8093 C   0  0  0  0  0  0  0  0  0  0  0  0
   10.5654    1.4067   23.4538 C   0  0  0  0  0  0  0  0  0  0  0  0
    9.6331    2.3858   23.7973 C   0  0  0  0  0  0  0  0  0  0  0  0
    6.7017   -3.7124   26.2156 C   0  0  0  0  0  0  0  0  0  0  0  0
    8.2406   -5.0138   26.8119 C   0  0  0  0  0  0  0  0  0  0  0  0
    6.5079   -4.7745   25.4273 C   0  0  0  0  0  0  0  0  0  0  0  0
    8.8946   -4.0185   23.3714 C   0  0  0  0  0  0  0  0  0  0  0  0
    9.7355   -0.6161   24.6414 C   0  0  0  0  0  0  0  0  0  0  0  0
   10.3200   -0.7274   22.2002 C   0  0  0  0  0  0  0  0  0  0  0  0
   10.0590   -2.1111   24.5858 C   0  0  0  0  0  0  0  0  0  0  0  0
    9.3271   -1.8866   22.2244 C   0  0  0  0  0  0  0  0  0  0  0  0
    7.5465   -5.8087   25.7312 C   0  0  0  0  0  0  0  0  0  0  0  0
    5.4442   -4.9728   24.4122 C   0  0  0  0  0  0  0  0  0  0  0  0
   10.6842   -5.0307   24.8504 C   0  0  0  0  0  0  0  0  0  0  0  0
    8.4796   -6.1085   24.6078 C   0  0  0  0  0  0  0  0  0  0  0  0
    7.7610   -3.8379   27.0714 N   0  0  0  0  0  0  0  0  0  0  0  0
   10.2179    0.0586   23.4329 N   0  0  0  0  0  0  0  0  0  0  0  0
    9.5020   -2.7524   23.3889 N   0  0  0  0  0  0  0  0  0  0  0  0
    8.2954    2.0413   24.1395 N   0  0  0  0  0  0  0  0  0  0  0  0
    9.3293   -4.9636   24.3107 N   0  0  0  0  0  0  0  0  0  0  0  0
    7.8696    2.3489   25.2754 O   0  0  0  0  0  0  0  0  0  0  0  0
    7.5956    1.4426   23.2920 O   0  0  0  0  0  0  0  0  0  0  0  0
    7.9984   -4.2857   22.5592 O   0  0  0  0  0  0  0  0  0  0  0  0
  1  2  2  0
  1  3  1  0
  2  4  1  0
  3  5  2  0
  4  6  2  0
  5  6  1  0
  5 20  1  0
  6 22  1  0
  7  9  2  0
  7 19  1  0
  8 15  1  0
  8 19  2  0
  9 15  1  0
  9 16  1  0
 10 21  1  0
 10 23  1  0
 10 26  2  0
 11 13  1  0
 11 20  1  0
 12 14  1  0
 12 20  1  0
 13 21  1  0
 14 21  1  0
 15 18  1  0
 17 23  1  0
 18 23  1  0
 22 24  1  0
 22 25  1  0
M  CHG  2  24  -1  25  -1
M  END
