MAX-MCD-98db36d7-1
     RDKit          3D

 20 21  0  0  1  0  0  0  0  0999 V2000
   14.3006   -0.9053   24.4703 C   0  0  0  0  0  0  0  0  0  0  0  0
   14.5548   -2.0441   23.4851 C   0  0  0  0  0  0  0  0  0  0  0  0
   12.8094   -0.7026   24.7238 C   0  0  0  0  0  0  0  0  0  0  0  0
   12.2921   -1.6299   22.4288 C   0  0  0  0  0  0  0  0  0  0  0  0
    9.9600    0.8296   21.3073 C   0  0  0  0  0  0  0  0  0  0  0  0
    8.7999   -1.3109   21.7187 C   0  0  0  0  0  0  0  0  0  0  0  0
    8.9010    1.2233   20.2894 C   0  0  0  0  0  0  0  0  0  0  0  0
    7.7278   -0.9399   20.7060 C   0  0  0  0  0  0  0  0  0  0  0  0
   13.7807   -1.8493   22.1873 C   0  0  0  0  0  0  0  0  0  0  0  0
   12.0435   -0.4898   23.4182 C   0  0  0  0  0  0  0  0  0  0  0  0
    6.4789    1.4611   19.0252 C   0  0  0  0  0  0  0  0  0  0  0  0
    7.3473    0.2950   18.5707 C   0  0  0  0  0  0  0  0  0  0  0  0
    9.3607   -0.0728   22.3326 N   0  0  0  0  0  0  0  0  0  0  0  0
    8.3274   -0.0261   19.6636 N   0  0  0  0  0  0  0  0  0  0  0  0
    5.2940    1.5188   18.2455 O   0  0  0  0  0  0  0  0  0  0  0  0
    7.9420    0.6086   17.3182 O   0  0  0  0  0  0  0  0  0  0  0  0
    9.9111   -1.6701   24.4834 O   0  0  0  0  0  0  0  0  0  0  0  0
   10.2136    0.9290   24.7311 O   0  0  0  0  0  0  0  0  0  0  0  0
   14.2792   -0.7524   21.5494 F   0  0  0  0  0  0  0  0  0  0  0  0
   10.3086   -0.3164   23.7392 S   0  0  0  0  0  0  0  0  0  0  0  0
  1  2  1  0
  1  3  1  0
  2  9  1  0
  3 10  1  0
  4  9  1  0
  4 10  1  0
  5  7  1  0
  5 13  1  0
  6  8  1  0
  6 13  1  0
  7 14  1  0
  8 14  1  0
  9 19  1  0
 10 20  1  0
 11 12  1  0
 11 15  1  0
 12 14  1  0
 12 16  1  0
 13 20  1  0
 17 20  1  0
 18 20  1  0
M  CHG  1  14   1
M  END
