MED-COV-4280ac29-1
     RDKit          3D

 32 35  0  0  0  0  0  0  0  0999 V2000
   10.4220    2.9167   24.4219 C   0  0  0  0  0  0  0  0  0  0  0  0
   10.3222    2.9917   23.0326 C   0  0  0  0  0  0  0  0  0  0  0  0
   10.7873    1.7163   25.0311 C   0  0  0  0  0  0  0  0  0  0  0  0
    3.1999   -5.1595   23.4149 C   0  0  0  0  0  0  0  0  0  0  0  0
   10.5875    1.8662   22.2526 C   0  0  0  0  0  0  0  0  0  0  0  0
   11.0526    0.5907   24.2511 C   0  0  0  0  0  0  0  0  0  0  0  0
    3.0437   -5.1543   24.8009 C   0  0  0  0  0  0  0  0  0  0  0  0
    4.3014   -4.5305   22.8347 C   0  0  0  0  0  0  0  0  0  0  0  0
    5.0906   -3.8908   25.0267 C   0  0  0  0  0  0  0  0  0  0  0  0
    8.5588   -2.1941   20.2038 C   0  0  0  0  0  0  0  0  0  0  0  0
   10.9527    0.6657   22.8619 C   0  0  0  0  0  0  0  0  0  0  0  0
    3.9891   -4.5199   25.6068 C   0  0  0  0  0  0  0  0  0  0  0  0
    5.2468   -3.8961   23.6406 C   0  0  0  0  0  0  0  0  0  0  0  0
    7.9456   -2.4661   21.4088 C   0  0  0  0  0  0  0  0  0  0  0  0
   10.0351   -1.2748   21.5400 C   0  0  0  0  0  0  0  0  0  0  0  0
    6.6809   -3.1652   21.6939 C   0  0  0  0  0  0  0  0  0  0  0  0
    2.0732   -0.4262   30.4026 C   0  0  0  0  0  0  0  0  0  0  0  0
    4.0724   -1.6601   29.6271 C   0  0  0  0  0  0  0  0  0  0  0  0
    2.3442   -1.0946   27.9638 C   0  0  0  0  0  0  0  0  0  0  0  0
    4.1032   -3.1001   29.1360 C   0  0  0  0  0  0  0  0  0  0  0  0
    2.3504   -2.5266   27.4460 C   0  0  0  0  0  0  0  0  0  0  0  0
   11.2418   -0.5618   22.0122 C   0  0  0  0  0  0  0  0  0  0  0  0
    3.8207   -4.5146   27.0977 C   0  0  0  0  0  0  0  0  0  0  0  0
    0.7393    0.1820   30.0496 C   0  0  0  0  0  0  0  0  0  0  0  0
    9.7569   -1.5107   20.2770 N   0  0  0  0  0  0  0  0  0  0  0  0
    2.7719   -1.0433   29.3660 N   0  0  0  0  0  0  0  0  0  0  0  0
    6.3488   -3.2676   23.0600 N   0  0  0  0  0  0  0  0  0  0  0  0
    3.7181   -3.1303   27.6737 N   0  0  0  0  0  0  0  0  0  0  0  0
    6.0039   -3.6436   20.7863 O   0  0  0  0  0  0  0  0  0  0  0  0
    2.4789   -0.3561   31.5656 O   0  0  0  0  0  0  0  0  0  0  0  0
    8.8998   -1.8473   22.6925 S   0  0  0  0  0  0  0  0  0  0  0  0
    0.0791    0.8476   31.5392 Cl  0  0  0  0  0  0  0  0  0  0  0  0
  1  2  2  0
  1  3  1  0
  2  5  1  0
  3  6  2  0
  4  7  2  0
  4  8  1  0
  5 11  2  0
  6 11  1  0
  7 12  1  0
  8 13  2  0
  9 12  2  0
  9 13  1  0
 10 14  2  0
 10 25  1  0
 11 22  1  0
 12 23  1  0
 13 27  1  0
 14 16  1  0
 14 31  1  0
 15 22  1  0
 15 25  2  0
 15 31  1  0
 16 27  1  0
 16 29  2  0
 17 24  1  0
 17 26  1  0
 17 30  2  0
 18 20  1  0
 18 26  1  0
 19 21  1  0
 19 26  1  0
 20 28  1  0
 21 28  1  0
 23 28  1  0
 24 32  1  0
M  CHG  1  28   1
M  END
