MED-COV-4280ac29-7
     RDKit          3D

 25 27  0  0  1  0  0  0  0  0999 V2000
    7.2685   -2.0972   26.6375 C   0  0  0  0  0  0  0  0  0  0  0  0
   11.0998    1.5657   24.5052 C   0  0  0  0  0  0  0  0  0  0  0  0
    7.8976   -3.1900   27.2339 C   0  0  0  0  0  0  0  0  0  0  0  0
    7.7376   -1.6007   25.4213 C   0  0  0  0  0  0  0  0  0  0  0  0
   10.1167    0.5912   24.3337 C   0  0  0  0  0  0  0  0  0  0  0  0
   12.3849    1.3556   24.0051 C   0  0  0  0  0  0  0  0  0  0  0  0
    9.4651   -3.2895   25.3981 C   0  0  0  0  0  0  0  0  0  0  0  0
   11.7038   -0.8037   23.1621 C   0  0  0  0  0  0  0  0  0  0  0  0
    8.9959   -3.7861   26.6143 C   0  0  0  0  0  0  0  0  0  0  0  0
    8.8359   -2.1968   24.8017 C   0  0  0  0  0  0  0  0  0  0  0  0
   10.4187   -0.5935   23.6622 C   0  0  0  0  0  0  0  0  0  0  0  0
   12.6869    0.1709   23.3336 C   0  0  0  0  0  0  0  0  0  0  0  0
    6.1891   -1.5455   18.9267 C   0  0  0  0  0  0  0  0  0  0  0  0
    6.1492   -1.7904   21.3883 C   0  0  0  0  0  0  0  0  0  0  0  0
    7.6584   -0.1012   20.4177 C   0  0  0  0  0  0  0  0  0  0  0  0
    7.2776   -2.3309   22.2544 C   0  0  0  0  0  0  0  0  0  0  0  0
    8.8099   -0.6154   21.2711 C   0  0  0  0  0  0  0  0  0  0  0  0
    9.6671   -4.9554   27.2519 C   0  0  0  0  0  0  0  0  0  0  0  0
    6.1947   -0.4933   17.8466 C   0  0  0  0  0  0  0  0  0  0  0  0
    9.3475   -1.6552   23.4768 C   0  0  0  0  0  0  0  0  0  0  0  0
    6.6724   -1.1600   20.1762 N   0  0  0  0  0  0  0  0  0  0  0  0
    8.2548   -1.2136   22.5444 N   0  0  0  0  0  0  0  0  0  0  0  0
    5.7698   -2.6759   18.6651 O   0  0  0  0  0  0  0  0  0  0  0  0
   14.2729   -0.0883   22.7179 Cl  0  0  0  0  0  0  0  0  0  0  0  0
    5.1512    0.8088   18.4063 Cl  0  0  0  0  0  0  0  0  0  0  0  0
  1  3  2  0
  1  4  1  0
  2  5  2  0
  2  6  1  0
  3  9  1  0
  4 10  2  0
  5 11  1  0
  6 12  2  0
  7  9  2  0
  7 10  1  0
  8 11  2  0
  8 12  1  0
  9 18  1  0
 10 20  1  0
 11 20  1  0
 12 24  1  0
 13 19  1  0
 13 21  1  0
 13 23  2  0
 14 16  1  0
 14 21  1  0
 15 17  1  0
 15 21  1  0
 16 22  1  0
 17 22  1  0
 19 25  1  0
 20 22  1  0
M  CHG  1  22   1
M  END
