MED-COV-4280ac29-10
     RDKit          3D

 21 23  0  0  0  0  0  0  0  0999 V2000
    7.0085   -5.1023   23.6510 C   0  0  0  0  0  0  0  0  0  0  0  0
    8.2466   -4.7753   24.2040 C   0  0  0  0  0  0  0  0  0  0  0  0
   11.0489   -4.2678   24.7943 C   0  0  0  0  0  0  0  0  0  0  0  0
   12.2847   -3.9398   25.3509 C   0  0  0  0  0  0  0  0  0  0  0  0
    6.4152   -4.2523   22.7176 C   0  0  0  0  0  0  0  0  0  0  0  0
   10.5396   -1.9221   24.5514 C   0  0  0  0  0  0  0  0  0  0  0  0
    8.2980   -2.7483   22.8903 C   0  0  0  0  0  0  0  0  0  0  0  0
   10.1758   -3.2594   24.3969 C   0  0  0  0  0  0  0  0  0  0  0  0
    8.8913   -3.5983   23.8237 C   0  0  0  0  0  0  0  0  0  0  0  0
   12.6585   -2.5981   25.5212 C   0  0  0  0  0  0  0  0  0  0  0  0
   11.7844   -1.5788   25.1003 C   0  0  0  0  0  0  0  0  0  0  0  0
    7.0599   -3.0753   22.3373 C   0  0  0  0  0  0  0  0  0  0  0  0
    5.6152   -2.6080   20.3733 C   0  0  0  0  0  0  0  0  0  0  0  0
   14.0173   -2.2839   26.0959 C   0  0  0  0  0  0  0  0  0  0  0  0
   12.1277   -0.1212   25.2817 C   0  0  0  0  0  0  0  0  0  0  0  0
   14.1501   -0.8398   26.5756 C   0  0  0  0  0  0  0  0  0  0  0  0
   13.6164    0.1223   25.5220 C   0  0  0  0  0  0  0  0  0  0  0  0
    5.1564   -1.4232   19.5553 C   0  0  0  0  0  0  0  0  0  0  0  0
    6.4648   -2.2250   21.4049 N   0  0  0  0  0  0  0  0  0  0  0  0
    5.2479   -3.7419   20.0775 O   0  0  0  0  0  0  0  0  0  0  0  0
    6.5945   -0.6538   18.8655 Cl  0  0  0  0  0  0  0  0  0  0  0  0
  1  2  2  0
  1  5  1  0
  2  9  1  0
  3  4  2  0
  3  8  1  0
  4 10  1  0
  5 12  2  0
  6  8  2  0
  6 11  1  0
  7  9  2  0
  7 12  1  0
  8  9  1  0
 10 11  2  0
 10 14  1  0
 11 15  1  0
 12 19  1  0
 13 18  1  0
 13 19  1  0
 13 20  2  0
 14 16  1  0
 15 17  1  0
 16 17  1  0
 18 21  1  0
M  END
