MED-UNK-28939ac5-4
     RDKit          3D

 20 22  0  0  1  0  0  0  0  0999 V2000
   11.8018    0.4772   22.7013 C   0  0  0  0  0  0  0  0  0  0  0  0
   12.0440   -1.9146   22.7747 C   0  0  0  0  0  0  0  0  0  0  0  0
    9.1930   -0.5078   21.0929 C   0  0  0  0  0  0  0  0  0  0  0  0
   13.1425    0.5693   23.0389 C   0  0  0  0  0  0  0  0  0  0  0  0
   13.3739   -1.7154   23.1089 C   0  0  0  0  0  0  0  0  0  0  0  0
    7.4728   -1.5454   22.2620 C   0  0  0  0  0  0  0  0  0  0  0  0
   11.2498   -0.7920   22.5686 C   0  0  0  0  0  0  0  0  0  0  0  0
    7.8116   -0.8562   21.1184 C   0  0  0  0  0  0  0  0  0  0  0  0
    9.8574   -0.9438   22.2182 C   0  0  0  0  0  0  0  0  0  0  0  0
    5.9852    1.4546   21.3735 C   0  0  0  0  0  0  0  0  0  0  0  0
    7.3604    0.2812   18.8099 C   0  0  0  0  0  0  0  0  0  0  0  0
    5.0301    0.9011   19.1474 C   0  0  0  0  0  0  0  0  0  0  0  0
    6.8328   -0.5091   20.0175 C   0  0  0  0  0  0  0  0  0  0  0  0
    5.6120    0.3276   20.4501 C   0  0  0  0  0  0  0  0  0  0  0  0
    6.0884    0.6711   18.0647 C   0  0  0  0  0  0  0  0  0  0  0  0
   13.9456   -0.4981   23.2469 N   0  0  0  0  0  0  0  0  0  0  0  0
    4.9827    1.8144   22.2429 N   0  0  0  0  0  0  0  0  0  0  0  0
    7.0958    1.9794   21.3475 O   0  0  0  0  0  0  0  0  0  0  0  0
    5.6675   -0.4043   17.2306 O   0  0  0  0  0  0  0  0  0  0  0  0
    8.8170   -1.7698   23.2989 S   0  0  0  0  0  0  0  0  0  0  0  0
  1  4  2  0
  1  7  1  0
  2  5  1  0
  2  7  2  0
  3  8  1  0
  3  9  2  0
  4 16  1  0
  5 16  2  0
  6  8  2  0
  6 20  1  0
  7  9  1  0
  8 13  1  0
  9 20  1  0
 10 14  1  0
 10 17  1  0
 10 18  2  0
 11 13  1  0
 11 15  1  0
 12 14  1  0
 12 15  1  0
 13 14  1  0
 15 19  1  0
M  END
