MED-COV-4280ac29-8
     RDKit          3D

 23 25  0  0  0  0  0  0  0  0999 V2000
    4.0333   -5.9763   27.8395 C   0  0  0  0  0  0  0  0  0  0  0  0
    4.6897   -5.1531   28.7543 C   0  0  0  0  0  0  0  0  0  0  0  0
    4.7568   -6.6181   26.8344 C   0  0  0  0  0  0  0  0  0  0  0  0
    6.0697   -4.9714   28.6639 C   0  0  0  0  0  0  0  0  0  0  0  0
    6.1369   -6.4365   26.7440 C   0  0  0  0  0  0  0  0  0  0  0  0
    9.3633   -5.6214   25.2115 C   0  0  0  0  0  0  0  0  0  0  0  0
    6.7934   -5.6131   27.6588 C   0  0  0  0  0  0  0  0  0  0  0  0
    8.7668   -4.9315   26.2461 C   0  0  0  0  0  0  0  0  0  0  0  0
    9.3320   -3.6258   24.3024 C   0  0  0  0  0  0  0  0  0  0  0  0
    5.9331   -1.6527   19.1840 C   0  0  0  0  0  0  0  0  0  0  0  0
    6.2584   -2.8049   21.3491 C   0  0  0  0  0  0  0  0  0  0  0  0
    7.1183   -0.5067   21.1205 C   0  0  0  0  0  0  0  0  0  0  0  0
    7.5875   -3.2665   21.9288 C   0  0  0  0  0  0  0  0  0  0  0  0
    8.4607   -0.9336   21.6989 C   0  0  0  0  0  0  0  0  0  0  0  0
    8.2991   -5.4152   27.5594 C   0  0  0  0  0  0  0  0  0  0  0  0
    9.5241   -2.5137   23.3137 C   0  0  0  0  0  0  0  0  0  0  0  0
    6.1650   -0.4135   18.3567 C   0  0  0  0  0  0  0  0  0  0  0  0
    9.6877   -4.8744   24.0960 N   0  0  0  0  0  0  0  0  0  0  0  0
    6.4389   -1.6397   20.4831 N   0  0  0  0  0  0  0  0  0  0  0  0
    8.2483   -2.1032   22.6340 N   0  0  0  0  0  0  0  0  0  0  0  0
    5.3230   -2.6033   18.6880 O   0  0  0  0  0  0  0  0  0  0  0  0
    8.6023   -3.2793   25.8164 S   0  0  0  0  0  0  0  0  0  0  0  0
    7.7137   -0.6297   17.5488 Cl  0  0  0  0  0  0  0  0  0  0  0  0
  1  2  2  0
  1  3  1  0
  2  4  1  0
  3  5  2  0
  4  7  2  0
  5  7  1  0
  6  8  2  0
  6 18  1  0
  7 15  1  0
  8 15  1  0
  8 22  1  0
  9 16  1  0
  9 18  2  0
  9 22  1  0
 10 17  1  0
 10 19  1  0
 10 21  2  0
 11 13  1  0
 11 19  1  0
 12 14  1  0
 12 19  1  0
 13 20  1  0
 14 20  1  0
 16 20  1  0
 17 23  1  0
M  CHG  1  20   1
M  END
