MED-UNK-7e7dab56-5
     RDKit          3D

 25 26  0  0  1  0  0  0  0  0999 V2000
    6.9329    1.5583   20.4708 C   0  0  0  0  0  0  0  0  0  0  0  0
    8.2055   -0.4460   20.9186 C   0  0  0  0  0  0  0  0  0  0  0  0
    7.3851    2.1129   21.6681 C   0  0  0  0  0  0  0  0  0  0  0  0
    8.6578    0.1087   22.1159 C   0  0  0  0  0  0  0  0  0  0  0  0
    7.3431    0.2788   20.0961 C   0  0  0  0  0  0  0  0  0  0  0  0
    8.2475    1.3882   22.4906 C   0  0  0  0  0  0  0  0  0  0  0  0
    6.9221    3.4539   22.0063 C   0  0  0  0  0  0  0  0  0  0  0  0
    9.5751   -0.7112   22.9486 C   0  0  0  0  0  0  0  0  0  0  0  0
    7.3952    6.2016   23.9852 C   0  0  0  0  0  0  0  0  0  0  0  0
    7.6048    5.8010   22.5474 C   0  0  0  0  0  0  0  0  0  0  0  0
    8.6108    6.6629   23.2482 C   0  0  0  0  0  0  0  0  0  0  0  0
   13.6784   -0.8506   21.7574 C   0  0  0  0  0  0  0  0  0  0  0  0
   13.0194    0.0284   24.0196 C   0  0  0  0  0  0  0  0  0  0  0  0
   11.7406   -1.9207   23.0111 C   0  0  0  0  0  0  0  0  0  0  0  0
   13.0944   -1.2094   23.1246 C   0  0  0  0  0  0  0  0  0  0  0  0
    5.3529   -1.2013   19.1198 N   0  0  0  0  0  0  0  0  0  0  0  0
    7.9028    4.4335   22.1870 N   0  0  0  0  0  0  0  0  0  0  0  0
   10.7342   -1.0803   22.3241 N   0  0  0  0  0  0  0  0  0  0  0  0
    5.7093    3.6831   22.1421 O   0  0  0  0  0  0  0  0  0  0  0  0
    9.2406   -1.0119   24.0915 O   0  0  0  0  0  0  0  0  0  0  0  0
    6.4106    0.6711   17.6982 O   0  0  0  0  0  0  0  0  0  0  0  0
    7.7343   -1.4217   18.1623 O   0  0  0  0  0  0  0  0  0  0  0  0
    9.8236    6.0966   23.5994 F   0  0  0  0  0  0  0  0  0  0  0  0
    6.7767   -0.4144   18.5972 S   0  0  0  0  0  0  0  0  0  0  0  0
    8.8654    2.1461   24.1275 Br  0  0  0  0  0  0  0  0  0  0  0  0
  1  3  2  0
  1  5  1  0
  2  4  1  0
  2  5  2  0
  3  6  1  0
  3  7  1  0
  4  6  2  0
  4  8  1  0
  5 24  1  0
  6 25  1  0
  7 17  1  0
  7 19  2  0
  8 18  1  0
  8 20  2  0
  9 10  1  0
  9 11  1  0
 10 11  1  0
 10 17  1  0
 11 23  1  0
 12 15  1  0
 13 15  1  0
 14 15  1  0
 14 18  1  0
 16 24  1  0
 21 24  2  0
 22 24  2  0
M  END
