MED-UNK-e6e8ef8a-3
     RDKit          3D

 17 18  0  0  1  0  0  0  0  0999 V2000
    5.5084    0.0803   19.0638 C   0  0  0  0  0  0  0  0  0  0  0  0
    6.2927    0.3066   20.1894 C   0  0  0  0  0  0  0  0  0  0  0  0
    6.1442    0.0042   17.8350 C   0  0  0  0  0  0  0  0  0  0  0  0
    8.2083    0.3551   18.7807 C   0  0  0  0  0  0  0  0  0  0  0  0
    7.6693    0.4478   20.0538 C   0  0  0  0  0  0  0  0  0  0  0  0
    9.6944    1.3815   21.2238 C   0  0  0  0  0  0  0  0  0  0  0  0
   12.9535   -1.3120   21.9531 C   0  0  0  0  0  0  0  0  0  0  0  0
   12.9810   -0.7253   24.4091 C   0  0  0  0  0  0  0  0  0  0  0  0
   12.0064   -0.1438   21.6848 C   0  0  0  0  0  0  0  0  0  0  0  0
   12.0343    0.4431   24.1405 C   0  0  0  0  0  0  0  0  0  0  0  0
   13.8375   -1.0551   23.1800 C   0  0  0  0  0  0  0  0  0  0  0  0
   11.1500    0.1855   22.9139 C   0  0  0  0  0  0  0  0  0  0  0  0
   14.7382   -2.2573   23.4572 C   0  0  0  0  0  0  0  0  0  0  0  0
   10.2483    1.3870   22.6370 C   0  0  0  0  0  0  0  0  0  0  0  0
    7.4787    0.1362   17.6639 N   0  0  0  0  0  0  0  0  0  0  0  0
    8.4935    0.6790   21.1807 N   0  0  0  0  0  0  0  0  0  0  0  0
   10.2681    1.9354   20.2918 O   0  0  0  0  0  0  0  0  0  0  0  0
  1  2  2  0
  1  3  1  0
  2  5  1  0
  3 15  2  0
  4  5  2  0
  4 15  1  0
  5 16  1  0
  6 14  1  0
  6 16  1  0
  6 17  2  0
  7  9  1  0
  7 11  1  0
  8 10  1  0
  8 11  1  0
  9 12  1  0
 10 12  1  0
 11 13  1  0
 12 14  1  0
M  END
