MED-COV-4280ac29-34
     RDKit          3D

 29 31  0  0  1  0  0  0  0  0999 V2000
   13.8881   -0.7416   21.8869 C   0  0  0  0  0  0  0  0  0  0  0  0
   10.7479   -5.0652   26.5089 C   0  0  0  0  0  0  0  0  0  0  0  0
   10.8385   -4.3957   25.2886 C   0  0  0  0  0  0  0  0  0  0  0  0
    9.5111   -5.2012   27.1396 C   0  0  0  0  0  0  0  0  0  0  0  0
   11.8609   -1.9011   22.6372 C   0  0  0  0  0  0  0  0  0  0  0  0
    8.4558   -3.9979   25.3298 C   0  0  0  0  0  0  0  0  0  0  0  0
   12.3921    0.2227   23.5667 C   0  0  0  0  0  0  0  0  0  0  0  0
   12.7156   -0.8060   22.6967 C   0  0  0  0  0  0  0  0  0  0  0  0
    9.6926   -3.8620   24.6991 C   0  0  0  0  0  0  0  0  0  0  0  0
   10.7249   -1.9336   23.4383 C   0  0  0  0  0  0  0  0  0  0  0  0
    8.3652   -4.6675   26.5501 C   0  0  0  0  0  0  0  0  0  0  0  0
   10.4906   -0.8545   24.2752 C   0  0  0  0  0  0  0  0  0  0  0  0
    5.9041   -2.5056   19.4737 C   0  0  0  0  0  0  0  0  0  0  0  0
    6.4202   -3.5988   21.6322 C   0  0  0  0  0  0  0  0  0  0  0  0
    7.1634   -1.2719   21.3067 C   0  0  0  0  0  0  0  0  0  0  0  0
    7.8032   -3.9926   22.1303 C   0  0  0  0  0  0  0  0  0  0  0  0
    8.5580   -1.6304   21.8020 C   0  0  0  0  0  0  0  0  0  0  0  0
    7.8841   -0.3120   26.9278 C   0  0  0  0  0  0  0  0  0  0  0  0
    6.0276   -1.2749   18.6112 C   0  0  0  0  0  0  0  0  0  0  0  0
    9.1957   -0.0741   26.2602 C   0  0  0  0  0  0  0  0  0  0  0  0
    9.7923   -3.1314   23.3700 C   0  0  0  0  0  0  0  0  0  0  0  0
   14.8420   -0.6892   21.2280 N   0  0  0  0  0  0  0  0  0  0  0  0
   11.2977    0.2267   24.3603 N   0  0  0  0  0  0  0  0  0  0  0  0
    6.4931   -2.4450   20.7358 N   0  0  0  0  0  0  0  0  0  0  0  0
    9.3334   -0.8829   25.0934 N   0  0  0  0  0  0  0  0  0  0  0  0
    8.4581   -2.7885   22.7695 N   0  0  0  0  0  0  0  0  0  0  0  0
    5.3042   -3.4908   19.0361 O   0  0  0  0  0  0  0  0  0  0  0  0
    6.8398   -4.8345   27.3293 Cl  0  0  0  0  0  0  0  0  0  0  0  0
    5.2343   -1.6477   17.0849 Cl  0  0  0  0  0  0  0  0  0  0  0  0
  1  8  1  0
  1 22  3  0
  2  3  2  0
  2  4  1  0
  3  9  1  0
  4 11  2  0
  5  8  2  0
  5 10  1  0
  6  9  2  0
  6 11  1  0
  7  8  1  0
  7 23  2  0
  9 21  1  0
 10 12  2  0
 10 21  1  0
 11 28  1  0
 12 23  1  0
 12 25  1  0
 13 19  1  0
 13 24  1  0
 13 27  2  0
 14 16  1  0
 14 24  1  0
 15 17  1  0
 15 24  1  0
 16 26  1  0
 17 26  1  0
 18 20  1  0
 19 29  1  0
 20 25  1  0
 21 26  1  0
M  CHG  1  26   1
M  END
