MED-UNK-e6e8ef8a-7
     RDKit          3D

 17 18  0  0  1  0  0  0  0  0999 V2000
    5.8081   -0.0074   19.3129 C   0  0  0  0  0  0  0  0  0  0  0  0
    6.6251    0.1081   20.4320 C   0  0  0  0  0  0  0  0  0  0  0  0
    6.4146   -0.0393   18.0676 C   0  0  0  0  0  0  0  0  0  0  0  0
    8.5125    0.1462   18.9854 C   0  0  0  0  0  0  0  0  0  0  0  0
    8.0043    0.1870   20.2738 C   0  0  0  0  0  0  0  0  0  0  0  0
   10.0943    0.9471   21.4543 C   0  0  0  0  0  0  0  0  0  0  0  0
   13.8244   -2.0979   23.6454 C   0  0  0  0  0  0  0  0  0  0  0  0
   13.9878   -0.6972   24.2273 C   0  0  0  0  0  0  0  0  0  0  0  0
   13.2071   -2.0576   22.2510 C   0  0  0  0  0  0  0  0  0  0  0  0
   12.6693    0.0729   24.2208 C   0  0  0  0  0  0  0  0  0  0  0  0
   11.8873   -1.2896   22.2411 C   0  0  0  0  0  0  0  0  0  0  0  0
   12.0495    0.1232   22.8177 C   0  0  0  0  0  0  0  0  0  0  0  0
   10.7070    0.8514   22.8469 C   0  0  0  0  0  0  0  0  0  0  0  0
    7.7506    0.0348   17.8743 N   0  0  0  0  0  0  0  0  0  0  0  0
    8.8616    0.3053   21.3937 N   0  0  0  0  0  0  0  0  0  0  0  0
   10.6649    1.5491   20.5491 O   0  0  0  0  0  0  0  0  0  0  0  0
    9.8212    0.1531   23.7042 O   0  0  0  0  0  0  0  0  0  0  0  0
  1  2  2  0
  1  3  1  0
  2  5  1  0
  3 14  2  0
  4  5  2  0
  4 14  1  0
  5 15  1  0
  6 13  1  0
  6 15  1  0
  6 16  2  0
  7  8  1  0
  7  9  1  0
  8 10  1  0
  9 11  1  0
 10 12  1  0
 11 12  1  0
 12 13  1  0
 13 17  1  0
M  END
