MED-UNK-e6e8ef8a-2
     RDKit          3D

 17 18  0  0  1  0  0  0  0  0999 V2000
    5.6818    0.8805   19.1852 C   0  0  0  0  0  0  0  0  0  0  0  0
    6.4642    0.4149   20.2361 C   0  0  0  0  0  0  0  0  0  0  0  0
    6.2195    0.8399   17.9088 C   0  0  0  0  0  0  0  0  0  0  0  0
    8.1876   -0.0684   18.6701 C   0  0  0  0  0  0  0  0  0  0  0  0
    7.7423   -0.0702   19.9821 C   0  0  0  0  0  0  0  0  0  0  0  0
    9.9521   -0.5254   21.1009 C   0  0  0  0  0  0  0  0  0  0  0  0
   11.9276   -0.7818   24.3902 C   0  0  0  0  0  0  0  0  0  0  0  0
   12.9228   -1.1632   22.1004 C   0  0  0  0  0  0  0  0  0  0  0  0
   13.2690   -0.2432   24.8856 C   0  0  0  0  0  0  0  0  0  0  0  0
   14.2657   -0.6252   22.5922 C   0  0  0  0  0  0  0  0  0  0  0  0
   11.7493   -0.5586   22.8826 C   0  0  0  0  0  0  0  0  0  0  0  0
   14.4355   -0.8191   24.0934 C   0  0  0  0  0  0  0  0  0  0  0  0
   10.4228   -1.1455   22.4038 C   0  0  0  0  0  0  0  0  0  0  0  0
    7.4567    0.3758   17.6232 N   0  0  0  0  0  0  0  0  0  0  0  0
    8.5621   -0.5505   21.0309 N   0  0  0  0  0  0  0  0  0  0  0  0
   10.7328   -0.0811   20.2656 O   0  0  0  0  0  0  0  0  0  0  0  0
   14.5108   -2.1562   24.3489 F   0  0  0  0  0  0  0  0  0  0  0  0
  1  2  2  0
  1  3  1  0
  2  5  1  0
  3 14  2  0
  4  5  2  0
  4 14  1  0
  5 15  1  0
  6 13  1  0
  6 15  1  0
  6 16  2  0
  7  9  1  0
  7 11  1  0
  8 10  1  0
  8 11  1  0
  9 12  1  0
 10 12  1  0
 11 13  1  0
 12 17  1  0
M  END
