MED-COV-4280ac29-32
     RDKit          3D

 21 23  0  0  1  0  0  0  0  0999 V2000
   12.0246   -1.8627   22.3015 C   0  0  0  0  0  0  0  0  0  0  0  0
   10.8904   -2.4840   22.8242 C   0  0  0  0  0  0  0  0  0  0  0  0
   12.3940   -0.5944   22.7494 C   0  0  0  0  0  0  0  0  0  0  0  0
   10.4950   -0.5686   24.2427 C   0  0  0  0  0  0  0  0  0  0  0  0
   10.1256   -1.8369   23.7947 C   0  0  0  0  0  0  0  0  0  0  0  0
   11.6292    0.0527   23.7200 C   0  0  0  0  0  0  0  0  0  0  0  0
    7.9153   -0.0290   19.1141 C   0  0  0  0  0  0  0  0  0  0  0  0
    6.6176   -0.3314   19.0367 C   0  0  0  0  0  0  0  0  0  0  0  0
    6.1474   -1.6085   19.6099 C   0  0  0  0  0  0  0  0  0  0  0  0
    8.4203   -2.2254   25.8425 C   0  0  0  0  0  0  0  0  0  0  0  0
    6.3998   -0.7899   22.0161 C   0  0  0  0  0  0  0  0  0  0  0  0
    6.4669   -3.1948   21.4680 C   0  0  0  0  0  0  0  0  0  0  0  0
    7.6373   -0.9478   22.8916 C   0  0  0  0  0  0  0  0  0  0  0  0
    7.7121   -3.3745   22.3219 C   0  0  0  0  0  0  0  0  0  0  0  0
    8.4718   -3.7327   26.0542 C   0  0  0  0  0  0  0  0  0  0  0  0
    8.8376   -2.5432   24.3890 C   0  0  0  0  0  0  0  0  0  0  0  0
    6.3481   -1.8223   20.9714 N   0  0  0  0  0  0  0  0  0  0  0  0
    7.6908   -2.3549   23.4363 N   0  0  0  0  0  0  0  0  0  0  0  0
    5.6007   -2.4074   18.8475 O   0  0  0  0  0  0  0  0  0  0  0  0
    9.0186   -3.9471   24.7352 O   0  0  0  0  0  0  0  0  0  0  0  0
   12.0851    1.6176   24.2722 Cl  0  0  0  0  0  0  0  0  0  0  0  0
  1  2  2  0
  1  3  1  0
  2  5  1  0
  3  6  2  0
  4  5  2  0
  4  6  1  0
  5 16  1  0
  6 21  1  0
  7  8  2  0
  8  9  1  0
  9 17  1  0
  9 19  2  0
 10 15  1  0
 10 16  1  0
 11 13  1  0
 11 17  1  0
 12 14  1  0
 12 17  1  0
 13 18  1  0
 14 18  1  0
 15 20  1  0
 16 18  1  0
 16 20  1  0
M  CHG  1  18   1
M  END
