MED-COV-4280ac29-20
     RDKit          3D

 26 28  0  0  1  0  0  0  0  0999 V2000
   10.5958    4.0398   24.3536 C   0  0  0  0  0  0  0  0  0  0  0  0
   11.7638    3.3144   24.1185 C   0  0  0  0  0  0  0  0  0  0  0  0
    9.3589    3.5070   23.9904 C   0  0  0  0  0  0  0  0  0  0  0  0
   11.6948    2.0563   23.5200 C   0  0  0  0  0  0  0  0  0  0  0  0
    9.2900    2.2490   23.3919 C   0  0  0  0  0  0  0  0  0  0  0  0
    8.8390   -3.8867   24.2571 C   0  0  0  0  0  0  0  0  0  0  0  0
    7.8982   -4.7703   24.7611 C   0  0  0  0  0  0  0  0  0  0  0  0
   10.4579    1.5236   23.1567 C   0  0  0  0  0  0  0  0  0  0  0  0
    8.4457   -3.0310   23.2341 C   0  0  0  0  0  0  0  0  0  0  0  0
    7.1422   -3.0844   22.7532 C   0  0  0  0  0  0  0  0  0  0  0  0
    6.2775   -4.0040   23.3244 C   0  0  0  0  0  0  0  0  0  0  0  0
   12.4560   -1.0302   21.7853 C   0  0  0  0  0  0  0  0  0  0  0  0
    6.2441   -2.6254   20.4848 C   0  0  0  0  0  0  0  0  0  0  0  0
    9.0731   -0.5848   22.8233 C   0  0  0  0  0  0  0  0  0  0  0  0
   10.8350   -2.1203   23.3287 C   0  0  0  0  0  0  0  0  0  0  0  0
   10.3825    0.1589   22.5072 C   0  0  0  0  0  0  0  0  0  0  0  0
    9.4525   -2.0595   22.6687 C   0  0  0  0  0  0  0  0  0  0  0  0
   11.5160   -0.8047   22.9327 C   0  0  0  0  0  0  0  0  0  0  0  0
    5.8916   -1.4372   19.6203 C   0  0  0  0  0  0  0  0  0  0  0  0
    6.6230   -4.8513   24.3196 N   0  0  0  0  0  0  0  0  0  0  0  0
   11.8410   -1.4987   20.6484 N   0  0  0  0  0  0  0  0  0  0  0  0
    6.7289   -2.2323   21.7256 N   0  0  0  0  0  0  0  0  0  0  0  0
   13.6588   -0.7948   21.8708 O   0  0  0  0  0  0  0  0  0  0  0  0
    6.1058   -3.7664   20.0523 O   0  0  0  0  0  0  0  0  0  0  0  0
    4.6392   -4.1723   22.8216 Cl  0  0  0  0  0  0  0  0  0  0  0  0
    7.3334   -0.9995   18.6901 Cl  0  0  0  0  0  0  0  0  0  0  0  0
  1  2  2  0
  1  3  1  0
  2  4  1  0
  3  5  2  0
  4  8  2  0
  5  8  1  0
  6  7  2  0
  6  9  1  0
  7 20  1  0
  8 16  1  0
  9 10  2  0
  9 17  1  0
 10 11  1  0
 10 22  1  0
 11 20  2  0
 11 25  1  0
 12 18  1  0
 12 21  1  0
 12 23  2  0
 13 19  1  0
 13 22  1  0
 13 24  2  0
 14 16  1  0
 14 17  1  0
 15 17  1  0
 15 18  1  0
 16 18  1  0
 19 26  1  0
M  END
