MED-COV-4280ac29-18
     RDKit          3D

 25 27  0  0  1  0  0  0  0  0999 V2000
   11.5198    0.8320   24.3004 C   0  0  0  0  0  0  0  0  0  0  0  0
   10.5227   -0.1150   24.0668 C   0  0  0  0  0  0  0  0  0  0  0  0
   10.0272   -4.0024   24.7388 C   0  0  0  0  0  0  0  0  0  0  0  0
    8.1074   -2.5463   24.9159 C   0  0  0  0  0  0  0  0  0  0  0  0
   12.7676    0.6957   23.6920 C   0  0  0  0  0  0  0  0  0  0  0  0
    9.6365   -4.6595   25.9055 C   0  0  0  0  0  0  0  0  0  0  0  0
    7.7166   -3.2035   26.0826 C   0  0  0  0  0  0  0  0  0  0  0  0
   12.0213   -1.3349   22.6165 C   0  0  0  0  0  0  0  0  0  0  0  0
    9.2627   -2.9458   24.2440 C   0  0  0  0  0  0  0  0  0  0  0  0
   10.7735   -1.1985   23.2249 C   0  0  0  0  0  0  0  0  0  0  0  0
    8.4812   -4.2601   26.5773 C   0  0  0  0  0  0  0  0  0  0  0  0
   13.0183   -0.3878   22.8501 C   0  0  0  0  0  0  0  0  0  0  0  0
    6.2325   -1.5290   18.6982 C   0  0  0  0  0  0  0  0  0  0  0  0
    6.3559   -2.0996   21.1024 C   0  0  0  0  0  0  0  0  0  0  0  0
    7.8051   -0.2901   20.2666 C   0  0  0  0  0  0  0  0  0  0  0  0
    7.5371   -2.7460   21.8115 C   0  0  0  0  0  0  0  0  0  0  0  0
    9.0085   -0.9086   20.9651 C   0  0  0  0  0  0  0  0  0  0  0  0
    6.1710   -0.3425   17.7698 C   0  0  0  0  0  0  0  0  0  0  0  0
    9.6872   -2.2305   22.9719 C   0  0  0  0  0  0  0  0  0  0  0  0
    6.8001   -1.3114   19.9528 N   0  0  0  0  0  0  0  0  0  0  0  0
    8.5368   -1.6732   22.1817 N   0  0  0  0  0  0  0  0  0  0  0  0
    5.7912   -2.6163   18.3171 O   0  0  0  0  0  0  0  0  0  0  0  0
    7.9993   -5.0710   28.0164 Cl  0  0  0  0  0  0  0  0  0  0  0  0
   14.5584   -0.5562   22.1007 Cl  0  0  0  0  0  0  0  0  0  0  0  0
    5.1735    0.8693   18.5664 Cl  0  0  0  0  0  0  0  0  0  0  0  0
  1  2  2  0
  1  5  1  0
  2 10  1  0
  3  6  2  0
  3  9  1  0
  4  7  1  0
  4  9  2  0
  5 12  2  0
  6 11  1  0
  7 11  2  0
  8 10  2  0
  8 12  1  0
  9 19  1  0
 10 19  1  0
 11 23  1  0
 12 24  1  0
 13 18  1  0
 13 20  1  0
 13 22  2  0
 14 16  1  0
 14 20  1  0
 15 17  1  0
 15 20  1  0
 16 21  1  0
 17 21  1  0
 18 25  1  0
 19 21  1  0
M  CHG  1  21   1
M  END
