MED-UNK-7e7dab56-10
     RDKit          3D

 26 27  0  0  1  0  0  0  0  0999 V2000
    7.0263   -2.8064   23.4060 C   0  0  0  0  0  0  0  0  0  0  0  0
    9.2735   -2.6790   24.2839 C   0  0  0  0  0  0  0  0  0  0  0  0
    7.4121   -2.0387   22.3071 C   0  0  0  0  0  0  0  0  0  0  0  0
    9.6593   -1.9113   23.1850 C   0  0  0  0  0  0  0  0  0  0  0  0
    7.9571   -3.1265   24.3944 C   0  0  0  0  0  0  0  0  0  0  0  0
    8.7286   -1.5912   22.1967 C   0  0  0  0  0  0  0  0  0  0  0  0
    6.3951   -1.7364   21.3065 C   0  0  0  0  0  0  0  0  0  0  0  0
   11.0750   -1.4651   23.1228 C   0  0  0  0  0  0  0  0  0  0  0  0
    5.1626    1.4551   19.5630 C   0  0  0  0  0  0  0  0  0  0  0  0
    5.0995    0.0712   20.1568 C   0  0  0  0  0  0  0  0  0  0  0  0
    5.4183    0.2587   18.7045 C   0  0  0  0  0  0  0  0  0  0  0  0
   12.1463    2.3203   25.6335 C   0  0  0  0  0  0  0  0  0  0  0  0
   11.8998    3.5032   23.4562 C   0  0  0  0  0  0  0  0  0  0  0  0
   12.8393   -0.1174   24.2304 C   0  0  0  0  0  0  0  0  0  0  0  0
   12.9050    1.2262   23.5290 C   0  0  0  0  0  0  0  0  0  0  0  0
    7.7884   -5.6644   25.1914 N   0  0  0  0  0  0  0  0  0  0  0  0
    6.0981   -0.3868   21.0958 N   0  0  0  0  0  0  0  0  0  0  0  0
   11.4663   -0.6654   24.1608 N   0  0  0  0  0  0  0  0  0  0  0  0
   11.9224    2.1740   24.1554 N   0  0  0  0  0  0  0  0  0  0  0  0
    5.8203   -2.6544   20.6992 O   0  0  0  0  0  0  0  0  0  0  0  0
   11.7717   -1.8102   22.1720 O   0  0  0  0  0  0  0  0  0  0  0  0
    8.3803   -3.8014   26.8721 O   0  0  0  0  0  0  0  0  0  0  0  0
    6.0369   -3.9371   25.9566 O   0  0  0  0  0  0  0  0  0  0  0  0
    6.7193    0.0380   18.2881 F   0  0  0  0  0  0  0  0  0  0  0  0
    7.4733   -4.0876   25.7693 S   0  0  0  0  0  0  0  0  0  0  0  0
    9.2559   -0.5415   20.6948 Br  0  0  0  0  0  0  0  0  0  0  0  0
  1  3  2  0
  1  5  1  0
  2  4  1  0
  2  5  2  0
  3  6  1  0
  3  7  1  0
  4  6  2  0
  4  8  1  0
  5 25  1  0
  6 26  1  0
  7 17  1  0
  7 20  2  0
  8 18  1  0
  8 21  2  0
  9 10  1  0
  9 11  1  0
 10 11  1  0
 10 17  1  0
 11 24  1  0
 12 19  1  0
 13 19  1  0
 14 15  1  0
 14 18  1  0
 15 19  1  0
 16 25  1  0
 22 25  2  0
 23 25  2  0
M  CHG  1  19   1
M  END
