MED-COV-4280ac29-5
     RDKit          3D

 30 33  0  0  0  0  0  0  0  0999 V2000
   13.5573    2.0855   22.3556 C   0  0  0  0  0  0  0  0  0  0  0  0
   13.6131    0.8308   22.9551 C   0  0  0  0  0  0  0  0  0  0  0  0
    9.6728    3.2063   25.0623 C   0  0  0  0  0  0  0  0  0  0  0  0
   12.5651    2.9935   22.7265 C   0  0  0  0  0  0  0  0  0  0  0  0
   12.6769    0.4792   23.9279 C   0  0  0  0  0  0  0  0  0  0  0  0
   10.6090    3.5579   24.0896 C   0  0  0  0  0  0  0  0  0  0  0  0
    9.7285    1.9515   25.6618 C   0  0  0  0  0  0  0  0  0  0  0  0
    8.5165   -1.3363   25.4211 C   0  0  0  0  0  0  0  0  0  0  0  0
   10.5294   -2.3174   24.5140 C   0  0  0  0  0  0  0  0  0  0  0  0
    7.7517   -2.3063   24.7731 C   0  0  0  0  0  0  0  0  0  0  0  0
    9.7646   -3.2874   23.8660 C   0  0  0  0  0  0  0  0  0  0  0  0
   11.6146    2.6565   23.7039 C   0  0  0  0  0  0  0  0  0  0  0  0
   11.6713    1.3805   24.3136 C   0  0  0  0  0  0  0  0  0  0  0  0
    9.9054   -1.3418   25.2915 C   0  0  0  0  0  0  0  0  0  0  0  0
   10.7207    1.0435   25.2909 C   0  0  0  0  0  0  0  0  0  0  0  0
    8.3758   -3.2818   23.9956 C   0  0  0  0  0  0  0  0  0  0  0  0
    7.1954   -0.0285   19.4622 C   0  0  0  0  0  0  0  0  0  0  0  0
    8.4325   -1.8385   20.7245 C   0  0  0  0  0  0  0  0  0  0  0  0
    5.9780   -1.9859   20.3473 C   0  0  0  0  0  0  0  0  0  0  0  0
    8.3104   -3.3493   20.8746 C   0  0  0  0  0  0  0  0  0  0  0  0
    5.9950   -2.7496   21.6641 C   0  0  0  0  0  0  0  0  0  0  0  0
   10.7233   -0.3044   25.9835 C   0  0  0  0  0  0  0  0  0  0  0  0
    8.5168    0.6849   19.3163 C   0  0  0  0  0  0  0  0  0  0  0  0
    7.2220   -1.2418   20.1499 N   0  0  0  0  0  0  0  0  0  0  0  0
    7.1217   -3.7227   21.6922 N   0  0  0  0  0  0  0  0  0  0  0  0
    6.1761    0.4711   18.9801 O   0  0  0  0  0  0  0  0  0  0  0  0
    8.2562   -5.6601   22.9454 O   0  0  0  0  0  0  0  0  0  0  0  0
    6.1553   -4.6392   23.8895 O   0  0  0  0  0  0  0  0  0  0  0  0
    7.4083   -4.5108   23.1774 S   0  0  0  0  0  0  0  0  0  0  0  0
    8.6615    1.7652   20.6982 Cl  0  0  0  0  0  0  0  0  0  0  0  0
  1  2  2  0
  1  4  1  0
  2  5  1  0
  3  6  2  0
  3  7  1  0
  4 12  2  0
  5 13  2  0
  6 12  1  0
  7 15  2  0
  8 10  2  0
  8 14  1  0
  9 11  1  0
  9 14  2  0
 10 16  1  0
 11 16  2  0
 12 13  1  0
 13 15  1  0
 14 22  1  0
 15 22  1  0
 16 29  1  0
 17 23  1  0
 17 24  1  0
 17 26  2  0
 18 20  1  0
 18 24  1  0
 19 21  1  0
 19 24  1  0
 20 25  1  0
 21 25  1  0
 23 30  1  0
 25 29  1  0
 27 29  2  0
 28 29  2  0
M  END
