MED-COV-4280ac29-4
     RDKit          3D

 25 27  0  0  0  0  0  0  0  0999 V2000
   11.7577    1.3918   25.2528 C   0  0  0  0  0  0  0  0  0  0  0  0
    7.9428   -2.9548   26.8204 C   0  0  0  0  0  0  0  0  0  0  0  0
   12.8659    1.3580   24.4064 C   0  0  0  0  0  0  0  0  0  0  0  0
   10.7339    0.4569   25.0991 C   0  0  0  0  0  0  0  0  0  0  0  0
    8.5356   -4.2154   26.8914 C   0  0  0  0  0  0  0  0  0  0  0  0
    8.3522   -2.0456   25.8450 C   0  0  0  0  0  0  0  0  0  0  0  0
   11.9264   -0.5454   23.2524 C   0  0  0  0  0  0  0  0  0  0  0  0
    9.9474   -3.6575   25.0119 C   0  0  0  0  0  0  0  0  0  0  0  0
   12.9502    0.3894   23.4062 C   0  0  0  0  0  0  0  0  0  0  0  0
   10.8183   -0.5116   24.0989 C   0  0  0  0  0  0  0  0  0  0  0  0
    9.5379   -4.5668   25.9872 C   0  0  0  0  0  0  0  0  0  0  0  0
    9.3545   -2.3969   24.9408 C   0  0  0  0  0  0  0  0  0  0  0  0
    6.5840   -3.8244   20.2079 C   0  0  0  0  0  0  0  0  0  0  0  0
    9.5206   -3.0876   22.1255 C   0  0  0  0  0  0  0  0  0  0  0  0
    7.8053   -1.2782   22.4925 C   0  0  0  0  0  0  0  0  0  0  0  0
    8.9475   -3.3105   20.7285 C   0  0  0  0  0  0  0  0  0  0  0  0
    7.2658   -1.5373   21.0874 C   0  0  0  0  0  0  0  0  0  0  0  0
    9.2889   -1.6480   22.5954 C   0  0  0  0  0  0  0  0  0  0  0  0
   14.1348    0.3541   22.5010 C   0  0  0  0  0  0  0  0  0  0  0  0
    6.8724   -5.2864   20.4380 C   0  0  0  0  0  0  0  0  0  0  0  0
    7.5378   -2.9189   20.6717 N   0  0  0  0  0  0  0  0  0  0  0  0
   10.1374   -5.8413   26.0595 N   0  0  0  0  0  0  0  0  0  0  0  0
    9.7720   -1.4674   23.9422 N   0  0  0  0  0  0  0  0  0  0  0  0
    5.5431   -3.4990   19.6312 O   0  0  0  0  0  0  0  0  0  0  0  0
    5.3150   -6.0815   20.6384 Cl  0  0  0  0  0  0  0  0  0  0  0  0
  1  3  2  0
  1  4  1  0
  2  5  2  0
  2  6  1  0
  3  9  1  0
  4 10  2  0
  5 11  1  0
  6 12  2  0
  7  9  2  0
  7 10  1  0
  8 11  2  0
  8 12  1  0
  9 19  1  0
 10 23  1  0
 11 22  1  0
 12 23  1  0
 13 20  1  0
 13 21  1  0
 13 24  2  0
 14 16  1  0
 14 18  1  0
 15 17  1  0
 15 18  1  0
 16 21  1  0
 17 21  1  0
 18 23  1  0
 20 25  1  0
M  END
