MED-UNK-55e26634-1
     RDKit          3D

 33 36  0  0  1  0  0  0  0  0999 V2000
   14.2837   -1.9687   22.6159 C   0  0  0  0  0  0  0  0  0  0  0  0
   13.3083   -2.5591   23.4195 C   0  0  0  0  0  0  0  0  0  0  0  0
   13.9157   -1.0466   21.6362 C   0  0  0  0  0  0  0  0  0  0  0  0
    5.5394    1.1984   18.9904 C   0  0  0  0  0  0  0  0  0  0  0  0
   11.9650   -2.2275   23.2433 C   0  0  0  0  0  0  0  0  0  0  0  0
   12.5723   -0.7149   21.4599 C   0  0  0  0  0  0  0  0  0  0  0  0
    6.2690    0.9477   20.1472 C   0  0  0  0  0  0  0  0  0  0  0  0
    6.0518    0.7383   17.7881 C   0  0  0  0  0  0  0  0  0  0  0  0
    7.8973   -0.1636   18.8170 C   0  0  0  0  0  0  0  0  0  0  0  0
   11.5970   -1.3053   22.2635 C   0  0  0  0  0  0  0  0  0  0  0  0
    7.4716    0.2544   20.0675 C   0  0  0  0  0  0  0  0  0  0  0  0
    8.6094    3.7521   24.2807 C   0  0  0  0  0  0  0  0  0  0  0  0
    7.5736   -0.1838   22.4847 C   0  0  0  0  0  0  0  0  0  0  0  0
    9.6779   -0.1174   21.1226 C   0  0  0  0  0  0  0  0  0  0  0  0
    8.6684    7.4211   23.1205 C   0  0  0  0  0  0  0  0  0  0  0  0
    9.2007    6.0537   23.5503 C   0  0  0  0  0  0  0  0  0  0  0  0
    7.6363    7.3130   21.9966 C   0  0  0  0  0  0  0  0  0  0  0  0
    8.1535   -0.6989   24.9321 C   0  0  0  0  0  0  0  0  0  0  0  0
    8.0586    5.0939   23.9002 C   0  0  0  0  0  0  0  0  0  0  0  0
    8.3283    0.1494   23.6981 C   0  0  0  0  0  0  0  0  0  0  0  0
    7.5902    0.6934   24.8961 C   0  0  0  0  0  0  0  0  0  0  0  0
    6.5186    6.3384   22.3737 C   0  0  0  0  0  0  0  0  0  0  0  0
    7.0594    4.9506   22.7413 C   0  0  0  0  0  0  0  0  0  0  0  0
    8.2006    1.7708   25.7263 C   0  0  0  0  0  0  0  0  0  0  0  0
    7.2161    0.0613   17.6711 N   0  0  0  0  0  0  0  0  0  0  0  0
   10.2348   -0.9691   22.0851 N   0  0  0  0  0  0  0  0  0  0  0  0
    7.8524    3.0793   25.2208 N   0  0  0  0  0  0  0  0  0  0  0  0
    8.2547   -0.0221   21.2550 N   0  0  0  0  0  0  0  0  0  0  0  0
    5.5751    6.2293   21.2292 N   0  0  0  0  0  0  0  0  0  0  0  0
    9.6445    3.3539   23.7595 O   0  0  0  0  0  0  0  0  0  0  0  0
    6.4336   -0.6215   22.6159 O   0  0  0  0  0  0  0  0  0  0  0  0
   10.3068    0.5107   20.2703 O   0  0  0  0  0  0  0  0  0  0  0  0
    7.7337    4.3692   21.6238 O   0  0  0  0  0  0  0  0  0  0  0  0
  1  2  2  0
  1  3  1  0
  2  5  1  0
  3  6  2  0
  4  7  2  0
  4  8  1  0
  5 10  2  0
  6 10  1  0
  7 11  1  0
  8 25  2  0
  9 11  2  0
  9 25  1  0
 10 26  1  0
 11 28  1  0
 12 19  1  0
 12 27  1  0
 12 30  2  0
 13 20  1  0
 13 28  1  0
 13 31  2  0
 14 26  1  0
 14 28  1  0
 14 32  2  0
 15 16  1  0
 15 17  1  0
 16 19  1  0
 17 22  1  0
 18 20  1  0
 18 21  1  0
 19 23  1  0
 20 21  1  0
 21 24  1  0
 22 23  1  0
 22 29  1  0
 23 33  1  0
 24 27  1  0
M  CHG  1  29   1
M  END
