MED-COV-4280ac29-36
     RDKit          3D

 21 22  0  0  1  0  0  0  0  0999 V2000
    6.7070   -4.3890   20.8082 C   0  0  0  0  0  0  0  0  0  0  0  0
    8.3113   -5.3307   26.4503 C   0  0  0  0  0  0  0  0  0  0  0  0
    7.1960   -0.8885   21.9757 C   0  0  0  0  0  0  0  0  0  0  0  0
   13.2528   -1.4830   21.6071 C   0  0  0  0  0  0  0  0  0  0  0  0
    6.6531   -2.0019   21.3344 C   0  0  0  0  0  0  0  0  0  0  0  0
    8.3496   -1.0224   22.7485 C   0  0  0  0  0  0  0  0  0  0  0  0
   12.1919   -2.2055   22.1530 C   0  0  0  0  0  0  0  0  0  0  0  0
   13.5040   -0.1801   22.0375 C   0  0  0  0  0  0  0  0  0  0  0  0
    8.4171   -3.3830   22.2387 C   0  0  0  0  0  0  0  0  0  0  0  0
   11.6332   -0.3224   23.5597 C   0  0  0  0  0  0  0  0  0  0  0  0
    7.2636   -3.2491   21.4659 C   0  0  0  0  0  0  0  0  0  0  0  0
    8.9600   -2.2697   22.8800 C   0  0  0  0  0  0  0  0  0  0  0  0
   11.3821   -1.6253   23.1293 C   0  0  0  0  0  0  0  0  0  0  0  0
   12.6941    0.4001   23.0138 C   0  0  0  0  0  0  0  0  0  0  0  0
    9.2280   -4.4373   25.8353 C   0  0  0  0  0  0  0  0  0  0  0  0
    9.0434   -3.1105   25.8660 C   0  0  0  0  0  0  0  0  0  0  0  0
    9.9858   -2.1227   25.2298 C   0  0  0  0  0  0  0  0  0  0  0  0
   10.2210   -2.4158   23.7250 C   0  0  0  0  0  0  0  0  0  0  0  0
    6.2550   -5.3149   20.2740 N   0  0  0  0  0  0  0  0  0  0  0  0
    7.5651   -6.0641   26.9520 N   0  0  0  0  0  0  0  0  0  0  0  0
   13.0038    2.0080   23.5437 Cl  0  0  0  0  0  0  0  0  0  0  0  0
  1 11  1  0
  1 19  3  0
  2 15  1  0
  2 20  3  0
  3  5  2  0
  3  6  1  0
  4  7  2  0
  4  8  1  0
  5 11  1  0
  6 12  2  0
  7 13  1  0
  8 14  2  0
  9 11  2  0
  9 12  1  0
 10 13  2  0
 10 14  1  0
 12 18  1  0
 13 18  1  0
 14 21  1  0
 15 16  2  0
 16 17  1  0
 17 18  1  0
M  END
