MED-COV-4280ac29-16
     RDKit          3D

 18 19  0  0  0  0  0  0  0  0999 V2000
   11.9864   -2.0293   22.0728 C   0  0  0  0  0  0  0  0  0  0  0  0
   10.8484   -2.5522   22.6870 C   0  0  0  0  0  0  0  0  0  0  0  0
   12.5071   -0.8060   22.4950 C   0  0  0  0  0  0  0  0  0  0  0  0
   10.7516   -0.6284   24.1454 C   0  0  0  0  0  0  0  0  0  0  0  0
   10.2310   -1.8517   23.7232 C   0  0  0  0  0  0  0  0  0  0  0  0
   11.8896   -0.1056   23.5312 C   0  0  0  0  0  0  0  0  0  0  0  0
    5.9279   -1.8113   19.8161 C   0  0  0  0  0  0  0  0  0  0  0  0
    6.3466   -3.2662   21.7729 C   0  0  0  0  0  0  0  0  0  0  0  0
    6.3628   -0.8265   22.1202 C   0  0  0  0  0  0  0  0  0  0  0  0
    7.6630   -3.4026   22.5239 C   0  0  0  0  0  0  0  0  0  0  0  0
    7.6794   -0.9264   22.8787 C   0  0  0  0  0  0  0  0  0  0  0  0
    9.0062   -2.4142   24.3825 C   0  0  0  0  0  0  0  0  0  0  0  0
    5.8159   -0.4074   19.2775 C   0  0  0  0  0  0  0  0  0  0  0  0
    6.2183   -1.9378   21.1738 N   0  0  0  0  0  0  0  0  0  0  0  0
    7.7705   -2.2849   23.5371 N   0  0  0  0  0  0  0  0  0  0  0  0
    5.7643   -2.7654   19.0512 O   0  0  0  0  0  0  0  0  0  0  0  0
   12.5317    1.4042   24.0509 Cl  0  0  0  0  0  0  0  0  0  0  0  0
    7.4343    0.0710   18.7776 Cl  0  0  0  0  0  0  0  0  0  0  0  0
  1  2  2  0
  1  3  1  0
  2  5  1  0
  3  6  2  0
  4  5  2  0
  4  6  1  0
  5 12  1  0
  6 17  1  0
  7 13  1  0
  7 14  1  0
  7 16  2  0
  8 10  1  0
  8 14  1  0
  9 11  1  0
  9 14  1  0
 10 15  1  0
 11 15  1  0
 12 15  1  0
 13 18  1  0
M  CHG  1  15   1
M  END
