MED-COV-4280ac29-14
     RDKit          3D

 19 20  0  0  0  0  0  0  0  0999 V2000
   11.4710   -0.3861   25.7007 C   0  0  0  0  0  0  0  0  0  0  0  0
   10.5487   -1.3321   25.2535 C   0  0  0  0  0  0  0  0  0  0  0  0
   12.7870   -0.7656   25.9649 C   0  0  0  0  0  0  0  0  0  0  0  0
   12.2584   -3.0372   25.3347 C   0  0  0  0  0  0  0  0  0  0  0  0
   10.9424   -2.6577   25.0705 C   0  0  0  0  0  0  0  0  0  0  0  0
   13.1807   -2.0911   25.7819 C   0  0  0  0  0  0  0  0  0  0  0  0
    5.8795   -0.3967   19.3013 C   0  0  0  0  0  0  0  0  0  0  0  0
    6.8492   -1.2840   19.5332 C   0  0  0  0  0  0  0  0  0  0  0  0
    9.9707   -3.6530   24.6003 C   0  0  0  0  0  0  0  0  0  0  0  0
    6.5711   -2.4277   20.4249 C   0  0  0  0  0  0  0  0  0  0  0  0
    8.3819   -4.4033   22.8596 C   0  0  0  0  0  0  0  0  0  0  0  0
    9.6625   -2.3493   22.4311 C   0  0  0  0  0  0  0  0  0  0  0  0
    7.0922   -3.6835   22.4815 C   0  0  0  0  0  0  0  0  0  0  0  0
    8.3818   -1.6158   22.0353 C   0  0  0  0  0  0  0  0  0  0  0  0
    9.3658   -3.4453   23.3601 N   0  0  0  0  0  0  0  0  0  0  0  0
    7.3497   -2.5600   21.5722 N   0  0  0  0  0  0  0  0  0  0  0  0
    9.7546   -4.6009   25.3537 O   0  0  0  0  0  0  0  0  0  0  0  0
    5.6620   -3.1942   20.1020 O   0  0  0  0  0  0  0  0  0  0  0  0
   14.8049   -2.5586   26.1075 Cl  0  0  0  0  0  0  0  0  0  0  0  0
  1  2  2  0
  1  3  1  0
  2  5  1  0
  3  6  2  0
  4  5  2  0
  4  6  1  0
  5  9  1  0
  6 19  1  0
  7  8  2  0
  8 10  1  0
  9 15  1  0
  9 17  2  0
 10 16  1  0
 10 18  2  0
 11 13  1  0
 11 15  1  0
 12 14  1  0
 12 15  1  0
 13 16  1  0
 14 16  1  0
M  END
