MED-COV-4280ac29-28
     RDKit          3D

 25 27  0  0  0  0  0  0  0  0999 V2000
   11.4363    3.0453   24.1675 C   0  0  0  0  0  0  0  0  0  0  0  0
   12.5469    2.4744   23.5461 C   0  0  0  0  0  0  0  0  0  0  0  0
   10.2387    2.3344   24.2460 C   0  0  0  0  0  0  0  0  0  0  0  0
    6.0605    1.2921   18.8616 C   0  0  0  0  0  0  0  0  0  0  0  0
    6.7927    0.7726   19.9233 C   0  0  0  0  0  0  0  0  0  0  0  0
   12.4599    1.1926   23.0030 C   0  0  0  0  0  0  0  0  0  0  0  0
   10.1518    1.0525   23.7030 C   0  0  0  0  0  0  0  0  0  0  0  0
    5.5580    0.4041   17.9242 C   0  0  0  0  0  0  0  0  0  0  0  0
    6.4525   -1.4031   19.0250 C   0  0  0  0  0  0  0  0  0  0  0  0
    6.9971   -0.5998   20.0139 C   0  0  0  0  0  0  0  0  0  0  0  0
   11.2624    0.4816   23.0814 C   0  0  0  0  0  0  0  0  0  0  0  0
    9.0424   -0.8358   21.3248 C   0  0  0  0  0  0  0  0  0  0  0  0
    7.7657   -1.1788   21.1217 C   0  0  0  0  0  0  0  0  0  0  0  0
    7.1942   -2.1588   22.1024 C   0  0  0  0  0  0  0  0  0  0  0  0
    9.2242   -2.2498   23.2793 C   0  0  0  0  0  0  0  0  0  0  0  0
    5.4519   -3.8402   22.3705 C   0  0  0  0  0  0  0  0  0  0  0  0
   11.1681   -0.8981   22.4969 C   0  0  0  0  0  0  0  0  0  0  0  0
    3.9790   -4.0491   22.1208 C   0  0  0  0  0  0  0  0  0  0  0  0
    5.7358   -0.9349   17.9787 N   0  0  0  0  0  0  0  0  0  0  0  0
    7.9084   -2.6291   23.0937 N   0  0  0  0  0  0  0  0  0  0  0  0
    9.7843   -1.3427   22.3669 N   0  0  0  0  0  0  0  0  0  0  0  0
    5.8925   -2.5899   21.9647 N   0  0  0  0  0  0  0  0  0  0  0  0
    9.8733   -2.7055   24.2224 O   0  0  0  0  0  0  0  0  0  0  0  0
    6.1460   -4.7101   22.8946 O   0  0  0  0  0  0  0  0  0  0  0  0
    3.2077   -4.4036   23.6747 Cl  0  0  0  0  0  0  0  0  0  0  0  0
  1  2  2  0
  1  3  1  0
  2  6  1  0
  3  7  2  0
  4  5  2  0
  4  8  1  0
  5 10  1  0
  6 11  2  0
  7 11  1  0
  8 19  2  0
  9 10  2  0
  9 19  1  0
 10 13  1  0
 11 17  1  0
 12 13  2  0
 12 21  1  0
 13 14  1  0
 14 20  2  0
 14 22  1  0
 15 20  1  0
 15 21  1  0
 15 23  2  0
 16 18  1  0
 16 22  1  0
 16 24  2  0
 17 21  1  0
 18 25  1  0
M  END
