MED-COV-4280ac29-12
     RDKit          3D

 20 22  0  0  0  0  0  0  0  0999 V2000
   12.4544   -1.0815   22.2531 C   0  0  0  0  0  0  0  0  0  0  0  0
   11.4156   -1.8850   22.7230 C   0  0  0  0  0  0  0  0  0  0  0  0
   12.5169    0.2629   22.6195 C   0  0  0  0  0  0  0  0  0  0  0  0
   10.5015    0.0005   23.9258 C   0  0  0  0  0  0  0  0  0  0  0  0
   10.4391   -1.3440   23.5594 C   0  0  0  0  0  0  0  0  0  0  0  0
   11.5404    0.8039   23.4559 C   0  0  0  0  0  0  0  0  0  0  0  0
    6.0594   -1.4318   19.6571 C   0  0  0  0  0  0  0  0  0  0  0  0
    9.1678   -2.3842   25.5528 C   0  0  0  0  0  0  0  0  0  0  0  0
    9.6699   -3.5213   24.7168 C   0  0  0  0  0  0  0  0  0  0  0  0
    6.7987   -3.0870   21.3408 C   0  0  0  0  0  0  0  0  0  0  0  0
    6.3763   -0.7791   22.0946 C   0  0  0  0  0  0  0  0  0  0  0  0
    8.1402   -3.0980   22.0590 C   0  0  0  0  0  0  0  0  0  0  0  0
    7.7115   -0.7560   22.8263 C   0  0  0  0  0  0  0  0  0  0  0  0
    9.3351   -2.1984   24.0586 C   0  0  0  0  0  0  0  0  0  0  0  0
    6.3468   -0.0313   19.1778 C   0  0  0  0  0  0  0  0  0  0  0  0
    6.4098   -1.7252   20.9742 N   0  0  0  0  0  0  0  0  0  0  0  0
    8.0712   -2.1636   23.2463 N   0  0  0  0  0  0  0  0  0  0  0  0
    5.5414   -2.2399   18.8820 O   0  0  0  0  0  0  0  0  0  0  0  0
   11.6181    2.4628   23.9076 Cl  0  0  0  0  0  0  0  0  0  0  0  0
    7.4776   -0.1797   17.8372 Cl  0  0  0  0  0  0  0  0  0  0  0  0
  1  2  2  0
  1  3  1  0
  2  5  1  0
  3  6  2  0
  4  5  2  0
  4  6  1  0
  5 14  1  0
  6 19  1  0
  7 15  1  0
  7 16  1  0
  7 18  2  0
  8  9  1  0
  8 14  1  0
  9 14  1  0
 10 12  1  0
 10 16  1  0
 11 13  1  0
 11 16  1  0
 12 17  1  0
 13 17  1  0
 14 17  1  0
 15 20  1  0
M  CHG  1  17   1
M  END
