MED-UNK-28939ac5-5
     RDKit          3D

 20 22  0  0  1  0  0  0  0  0999 V2000
   12.0423   -1.6627   22.4086 C   0  0  0  0  0  0  0  0  0  0  0  0
    8.8021   -0.4613   21.3877 C   0  0  0  0  0  0  0  0  0  0  0  0
   13.3248   -1.2343   22.6840 C   0  0  0  0  0  0  0  0  0  0  0  0
    7.4255   -2.0389   22.3969 C   0  0  0  0  0  0  0  0  0  0  0  0
   12.5748    0.8529   23.1821 C   0  0  0  0  0  0  0  0  0  0  0  0
    7.5049   -1.0481   21.4431 C   0  0  0  0  0  0  0  0  0  0  0  0
   11.0512   -0.7140   22.5568 C   0  0  0  0  0  0  0  0  0  0  0  0
    9.6647   -1.0257   22.3016 C   0  0  0  0  0  0  0  0  0  0  0  0
    6.8675    1.7453   21.3995 C   0  0  0  0  0  0  0  0  0  0  0  0
    6.5654   -0.8197   19.0395 C   0  0  0  0  0  0  0  0  0  0  0  0
    5.5857    1.3363   19.3195 C   0  0  0  0  0  0  0  0  0  0  0  0
    6.3499   -0.6306   20.5565 C   0  0  0  0  0  0  0  0  0  0  0  0
    5.8739    0.8350   20.7340 C   0  0  0  0  0  0  0  0  0  0  0  0
    6.5912    0.5867   18.4578 C   0  0  0  0  0  0  0  0  0  0  0  0
   13.6282    0.0209   23.0745 N   0  0  0  0  0  0  0  0  0  0  0  0
   11.2827    0.5578   22.9435 N   0  0  0  0  0  0  0  0  0  0  0  0
    6.7299    1.8123   22.7658 N   0  0  0  0  0  0  0  0  0  0  0  0
    7.7264    2.3509   20.7631 O   0  0  0  0  0  0  0  0  0  0  0  0
    6.1999    0.5992   17.0990 O   0  0  0  0  0  0  0  0  0  0  0  0
    8.9106   -2.2581   23.2208 S   0  0  0  0  0  0  0  0  0  0  0  0
  1  3  2  0
  1  7  1  0
  2  6  1  0
  2  8  2  0
  3 15  1  0
  4  6  2  0
  4 20  1  0
  5 15  2  0
  5 16  1  0
  6 12  1  0
  7  8  1  0
  7 16  2  0
  8 20  1  0
  9 13  1  0
  9 17  1  0
  9 18  2  0
 10 12  1  0
 10 14  1  0
 11 13  1  0
 11 14  1  0
 12 13  1  0
 14 19  1  0
M  END
