MED-UNK-28939ac5-10
     RDKit          3D

 23 26  0  0  1  0  0  0  0  0999 V2000
    6.2071    1.2522   21.8455 C   0  0  0  0  0  0  0  0  0  0  0  0
    5.7916    1.2364   20.5091 C   0  0  0  0  0  0  0  0  0  0  0  0
    7.4209    0.6806   22.2218 C   0  0  0  0  0  0  0  0  0  0  0  0
    6.5168    0.4395   18.1335 C   0  0  0  0  0  0  0  0  0  0  0  0
   10.7713    0.0502   21.6822 C   0  0  0  0  0  0  0  0  0  0  0  0
    7.6477   -0.2265   17.7207 C   0  0  0  0  0  0  0  0  0  0  0  0
   11.2492   -2.1326   22.3221 C   0  0  0  0  0  0  0  0  0  0  0  0
    6.6172    0.6330   19.5397 C   0  0  0  0  0  0  0  0  0  0  0  0
    8.2564    0.0763   21.2779 C   0  0  0  0  0  0  0  0  0  0  0  0
   11.7728   -0.8815   22.0812 C   0  0  0  0  0  0  0  0  0  0  0  0
    7.8281    0.0680   19.9457 C   0  0  0  0  0  0  0  0  0  0  0  0
    9.5203   -0.5246   21.6331 C   0  0  0  0  0  0  0  0  0  0  0  0
   12.6699    0.7966   24.3296 C   0  0  0  0  0  0  0  0  0  0  0  0
   14.2119   -1.7047   21.9604 C   0  0  0  0  0  0  0  0  0  0  0  0
   14.0001   -1.3343   24.3831 C   0  0  0  0  0  0  0  0  0  0  0  0
   13.2466   -0.5337   22.2240 C   0  0  0  0  0  0  0  0  0  0  0  0
   13.6778   -0.0530   23.6206 C   0  0  0  0  0  0  0  0  0  0  0  0
   14.6138   -2.2602   23.3334 C   0  0  0  0  0  0  0  0  0  0  0  0
    8.4324   -0.4464   18.8208 N   0  0  0  0  0  0  0  0  0  0  0  0
   13.1239    2.0581   24.6341 N   0  0  0  0  0  0  0  0  0  0  0  0
   11.5405    0.3893   24.5902 O   0  0  0  0  0  0  0  0  0  0  0  0
   16.0328   -2.2498   23.4389 O   0  0  0  0  0  0  0  0  0  0  0  0
    9.5566   -2.1806   22.0672 S   0  0  0  0  0  0  0  0  0  0  0  0
  1  2  2  0
  1  3  1  0
  2  8  1  0
  3  9  2  0
  4  6  2  0
  4  8  1  0
  5 10  1  0
  5 12  2  0
  6 19  1  0
  7 10  2  0
  7 23  1  0
  8 11  2  0
  9 11  1  0
  9 12  1  0
 10 16  1  0
 11 19  1  0
 12 23  1  0
 13 17  1  0
 13 20  1  0
 13 21  2  0
 14 16  1  0
 14 18  1  0
 15 17  1  0
 15 18  1  0
 16 17  1  0
 18 22  1  0
M  END
