MED-COV-4280ac29-2
     RDKit          3D

 26 28  0  0  1  0  0  0  0  0999 V2000
   13.2610    0.1530   23.3574 C   0  0  0  0  0  0  0  0  0  0  0  0
   12.0894   -0.5875   23.5144 C   0  0  0  0  0  0  0  0  0  0  0  0
    7.7433   -4.0454   24.8364 C   0  0  0  0  0  0  0  0  0  0  0  0
    6.3375   -5.2655   23.2962 C   0  0  0  0  0  0  0  0  0  0  0  0
    7.2619   -4.8215   25.8906 C   0  0  0  0  0  0  0  0  0  0  0  0
    5.8562   -6.0417   24.3504 C   0  0  0  0  0  0  0  0  0  0  0  0
   13.2272    1.5432   23.4663 C   0  0  0  0  0  0  0  0  0  0  0  0
   10.8503    1.4524   23.8892 C   0  0  0  0  0  0  0  0  0  0  0  0
    7.2810   -4.2673   23.5392 C   0  0  0  0  0  0  0  0  0  0  0  0
   10.8841    0.0622   23.7803 C   0  0  0  0  0  0  0  0  0  0  0  0
    6.3184   -5.8197   25.6477 C   0  0  0  0  0  0  0  0  0  0  0  0
   12.0219    2.1929   23.7322 C   0  0  0  0  0  0  0  0  0  0  0  0
    6.2425   -2.2886   19.8188 C   0  0  0  0  0  0  0  0  0  0  0  0
    7.9188   -0.5466   20.5486 C   0  0  0  0  0  0  0  0  0  0  0  0
    9.0728   -0.4621   21.5295 C   0  0  0  0  0  0  0  0  0  0  0  0
    7.2443   -1.0699   23.1988 C   0  0  0  0  0  0  0  0  0  0  0  0
    6.9460   -2.1785   22.1893 C   0  0  0  0  0  0  0  0  0  0  0  0
    7.8002   -3.4312   22.4027 C   0  0  0  0  0  0  0  0  0  0  0  0
    9.6241   -0.7349   23.9479 C   0  0  0  0  0  0  0  0  0  0  0  0
    6.3200   -1.6876   18.4368 C   0  0  0  0  0  0  0  0  0  0  0  0
    7.0412   -1.6944   20.8021 N   0  0  0  0  0  0  0  0  0  0  0  0
    8.5618   -0.3762   22.9448 N   0  0  0  0  0  0  0  0  0  0  0  0
    5.5010   -3.2536   20.0201 O   0  0  0  0  0  0  0  0  0  0  0  0
    5.8498   -6.5779   26.6763 O   0  0  0  0  0  0  0  0  0  0  0  0
   11.9807    3.9082   23.8653 Cl  0  0  0  0  0  0  0  0  0  0  0  0
    7.6293   -2.5146   17.6002 Cl  0  0  0  0  0  0  0  0  0  0  0  0
  1  2  2  0
  1  7  1  0
  2 10  1  0
  3  5  2  0
  3  9  1  0
  4  6  1  0
  4  9  2  0
  5 11  1  0
  6 11  2  0
  7 12  2  0
  8 10  2  0
  8 12  1  0
  9 18  1  0
 10 19  1  0
 11 24  1  0
 12 25  1  0
 13 20  1  0
 13 21  1  0
 13 23  2  0
 14 15  1  0
 14 21  1  0
 15 22  1  0
 16 17  1  0
 16 22  1  0
 17 18  1  0
 17 21  1  0
 19 22  1  0
 20 26  1  0
M  CHG  1  22   1
M  END
