MED-UNK-e6e8ef8a-1
     RDKit          3D

 17 18  0  0  1  0  0  0  0  0999 V2000
    5.7690    1.3266   19.0205 C   0  0  0  0  0  0  0  0  0  0  0  0
    6.4881    0.9084   20.1346 C   0  0  0  0  0  0  0  0  0  0  0  0
    6.2223    0.9343   17.7713 C   0  0  0  0  0  0  0  0  0  0  0  0
    7.9927   -0.2166   18.6763 C   0  0  0  0  0  0  0  0  0  0  0  0
    7.6225    0.1219   19.9679 C   0  0  0  0  0  0  0  0  0  0  0  0
    9.7413   -0.5804   21.1355 C   0  0  0  0  0  0  0  0  0  0  0  0
   14.2768   -1.0725   24.0095 C   0  0  0  0  0  0  0  0  0  0  0  0
   13.2645   -0.1697   24.7076 C   0  0  0  0  0  0  0  0  0  0  0  0
   14.0501   -1.1083   22.5013 C   0  0  0  0  0  0  0  0  0  0  0  0
   11.8291   -0.5634   24.3664 C   0  0  0  0  0  0  0  0  0  0  0  0
   12.6160   -1.5034   22.1563 C   0  0  0  0  0  0  0  0  0  0  0  0
   11.5947   -0.5919   22.8499 C   0  0  0  0  0  0  0  0  0  0  0  0
   10.0544   -2.5587   22.6439 C   0  0  0  0  0  0  0  0  0  0  0  0
   10.1691   -1.0396   22.5328 C   0  0  0  0  0  0  0  0  0  0  0  0
    7.3195    0.1708   17.5698 N   0  0  0  0  0  0  0  0  0  0  0  0
    8.3751   -0.3188   21.0826 N   0  0  0  0  0  0  0  0  0  0  0  0
   10.5511   -0.4693   20.2194 O   0  0  0  0  0  0  0  0  0  0  0  0
  1  2  2  0
  1  3  1  0
  2  5  1  0
  3 15  2  0
  4  5  2  0
  4 15  1  0
  5 16  1  0
  6 14  1  0
  6 16  1  0
  6 17  2  0
  7  8  1  0
  7  9  1  0
  8 10  1  0
  9 11  1  0
 10 12  1  0
 11 12  1  0
 12 14  1  0
 13 14  1  0
M  END
