MED-UNK-28939ac5-11
     RDKit          3D

 23 26  0  0  1  0  0  0  0  0999 V2000
    4.6862    1.5504   20.8227 C   0  0  0  0  0  0  0  0  0  0  0  0
    7.0674    0.5446   21.1384 C   0  0  0  0  0  0  0  0  0  0  0  0
   10.6356    0.0936   20.9445 C   0  0  0  0  0  0  0  0  0  0  0  0
    7.1578    0.7330   18.3411 C   0  0  0  0  0  0  0  0  0  0  0  0
    4.0189    1.9175   19.6764 C   0  0  0  0  0  0  0  0  0  0  0  0
   10.8891   -1.8004   22.2677 C   0  0  0  0  0  0  0  0  0  0  0  0
    5.9640    1.0552   20.4401 C   0  0  0  0  0  0  0  0  0  0  0  0
   11.5311   -0.7285   21.6878 C   0  0  0  0  0  0  0  0  0  0  0  0
    6.0336    1.1387   19.0484 C   0  0  0  0  0  0  0  0  0  0  0  0
    8.1555    0.1592   20.3666 C   0  0  0  0  0  0  0  0  0  0  0  0
    9.3431   -0.3816   20.9845 C   0  0  0  0  0  0  0  0  0  0  0  0
   12.5779    0.4698   24.1665 C   0  0  0  0  0  0  0  0  0  0  0  0
   13.9328   -1.5786   21.3002 C   0  0  0  0  0  0  0  0  0  0  0  0
   13.8339   -1.6674   23.7566 C   0  0  0  0  0  0  0  0  0  0  0  0
   13.0207   -0.4534   21.8240 C   0  0  0  0  0  0  0  0  0  0  0  0
   13.5255   -0.2569   23.2641 C   0  0  0  0  0  0  0  0  0  0  0  0
   14.3712   -2.3941   22.5242 C   0  0  0  0  0  0  0  0  0  0  0  0
    8.2213    0.2407   19.0178 N   0  0  0  0  0  0  0  0  0  0  0  0
    4.8408    1.6649   18.6106 N   0  0  0  0  0  0  0  0  0  0  0  0
   12.2633    1.7369   23.7356 N   0  0  0  0  0  0  0  0  0  0  0  0
   12.1220   -0.0446   25.1849 O   0  0  0  0  0  0  0  0  0  0  0  0
   15.7928   -2.4416   22.5630 O   0  0  0  0  0  0  0  0  0  0  0  0
    9.2133   -1.8130   21.9155 S   0  0  0  0  0  0  0  0  0  0  0  0
  1  5  2  0
  1  7  1  0
  2  7  2  0
  2 10  1  0
  3  8  1  0
  3 11  2  0
  4  9  2  0
  4 18  1  0
  5 19  1  0
  6  8  2  0
  6 23  1  0
  7  9  1  0
  8 15  1  0
  9 19  1  0
 10 11  1  0
 10 18  2  0
 11 23  1  0
 12 16  1  0
 12 20  1  0
 12 21  2  0
 13 15  1  0
 13 17  1  0
 14 16  1  0
 14 17  1  0
 15 16  1  0
 17 22  1  0
M  END
