MED-COV-4280ac29-17
     RDKit          3D

 33 36  0  0  0  0  0  0  0  0999 V2000
   13.7908    3.2576   22.1559 C   0  0  0  0  0  0  0  0  0  0  0  0
   13.9946    1.8803   22.0722 C   0  0  0  0  0  0  0  0  0  0  0  0
   12.9221    3.7770   23.1158 C   0  0  0  0  0  0  0  0  0  0  0  0
    6.0349   -5.6820   21.8421 C   0  0  0  0  0  0  0  0  0  0  0  0
    6.3592   -5.4716   23.1823 C   0  0  0  0  0  0  0  0  0  0  0  0
   13.3296    1.0223   22.9482 C   0  0  0  0  0  0  0  0  0  0  0  0
   12.2571    2.9191   23.9918 C   0  0  0  0  0  0  0  0  0  0  0  0
    6.0112   -4.6073   20.9532 C   0  0  0  0  0  0  0  0  0  0  0  0
    6.6597   -4.1865   23.6337 C   0  0  0  0  0  0  0  0  0  0  0  0
   12.4609    1.5417   23.9080 C   0  0  0  0  0  0  0  0  0  0  0  0
    6.3117   -3.3221   21.4046 C   0  0  0  0  0  0  0  0  0  0  0  0
    6.6360   -3.1117   22.7449 C   0  0  0  0  0  0  0  0  0  0  0  0
    5.9794   -2.2887   19.1362 C   0  0  0  0  0  0  0  0  0  0  0  0
    6.8112    3.0984   19.4856 C   0  0  0  0  0  0  0  0  0  0  0  0
    5.0438   -0.0014   19.1933 C   0  0  0  0  0  0  0  0  0  0  0  0
    7.4792   -0.3706   18.6555 C   0  0  0  0  0  0  0  0  0  0  0  0
    8.1265   -0.6125   24.8667 C   0  0  0  0  0  0  0  0  0  0  0  0
    9.2110   -1.2586   22.6906 C   0  0  0  0  0  0  0  0  0  0  0  0
    5.1744    1.4287   18.6760 C   0  0  0  0  0  0  0  0  0  0  0  0
    7.5600    1.0680   18.1488 C   0  0  0  0  0  0  0  0  0  0  0  0
    9.4918   -0.2706   25.4425 C   0  0  0  0  0  0  0  0  0  0  0  0
   10.5738   -0.9150   23.2713 C   0  0  0  0  0  0  0  0  0  0  0  0
    6.0594   -0.9271   18.5181 C   0  0  0  0  0  0  0  0  0  0  0  0
    8.2227   -1.6759   23.7767 C   0  0  0  0  0  0  0  0  0  0  0  0
   11.7451    0.6194   24.8504 C   0  0  0  0  0  0  0  0  0  0  0  0
    8.2551    3.5221   19.5789 C   0  0  0  0  0  0  0  0  0  0  0  0
    6.5518    1.9082   18.8069 N   0  0  0  0  0  0  0  0  0  0  0  0
    6.2827   -2.2420   20.4909 N   0  0  0  0  0  0  0  0  0  0  0  0
   10.4142    0.1564   24.3246 N   0  0  0  0  0  0  0  0  0  0  0  0
    5.6743   -3.2674   18.4624 O   0  0  0  0  0  0  0  0  0  0  0  0
    5.9415    3.8043   20.0026 O   0  0  0  0  0  0  0  0  0  0  0  0
    6.9325   -1.8640   23.2066 O   0  0  0  0  0  0  0  0  0  0  0  0
    8.2755    5.0544   20.4444 Cl  0  0  0  0  0  0  0  0  0  0  0  0
  1  2  2  0
  1  3  1  0
  2  6  1  0
  3  7  2  0
  4  5  2  0
  4  8  1  0
  5  9  1  0
  6 10  2  0
  7 10  1  0
  8 11  2  0
  9 12  2  0
 10 25  1  0
 11 12  1  0
 11 28  1  0
 12 32  1  0
 13 23  1  0
 13 28  1  0
 13 30  2  0
 14 26  1  0
 14 27  1  0
 14 31  2  0
 15 19  1  0
 15 23  1  0
 16 20  1  0
 16 23  1  0
 17 21  1  0
 17 24  1  0
 18 22  1  0
 18 24  1  0
 19 27  1  0
 20 27  1  0
 21 29  1  0
 22 29  1  0
 24 32  1  0
 25 29  1  0
 26 33  1  0
M  CHG  1  29   1
M  END
