MED-UNK-7e7dab56-1
     RDKit          3D

 21 22  0  0  1  0  0  0  0  0999 V2000
    9.6644   -3.1243   24.4086 C   0  0  0  0  0  0  0  0  0  0  0  0
    7.5588   -4.1457   23.8084 C   0  0  0  0  0  0  0  0  0  0  0  0
    9.6394   -2.3798   23.2293 C   0  0  0  0  0  0  0  0  0  0  0  0
    7.5338   -3.4012   22.6291 C   0  0  0  0  0  0  0  0  0  0  0  0
    8.6241   -4.0073   24.6981 C   0  0  0  0  0  0  0  0  0  0  0  0
    8.5741   -2.5182   22.3396 C   0  0  0  0  0  0  0  0  0  0  0  0
   10.7548   -1.4734   22.9814 C   0  0  0  0  0  0  0  0  0  0  0  0
    6.3846   -3.5838   21.7209 C   0  0  0  0  0  0  0  0  0  0  0  0
   11.7113    2.0484   24.1754 C   0  0  0  0  0  0  0  0  0  0  0  0
   11.6227    0.8589   23.2540 C   0  0  0  0  0  0  0  0  0  0  0  0
   12.7788    1.0026   24.1969 C   0  0  0  0  0  0  0  0  0  0  0  0
    9.4832   -6.3415   25.6565 N   0  0  0  0  0  0  0  0  0  0  0  0
   10.6167   -0.1613   23.4431 N   0  0  0  0  0  0  0  0  0  0  0  0
    5.4629   -4.4162   22.0542 O   0  0  0  0  0  0  0  0  0  0  0  0
   11.7596   -1.8686   22.3681 O   0  0  0  0  0  0  0  0  0  0  0  0
    6.3480   -2.9041   20.6300 O   0  0  0  0  0  0  0  0  0  0  0  0
    9.4832   -4.2361   27.1441 O   0  0  0  0  0  0  0  0  0  0  0  0
    7.2886   -5.3045   26.5197 O   0  0  0  0  0  0  0  0  0  0  0  0
   12.8309    0.1660   25.2979 F   0  0  0  0  0  0  0  0  0  0  0  0
    8.6553   -4.9394   26.1743 S   0  0  0  0  0  0  0  0  0  0  0  0
    8.5406   -1.5001   20.7277 Br  0  0  0  0  0  0  0  0  0  0  0  0
  1  3  2  0
  1  5  1  0
  2  4  1  0
  2  5  2  0
  3  6  1  0
  3  7  1  0
  4  6  2  0
  4  8  1  0
  5 20  1  0
  6 21  1  0
  7 13  1  0
  7 15  2  0
  8 14  1  0
  8 16  2  0
  9 10  1  0
  9 11  1  0
 10 11  1  0
 10 13  1  0
 11 19  1  0
 12 20  1  0
 17 20  2  0
 18 20  2  0
M  CHG  1  14  -1
M  END
