MED-COV-4280ac29-23
     RDKit          3D

 25 27  0  0  1  0  0  0  0  0999 V2000
   11.5187    0.8730   24.1885 C   0  0  0  0  0  0  0  0  0  0  0  0
   12.7813    0.7568   23.6072 C   0  0  0  0  0  0  0  0  0  0  0  0
   10.5433   -0.0918   23.9364 C   0  0  0  0  0  0  0  0  0  0  0  0
    9.5960   -4.7514   25.6712 C   0  0  0  0  0  0  0  0  0  0  0  0
    7.8475   -3.1157   25.9943 C   0  0  0  0  0  0  0  0  0  0  0  0
    9.9992   -4.0912   24.5106 C   0  0  0  0  0  0  0  0  0  0  0  0
    8.2507   -2.4554   24.8337 C   0  0  0  0  0  0  0  0  0  0  0  0
   12.0931   -1.2890   22.5216 C   0  0  0  0  0  0  0  0  0  0  0  0
    8.5201   -4.2636   26.4131 C   0  0  0  0  0  0  0  0  0  0  0  0
    9.3266   -2.9432   24.0918 C   0  0  0  0  0  0  0  0  0  0  0  0
   13.0685   -0.3242   22.7738 C   0  0  0  0  0  0  0  0  0  0  0  0
   10.8305   -1.1728   23.1030 C   0  0  0  0  0  0  0  0  0  0  0  0
    6.3991   -1.5882   18.4758 C   0  0  0  0  0  0  0  0  0  0  0  0
    6.4777   -2.1520   20.8835 C   0  0  0  0  0  0  0  0  0  0  0  0
    7.9149   -0.3200   20.0764 C   0  0  0  0  0  0  0  0  0  0  0  0
    7.6532   -2.7770   21.6205 C   0  0  0  0  0  0  0  0  0  0  0  0
    9.1124   -0.9168   20.8033 C   0  0  0  0  0  0  0  0  0  0  0  0
    8.0884   -4.9689   27.6541 C   0  0  0  0  0  0  0  0  0  0  0  0
   14.4193   -0.4486   22.1538 C   0  0  0  0  0  0  0  0  0  0  0  0
    6.3388   -0.4046   17.5436 C   0  0  0  0  0  0  0  0  0  0  0  0
    9.7677   -2.2234   22.8279 C   0  0  0  0  0  0  0  0  0  0  0  0
    6.9345   -1.3586   19.7424 N   0  0  0  0  0  0  0  0  0  0  0  0
    8.6262   -1.6869   22.0107 N   0  0  0  0  0  0  0  0  0  0  0  0
    5.9848   -2.6834   18.0873 O   0  0  0  0  0  0  0  0  0  0  0  0
    5.3034    0.7917   18.3146 Cl  0  0  0  0  0  0  0  0  0  0  0  0
  1  2  2  0
  1  3  1  0
  2 11  1  0
  3 12  2  0
  4  6  2  0
  4  9  1  0
  5  7  1  0
  5  9  2  0
  6 10  1  0
  7 10  2  0
  8 11  2  0
  8 12  1  0
  9 18  1  0
 10 21  1  0
 11 19  1  0
 12 21  1  0
 13 20  1  0
 13 22  1  0
 13 24  2  0
 14 16  1  0
 14 22  1  0
 15 17  1  0
 15 22  1  0
 16 23  1  0
 17 23  1  0
 20 25  1  0
 21 23  1  0
M  CHG  1  23   1
M  END
