MED-UNK-e6e8ef8a-5
     RDKit          3D

 17 18  0  0  1  0  0  0  0  0999 V2000
    5.6990    0.6119   19.2999 C   0  0  0  0  0  0  0  0  0  0  0  0
    6.4646    0.5746   20.4600 C   0  0  0  0  0  0  0  0  0  0  0  0
    6.3479    0.4342   18.0887 C   0  0  0  0  0  0  0  0  0  0  0  0
    8.3894    0.1967   19.1152 C   0  0  0  0  0  0  0  0  0  0  0  0
    7.8363    0.3636   20.3746 C   0  0  0  0  0  0  0  0  0  0  0  0
    9.9789    0.6880   21.6574 C   0  0  0  0  0  0  0  0  0  0  0  0
   13.7390   -0.8790   24.6298 C   0  0  0  0  0  0  0  0  0  0  0  0
   14.1644   -1.7981   23.4889 C   0  0  0  0  0  0  0  0  0  0  0  0
   12.2653   -0.4916   24.5278 C   0  0  0  0  0  0  0  0  0  0  0  0
   13.8364   -1.1916   22.1248 C   0  0  0  0  0  0  0  0  0  0  0  0
   11.9375    0.1287   23.1601 C   0  0  0  0  0  0  0  0  0  0  0  0
   12.3603   -0.8026   22.0095 C   0  0  0  0  0  0  0  0  0  0  0  0
   10.4511    0.4824   23.0845 C   0  0  0  0  0  0  0  0  0  0  0  0
    7.6781    0.2268   17.9660 N   0  0  0  0  0  0  0  0  0  0  0  0
    8.6416    0.3207   21.5374 N   0  0  0  0  0  0  0  0  0  0  0  0
   10.7154    1.1199   20.7768 O   0  0  0  0  0  0  0  0  0  0  0  0
   11.5593   -1.9833   22.0227 O   0  0  0  0  0  0  0  0  0  0  0  0
  1  2  2  0
  1  3  1  0
  2  5  1  0
  3 14  2  0
  4  5  2  0
  4 14  1  0
  5 15  1  0
  6 13  1  0
  6 15  1  0
  6 16  2  0
  7  8  1  0
  7  9  1  0
  8 10  1  0
  9 11  1  0
 10 12  1  0
 11 12  1  0
 11 13  1  0
 12 17  1  0
M  END
