MEV-UNK-0bf23af6-1
     RDKit          3D

 26 29  0  0  1  0  0  0  0  0999 V2000
    9.1973    4.3741   24.2004 C   0  0  0  0  0  0  0  0  0  0  0  0
   11.4910    5.1301   24.1329 C   0  0  0  0  0  0  0  0  0  0  0  0
    8.8172    5.5800   24.7893 C   0  0  0  0  0  0  0  0  0  0  0  0
   11.1109    6.3361   24.7218 C   0  0  0  0  0  0  0  0  0  0  0  0
   10.5343    4.1491   23.8722 C   0  0  0  0  0  0  0  0  0  0  0  0
    9.7739    6.5610   25.0499 C   0  0  0  0  0  0  0  0  0  0  0  0
    9.7798   -1.5669   21.9078 C   0  0  0  0  0  0  0  0  0  0  0  0
   11.1184    0.3633   22.1294 C   0  0  0  0  0  0  0  0  0  0  0  0
    7.9149   -3.3456   26.8867 C   0  0  0  0  0  0  0  0  0  0  0  0
    8.4555   -2.1340   26.3250 C   0  0  0  0  0  0  0  0  0  0  0  0
    8.1121   -4.5387   26.3089 C   0  0  0  0  0  0  0  0  0  0  0  0
    9.0889   -2.1288   25.1445 C   0  0  0  0  0  0  0  0  0  0  0  0
    8.1486   -5.4288   23.9830 C   0  0  0  0  0  0  0  0  0  0  0  0
    7.9474   -4.6913   22.8913 C   0  0  0  0  0  0  0  0  0  0  0  0
   12.2064    2.5250   22.8795 C   0  0  0  0  0  0  0  0  0  0  0  0
    8.9074   -4.7026   25.0417 C   0  0  0  0  0  0  0  0  0  0  0  0
    9.2936   -3.3789   24.3314 C   0  0  0  0  0  0  0  0  0  0  0  0
    9.2345   -2.9617   21.8175 C   0  0  0  0  0  0  0  0  0  0  0  0
    9.0715   -0.4650   21.7814 N   0  0  0  0  0  0  0  0  0  0  0  0
    9.8568    0.6672   21.9104 N   0  0  0  0  0  0  0  0  0  0  0  0
   10.9202    2.9258   23.2751 N   0  0  0  0  0  0  0  0  0  0  0  0
   12.1782    1.2083   22.3133 N   0  0  0  0  0  0  0  0  0  0  0  0
    8.4670   -3.3716   23.0358 N   0  0  0  0  0  0  0  0  0  0  0  0
   13.2260    3.1974   22.9954 O   0  0  0  0  0  0  0  0  0  0  0  0
    9.4089    7.7196   25.6145 F   0  0  0  0  0  0  0  0  0  0  0  0
   11.4522   -1.3176   22.1954 S   0  0  0  0  0  0  0  0  0  0  0  0
  1  3  2  0
  1  5  1  0
  2  4  1  0
  2  5  2  0
  3  6  1  0
  4  6  2  0
  5 21  1  0
  6 25  1  0
  7 18  1  0
  7 19  2  0
  7 26  1  0
  8 20  2  0
  8 22  1  0
  8 26  1  0
  9 10  1  0
  9 11  2  0
 10 12  2  0
 11 16  1  0
 12 17  1  0
 13 14  2  0
 13 16  1  0
 14 23  1  0
 15 21  1  0
 15 22  1  0
 15 24  2  0
 16 17  1  0
 17 23  1  0
 18 23  1  0
 19 20  1  0
M  CHG  1  23   1
M  END
