MIH-UNI-6b9ca91a-5
     RDKit          3D

 17 18  0  0  0  0  0  0  0  0999 V2000
    6.4130   -2.4970   21.3024 C   0  0  0  0  0  0  0  0  0  0  0  0
    6.9443   -6.0912   22.1121 C   0  0  0  0  0  0  0  0  0  0  0  0
    6.4183   -4.9299   21.5460 C   0  0  0  0  0  0  0  0  0  0  0  0
    8.0045   -6.0087   23.0148 C   0  0  0  0  0  0  0  0  0  0  0  0
   12.1799   -3.6757   25.4196 C   0  0  0  0  0  0  0  0  0  0  0  0
   11.3042   -1.4353   25.1950 C   0  0  0  0  0  0  0  0  0  0  0  0
   13.4284   -3.1538   25.7580 C   0  0  0  0  0  0  0  0  0  0  0  0
   12.5527   -0.9133   25.5334 C   0  0  0  0  0  0  0  0  0  0  0  0
    8.0130   -3.6036   22.7851 C   0  0  0  0  0  0  0  0  0  0  0  0
    6.9527   -3.6862   21.8824 C   0  0  0  0  0  0  0  0  0  0  0  0
    8.5389   -4.7649   23.3512 C   0  0  0  0  0  0  0  0  0  0  0  0
   11.1178   -2.8165   25.1381 C   0  0  0  0  0  0  0  0  0  0  0  0
   13.6148   -1.7726   25.8149 C   0  0  0  0  0  0  0  0  0  0  0  0
    9.6726   -4.6770   24.3162 C   0  0  0  0  0  0  0  0  0  0  0  0
    5.9745   -1.5312   20.8314 N   0  0  0  0  0  0  0  0  0  0  0  0
    9.8761   -3.3356   24.8015 N   0  0  0  0  0  0  0  0  0  0  0  0
   14.8331   -1.2634   26.1450 O   0  0  0  0  0  0  0  0  0  0  0  0
  1 10  1  0
  1 15  3  0
  2  3  2  0
  2  4  1  0
  3 10  1  0
  4 11  2  0
  5  7  2  0
  5 12  1  0
  6  8  1  0
  6 12  2  0
  7 13  1  0
  8 13  2  0
  9 10  2  0
  9 11  1  0
 11 14  1  0
 12 16  1  0
 13 17  1  0
 14 16  1  0
M  END
