MIH-UNI-3396182e-6
     RDKit          3D

 30 33  0  0  1  0  0  0  0  0999 V2000
   10.8514   -0.2020   24.4663 C   0  0  0  0  0  0  0  0  0  0  0  0
   11.8677   -0.4911   23.5625 C   0  0  0  0  0  0  0  0  0  0  0  0
    9.7938   -1.0911   24.6225 C   0  0  0  0  0  0  0  0  0  0  0  0
    9.7993   -2.2462   23.8573 C   0  0  0  0  0  0  0  0  0  0  0  0
   11.7804   -1.6732   22.8450 C   0  0  0  0  0  0  0  0  0  0  0  0
    8.0260   -1.9174   21.2535 C   0  0  0  0  0  0  0  0  0  0  0  0
    5.8677   -2.0316   20.0654 C   0  0  0  0  0  0  0  0  0  0  0  0
    7.3056   -4.9695   22.8157 C   0  0  0  0  0  0  0  0  0  0  0  0
    7.8476   -3.2050   21.5637 C   0  0  0  0  0  0  0  0  0  0  0  0
    7.1714   -1.2818   20.2127 C   0  0  0  0  0  0  0  0  0  0  0  0
    9.0598   -0.6365   26.9525 C   0  0  0  0  0  0  0  0  0  0  0  0
    7.4922   -0.2332   25.0953 C   0  0  0  0  0  0  0  0  0  0  0  0
    9.1193    0.8535   27.2783 C   0  0  0  0  0  0  0  0  0  0  0  0
    7.4892    1.2691   25.3496 C   0  0  0  0  0  0  0  0  0  0  0  0
    8.4416   -3.9938   22.6788 C   0  0  0  0  0  0  0  0  0  0  0  0
    6.8130   -4.0316   20.8763 C   0  0  0  0  0  0  0  0  0  0  0  0
   13.0000    0.4648   23.3977 C   0  0  0  0  0  0  0  0  0  0  0  0
    8.6802   -3.2486   23.9797 C   0  0  0  0  0  0  0  0  0  0  0  0
   12.9209    1.2950   22.1134 C   0  0  0  0  0  0  0  0  0  0  0  0
   10.7688   -2.5613   22.9694 N   0  0  0  0  0  0  0  0  0  0  0  0
    5.6677   -3.2682   20.3750 N   0  0  0  0  0  0  0  0  0  0  0  0
    6.3993   -5.0241   21.8890 N   0  0  0  0  0  0  0  0  0  0  0  0
    8.7709   -0.8102   25.5231 N   0  0  0  0  0  0  0  0  0  0  0  0
    7.8759    1.4699   26.7642 N   0  0  0  0  0  0  0  0  0  0  0  0
   12.8130   -1.9713   21.9212 N   0  0  0  0  0  0  0  0  0  0  0  0
   11.9841    3.4535   20.8829 N   0  0  0  0  0  0  0  0  0  0  0  0
    7.0729    2.2887   27.6194 O   0  0  0  0  0  0  0  0  0  0  0  0
   10.3929    1.5273   21.4950 O   0  0  0  0  0  0  0  0  0  0  0  0
   11.3411    2.9843   23.3290 O   0  0  0  0  0  0  0  0  0  0  0  0
   11.4813    2.3147   22.0477 S   0  0  0  0  0  0  0  0  0  0  0  0
  1  2  2  0
  1  3  1  0
  2  5  1  0
  2 17  1  0
  3  4  2  0
  3 23  1  0
  4 18  1  0
  4 20  1  0
  5 20  2  0
  5 25  1  0
  6  9  2  0
  6 10  1  0
  7 10  1  0
  7 21  2  0
  8 15  1  0
  8 22  2  0
  9 15  1  0
  9 16  1  0
 11 13  1  0
 11 23  1  0
 12 14  1  0
 12 23  1  0
 13 24  1  0
 14 24  1  0
 15 18  1  0
 16 21  1  0
 16 22  1  0
 17 19  1  0
 19 30  1  0
 24 27  1  0
 26 30  1  0
 28 30  2  0
 29 30  2  0
M  CHG  1  27  -1
M  END
