MIH-UNI-6b9ca91a-9
     RDKit          3D

 25 27  0  0  1  0  0  0  0  0999 V2000
   12.9146    1.1425   22.3335 C   0  0  0  0  0  0  0  0  0  0  0  0
   12.2443   -1.2123   22.4254 C   0  0  0  0  0  0  0  0  0  0  0  0
   12.7159    2.4704   22.7125 C   0  0  0  0  0  0  0  0  0  0  0  0
   11.3848   -2.2058   22.8950 C   0  0  0  0  0  0  0  0  0  0  0  0
   10.8022    1.8100   24.0275 C   0  0  0  0  0  0  0  0  0  0  0  0
   10.1319   -0.5448   24.1195 C   0  0  0  0  0  0  0  0  0  0  0  0
   12.0593    0.1295   22.7966 C   0  0  0  0  0  0  0  0  0  0  0  0
   10.9873    0.4682   23.6563 C   0  0  0  0  0  0  0  0  0  0  0  0
   11.6618    2.8035   23.5579 C   0  0  0  0  0  0  0  0  0  0  0  0
   10.3307   -1.8727   23.7404 C   0  0  0  0  0  0  0  0  0  0  0  0
    6.2963    6.4159   24.1636 C   0  0  0  0  0  0  0  0  0  0  0  0
    9.5325    7.0112   22.1778 C   0  0  0  0  0  0  0  0  0  0  0  0
    8.1351    7.3277   22.7070 C   0  0  0  0  0  0  0  0  0  0  0  0
    7.7946    4.8488   22.9902 C   0  0  0  0  0  0  0  0  0  0  0  0
   10.4533    6.3852   23.2179 C   0  0  0  0  0  0  0  0  0  0  0  0
    8.9763    4.3998   23.8373 C   0  0  0  0  0  0  0  0  0  0  0  0
    5.9161    7.8490   24.4495 C   0  0  0  0  0  0  0  0  0  0  0  0
   11.4497    4.2323   23.9634 C   0  0  0  0  0  0  0  0  0  0  0  0
    7.3901    6.2186   23.3091 N   0  0  0  0  0  0  0  0  0  0  0  0
    8.0613   -3.1187   23.1060 N   0  0  0  0  0  0  0  0  0  0  0  0
   10.2848    4.8820   23.2547 N   0  0  0  0  0  0  0  0  0  0  0  0
    5.6494    5.5042   24.6855 O   0  0  0  0  0  0  0  0  0  0  0  0
    9.9643   -4.3894   24.2933 O   0  0  0  0  0  0  0  0  0  0  0  0
    8.6526   -2.6588   25.5709 O   0  0  0  0  0  0  0  0  0  0  0  0
    9.2561   -3.1174   24.3274 S   0  0  0  0  0  0  0  0  0  0  0  0
  1  3  2  0
  1  7  1  0
  2  4  1  0
  2  7  2  0
  3  9  1  0
  4 10  2  0
  5  8  1  0
  5  9  2  0
  6  8  2  0
  6 10  1  0
  7  8  1  0
  9 18  1  0
 10 25  1  0
 11 17  1  0
 11 19  1  0
 11 22  2  0
 12 13  1  0
 12 15  1  0
 13 19  1  0
 14 16  1  0
 14 19  1  0
 15 21  1  0
 16 21  1  0
 18 21  1  0
 20 25  1  0
 23 25  2  0
 24 25  2  0
M  CHG  1  21   1
M  END
