MIH-UNI-3396182e-13
     RDKit          3D

 21 23  0  0  1  0  0  0  0  0999 V2000
    8.8999   -1.5297   26.6415 C   0  0  0  0  0  0  0  0  0  0  0  0
    8.0362   -2.3881   25.9687 C   0  0  0  0  0  0  0  0  0  0  0  0
    6.0043    0.6205   19.6785 C   0  0  0  0  0  0  0  0  0  0  0  0
    9.8728   -0.8257   25.9329 C   0  0  0  0  0  0  0  0  0  0  0  0
    8.1426   -2.5395   24.5867 C   0  0  0  0  0  0  0  0  0  0  0  0
    6.9449    0.5369   20.6991 C   0  0  0  0  0  0  0  0  0  0  0  0
    6.4437    0.4475   18.3759 C   0  0  0  0  0  0  0  0  0  0  0  0
    8.6148    0.1282   19.0557 C   0  0  0  0  0  0  0  0  0  0  0  0
    9.9973   -0.9766   24.5428 C   0  0  0  0  0  0  0  0  0  0  0  0
    9.1113   -1.8293   23.8601 C   0  0  0  0  0  0  0  0  0  0  0  0
    8.2773    0.2864   20.3902 C   0  0  0  0  0  0  0  0  0  0  0  0
   13.7371   -1.4234   22.6559 C   0  0  0  0  0  0  0  0  0  0  0  0
   11.0434   -0.1676   23.8152 C   0  0  0  0  0  0  0  0  0  0  0  0
    9.2089   -2.0517   22.3698 C   0  0  0  0  0  0  0  0  0  0  0  0
   11.3439   -0.6628   22.3893 C   0  0  0  0  0  0  0  0  0  0  0  0
   10.0478   -1.0017   21.6245 C   0  0  0  0  0  0  0  0  0  0  0  0
   12.3100   -1.8557   22.4178 C   0  0  0  0  0  0  0  0  0  0  0  0
    7.7293    0.2026   18.0370 N   0  0  0  0  0  0  0  0  0  0  0  0
   14.5987   -2.4985   22.6969 N   0  0  0  0  0  0  0  0  0  0  0  0
    9.2351    0.1977   21.3845 N   0  0  0  0  0  0  0  0  0  0  0  0
   14.0939   -0.2574   22.7973 O   0  0  0  0  0  0  0  0  0  0  0  0
  1  2  2  0
  1  4  1  0
  2  5  1  0
  3  6  2  0
  3  7  1  0
  4  9  2  0
  5 10  2  0
  6 11  1  0
  7 18  2  0
  8 11  2  0
  8 18  1  0
  9 10  1  0
  9 13  1  0
 10 14  1  0
 11 20  1  0
 12 17  1  0
 12 19  1  0
 12 21  2  0
 13 15  1  0
 14 16  1  0
 15 16  1  0
 15 17  1  0
 16 20  1  0
M  END
