MIH-UNI-e573136b-2
     RDKit          3D

 27 30  0  0  1  0  0  0  0  0999 V2000
   10.7254    2.4661   25.3622 C   0  0  0  0  0  0  0  0  0  0  0  0
   10.0767    1.2664   25.6391 C   0  0  0  0  0  0  0  0  0  0  0  0
   13.6825    0.1533   22.2673 C   0  0  0  0  0  0  0  0  0  0  0  0
    6.1396    0.7820   21.8358 C   0  0  0  0  0  0  0  0  0  0  0  0
   11.7850    2.4942   24.4551 C   0  0  0  0  0  0  0  0  0  0  0  0
   10.4851    0.0901   25.0098 C   0  0  0  0  0  0  0  0  0  0  0  0
   13.2740    1.3296   22.8965 C   0  0  0  0  0  0  0  0  0  0  0  0
    6.5596   -0.5290   22.0315 C   0  0  0  0  0  0  0  0  0  0  0  0
   13.0338   -1.0465   22.5441 C   0  0  0  0  0  0  0  0  0  0  0  0
    6.8484    1.5629   20.9372 C   0  0  0  0  0  0  0  0  0  0  0  0
    8.3008   -0.1510   20.4561 C   0  0  0  0  0  0  0  0  0  0  0  0
   12.2094    1.3198   23.8124 C   0  0  0  0  0  0  0  0  0  0  0  0
   11.5498    0.0998   24.0940 C   0  0  0  0  0  0  0  0  0  0  0  0
    7.6601   -1.0122   21.3324 C   0  0  0  0  0  0  0  0  0  0  0  0
   11.9742   -1.0746   23.4513 C   0  0  0  0  0  0  0  0  0  0  0  0
    6.0546   -3.7136   21.8902 C   0  0  0  0  0  0  0  0  0  0  0  0
    7.6266   -3.3528   23.8335 C   0  0  0  0  0  0  0  0  0  0  0  0
    9.1166   -3.4917   24.0874 C   0  0  0  0  0  0  0  0  0  0  0  0
    9.6369   -2.5202   21.8731 C   0  0  0  0  0  0  0  0  0  0  0  0
    8.1455   -2.4457   21.5242 C   0  0  0  0  0  0  0  0  0  0  0  0
   11.3195   -2.4008   23.7036 C   0  0  0  0  0  0  0  0  0  0  0  0
    5.1029   -4.3619   22.8652 C   0  0  0  0  0  0  0  0  0  0  0  0
    7.9221    1.1286   20.2398 N   0  0  0  0  0  0  0  0  0  0  0  0
    7.2687   -3.2394   22.4126 N   0  0  0  0  0  0  0  0  0  0  0  0
    9.8561   -2.4114   23.3552 N   0  0  0  0  0  0  0  0  0  0  0  0
    5.7330   -3.6293   20.7017 O   0  0  0  0  0  0  0  0  0  0  0  0
    5.4753   -6.0821   22.8644 Cl  0  0  0  0  0  0  0  0  0  0  0  0
  1  2  2  0
  1  5  1  0
  2  6  1  0
  3  7  2  0
  3  9  1  0
  4  8  2  0
  4 10  1  0
  5 12  2  0
  6 13  2  0
  7 12  1  0
  8 14  1  0
  9 15  2  0
 10 23  2  0
 11 14  2  0
 11 23  1  0
 12 13  1  0
 13 15  1  0
 14 20  1  0
 15 21  1  0
 16 22  1  0
 16 24  1  0
 16 26  2  0
 17 18  1  0
 17 24  1  0
 18 25  1  0
 19 20  1  0
 19 25  1  0
 20 24  1  0
 21 25  1  0
 22 27  1  0
M  CHG  1  25   1
M  END
