MIH-UNI-3396182e-7
     RDKit          3D

 27 29  0  0  0  0  0  0  0  0999 V2000
    6.1240    1.2232   19.3465 C   0  0  0  0  0  0  0  0  0  0  0  0
    6.3740    0.2981   20.3540 C   0  0  0  0  0  0  0  0  0  0  0  0
    9.7176   -1.6926   24.1607 C   0  0  0  0  0  0  0  0  0  0  0  0
    6.6815    0.9905   18.0996 C   0  0  0  0  0  0  0  0  0  0  0  0
    7.6734   -0.9571   18.8073 C   0  0  0  0  0  0  0  0  0  0  0  0
    7.1626   -0.8157   20.0875 C   0  0  0  0  0  0  0  0  0  0  0  0
   10.4746   -0.5754   23.8260 C   0  0  0  0  0  0  0  0  0  0  0  0
    8.7167   -2.1304   23.3006 C   0  0  0  0  0  0  0  0  0  0  0  0
    8.5141   -1.4217   22.1273 C   0  0  0  0  0  0  0  0  0  0  0  0
   10.1934    0.0635   22.6291 C   0  0  0  0  0  0  0  0  0  0  0  0
    7.1649   -3.1973   24.8740 C   0  0  0  0  0  0  0  0  0  0  0  0
    8.3922   -4.5856   23.1986 C   0  0  0  0  0  0  0  0  0  0  0  0
    5.9724   -4.1412   24.8087 C   0  0  0  0  0  0  0  0  0  0  0  0
    7.2178   -5.5523   23.1177 C   0  0  0  0  0  0  0  0  0  0  0  0
    7.4527   -1.8416   21.1630 C   0  0  0  0  0  0  0  0  0  0  0  0
   11.5469   -0.1088   24.7510 C   0  0  0  0  0  0  0  0  0  0  0  0
   12.8101   -0.9736   24.7129 C   0  0  0  0  0  0  0  0  0  0  0  0
    7.4525   -0.0796   17.8029 N   0  0  0  0  0  0  0  0  0  0  0  0
    9.2292   -0.3322   21.7681 N   0  0  0  0  0  0  0  0  0  0  0  0
    7.9477   -3.2532   23.6291 N   0  0  0  0  0  0  0  0  0  0  0  0
    6.4846   -5.4557   24.3897 N   0  0  0  0  0  0  0  0  0  0  0  0
   10.9611    1.2039   22.2846 N   0  0  0  0  0  0  0  0  0  0  0  0
   14.9044   -2.0095   23.4513 N   0  0  0  0  0  0  0  0  0  0  0  0
    6.2497   -6.6185   25.1867 O   0  0  0  0  0  0  0  0  0  0  0  0
   12.6909   -1.6487   22.1915 O   0  0  0  0  0  0  0  0  0  0  0  0
   14.0817    0.3538   22.8558 O   0  0  0  0  0  0  0  0  0  0  0  0
   13.5825   -0.9833   23.1255 S   0  0  0  0  0  0  0  0  0  0  0  0
  1  2  2  0
  1  4  1  0
  2  6  1  0
  3  7  2  0
  3  8  1  0
  4 18  2  0
  5  6  2  0
  5 18  1  0
  6 15  1  0
  7 10  1  0
  7 16  1  0
  8  9  2  0
  8 20  1  0
  9 15  1  0
  9 19  1  0
 10 19  2  0
 10 22  1  0
 11 13  1  0
 11 20  1  0
 12 14  1  0
 12 20  1  0
 13 21  1  0
 14 21  1  0
 16 17  1  0
 17 27  1  0
 21 24  1  0
 23 27  1  0
 25 27  2  0
 26 27  2  0
M  CHG  1  24  -1
M  END
