MIH-UNI-e573136b-4
     RDKit          3D

 25 27  0  0  0  0  0  0  0  0999 V2000
   13.7156   -0.2761   22.3980 C   0  0  0  0  0  0  0  0  0  0  0  0
   13.5535    0.9360   23.0696 C   0  0  0  0  0  0  0  0  0  0  0  0
   12.2017    2.4154   24.4791 C   0  0  0  0  0  0  0  0  0  0  0  0
   12.7110   -1.2381   22.4442 C   0  0  0  0  0  0  0  0  0  0  0  0
   11.0311    2.6618   25.1969 C   0  0  0  0  0  0  0  0  0  0  0  0
   10.1885    0.4877   24.5715 C   0  0  0  0  0  0  0  0  0  0  0  0
   12.3818    1.2010   23.7971 C   0  0  0  0  0  0  0  0  0  0  0  0
   11.3602    0.2227   23.8441 C   0  0  0  0  0  0  0  0  0  0  0  0
   11.5404   -0.9917   23.1622 C   0  0  0  0  0  0  0  0  0  0  0  0
   10.0264    1.6998   25.2431 C   0  0  0  0  0  0  0  0  0  0  0  0
    6.0982   -2.0340   19.8046 C   0  0  0  0  0  0  0  0  0  0  0  0
    6.8107   -2.1635   22.1704 C   0  0  0  0  0  0  0  0  0  0  0  0
    7.9936   -0.5879   20.6901 C   0  0  0  0  0  0  0  0  0  0  0  0
    8.1356   -2.7121   22.6794 C   0  0  0  0  0  0  0  0  0  0  0  0
    9.3373   -1.1118   21.1786 C   0  0  0  0  0  0  0  0  0  0  0  0
   10.4987   -2.0715   23.1700 C   0  0  0  0  0  0  0  0  0  0  0  0
    6.3140   -1.4198   18.4445 C   0  0  0  0  0  0  0  0  0  0  0  0
    6.9527   -1.6128   20.8225 N   0  0  0  0  0  0  0  0  0  0  0  0
    8.9907    1.4030   27.6811 N   0  0  0  0  0  0  0  0  0  0  0  0
    9.1846   -1.6261   22.5926 N   0  0  0  0  0  0  0  0  0  0  0  0
    5.1985   -2.8646   19.9552 O   0  0  0  0  0  0  0  0  0  0  0  0
    8.3817    3.4526   26.2411 O   0  0  0  0  0  0  0  0  0  0  0  0
    7.4974    1.1841   25.5933 O   0  0  0  0  0  0  0  0  0  0  0  0
    8.5625    2.0111   26.1430 S   0  0  0  0  0  0  0  0  0  0  0  0
    5.2839    0.0051   18.3660 Cl  0  0  0  0  0  0  0  0  0  0  0  0
  1  2  2  0
  1  4  1  0
  2  7  1  0
  3  5  1  0
  3  7  2  0
  4  9  2  0
  5 10  2  0
  6  8  2  0
  6 10  1  0
  7  8  1  0
  8  9  1  0
  9 16  1  0
 10 24  1  0
 11 17  1  0
 11 18  1  0
 11 21  2  0
 12 14  1  0
 12 18  1  0
 13 15  1  0
 13 18  1  0
 14 20  1  0
 15 20  1  0
 16 20  1  0
 17 25  1  0
 19 24  1  0
 22 24  2  0
 23 24  2  0
M  CHG  1  20   1
M  END
