MIH-UNI-3396182e-3
     RDKit          3D

 27 29  0  0  0  0  0  0  0  0999 V2000
   10.6094    4.1513   24.3757 C   0  0  0  0  0  0  0  0  0  0  0  0
   11.9177    4.0705   23.8991 C   0  0  0  0  0  0  0  0  0  0  0  0
    9.7903    3.0223   24.3598 C   0  0  0  0  0  0  0  0  0  0  0  0
   12.4071    2.8607   23.4065 C   0  0  0  0  0  0  0  0  0  0  0  0
    5.7429    1.3306   19.0559 C   0  0  0  0  0  0  0  0  0  0  0  0
    9.3714   -0.1971   24.9597 C   0  0  0  0  0  0  0  0  0  0  0  0
    8.6057    0.3904   22.7567 C   0  0  0  0  0  0  0  0  0  0  0  0
    6.5872    0.9357   18.0307 C   0  0  0  0  0  0  0  0  0  0  0  0
    7.6125   -0.6335   19.3589 C   0  0  0  0  0  0  0  0  0  0  0  0
   10.2796    1.8125   23.8671 C   0  0  0  0  0  0  0  0  0  0  0  0
    9.4082    0.6544   23.8611 C   0  0  0  0  0  0  0  0  0  0  0  0
   11.5880    1.7317   23.3905 C   0  0  0  0  0  0  0  0  0  0  0  0
    5.8661    0.6898   20.2837 C   0  0  0  0  0  0  0  0  0  0  0  0
    6.8164   -0.3121   20.4465 C   0  0  0  0  0  0  0  0  0  0  0  0
    8.5218   -1.2903   24.9047 C   0  0  0  0  0  0  0  0  0  0  0  0
    7.7906   -0.7291   22.8003 C   0  0  0  0  0  0  0  0  0  0  0  0
    4.9681    1.0945   21.4063 C   0  0  0  0  0  0  0  0  0  0  0  0
   12.1472    0.4526   22.8550 C   0  0  0  0  0  0  0  0  0  0  0  0
   13.1100   -0.2430   23.8187 C   0  0  0  0  0  0  0  0  0  0  0  0
    7.5222   -0.0332   18.1510 N   0  0  0  0  0  0  0  0  0  0  0  0
    7.7276   -1.5793   23.8496 N   0  0  0  0  0  0  0  0  0  0  0  0
    8.4950   -2.1489   26.0317 N   0  0  0  0  0  0  0  0  0  0  0  0
   14.7833   -2.2049   24.4529 N   0  0  0  0  0  0  0  0  0  0  0  0
    6.9787   -0.9855   21.6676 N   0  0  0  0  0  0  0  0  0  0  0  0
   12.7252   -2.6903   22.9882 O   0  0  0  0  0  0  0  0  0  0  0  0
   14.6476   -1.3617   22.0265 O   0  0  0  0  0  0  0  0  0  0  0  0
   13.7979   -1.7239   23.1475 S   0  0  0  0  0  0  0  0  0  0  0  0
  1  2  2  0
  1  3  1  0
  2  4  1  0
  3 10  2  0
  4 12  2  0
  5  8  2  0
  5 13  1  0
  6 11  2  0
  6 15  1  0
  7 11  1  0
  7 16  2  0
  8 20  1  0
  9 14  1  0
  9 20  2  0
 10 11  1  0
 10 12  1  0
 12 18  1  0
 13 14  2  0
 13 17  1  0
 14 24  1  0
 15 21  2  0
 15 22  1  0
 16 21  1  0
 16 24  1  0
 18 19  1  0
 19 27  1  0
 23 27  1  0
 25 27  2  0
 26 27  2  0
M  END
