MIH-UNI-6b9ca91a-2
     RDKit          3D

 23 25  0  0  1  0  0  0  0  0999 V2000
    5.6487    1.0519   19.2556 C   0  0  0  0  0  0  0  0  0  0  0  0
    8.6477   -2.4565   23.3634 C   0  0  0  0  0  0  0  0  0  0  0  0
    6.3172    0.7801   18.0728 C   0  0  0  0  0  0  0  0  0  0  0  0
    8.2289    0.1669   19.1896 C   0  0  0  0  0  0  0  0  0  0  0  0
    7.9250   -3.1839   24.2833 C   0  0  0  0  0  0  0  0  0  0  0  0
    9.0104   -1.2255   25.3012 C   0  0  0  0  0  0  0  0  0  0  0  0
    6.3349    0.8608   20.4497 C   0  0  0  0  0  0  0  0  0  0  0  0
    9.2766   -1.3221   23.9530 C   0  0  0  0  0  0  0  0  0  0  0  0
    7.6501    0.4101   20.4248 C   0  0  0  0  0  0  0  0  0  0  0  0
    9.7039   -0.2457   21.7260 C   0  0  0  0  0  0  0  0  0  0  0  0
   13.3491   -2.4037   23.0477 C   0  0  0  0  0  0  0  0  0  0  0  0
   13.7258   -0.3814   24.4959 C   0  0  0  0  0  0  0  0  0  0  0  0
   11.8507   -2.1466   23.0829 C   0  0  0  0  0  0  0  0  0  0  0  0
   12.2265   -0.1288   24.5277 C   0  0  0  0  0  0  0  0  0  0  0  0
   14.0455   -1.8601   24.2917 C   0  0  0  0  0  0  0  0  0  0  0  0
    5.6387    1.1467   21.7397 C   0  0  0  0  0  0  0  0  0  0  0  0
   10.1345   -0.3399   23.1865 C   0  0  0  0  0  0  0  0  0  0  0  0
    7.5941    0.3410   18.0088 N   0  0  0  0  0  0  0  0  0  0  0  0
    8.3902    0.2000   21.6125 N   0  0  0  0  0  0  0  0  0  0  0  0
   11.6004   -0.6674   23.2625 N   0  0  0  0  0  0  0  0  0  0  0  0
   10.4668   -0.5502   20.8132 O   0  0  0  0  0  0  0  0  0  0  0  0
   15.4500   -2.0322   24.1412 O   0  0  0  0  0  0  0  0  0  0  0  0
    8.0064   -2.4991   25.8508 S   0  0  0  0  0  0  0  0  0  0  0  0
  1  3  2  0
  1  7  1  0
  2  5  2  0
  2  8  1  0
  3 18  1  0
  4  9  1  0
  4 18  2  0
  5 23  1  0
  6  8  2  0
  6 23  1  0
  7  9  2  0
  7 16  1  0
  8 17  1  0
  9 19  1  0
 10 17  1  0
 10 19  1  0
 10 21  2  0
 11 13  1  0
 11 15  1  0
 12 14  1  0
 12 15  1  0
 13 20  1  0
 14 20  1  0
 15 22  1  0
 17 20  1  0
M  CHG  1  20   1
M  END
