MIH-UNI-3396182e-9
     RDKit          3D

 28 30  0  0  0  0  0  0  0  0999 V2000
    5.8226    1.2469   19.1408 C   0  0  0  0  0  0  0  0  0  0  0  0
    8.5346   -4.8724   23.4594 C   0  0  0  0  0  0  0  0  0  0  0  0
    6.5909    1.1167   20.2923 C   0  0  0  0  0  0  0  0  0  0  0  0
    7.5692   -5.7416   22.9594 C   0  0  0  0  0  0  0  0  0  0  0  0
    9.5772   -2.6556   23.4725 C   0  0  0  0  0  0  0  0  0  0  0  0
    6.7630   -3.9825   21.5174 C   0  0  0  0  0  0  0  0  0  0  0  0
    6.3581    0.7873   17.9484 C   0  0  0  0  0  0  0  0  0  0  0  0
    8.2980    0.1109   18.9768 C   0  0  0  0  0  0  0  0  0  0  0  0
    8.6153   -3.5515   22.9867 C   0  0  0  0  0  0  0  0  0  0  0  0
    6.6825   -5.2957   21.9872 C   0  0  0  0  0  0  0  0  0  0  0  0
    7.8535    0.5390   20.2173 C   0  0  0  0  0  0  0  0  0  0  0  0
    9.6309   -1.3576   22.9854 C   0  0  0  0  0  0  0  0  0  0  0  0
    7.7182   -3.0920   21.9998 C   0  0  0  0  0  0  0  0  0  0  0  0
    8.7114   -0.9996   22.0205 C   0  0  0  0  0  0  0  0  0  0  0  0
   14.0787   -0.4836   23.8424 C   0  0  0  0  0  0  0  0  0  0  0  0
    8.7145    0.3824   21.4534 C   0  0  0  0  0  0  0  0  0  0  0  0
   10.6530   -0.4061   23.5023 C   0  0  0  0  0  0  0  0  0  0  0  0
    5.6443   -6.2187   21.4440 C   0  0  0  0  0  0  0  0  0  0  0  0
    7.5804    0.2206   17.8363 N   0  0  0  0  0  0  0  0  0  0  0  0
    7.7680   -1.8329   21.5252 N   0  0  0  0  0  0  0  0  0  0  0  0
    3.3473   -7.4847   21.8591 N   0  0  0  0  0  0  0  0  0  0  0  0
   11.7314   -0.1962   22.5686 N   0  0  0  0  0  0  0  0  0  0  0  0
   13.8068   -1.1103   21.3158 O   0  0  0  0  0  0  0  0  0  0  0  0
   12.6978   -2.5540   23.0600 O   0  0  0  0  0  0  0  0  0  0  0  0
    4.9875   -7.1203   23.8069 O   0  0  0  0  0  0  0  0  0  0  0  0
    3.7277   -5.1454   22.8591 O   0  0  0  0  0  0  0  0  0  0  0  0
   13.0965   -1.2477   22.5722 S   0  0  0  0  0  0  0  0  0  0  0  0
    4.3995   -6.4209   22.6770 S   0  0  0  0  0  0  0  0  0  0  0  0
  1  3  2  0
  1  7  1  0
  2  4  2  0
  2  9  1  0
  3 11  1  0
  4 10  1  0
  5  9  2  0
  5 12  1  0
  6 10  2  0
  6 13  1  0
  7 19  2  0
  8 11  2  0
  8 19  1  0
  9 13  1  0
 10 18  1  0
 11 16  1  0
 12 14  2  0
 12 17  1  0
 13 20  2  0
 14 16  1  0
 14 20  1  0
 15 27  1  0
 17 22  1  0
 18 28  1  0
 21 28  1  0
 22 27  1  0
 23 27  2  0
 24 27  2  0
 25 28  2  0
 26 28  2  0
M  END
