MIK-CHE-f7b1aeed-1
     RDKit          3D

 20 21  0  0  1  0  0  0  0  0999 V2000
   10.9736   -1.4290   24.6102 C   0  0  0  0  0  0  0  0  0  0  0  0
   11.5061   -3.7195   25.1641 C   0  0  0  0  0  0  0  0  0  0  0  0
   12.1836   -1.0133   25.1658 C   0  0  0  0  0  0  0  0  0  0  0  0
   12.7162   -3.3039   25.7197 C   0  0  0  0  0  0  0  0  0  0  0  0
   10.6348   -2.7821   24.6094 C   0  0  0  0  0  0  0  0  0  0  0  0
   13.0549   -1.9507   25.7206 C   0  0  0  0  0  0  0  0  0  0  0  0
    7.1992   -4.0768   21.8390 C   0  0  0  0  0  0  0  0  0  0  0  0
    9.3141   -2.8820   22.5224 C   0  0  0  0  0  0  0  0  0  0  0  0
    8.0423   -5.2476   23.8981 C   0  0  0  0  0  0  0  0  0  0  0  0
    9.3387   -3.2275   24.0151 C   0  0  0  0  0  0  0  0  0  0  0  0
    7.8443   -5.3573   22.3819 C   0  0  0  0  0  0  0  0  0  0  0  0
    6.9629   -6.5674   22.0576 C   0  0  0  0  0  0  0  0  0  0  0  0
    7.3924   -1.6279   21.5710 C   0  0  0  0  0  0  0  0  0  0  0  0
   15.4661   -0.6399   25.0931 C   0  0  0  0  0  0  0  0  0  0  0  0
   15.3540   -2.7205   26.7718 N   0  0  0  0  0  0  0  0  0  0  0  0
    7.9515   -2.9095   21.9817 N   0  0  0  0  0  0  0  0  0  0  0  0
    6.0803   -4.1021   21.3202 O   0  0  0  0  0  0  0  0  0  0  0  0
   14.2784   -0.3526   27.3552 O   0  0  0  0  0  0  0  0  0  0  0  0
    9.2901   -4.6399   24.2234 O   0  0  0  0  0  0  0  0  0  0  0  0
   14.5704   -1.4309   26.4141 S   0  0  0  0  0  0  0  0  0  0  0  0
  1  3  2  0
  1  5  1  0
  2  4  1  0
  2  5  2  0
  3  6  1  0
  4  6  2  0
  5 10  1  0
  6 20  1  0
  7 11  1  0
  7 16  1  0
  7 17  2  0
  8 10  1  0
  8 16  1  0
  9 11  1  0
  9 19  1  0
 10 19  1  0
 11 12  1  0
 13 16  1  0
 14 20  1  0
 15 20  2  0
 18 20  2  0
M  END
