MUS-SCH-c2f96c06-7
     RDKit          3D

 22 24  0  0  0  0  0  0  0  0999 V2000
    6.3825    1.3502   19.7794 C   0  0  0  0  0  0  0  0  0  0  0  0
    6.6999    0.9639   18.4872 C   0  0  0  0  0  0  0  0  0  0  0  0
    8.0192   -0.7632   19.2320 C   0  0  0  0  0  0  0  0  0  0  0  0
    8.4989   -2.5693   23.3677 C   0  0  0  0  0  0  0  0  0  0  0  0
    7.7638   -0.4577   20.5592 C   0  0  0  0  0  0  0  0  0  0  0  0
    6.9287    0.6206   20.8295 C   0  0  0  0  0  0  0  0  0  0  0  0
    8.3570   -1.2493   21.6087 C   0  0  0  0  0  0  0  0  0  0  0  0
    9.6664   -1.5073   21.9394 C   0  0  0  0  0  0  0  0  0  0  0  0
   12.5956    0.3310   22.8047 C   0  0  0  0  0  0  0  0  0  0  0  0
   12.0688   -0.7992   22.2253 C   0  0  0  0  0  0  0  0  0  0  0  0
   13.8051   -1.2788   23.4948 C   0  0  0  0  0  0  0  0  0  0  0  0
   14.8245   -2.1176   24.1521 C   0  0  0  0  0  0  0  0  0  0  0  0
    6.5979    1.0224   22.2305 C   0  0  0  0  0  0  0  0  0  0  0  0
   10.8931   -1.0248   21.2834 C   0  0  0  0  0  0  0  0  0  0  0  0
   12.1439    1.7247   22.6666 C   0  0  0  0  0  0  0  0  0  0  0  0
    7.5070   -0.0778   18.1854 N   0  0  0  0  0  0  0  0  0  0  0  0
    9.7479   -2.3298   23.0351 N   0  0  0  0  0  0  0  0  0  0  0  0
   13.6764    0.0257   23.5935 N   0  0  0  0  0  0  0  0  0  0  0  0
    7.6208   -1.9367   22.5322 N   0  0  0  0  0  0  0  0  0  0  0  0
   12.8543   -1.8223   22.6763 N   0  0  0  0  0  0  0  0  0  0  0  0
    5.6632    0.1005   22.7749 O   0  0  0  0  0  0  0  0  0  0  0  0
   10.6564    2.0204   23.6082 Cl  0  0  0  0  0  0  0  0  0  0  0  0
  1  2  2  0
  1  6  1  0
  2 16  1  0
  3  5  1  0
  3 16  2  0
  4 17  2  0
  4 19  1  0
  5  6  2  0
  5  7  1  0
  6 13  1  0
  7  8  2  0
  7 19  1  0
  8 14  1  0
  8 17  1  0
  9 10  2  0
  9 15  1  0
  9 18  1  0
 10 14  1  0
 10 20  1  0
 11 12  1  0
 11 18  2  0
 11 20  1  0
 13 21  1  0
 15 22  1  0
M  END
