MUS-SCH-c2f96c06-1
     RDKit          3D

 25 27  0  0  0  0  0  0  0  0999 V2000
    5.4080    0.9486   19.4065 C   0  0  0  0  0  0  0  0  0  0  0  0
   10.3673   -0.6262   23.1510 C   0  0  0  0  0  0  0  0  0  0  0  0
    8.2167   -1.0884   22.1783 C   0  0  0  0  0  0  0  0  0  0  0  0
    5.8588    0.7443   18.1124 C   0  0  0  0  0  0  0  0  0  0  0  0
   10.5569    0.3147   22.1518 C   0  0  0  0  0  0  0  0  0  0  0  0
    7.9105    0.0165   18.8466 C   0  0  0  0  0  0  0  0  0  0  0  0
    7.5558    0.1869   20.1751 C   0  0  0  0  0  0  0  0  0  0  0  0
    9.1722   -1.3369   23.1575 C   0  0  0  0  0  0  0  0  0  0  0  0
    6.2788    0.6622   20.4519 C   0  0  0  0  0  0  0  0  0  0  0  0
    7.3043   -4.0811   25.1735 C   0  0  0  0  0  0  0  0  0  0  0  0
    8.5026   -0.1267   21.2227 C   0  0  0  0  0  0  0  0  0  0  0  0
    7.8411   -5.3776   25.2856 C   0  0  0  0  0  0  0  0  0  0  0  0
    6.5014   -3.9451   26.2796 C   0  0  0  0  0  0  0  0  0  0  0  0
    8.8080   -6.0043   24.2803 C   0  0  0  0  0  0  0  0  0  0  0  0
    8.9171   -2.3611   24.2104 C   0  0  0  0  0  0  0  0  0  0  0  0
    7.5507   -3.0643   24.0857 C   0  0  0  0  0  0  0  0  0  0  0  0
    5.8110    0.8774   21.8547 C   0  0  0  0  0  0  0  0  0  0  0  0
    7.0920    0.2840   17.8044 N   0  0  0  0  0  0  0  0  0  0  0  0
    9.6522    0.5837   21.1840 N   0  0  0  0  0  0  0  0  0  0  0  0
    7.4154   -6.0194   26.3769 N   0  0  0  0  0  0  0  0  0  0  0  0
    6.6026   -5.1224   26.9607 N   0  0  0  0  0  0  0  0  0  0  0  0
    9.1959   -7.1783   24.5296 O   0  0  0  0  0  0  0  0  0  0  0  0
    9.1316   -5.2912   23.2915 O   0  0  0  0  0  0  0  0  0  0  0  0
    4.8681    1.9407   21.8772 O   0  0  0  0  0  0  0  0  0  0  0  0
    5.5169   -2.7120   26.8825 Cl  0  0  0  0  0  0  0  0  0  0  0  0
  1  4  2  0
  1  9  1  0
  2  5  2  0
  2  8  1  0
  3  8  2  0
  3 11  1  0
  4 18  1  0
  5 19  1  0
  6  7  1  0
  6 18  2  0
  7  9  2  0
  7 11  1  0
  8 15  1  0
  9 17  1  0
 10 12  1  0
 10 13  2  0
 10 16  1  0
 11 19  2  0
 12 14  1  0
 12 20  2  0
 13 21  1  0
 13 25  1  0
 14 22  1  0
 14 23  2  0
 15 16  1  0
 17 24  1  0
 20 21  1  0
M  CHG  1  22  -1
M  END
