MUS-SCH-c2f96c06-6
     RDKit          3D

 18 19  0  0  1  0  0  0  0  0999 V2000
    6.0177    1.4819   19.4162 C   0  0  0  0  0  0  0  0  0  0  0  0
    6.5483    1.0654   18.2060 C   0  0  0  0  0  0  0  0  0  0  0  0
    8.2102   -0.1331   19.2450 C   0  0  0  0  0  0  0  0  0  0  0  0
    8.7688   -1.2823   23.5977 C   0  0  0  0  0  0  0  0  0  0  0  0
    7.7577    0.2274   20.5040 C   0  0  0  0  0  0  0  0  0  0  0  0
    6.6398    1.0505   20.5825 C   0  0  0  0  0  0  0  0  0  0  0  0
    8.4406   -0.2494   21.6788 C   0  0  0  0  0  0  0  0  0  0  0  0
    9.7337   -0.0931   22.1193 C   0  0  0  0  0  0  0  0  0  0  0  0
    6.0820    1.4896   21.8976 C   0  0  0  0  0  0  0  0  0  0  0  0
   10.8689    0.6611   21.4664 C   0  0  0  0  0  0  0  0  0  0  0  0
   12.6592   -0.8734   22.4811 C   0  0  0  0  0  0  0  0  0  0  0  0
   12.0859   -0.2398   21.2118 C   0  0  0  0  0  0  0  0  0  0  0  0
    7.6324    0.2661   18.0899 N   0  0  0  0  0  0  0  0  0  0  0  0
    9.9317   -0.7387   23.3142 N   0  0  0  0  0  0  0  0  0  0  0  0
    7.8349   -1.0137   22.6359 N   0  0  0  0  0  0  0  0  0  0  0  0
    5.4764    2.7667   21.7477 O   0  0  0  0  0  0  0  0  0  0  0  0
   11.7431   -1.2799   20.2961 O   0  0  0  0  0  0  0  0  0  0  0  0
   14.3308   -1.4544   22.2669 Cl  0  0  0  0  0  0  0  0  0  0  0  0
  1  2  2  0
  1  6  1  0
  2 13  1  0
  3  5  1  0
  3 13  2  0
  4 14  2  0
  4 15  1  0
  5  6  2  0
  5  7  1  0
  6  9  1  0
  7  8  2  0
  7 15  1  0
  8 10  1  0
  8 14  1  0
  9 16  1  0
 10 12  1  0
 11 12  1  0
 11 18  1  0
 12 17  1  0
M  END
