MUS-SCH-c2f96c06-8
     RDKit          3D

 21 23  0  0  0  0  0  0  0  0999 V2000
    5.9057    1.1064   19.1160 C   0  0  0  0  0  0  0  0  0  0  0  0
    6.5520    0.6373   17.9838 C   0  0  0  0  0  0  0  0  0  0  0  0
    8.1287   -0.4713   19.2340 C   0  0  0  0  0  0  0  0  0  0  0  0
    8.3010   -1.3784   23.6773 C   0  0  0  0  0  0  0  0  0  0  0  0
   13.2390   -1.8121   20.7246 C   0  0  0  0  0  0  0  0  0  0  0  0
    7.5565   -0.0540   20.4249 C   0  0  0  0  0  0  0  0  0  0  0  0
    6.4239    0.7496   20.3560 C   0  0  0  0  0  0  0  0  0  0  0  0
    8.1360   -0.4550   21.6832 C   0  0  0  0  0  0  0  0  0  0  0  0
    9.3803   -0.2499   22.2309 C   0  0  0  0  0  0  0  0  0  0  0  0
   12.9396   -0.4286   22.3142 C   0  0  0  0  0  0  0  0  0  0  0  0
   11.8034   -0.3543   21.5434 C   0  0  0  0  0  0  0  0  0  0  0  0
    5.7405    1.2463   21.5888 C   0  0  0  0  0  0  0  0  0  0  0  0
   10.5292    0.4723   21.6595 C   0  0  0  0  0  0  0  0  0  0  0  0
   13.2629    0.3159   23.5416 C   0  0  0  0  0  0  0  0  0  0  0  0
    7.6541   -0.1452   18.0109 N   0  0  0  0  0  0  0  0  0  0  0  0
    9.4768   -0.8275   23.4721 N   0  0  0  0  0  0  0  0  0  0  0  0
   13.8295   -1.3376   21.7990 N   0  0  0  0  0  0  0  0  0  0  0  0
    7.4560   -1.1797   22.6211 N   0  0  0  0  0  0  0  0  0  0  0  0
   12.0101   -1.2459   20.5288 N   0  0  0  0  0  0  0  0  0  0  0  0
    6.6522    2.0292   22.3478 O   0  0  0  0  0  0  0  0  0  0  0  0
   13.5391   -0.7890   24.9163 Cl  0  0  0  0  0  0  0  0  0  0  0  0
  1  2  2  0
  1  7  1  0
  2 15  1  0
  3  6  1  0
  3 15  2  0
  4 16  2  0
  4 18  1  0
  5 17  2  0
  5 19  1  0
  6  7  2  0
  6  8  1  0
  7 12  1  0
  8  9  2  0
  8 18  1  0
  9 13  1  0
  9 16  1  0
 10 11  2  0
 10 14  1  0
 10 17  1  0
 11 13  1  0
 11 19  1  0
 12 20  1  0
 14 21  1  0
M  END
