MUS-SCH-c2f96c06-3
     RDKit          3D

 22 24  0  0  0  0  0  0  0  0999 V2000
    4.9842    1.2035   19.2435 C   0  0  0  0  0  0  0  0  0  0  0  0
    9.8899   -0.1344   23.1474 C   0  0  0  0  0  0  0  0  0  0  0  0
    7.7422   -0.6449   22.1928 C   0  0  0  0  0  0  0  0  0  0  0  0
    5.4437    0.8933   17.9736 C   0  0  0  0  0  0  0  0  0  0  0  0
   10.1004    0.7232   22.0797 C   0  0  0  0  0  0  0  0  0  0  0  0
    7.4793    0.2001   18.7823 C   0  0  0  0  0  0  0  0  0  0  0  0
    7.2974   -4.4320   25.7681 C   0  0  0  0  0  0  0  0  0  0  0  0
    7.1153    0.4780   20.0900 C   0  0  0  0  0  0  0  0  0  0  0  0
    8.6858   -0.8278   23.1976 C   0  0  0  0  0  0  0  0  0  0  0  0
    5.8421    0.9889   20.3164 C   0  0  0  0  0  0  0  0  0  0  0  0
    8.5582   -4.1468   25.2106 C   0  0  0  0  0  0  0  0  0  0  0  0
    8.0487    0.2357   21.1680 C   0  0  0  0  0  0  0  0  0  0  0  0
    9.4369   -4.9091   25.9408 C   0  0  0  0  0  0  0  0  0  0  0  0
    8.4084   -1.7635   24.3246 C   0  0  0  0  0  0  0  0  0  0  0  0
    8.8680   -3.2124   24.0666 C   0  0  0  0  0  0  0  0  0  0  0  0
    5.3648    1.3187   21.6936 C   0  0  0  0  0  0  0  0  0  0  0  0
    6.6735    0.3954   17.7145 N   0  0  0  0  0  0  0  0  0  0  0  0
    9.2077    0.9269   21.0852 N   0  0  0  0  0  0  0  0  0  0  0  0
    7.3648   -5.3073   26.7747 N   0  0  0  0  0  0  0  0  0  0  0  0
    8.6785   -5.5788   26.8555 N   0  0  0  0  0  0  0  0  0  0  0  0
    5.0558    0.1153   22.3840 O   0  0  0  0  0  0  0  0  0  0  0  0
   11.1102   -5.1383   25.9127 Cl  0  0  0  0  0  0  0  0  0  0  0  0
  1  4  2  0
  1 10  1  0
  2  5  2  0
  2  9  1  0
  3  9  2  0
  3 12  1  0
  4 17  1  0
  5 18  1  0
  6  8  1  0
  6 17  2  0
  7 11  1  0
  7 19  2  0
  8 10  2  0
  8 12  1  0
  9 14  1  0
 10 16  1  0
 11 13  2  0
 11 15  1  0
 12 18  2  0
 13 20  1  0
 13 22  1  0
 14 15  1  0
 16 21  1  0
 19 20  1  0
M  END
