MUS-SCH-c2f96c06-11
     RDKit          3D

 21 23  0  0  0  0  0  0  0  0999 V2000
    5.9751    1.4715   18.7496 C   0  0  0  0  0  0  0  0  0  0  0  0
    6.6730    1.0767   17.6196 C   0  0  0  0  0  0  0  0  0  0  0  0
    8.1822   -0.1287   18.8637 C   0  0  0  0  0  0  0  0  0  0  0  0
    8.3574   -1.6123   23.0391 C   0  0  0  0  0  0  0  0  0  0  0  0
   13.0343   -1.5310   21.2535 C   0  0  0  0  0  0  0  0  0  0  0  0
    7.5551    0.2099   20.0520 C   0  0  0  0  0  0  0  0  0  0  0  0
    6.4310    1.0256   19.9851 C   0  0  0  0  0  0  0  0  0  0  0  0
    8.0712   -0.2820   21.3056 C   0  0  0  0  0  0  0  0  0  0  0  0
    8.9960    0.2298   22.1850 C   0  0  0  0  0  0  0  0  0  0  0  0
   11.9534    0.3832   21.4080 C   0  0  0  0  0  0  0  0  0  0  0  0
   12.9574    0.2957   22.3433 C   0  0  0  0  0  0  0  0  0  0  0  0
    5.6912    1.4412   21.2153 C   0  0  0  0  0  0  0  0  0  0  0  0
    9.7582    1.4861   22.0907 C   0  0  0  0  0  0  0  0  0  0  0  0
   10.9384    1.4532   21.0873 C   0  0  0  0  0  0  0  0  0  0  0  0
    7.7687    0.2853   17.6449 N   0  0  0  0  0  0  0  0  0  0  0  0
    9.1699   -0.6032   23.2618 N   0  0  0  0  0  0  0  0  0  0  0  0
   13.6267   -0.8982   22.2417 N   0  0  0  0  0  0  0  0  0  0  0  0
    7.6713   -1.4623   21.8660 N   0  0  0  0  0  0  0  0  0  0  0  0
   12.0152   -0.7941   20.7171 N   0  0  0  0  0  0  0  0  0  0  0  0
    5.9922    2.7992   21.5076 O   0  0  0  0  0  0  0  0  0  0  0  0
   13.3726    1.4739   23.5023 Cl  0  0  0  0  0  0  0  0  0  0  0  0
  1  2  2  0
  1  7  1  0
  2 15  1  0
  3  6  1  0
  3 15  2  0
  4 16  2  0
  4 18  1  0
  5 17  2  0
  5 19  1  0
  6  7  2  0
  6  8  1  0
  7 12  1  0
  8  9  2  0
  8 18  1  0
  9 13  1  0
  9 16  1  0
 10 11  2  0
 10 14  1  0
 10 19  1  0
 11 17  1  0
 11 21  1  0
 12 20  1  0
 13 14  1  0
M  END
