NAU-LAT-c9bfe74c-1
     RDKit          3D

 33 37  0  0  0  0  0  0  0  0999 V2000
    8.5554   -4.9052   25.8169 C   0  0  0  0  0  0  0  0  0  0  0  0
    9.8284   -4.4767   25.4525 C   0  0  0  0  0  0  0  0  0  0  0  0
    7.4325   -4.3874   25.1709 C   0  0  0  0  0  0  0  0  0  0  0  0
    9.9834   -3.5287   24.4407 C   0  0  0  0  0  0  0  0  0  0  0  0
    8.6839    6.7279   22.9863 C   0  0  0  0  0  0  0  0  0  0  0  0
    8.1092    7.7030   23.8064 C   0  0  0  0  0  0  0  0  0  0  0  0
    9.6378    7.1656   25.6151 C   0  0  0  0  0  0  0  0  0  0  0  0
   11.2970    5.2507   24.9951 C   0  0  0  0  0  0  0  0  0  0  0  0
    7.8785   -1.5240   22.1131 C   0  0  0  0  0  0  0  0  0  0  0  0
    7.5697   -3.4325   24.1502 C   0  0  0  0  0  0  0  0  0  0  0  0
    8.8643   -2.9967   23.7797 C   0  0  0  0  0  0  0  0  0  0  0  0
   10.2330    6.1767   24.8069 C   0  0  0  0  0  0  0  0  0  0  0  0
    9.7434    5.9811   23.5138 C   0  0  0  0  0  0  0  0  0  0  0  0
    6.4506   -2.9006   23.4892 C   0  0  0  0  0  0  0  0  0  0  0  0
    6.6055   -1.9526   22.4775 C   0  0  0  0  0  0  0  0  0  0  0  0
    8.5771    7.9202   25.1008 C   0  0  0  0  0  0  0  0  0  0  0  0
    9.0015   -2.0418   22.7591 C   0  0  0  0  0  0  0  0  0  0  0  0
   11.4300    4.5241   23.8344 C   0  0  0  0  0  0  0  0  0  0  0  0
   12.3796    3.4569   23.5379 C   0  0  0  0  0  0  0  0  0  0  0  0
   10.4228    1.8545   23.1412 C   0  0  0  0  0  0  0  0  0  0  0  0
   12.7617    1.0907   22.8814 C   0  0  0  0  0  0  0  0  0  0  0  0
   10.1166    0.6106   23.9698 C   0  0  0  0  0  0  0  0  0  0  0  0
   12.4538   -0.1436   23.7186 C   0  0  0  0  0  0  0  0  0  0  0  0
   10.4887    4.9720   22.9467 N   0  0  0  0  0  0  0  0  0  0  0  0
   11.8533    2.1930   23.2112 N   0  0  0  0  0  0  0  0  0  0  0  0
   11.0163   -0.5119   23.5829 N   0  0  0  0  0  0  0  0  0  0  0  0
    5.1372   -3.3137   23.8302 N   0  0  0  0  0  0  0  0  0  0  0  0
   13.5913    3.6780   23.5799 O   0  0  0  0  0  0  0  0  0  0  0  0
   11.4646   -2.5687   22.1044 O   0  0  0  0  0  0  0  0  0  0  0  0
   10.3443   -0.5470   21.1018 O   0  0  0  0  0  0  0  0  0  0  0  0
    5.5244   -1.4313   21.8306 O   0  0  0  0  0  0  0  0  0  0  0  0
    8.0059    8.8629   25.8631 F   0  0  0  0  0  0  0  0  0  0  0  0
   10.5698   -1.4375   22.2197 S   0  0  0  0  0  0  0  0  0  0  0  0
  1  2  2  0
  1  3  1  0
  2  4  1  0
  3 10  2  0
  4 11  2  0
  5  6  2  0
  5 13  1  0
  6 16  1  0
  7 12  1  0
  7 16  2  0
  8 12  1  0
  8 18  2  0
  9 15  1  0
  9 17  2  0
 10 11  1  0
 10 14  1  0
 11 17  1  0
 12 13  2  0
 13 24  1  0
 14 15  2  0
 14 27  1  0
 15 31  1  0
 16 32  1  0
 17 33  1  0
 18 19  1  0
 18 24  1  0
 19 25  1  0
 19 28  2  0
 20 22  1  0
 20 25  1  0
 21 23  1  0
 21 25  1  0
 22 26  1  0
 23 26  1  0
 26 33  1  0
 29 33  2  0
 30 33  2  0
M  END
