NAU-LAT-42d4957e-1
     RDKit          3D

 27 29  0  0  1  0  0  0  0  0999 V2000
    8.8129    2.7692   24.7466 C   0  0  0  0  0  0  0  0  0  0  0  0
    6.3629    0.7304   18.7407 C   0  0  0  0  0  0  0  0  0  0  0  0
    5.2490    0.7298   20.8846 C   0  0  0  0  0  0  0  0  0  0  0  0
    7.4482    0.0595   19.3044 C   0  0  0  0  0  0  0  0  0  0  0  0
    6.3342    0.0588   21.4483 C   0  0  0  0  0  0  0  0  0  0  0  0
    8.2175    1.5814   25.1658 C   0  0  0  0  0  0  0  0  0  0  0  0
   10.2729    0.3995   24.7128 C   0  0  0  0  0  0  0  0  0  0  0  0
   10.1477    2.7849   24.3132 C   0  0  0  0  0  0  0  0  0  0  0  0
   10.8825    1.5824   24.2642 C   0  0  0  0  0  0  0  0  0  0  0  0
    5.2633    1.0657   19.5309 C   0  0  0  0  0  0  0  0  0  0  0  0
    7.4338   -0.2764   20.6581 C   0  0  0  0  0  0  0  0  0  0  0  0
    8.9492    0.3987   25.1550 C   0  0  0  0  0  0  0  0  0  0  0  0
   10.8598   -0.8391   21.6930 C   0  0  0  0  0  0  0  0  0  0  0  0
   10.7531    4.0906   23.8596 C   0  0  0  0  0  0  0  0  0  0  0  0
   12.2722    4.0821   23.9154 C   0  0  0  0  0  0  0  0  0  0  0  0
   12.3289    1.5798   23.8067 C   0  0  0  0  0  0  0  0  0  0  0  0
    4.1028    1.7825   18.9283 C   0  0  0  0  0  0  0  0  0  0  0  0
    9.7740   -0.6993   20.6474 C   0  0  0  0  0  0  0  0  0  0  0  0
   12.6593    0.4827   22.7931 C   0  0  0  0  0  0  0  0  0  0  0  0
    8.5971   -1.0560   27.3606 N   0  0  0  0  0  0  0  0  0  0  0  0
   11.5847    0.3431   21.8705 N   0  0  0  0  0  0  0  0  0  0  0  0
   12.7571    2.8845   23.1733 N   0  0  0  0  0  0  0  0  0  0  0  0
   11.0619   -1.8846   22.3047 O   0  0  0  0  0  0  0  0  0  0  0  0
    6.7680   -0.9662   25.5462 O   0  0  0  0  0  0  0  0  0  0  0  0
    8.9112   -2.2046   25.0761 O   0  0  0  0  0  0  0  0  0  0  0  0
    8.5030   -0.9389   21.2132 O   0  0  0  0  0  0  0  0  0  0  0  0
    8.2112   -1.0885   25.6965 S   0  0  0  0  0  0  0  0  0  0  0  0
  1  6  2  0
  1  8  1  0
  2  4  2  0
  2 10  1  0
  3  5  1  0
  3 10  2  0
  4 11  1  0
  5 11  2  0
  6 12  1  0
  7  9  1  0
  7 12  2  0
  8  9  2  0
  8 14  1  0
  9 16  1  0
 10 17  1  0
 11 26  1  0
 12 27  1  0
 13 18  1  0
 13 21  1  0
 13 23  2  0
 14 15  1  0
 15 22  1  0
 16 19  1  0
 16 22  1  0
 18 26  1  0
 19 21  1  0
 20 27  1  0
 24 27  2  0
 25 27  2  0
M  CHG  1  22   1
M  END
