NAU-LAT-ec9c7557-2
     RDKit          3D

 21 23  0  0  0  0  0  0  0  0999 V2000
   12.4324   -1.3259   23.9635 C   0  0  0  0  0  0  0  0  0  0  0  0
   11.9803   -2.9802   25.6498 C   0  0  0  0  0  0  0  0  0  0  0  0
    9.7153   -1.7531   23.0316 C   0  0  0  0  0  0  0  0  0  0  0  0
    9.9402   -4.0381   23.8672 C   0  0  0  0  0  0  0  0  0  0  0  0
   13.5827   -1.0030   24.6653 C   0  0  0  0  0  0  0  0  0  0  0  0
   13.1509   -2.5834   26.2760 C   0  0  0  0  0  0  0  0  0  0  0  0
   11.6214   -2.3344   24.4718 C   0  0  0  0  0  0  0  0  0  0  0  0
   10.4072   -2.7099   23.7784 C   0  0  0  0  0  0  0  0  0  0  0  0
    8.5679   -2.1738   22.3962 C   0  0  0  0  0  0  0  0  0  0  0  0
    8.7709   -4.4375   23.2110 C   0  0  0  0  0  0  0  0  0  0  0  0
    8.0995   -3.4814   22.4780 C   0  0  0  0  0  0  0  0  0  0  0  0
    7.6239   -1.4473   21.5500 C   0  0  0  0  0  0  0  0  0  0  0  0
    6.5512   -2.4526   21.1396 C   0  0  0  0  0  0  0  0  0  0  0  0
    8.2890   -5.8415   23.3127 C   0  0  0  0  0  0  0  0  0  0  0  0
   13.9642   -1.6079   25.8125 N   0  0  0  0  0  0  0  0  0  0  0  0
    6.9221   -3.6404   21.7434 N   0  0  0  0  0  0  0  0  0  0  0  0
    7.6403   -0.2889   21.2122 O   0  0  0  0  0  0  0  0  0  0  0  0
    5.6118   -2.1676   20.4301 O   0  0  0  0  0  0  0  0  0  0  0  0
    9.0857   -6.6432   24.0823 F   0  0  0  0  0  0  0  0  0  0  0  0
    7.0406   -5.9566   23.8585 F   0  0  0  0  0  0  0  0  0  0  0  0
    8.2131   -6.4637   22.0987 F   0  0  0  0  0  0  0  0  0  0  0  0
  1  5  2  0
  1  7  1  0
  2  6  1  0
  2  7  2  0
  3  8  2  0
  3  9  1  0
  4  8  1  0
  4 10  2  0
  5 15  1  0
  6 15  2  0
  7  8  1  0
  9 11  2  0
  9 12  1  0
 10 11  1  0
 10 14  1  0
 11 16  1  0
 12 13  1  0
 12 17  2  0
 13 16  1  0
 13 18  2  0
 14 19  1  0
 14 20  1  0
 14 21  1  0
M  END
