NAU-LAT-ec9c7557-5
     RDKit          3D

 23 26  0  0  1  0  0  0  0  0999 V2000
    8.7441   -5.3906   26.2219 C   0  0  0  0  0  0  0  0  0  0  0  0
    9.9780   -5.0167   25.6897 C   0  0  0  0  0  0  0  0  0  0  0  0
    7.6412   -4.5476   26.0851 C   0  0  0  0  0  0  0  0  0  0  0  0
   12.5393   -1.4288   22.2786 C   0  0  0  0  0  0  0  0  0  0  0  0
    6.7715    0.0882   21.6752 C   0  0  0  0  0  0  0  0  0  0  0  0
   13.0842   -0.3442   22.9867 C   0  0  0  0  0  0  0  0  0  0  0  0
    6.2623   -1.0025   20.9705 C   0  0  0  0  0  0  0  0  0  0  0  0
   10.1091   -3.7996   25.0209 C   0  0  0  0  0  0  0  0  0  0  0  0
    7.7723   -3.3306   25.4163 C   0  0  0  0  0  0  0  0  0  0  0  0
   11.2638   -1.9154   22.5828 C   0  0  0  0  0  0  0  0  0  0  0  0
    7.7012   -0.1132   22.6954 C   0  0  0  0  0  0  0  0  0  0  0  0
   12.3626    0.2719   24.0093 C   0  0  0  0  0  0  0  0  0  0  0  0
    6.6825   -2.2946   21.2861 C   0  0  0  0  0  0  0  0  0  0  0  0
    9.0062   -2.9566   24.8841 C   0  0  0  0  0  0  0  0  0  0  0  0
   10.5488   -1.3052   23.6037 C   0  0  0  0  0  0  0  0  0  0  0  0
    8.1214   -1.4052   23.0111 C   0  0  0  0  0  0  0  0  0  0  0  0
   11.1055   -0.2275   24.2904 C   0  0  0  0  0  0  0  0  0  0  0  0
    7.6121   -2.4960   22.3064 C   0  0  0  0  0  0  0  0  0  0  0  0
    9.0313   -0.4943   25.2531 C   0  0  0  0  0  0  0  0  0  0  0  0
    9.1507   -1.6086   24.1438 C   0  0  0  0  0  0  0  0  0  0  0  0
   10.2204    0.2382   25.2511 N   0  0  0  0  0  0  0  0  0  0  0  0
    8.0695   -0.3069   25.9857 O   0  0  0  0  0  0  0  0  0  0  0  0
    8.0114   -3.7645   22.6027 O   0  0  0  0  0  0  0  0  0  0  0  0
  1  2  2  0
  1  3  1  0
  2  8  1  0
  3  9  2  0
  4  6  2  0
  4 10  1  0
  5  7  2  0
  5 11  1  0
  6 12  1  0
  7 13  1  0
  8 14  2  0
  9 14  1  0
 10 15  2  0
 11 16  2  0
 12 17  2  0
 13 18  2  0
 14 20  1  0
 15 17  1  0
 15 20  1  0
 16 18  1  0
 16 20  1  0
 17 21  1  0
 18 23  1  0
 19 20  1  0
 19 21  1  0
 19 22  2  0
M  END
