NAU-LAT-42d4957e-4
     RDKit          3D

 21 23  0  0  1  0  0  0  0  0999 V2000
   13.5484    2.2453   22.3362 C   0  0  0  0  0  0  0  0  0  0  0  0
   12.6975    3.2108   22.8620 C   0  0  0  0  0  0  0  0  0  0  0  0
   11.3706    1.4619   23.8699 C   0  0  0  0  0  0  0  0  0  0  0  0
   13.3101    0.8791   22.5667 C   0  0  0  0  0  0  0  0  0  0  0  0
   12.2160    0.4564   23.3609 C   0  0  0  0  0  0  0  0  0  0  0  0
   11.6068    2.8186   23.6259 C   0  0  0  0  0  0  0  0  0  0  0  0
    7.7614   -1.7790   22.3465 C   0  0  0  0  0  0  0  0  0  0  0  0
    9.5903   -1.3744   23.7811 C   0  0  0  0  0  0  0  0  0  0  0  0
   14.2774   -0.1223   21.9834 C   0  0  0  0  0  0  0  0  0  0  0  0
   13.6519   -1.5073   21.8996 C   0  0  0  0  0  0  0  0  0  0  0  0
   13.0232   -1.8683   23.2371 C   0  0  0  0  0  0  0  0  0  0  0  0
    6.8417   -2.2431   21.2881 C   0  0  0  0  0  0  0  0  0  0  0  0
   10.9187   -1.3447   24.4801 C   0  0  0  0  0  0  0  0  0  0  0  0
    7.4540   -0.9252   23.2996 N   0  0  0  0  0  0  0  0  0  0  0  0
    8.5271   -0.6871   24.1405 N   0  0  0  0  0  0  0  0  0  0  0  0
   11.9886   -0.9005   23.5984 N   0  0  0  0  0  0  0  0  0  0  0  0
   11.2551    5.4594   23.7129 N   0  0  0  0  0  0  0  0  0  0  0  0
    9.2262    3.8700   23.6585 O   0  0  0  0  0  0  0  0  0  0  0  0
   10.6401    3.9934   25.7401 O   0  0  0  0  0  0  0  0  0  0  0  0
    9.3736   -2.3621   22.3959 S   0  0  0  0  0  0  0  0  0  0  0  0
   10.5298    4.0236   24.2886 S   0  0  0  0  0  0  0  0  0  0  0  0
  1  2  2  0
  1  4  1  0
  2  6  1  0
  3  5  1  0
  3  6  2  0
  4  5  2  0
  4  9  1  0
  5 16  1  0
  6 21  1  0
  7 12  1  0
  7 14  2  0
  7 20  1  0
  8 13  1  0
  8 15  2  0
  8 20  1  0
  9 10  1  0
 10 11  1  0
 11 16  1  0
 13 16  1  0
 14 15  1  0
 17 21  1  0
 18 21  2  0
 19 21  2  0
M  END
