NAU-LAT-81109c57-4
     RDKit          3D

 21 23  0  0  1  0  0  0  0  0999 V2000
   10.9306   -0.6140   23.7000 C   0  0  0  0  0  0  0  0  0  0  0  0
   11.8082   -1.2474   22.8154 C   0  0  0  0  0  0  0  0  0  0  0  0
   12.9607    0.8434   22.3707 C   0  0  0  0  0  0  0  0  0  0  0  0
   10.9020    2.8978   24.5846 C   0  0  0  0  0  0  0  0  0  0  0  0
   12.0876    1.5036   23.2580 C   0  0  0  0  0  0  0  0  0  0  0  0
   11.9540    2.8498   23.6992 C   0  0  0  0  0  0  0  0  0  0  0  0
   11.0947    0.7611   23.9009 C   0  0  0  0  0  0  0  0  0  0  0  0
   12.8083   -0.5319   22.1599 C   0  0  0  0  0  0  0  0  0  0  0  0
    9.9164    6.3398   23.7103 C   0  0  0  0  0  0  0  0  0  0  0  0
    6.7528    7.2325   24.2101 C   0  0  0  0  0  0  0  0  0  0  0  0
    7.8399    7.6848   23.2511 C   0  0  0  0  0  0  0  0  0  0  0  0
    6.3778    5.8690   23.6749 C   0  0  0  0  0  0  0  0  0  0  0  0
    8.6387    6.4219   22.9383 C   0  0  0  0  0  0  0  0  0  0  0  0
    7.6385    4.1793   22.2983 C   0  0  0  0  0  0  0  0  0  0  0  0
   12.8074    4.0215   23.2796 C   0  0  0  0  0  0  0  0  0  0  0  0
   12.2048    5.3681   23.6728 C   0  0  0  0  0  0  0  0  0  0  0  0
   10.3903    1.6332   24.7000 N   0  0  0  0  0  0  0  0  0  0  0  0
   10.8944    5.5777   23.1002 N   0  0  0  0  0  0  0  0  0  0  0  0
    7.7175    5.2697   23.3188 N   0  0  0  0  0  0  0  0  0  0  0  0
   10.0132    6.9254   24.7824 O   0  0  0  0  0  0  0  0  0  0  0  0
   13.6353   -1.1673   21.3185 F   0  0  0  0  0  0  0  0  0  0  0  0
  1  2  2  0
  1  7  1  0
  2  8  1  0
  3  5  1  0
  3  8  2  0
  4  6  2  0
  4 17  1  0
  5  6  1  0
  5  7  2  0
  6 15  1  0
  7 17  1  0
  8 21  1  0
  9 13  1  0
  9 18  1  0
  9 20  2  0
 10 11  1  0
 10 12  1  0
 11 13  1  0
 12 19  1  0
 13 19  1  0
 14 19  1  0
 15 16  1  0
 16 18  1  0
M  CHG  1  19   1
M  END
