NAU-LAT-81109c57-1
     RDKit          3D

 20 21  0  0  1  0  0  0  0  0999 V2000
   11.7951    0.7130   24.1156 C   0  0  0  0  0  0  0  0  0  0  0  0
   12.5919    0.4108   23.0076 C   0  0  0  0  0  0  0  0  0  0  0  0
   11.6464   -1.8213   22.8635 C   0  0  0  0  0  0  0  0  0  0  0  0
    9.3900   -1.4701   25.7176 C   0  0  0  0  0  0  0  0  0  0  0  0
   10.8332   -1.5397   23.9792 C   0  0  0  0  0  0  0  0  0  0  0  0
    9.8601   -2.2786   24.7085 C   0  0  0  0  0  0  0  0  0  0  0  0
   10.9261   -0.2816   24.5783 C   0  0  0  0  0  0  0  0  0  0  0  0
   12.5204   -0.8361   22.3897 C   0  0  0  0  0  0  0  0  0  0  0  0
    6.9181   -3.0444   21.6517 C   0  0  0  0  0  0  0  0  0  0  0  0
    7.7058   -0.1578   21.5439 C   0  0  0  0  0  0  0  0  0  0  0  0
    7.1338   -0.0731   19.1121 C   0  0  0  0  0  0  0  0  0  0  0  0
    9.4148   -3.6939   24.4330 C   0  0  0  0  0  0  0  0  0  0  0  0
    8.0515   -3.7669   23.7497 C   0  0  0  0  0  0  0  0  0  0  0  0
    7.1879   -2.3163   20.3380 C   0  0  0  0  0  0  0  0  0  0  0  0
    6.8762   -0.8084   20.4321 C   0  0  0  0  0  0  0  0  0  0  0  0
   10.0388   -0.2676   25.6307 N   0  0  0  0  0  0  0  0  0  0  0  0
    8.0408   -3.1110   22.4619 N   0  0  0  0  0  0  0  0  0  0  0  0
    5.8194   -3.5242   21.9233 O   0  0  0  0  0  0  0  0  0  0  0  0
    6.4101   -2.9133   19.3122 O   0  0  0  0  0  0  0  0  0  0  0  0
   13.2962   -1.0956   21.3283 F   0  0  0  0  0  0  0  0  0  0  0  0
  1  2  2  0
  1  7  1  0
  2  8  1  0
  3  5  1  0
  3  8  2  0
  4  6  2  0
  4 16  1  0
  5  6  1  0
  5  7  2  0
  6 12  1  0
  7 16  1  0
  8 20  1  0
  9 14  1  0
  9 17  1  0
  9 18  2  0
 10 15  1  0
 11 15  1  0
 12 13  1  0
 13 17  1  0
 14 15  1  0
 14 19  1  0
M  END
