NAU-LAT-81109c57-5
     RDKit          3D

 24 26  0  0  0  0  0  0  0  0999 V2000
    6.4731   -3.2106   25.9125 C   0  0  0  0  0  0  0  0  0  0  0  0
    7.6659   -2.6452   26.3631 C   0  0  0  0  0  0  0  0  0  0  0  0
    6.3426   -3.5915   24.5770 C   0  0  0  0  0  0  0  0  0  0  0  0
    8.7283   -2.4607   25.4783 C   0  0  0  0  0  0  0  0  0  0  0  0
    7.4050   -3.4070   23.6921 C   0  0  0  0  0  0  0  0  0  0  0  0
   12.8682    1.2586   23.1198 C   0  0  0  0  0  0  0  0  0  0  0  0
   11.9532   -0.8409   22.3123 C   0  0  0  0  0  0  0  0  0  0  0  0
    9.7266    2.5585   24.4617 C   0  0  0  0  0  0  0  0  0  0  0  0
   11.5907    1.6257   23.5875 C   0  0  0  0  0  0  0  0  0  0  0  0
    8.5978   -2.8415   24.1427 C   0  0  0  0  0  0  0  0  0  0  0  0
   11.0710    2.7681   24.2580 C   0  0  0  0  0  0  0  0  0  0  0  0
   10.5267    0.7405   23.4012 C   0  0  0  0  0  0  0  0  0  0  0  0
   10.6769   -0.4983   22.7680 C   0  0  0  0  0  0  0  0  0  0  0  0
   13.0334    0.0224   22.4844 C   0  0  0  0  0  0  0  0  0  0  0  0
    9.9982    6.1670   23.5391 C   0  0  0  0  0  0  0  0  0  0  0  0
    8.8521    6.5908   22.6817 C   0  0  0  0  0  0  0  0  0  0  0  0
   11.8285    3.9680   24.6667 C   0  0  0  0  0  0  0  0  0  0  0  0
    9.7401   -2.6431   23.1902 C   0  0  0  0  0  0  0  0  0  0  0  0
   12.1545    4.9292   23.5090 C   0  0  0  0  0  0  0  0  0  0  0  0
    9.4077    1.3328   23.9417 N   0  0  0  0  0  0  0  0  0  0  0  0
   10.9672    5.4340   22.8730 N   0  0  0  0  0  0  0  0  0  0  0  0
   10.0140    6.4788   24.7241 O   0  0  0  0  0  0  0  0  0  0  0  0
    9.6277   -1.3556   22.5913 O   0  0  0  0  0  0  0  0  0  0  0  0
   14.2453   -0.3340   22.0371 F   0  0  0  0  0  0  0  0  0  0  0  0
  1  2  2  0
  1  3  1  0
  2  4  1  0
  3  5  2  0
  4 10  2  0
  5 10  1  0
  6  9  2  0
  6 14  1  0
  7 13  1  0
  7 14  2  0
  8 11  2  0
  8 20  1  0
  9 11  1  0
  9 12  1  0
 10 18  1  0
 11 17  1  0
 12 13  2  0
 12 20  1  0
 13 23  1  0
 14 24  1  0
 15 16  1  0
 15 21  1  0
 15 22  2  0
 17 19  1  0
 18 23  1  0
 19 21  1  0
M  END
