NEA-WAB-7f018ee1-1
     RDKit          3D

 32 35  0  0  1  0  0  0  0  0999 V2000
    7.5660   -3.9055   22.2856 C   0  0  0  0  0  0  0  0  0  0  0  0
    6.7867   -4.9701   22.7239 C   0  0  0  0  0  0  0  0  0  0  0  0
    8.3266   -3.5569   24.5516 C   0  0  0  0  0  0  0  0  0  0  0  0
    8.3332   -3.1970   23.2001 C   0  0  0  0  0  0  0  0  0  0  0  0
    6.7654   -5.3295   24.0829 C   0  0  0  0  0  0  0  0  0  0  0  0
    7.5564   -4.6349   25.0306 C   0  0  0  0  0  0  0  0  0  0  0  0
    8.5091    2.2070   22.4411 C   0  0  0  0  0  0  0  0  0  0  0  0
    5.9123   -6.5042   24.4969 C   0  0  0  0  0  0  0  0  0  0  0  0
    5.6153   -6.4696   25.9893 C   0  0  0  0  0  0  0  0  0  0  0  0
   11.1416    4.8145   23.6260 C   0  0  0  0  0  0  0  0  0  0  0  0
    8.7181   -0.7000   23.3624 C   0  0  0  0  0  0  0  0  0  0  0  0
   10.6855   -2.2583   22.9596 C   0  0  0  0  0  0  0  0  0  0  0  0
   10.8263    0.2167   22.2897 C   0  0  0  0  0  0  0  0  0  0  0  0
    6.9071   -6.2601   26.7651 C   0  0  0  0  0  0  0  0  0  0  0  0
   12.2492    5.4725   22.8496 C   0  0  0  0  0  0  0  0  0  0  0  0
    9.1838   -2.0307   22.7322 C   0  0  0  0  0  0  0  0  0  0  0  0
    9.8333    0.3539   23.4444 C   0  0  0  0  0  0  0  0  0  0  0  0
   11.5242   -1.1515   22.3041 C   0  0  0  0  0  0  0  0  0  0  0  0
   11.7038    3.4291   23.8162 C   0  0  0  0  0  0  0  0  0  0  0  0
    7.4402    3.2077   22.8027 C   0  0  0  0  0  0  0  0  0  0  0  0
    8.4130   -4.3517   27.3470 C   0  0  0  0  0  0  0  0  0  0  0  0
   11.0395    2.6528   24.9412 C   0  0  0  0  0  0  0  0  0  0  0  0
    9.5472    2.4451   24.7122 C   0  0  0  0  0  0  0  0  0  0  0  0
   13.1245    3.6701   24.0770 N   0  0  0  0  0  0  0  0  0  0  0  0
    7.5427   -5.0016   26.3776 N   0  0  0  0  0  0  0  0  0  0  0  0
   14.1245    0.1133   22.4917 N   0  0  0  0  0  0  0  0  0  0  0  0
    9.2706    1.6817   23.4926 N   0  0  0  0  0  0  0  0  0  0  0  0
    8.6675    1.8967   21.2574 O   0  0  0  0  0  0  0  0  0  0  0  0
   13.4633    4.8786   23.3143 O   0  0  0  0  0  0  0  0  0  0  0  0
   12.6851   -0.8032   24.6367 O   0  0  0  0  0  0  0  0  0  0  0  0
   13.6600   -2.5521   22.9342 O   0  0  0  0  0  0  0  0  0  0  0  0
   13.1095   -1.0460   23.1003 S   0  0  0  0  0  0  0  0  0  0  0  0
  1  2  2  0
  1  4  1  0
  2  5  1  0
  3  4  2  0
  3  6  1  0
  4 16  1  0
  5  6  2  0
  5  8  1  0
  6 25  1  0
  7 20  1  0
  7 27  1  0
  7 28  2  0
  8  9  1  0
  9 14  1  0
 10 15  1  0
 10 19  1  0
 11 16  1  0
 11 17  1  0
 12 16  1  0
 12 18  1  0
 13 17  1  0
 13 18  1  0
 14 25  1  0
 15 29  1  0
 17 27  1  0
 18 32  1  0
 19 22  1  0
 19 24  1  0
 21 25  1  0
 22 23  1  0
 23 27  1  0
 24 29  1  0
 26 32  1  0
 30 32  1  0
 31 32  1  0
M  END
