NEH-REV-107bcf72-1
     RDKit          3D

 24 26  0  0  1  0  0  0  0  0999 V2000
   11.6512    2.2329   24.5686 C   0  0  0  0  0  0  0  0  0  0  0  0
   12.7774    1.5946   24.0491 C   0  0  0  0  0  0  0  0  0  0  0  0
   10.3229    0.2697   24.1013 C   0  0  0  0  0  0  0  0  0  0  0  0
    6.9893   -1.1645   20.8170 C   0  0  0  0  0  0  0  0  0  0  0  0
    9.5410   -0.3608   21.2436 C   0  0  0  0  0  0  0  0  0  0  0  0
   11.4491   -0.3686   23.5817 C   0  0  0  0  0  0  0  0  0  0  0  0
    7.7711   -1.8967   21.7240 C   0  0  0  0  0  0  0  0  0  0  0  0
    9.1060   -1.4841   21.9604 C   0  0  0  0  0  0  0  0  0  0  0  0
   10.4239    1.5704   24.5948 C   0  0  0  0  0  0  0  0  0  0  0  0
   12.6763    0.2939   23.5556 C   0  0  0  0  0  0  0  0  0  0  0  0
    7.5457   -0.0744   20.1681 C   0  0  0  0  0  0  0  0  0  0  0  0
    6.0185   -3.6456   22.1072 C   0  0  0  0  0  0  0  0  0  0  0  0
    8.0230   -3.4652   23.6081 C   0  0  0  0  0  0  0  0  0  0  0  0
    9.5104   -3.4633   23.3129 C   0  0  0  0  0  0  0  0  0  0  0  0
   11.3219   -1.7687   23.0546 C   0  0  0  0  0  0  0  0  0  0  0  0
    5.2457   -4.2733   23.2458 C   0  0  0  0  0  0  0  0  0  0  0  0
    8.8062    0.3458   20.3558 N   0  0  0  0  0  0  0  0  0  0  0  0
    7.2287   -3.0199   22.4548 N   0  0  0  0  0  0  0  0  0  0  0  0
    9.9324   -2.1517   22.8565 N   0  0  0  0  0  0  0  0  0  0  0  0
    6.7177    0.6381   19.2654 N   0  0  0  0  0  0  0  0  0  0  0  0
    5.5545   -3.7403   20.9689 O   0  0  0  0  0  0  0  0  0  0  0  0
    9.3254    2.1935   25.1022 O   0  0  0  0  0  0  0  0  0  0  0  0
   13.7860   -0.3143   23.0504 O   0  0  0  0  0  0  0  0  0  0  0  0
    4.9082   -2.9823   24.3914 Cl  0  0  0  0  0  0  0  0  0  0  0  0
  1  2  2  0
  1  9  1  0
  2 10  1  0
  3  6  1  0
  3  9  2  0
  4  7  2  0
  4 11  1  0
  5  8  2  0
  5 17  1  0
  6 10  2  0
  6 15  1  0
  7  8  1  0
  7 18  1  0
  8 19  1  0
  9 22  1  0
 10 23  1  0
 11 17  2  0
 11 20  1  0
 12 16  1  0
 12 18  1  0
 12 21  2  0
 13 14  1  0
 13 18  1  0
 14 19  1  0
 15 19  1  0
 16 24  1  0
M  END
