NEH-REV-107bcf72-4
     RDKit          3D

 20 21  0  0  1  0  0  0  0  0999 V2000
   13.1696   -0.0778   22.7199 C   0  0  0  0  0  0  0  0  0  0  0  0
   12.5750    0.5986   23.7850 C   0  0  0  0  0  0  0  0  0  0  0  0
   11.5866   -1.8839   22.9830 C   0  0  0  0  0  0  0  0  0  0  0  0
   10.9920   -1.2075   24.0482 C   0  0  0  0  0  0  0  0  0  0  0  0
   12.6754   -1.3191   22.3188 C   0  0  0  0  0  0  0  0  0  0  0  0
   11.4862    0.0338   24.4491 C   0  0  0  0  0  0  0  0  0  0  0  0
    6.1234   -1.4012   20.4903 C   0  0  0  0  0  0  0  0  0  0  0  0
    7.0878   -2.8017   22.2727 C   0  0  0  0  0  0  0  0  0  0  0  0
    8.4495   -2.8580   22.9427 C   0  0  0  0  0  0  0  0  0  0  0  0
    8.3680   -0.3969   23.3175 C   0  0  0  0  0  0  0  0  0  0  0  0
    7.0170   -0.3332   22.6103 C   0  0  0  0  0  0  0  0  0  0  0  0
    9.8219   -1.8301   24.7512 C   0  0  0  0  0  0  0  0  0  0  0  0
    5.8416   -0.0174   19.9597 C   0  0  0  0  0  0  0  0  0  0  0  0
    6.7849   -1.4799   21.7204 N   0  0  0  0  0  0  0  0  0  0  0  0
    8.5476   -1.7507   23.9575 N   0  0  0  0  0  0  0  0  0  0  0  0
    5.7723   -2.3818   19.8288 O   0  0  0  0  0  0  0  0  0  0  0  0
   13.2558   -1.9785   21.2792 O   0  0  0  0  0  0  0  0  0  0  0  0
   10.9180    0.7073   25.4883 O   0  0  0  0  0  0  0  0  0  0  0  0
    5.9614   -0.2867   23.5690 O   0  0  0  0  0  0  0  0  0  0  0  0
    7.2484    0.4549   19.0134 Cl  0  0  0  0  0  0  0  0  0  0  0  0
  1  2  2  0
  1  5  1  0
  2  6  1  0
  3  4  1  0
  3  5  2  0
  4  6  2  0
  4 12  1  0
  5 17  1  0
  6 18  1  0
  7 13  1  0
  7 14  1  0
  7 16  2  0
  8  9  1  0
  8 14  1  0
  9 15  1  0
 10 11  1  0
 10 15  1  0
 11 14  1  0
 11 19  1  0
 12 15  1  0
 13 20  1  0
M  CHG  1  15   1
M  END
