NEH-REV-107bcf72-2
     RDKit          3D

 24 26  0  0  1  0  0  0  0  0999 V2000
   11.8518    1.2155   24.8939 C   0  0  0  0  0  0  0  0  0  0  0  0
   10.7645    0.3594   24.7190 C   0  0  0  0  0  0  0  0  0  0  0  0
   12.9471    1.1366   24.0337 C   0  0  0  0  0  0  0  0  0  0  0  0
    9.4421   -3.7663   24.5710 C   0  0  0  0  0  0  0  0  0  0  0  0
   11.8678   -0.6545   22.8238 C   0  0  0  0  0  0  0  0  0  0  0  0
    9.2111   -4.4948   25.7200 C   0  0  0  0  0  0  0  0  0  0  0  0
    8.8521   -2.5937   26.9133 C   0  0  0  0  0  0  0  0  0  0  0  0
   10.7725   -0.5756   23.6839 C   0  0  0  0  0  0  0  0  0  0  0  0
   12.9551    0.2016   22.9987 C   0  0  0  0  0  0  0  0  0  0  0  0
    9.3500   -2.3959   24.7043 C   0  0  0  0  0  0  0  0  0  0  0  0
    6.5093   -1.9707   19.4537 C   0  0  0  0  0  0  0  0  0  0  0  0
    7.1865   -2.6060   21.7458 C   0  0  0  0  0  0  0  0  0  0  0  0
    8.5077   -0.8761   20.5815 C   0  0  0  0  0  0  0  0  0  0  0  0
    7.1214   -1.7416   22.9964 C   0  0  0  0  0  0  0  0  0  0  0  0
    8.4629    0.0115   21.8182 C   0  0  0  0  0  0  0  0  0  0  0  0
    6.7495   -1.0884   18.2547 C   0  0  0  0  0  0  0  0  0  0  0  0
    9.5880   -1.5087   23.4938 C   0  0  0  0  0  0  0  0  0  0  0  0
    8.9126   -3.9390   26.9126 N   0  0  0  0  0  0  0  0  0  0  0  0
    9.0556   -1.7737   25.8647 N   0  0  0  0  0  0  0  0  0  0  0  0
    7.3596   -1.7888   20.5443 N   0  0  0  0  0  0  0  0  0  0  0  0
    8.3184   -0.8224   23.0698 N   0  0  0  0  0  0  0  0  0  0  0  0
    5.5914   -2.7944   19.4212 O   0  0  0  0  0  0  0  0  0  0  0  0
   14.0237    0.1251   22.1590 O   0  0  0  0  0  0  0  0  0  0  0  0
    5.7434    0.3396   18.4704 Cl  0  0  0  0  0  0  0  0  0  0  0  0
  1  2  2  0
  1  3  1  0
  2  8  1  0
  3  9  2  0
  4  6  2  0
  4 10  1  0
  5  8  2  0
  5  9  1  0
  6 18  1  0
  7 18  2  0
  7 19  1  0
  8 17  1  0
  9 23  1  0
 10 17  1  0
 10 19  2  0
 11 16  1  0
 11 20  1  0
 11 22  2  0
 12 14  1  0
 12 20  1  0
 13 15  1  0
 13 20  1  0
 14 21  1  0
 15 21  1  0
 16 24  1  0
 17 21  1  0
M  CHG  1  21   1
M  END
