NEL-UNI-1464a899-3
     RDKit          3D

 18 18  0  0  0  0  0  0  0  0999 V2000
   13.3787   -1.6532   24.8046 C   0  0  0  0  0  0  0  0  0  0  0  0
   11.9665   -3.5732   25.3519 C   0  0  0  0  0  0  0  0  0  0  0  0
   11.0544   -1.7527   24.0516 C   0  0  0  0  0  0  0  0  0  0  0  0
   10.7406   -4.2352   25.2850 C   0  0  0  0  0  0  0  0  0  0  0  0
    9.8285   -2.4147   23.9847 C   0  0  0  0  0  0  0  0  0  0  0  0
   12.1234   -2.3319   24.7352 C   0  0  0  0  0  0  0  0  0  0  0  0
    9.6716   -3.6560   24.6014 C   0  0  0  0  0  0  0  0  0  0  0  0
    6.1646   -3.8347   21.1292 C   0  0  0  0  0  0  0  0  0  0  0  0
    8.3467   -4.3723   24.5277 C   0  0  0  0  0  0  0  0  0  0  0  0
    5.3315   -2.5677   21.0233 C   0  0  0  0  0  0  0  0  0  0  0  0
    8.2118   -5.3057   23.3172 C   0  0  0  0  0  0  0  0  0  0  0  0
    8.3795   -4.6159   21.9647 C   0  0  0  0  0  0  0  0  0  0  0  0
    5.6040   -1.7756   19.7487 C   0  0  0  0  0  0  0  0  0  0  0  0
   14.3983   -1.1019   24.8608 N   0  0  0  0  0  0  0  0  0  0  0  0
    7.3877   -3.5896   21.7368 N   0  0  0  0  0  0  0  0  0  0  0  0
    5.7825   -4.9275   20.7198 O   0  0  0  0  0  0  0  0  0  0  0  0
    6.9767   -1.4037   19.7506 O   0  0  0  0  0  0  0  0  0  0  0  0
    5.3127   -2.6027   18.6297 O   0  0  0  0  0  0  0  0  0  0  0  0
  1  6  1  0
  1 14  3  0
  2  4  2  0
  2  6  1  0
  3  5  1  0
  3  6  2  0
  4  7  1  0
  5  7  2  0
  7  9  1  0
  8 10  1  0
  8 15  1  0
  8 16  2  0
  9 11  1  0
 10 13  1  0
 11 12  1  0
 12 15  1  0
 13 17  1  0
 13 18  1  0
M  END
