NIC-BIO-174c9b04-2
     RDKit          3D

 21 24  0  0  0  0  0  0  0  0999 V2000
    4.8721    0.9939   18.8244 C   0  0  0  0  0  0  0  0  0  0  0  0
    5.2914    0.7942   20.1384 C   0  0  0  0  0  0  0  0  0  0  0  0
    5.7178    0.6187   17.7892 C   0  0  0  0  0  0  0  0  0  0  0  0
    8.5214   -0.6751   21.0038 C   0  0  0  0  0  0  0  0  0  0  0  0
    6.5564    0.2198   20.3429 C   0  0  0  0  0  0  0  0  0  0  0  0
    7.3389   -0.1430   21.4710 C   0  0  0  0  0  0  0  0  0  0  0  0
    7.3007   -0.1088   19.2136 C   0  0  0  0  0  0  0  0  0  0  0  0
    6.6929    1.4594   23.3113 C   0  0  0  0  0  0  0  0  0  0  0  0
    7.5671   -0.8834   23.9789 C   0  0  0  0  0  0  0  0  0  0  0  0
    6.1267   -1.0477   23.6165 C   0  0  0  0  0  0  0  0  0  0  0  0
    7.4904    3.7517   22.8313 C   0  0  0  0  0  0  0  0  0  0  0  0
    9.1770    1.9912   23.1906 C   0  0  0  0  0  0  0  0  0  0  0  0
    8.2137    4.6718   23.8038 C   0  0  0  0  0  0  0  0  0  0  0  0
    9.9273    2.8861   24.1677 C   0  0  0  0  0  0  0  0  0  0  0  0
    6.9498    0.0202   22.9417 C   0  0  0  0  0  0  0  0  0  0  0  0
   10.4787    5.2695   24.6686 C   0  0  0  0  0  0  0  0  0  0  0  0
    6.9439    0.0626   17.9266 N   0  0  0  0  0  0  0  0  0  0  0  0
    8.4876   -0.6491   19.6337 N   0  0  0  0  0  0  0  0  0  0  0  0
    7.7547    2.3467   23.1415 N   0  0  0  0  0  0  0  0  0  0  0  0
    9.6877    4.3332   23.7991 N   0  0  0  0  0  0  0  0  0  0  0  0
    5.5823    1.7827   23.7403 O   0  0  0  0  0  0  0  0  0  0  0  0
  1  2  2  0
  1  3  1  0
  2  5  1  0
  3 17  2  0
  4  6  2  0
  4 18  1  0
  5  6  1  0
  5  7  2  0
  6 15  1  0
  7 17  1  0
  7 18  1  0
  8 15  1  0
  8 19  1  0
  8 21  2  0
  9 10  1  0
  9 15  1  0
 10 15  1  0
 11 13  1  0
 11 19  1  0
 12 14  1  0
 12 19  1  0
 13 20  1  0
 14 20  1  0
 16 20  1  0
M  CHG  1  20   1
M  END
