NIC-BIO-174c9b04-1
     RDKit          3D

 20 22  0  0  1  0  0  0  0  0999 V2000
    6.8522   -1.4576   20.5121 C   0  0  0  0  0  0  0  0  0  0  0  0
    7.8212   -1.9964   21.3566 C   0  0  0  0  0  0  0  0  0  0  0  0
    5.6544   -2.1404   20.3487 C   0  0  0  0  0  0  0  0  0  0  0  0
    7.3682   -5.1323   23.1735 C   0  0  0  0  0  0  0  0  0  0  0  0
    7.5288   -3.2098   22.0001 C   0  0  0  0  0  0  0  0  0  0  0  0
    8.2046   -4.0702   22.9053 C   0  0  0  0  0  0  0  0  0  0  0  0
    6.2880   -3.7868   21.7457 C   0  0  0  0  0  0  0  0  0  0  0  0
    9.6853   -2.5350   24.1737 C   0  0  0  0  0  0  0  0  0  0  0  0
   10.9950   -1.3450   25.9013 C   0  0  0  0  0  0  0  0  0  0  0  0
   12.2204   -2.7111   24.2503 C   0  0  0  0  0  0  0  0  0  0  0  0
   11.9600   -0.1880   25.6886 C   0  0  0  0  0  0  0  0  0  0  0  0
   13.2046   -1.5727   24.0168 C   0  0  0  0  0  0  0  0  0  0  0  0
   10.0026   -4.9789   24.4335 C   0  0  0  0  0  0  0  0  0  0  0  0
   14.1288   -1.3019   26.3529 C   0  0  0  0  0  0  0  0  0  0  0  0
    9.5881   -3.8684   23.4762 C   0  0  0  0  0  0  0  0  0  0  0  0
    5.3191   -3.3099   20.9414 N   0  0  0  0  0  0  0  0  0  0  0  0
    6.2090   -4.9504   22.4647 N   0  0  0  0  0  0  0  0  0  0  0  0
   10.9259   -2.2029   24.7178 N   0  0  0  0  0  0  0  0  0  0  0  0
   13.3111   -0.6980   25.2441 N   0  0  0  0  0  0  0  0  0  0  0  0
    8.6882   -1.8106   24.2300 O   0  0  0  0  0  0  0  0  0  0  0  0
  1  2  2  0
  1  3  1  0
  2  5  1  0
  3 16  2  0
  4  6  2  0
  4 17  1  0
  5  6  1  0
  5  7  2  0
  6 15  1  0
  7 16  1  0
  7 17  1  0
  8 15  1  0
  8 18  1  0
  8 20  2  0
  9 11  1  0
  9 18  1  0
 10 12  1  0
 10 18  1  0
 11 19  1  0
 12 19  1  0
 13 15  1  0
 14 19  1  0
M  CHG  1  19   1
M  END
