NIC-BIO-3276ca7f-4
     RDKit          3D

 25 27  0  0  1  0  0  0  0  0999 V2000
   14.2851   -1.6782   22.3164 C   0  0  0  0  0  0  0  0  0  0  0  0
   14.0440   -1.5277   23.6819 C   0  0  0  0  0  0  0  0  0  0  0  0
   13.7908   -0.7373   21.4130 C   0  0  0  0  0  0  0  0  0  0  0  0
    5.5991    1.0982   18.9966 C   0  0  0  0  0  0  0  0  0  0  0  0
    6.1374    0.9101   20.2684 C   0  0  0  0  0  0  0  0  0  0  0  0
   13.3086   -0.4364   24.1442 C   0  0  0  0  0  0  0  0  0  0  0  0
   13.0553    0.3541   21.8753 C   0  0  0  0  0  0  0  0  0  0  0  0
    6.3576    0.7389   17.8906 C   0  0  0  0  0  0  0  0  0  0  0  0
    9.4620   -0.4883   20.8443 C   0  0  0  0  0  0  0  0  0  0  0  0
    7.4275    0.3632   20.3600 C   0  0  0  0  0  0  0  0  0  0  0  0
   12.8142    0.5046   23.2409 C   0  0  0  0  0  0  0  0  0  0  0  0
    8.3145    0.0195   21.4143 C   0  0  0  0  0  0  0  0  0  0  0  0
    8.0756    0.0482   19.1692 C   0  0  0  0  0  0  0  0  0  0  0  0
    6.0896    2.8625   23.2306 C   0  0  0  0  0  0  0  0  0  0  0  0
    9.6550    2.1049   23.0799 C   0  0  0  0  0  0  0  0  0  0  0  0
    5.3203    3.8252   22.3882 C   0  0  0  0  0  0  0  0  0  0  0  0
    8.0580    0.1778   22.8932 C   0  0  0  0  0  0  0  0  0  0  0  0
   12.0224    1.6794   23.7377 C   0  0  0  0  0  0  0  0  0  0  0  0
    8.2395    1.6217   23.3751 C   0  0  0  0  0  0  0  0  0  0  0  0
    7.6027    0.2092   17.9189 N   0  0  0  0  0  0  0  0  0  0  0  0
    9.3063   -0.4659   19.4826 N   0  0  0  0  0  0  0  0  0  0  0  0
   10.6071    1.3922   23.7955 N   0  0  0  0  0  0  0  0  0  0  0  0
    7.3333    2.5319   22.7211 N   0  0  0  0  0  0  0  0  0  0  0  0
    5.5980    2.4445   24.2724 O   0  0  0  0  0  0  0  0  0  0  0  0
    9.8975    3.0460   22.3273 O   0  0  0  0  0  0  0  0  0  0  0  0
  1  2  2  0
  1  3  1  0
  2  6  1  0
  3  7  2  0
  4  5  2  0
  4  8  1  0
  5 10  1  0
  6 11  2  0
  7 11  1  0
  8 20  2  0
  9 12  2  0
  9 21  1  0
 10 12  1  0
 10 13  2  0
 11 18  1  0
 12 17  1  0
 13 20  1  0
 13 21  1  0
 14 16  1  0
 14 23  1  0
 14 24  2  0
 15 19  1  0
 15 22  1  0
 15 25  2  0
 17 19  1  0
 18 22  1  0
 19 23  1  0
M  END
