NIC-BIO-96ee2ca4-1
     RDKit          3D

 24 26  0  0  1  0  0  0  0  0999 V2000
    5.6672    1.3401   19.0937 C   0  0  0  0  0  0  0  0  0  0  0  0
    6.2868    1.1742   20.3310 C   0  0  0  0  0  0  0  0  0  0  0  0
    6.3072    0.8640   17.9572 C   0  0  0  0  0  0  0  0  0  0  0  0
    9.5281   -0.4589   20.7399 C   0  0  0  0  0  0  0  0  0  0  0  0
    7.5340    0.5295   20.3587 C   0  0  0  0  0  0  0  0  0  0  0  0
    8.4711    0.1692   21.3628 C   0  0  0  0  0  0  0  0  0  0  0  0
    8.0611    0.1022   19.1434 C   0  0  0  0  0  0  0  0  0  0  0  0
    9.4825    1.2564   23.3685 C   0  0  0  0  0  0  0  0  0  0  0  0
    8.2864   -2.3437   25.2753 C   0  0  0  0  0  0  0  0  0  0  0  0
   11.7650    1.3356   24.3006 C   0  0  0  0  0  0  0  0  0  0  0  0
   13.0918    0.8247   23.7649 C   0  0  0  0  0  0  0  0  0  0  0  0
   12.0755   -1.4156   23.4087 C   0  0  0  0  0  0  0  0  0  0  0  0
   10.7231   -0.9016   23.9132 C   0  0  0  0  0  0  0  0  0  0  0  0
    6.8381   -2.0813   25.5575 C   0  0  0  0  0  0  0  0  0  0  0  0
   14.5477   -1.1964   23.6551 C   0  0  0  0  0  0  0  0  0  0  0  0
    8.3445    0.4217   22.8355 C   0  0  0  0  0  0  0  0  0  0  0  0
   10.4265   -1.3447   25.3494 C   0  0  0  0  0  0  0  0  0  0  0  0
    7.5060    0.2369   17.9241 N   0  0  0  0  0  0  0  0  0  0  0  0
    9.2690   -0.4936   19.3943 N   0  0  0  0  0  0  0  0  0  0  0  0
   10.6265    0.5687   23.7856 N   0  0  0  0  0  0  0  0  0  0  0  0
   13.2047   -0.6510   24.0535 N   0  0  0  0  0  0  0  0  0  0  0  0
    9.3614    2.4839   23.4037 O   0  0  0  0  0  0  0  0  0  0  0  0
    8.7193   -3.4038   24.8442 O   0  0  0  0  0  0  0  0  0  0  0  0
    9.0345   -1.2334   25.5702 O   0  0  0  0  0  0  0  0  0  0  0  0
  1  2  2  0
  1  3  1  0
  2  5  1  0
  3 18  2  0
  4  6  2  0
  4 19  1  0
  5  6  1  0
  5  7  2  0
  6 16  1  0
  7 18  1  0
  7 19  1  0
  8 16  1  0
  8 20  1  0
  8 22  2  0
  9 14  1  0
  9 23  2  0
  9 24  1  0
 10 11  1  0
 10 20  1  0
 11 21  1  0
 12 13  1  0
 12 21  1  0
 13 17  1  0
 13 20  1  0
 15 21  1  0
 17 24  1  0
M  CHG  1  21   1
M  END
