NIC-BIO-a68395b7-4
     RDKit          3D

 24 25  0  0  1  0  0  0  0  0999 V2000
   10.4625   -0.1666   25.2315 C   0  0  0  0  0  0  0  0  0  0  0  0
   11.5014    0.4442   24.5292 C   0  0  0  0  0  0  0  0  0  0  0  0
   10.0643    6.3008   23.0472 C   0  0  0  0  0  0  0  0  0  0  0  0
    9.6427    3.9808   23.5737 C   0  0  0  0  0  0  0  0  0  0  0  0
    8.7489    6.4394   22.6045 C   0  0  0  0  0  0  0  0  0  0  0  0
    8.3273    4.1194   23.1309 C   0  0  0  0  0  0  0  0  0  0  0  0
    9.6998   -1.1629   24.6219 C   0  0  0  0  0  0  0  0  0  0  0  0
   11.0150   -0.9375   22.6079 C   0  0  0  0  0  0  0  0  0  0  0  0
   10.5113    5.0715   23.5318 C   0  0  0  0  0  0  0  0  0  0  0  0
   11.7777    0.0588   23.2174 C   0  0  0  0  0  0  0  0  0  0  0  0
    7.8804    5.3487   22.6463 C   0  0  0  0  0  0  0  0  0  0  0  0
    9.9761   -1.5483   23.3101 C   0  0  0  0  0  0  0  0  0  0  0  0
   13.8598    6.4879   21.7676 C   0  0  0  0  0  0  0  0  0  0  0  0
   12.4488    3.1652   22.2940 C   0  0  0  0  0  0  0  0  0  0  0  0
   13.7280    7.3598   20.5632 C   0  0  0  0  0  0  0  0  0  0  0  0
   11.9343    4.9216   24.0115 C   0  0  0  0  0  0  0  0  0  0  0  0
   12.8953    0.7176   22.4618 C   0  0  0  0  0  0  0  0  0  0  0  0
   12.8941    4.4934   22.8954 C   0  0  0  0  0  0  0  0  0  0  0  0
   13.0972    2.0865   22.8792 N   0  0  0  0  0  0  0  0  0  0  0  0
   12.9424    5.4530   21.8211 N   0  0  0  0  0  0  0  0  0  0  0  0
   14.7309    6.7286   22.5953 O   0  0  0  0  0  0  0  0  0  0  0  0
   11.6421    3.0860   21.3699 O   0  0  0  0  0  0  0  0  0  0  0  0
    6.5964    5.4845   22.2154 O   0  0  0  0  0  0  0  0  0  0  0  0
    9.0341   -2.7767   22.5582 Cl  0  0  0  0  0  0  0  0  0  0  0  0
  1  2  2  0
  1  7  1  0
  2 10  1  0
  3  5  2  0
  3  9  1  0
  4  6  1  0
  4  9  2  0
  5 11  1  0
  6 11  2  0
  7 12  2  0
  8 10  2  0
  8 12  1  0
  9 16  1  0
 10 17  1  0
 11 23  1  0
 12 24  1  0
 13 15  1  0
 13 20  1  0
 13 21  2  0
 14 18  1  0
 14 19  1  0
 14 22  2  0
 16 18  1  0
 17 19  1  0
 18 20  1  0
M  END
