NIC-BIO-3276ca7f-3
     RDKit          3D

 24 25  0  0  1  0  0  0  0  0999 V2000
   13.3968   -1.1210   23.0764 C   0  0  0  0  0  0  0  0  0  0  0  0
   14.0599   -0.1278   23.1995 C   0  0  0  0  0  0  0  0  0  0  0  0
    4.1775    1.2955   19.2595 C   0  0  0  0  0  0  0  0  0  0  0  0
    5.1423    0.9492   18.3092 C   0  0  0  0  0  0  0  0  0  0  0  0
    4.4708    1.2755   20.6216 C   0  0  0  0  0  0  0  0  0  0  0  0
    8.5568   -0.0698   18.9570 C   0  0  0  0  0  0  0  0  0  0  0  0
    6.7316    0.5539   20.1357 C   0  0  0  0  0  0  0  0  0  0  0  0
    8.0897    0.1405   20.2339 C   0  0  0  0  0  0  0  0  0  0  0  0
    6.4093    0.5830   18.7772 C   0  0  0  0  0  0  0  0  0  0  0  0
    5.7426    0.9071   21.0751 C   0  0  0  0  0  0  0  0  0  0  0  0
    7.4508   -3.3343   22.5359 C   0  0  0  0  0  0  0  0  0  0  0  0
   10.1842   -1.6891   22.8832 C   0  0  0  0  0  0  0  0  0  0  0  0
    6.1916   -3.6199   23.2849 C   0  0  0  0  0  0  0  0  0  0  0  0
    4.9182    1.2738   23.2755 C   0  0  0  0  0  0  0  0  0  0  0  0
   12.5927   -2.3335   22.9284 C   0  0  0  0  0  0  0  0  0  0  0  0
    8.8900   -0.0423   21.5003 C   0  0  0  0  0  0  0  0  0  0  0  0
    9.0241   -1.5135   21.9098 C   0  0  0  0  0  0  0  0  0  0  0  0
    7.5361    0.2000   18.0852 N   0  0  0  0  0  0  0  0  0  0  0  0
   11.3554   -2.0558   22.2350 N   0  0  0  0  0  0  0  0  0  0  0  0
    7.8389   -2.0061   22.5656 N   0  0  0  0  0  0  0  0  0  0  0  0
    8.0371   -4.2488   21.9687 O   0  0  0  0  0  0  0  0  0  0  0  0
   10.0626   -1.5595   24.0995 O   0  0  0  0  0  0  0  0  0  0  0  0
    5.9929    0.8985   22.4219 O   0  0  0  0  0  0  0  0  0  0  0  0
   15.1094    1.4442   23.3941 Br  0  0  0  0  0  0  0  0  0  0  0  0
  1  2  3  0
  1 15  1  0
  2 24  1  0
  3  4  2  0
  3  5  1  0
  4  9  1  0
  5 10  2  0
  6  8  2  0
  6 18  1  0
  7  8  1  0
  7  9  2  0
  7 10  1  0
  8 16  1  0
  9 18  1  0
 10 23  1  0
 11 13  1  0
 11 20  1  0
 11 21  2  0
 12 17  1  0
 12 19  1  0
 12 22  2  0
 14 23  1  0
 15 19  1  0
 16 17  1  0
 17 20  1  0
M  END
