NIC-BIO-a68395b7-3
     RDKit          3D

 24 25  0  0  1  0  0  0  0  0999 V2000
    9.5232    5.6409   22.8673 C   0  0  0  0  0  0  0  0  0  0  0  0
    9.1440    3.3188   23.4161 C   0  0  0  0  0  0  0  0  0  0  0  0
   10.7141   -1.5776   22.6181 C   0  0  0  0  0  0  0  0  0  0  0  0
   11.0489   -0.1362   24.5279 C   0  0  0  0  0  0  0  0  0  0  0  0
    8.2285    5.7315   22.3562 C   0  0  0  0  0  0  0  0  0  0  0  0
    7.8493    3.4094   22.9050 C   0  0  0  0  0  0  0  0  0  0  0  0
    9.6590   -2.2072   23.2782 C   0  0  0  0  0  0  0  0  0  0  0  0
    9.9937   -0.7658   25.1881 C   0  0  0  0  0  0  0  0  0  0  0  0
    9.9810    4.4345   23.3972 C   0  0  0  0  0  0  0  0  0  0  0  0
   11.4091   -0.5421   23.2430 C   0  0  0  0  0  0  0  0  0  0  0  0
    7.3916    4.6158   22.3751 C   0  0  0  0  0  0  0  0  0  0  0  0
    9.2987   -1.8014   24.5632 C   0  0  0  0  0  0  0  0  0  0  0  0
   13.6501    5.5106   21.4414 C   0  0  0  0  0  0  0  0  0  0  0  0
   12.0345    2.5665   22.2953 C   0  0  0  0  0  0  0  0  0  0  0  0
   13.4964    6.4403   20.2837 C   0  0  0  0  0  0  0  0  0  0  0  0
   11.3816    4.3364   23.9508 C   0  0  0  0  0  0  0  0  0  0  0  0
   12.5439    0.1370   22.5322 C   0  0  0  0  0  0  0  0  0  0  0  0
   12.4092    3.9181   22.8929 C   0  0  0  0  0  0  0  0  0  0  0  0
   12.6838    1.5185   22.9330 N   0  0  0  0  0  0  0  0  0  0  0  0
   12.4838    4.8597   21.8042 N   0  0  0  0  0  0  0  0  0  0  0  0
   14.7467    5.3848   21.9738 O   0  0  0  0  0  0  0  0  0  0  0  0
   11.2787    2.4466   21.3334 O   0  0  0  0  0  0  0  0  0  0  0  0
    6.1279    4.7048   21.8775 O   0  0  0  0  0  0  0  0  0  0  0  0
    7.9969   -2.5781   25.3772 Cl  0  0  0  0  0  0  0  0  0  0  0  0
  1  5  2  0
  1  9  1  0
  2  6  1  0
  2  9  2  0
  3  7  2  0
  3 10  1  0
  4  8  1  0
  4 10  2  0
  5 11  1  0
  6 11  2  0
  7 12  1  0
  8 12  2  0
  9 16  1  0
 10 17  1  0
 11 23  1  0
 12 24  1  0
 13 15  1  0
 13 20  1  0
 13 21  2  0
 14 18  1  0
 14 19  1  0
 14 22  2  0
 16 18  1  0
 17 19  1  0
 18 20  1  0
M  END
