NIC-BIO-29f4a211-2
     RDKit          3D

 21 23  0  0  1  0  0  0  0  0999 V2000
    5.3516    0.9840   18.7013 C   0  0  0  0  0  0  0  0  0  0  0  0
    5.8775    0.8420   19.9842 C   0  0  0  0  0  0  0  0  0  0  0  0
    6.1603    0.6898   17.6118 C   0  0  0  0  0  0  0  0  0  0  0  0
    9.2953   -0.2719   20.6309 C   0  0  0  0  0  0  0  0  0  0  0  0
    7.2068    0.4055   20.1033 C   0  0  0  0  0  0  0  0  0  0  0  0
    8.0976    0.1376   21.1763 C   0  0  0  0  0  0  0  0  0  0  0  0
    7.9036    0.1461   18.9267 C   0  0  0  0  0  0  0  0  0  0  0  0
    8.7319    1.2442   23.3212 C   0  0  0  0  0  0  0  0  0  0  0  0
   11.1150    1.5897   23.8563 C   0  0  0  0  0  0  0  0  0  0  0  0
   12.3689    0.8724   23.3857 C   0  0  0  0  0  0  0  0  0  0  0  0
   11.3537   -1.3043   24.0258 C   0  0  0  0  0  0  0  0  0  0  0  0
   10.0702   -0.5949   24.4698 C   0  0  0  0  0  0  0  0  0  0  0  0
    8.6736    0.1474   26.4056 C   0  0  0  0  0  0  0  0  0  0  0  0
   13.8327   -1.0909   23.8543 C   0  0  0  0  0  0  0  0  0  0  0  0
    7.8001    0.2730   22.6398 C   0  0  0  0  0  0  0  0  0  0  0  0
    9.9718   -0.4607   25.9928 C   0  0  0  0  0  0  0  0  0  0  0  0
    7.4447    0.2667   17.6666 N   0  0  0  0  0  0  0  0  0  0  0  0
    9.1664   -0.2626   19.2662 N   0  0  0  0  0  0  0  0  0  0  0  0
    9.9324    0.7241   23.8154 N   0  0  0  0  0  0  0  0  0  0  0  0
   12.5441   -0.3922   24.1880 N   0  0  0  0  0  0  0  0  0  0  0  0
    8.4062    2.4315   23.4030 O   0  0  0  0  0  0  0  0  0  0  0  0
  1  2  2  0
  1  3  1  0
  2  5  1  0
  3 17  2  0
  4  6  2  0
  4 18  1  0
  5  6  1  0
  5  7  2  0
  6 15  1  0
  7 17  1  0
  7 18  1  0
  8 15  1  0
  8 19  1  0
  8 21  2  0
  9 10  1  0
  9 19  1  0
 10 20  1  0
 11 12  1  0
 11 20  1  0
 12 16  1  0
 12 19  1  0
 13 16  1  0
 14 20  1  0
M  CHG  1  20   1
M  END
