NIC-BIO-3276ca7f-2
     RDKit          3D

 22 23  0  0  1  0  0  0  0  0999 V2000
    6.8499   -5.0795   27.3867 C   0  0  0  0  0  0  0  0  0  0  0  0
    5.7772   -5.6109   27.4773 C   0  0  0  0  0  0  0  0  0  0  0  0
   13.4565   -1.5588   22.6075 C   0  0  0  0  0  0  0  0  0  0  0  0
   13.8635   -0.6871   23.6157 C   0  0  0  0  0  0  0  0  0  0  0  0
   12.1279   -1.9915   22.5278 C   0  0  0  0  0  0  0  0  0  0  0  0
   12.9589   -0.2210   24.5740 C   0  0  0  0  0  0  0  0  0  0  0  0
    9.4374   -1.0334   24.8089 C   0  0  0  0  0  0  0  0  0  0  0  0
   11.1979   -1.5350   23.4829 C   0  0  0  0  0  0  0  0  0  0  0  0
    9.8100   -1.7602   23.7018 C   0  0  0  0  0  0  0  0  0  0  0  0
   11.6340   -0.6620   24.4819 C   0  0  0  0  0  0  0  0  0  0  0  0
    7.8078   -6.2114   22.7639 C   0  0  0  0  0  0  0  0  0  0  0  0
    7.9335   -3.8010   24.8788 C   0  0  0  0  0  0  0  0  0  0  0  0
    6.8316   -6.8713   21.8474 C   0  0  0  0  0  0  0  0  0  0  0  0
    8.1564   -4.4311   27.2811 C   0  0  0  0  0  0  0  0  0  0  0  0
    8.9005   -2.6373   22.8763 C   0  0  0  0  0  0  0  0  0  0  0  0
    8.6275   -3.9943   23.5352 C   0  0  0  0  0  0  0  0  0  0  0  0
   10.5442   -0.3742   25.2723 N   0  0  0  0  0  0  0  0  0  0  0  0
    8.6223   -4.4191   25.9131 N   0  0  0  0  0  0  0  0  0  0  0  0
    7.7717   -4.8283   22.7294 N   0  0  0  0  0  0  0  0  0  0  0  0
    8.5452   -6.9006   23.4588 O   0  0  0  0  0  0  0  0  0  0  0  0
    6.8668   -3.2024   25.0009 O   0  0  0  0  0  0  0  0  0  0  0  0
    4.0792   -6.4517   27.6205 Br  0  0  0  0  0  0  0  0  0  0  0  0
  1  2  3  0
  1 14  1  0
  2 22  1  0
  3  4  2  0
  3  5  1  0
  4  6  1  0
  5  8  2  0
  6 10  2  0
  7  9  2  0
  7 17  1  0
  8  9  1  0
  8 10  1  0
  9 15  1  0
 10 17  1  0
 11 13  1  0
 11 19  1  0
 11 20  2  0
 12 16  1  0
 12 18  1  0
 12 21  2  0
 14 18  1  0
 15 16  1  0
 16 19  1  0
M  END
