NIC-BIO-25446079-3
     RDKit          3D

 20 22  0  0  0  0  0  0  0  0999 V2000
    5.6472    1.5456   19.4081 C   0  0  0  0  0  0  0  0  0  0  0  0
    6.0477    1.0456   20.6459 C   0  0  0  0  0  0  0  0  0  0  0  0
    6.3822    1.2047   18.2806 C   0  0  0  0  0  0  0  0  0  0  0  0
    8.9500   -1.1293   21.0783 C   0  0  0  0  0  0  0  0  0  0  0  0
    7.1817    0.2182   20.6830 C   0  0  0  0  0  0  0  0  0  0  0  0
    7.9030   -0.4750   21.6909 C   0  0  0  0  0  0  0  0  0  0  0  0
    7.8243   -0.0422   19.4762 C   0  0  0  0  0  0  0  0  0  0  0  0
    8.7177   -1.0581   24.0090 C   0  0  0  0  0  0  0  0  0  0  0  0
   12.1644    0.4505   24.3524 C   0  0  0  0  0  0  0  0  0  0  0  0
   11.5729   -2.0035   24.2607 C   0  0  0  0  0  0  0  0  0  0  0  0
   12.7639    0.3497   22.9545 C   0  0  0  0  0  0  0  0  0  0  0  0
   12.1663   -2.0831   22.8593 C   0  0  0  0  0  0  0  0  0  0  0  0
   11.0807   -0.5985   24.6135 C   0  0  0  0  0  0  0  0  0  0  0  0
   13.9732   -1.1779   21.3997 C   0  0  0  0  0  0  0  0  0  0  0  0
    7.5902   -0.4975   23.1636 C   0  0  0  0  0  0  0  0  0  0  0  0
    7.4802    0.4139   18.2569 N   0  0  0  0  0  0  0  0  0  0  0  0
    8.8928   -0.8595   19.7355 N   0  0  0  0  0  0  0  0  0  0  0  0
    9.8624   -0.2838   23.9030 N   0  0  0  0  0  0  0  0  0  0  0  0
   13.2629   -1.0552   22.7198 N   0  0  0  0  0  0  0  0  0  0  0  0
    8.6105   -2.0696   24.6976 O   0  0  0  0  0  0  0  0  0  0  0  0
  1  2  2  0
  1  3  1  0
  2  5  1  0
  3 16  2  0
  4  6  2  0
  4 17  1  0
  5  6  1  0
  5  7  2  0
  6 15  1  0
  7 16  1  0
  7 17  1  0
  8 15  1  0
  8 18  1  0
  8 20  2  0
  9 11  1  0
  9 13  1  0
 10 12  1  0
 10 13  1  0
 11 19  1  0
 12 19  1  0
 13 18  1  0
 14 19  1  0
M  CHG  1  19   1
M  END
