NIC-BIO-5044b423-1
     RDKit          3D

 21 23  0  0  1  0  0  0  0  0999 V2000
    7.5347   -6.2755   21.8487 C   0  0  0  0  0  0  0  0  0  0  0  0
    7.9052   -5.5177   22.9581 C   0  0  0  0  0  0  0  0  0  0  0  0
    6.2379   -6.1629   21.3659 C   0  0  0  0  0  0  0  0  0  0  0  0
    5.6248   -3.2361   24.6713 C   0  0  0  0  0  0  0  0  0  0  0  0
    6.9375   -4.6758   23.5298 C   0  0  0  0  0  0  0  0  0  0  0  0
    6.8945   -3.7703   24.6228 C   0  0  0  0  0  0  0  0  0  0  0  0
    5.6751   -4.6606   22.9438 C   0  0  0  0  0  0  0  0  0  0  0  0
    9.3417   -3.4754   24.8282 C   0  0  0  0  0  0  0  0  0  0  0  0
   10.5586   -2.3297   23.0040 C   0  0  0  0  0  0  0  0  0  0  0  0
    9.4630   -0.9375   24.7171 C   0  0  0  0  0  0  0  0  0  0  0  0
    9.9345   -1.4938   21.8961 C   0  0  0  0  0  0  0  0  0  0  0  0
    8.8235   -0.0789   23.6343 C   0  0  0  0  0  0  0  0  0  0  0  0
    9.1800    0.8186   21.3315 C   0  0  0  0  0  0  0  0  0  0  0  0
    8.0856   -4.3885   26.7684 C   0  0  0  0  0  0  0  0  0  0  0  0
    8.0281   -3.4445   25.5679 C   0  0  0  0  0  0  0  0  0  0  0  0
    5.2663   -5.3704   21.8752 N   0  0  0  0  0  0  0  0  0  0  0  0
    4.8939   -3.7833   23.6489 N   0  0  0  0  0  0  0  0  0  0  0  0
    9.7423   -2.2880   24.2173 N   0  0  0  0  0  0  0  0  0  0  0  0
    9.7076   -0.0886   22.4072 N   0  0  0  0  0  0  0  0  0  0  0  0
    9.9894   -4.5248   24.7932 O   0  0  0  0  0  0  0  0  0  0  0  0
    8.3077   -5.7179   26.3085 O   0  0  0  0  0  0  0  0  0  0  0  0
  1  2  2  0
  1  3  1  0
  2  5  1  0
  3 16  2  0
  4  6  2  0
  4 17  1  0
  5  6  1  0
  5  7  2  0
  6 15  1  0
  7 16  1  0
  7 17  1  0
  8 15  1  0
  8 18  1  0
  8 20  2  0
  9 11  1  0
  9 18  1  0
 10 12  1  0
 10 18  1  0
 11 19  1  0
 12 19  1  0
 13 19  1  0
 14 15  1  0
 14 21  1  0
M  CHG  1  19   1
M  END
