NIC-BIO-ec630548-1
     RDKit          3D

 21 23  0  0  1  0  0  0  0  0999 V2000
    5.7935    1.2750   19.1932 C   0  0  0  0  0  0  0  0  0  0  0  0
    6.4909    1.1228   20.3902 C   0  0  0  0  0  0  0  0  0  0  0  0
    6.3701    0.8069   18.0201 C   0  0  0  0  0  0  0  0  0  0  0  0
    9.7786   -0.4544   20.6007 C   0  0  0  0  0  0  0  0  0  0  0  0
    7.7482    0.4993   20.3417 C   0  0  0  0  0  0  0  0  0  0  0  0
    8.7515    0.1574   21.2867 C   0  0  0  0  0  0  0  0  0  0  0  0
    8.2065    0.0778   19.0969 C   0  0  0  0  0  0  0  0  0  0  0  0
    9.8661    1.2667   23.2244 C   0  0  0  0  0  0  0  0  0  0  0  0
   12.3285    1.2794   23.3705 C   0  0  0  0  0  0  0  0  0  0  0  0
   13.3794    0.3592   22.7727 C   0  0  0  0  0  0  0  0  0  0  0  0
   12.1845   -1.6050   23.7177 C   0  0  0  0  0  0  0  0  0  0  0  0
   11.0994   -0.6896   24.2942 C   0  0  0  0  0  0  0  0  0  0  0  0
   14.6102   -1.7739   23.1627 C   0  0  0  0  0  0  0  0  0  0  0  0
    8.7117    0.4116   22.7640 C   0  0  0  0  0  0  0  0  0  0  0  0
   11.2634   -0.4631   25.8005 C   0  0  0  0  0  0  0  0  0  0  0  0
    7.5750    0.2000   17.9140 N   0  0  0  0  0  0  0  0  0  0  0  0
    9.4376   -0.4970   19.2736 N   0  0  0  0  0  0  0  0  0  0  0  0
   11.0452    0.5994   23.5712 N   0  0  0  0  0  0  0  0  0  0  0  0
   13.5012   -0.8739   23.6320 N   0  0  0  0  0  0  0  0  0  0  0  0
    9.7267    2.4921   23.2651 O   0  0  0  0  0  0  0  0  0  0  0  0
   10.0271   -0.0145   26.3195 O   0  0  0  0  0  0  0  0  0  0  0  0
  1  2  2  0
  1  3  1  0
  2  5  1  0
  3 16  2  0
  4  6  2  0
  4 17  1  0
  5  6  1  0
  5  7  2  0
  6 14  1  0
  7 16  1  0
  7 17  1  0
  8 14  1  0
  8 18  1  0
  8 20  2  0
  9 10  1  0
  9 18  1  0
 10 19  1  0
 11 12  1  0
 11 19  1  0
 12 15  1  0
 12 18  1  0
 13 19  1  0
 15 21  1  0
M  CHG  1  19   1
M  END
