NIC-UNI-f08e2453-2
     RDKit          3D

 30 33  0  0  0  0  0  0  0  0999 V2000
    6.1313    0.0756   20.5564 C   0  0  0  0  0  0  0  0  0  0  0  0
    6.9028    1.2971   18.6474 C   0  0  0  0  0  0  0  0  0  0  0  0
    6.6626   -3.1455   18.9185 C   0  0  0  0  0  0  0  0  0  0  0  0
    6.3776   -1.0961   19.8226 C   0  0  0  0  0  0  0  0  0  0  0  0
    6.4044    1.2970   19.9433 C   0  0  0  0  0  0  0  0  0  0  0  0
    6.2449   -2.4903   20.0569 C   0  0  0  0  0  0  0  0  0  0  0  0
    6.8784   -0.9501   18.5322 C   0  0  0  0  0  0  0  0  0  0  0  0
    6.7734   -3.1241   22.4120 C   0  0  0  0  0  0  0  0  0  0  0  0
    7.9389    2.9153   22.3817 C   0  0  0  0  0  0  0  0  0  0  0  0
   12.7303    4.0295   22.9848 C   0  0  0  0  0  0  0  0  0  0  0  0
   12.0456    2.6970   22.6919 C   0  0  0  0  0  0  0  0  0  0  0  0
   11.7282    5.1774   23.0736 C   0  0  0  0  0  0  0  0  0  0  0  0
   10.9330    2.4027   23.6991 C   0  0  0  0  0  0  0  0  0  0  0  0
   10.6166    4.8774   24.0801 C   0  0  0  0  0  0  0  0  0  0  0  0
    7.3619   -3.7681   24.7271 C   0  0  0  0  0  0  0  0  0  0  0  0
    5.1612   -4.4572   23.8581 C   0  0  0  0  0  0  0  0  0  0  0  0
    6.7162   -3.2355   25.9980 C   0  0  0  0  0  0  0  0  0  0  0  0
    4.4821   -3.9362   25.1176 C   0  0  0  0  0  0  0  0  0  0  0  0
    9.9110    3.5423   23.8074 C   0  0  0  0  0  0  0  0  0  0  0  0
    4.8129   -3.6079   27.5708 C   0  0  0  0  0  0  0  0  0  0  0  0
    5.7431   -3.1419   21.3111 C   0  0  0  0  0  0  0  0  0  0  0  0
    6.1651    2.5763   20.6664 C   0  0  0  0  0  0  0  0  0  0  0  0
    7.1590    0.2021   17.8945 N   0  0  0  0  0  0  0  0  0  0  0  0
    7.0448   -2.2018   18.0007 N   0  0  0  0  0  0  0  0  0  0  0  0
    6.4189   -3.7449   23.6089 N   0  0  0  0  0  0  0  0  0  0  0  0
    9.1174    3.6298   22.5797 N   0  0  0  0  0  0  0  0  0  0  0  0
    7.3879    3.1836   21.1299 N   0  0  0  0  0  0  0  0  0  0  0  0
    5.4526   -4.0191   26.2746 N   0  0  0  0  0  0  0  0  0  0  0  0
    7.8588   -2.5723   22.2131 O   0  0  0  0  0  0  0  0  0  0  0  0
    7.4448    2.1458   23.2047 O   0  0  0  0  0  0  0  0  0  0  0  0
  1  4  2  0
  1  5  1  0
  2  5  2  0
  2 23  1  0
  3  6  2  0
  3 24  1  0
  4  6  1  0
  4  7  1  0
  5 22  1  0
  6 21  1  0
  7 23  2  0
  7 24  1  0
  8 21  1  0
  8 25  1  0
  8 29  2  0
  9 26  1  0
  9 27  1  0
  9 30  2  0
 10 11  1  0
 10 12  1  0
 11 13  1  0
 12 14  1  0
 13 19  1  0
 14 19  1  0
 15 17  1  0
 15 25  1  0
 16 18  1  0
 16 25  1  0
 17 28  1  0
 18 28  1  0
 19 26  1  0
 20 28  1  0
 22 27  1  0
M  CHG  1  28   1
M  END
