NIC-BIO-a68395b7-5
     RDKit          3D

 24 25  0  0  1  0  0  0  0  0999 V2000
    9.5209    5.7687   23.0362 C   0  0  0  0  0  0  0  0  0  0  0  0
    9.0533    3.4770   23.6416 C   0  0  0  0  0  0  0  0  0  0  0  0
   10.5440   -1.4807   23.1034 C   0  0  0  0  0  0  0  0  0  0  0  0
   10.8048    0.0204   24.9785 C   0  0  0  0  0  0  0  0  0  0  0  0
    8.2598    5.8709   22.4490 C   0  0  0  0  0  0  0  0  0  0  0  0
    7.7921    3.5792   23.0544 C   0  0  0  0  0  0  0  0  0  0  0  0
    9.4387   -2.0632   23.7235 C   0  0  0  0  0  0  0  0  0  0  0  0
    9.6994   -0.5621   25.5986 C   0  0  0  0  0  0  0  0  0  0  0  0
    9.9176    4.5717   23.6325 C   0  0  0  0  0  0  0  0  0  0  0  0
   11.2271   -0.4388   23.7309 C   0  0  0  0  0  0  0  0  0  0  0  0
    7.3954    4.7762   22.4581 C   0  0  0  0  0  0  0  0  0  0  0  0
    9.0164   -1.6040   24.9711 C   0  0  0  0  0  0  0  0  0  0  0  0
   13.7172    5.4925   21.8545 C   0  0  0  0  0  0  0  0  0  0  0  0
   11.9826    2.6188   22.7148 C   0  0  0  0  0  0  0  0  0  0  0  0
   13.6524    6.3836   20.6587 C   0  0  0  0  0  0  0  0  0  0  0  0
   11.2818    4.4611   24.2685 C   0  0  0  0  0  0  0  0  0  0  0  0
   12.4168    0.1882   23.0635 C   0  0  0  0  0  0  0  0  0  0  0  0
   12.3567    3.9818   23.2861 C   0  0  0  0  0  0  0  0  0  0  0  0
   12.5684    1.5795   23.4241 N   0  0  0  0  0  0  0  0  0  0  0  0
   12.5163    4.8820   22.1719 N   0  0  0  0  0  0  0  0  0  0  0  0
   14.7784    5.3605   22.4528 O   0  0  0  0  0  0  0  0  0  0  0  0
   11.2796    2.4821   21.7158 O   0  0  0  0  0  0  0  0  0  0  0  0
    6.1644    4.8765   21.8861 O   0  0  0  0  0  0  0  0  0  0  0  0
    7.5191   -2.3942   25.8108 Br  0  0  0  0  0  0  0  0  0  0  0  0
  1  5  2  0
  1  9  1  0
  2  6  1  0
  2  9  2  0
  3  7  2  0
  3 10  1  0
  4  8  1  0
  4 10  2  0
  5 11  1  0
  6 11  2  0
  7 12  1  0
  8 12  2  0
  9 16  1  0
 10 17  1  0
 11 23  1  0
 12 24  1  0
 13 15  1  0
 13 20  1  0
 13 21  2  0
 14 18  1  0
 14 19  1  0
 14 22  2  0
 16 18  1  0
 17 19  1  0
 18 20  1  0
M  END
