NIC-BIO-7d400292-1
     RDKit          3D

 21 21  0  0  1  0  0  0  0  0999 V2000
    6.5461    0.3133   19.1394 C   0  0  0  0  0  0  0  0  0  0  0  0
    6.6040    0.2713   17.9409 C   0  0  0  0  0  0  0  0  0  0  0  0
   12.7482    0.2617   23.4311 C   0  0  0  0  0  0  0  0  0  0  0  0
   13.7190   -0.1580   24.3404 C   0  0  0  0  0  0  0  0  0  0  0  0
   13.1094   -1.7370   22.1228 C   0  0  0  0  0  0  0  0  0  0  0  0
   12.4433   -0.5278   22.3223 C   0  0  0  0  0  0  0  0  0  0  0  0
   14.3851   -1.3672   24.1409 C   0  0  0  0  0  0  0  0  0  0  0  0
   14.0803   -2.1567   23.0321 C   0  0  0  0  0  0  0  0  0  0  0  0
    9.4232   -2.9299   22.2147 C   0  0  0  0  0  0  0  0  0  0  0  0
    8.9335    0.2715   20.9825 C   0  0  0  0  0  0  0  0  0  0  0  0
    9.2546   -4.2790   21.5985 C   0  0  0  0  0  0  0  0  0  0  0  0
    6.4714    0.3668   20.5989 C   0  0  0  0  0  0  0  0  0  0  0  0
   11.3942   -0.0718   21.3379 C   0  0  0  0  0  0  0  0  0  0  0  0
    9.9880   -0.5638   21.6997 C   0  0  0  0  0  0  0  0  0  0  0  0
    7.6508   -0.2113   21.2018 N   0  0  0  0  0  0  0  0  0  0  0  0
    9.7767   -1.9372   21.3173 N   0  0  0  0  0  0  0  0  0  0  0  0
    9.2457   -2.7892   23.4190 O   0  0  0  0  0  0  0  0  0  0  0  0
    9.2131    1.2288   20.2640 O   0  0  0  0  0  0  0  0  0  0  0  0
   15.3327   -1.7752   25.0287 O   0  0  0  0  0  0  0  0  0  0  0  0
   14.7171   -3.3192   22.8350 F   0  0  0  0  0  0  0  0  0  0  0  0
    6.6959    0.2052   16.0442 Br  0  0  0  0  0  0  0  0  0  0  0  0
  1  2  3  0
  1 12  1  0
  2 21  1  0
  3  4  2  0
  3  6  1  0
  4  7  1  0
  5  6  2  0
  5  8  1  0
  6 13  1  0
  7  8  2  0
  7 19  1  0
  8 20  1  0
  9 11  1  0
  9 16  1  0
  9 17  2  0
 10 14  1  0
 10 15  1  0
 10 18  2  0
 12 15  1  0
 13 14  1  0
 14 16  1  0
M  END
