NIC-BIO-b40446ce-2
     RDKit          3D

 29 31  0  0  1  0  0  0  0  0999 V2000
    8.7828   -3.2348   22.8095 C   0  0  0  0  0  0  0  0  0  0  0  0
    9.6748   -3.1646   23.8796 C   0  0  0  0  0  0  0  0  0  0  0  0
    8.9245   -2.3686   21.7254 C   0  0  0  0  0  0  0  0  0  0  0  0
    5.8304    0.2538   21.0849 C   0  0  0  0  0  0  0  0  0  0  0  0
   10.7085   -2.2282   23.8656 C   0  0  0  0  0  0  0  0  0  0  0  0
    9.9582   -1.4322   21.7114 C   0  0  0  0  0  0  0  0  0  0  0  0
    5.8528    1.6022   20.7175 C   0  0  0  0  0  0  0  0  0  0  0  0
    6.6396   -0.2242   22.1138 C   0  0  0  0  0  0  0  0  0  0  0  0
    7.8814    4.2175   22.1875 C   0  0  0  0  0  0  0  0  0  0  0  0
    7.5380    1.9994   22.4553 C   0  0  0  0  0  0  0  0  0  0  0  0
   10.8502   -1.3619   22.7814 C   0  0  0  0  0  0  0  0  0  0  0  0
    8.2673    3.1254   22.9300 C   0  0  0  0  0  0  0  0  0  0  0  0
    6.7160    2.4503   21.4203 C   0  0  0  0  0  0  0  0  0  0  0  0
    7.4982    0.6358   22.8081 C   0  0  0  0  0  0  0  0  0  0  0  0
   11.5205    5.5009   23.2540 C   0  0  0  0  0  0  0  0  0  0  0  0
   10.9951    1.9417   22.6497 C   0  0  0  0  0  0  0  0  0  0  0  0
    7.6709    0.1650   25.0744 C   0  0  0  0  0  0  0  0  0  0  0  0
   11.7293    6.5812   22.2452 C   0  0  0  0  0  0  0  0  0  0  0  0
    8.6015   -0.4091   26.1011 C   0  0  0  0  0  0  0  0  0  0  0  0
    9.2857    3.1392   24.0437 C   0  0  0  0  0  0  0  0  0  0  0  0
   11.9625   -0.3536   22.7658 C   0  0  0  0  0  0  0  0  0  0  0  0
   10.7289    3.1597   23.5272 C   0  0  0  0  0  0  0  0  0  0  0  0
    6.9453    3.8004   21.2797 N   0  0  0  0  0  0  0  0  0  0  0  0
   11.5653    0.8992   23.3670 N   0  0  0  0  0  0  0  0  0  0  0  0
   11.0052    4.3282   22.7299 N   0  0  0  0  0  0  0  0  0  0  0  0
   11.8056    5.7071   24.4278 O   0  0  0  0  0  0  0  0  0  0  0  0
   10.7649    1.9237   21.4424 O   0  0  0  0  0  0  0  0  0  0  0  0
    6.5531    0.5965   25.3235 O   0  0  0  0  0  0  0  0  0  0  0  0
    8.2792    0.1289   23.8129 O   0  0  0  0  0  0  0  0  0  0  0  0
  1  2  2  0
  1  3  1  0
  2  5  1  0
  3  6  2  0
  4  7  2  0
  4  8  1  0
  5 11  2  0
  6 11  1  0
  7 13  1  0
  8 14  2  0
  9 12  2  0
  9 23  1  0
 10 12  1  0
 10 13  2  0
 10 14  1  0
 11 21  1  0
 12 20  1  0
 13 23  1  0
 14 29  1  0
 15 18  1  0
 15 25  1  0
 15 26  2  0
 16 22  1  0
 16 24  1  0
 16 27  2  0
 17 19  1  0
 17 28  2  0
 17 29  1  0
 20 22  1  0
 21 24  1  0
 22 25  1  0
M  END
