NIC-BIO-b40446ce-1
     RDKit          3D

 26 27  0  0  1  0  0  0  0  0999 V2000
   10.3578    1.2157   22.1426 C   0  0  0  0  0  0  0  0  0  0  0  0
   11.3535    1.6866   22.6203 C   0  0  0  0  0  0  0  0  0  0  0  0
    5.8730   -4.3427   27.9940 C   0  0  0  0  0  0  0  0  0  0  0  0
    6.6105   -5.4579   27.5861 C   0  0  0  0  0  0  0  0  0  0  0  0
    6.0750   -3.0944   27.4085 C   0  0  0  0  0  0  0  0  0  0  0  0
    9.1669   -5.5485   25.0224 C   0  0  0  0  0  0  0  0  0  0  0  0
    7.7797   -4.0339   25.9665 C   0  0  0  0  0  0  0  0  0  0  0  0
    8.7986   -4.2233   24.9913 C   0  0  0  0  0  0  0  0  0  0  0  0
    7.5559   -5.2727   26.5711 C   0  0  0  0  0  0  0  0  0  0  0  0
    7.0242   -2.9241   26.3942 C   0  0  0  0  0  0  0  0  0  0  0  0
    7.1264   -4.8442   22.2615 C   0  0  0  0  0  0  0  0  0  0  0  0
    9.1341   -1.8107   21.9863 C   0  0  0  0  0  0  0  0  0  0  0  0
    6.0395   -1.1659   25.2423 C   0  0  0  0  0  0  0  0  0  0  0  0
    7.0542   -5.9861   21.3028 C   0  0  0  0  0  0  0  0  0  0  0  0
    6.0475    0.3313   25.3323 C   0  0  0  0  0  0  0  0  0  0  0  0
    9.1448    0.6457   21.5576 C   0  0  0  0  0  0  0  0  0  0  0  0
    9.3841   -3.1728   24.0795 C   0  0  0  0  0  0  0  0  0  0  0  0
    8.4778   -2.8524   22.8853 C   0  0  0  0  0  0  0  0  0  0  0  0
    8.4116   -6.1734   25.9782 N   0  0  0  0  0  0  0  0  0  0  0  0
    8.7136   -0.5233   22.2899 N   0  0  0  0  0  0  0  0  0  0  0  0
    8.2174   -4.0139   22.0725 N   0  0  0  0  0  0  0  0  0  0  0  0
    6.2569   -4.7164   23.1155 O   0  0  0  0  0  0  0  0  0  0  0  0
    9.9076   -2.1036   21.0769 O   0  0  0  0  0  0  0  0  0  0  0  0
    5.1480   -1.8189   24.7163 O   0  0  0  0  0  0  0  0  0  0  0  0
    7.1951   -1.6814   25.8436 O   0  0  0  0  0  0  0  0  0  0  0  0
   12.9293    2.4320   23.3765 Br  0  0  0  0  0  0  0  0  0  0  0  0
  1  2  3  0
  1 16  1  0
  2 26  1  0
  3  4  2  0
  3  5  1  0
  4  9  1  0
  5 10  2  0
  6  8  2  0
  6 19  1  0
  7  8  1  0
  7  9  2  0
  7 10  1  0
  8 17  1  0
  9 19  1  0
 10 25  1  0
 11 14  1  0
 11 21  1  0
 11 22  2  0
 12 18  1  0
 12 20  1  0
 12 23  2  0
 13 15  1  0
 13 24  2  0
 13 25  1  0
 16 20  1  0
 17 18  1  0
 18 21  1  0
M  END
