NIC-BIO-29f4a211-1
     RDKit          3D

 20 22  0  0  1  0  0  0  0  0999 V2000
    5.2736    1.2065   19.0872 C   0  0  0  0  0  0  0  0  0  0  0  0
    5.8413    0.9881   20.3411 C   0  0  0  0  0  0  0  0  0  0  0  0
    5.9933    0.8451   17.9562 C   0  0  0  0  0  0  0  0  0  0  0  0
    9.1461   -0.4954   20.8077 C   0  0  0  0  0  0  0  0  0  0  0  0
    7.1201    0.4100   20.3903 C   0  0  0  0  0  0  0  0  0  0  0  0
    8.0267    0.0310   21.4155 C   0  0  0  0  0  0  0  0  0  0  0  0
    7.7283    0.0967   19.1783 C   0  0  0  0  0  0  0  0  0  0  0  0
    8.8774    1.0283   23.5389 C   0  0  0  0  0  0  0  0  0  0  0  0
   11.1043    1.1633   24.5914 C   0  0  0  0  0  0  0  0  0  0  0  0
   12.4820    0.7619   24.0923 C   0  0  0  0  0  0  0  0  0  0  0  0
   11.6120   -1.4989   23.5352 C   0  0  0  0  0  0  0  0  0  0  0  0
   10.2100   -1.0936   24.0020 C   0  0  0  0  0  0  0  0  0  0  0  0
    9.8702   -1.6505   25.3882 C   0  0  0  0  0  0  0  0  0  0  0  0
   14.0532   -1.1667   23.9235 C   0  0  0  0  0  0  0  0  0  0  0  0
    7.8152    0.1736   22.8931 C   0  0  0  0  0  0  0  0  0  0  0  0
    7.2258    0.2863   17.9435 N   0  0  0  0  0  0  0  0  0  0  0  0
    8.9544   -0.4503   19.4511 N   0  0  0  0  0  0  0  0  0  0  0  0
   10.0370    0.3748   23.9680 N   0  0  0  0  0  0  0  0  0  0  0  0
   12.6639   -0.7222   24.2873 N   0  0  0  0  0  0  0  0  0  0  0  0
    8.6858    2.2422   23.6497 O   0  0  0  0  0  0  0  0  0  0  0  0
  1  2  2  0
  1  3  1  0
  2  5  1  0
  3 16  2  0
  4  6  2  0
  4 17  1  0
  5  6  1  0
  5  7  2  0
  6 15  1  0
  7 16  1  0
  7 17  1  0
  8 15  1  0
  8 18  1  0
  8 20  2  0
  9 10  1  0
  9 18  1  0
 10 19  1  0
 11 12  1  0
 11 19  1  0
 12 13  1  0
 12 18  1  0
 14 19  1  0
M  CHG  1  19   1
M  END
