NIC-BIO-174c9b04-3
     RDKit          3D

 24 27  0  0  0  0  0  0  0  0999 V2000
    5.0823   -5.1491   26.1467 C   0  0  0  0  0  0  0  0  0  0  0  0
    6.0239   -4.2620   25.6282 C   0  0  0  0  0  0  0  0  0  0  0  0
    5.5271   -6.3174   26.7507 C   0  0  0  0  0  0  0  0  0  0  0  0
    9.6244   -4.8569   25.7779 C   0  0  0  0  0  0  0  0  0  0  0  0
    7.3809   -4.6029   25.7470 C   0  0  0  0  0  0  0  0  0  0  0  0
    8.6156   -4.0100   25.3721 C   0  0  0  0  0  0  0  0  0  0  0  0
    7.6862   -5.8063   26.3762 C   0  0  0  0  0  0  0  0  0  0  0  0
    7.5647   -2.5305   23.8001 C   0  0  0  0  0  0  0  0  0  0  0  0
   10.3707   -0.1944   24.0109 C   0  0  0  0  0  0  0  0  0  0  0  0
   10.3373   -1.3649   23.0393 C   0  0  0  0  0  0  0  0  0  0  0  0
    9.0844   -0.1167   24.8205 C   0  0  0  0  0  0  0  0  0  0  0  0
   10.0544   -2.6932   23.7449 C   0  0  0  0  0  0  0  0  0  0  0  0
    8.8106   -1.4275   25.5610 C   0  0  0  0  0  0  0  0  0  0  0  0
    6.1537   -3.4599   21.9943 C   0  0  0  0  0  0  0  0  0  0  0  0
    8.2440   -4.6443   22.5615 C   0  0  0  0  0  0  0  0  0  0  0  0
    5.3830   -4.7717   22.0128 C   0  0  0  0  0  0  0  0  0  0  0  0
    7.5017   -5.9738   22.5851 C   0  0  0  0  0  0  0  0  0  0  0  0
    8.8040   -2.6730   24.6474 C   0  0  0  0  0  0  0  0  0  0  0  0
    6.6300   -6.0350   20.2143 C   0  0  0  0  0  0  0  0  0  0  0  0
    6.8183   -6.6966   26.8929 N   0  0  0  0  0  0  0  0  0  0  0  0
    9.0494   -5.9430   26.3852 N   0  0  0  0  0  0  0  0  0  0  0  0
    7.3376   -3.5277   22.8518 N   0  0  0  0  0  0  0  0  0  0  0  0
    6.2952   -5.9286   21.6769 N   0  0  0  0  0  0  0  0  0  0  0  0
    6.8208   -1.5627   23.9791 O   0  0  0  0  0  0  0  0  0  0  0  0
  1  2  2  0
  1  3  1  0
  2  5  1  0
  3 20  2  0
  4  6  2  0
  4 21  1  0
  5  6  1  0
  5  7  2  0
  6 18  1  0
  7 20  1  0
  7 21  1  0
  8 18  1  0
  8 22  1  0
  8 24  2  0
  9 10  1  0
  9 11  1  0
 10 12  1  0
 11 13  1  0
 12 18  1  0
 13 18  1  0
 14 16  1  0
 14 22  1  0
 15 17  1  0
 15 22  1  0
 16 23  1  0
 17 23  1  0
 19 23  1  0
M  CHG  1  23   1
M  END
