NIC-BIO-2722da07-2
     RDKit          3D

 29 32  0  0  1  0  0  0  0  0999 V2000
   14.4328   -1.5406   23.1538 C   0  0  0  0  0  0  0  0  0  0  0  0
   14.1501   -0.9998   24.4081 C   0  0  0  0  0  0  0  0  0  0  0  0
   13.4071   -1.7247   22.2264 C   0  0  0  0  0  0  0  0  0  0  0  0
    4.9466    0.8869   18.6531 C   0  0  0  0  0  0  0  0  0  0  0  0
    5.6654    1.1197   19.8242 C   0  0  0  0  0  0  0  0  0  0  0  0
   12.8419   -0.6431   24.7351 C   0  0  0  0  0  0  0  0  0  0  0  0
   12.0989   -1.3681   22.5534 C   0  0  0  0  0  0  0  0  0  0  0  0
    5.6021    0.3189   17.5690 C   0  0  0  0  0  0  0  0  0  0  0  0
    9.2074    0.3070   20.1900 C   0  0  0  0  0  0  0  0  0  0  0  0
    7.0236    0.7636   19.8417 C   0  0  0  0  0  0  0  0  0  0  0  0
   11.8163   -0.8273   23.8078 C   0  0  0  0  0  0  0  0  0  0  0  0
    8.0796    0.8253   20.7891 C   0  0  0  0  0  0  0  0  0  0  0  0
    7.5535    0.2023   18.6835 C   0  0  0  0  0  0  0  0  0  0  0  0
   10.4237   -0.4476   24.1560 C   0  0  0  0  0  0  0  0  0  0  0  0
    8.8649    2.5832   22.3420 C   0  0  0  0  0  0  0  0  0  0  0  0
   10.0450    3.9298   24.0494 C   0  0  0  0  0  0  0  0  0  0  0  0
    7.7460    3.1923   24.5432 C   0  0  0  0  0  0  0  0  0  0  0  0
    9.7001    5.3522   24.4658 C   0  0  0  0  0  0  0  0  0  0  0  0
    7.3667    4.6042   24.9691 C   0  0  0  0  0  0  0  0  0  0  0  0
    8.2703    6.6788   26.0250 C   0  0  0  0  0  0  0  0  0  0  0  0
    8.3828    0.3208   23.2505 C   0  0  0  0  0  0  0  0  0  0  0  0
    7.9938    1.3606   22.2001 C   0  0  0  0  0  0  0  0  0  0  0  0
    6.9055   -0.0432   17.5291 N   0  0  0  0  0  0  0  0  0  0  0  0
    8.8770   -0.0672   18.9133 N   0  0  0  0  0  0  0  0  0  0  0  0
    8.8561    3.2151   23.5847 N   0  0  0  0  0  0  0  0  0  0  0  0
    8.5956    5.3095   25.4980 N   0  0  0  0  0  0  0  0  0  0  0  0
    9.9855   -0.4803   25.2954 O   0  0  0  0  0  0  0  0  0  0  0  0
    9.5302    2.9650   21.3758 O   0  0  0  0  0  0  0  0  0  0  0  0
    9.7367   -0.0694   23.0441 O   0  0  0  0  0  0  0  0  0  0  0  0
  1  2  2  0
  1  3  1  0
  2  6  1  0
  3  7  2  0
  4  5  2  0
  4  8  1  0
  5 10  1  0
  6 11  2  0
  7 11  1  0
  8 23  2  0
  9 12  2  0
  9 24  1  0
 10 12  1  0
 10 13  2  0
 11 14  1  0
 12 22  1  0
 13 23  1  0
 13 24  1  0
 14 27  2  0
 14 29  1  0
 15 22  1  0
 15 25  1  0
 15 28  2  0
 16 18  1  0
 16 25  1  0
 17 19  1  0
 17 25  1  0
 18 26  1  0
 19 26  1  0
 20 26  1  0
 21 22  1  0
 21 29  1  0
M  CHG  1  26   1
M  END
