NIC-BIO-3276ca7f-7
     RDKit          3D

 25 27  0  0  1  0  0  0  0  0999 V2000
    8.4808   -3.0067   23.3640 C   0  0  0  0  0  0  0  0  0  0  0  0
    7.0695    0.4171   23.9361 C   0  0  0  0  0  0  0  0  0  0  0  0
    9.7744   -3.2578   23.8213 C   0  0  0  0  0  0  0  0  0  0  0  0
    8.2641   -2.0436   22.3785 C   0  0  0  0  0  0  0  0  0  0  0  0
    5.9913    1.1740   23.4819 C   0  0  0  0  0  0  0  0  0  0  0  0
    8.3327    0.9968   24.1013 C   0  0  0  0  0  0  0  0  0  0  0  0
   10.8513   -2.5459   23.2932 C   0  0  0  0  0  0  0  0  0  0  0  0
    9.3411   -1.3317   21.8503 C   0  0  0  0  0  0  0  0  0  0  0  0
    6.1397    2.5305   23.1790 C   0  0  0  0  0  0  0  0  0  0  0  0
    9.1745    4.4905   23.4334 C   0  0  0  0  0  0  0  0  0  0  0  0
    8.5065    2.3628   23.8022 C   0  0  0  0  0  0  0  0  0  0  0  0
   10.6347   -1.5828   22.3077 C   0  0  0  0  0  0  0  0  0  0  0  0
    9.6137    3.2552   23.8507 C   0  0  0  0  0  0  0  0  0  0  0  0
    7.4082    3.0966   23.3488 C   0  0  0  0  0  0  0  0  0  0  0  0
   13.0512    4.8901   22.4932 C   0  0  0  0  0  0  0  0  0  0  0  0
   11.4707    1.6169   22.1811 C   0  0  0  0  0  0  0  0  0  0  0  0
   12.9785    6.0378   21.5416 C   0  0  0  0  0  0  0  0  0  0  0  0
   11.0212    2.9189   24.2792 C   0  0  0  0  0  0  0  0  0  0  0  0
   11.7934   -0.8159   21.7389 C   0  0  0  0  0  0  0  0  0  0  0  0
   11.9733    2.7310   23.0924 C   0  0  0  0  0  0  0  0  0  0  0  0
    7.8429    4.3849   23.1332 N   0  0  0  0  0  0  0  0  0  0  0  0
   12.0572    0.3954   22.4819 N   0  0  0  0  0  0  0  0  0  0  0  0
   12.0830    3.9223   22.2887 N   0  0  0  0  0  0  0  0  0  0  0  0
   13.9221    4.8740   23.3551 O   0  0  0  0  0  0  0  0  0  0  0  0
   10.6734    1.8097   21.2657 O   0  0  0  0  0  0  0  0  0  0  0  0
  1  3  2  0
  1  4  1  0
  2  5  2  0
  2  6  1  0
  3  7  1  0
  4  8  2  0
  5  9  1  0
  6 11  2  0
  7 12  2  0
  8 12  1  0
  9 14  2  0
 10 13  2  0
 10 21  1  0
 11 13  1  0
 11 14  1  0
 12 19  1  0
 13 18  1  0
 14 21  1  0
 15 17  1  0
 15 23  1  0
 15 24  2  0
 16 20  1  0
 16 22  1  0
 16 25  2  0
 18 20  1  0
 19 22  1  0
 20 23  1  0
M  END
