NIC-BIO-25446079-4
     RDKit          3D

 20 22  0  0  0  0  0  0  0  0999 V2000
    4.8761    1.2612   18.6528 C   0  0  0  0  0  0  0  0  0  0  0  0
    5.1779    0.8839   19.9601 C   0  0  0  0  0  0  0  0  0  0  0  0
    5.7797    0.9557   17.6440 C   0  0  0  0  0  0  0  0  0  0  0  0
    8.2437   -0.8786   20.8739 C   0  0  0  0  0  0  0  0  0  0  0  0
    6.3894    0.2103   20.1850 C   0  0  0  0  0  0  0  0  0  0  0  0
    7.0586   -0.3301   21.3148 C   0  0  0  0  0  0  0  0  0  0  0  0
    7.2021   -0.0316   19.0813 C   0  0  0  0  0  0  0  0  0  0  0  0
    7.6660   -0.6646   23.7121 C   0  0  0  0  0  0  0  0  0  0  0  0
   10.7031    1.2171   23.9327 C   0  0  0  0  0  0  0  0  0  0  0  0
    8.7415    2.8008   23.8001 C   0  0  0  0  0  0  0  0  0  0  0  0
    9.7986    0.1986   24.6238 C   0  0  0  0  0  0  0  0  0  0  0  0
    7.8763    1.7479   24.4922 C   0  0  0  0  0  0  0  0  0  0  0  0
   10.2088    2.6391   24.1969 C   0  0  0  0  0  0  0  0  0  0  0  0
   10.6582    5.0173   23.5984 C   0  0  0  0  0  0  0  0  0  0  0  0
    6.5738   -0.3124   22.7339 C   0  0  0  0  0  0  0  0  0  0  0  0
    6.9588    0.3105   17.8019 N   0  0  0  0  0  0  0  0  0  0  0  0
    8.3205   -0.6914   19.5181 N   0  0  0  0  0  0  0  0  0  0  0  0
    8.3986    0.3980   24.2399 N   0  0  0  0  0  0  0  0  0  0  0  0
   11.0321    3.5926   23.4087 N   0  0  0  0  0  0  0  0  0  0  0  0
    7.8620   -1.8492   23.9956 O   0  0  0  0  0  0  0  0  0  0  0  0
  1  2  2  0
  1  3  1  0
  2  5  1  0
  3 16  2  0
  4  6  2  0
  4 17  1  0
  5  6  1  0
  5  7  2  0
  6 15  1  0
  7 16  1  0
  7 17  1  0
  8 15  1  0
  8 18  1  0
  8 20  2  0
  9 11  1  0
  9 13  1  0
 10 12  1  0
 10 13  1  0
 11 18  1  0
 12 18  1  0
 13 19  1  0
 14 19  1  0
M  CHG  1  19   1
M  END
