NIM-UNI-7ba87d62-3
     RDKit          3D

 26 28  0  0  0  0  0  0  0  0999 V2000
   10.2761    1.3796   24.6851 C   0  0  0  0  0  0  0  0  0  0  0  0
   11.5207    2.0067   24.6282 C   0  0  0  0  0  0  0  0  0  0  0  0
    5.9480    1.0710   19.3775 C   0  0  0  0  0  0  0  0  0  0  0  0
    6.6517    0.4259   20.3884 C   0  0  0  0  0  0  0  0  0  0  0  0
   10.0894    0.1428   24.0676 C   0  0  0  0  0  0  0  0  0  0  0  0
   12.5786    1.3971   23.9538 C   0  0  0  0  0  0  0  0  0  0  0  0
    5.3386    0.2883   18.4101 C   0  0  0  0  0  0  0  0  0  0  0  0
    6.0790   -1.6544   19.3879 C   0  0  0  0  0  0  0  0  0  0  0  0
    6.7233   -0.9627   20.4009 C   0  0  0  0  0  0  0  0  0  0  0  0
   11.1473   -0.4668   23.3933 C   0  0  0  0  0  0  0  0  0  0  0  0
   12.3919    0.1603   23.3364 C   0  0  0  0  0  0  0  0  0  0  0  0
    8.7671   -1.4660   21.6365 C   0  0  0  0  0  0  0  0  0  0  0  0
    7.4585   -1.6730   21.4537 C   0  0  0  0  0  0  0  0  0  0  0  0
    6.8181   -2.6459   22.3982 C   0  0  0  0  0  0  0  0  0  0  0  0
    8.8576   -2.9962   23.5081 C   0  0  0  0  0  0  0  0  0  0  0  0
    4.8091   -3.8266   23.1085 C   0  0  0  0  0  0  0  0  0  0  0  0
   10.9045   -1.7968   22.7403 C   0  0  0  0  0  0  0  0  0  0  0  0
    3.3450   -3.9539   22.7688 C   0  0  0  0  0  0  0  0  0  0  0  0
    5.3861   -1.0626   18.3892 N   0  0  0  0  0  0  0  0  0  0  0  0
    7.5070   -3.2365   23.3419 N   0  0  0  0  0  0  0  0  0  0  0  0
    9.4812   -2.0984   22.6282 N   0  0  0  0  0  0  0  0  0  0  0  0
    5.4776   -2.9416   22.2766 N   0  0  0  0  0  0  0  0  0  0  0  0
    9.4820   -3.5634   24.4064 O   0  0  0  0  0  0  0  0  0  0  0  0
    5.3102   -4.4505   24.0429 O   0  0  0  0  0  0  0  0  0  0  0  0
   13.7242   -0.5634   22.5115 Cl  0  0  0  0  0  0  0  0  0  0  0  0
    2.7975   -2.3980   22.1250 Cl  0  0  0  0  0  0  0  0  0  0  0  0
  1  2  2  0
  1  5  1  0
  2  6  1  0
  3  4  2  0
  3  7  1  0
  4  9  1  0
  5 10  2  0
  6 11  2  0
  7 19  2  0
  8  9  2  0
  8 19  1  0
  9 13  1  0
 10 11  1  0
 10 17  1  0
 11 25  1  0
 12 13  2  0
 12 21  1  0
 13 14  1  0
 14 20  2  0
 14 22  1  0
 15 20  1  0
 15 21  1  0
 15 23  2  0
 16 18  1  0
 16 22  1  0
 16 24  2  0
 17 21  1  0
 18 26  1  0
M  END
