NIM-UNI-43fe0159-7
     RDKit          3D

 20 21  0  0  1  0  0  0  0  0999 V2000
   11.4654   -3.5091   25.4406 C   0  0  0  0  0  0  0  0  0  0  0  0
   11.1574   -1.7971   23.7639 C   0  0  0  0  0  0  0  0  0  0  0  0
   12.6793   -2.9295   25.8094 C   0  0  0  0  0  0  0  0  0  0  0  0
   12.3713   -1.2174   24.1328 C   0  0  0  0  0  0  0  0  0  0  0  0
   10.7044   -2.9429   24.4177 C   0  0  0  0  0  0  0  0  0  0  0  0
   13.1322   -1.7836   25.1555 C   0  0  0  0  0  0  0  0  0  0  0  0
    6.5513   -4.8735   21.2611 C   0  0  0  0  0  0  0  0  0  0  0  0
   15.2398   -1.6247   26.5183 C   0  0  0  0  0  0  0  0  0  0  0  0
    9.5585   -5.0342   23.5857 C   0  0  0  0  0  0  0  0  0  0  0  0
    8.2619   -5.5555   22.9808 C   0  0  0  0  0  0  0  0  0  0  0  0
    8.4537   -3.3847   21.7965 C   0  0  0  0  0  0  0  0  0  0  0  0
    9.3876   -3.5718   24.0176 C   0  0  0  0  0  0  0  0  0  0  0  0
   16.4447   -0.7219   26.6060 C   0  0  0  0  0  0  0  0  0  0  0  0
    5.8763   -6.1985   21.5217 C   0  0  0  0  0  0  0  0  0  0  0  0
    7.7067   -4.6207   22.0013 N   0  0  0  0  0  0  0  0  0  0  0  0
   14.3462   -1.2035   25.5244 N   0  0  0  0  0  0  0  0  0  0  0  0
    6.0716   -4.0963   20.4329 O   0  0  0  0  0  0  0  0  0  0  0  0
   15.1269   -2.5953   27.2599 O   0  0  0  0  0  0  0  0  0  0  0  0
    8.7343   -2.7485   23.0409 O   0  0  0  0  0  0  0  0  0  0  0  0
    4.7452   -5.9360   22.8442 Cl  0  0  0  0  0  0  0  0  0  0  0  0
  1  3  2  0
  1  5  1  0
  2  4  1  0
  2  5  2  0
  3  6  1  0
  4  6  2  0
  5 12  1  0
  6 16  1  0
  7 14  1  0
  7 15  1  0
  7 17  2  0
  8 13  1  0
  8 16  1  0
  8 18  2  0
  9 10  1  0
  9 12  1  0
 10 15  1  0
 11 15  1  0
 11 19  1  0
 12 19  1  0
 14 20  1  0
M  END
