NIM-UNI-43fe0159-1
     RDKit          3D

 17 18  0  0  1  0  0  0  0  0999 V2000
   12.1105   -3.6178   25.1849 C   0  0  0  0  0  0  0  0  0  0  0  0
   11.1115   -1.4758   24.6839 C   0  0  0  0  0  0  0  0  0  0  0  0
   13.3190   -2.9858   25.4774 C   0  0  0  0  0  0  0  0  0  0  0  0
   12.3201   -0.8438   24.9764 C   0  0  0  0  0  0  0  0  0  0  0  0
   11.0067   -2.8628   24.7881 C   0  0  0  0  0  0  0  0  0  0  0  0
   13.4239   -1.5988   25.3731 C   0  0  0  0  0  0  0  0  0  0  0  0
    6.7176   -4.9119   21.8995 C   0  0  0  0  0  0  0  0  0  0  0  0
    9.9043   -4.9851   23.9761 C   0  0  0  0  0  0  0  0  0  0  0  0
    8.5914   -5.5552   23.4563 C   0  0  0  0  0  0  0  0  0  0  0  0
    8.5797   -3.3422   22.3363 C   0  0  0  0  0  0  0  0  0  0  0  0
    9.6953   -3.5476   24.4703 C   0  0  0  0  0  0  0  0  0  0  0  0
    6.1325   -6.2779   22.1659 C   0  0  0  0  0  0  0  0  0  0  0  0
    7.9141   -4.6215   22.5558 N   0  0  0  0  0  0  0  0  0  0  0  0
   14.6451   -0.9592   25.6705 N   0  0  0  0  0  0  0  0  0  0  0  0
    6.1353   -4.1362   21.1384 O   0  0  0  0  0  0  0  0  0  0  0  0
    8.9261   -2.7304   23.5763 O   0  0  0  0  0  0  0  0  0  0  0  0
    5.0983   -6.1156   23.5808 Cl  0  0  0  0  0  0  0  0  0  0  0  0
  1  3  2  0
  1  5  1  0
  2  4  1  0
  2  5  2  0
  3  6  1  0
  4  6  2  0
  5 11  1  0
  6 14  1  0
  7 12  1  0
  7 13  1  0
  7 15  2  0
  8  9  1  0
  8 11  1  0
  9 13  1  0
 10 13  1  0
 10 16  1  0
 11 16  1  0
 12 17  1  0
M  END
