NIM-UNI-43fe0159-5
     RDKit          3D

 17 18  0  0  1  0  0  0  0  0999 V2000
   11.0263   -1.4546   24.9689 C   0  0  0  0  0  0  0  0  0  0  0  0
   11.8606   -3.6776   25.4154 C   0  0  0  0  0  0  0  0  0  0  0  0
   12.2262   -0.9119   25.4286 C   0  0  0  0  0  0  0  0  0  0  0  0
   13.0606   -3.1349   25.8750 C   0  0  0  0  0  0  0  0  0  0  0  0
   10.8435   -2.8375   24.9624 C   0  0  0  0  0  0  0  0  0  0  0  0
   13.2434   -1.7521   25.8815 C   0  0  0  0  0  0  0  0  0  0  0  0
    6.7599   -4.3896   21.5192 C   0  0  0  0  0  0  0  0  0  0  0  0
    9.7411   -4.8155   23.8438 C   0  0  0  0  0  0  0  0  0  0  0  0
    8.4604   -5.2701   23.1569 C   0  0  0  0  0  0  0  0  0  0  0  0
    8.6318   -2.9584   22.2744 C   0  0  0  0  0  0  0  0  0  0  0  0
    9.5417   -3.4262   24.4638 C   0  0  0  0  0  0  0  0  0  0  0  0
    6.1031   -5.7469   21.5919 C   0  0  0  0  0  0  0  0  0  0  0  0
    7.9022   -4.2212   22.3026 N   0  0  0  0  0  0  0  0  0  0  0  0
    6.2779   -3.5160   20.7949 O   0  0  0  0  0  0  0  0  0  0  0  0
    8.8872   -2.4896   23.5960 O   0  0  0  0  0  0  0  0  0  0  0  0
   14.7922   -1.0516   26.4748 S   0  0  0  0  0  0  0  0  0  0  0  0
    4.9520   -5.6789   22.9216 Cl  0  0  0  0  0  0  0  0  0  0  0  0
  1  3  2  0
  1  5  1  0
  2  4  1  0
  2  5  2  0
  3  6  1  0
  4  6  2  0
  5 11  1  0
  6 16  1  0
  7 12  1  0
  7 13  1  0
  7 14  2  0
  8  9  1  0
  8 11  1  0
  9 13  1  0
 10 13  1  0
 10 15  1  0
 11 15  1  0
 12 17  1  0
M  CHG  1  16  -1
M  END
