NIM-UNI-7f77122c-2
     RDKit          3D

 40 45  0  0  0  0  0  0  0  0999 V2000
    4.5229   -0.4054   21.8181 C   0  0  0  0  0  0  0  0  0  0  0  0
    5.3541   -0.8153   20.7756 C   0  0  0  0  0  0  0  0  0  0  0  0
    4.7081    0.8454   22.4071 C   0  0  0  0  0  0  0  0  0  0  0  0
   12.1031    6.7198   25.5122 C   0  0  0  0  0  0  0  0  0  0  0  0
   10.5689   -2.2290   24.6660 C   0  0  0  0  0  0  0  0  0  0  0  0
    8.9677   -3.1080   23.0846 C   0  0  0  0  0  0  0  0  0  0  0  0
    6.3705    0.0254   20.3222 C   0  0  0  0  0  0  0  0  0  0  0  0
    5.7246    1.6862   21.9537 C   0  0  0  0  0  0  0  0  0  0  0  0
   10.9948   -1.2989   23.7179 C   0  0  0  0  0  0  0  0  0  0  0  0
    9.3936   -2.1778   22.1365 C   0  0  0  0  0  0  0  0  0  0  0  0
   11.3933    5.9464   24.6004 C   0  0  0  0  0  0  0  0  0  0  0  0
   11.3944    7.6264   26.2840 C   0  0  0  0  0  0  0  0  0  0  0  0
    9.4006    7.0351   25.3076 C   0  0  0  0  0  0  0  0  0  0  0  0
    9.5554   -3.1337   24.3494 C   0  0  0  0  0  0  0  0  0  0  0  0
    6.5558    1.2762   20.9113 C   0  0  0  0  0  0  0  0  0  0  0  0
   10.4071   -1.2733   22.4531 C   0  0  0  0  0  0  0  0  0  0  0  0
   10.0159    6.1010   24.4899 C   0  0  0  0  0  0  0  0  0  0  0  0
    9.4818    4.0456   23.0807 C   0  0  0  0  0  0  0  0  0  0  0  0
    8.5855    3.7328   22.1261 C   0  0  0  0  0  0  0  0  0  0  0  0
   10.4095    2.9877   23.5692 C   0  0  0  0  0  0  0  0  0  0  0  0
    9.6544    1.6686   21.8182 C   0  0  0  0  0  0  0  0  0  0  0  0
    8.1139    5.8477   22.8638 C   0  0  0  0  0  0  0  0  0  0  0  0
    9.1058   -4.1134   25.3474 C   0  0  0  0  0  0  0  0  0  0  0  0
    7.3544   -2.4654   26.1934 C   0  0  0  0  0  0  0  0  0  0  0  0
    7.6420   -4.6651   27.2622 C   0  0  0  0  0  0  0  0  0  0  0  0
    5.8489   -2.6924   26.2622 C   0  0  0  0  0  0  0  0  0  0  0  0
    6.1266   -4.8028   27.2748 C   0  0  0  0  0  0  0  0  0  0  0  0
    7.6498    2.1816   20.4239 C   0  0  0  0  0  0  0  0  0  0  0  0
   10.8649   -0.2717   21.4338 C   0  0  0  0  0  0  0  0  0  0  0  0
   10.0567    7.8046   26.2049 N   0  0  0  0  0  0  0  0  0  0  0  0
   10.5288    1.8647   22.7610 N   0  0  0  0  0  0  0  0  0  0  0  0
    7.7452    4.8068   21.9708 N   0  0  0  0  0  0  0  0  0  0  0  0
    9.2637    5.3256   23.5676 N   0  0  0  0  0  0  0  0  0  0  0  0
    8.5986    2.5091   21.4813 N   0  0  0  0  0  0  0  0  0  0  0  0
    8.0625   -3.7513   26.2012 N   0  0  0  0  0  0  0  0  0  0  0  0
   10.9897    3.0920   24.6438 O   0  0  0  0  0  0  0  0  0  0  0  0
    7.5739    6.9412   22.9458 O   0  0  0  0  0  0  0  0  0  0  0  0
    9.6968   -5.1922   25.3569 O   0  0  0  0  0  0  0  0  0  0  0  0
    5.5164   -3.5140   27.3840 O   0  0  0  0  0  0  0  0  0  0  0  0
    9.7695    0.5443   21.0637 O   0  0  0  0  0  0  0  0  0  0  0  0
  1  2  2  0
  1  3  1  0
  2  7  1  0
  3  8  2  0
  4 11  2  0
  4 12  1  0
  5  9  2  0
  5 14  1  0
  6 10  1  0
  6 14  2  0
  7 15  2  0
  8 15  1  0
  9 16  1  0
 10 16  2  0
 11 17  1  0
 12 30  2  0
 13 17  2  0
 13 30  1  0
 14 23  1  0
 15 28  1  0
 16 29  1  0
 17 33  1  0
 18 19  2  0
 18 20  1  0
 18 33  1  0
 19 32  1  0
 19 34  1  0
 20 31  1  0
 20 36  2  0
 21 31  2  0
 21 34  1  0
 21 40  1  0
 22 32  1  0
 22 33  1  0
 22 37  2  0
 23 35  1  0
 23 38  2  0
 24 26  1  0
 24 35  1  0
 25 27  1  0
 25 35  1  0
 26 39  1  0
 27 39  1  0
 28 34  1  0
 29 40  1  0
M  END
