NIM-UNI-36e12f95-1
     RDKit          3D

 19 21  0  0  1  0  0  0  0  0999 V2000
    5.8383    1.2493   18.9211 C   0  0  0  0  0  0  0  0  0  0  0  0
    6.3634    0.8721   20.1521 C   0  0  0  0  0  0  0  0  0  0  0  0
    6.5468    0.9056   17.7811 C   0  0  0  0  0  0  0  0  0  0  0  0
    8.1949   -0.1233   19.0071 C   0  0  0  0  0  0  0  0  0  0  0  0
    7.5638    0.1724   20.2047 C   0  0  0  0  0  0  0  0  0  0  0  0
    7.5884    0.0084   22.7528 C   0  0  0  0  0  0  0  0  0  0  0  0
   10.7559    1.1282   21.2574 C   0  0  0  0  0  0  0  0  0  0  0  0
   11.8153   -1.1576   21.4097 C   0  0  0  0  0  0  0  0  0  0  0  0
   11.8446   -1.8486   22.7769 C   0  0  0  0  0  0  0  0  0  0  0  0
    9.3807   -0.9731   21.5625 C   0  0  0  0  0  0  0  0  0  0  0  0
    9.3810   -1.4922   23.0042 C   0  0  0  0  0  0  0  0  0  0  0  0
   12.1501    1.6999   21.3400 C   0  0  0  0  0  0  0  0  0  0  0  0
    7.7157    0.2266   17.7924 N   0  0  0  0  0  0  0  0  0  0  0  0
    8.3986   -0.6916   23.6695 N   0  0  0  0  0  0  0  0  0  0  0  0
    8.1285   -0.2286   21.4543 N   0  0  0  0  0  0  0  0  0  0  0  0
   10.6525   -0.2679   21.2913 N   0  0  0  0  0  0  0  0  0  0  0  0
   10.7218   -1.3485   23.6353 N   0  0  0  0  0  0  0  0  0  0  0  0
    6.6134    0.6717   23.0804 O   0  0  0  0  0  0  0  0  0  0  0  0
    9.8057    1.9074   21.1590 O   0  0  0  0  0  0  0  0  0  0  0  0
  1  2  2  0
  1  3  1  0
  2  5  1  0
  3 13  2  0
  4  5  2  0
  4 13  1  0
  5 15  1  0
  6 14  1  0
  6 15  1  0
  6 18  2  0
  7 12  1  0
  7 16  1  0
  7 19  2  0
  8  9  1  0
  8 16  1  0
  9 17  1  0
 10 11  1  0
 10 15  1  0
 10 16  1  0
 11 14  1  0
 11 17  1  0
M  CHG  1  17   1
M  END
