NIM-UNI-43fe0159-6
     RDKit          3D

 18 19  0  0  1  0  0  0  0  0999 V2000
   11.6978   -3.5319   25.4742 C   0  0  0  0  0  0  0  0  0  0  0  0
   10.7930   -1.3336   25.0429 C   0  0  0  0  0  0  0  0  0  0  0  0
   12.9140   -2.9585   25.8453 C   0  0  0  0  0  0  0  0  0  0  0  0
   12.0091   -0.7602   25.4141 C   0  0  0  0  0  0  0  0  0  0  0  0
   10.6373   -2.7194   25.0729 C   0  0  0  0  0  0  0  0  0  0  0  0
   13.0696   -1.5727   25.8153 C   0  0  0  0  0  0  0  0  0  0  0  0
    6.4030   -4.4709   21.9198 C   0  0  0  0  0  0  0  0  0  0  0  0
    9.4980   -4.7589   24.1130 C   0  0  0  0  0  0  0  0  0  0  0  0
    8.1889   -5.2558   23.5144 C   0  0  0  0  0  0  0  0  0  0  0  0
    8.2976   -2.9919   22.5071 C   0  0  0  0  0  0  0  0  0  0  0  0
    9.3176   -3.3407   24.6701 C   0  0  0  0  0  0  0  0  0  0  0  0
   14.3698   -0.9603   26.2140 C   0  0  0  0  0  0  0  0  0  0  0  0
    5.7618   -5.8265   22.0943 C   0  0  0  0  0  0  0  0  0  0  0  0
    7.5808   -4.2557   22.6361 N   0  0  0  0  0  0  0  0  0  0  0  0
    5.8787   -3.6388   21.1763 O   0  0  0  0  0  0  0  0  0  0  0  0
    8.6136   -2.4539   23.7888 O   0  0  0  0  0  0  0  0  0  0  0  0
   15.3478   -0.4082   24.7834 S   0  0  0  0  0  0  0  0  0  0  0  0
    4.6768   -5.6965   23.4740 Cl  0  0  0  0  0  0  0  0  0  0  0  0
  1  3  2  0
  1  5  1  0
  2  4  1  0
  2  5  2  0
  3  6  1  0
  4  6  2  0
  5 11  1  0
  6 12  1  0
  7 13  1  0
  7 14  1  0
  7 15  2  0
  8  9  1  0
  8 11  1  0
  9 14  1  0
 10 14  1  0
 10 16  1  0
 11 16  1  0
 12 17  1  0
 13 18  1  0
M  END
