NIM-UNI-534877e5-1
     RDKit          3D

 21 23  0  0  0  0  0  0  0  0999 V2000
   13.3080    0.1995   23.5153 C   0  0  0  0  0  0  0  0  0  0  0  0
    5.6789    0.8633   19.2522 C   0  0  0  0  0  0  0  0  0  0  0  0
   11.9895   -0.0614   23.1425 C   0  0  0  0  0  0  0  0  0  0  0  0
    6.3506    0.1562   20.2432 C   0  0  0  0  0  0  0  0  0  0  0  0
   14.2655   -0.8125   23.4466 C   0  0  0  0  0  0  0  0  0  0  0  0
   12.5859   -2.3464   22.6323 C   0  0  0  0  0  0  0  0  0  0  0  0
    6.2212    0.8667   17.9772 C   0  0  0  0  0  0  0  0  0  0  0  0
    7.9868   -0.4516   18.6277 C   0  0  0  0  0  0  0  0  0  0  0  0
   11.6284   -1.3343   22.7010 C   0  0  0  0  0  0  0  0  0  0  0  0
    7.5274   -0.5165   19.9333 C   0  0  0  0  0  0  0  0  0  0  0  0
   13.9044   -2.0855   23.0051 C   0  0  0  0  0  0  0  0  0  0  0  0
    9.5163   -2.5459   22.9404 C   0  0  0  0  0  0  0  0  0  0  0  0
   10.2358   -1.6091   22.3084 C   0  0  0  0  0  0  0  0  0  0  0  0
    9.5679   -0.8573   21.2033 C   0  0  0  0  0  0  0  0  0  0  0  0
    7.6549   -2.2923   21.6615 C   0  0  0  0  0  0  0  0  0  0  0  0
    6.2780   -2.8004   21.2846 C   0  0  0  0  0  0  0  0  0  0  0  0
    7.3618    0.2252   17.6381 N   0  0  0  0  0  0  0  0  0  0  0  0
    8.2364   -2.9115   22.6430 N   0  0  0  0  0  0  0  0  0  0  0  0
    8.2442   -1.2556   20.9356 N   0  0  0  0  0  0  0  0  0  0  0  0
   10.1669    0.0694   20.6577 O   0  0  0  0  0  0  0  0  0  0  0  0
   15.2025   -3.4562   22.9133 Br  0  0  0  0  0  0  0  0  0  0  0  0
  1  3  2  0
  1  5  1  0
  2  4  2  0
  2  7  1  0
  3  9  1  0
  4 10  1  0
  5 11  2  0
  6  9  2  0
  6 11  1  0
  7 17  2  0
  8 10  2  0
  8 17  1  0
  9 13  1  0
 10 19  1  0
 11 21  1  0
 12 13  2  0
 12 18  1  0
 13 14  1  0
 14 19  1  0
 14 20  2  0
 15 16  1  0
 15 18  2  0
 15 19  1  0
M  END
