NIM-UNI-ed9fc491-3
     RDKit          3D

 33 35  0  0  1  0  0  0  0  0999 V2000
    5.4782    1.1363   18.4015 C   0  0  0  0  0  0  0  0  0  0  0  0
    6.2672    0.1143   17.8736 C   0  0  0  0  0  0  0  0  0  0  0  0
    5.3612    1.2839   19.7836 C   0  0  0  0  0  0  0  0  0  0  0  0
    6.9390   -0.7601   18.7277 C   0  0  0  0  0  0  0  0  0  0  0  0
    6.0330    0.4094   20.6378 C   0  0  0  0  0  0  0  0  0  0  0  0
    7.3895   -5.2175   23.9284 C   0  0  0  0  0  0  0  0  0  0  0  0
    7.3096   -4.0888   26.0631 C   0  0  0  0  0  0  0  0  0  0  0  0
    8.6914   -5.6383   24.1996 C   0  0  0  0  0  0  0  0  0  0  0  0
    8.6116   -4.5096   26.3343 C   0  0  0  0  0  0  0  0  0  0  0  0
    6.6986   -4.4426   24.8602 C   0  0  0  0  0  0  0  0  0  0  0  0
    6.8219   -0.6126   20.1098 C   0  0  0  0  0  0  0  0  0  0  0  0
    9.3024   -5.2844   25.4026 C   0  0  0  0  0  0  0  0  0  0  0  0
   11.9091   -0.0687   24.1111 C   0  0  0  0  0  0  0  0  0  0  0  0
    3.1271   -1.4739   24.5369 C   0  0  0  0  0  0  0  0  0  0  0  0
    5.8504   -2.7060   22.4666 C   0  0  0  0  0  0  0  0  0  0  0  0
   11.1079   -1.6910   22.4237 C   0  0  0  0  0  0  0  0  0  0  0  0
   10.4443    0.6684   22.1671 C   0  0  0  0  0  0  0  0  0  0  0  0
    9.6676   -2.1393   22.2234 C   0  0  0  0  0  0  0  0  0  0  0  0
    8.9933    0.2553   21.9609 C   0  0  0  0  0  0  0  0  0  0  0  0
    1.7255   -1.1856   24.1119 C   0  0  0  0  0  0  0  0  0  0  0  0
    5.2899   -3.9878   24.5672 C   0  0  0  0  0  0  0  0  0  0  0  0
   11.9133    1.3574   24.6010 C   0  0  0  0  0  0  0  0  0  0  0  0
    7.5491   -1.5595   21.0355 C   0  0  0  0  0  0  0  0  0  0  0  0
    5.2155   -2.6355   23.8499 C   0  0  0  0  0  0  0  0  0  0  0  0
   11.1655   -0.3317   22.9615 N   0  0  0  0  0  0  0  0  0  0  0  0
    6.8217   -1.7316   22.2828 N   0  0  0  0  0  0  0  0  0  0  0  0
    3.8445   -2.2426   23.6374 N   0  0  0  0  0  0  0  0  0  0  0  0
    8.9535   -1.1291   21.3534 N   0  0  0  0  0  0  0  0  0  0  0  0
   12.5461   -0.9220   24.7340 O   0  0  0  0  0  0  0  0  0  0  0  0
    3.5378   -1.0327   25.6038 O   0  0  0  0  0  0  0  0  0  0  0  0
    5.4973   -3.5209   21.6163 O   0  0  0  0  0  0  0  0  0  0  0  0
   10.5724   -5.6962   25.6676 O   0  0  0  0  0  0  0  0  0  0  0  0
   10.5381    1.5208   25.6872 Cl  0  0  0  0  0  0  0  0  0  0  0  0
  1  2  2  0
  1  3  1  0
  2  4  1  0
  3  5  2  0
  4 11  2  0
  5 11  1  0
  6  8  2  0
  6 10  1  0
  7  9  1  0
  7 10  2  0
  8 12  1  0
  9 12  2  0
 10 21  1  0
 11 23  1  0
 12 32  1  0
 13 22  1  0
 13 25  1  0
 13 29  2  0
 14 20  1  0
 14 27  1  0
 14 30  2  0
 15 24  1  0
 15 26  1  0
 15 31  2  0
 16 18  1  0
 16 25  1  0
 17 19  1  0
 17 25  1  0
 18 28  1  0
 19 28  1  0
 21 24  1  0
 22 33  1  0
 23 26  1  0
 23 28  1  0
 24 27  1  0
M  CHG  1  28   1
M  END
