NIM-UNI-ed9fc491-1
     RDKit          3D

 27 28  0  0  1  0  0  0  0  0999 V2000
    6.0042   -3.7146   20.8353 C   0  0  0  0  0  0  0  0  0  0  0  0
    7.9478   -2.8064   21.9466 C   0  0  0  0  0  0  0  0  0  0  0  0
    5.5653   -2.4224   20.5469 C   0  0  0  0  0  0  0  0  0  0  0  0
    7.5089   -1.5142   21.6581 C   0  0  0  0  0  0  0  0  0  0  0  0
    7.1954   -3.9066   21.5353 C   0  0  0  0  0  0  0  0  0  0  0  0
    6.3177   -1.3222   20.9582 C   0  0  0  0  0  0  0  0  0  0  0  0
   13.5180   -1.2643   25.4161 C   0  0  0  0  0  0  0  0  0  0  0  0
    5.0811   -7.1578   22.7846 C   0  0  0  0  0  0  0  0  0  0  0  0
    7.6051   -5.0469   24.3913 C   0  0  0  0  0  0  0  0  0  0  0  0
   12.8492   -3.3345   26.5942 C   0  0  0  0  0  0  0  0  0  0  0  0
   12.1911   -3.0827   24.2327 C   0  0  0  0  0  0  0  0  0  0  0  0
   11.4296   -3.7349   26.9685 C   0  0  0  0  0  0  0  0  0  0  0  0
   10.7610   -3.4813   24.5714 C   0  0  0  0  0  0  0  0  0  0  0  0
    3.5953   -7.0896   22.9114 C   0  0  0  0  0  0  0  0  0  0  0  0
    7.6714   -5.3065   21.8474 C   0  0  0  0  0  0  0  0  0  0  0  0
   13.4784   -0.4577   24.1427 C   0  0  0  0  0  0  0  0  0  0  0  0
    9.3977   -4.9027   26.1065 C   0  0  0  0  0  0  0  0  0  0  0  0
    7.1730   -5.8745   23.1841 C   0  0  0  0  0  0  0  0  0  0  0  0
   12.8599   -2.4931   25.3974 N   0  0  0  0  0  0  0  0  0  0  0  0
    8.7996   -5.4976   24.9358 N   0  0  0  0  0  0  0  0  0  0  0  0
    5.7402   -6.0194   23.2165 N   0  0  0  0  0  0  0  0  0  0  0  0
   10.7732   -4.3949   25.7765 N   0  0  0  0  0  0  0  0  0  0  0  0
   14.1142   -0.8129   26.3974 O   0  0  0  0  0  0  0  0  0  0  0  0
    5.6029   -8.1688   22.3294 O   0  0  0  0  0  0  0  0  0  0  0  0
    6.9399   -4.1132   24.8352 O   0  0  0  0  0  0  0  0  0  0  0  0
    5.8899   -0.0614   20.6754 O   0  0  0  0  0  0  0  0  0  0  0  0
   12.0283    0.5367   24.2212 Cl  0  0  0  0  0  0  0  0  0  0  0  0
  1  3  2  0
  1  5  1  0
  2  4  1  0
  2  5  2  0
  3  6  1  0
  4  6  2  0
  5 15  1  0
  6 26  1  0
  7 16  1  0
  7 19  1  0
  7 23  2  0
  8 14  1  0
  8 21  1  0
  8 24  2  0
  9 18  1  0
  9 20  1  0
  9 25  2  0
 10 12  1  0
 10 19  1  0
 11 13  1  0
 11 19  1  0
 12 22  1  0
 13 22  1  0
 15 18  1  0
 16 27  1  0
 17 20  1  0
 17 22  1  0
 18 21  1  0
M  CHG  1  22   1
M  END
