NIM-UNI-02269248-3
     RDKit          3D

 25 27  0  0  0  0  0  0  0  0999 V2000
   12.9682   -1.8458   22.2673 C   0  0  0  0  0  0  0  0  0  0  0  0
   12.9987   -0.4554   22.3742 C   0  0  0  0  0  0  0  0  0  0  0  0
   11.8749   -2.5593   22.7587 C   0  0  0  0  0  0  0  0  0  0  0  0
   10.8427   -0.4919   23.4640 C   0  0  0  0  0  0  0  0  0  0  0  0
   11.0144    2.4052   23.6326 C   0  0  0  0  0  0  0  0  0  0  0  0
   11.9360    0.2216   22.9726 C   0  0  0  0  0  0  0  0  0  0  0  0
   10.8122   -1.8823   23.3570 C   0  0  0  0  0  0  0  0  0  0  0  0
   11.5281    3.6692   23.4860 C   0  0  0  0  0  0  0  0  0  0  0  0
    6.0973    7.2552   22.4484 C   0  0  0  0  0  0  0  0  0  0  0  0
    8.5411    7.3326   22.0699 C   0  0  0  0  0  0  0  0  0  0  0  0
    7.4730    5.1223   22.2865 C   0  0  0  0  0  0  0  0  0  0  0  0
    9.6167    6.9337   23.0696 C   0  0  0  0  0  0  0  0  0  0  0  0
    8.5344    4.6891   23.2888 C   0  0  0  0  0  0  0  0  0  0  0  0
    6.1659    8.6367   23.0488 C   0  0  0  0  0  0  0  0  0  0  0  0
   10.9371    4.9843   23.9012 C   0  0  0  0  0  0  0  0  0  0  0  0
   12.7448    3.6017   22.8659 N   0  0  0  0  0  0  0  0  0  0  0  0
   13.0065    2.3228   22.6186 N   0  0  0  0  0  0  0  0  0  0  0  0
   11.9677    1.6071   23.0790 N   0  0  0  0  0  0  0  0  0  0  0  0
    7.3074    6.5797   22.2966 N   0  0  0  0  0  0  0  0  0  0  0  0
    8.4324   -2.8100   22.5950 N   0  0  0  0  0  0  0  0  0  0  0  0
    9.8184    5.4362   23.0052 N   0  0  0  0  0  0  0  0  0  0  0  0
    5.0008    6.7932   22.1224 O   0  0  0  0  0  0  0  0  0  0  0  0
    9.8774   -4.1328   24.2707 O   0  0  0  0  0  0  0  0  0  0  0  0
    8.7979   -1.9782   25.0056 O   0  0  0  0  0  0  0  0  0  0  0  0
    9.4437   -2.7751   23.9718 S   0  0  0  0  0  0  0  0  0  0  0  0
  1  2  2  0
  1  3  1  0
  2  6  1  0
  3  7  2  0
  4  6  2  0
  4  7  1  0
  5  8  2  0
  5 18  1  0
  6 18  1  0
  7 25  1  0
  8 15  1  0
  8 16  1  0
  9 14  1  0
  9 19  1  0
  9 22  2  0
 10 12  1  0
 10 19  1  0
 11 13  1  0
 11 19  1  0
 12 21  1  0
 13 21  1  0
 15 21  1  0
 16 17  2  0
 17 18  1  0
 20 25  1  0
 23 25  2  0
 24 25  2  0
M  CHG  1  21   1
M  END
