NIM-UNI-7ba87d62-2
     RDKit          3D

 26 28  0  0  0  0  0  0  0  0999 V2000
    9.7483   -5.4378   26.5895 C   0  0  0  0  0  0  0  0  0  0  0  0
    9.5312   -5.2687   25.2221 C   0  0  0  0  0  0  0  0  0  0  0  0
    9.4279    0.9071   23.4521 C   0  0  0  0  0  0  0  0  0  0  0  0
    8.7780   -0.3191   23.3661 C   0  0  0  0  0  0  0  0  0  0  0  0
    8.6927   -5.2816   27.4878 C   0  0  0  0  0  0  0  0  0  0  0  0
    8.2586   -4.9434   24.7529 C   0  0  0  0  0  0  0  0  0  0  0  0
    8.7000    2.0489   23.1585 C   0  0  0  0  0  0  0  0  0  0  0  0
    6.8001    0.8334   22.7213 C   0  0  0  0  0  0  0  0  0  0  0  0
    7.4390   -0.3654   22.9943 C   0  0  0  0  0  0  0  0  0  0  0  0
    7.4200   -4.9562   27.0187 C   0  0  0  0  0  0  0  0  0  0  0  0
    7.2029   -4.7871   25.6512 C   0  0  0  0  0  0  0  0  0  0  0  0
    6.6009   -2.4459   23.9567 C   0  0  0  0  0  0  0  0  0  0  0  0
    6.7253   -1.6437   22.8938 C   0  0  0  0  0  0  0  0  0  0  0  0
    6.0769   -2.1328   21.6333 C   0  0  0  0  0  0  0  0  0  0  0  0
    5.3101   -4.0714   22.7141 C   0  0  0  0  0  0  0  0  0  0  0  0
    5.5967   -1.7649   19.2735 C   0  0  0  0  0  0  0  0  0  0  0  0
    6.3046   -4.7951   27.9988 C   0  0  0  0  0  0  0  0  0  0  0  0
    5.8422   -4.4361   25.1227 C   0  0  0  0  0  0  0  0  0  0  0  0
    5.8316   -0.7587   18.1746 C   0  0  0  0  0  0  0  0  0  0  0  0
    7.3982    2.0436   22.7939 N   0  0  0  0  0  0  0  0  0  0  0  0
    5.4255   -3.2678   21.5958 N   0  0  0  0  0  0  0  0  0  0  0  0
    5.9191   -3.6398   23.9023 N   0  0  0  0  0  0  0  0  0  0  0  0
    6.1681   -1.3861   20.4785 N   0  0  0  0  0  0  0  0  0  0  0  0
    4.6888   -5.1338   22.6522 O   0  0  0  0  0  0  0  0  0  0  0  0
    4.9483   -2.7920   19.0784 O   0  0  0  0  0  0  0  0  0  0  0  0
    5.9124    0.8478   18.9147 Cl  0  0  0  0  0  0  0  0  0  0  0  0
  1  2  2  0
  1  5  1  0
  2  6  1  0
  3  4  2  0
  3  7  1  0
  4  9  1  0
  5 10  2  0
  6 11  2  0
  7 20  2  0
  8  9  2  0
  8 20  1  0
  9 13  1  0
 10 11  1  0
 10 17  1  0
 11 18  1  0
 12 13  2  0
 12 22  1  0
 13 14  1  0
 14 21  2  0
 14 23  1  0
 15 21  1  0
 15 22  1  0
 15 24  2  0
 16 19  1  0
 16 23  1  0
 16 25  2  0
 18 22  1  0
 19 26  1  0
M  END
