NIM-UNI-43fe0159-10
     RDKit          3D

 21 22  0  0  1  0  0  0  0  0999 V2000
   10.8726   -4.1618   24.8323 C   0  0  0  0  0  0  0  0  0  0  0  0
    9.1894   -2.4311   24.7395 C   0  0  0  0  0  0  0  0  0  0  0  0
   11.7691   -3.2593   25.4045 C   0  0  0  0  0  0  0  0  0  0  0  0
   10.0859   -1.5286   25.3118 C   0  0  0  0  0  0  0  0  0  0  0  0
    9.5828   -3.7477   24.4997 C   0  0  0  0  0  0  0  0  0  0  0  0
   11.3757   -1.9427   25.6443 C   0  0  0  0  0  0  0  0  0  0  0  0
    4.6668   -5.4723   22.7302 C   0  0  0  0  0  0  0  0  0  0  0  0
   14.3615   -1.1983   25.0635 C   0  0  0  0  0  0  0  0  0  0  0  0
    8.1266   -4.2432   22.5068 C   0  0  0  0  0  0  0  0  0  0  0  0
    7.0654   -5.1866   21.9486 C   0  0  0  0  0  0  0  0  0  0  0  0
    6.5607   -5.8630   24.2661 C   0  0  0  0  0  0  0  0  0  0  0  0
    8.6101   -4.7256   23.8792 C   0  0  0  0  0  0  0  0  0  0  0  0
   15.7213   -1.8251   25.1285 C   0  0  0  0  0  0  0  0  0  0  0  0
   12.3343   -0.9788   26.2578 C   0  0  0  0  0  0  0  0  0  0  0  0
    3.7871   -5.7884   23.9133 C   0  0  0  0  0  0  0  0  0  0  0  0
    6.0423   -5.4660   22.9600 N   0  0  0  0  0  0  0  0  0  0  0  0
    4.1462   -5.2408   21.6360 O   0  0  0  0  0  0  0  0  0  0  0  0
   13.9680   -0.5103   24.1314 O   0  0  0  0  0  0  0  0  0  0  0  0
    7.4871   -4.8926   24.7544 O   0  0  0  0  0  0  0  0  0  0  0  0
   13.6507   -1.5129   26.1883 O   0  0  0  0  0  0  0  0  0  0  0  0
    2.1243   -5.6904   23.3448 Cl  0  0  0  0  0  0  0  0  0  0  0  0
  1  3  2  0
  1  5  1  0
  2  4  1  0
  2  5  2  0
  3  6  1  0
  4  6  2  0
  5 12  1  0
  6 14  1  0
  7 15  1  0
  7 16  1  0
  7 17  2  0
  8 13  1  0
  8 18  2  0
  8 20  1  0
  9 10  1  0
  9 12  1  0
 10 16  1  0
 11 16  1  0
 11 19  1  0
 12 19  1  0
 14 20  1  0
 15 21  1  0
M  END
