NIM-UNI-43fe0159-9
     RDKit          3D

 20 21  0  0  1  0  0  0  0  0999 V2000
   10.8458   -4.1492   25.4885 C   0  0  0  0  0  0  0  0  0  0  0  0
   10.8176   -2.6133   23.6238 C   0  0  0  0  0  0  0  0  0  0  0  0
   12.0927   -3.6576   25.8747 C   0  0  0  0  0  0  0  0  0  0  0  0
   12.0645   -2.1216   24.0100 C   0  0  0  0  0  0  0  0  0  0  0  0
   10.2083   -3.6271   24.3631 C   0  0  0  0  0  0  0  0  0  0  0  0
   12.7021   -2.6437   25.1354 C   0  0  0  0  0  0  0  0  0  0  0  0
    6.0520   -5.4676   21.1572 C   0  0  0  0  0  0  0  0  0  0  0  0
   13.8555   -1.0803   26.4054 C   0  0  0  0  0  0  0  0  0  0  0  0
    8.8907   -5.6713   23.6817 C   0  0  0  0  0  0  0  0  0  0  0  0
    7.5808   -6.1228   23.0499 C   0  0  0  0  0  0  0  0  0  0  0  0
    8.0718   -4.1291   21.6585 C   0  0  0  0  0  0  0  0  0  0  0  0
    8.8553   -4.1599   23.9444 C   0  0  0  0  0  0  0  0  0  0  0  0
   15.2403   -0.6255   26.7594 C   0  0  0  0  0  0  0  0  0  0  0  0
    5.2242   -6.6797   21.5104 C   0  0  0  0  0  0  0  0  0  0  0  0
    7.1852   -5.2521   21.9422 N   0  0  0  0  0  0  0  0  0  0  0  0
    5.7059   -4.7435   20.2212 O   0  0  0  0  0  0  0  0  0  0  0  0
   12.8315   -0.5690   26.8387 O   0  0  0  0  0  0  0  0  0  0  0  0
    8.3501   -3.3893   22.8446 O   0  0  0  0  0  0  0  0  0  0  0  0
   13.9182   -2.1632   25.5131 O   0  0  0  0  0  0  0  0  0  0  0  0
    4.0565   -6.1571   22.7192 Cl  0  0  0  0  0  0  0  0  0  0  0  0
  1  3  2  0
  1  5  1  0
  2  4  1  0
  2  5  2  0
  3  6  1  0
  4  6  2  0
  5 12  1  0
  6 19  1  0
  7 14  1  0
  7 15  1  0
  7 16  2  0
  8 13  1  0
  8 17  2  0
  8 19  1  0
  9 10  1  0
  9 12  1  0
 10 15  1  0
 11 15  1  0
 11 18  1  0
 12 18  1  0
 14 20  1  0
M  END
