NIM-UNI-0ea3b7bf-2
     RDKit          3D

 28 31  0  0  0  0  0  0  0  0999 V2000
    5.0894    1.4548   19.6247 C   0  0  0  0  0  0  0  0  0  0  0  0
    8.6362    1.4472   24.4079 C   0  0  0  0  0  0  0  0  0  0  0  0
    9.0912    0.4113   25.2431 C   0  0  0  0  0  0  0  0  0  0  0  0
    6.9503   -2.3956   26.5219 C   0  0  0  0  0  0  0  0  0  0  0  0
    8.4585   -4.2826   26.4808 C   0  0  0  0  0  0  0  0  0  0  0  0
    5.6044    0.8194   20.7491 C   0  0  0  0  0  0  0  0  0  0  0  0
    5.9229   -3.2265   26.9689 C   0  0  0  0  0  0  0  0  0  0  0  0
    7.4312   -5.1135   26.9279 C   0  0  0  0  0  0  0  0  0  0  0  0
    5.6291    1.1284   18.3910 C   0  0  0  0  0  0  0  0  0  0  0  0
    7.0995   -0.3666   19.3298 C   0  0  0  0  0  0  0  0  0  0  0  0
    7.9775    1.1711   23.2017 C   0  0  0  0  0  0  0  0  0  0  0  0
    8.2181   -2.9237   26.2778 C   0  0  0  0  0  0  0  0  0  0  0  0
    8.8821   -0.9222   24.8966 C   0  0  0  0  0  0  0  0  0  0  0  0
    6.6289   -0.1100   20.6075 C   0  0  0  0  0  0  0  0  0  0  0  0
    7.8053   -0.1529   22.8400 C   0  0  0  0  0  0  0  0  0  0  0  0
    8.2321   -1.1652   23.7034 C   0  0  0  0  0  0  0  0  0  0  0  0
    6.1634   -4.5854   27.1720 C   0  0  0  0  0  0  0  0  0  0  0  0
    7.1865   -2.1959   21.9441 C   0  0  0  0  0  0  0  0  0  0  0  0
    7.5224    2.2800   22.3782 C   0  0  0  0  0  0  0  0  0  0  0  0
    9.3355   -2.0198   25.7915 C   0  0  0  0  0  0  0  0  0  0  0  0
    6.5155    3.2827   22.9525 C   0  0  0  0  0  0  0  0  0  0  0  0
    6.6244    0.2309   18.2140 N   0  0  0  0  0  0  0  0  0  0  0  0
    7.8648   -2.3987   23.1747 N   0  0  0  0  0  0  0  0  0  0  0  0
    7.1739   -0.7733   21.7339 N   0  0  0  0  0  0  0  0  0  0  0  0
    6.7529   -3.0858   21.2248 O   0  0  0  0  0  0  0  0  0  0  0  0
    7.9470    2.4176   21.2127 O   0  0  0  0  0  0  0  0  0  0  0  0
    7.1601    4.9372   22.9431 Cl  0  0  0  0  0  0  0  0  0  0  0  0
    4.7708   -5.7105   27.7771 Br  0  0  0  0  0  0  0  0  0  0  0  0
  1  6  2  0
  1  9  1  0
  2  3  2  0
  2 11  1  0
  3 13  1  0
  4  7  2  0
  4 12  1  0
  5  8  1  0
  5 12  2  0
  6 14  1  0
  7 17  1  0
  8 17  2  0
  9 22  2  0
 10 14  2  0
 10 22  1  0
 11 15  2  0
 11 19  1  0
 12 20  1  0
 13 16  2  0
 13 20  1  0
 14 24  1  0
 15 16  1  0
 15 24  1  0
 16 23  1  0
 17 28  1  0
 18 23  1  0
 18 24  1  0
 18 25  2  0
 19 21  1  0
 19 26  2  0
 21 27  1  0
M  END
