NIM-UNI-36e12f95-5
     RDKit          3D

 21 23  0  0  0  0  0  0  0  0999 V2000
    6.3162   -4.5912   20.9158 C   0  0  0  0  0  0  0  0  0  0  0  0
   12.8973   -1.8866   24.9464 C   0  0  0  0  0  0  0  0  0  0  0  0
    7.4798   -5.7112   22.7580 C   0  0  0  0  0  0  0  0  0  0  0  0
    8.4153   -5.6941   23.8079 C   0  0  0  0  0  0  0  0  0  0  0  0
   11.8909   -2.3418   24.1019 C   0  0  0  0  0  0  0  0  0  0  0  0
   12.6133   -0.8116   25.7731 C   0  0  0  0  0  0  0  0  0  0  0  0
   10.4654   -0.6496   24.9741 C   0  0  0  0  0  0  0  0  0  0  0  0
    7.2869   -4.5837   21.9622 C   0  0  0  0  0  0  0  0  0  0  0  0
    9.1884   -4.5552   24.0731 C   0  0  0  0  0  0  0  0  0  0  0  0
   10.6488   -1.7169   24.1097 C   0  0  0  0  0  0  0  0  0  0  0  0
    8.0620   -3.4770   22.2447 C   0  0  0  0  0  0  0  0  0  0  0  0
    9.0238   -3.4500   23.2578 C   0  0  0  0  0  0  0  0  0  0  0  0
    8.9577   -1.3679   22.2479 C   0  0  0  0  0  0  0  0  0  0  0  0
   10.1380   -4.5897   25.1740 C   0  0  0  0  0  0  0  0  0  0  0  0
    9.6482   -4.1590   26.5261 C   0  0  0  0  0  0  0  0  0  0  0  0
    5.5269   -4.5972   20.0651 N   0  0  0  0  0  0  0  0  0  0  0  0
   11.4190   -0.1791   25.8089 N   0  0  0  0  0  0  0  0  0  0  0  0
    8.0131   -2.2294   21.6305 N   0  0  0  0  0  0  0  0  0  0  0  0
    9.6043   -2.1577   23.2609 N   0  0  0  0  0  0  0  0  0  0  0  0
    9.1693   -0.2074   21.9225 O   0  0  0  0  0  0  0  0  0  0  0  0
   11.3159   -4.9413   25.0802 O   0  0  0  0  0  0  0  0  0  0  0  0
  1  8  1  0
  1 16  3  0
  2  5  2  0
  2  6  1  0
  3  4  2  0
  3  8  1  0
  4  9  1  0
  5 10  1  0
  6 17  2  0
  7 10  2  0
  7 17  1  0
  8 11  2  0
  9 12  2  0
  9 14  1  0
 10 19  1  0
 11 12  1  0
 11 18  1  0
 12 19  1  0
 13 18  1  0
 13 19  1  0
 13 20  2  0
 14 15  1  0
 14 21  2  0
M  END
