NIM-UNI-43fe0159-2
     RDKit          3D

 18 19  0  0  1  0  0  0  0  0999 V2000
   12.0153   -3.7852   25.5274 C   0  0  0  0  0  0  0  0  0  0  0  0
   11.2050   -1.5840   24.9485 C   0  0  0  0  0  0  0  0  0  0  0  0
   13.2364   -3.2338   25.9150 C   0  0  0  0  0  0  0  0  0  0  0  0
   12.4262   -1.0325   25.3362 C   0  0  0  0  0  0  0  0  0  0  0  0
   10.9995   -2.9603   25.0441 C   0  0  0  0  0  0  0  0  0  0  0  0
   13.4419   -1.8575   25.8194 C   0  0  0  0  0  0  0  0  0  0  0  0
    6.8247   -4.7343   21.8249 C   0  0  0  0  0  0  0  0  0  0  0  0
    9.8250   -5.0087   24.1477 C   0  0  0  0  0  0  0  0  0  0  0  0
    8.5221   -5.4927   23.5256 C   0  0  0  0  0  0  0  0  0  0  0  0
    8.7475   -3.2902   22.4076 C   0  0  0  0  0  0  0  0  0  0  0  0
    9.6745   -3.5577   24.6233 C   0  0  0  0  0  0  0  0  0  0  0  0
   14.7473   -1.2685   26.2357 C   0  0  0  0  0  0  0  0  0  0  0  0
    6.1302   -6.0567   22.0444 C   0  0  0  0  0  0  0  0  0  0  0  0
    7.9823   -4.5208   22.5739 N   0  0  0  0  0  0  0  0  0  0  0  0
   14.7874   -0.8756   27.6714 N   0  0  0  0  0  0  0  0  0  0  0  0
    6.3578   -3.9257   21.0197 O   0  0  0  0  0  0  0  0  0  0  0  0
    9.0350   -2.6959   23.6709 O   0  0  0  0  0  0  0  0  0  0  0  0
    5.0005   -5.8177   23.3726 Cl  0  0  0  0  0  0  0  0  0  0  0  0
  1  3  2  0
  1  5  1  0
  2  4  1  0
  2  5  2  0
  3  6  1  0
  4  6  2  0
  5 11  1  0
  6 12  1  0
  7 13  1  0
  7 14  1  0
  7 16  2  0
  8  9  1  0
  8 11  1  0
  9 14  1  0
 10 14  1  0
 10 17  1  0
 11 17  1  0
 12 15  1  0
 13 18  1  0
M  CHG  1  15   1
M  END
