NIM-UNI-7ba87d62-1
     RDKit          3D

 33 36  0  0  0  0  0  0  0  0999 V2000
   13.0609    0.4584   22.1180 C   0  0  0  0  0  0  0  0  0  0  0  0
    6.5377   -0.8715   19.0885 C   0  0  0  0  0  0  0  0  0  0  0  0
   12.5508    1.5730   22.7843 C   0  0  0  0  0  0  0  0  0  0  0  0
   11.0808    2.5335   24.4928 C   0  0  0  0  0  0  0  0  0  0  0  0
    7.1567   -1.6527   20.0579 C   0  0  0  0  0  0  0  0  0  0  0  0
   12.6337   -0.8189   22.4684 C   0  0  0  0  0  0  0  0  0  0  0  0
   10.1417    2.3659   25.5109 C   0  0  0  0  0  0  0  0  0  0  0  0
   10.2245   -0.0260   25.1950 C   0  0  0  0  0  0  0  0  0  0  0  0
    6.0359    0.3616   19.4725 C   0  0  0  0  0  0  0  0  0  0  0  0
    6.7200    0.0635   21.6454 C   0  0  0  0  0  0  0  0  0  0  0  0
   11.6049    1.4229   23.8115 C   0  0  0  0  0  0  0  0  0  0  0  0
   11.1704    0.1240   24.1678 C   0  0  0  0  0  0  0  0  0  0  0  0
    7.2537   -1.1837   21.3632 C   0  0  0  0  0  0  0  0  0  0  0  0
   11.6946   -0.9865   23.4865 C   0  0  0  0  0  0  0  0  0  0  0  0
    9.7144    1.0886   25.8613 C   0  0  0  0  0  0  0  0  0  0  0  0
    9.2116   -1.8714   22.6481 C   0  0  0  0  0  0  0  0  0  0  0  0
    7.9005   -1.9845   22.4090 C   0  0  0  0  0  0  0  0  0  0  0  0
    7.1631   -2.9525   23.2853 C   0  0  0  0  0  0  0  0  0  0  0  0
    9.1314   -3.4822   24.4513 C   0  0  0  0  0  0  0  0  0  0  0  0
    5.0568   -4.0283   23.8690 C   0  0  0  0  0  0  0  0  0  0  0  0
   11.2789   -2.3877   23.8125 C   0  0  0  0  0  0  0  0  0  0  0  0
    3.6019   -4.0452   23.4712 C   0  0  0  0  0  0  0  0  0  0  0  0
    6.1114    0.8510   20.7305 N   0  0  0  0  0  0  0  0  0  0  0  0
    7.7757   -3.6263   24.2258 N   0  0  0  0  0  0  0  0  0  0  0  0
    9.8447   -2.5906   23.6356 N   0  0  0  0  0  0  0  0  0  0  0  0
    7.0809    0.9495   26.2486 N   0  0  0  0  0  0  0  0  0  0  0  0
    5.8122   -3.1545   23.1022 N   0  0  0  0  0  0  0  0  0  0  0  0
    9.6828   -4.1266   25.3453 O   0  0  0  0  0  0  0  0  0  0  0  0
    5.4803   -4.7228   24.7919 O   0  0  0  0  0  0  0  0  0  0  0  0
    8.6916   -0.4565   27.6888 O   0  0  0  0  0  0  0  0  0  0  0  0
    8.6042    2.0399   28.0170 O   0  0  0  0  0  0  0  0  0  0  0  0
    8.5391    0.8820   27.1364 S   0  0  0  0  0  0  0  0  0  0  0  0
    3.3985   -5.2604   22.1996 Cl  0  0  0  0  0  0  0  0  0  0  0  0
  1  3  2  0
  1  6  1  0
  2  5  2  0
  2  9  1  0
  3 11  1  0
  4  7  1  0
  4 11  2  0
  5 13  1  0
  6 14  2  0
  7 15  2  0
  8 12  2  0
  8 15  1  0
  9 23  2  0
 10 13  2  0
 10 23  1  0
 11 12  1  0
 12 14  1  0
 13 17  1  0
 14 21  1  0
 15 32  1  0
 16 17  2  0
 16 25  1  0
 17 18  1  0
 18 24  2  0
 18 27  1  0
 19 24  1  0
 19 25  1  0
 19 28  2  0
 20 22  1  0
 20 27  1  0
 20 29  2  0
 21 25  1  0
 22 33  1  0
 26 32  1  0
 30 32  2  0
 31 32  2  0
M  END
