NIM-UNI-594fbbb6-1
     RDKit          3D

 28 30  0  0  1  0  0  0  0  0999 V2000
    5.6188    1.6236   18.6359 C   0  0  0  0  0  0  0  0  0  0  0  0
    5.6922    1.0209   19.8868 C   0  0  0  0  0  0  0  0  0  0  0  0
    5.6827    0.8074   17.5181 C   0  0  0  0  0  0  0  0  0  0  0  0
    5.8796   -1.0874   18.8022 C   0  0  0  0  0  0  0  0  0  0  0  0
    8.1952   -1.5179   23.7781 C   0  0  0  0  0  0  0  0  0  0  0  0
    5.8252   -0.3600   19.9802 C   0  0  0  0  0  0  0  0  0  0  0  0
    9.3560   -2.0613   24.2684 C   0  0  0  0  0  0  0  0  0  0  0  0
    6.0371   -2.3647   21.4897 C   0  0  0  0  0  0  0  0  0  0  0  0
   11.8503   -1.7849   22.6478 C   0  0  0  0  0  0  0  0  0  0  0  0
   12.3977    1.0084   24.8768 C   0  0  0  0  0  0  0  0  0  0  0  0
   12.4057    2.5318   24.8304 C   0  0  0  0  0  0  0  0  0  0  0  0
   10.3647    1.3647   23.5722 C   0  0  0  0  0  0  0  0  0  0  0  0
   11.6572    0.5505   23.6170 C   0  0  0  0  0  0  0  0  0  0  0  0
   10.6010   -1.3657   24.7376 C   0  0  0  0  0  0  0  0  0  0  0  0
    6.0806   -2.6240   22.9843 C   0  0  0  0  0  0  0  0  0  0  0  0
   12.6673   -1.1832   21.5220 C   0  0  0  0  0  0  0  0  0  0  0  0
    5.8116   -0.5373   17.5691 N   0  0  0  0  0  0  0  0  0  0  0  0
    9.2514   -3.4244   24.2910 N   0  0  0  0  0  0  0  0  0  0  0  0
    8.0506   -3.7495   23.8247 N   0  0  0  0  0  0  0  0  0  0  0  0
    7.4190   -2.6049   23.5176 N   0  0  0  0  0  0  0  0  0  0  0  0
    5.9027   -1.0020   21.2390 N   0  0  0  0  0  0  0  0  0  0  0  0
   11.4033   -0.8635   23.6188 N   0  0  0  0  0  0  0  0  0  0  0  0
    6.1159   -3.2693   20.6650 O   0  0  0  0  0  0  0  0  0  0  0  0
   11.6076   -2.9936   22.6902 O   0  0  0  0  0  0  0  0  0  0  0  0
   11.0185    3.8623   23.0287 O   0  0  0  0  0  0  0  0  0  0  0  0
    9.9325    3.3402   25.2615 O   0  0  0  0  0  0  0  0  0  0  0  0
   10.8120    2.9897   24.1658 S   0  0  0  0  0  0  0  0  0  0  0  0
   13.1401   -2.4297   20.3503 Cl  0  0  0  0  0  0  0  0  0  0  0  0
  1  2  2  0
  1  3  1  0
  2  6  1  0
  3 17  2  0
  4  6  2  0
  4 17  1  0
  5  7  2  0
  5 20  1  0
  6 21  1  0
  7 14  1  0
  7 18  1  0
  8 15  1  0
  8 21  1  0
  8 23  2  0
  9 16  1  0
  9 22  1  0
  9 24  2  0
 10 11  1  0
 10 13  1  0
 11 27  1  0
 12 13  1  0
 12 27  1  0
 13 22  1  0
 14 22  1  0
 15 20  1  0
 16 28  1  0
 18 19  2  0
 19 20  1  0
 25 27  2  0
 26 27  2  0
M  END
