NIR-THE-ed286faa-2
     RDKit          3D

 34 37  0  0  0  0  0  0  0  0999 V2000
   14.2811   -2.8215   26.7487 C   0  0  0  0  0  0  0  0  0  0  0  0
    6.0349   -1.9184   23.7415 C   0  0  0  0  0  0  0  0  0  0  0  0
   11.9054   -4.0168   25.5244 C   0  0  0  0  0  0  0  0  0  0  0  0
    5.6193   -1.8264   22.4132 C   0  0  0  0  0  0  0  0  0  0  0  0
    7.1046   -2.7465   24.0818 C   0  0  0  0  0  0  0  0  0  0  0  0
   10.7678   -4.5608   24.9255 C   0  0  0  0  0  0  0  0  0  0  0  0
   10.3813   -2.4826   23.7582 C   0  0  0  0  0  0  0  0  0  0  0  0
    7.3429   -3.3907   21.7655 C   0  0  0  0  0  0  0  0  0  0  0  0
   13.7515   -0.8131   25.5076 C   0  0  0  0  0  0  0  0  0  0  0  0
   13.4316   -2.1227   25.8318 C   0  0  0  0  0  0  0  0  0  0  0  0
   12.2966   -2.6966   25.2476 C   0  0  0  0  0  0  0  0  0  0  0  0
   11.5242   -1.9250   24.3550 C   0  0  0  0  0  0  0  0  0  0  0  0
    6.2732   -2.5625   21.4252 C   0  0  0  0  0  0  0  0  0  0  0  0
   10.0075   -3.7954   24.0444 C   0  0  0  0  0  0  0  0  0  0  0  0
    7.7585   -3.4826   23.0938 C   0  0  0  0  0  0  0  0  0  0  0  0
   11.9439   -0.6171   24.1044 C   0  0  0  0  0  0  0  0  0  0  0  0
    5.8348   -2.4647   20.0280 C   0  0  0  0  0  0  0  0  0  0  0  0
    8.8143   -5.7446   23.1921 C   0  0  0  0  0  0  0  0  0  0  0  0
    6.1100   -1.2507   17.8041 C   0  0  0  0  0  0  0  0  0  0  0  0
    7.3855   -0.5528   19.8048 C   0  0  0  0  0  0  0  0  0  0  0  0
    5.4073    0.0867   17.6041 C   0  0  0  0  0  0  0  0  0  0  0  0
    6.8342    0.8677   19.8383 C   0  0  0  0  0  0  0  0  0  0  0  0
   10.5876    2.1451   21.9464 C   0  0  0  0  0  0  0  0  0  0  0  0
    7.4433   -6.4010   23.2218 C   0  0  0  0  0  0  0  0  0  0  0  0
   11.5542    1.5351   22.9036 C   0  0  0  0  0  0  0  0  0  0  0  0
   14.9695   -3.3877   27.4918 N   0  0  0  0  0  0  0  0  0  0  0  0
   13.0365   -0.0448   24.6584 N   0  0  0  0  0  0  0  0  0  0  0  0
    6.4201   -1.4846   19.2209 N   0  0  0  0  0  0  0  0  0  0  0  0
   11.1933    0.1905   23.2127 N   0  0  0  0  0  0  0  0  0  0  0  0
    8.8714   -4.3437   23.4480 N   0  0  0  0  0  0  0  0  0  0  0  0
    4.9777   -3.2718   19.6718 O   0  0  0  0  0  0  0  0  0  0  0  0
    9.8126   -6.4167   22.9142 O   0  0  0  0  0  0  0  0  0  0  0  0
    6.4482    1.4730   18.1641 S   0  0  0  0  0  0  0  0  0  0  0  0
    7.6375   -8.1069   23.6851 Cl  0  0  0  0  0  0  0  0  0  0  0  0
  1 10  1  0
  1 26  3  0
  2  4  2  0
  2  5  1  0
  3  6  2  0
  3 11  1  0
  4 13  1  0
  5 15  2  0
  6 14  1  0
  7 12  1  0
  7 14  2  0
  8 13  2  0
  8 15  1  0
  9 10  1  0
  9 27  2  0
 10 11  2  0
 11 12  1  0
 12 16  2  0
 13 17  1  0
 14 30  1  0
 15 30  1  0
 16 27  1  0
 16 29  1  0
 17 28  1  0
 17 31  2  0
 18 24  1  0
 18 30  1  0
 18 32  2  0
 19 21  1  0
 19 28  1  0
 20 22  1  0
 20 28  1  0
 21 33  1  0
 22 33  1  0
 23 25  1  0
 24 34  1  0
 25 29  1  0
M  END
