NIR-THE-99f25457-3
     RDKit          3D

 20 21  0  0  1  0  0  0  0  0999 V2000
    9.0067    0.8416   24.8016 C   0  0  0  0  0  0  0  0  0  0  0  0
   10.3754    0.7066   25.0335 C   0  0  0  0  0  0  0  0  0  0  0  0
    8.3605   -0.0224   23.9174 C   0  0  0  0  0  0  0  0  0  0  0  0
   11.0981   -0.2923   24.3812 C   0  0  0  0  0  0  0  0  0  0  0  0
    9.0832   -1.0213   23.2651 C   0  0  0  0  0  0  0  0  0  0  0  0
   10.4520   -1.1563   23.4970 C   0  0  0  0  0  0  0  0  0  0  0  0
    6.4818   -3.5874   22.3392 C   0  0  0  0  0  0  0  0  0  0  0  0
   13.3721   -1.2897   21.9357 C   0  0  0  0  0  0  0  0  0  0  0  0
    7.1622   -0.5503   20.7441 C   0  0  0  0  0  0  0  0  0  0  0  0
    8.3999   -1.4243   20.8664 C   0  0  0  0  0  0  0  0  0  0  0  0
    6.1005   -1.2528   21.5843 C   0  0  0  0  0  0  0  0  0  0  0  0
    8.3572   -1.9522   22.3065 C   0  0  0  0  0  0  0  0  0  0  0  0
    6.8514   -2.1514   22.5770 C   0  0  0  0  0  0  0  0  0  0  0  0
   11.2468   -2.2177   22.8097 C   0  0  0  0  0  0  0  0  0  0  0  0
   14.0295   -0.7884   20.6753 C   0  0  0  0  0  0  0  0  0  0  0  0
    7.0893   -4.4669   23.2039 N   0  0  0  0  0  0  0  0  0  0  0  0
   12.0577   -1.6882   21.7439 N   0  0  0  0  0  0  0  0  0  0  0  0
    5.6935   -3.9213   21.4580 O   0  0  0  0  0  0  0  0  0  0  0  0
   13.9759   -1.3418   23.0058 O   0  0  0  0  0  0  0  0  0  0  0  0
   13.7436    0.9557   20.5686 Cl  0  0  0  0  0  0  0  0  0  0  0  0
  1  2  2  0
  1  3  1  0
  2  4  1  0
  3  5  2  0
  4  6  2  0
  5  6  1  0
  5 12  1  0
  6 14  1  0
  7 13  1  0
  7 16  1  0
  7 18  2  0
  8 15  1  0
  8 17  1  0
  8 19  2  0
  9 10  1  0
  9 11  1  0
 10 12  1  0
 11 13  1  0
 12 13  1  0
 14 17  1  0
 15 20  1  0
M  END
