NIR-THE-c331be7a-4
     RDKit          3D

 24 26  0  0  1  0  0  0  0  0999 V2000
   13.6298    0.0931   22.7552 C   0  0  0  0  0  0  0  0  0  0  0  0
   12.9889   -0.9771   22.1412 C   0  0  0  0  0  0  0  0  0  0  0  0
    9.5223   -4.4761   24.8047 C   0  0  0  0  0  0  0  0  0  0  0  0
    8.5642   -5.0262   23.9533 C   0  0  0  0  0  0  0  0  0  0  0  0
   12.9397    0.8785   23.6758 C   0  0  0  0  0  0  0  0  0  0  0  0
   11.6632   -1.2733   22.4601 C   0  0  0  0  0  0  0  0  0  0  0  0
    9.8218   -3.1157   24.7313 C   0  0  0  0  0  0  0  0  0  0  0  0
    7.9056   -4.2160   23.0283 C   0  0  0  0  0  0  0  0  0  0  0  0
   11.6019    0.5977   23.9982 C   0  0  0  0  0  0  0  0  0  0  0  0
   10.9616   -0.5137   23.4132 C   0  0  0  0  0  0  0  0  0  0  0  0
    9.1633   -2.3055   23.8064 C   0  0  0  0  0  0  0  0  0  0  0  0
    8.2052   -2.8556   22.9549 C   0  0  0  0  0  0  0  0  0  0  0  0
    8.4840    2.2423   25.2641 C   0  0  0  0  0  0  0  0  0  0  0  0
    7.1051   -2.7503   20.6869 C   0  0  0  0  0  0  0  0  0  0  0  0
   10.8949    1.5048   24.9771 C   0  0  0  0  0  0  0  0  0  0  0  0
    9.0682   -0.1498   25.0580 C   0  0  0  0  0  0  0  0  0  0  0  0
    9.5058   -0.8234   23.7453 C   0  0  0  0  0  0  0  0  0  0  0  0
    7.4875   -2.0082   21.9561 C   0  0  0  0  0  0  0  0  0  0  0  0
    8.9815    3.6610   25.3878 C   0  0  0  0  0  0  0  0  0  0  0  0
    9.4529    1.2581   25.0665 N   0  0  0  0  0  0  0  0  0  0  0  0
    8.1093   -2.7395   19.7421 N   0  0  0  0  0  0  0  0  0  0  0  0
    7.2731    2.0186   25.3372 O   0  0  0  0  0  0  0  0  0  0  0  0
    6.0192   -3.2980   20.5179 O   0  0  0  0  0  0  0  0  0  0  0  0
    9.0396    4.3175   23.7561 Cl  0  0  0  0  0  0  0  0  0  0  0  0
  1  2  2  0
  1  5  1  0
  2  6  1  0
  3  4  2  0
  3  7  1  0
  4  8  1  0
  5  9  2  0
  6 10  2  0
  7 11  2  0
  8 12  2  0
  9 10  1  0
  9 15  1  0
 10 17  1  0
 11 12  1  0
 11 17  1  0
 12 18  1  0
 13 19  1  0
 13 20  1  0
 13 22  2  0
 14 18  1  0
 14 21  1  0
 14 23  2  0
 15 20  1  0
 16 17  1  0
 16 20  1  0
 19 24  1  0
M  END
