NIR-THE-c331be7a-2
     RDKit          3D

 22 24  0  0  1  0  0  0  0  0999 V2000
   12.1911    1.8589   23.4138 C   0  0  0  0  0  0  0  0  0  0  0  0
    7.2737   -5.4549   23.2741 C   0  0  0  0  0  0  0  0  0  0  0  0
    7.8898   -4.9453   24.4134 C   0  0  0  0  0  0  0  0  0  0  0  0
   12.0593   -1.8347   22.9710 C   0  0  0  0  0  0  0  0  0  0  0  0
   12.5549   -0.5349   23.0731 C   0  0  0  0  0  0  0  0  0  0  0  0
    6.9958   -4.6142   22.1967 C   0  0  0  0  0  0  0  0  0  0  0  0
    8.2257   -3.5938   24.4781 C   0  0  0  0  0  0  0  0  0  0  0  0
   10.6914   -2.0722   23.1057 C   0  0  0  0  0  0  0  0  0  0  0  0
   10.3147    0.2901   23.4446 C   0  0  0  0  0  0  0  0  0  0  0  0
   11.6826    0.5275   23.3099 C   0  0  0  0  0  0  0  0  0  0  0  0
    9.8191   -1.0098   23.3426 C   0  0  0  0  0  0  0  0  0  0  0  0
    7.3339   -3.2532   22.2453 C   0  0  0  0  0  0  0  0  0  0  0  0
    7.9481   -2.7365   23.4011 C   0  0  0  0  0  0  0  0  0  0  0  0
    7.8603   -0.2067   20.0658 C   0  0  0  0  0  0  0  0  0  0  0  0
    7.0165   -2.3823   21.0536 C   0  0  0  0  0  0  0  0  0  0  0  0
    7.5048   -0.4256   22.5011 C   0  0  0  0  0  0  0  0  0  0  0  0
    8.3253   -1.2694   23.4898 C   0  0  0  0  0  0  0  0  0  0  0  0
    7.1126   -0.4690   18.7820 C   0  0  0  0  0  0  0  0  0  0  0  0
   12.6040    2.9402   23.4981 N   0  0  0  0  0  0  0  0  0  0  0  0
    7.5167   -1.0055   21.1588 N   0  0  0  0  0  0  0  0  0  0  0  0
    8.7251    0.6723   20.0932 O   0  0  0  0  0  0  0  0  0  0  0  0
    5.6723    0.5412   18.8237 Cl  0  0  0  0  0  0  0  0  0  0  0  0
  1 10  1  0
  1 19  3  0
  2  3  2  0
  2  6  1  0
  3  7  1  0
  4  5  2  0
  4  8  1  0
  5 10  1  0
  6 12  2  0
  7 13  2  0
  8 11  2  0
  9 10  2  0
  9 11  1  0
 11 17  1  0
 12 13  1  0
 12 15  1  0
 13 17  1  0
 14 18  1  0
 14 20  1  0
 14 21  2  0
 15 20  1  0
 16 17  1  0
 16 20  1  0
 18 22  1  0
M  END
