NIR-THE-ed286faa-1
     RDKit          3D

 32 34  0  0  0  0  0  0  0  0999 V2000
    7.6808   -5.4975   23.3124 C   0  0  0  0  0  0  0  0  0  0  0  0
    8.7500   -4.6599   22.9949 C   0  0  0  0  0  0  0  0  0  0  0  0
   13.2628   -0.7346   25.7517 C   0  0  0  0  0  0  0  0  0  0  0  0
    6.1590   -3.9661   22.2281 C   0  0  0  0  0  0  0  0  0  0  0  0
   13.8561   -1.9867   25.7484 C   0  0  0  0  0  0  0  0  0  0  0  0
   11.9948   -2.9649   24.8229 C   0  0  0  0  0  0  0  0  0  0  0  0
    6.3853   -5.1506   22.9290 C   0  0  0  0  0  0  0  0  0  0  0  0
    8.5237   -3.4754   22.2940 C   0  0  0  0  0  0  0  0  0  0  0  0
   11.9675   -0.6269   25.2581 C   0  0  0  0  0  0  0  0  0  0  0  0
    7.2282   -3.1284   21.9105 C   0  0  0  0  0  0  0  0  0  0  0  0
   11.3142   -1.7586   24.7830 C   0  0  0  0  0  0  0  0  0  0  0  0
    5.2611   -6.0329   23.2631 C   0  0  0  0  0  0  0  0  0  0  0  0
    8.8513   -1.8879   25.1418 C   0  0  0  0  0  0  0  0  0  0  0  0
    5.9581   -1.7399   20.2914 C   0  0  0  0  0  0  0  0  0  0  0  0
    5.7892   -5.7750   25.7430 C   0  0  0  0  0  0  0  0  0  0  0  0
    3.8556   -7.1170   24.9833 C   0  0  0  0  0  0  0  0  0  0  0  0
    4.9698   -4.7928   26.5714 C   0  0  0  0  0  0  0  0  0  0  0  0
    2.8092   -6.2935   25.7247 C   0  0  0  0  0  0  0  0  0  0  0  0
   11.3035    0.7109   25.2504 C   0  0  0  0  0  0  0  0  0  0  0  0
    9.2229   -2.2898   26.5507 C   0  0  0  0  0  0  0  0  0  0  0  0
    9.6878   -2.5969   21.9683 C   0  0  0  0  0  0  0  0  0  0  0  0
    5.9913   -0.3407   19.7217 C   0  0  0  0  0  0  0  0  0  0  0  0
    9.7870   -1.3580   22.8650 C   0  0  0  0  0  0  0  0  0  0  0  0
   13.2533   -3.1086   25.2951 N   0  0  0  0  0  0  0  0  0  0  0  0
    5.0112   -6.2995   24.6125 N   0  0  0  0  0  0  0  0  0  0  0  0
    6.9817   -1.9465   21.2073 N   0  0  0  0  0  0  0  0  0  0  0  0
    9.9508   -1.6985   24.2529 N   0  0  0  0  0  0  0  0  0  0  0  0
    4.6138   -6.4687   22.3123 O   0  0  0  0  0  0  0  0  0  0  0  0
    7.6525   -1.7926   24.8668 O   0  0  0  0  0  0  0  0  0  0  0  0
    5.1047   -2.5393   19.9160 O   0  0  0  0  0  0  0  0  0  0  0  0
    3.4832   -5.5871   27.2626 S   0  0  0  0  0  0  0  0  0  0  0  0
    7.0063   -0.3722   18.2710 Cl  0  0  0  0  0  0  0  0  0  0  0  0
  1  2  2  0
  1  7  1  0
  2  8  1  0
  3  5  2  0
  3  9  1  0
  4  7  2  0
  4 10  1  0
  5 24  1  0
  6 11  1  0
  6 24  2  0
  7 12  1  0
  8 10  2  0
  8 21  1  0
  9 11  2  0
  9 19  1  0
 10 26  1  0
 11 27  1  0
 12 25  1  0
 12 28  2  0
 13 20  1  0
 13 27  1  0
 13 29  2  0
 14 22  1  0
 14 26  1  0
 14 30  2  0
 15 17  1  0
 15 25  1  0
 16 18  1  0
 16 25  1  0
 17 31  1  0
 18 31  1  0
 21 23  1  0
 22 32  1  0
 23 27  1  0
M  END
