NIR-THE-0d6461ce-7
     RDKit          3D

 22 23  0  0  0  0  0  0  0  0999 V2000
    7.8574   -5.4015   26.7744 C   0  0  0  0  0  0  0  0  0  0  0  0
    8.2372   -3.4489   25.3403 C   0  0  0  0  0  0  0  0  0  0  0  0
    9.4299   -5.4587   24.8992 C   0  0  0  0  0  0  0  0  0  0  0  0
    8.5080   -4.7716   25.6723 C   0  0  0  0  0  0  0  0  0  0  0  0
    8.8875   -2.8619   24.2605 C   0  0  0  0  0  0  0  0  0  0  0  0
    9.7925   -3.6344   23.5507 C   0  0  0  0  0  0  0  0  0  0  0  0
    6.2900   -1.2287   19.4692 C   0  0  0  0  0  0  0  0  0  0  0  0
    7.4066    0.1495   22.6330 C   0  0  0  0  0  0  0  0  0  0  0  0
    6.4666   -2.1794   22.9191 C   0  0  0  0  0  0  0  0  0  0  0  0
    7.8445   -0.2325   21.2184 C   0  0  0  0  0  0  0  0  0  0  0  0
    6.9168   -2.5036   21.4946 C   0  0  0  0  0  0  0  0  0  0  0  0
    7.3076   -1.0679   23.5594 C   0  0  0  0  0  0  0  0  0  0  0  0
   12.7877   -3.6046   22.2020 C   0  0  0  0  0  0  0  0  0  0  0  0
    6.4434    0.0385   18.6663 C   0  0  0  0  0  0  0  0  0  0  0  0
   11.4093   -3.7531   21.6539 C   0  0  0  0  0  0  0  0  0  0  0  0
    7.3281   -5.9140   27.6711 N   0  0  0  0  0  0  0  0  0  0  0  0
   10.0815   -4.9223   23.8431 N   0  0  0  0  0  0  0  0  0  0  0  0
    6.9845   -1.2914   20.6770 N   0  0  0  0  0  0  0  0  0  0  0  0
    8.6199   -1.5467   23.9283 N   0  0  0  0  0  0  0  0  0  0  0  0
   10.4604   -3.0441   22.4483 N   0  0  0  0  0  0  0  0  0  0  0  0
    5.5724   -2.1335   19.0353 O   0  0  0  0  0  0  0  0  0  0  0  0
    5.1450    1.1145   19.1705 Cl  0  0  0  0  0  0  0  0  0  0  0  0
  1  4  1  0
  1 16  3  0
  2  4  2  0
  2  5  1  0
  3  4  1  0
  3 17  2  0
  5  6  2  0
  5 19  1  0
  6 17  1  0
  6 20  1  0
  7 14  1  0
  7 18  1  0
  7 21  2  0
  8 10  1  0
  8 12  1  0
  9 11  1  0
  9 12  1  0
 10 18  1  0
 11 18  1  0
 12 19  1  0
 13 15  1  0
 14 22  1  0
 15 20  1  0
M  END
