NIR-THE-0d6461ce-10
     RDKit          3D

 24 26  0  0  0  0  0  0  0  0999 V2000
   10.1580   -5.0034   26.1877 C   0  0  0  0  0  0  0  0  0  0  0  0
    9.1096   -5.0296   27.1073 C   0  0  0  0  0  0  0  0  0  0  0  0
   10.0831   -4.1750   25.0679 C   0  0  0  0  0  0  0  0  0  0  0  0
   10.5836   -1.3838   22.2831 C   0  0  0  0  0  0  0  0  0  0  0  0
   11.3934   -0.2116   22.2899 C   0  0  0  0  0  0  0  0  0  0  0  0
    7.9111   -3.3991   25.7873 C   0  0  0  0  0  0  0  0  0  0  0  0
    7.9861   -4.2275   26.9071 C   0  0  0  0  0  0  0  0  0  0  0  0
    8.9596   -3.3729   24.8677 C   0  0  0  0  0  0  0  0  0  0  0  0
    9.8037   -1.4806   23.4144 C   0  0  0  0  0  0  0  0  0  0  0  0
   11.2015    0.5432   23.4263 C   0  0  0  0  0  0  0  0  0  0  0  0
    5.9465   -2.1174   19.1548 C   0  0  0  0  0  0  0  0  0  0  0  0
    7.3272   -1.2372   22.3427 C   0  0  0  0  0  0  0  0  0  0  0  0
    7.7145   -3.6897   21.9109 C   0  0  0  0  0  0  0  0  0  0  0  0
    6.0621   -1.3145   21.4922 C   0  0  0  0  0  0  0  0  0  0  0  0
    6.4409   -3.7183   21.0683 C   0  0  0  0  0  0  0  0  0  0  0  0
    7.6497   -2.5928   22.9792 C   0  0  0  0  0  0  0  0  0  0  0  0
    6.8651   -4.2563   27.8901 C   0  0  0  0  0  0  0  0  0  0  0  0
    6.3065   -0.7314   18.6823 C   0  0  0  0  0  0  0  0  0  0  0  0
    6.1591   -2.3920   20.5054 N   0  0  0  0  0  0  0  0  0  0  0  0
    8.8833   -2.5260   23.7233 N   0  0  0  0  0  0  0  0  0  0  0  0
    5.4882   -2.9293   18.3469 O   0  0  0  0  0  0  0  0  0  0  0  0
   10.0492   -0.1617   24.4787 S   0  0  0  0  0  0  0  0  0  0  0  0
    6.8189   -0.8881   17.0058 Cl  0  0  0  0  0  0  0  0  0  0  0  0
   12.1004    2.1747   23.7976 Br  0  0  0  0  0  0  0  0  0  0  0  0
  1  2  2  0
  1  3  1  0
  2  7  1  0
  3  8  2  0
  4  5  1  0
  4  9  2  0
  5 10  2  0
  6  7  2  0
  6  8  1  0
  7 17  1  0
  8 20  1  0
  9 20  1  0
  9 22  1  0
 10 22  1  0
 10 24  1  0
 11 18  1  0
 11 19  1  0
 11 21  2  0
 12 14  1  0
 12 16  1  0
 13 15  1  0
 13 16  1  0
 14 19  1  0
 15 19  1  0
 16 20  1  0
 18 23  1  0
M  END
