NIR-THE-0d6461ce-8
     RDKit          3D

 19 20  0  0  0  0  0  0  0  0999 V2000
   11.4776   -0.9981   24.7917 C   0  0  0  0  0  0  0  0  0  0  0  0
   13.8782   -0.7857   24.6227 C   0  0  0  0  0  0  0  0  0  0  0  0
   12.8895   -2.9238   25.1591 C   0  0  0  0  0  0  0  0  0  0  0  0
   12.6073   -0.2146   24.5566 C   0  0  0  0  0  0  0  0  0  0  0  0
   11.6186   -2.3527   25.0930 C   0  0  0  0  0  0  0  0  0  0  0  0
   14.0193   -2.1403   24.9240 C   0  0  0  0  0  0  0  0  0  0  0  0
    6.3653   -4.8546   21.9555 C   0  0  0  0  0  0  0  0  0  0  0  0
    9.0728   -2.8037   23.2361 C   0  0  0  0  0  0  0  0  0  0  0  0
    9.0080   -5.0570   24.3623 C   0  0  0  0  0  0  0  0  0  0  0  0
    8.4796   -3.4414   21.9808 C   0  0  0  0  0  0  0  0  0  0  0  0
    8.4186   -5.6487   23.0842 C   0  0  0  0  0  0  0  0  0  0  0  0
    9.8744   -3.8259   24.0564 C   0  0  0  0  0  0  0  0  0  0  0  0
   12.4556    1.2335   24.2329 C   0  0  0  0  0  0  0  0  0  0  0  0
   10.3995   -3.1970   25.3447 C   0  0  0  0  0  0  0  0  0  0  0  0
    5.5345   -5.6915   22.8953 C   0  0  0  0  0  0  0  0  0  0  0  0
    7.6912   -4.6308   22.3243 N   0  0  0  0  0  0  0  0  0  0  0  0
    5.8501   -4.4160   20.9238 O   0  0  0  0  0  0  0  0  0  0  0  0
   15.5875   -2.8447   25.0068 Cl  0  0  0  0  0  0  0  0  0  0  0  0
    5.5476   -4.8663   24.4499 Cl  0  0  0  0  0  0  0  0  0  0  0  0
  1  4  2  0
  1  5  1  0
  2  4  1  0
  2  6  2  0
  3  5  2  0
  3  6  1  0
  4 13  1  0
  5 14  1  0
  6 18  1  0
  7 15  1  0
  7 16  1  0
  7 17  2  0
  8 10  1  0
  8 12  1  0
  9 11  1  0
  9 12  1  0
 10 16  1  0
 11 16  1  0
 12 14  1  0
 15 19  1  0
M  END
