NIR-THE-99f25457-1
     RDKit          3D

 30 33  0  0  1  0  0  0  0  0999 V2000
   11.7175    2.5850   23.9380 C   0  0  0  0  0  0  0  0  0  0  0  0
   10.4919    1.9625   24.1551 C   0  0  0  0  0  0  0  0  0  0  0  0
   13.4534   -1.5162   21.9786 C   0  0  0  0  0  0  0  0  0  0  0  0
   12.7636    1.8794   23.3427 C   0  0  0  0  0  0  0  0  0  0  0  0
   10.3075    0.6321   23.7777 C   0  0  0  0  0  0  0  0  0  0  0  0
   13.6377   -0.1858   22.3560 C   0  0  0  0  0  0  0  0  0  0  0  0
   12.2277   -2.1387   22.1958 C   0  0  0  0  0  0  0  0  0  0  0  0
    7.2612    1.0553   22.1477 C   0  0  0  0  0  0  0  0  0  0  0  0
    6.9885    1.8413   23.2456 C   0  0  0  0  0  0  0  0  0  0  0  0
    6.4235   -0.5203   23.6371 C   0  0  0  0  0  0  0  0  0  0  0  0
   12.5958    0.5396   22.9565 C   0  0  0  0  0  0  0  0  0  0  0  0
   11.3494   -0.0934   23.1773 C   0  0  0  0  0  0  0  0  0  0  0  0
    6.9338   -0.3128   22.3743 C   0  0  0  0  0  0  0  0  0  0  0  0
   11.1816   -1.4332   22.7911 C   0  0  0  0  0  0  0  0  0  0  0  0
    5.3426   -2.3184   19.7704 C   0  0  0  0  0  0  0  0  0  0  0  0
    9.0280   -3.6917   24.7626 C   0  0  0  0  0  0  0  0  0  0  0  0
    7.3677   -1.0597   18.9283 C   0  0  0  0  0  0  0  0  0  0  0  0
    8.5380   -1.8921   19.4228 C   0  0  0  0  0  0  0  0  0  0  0  0
    7.1270   -1.4141   21.3417 C   0  0  0  0  0  0  0  0  0  0  0  0
    6.3180   -1.1700   20.0391 C   0  0  0  0  0  0  0  0  0  0  0  0
    8.6020   -1.5614   20.9092 C   0  0  0  0  0  0  0  0  0  0  0  0
    9.4322   -4.8503   25.6382 C   0  0  0  0  0  0  0  0  0  0  0  0
    9.2853   -2.6582   21.6650 C   0  0  0  0  0  0  0  0  0  0  0  0
    9.8746   -2.1715   22.9979 C   0  0  0  0  0  0  0  0  0  0  0  0
    4.3779   -2.4647   20.7390 N   0  0  0  0  0  0  0  0  0  0  0  0
   10.0487   -3.2593   23.9344 N   0  0  0  0  0  0  0  0  0  0  0  0
    5.4227   -3.0214   18.7660 O   0  0  0  0  0  0  0  0  0  0  0  0
    7.8939   -3.2174   24.7970 O   0  0  0  0  0  0  0  0  0  0  0  0
    6.3405    0.9306   24.5428 S   0  0  0  0  0  0  0  0  0  0  0  0
    8.3673   -6.2140   25.2627 Cl  0  0  0  0  0  0  0  0  0  0  0  0
  1  2  2  0
  1  4  1  0
  2  5  1  0
  3  6  2  0
  3  7  1  0
  4 11  2  0
  5 12  2  0
  6 11  1  0
  7 14  2  0
  8  9  2  0
  8 13  1  0
  9 29  1  0
 10 13  2  0
 10 29  1  0
 11 12  1  0
 12 14  1  0
 13 19  1  0
 14 24  1  0
 15 20  1  0
 15 25  1  0
 15 27  2  0
 16 22  1  0
 16 26  1  0
 16 28  2  0
 17 18  1  0
 17 20  1  0
 18 21  1  0
 19 20  1  0
 19 21  1  0
 21 23  1  0
 22 30  1  0
 23 24  1  0
 24 26  1  0
M  END
