NIR-THE-0d6461ce-5
     RDKit          3D

 25 27  0  0  0  0  0  0  0  0999 V2000
   10.5404   -3.8395   24.1926 C   0  0  0  0  0  0  0  0  0  0  0  0
   10.0752   -5.4729   25.9585 C   0  0  0  0  0  0  0  0  0  0  0  0
   10.1281   -2.7690   23.3986 C   0  0  0  0  0  0  0  0  0  0  0  0
    9.2043   -6.0126   26.9054 C   0  0  0  0  0  0  0  0  0  0  0  0
    7.9789   -2.7798   24.4979 C   0  0  0  0  0  0  0  0  0  0  0  0
    7.5137   -4.4131   26.2639 C   0  0  0  0  0  0  0  0  0  0  0  0
    9.6770   -4.3953   25.1507 C   0  0  0  0  0  0  0  0  0  0  0  0
    8.3771   -3.8574   25.3057 C   0  0  0  0  0  0  0  0  0  0  0  0
    8.8498   -2.2401   23.5510 C   0  0  0  0  0  0  0  0  0  0  0  0
    7.9261   -5.4837   27.0579 C   0  0  0  0  0  0  0  0  0  0  0  0
    6.2377   -0.9654   18.2345 C   0  0  0  0  0  0  0  0  0  0  0  0
    6.9329    0.3297   21.5504 C   0  0  0  0  0  0  0  0  0  0  0  0
    6.5083   -2.1615   21.6009 C   0  0  0  0  0  0  0  0  0  0  0  0
    7.4863    0.1771   20.1329 C   0  0  0  0  0  0  0  0  0  0  0  0
    7.0615   -2.2543   20.1788 C   0  0  0  0  0  0  0  0  0  0  0  0
    7.0699   -0.9589   22.3695 C   0  0  0  0  0  0  0  0  0  0  0  0
    6.1393    0.3721   17.5450 C   0  0  0  0  0  0  0  0  0  0  0  0
    6.8918   -0.9872   19.4660 N   0  0  0  0  0  0  0  0  0  0  0  0
    7.8097   -7.3980   28.9090 N   0  0  0  0  0  0  0  0  0  0  0  0
    8.4425   -1.1796   22.7629 N   0  0  0  0  0  0  0  0  0  0  0  0
    5.7457   -1.9593   17.6941 O   0  0  0  0  0  0  0  0  0  0  0  0
    6.5901   -5.1553   29.2671 O   0  0  0  0  0  0  0  0  0  0  0  0
    5.7157   -6.7728   27.5447 O   0  0  0  0  0  0  0  0  0  0  0  0
    6.8373   -6.1608   28.2433 S   0  0  0  0  0  0  0  0  0  0  0  0
    7.5882    0.5387   16.5597 Cl  0  0  0  0  0  0  0  0  0  0  0  0
  1  3  2  0
  1  7  1  0
  2  4  1  0
  2  7  2  0
  3  9  1  0
  4 10  2  0
  5  8  1  0
  5  9  2  0
  6  8  2  0
  6 10  1  0
  7  8  1  0
  9 20  1  0
 10 24  1  0
 11 17  1  0
 11 18  1  0
 11 21  2  0
 12 14  1  0
 12 16  1  0
 13 15  1  0
 13 16  1  0
 14 18  1  0
 15 18  1  0
 16 20  1  0
 17 25  1  0
 19 24  1  0
 22 24  2  0
 23 24  2  0
M  END
