NIR-THE-0d6461ce-12
     RDKit          3D

 24 26  0  0  0  0  0  0  0  0999 V2000
   10.7441   -5.3813   25.8511 C   0  0  0  0  0  0  0  0  0  0  0  0
    9.7629   -5.7830   26.7574 C   0  0  0  0  0  0  0  0  0  0  0  0
   10.4648   -4.3831   24.9177 C   0  0  0  0  0  0  0  0  0  0  0  0
   10.8876    0.2159   22.9646 C   0  0  0  0  0  0  0  0  0  0  0  0
   10.3092   -1.0657   22.7341 C   0  0  0  0  0  0  0  0  0  0  0  0
    8.2229   -4.1883   25.7970 C   0  0  0  0  0  0  0  0  0  0  0  0
    8.5023   -5.1865   26.7304 C   0  0  0  0  0  0  0  0  0  0  0  0
    9.2042   -3.7866   24.8906 C   0  0  0  0  0  0  0  0  0  0  0  0
   10.6129    0.6876   24.2293 C   0  0  0  0  0  0  0  0  0  0  0  0
    9.6146   -1.5248   23.8316 C   0  0  0  0  0  0  0  0  0  0  0  0
    5.7463   -2.0549   19.5674 C   0  0  0  0  0  0  0  0  0  0  0  0
    7.0883   -1.5567   22.8529 C   0  0  0  0  0  0  0  0  0  0  0  0
    7.9019   -3.7609   21.9417 C   0  0  0  0  0  0  0  0  0  0  0  0
    5.8209   -1.7089   22.0161 C   0  0  0  0  0  0  0  0  0  0  0  0
    6.6175   -3.8693   21.1223 C   0  0  0  0  0  0  0  0  0  0  0  0
    7.6855   -2.9225   23.2061 C   0  0  0  0  0  0  0  0  0  0  0  0
    7.4533   -5.6167   27.6991 C   0  0  0  0  0  0  0  0  0  0  0  0
    5.8211   -0.5613   19.3745 C   0  0  0  0  0  0  0  0  0  0  0  0
    6.0691   -2.5381   20.8351 N   0  0  0  0  0  0  0  0  0  0  0  0
   11.0180    1.8710   24.7542 N   0  0  0  0  0  0  0  0  0  0  0  0
    8.9189   -2.7660   23.9368 N   0  0  0  0  0  0  0  0  0  0  0  0
    5.4087   -2.7687   18.6195 O   0  0  0  0  0  0  0  0  0  0  0  0
    9.6613   -0.4126   25.1328 S   0  0  0  0  0  0  0  0  0  0  0  0
    6.2744   -0.2924   17.6952 Cl  0  0  0  0  0  0  0  0  0  0  0  0
  1  2  2  0
  1  3  1  0
  2  7  1  0
  3  8  2  0
  4  5  1  0
  4  9  2  0
  5 10  2  0
  6  7  2  0
  6  8  1  0
  7 17  1  0
  8 21  1  0
  9 20  1  0
  9 23  1  0
 10 21  1  0
 10 23  1  0
 11 18  1  0
 11 19  1  0
 11 22  2  0
 12 14  1  0
 12 16  1  0
 13 15  1  0
 13 16  1  0
 14 19  1  0
 15 19  1  0
 16 21  1  0
 18 24  1  0
M  END
