NIY-UNK-62612a68-3
     RDKit          3D

 32 35  0  0  0  0  0  0  0  0999 V2000
    4.0325   -4.4384   23.0324 C   0  0  0  0  0  0  0  0  0  0  0  0
    5.1883   -4.4318   23.3580 C   0  0  0  0  0  0  0  0  0  0  0  0
   13.2855    5.1619   22.5605 C   0  0  0  0  0  0  0  0  0  0  0  0
    7.0438   -5.3212   24.6908 C   0  0  0  0  0  0  0  0  0  0  0  0
   12.1852    5.7195   23.2103 C   0  0  0  0  0  0  0  0  0  0  0  0
   13.2573    3.8274   22.1640 C   0  0  0  0  0  0  0  0  0  0  0  0
    8.3873   -5.2908   25.0478 C   0  0  0  0  0  0  0  0  0  0  0  0
   11.6176   -2.5357   23.4941 C   0  0  0  0  0  0  0  0  0  0  0  0
    7.4555   -3.5225   23.1902 C   0  0  0  0  0  0  0  0  0  0  0  0
   12.9308   -3.7575   24.9723 C   0  0  0  0  0  0  0  0  0  0  0  0
    6.5610   -4.4236   23.7451 C   0  0  0  0  0  0  0  0  0  0  0  0
   11.0431    4.9471   23.4613 C   0  0  0  0  0  0  0  0  0  0  0  0
   11.0189    3.5948   23.0783 C   0  0  0  0  0  0  0  0  0  0  0  0
   12.1307    3.0469   22.4220 C   0  0  0  0  0  0  0  0  0  0  0  0
   11.6657   -3.5870   24.4546 C   0  0  0  0  0  0  0  0  0  0  0  0
    9.2001   -4.3510   24.4345 C   0  0  0  0  0  0  0  0  0  0  0  0
   12.8480   -1.9424   23.3145 C   0  0  0  0  0  0  0  0  0  0  0  0
    7.7824    2.6957   24.8507 C   0  0  0  0  0  0  0  0  0  0  0  0
    9.8705    5.5516   24.1862 C   0  0  0  0  0  0  0  0  0  0  0  0
    9.8204    2.7176   23.3489 C   0  0  0  0  0  0  0  0  0  0  0  0
    8.5794    4.8127   23.8567 C   0  0  0  0  0  0  0  0  0  0  0  0
    7.9148    1.1931   24.8990 C   0  0  0  0  0  0  0  0  0  0  0  0
   12.1479    1.6183   21.9789 C   0  0  0  0  0  0  0  0  0  0  0  0
    8.7672   -3.4629   23.5117 N   0  0  0  0  0  0  0  0  0  0  0  0
    8.7342    3.3772   24.0882 N   0  0  0  0  0  0  0  0  0  0  0  0
   10.5964   -4.3318   24.8176 N   0  0  0  0  0  0  0  0  0  0  0  0
   13.0985   -0.8543   22.4071 N   0  0  0  0  0  0  0  0  0  0  0  0
    6.8691    3.2432   25.4731 O   0  0  0  0  0  0  0  0  0  0  0  0
   12.5750    0.7085   24.3783 O   0  0  0  0  0  0  0  0  0  0  0  0
   14.5598    1.2538   22.9263 O   0  0  0  0  0  0  0  0  0  0  0  0
   14.0539   -2.6527   24.3011 S   0  0  0  0  0  0  0  0  0  0  0  0
   13.2104    0.7296   23.0685 S   0  0  0  0  0  0  0  0  0  0  0  0
  1  2  3  0
  2 11  1  0
  3  5  2  0
  3  6  1  0
  4  7  2  0
  4 11  1  0
  5 12  1  0
  6 14  2  0
  7 16  1  0
  8 15  1  0
  8 17  2  0
  9 11  2  0
  9 24  1  0
 10 15  2  0
 10 31  1  0
 12 13  2  0
 12 19  1  0
 13 14  1  0
 13 20  1  0
 14 23  1  0
 15 26  1  0
 16 24  2  0
 16 26  1  0
 17 27  1  0
 17 31  1  0
 18 22  1  0
 18 25  1  0
 18 28  2  0
 19 21  1  0
 20 25  1  0
 21 25  1  0
 23 32  1  0
 27 32  1  0
 29 32  2  0
 30 32  2  0
M  END
