OLE-CAR-5b17bec5-5
     RDKit          3D

 22 24  0  0  0  0  0  0  0  0999 V2000
    8.9285   -3.6672   26.0823 C   0  0  0  0  0  0  0  0  0  0  0  0
    6.7785   -2.5880   25.8602 C   0  0  0  0  0  0  0  0  0  0  0  0
    8.3118   -4.7770   26.6599 C   0  0  0  0  0  0  0  0  0  0  0  0
    6.1617   -3.6978   26.4377 C   0  0  0  0  0  0  0  0  0  0  0  0
    9.7567   -0.5337   25.5101 C   0  0  0  0  0  0  0  0  0  0  0  0
    9.9492    0.3755   24.4426 C   0  0  0  0  0  0  0  0  0  0  0  0
    6.3648    0.5042   20.4962 C   0  0  0  0  0  0  0  0  0  0  0  0
    7.9706   -0.1743   18.8783 C   0  0  0  0  0  0  0  0  0  0  0  0
    6.0009    0.7656   18.1605 C   0  0  0  0  0  0  0  0  0  0  0  0
    8.1619   -2.5727   25.6825 C   0  0  0  0  0  0  0  0  0  0  0  0
    7.6039   -0.0576   20.2093 C   0  0  0  0  0  0  0  0  0  0  0  0
    6.9284   -4.7923   26.8376 C   0  0  0  0  0  0  0  0  0  0  0  0
    5.5419    0.9262   19.4579 C   0  0  0  0  0  0  0  0  0  0  0  0
    8.7987   -1.4245   25.0850 C   0  0  0  0  0  0  0  0  0  0  0  0
    9.0953   -0.0246   23.4413 C   0  0  0  0  0  0  0  0  0  0  0  0
    8.8516    0.5030   22.1422 C   0  0  0  0  0  0  0  0  0  0  0  0
    7.1983    0.2242   17.8427 N   0  0  0  0  0  0  0  0  0  0  0  0
    8.9608    1.7108   21.8115 O   0  0  0  0  0  0  0  0  0  0  0  0
    8.3904   -1.1212   23.8249 O   0  0  0  0  0  0  0  0  0  0  0  0
    8.4531   -0.4896   21.2316 O   0  0  0  0  0  0  0  0  0  0  0  0
    6.1668   -6.1622   27.5481 Cl  0  0  0  0  0  0  0  0  0  0  0  0
    4.0069    1.6232   19.7734 Cl  0  0  0  0  0  0  0  0  0  0  0  0
  1  3  2  0
  1 10  1  0
  2  4  1  0
  2 10  2  0
  3 12  1  0
  4 12  2  0
  5  6  1  0
  5 14  2  0
  6 15  2  0
  7 11  2  0
  7 13  1  0
  8 11  1  0
  8 17  2  0
  9 13  2  0
  9 17  1  0
 10 14  1  0
 11 20  1  0
 12 21  1  0
 13 22  1  0
 14 19  1  0
 15 16  1  0
 15 19  1  0
 16 18  2  0
 16 20  1  0
M  END
