OLE-CAR-5b17bec5-1
     RDKit          3D

 15 16  0  0  0  0  0  0  0  0999 V2000
   13.5509   -1.4863   22.1400 C   0  0  0  0  0  0  0  0  0  0  0  0
   12.9371   -0.4362   21.4163 C   0  0  0  0  0  0  0  0  0  0  0  0
    7.0921    0.4668   20.7454 C   0  0  0  0  0  0  0  0  0  0  0  0
    8.6532   -0.0014   19.0132 C   0  0  0  0  0  0  0  0  0  0  0  0
    6.5818    0.8165   18.4489 C   0  0  0  0  0  0  0  0  0  0  0  0
   12.5441   -2.1035   22.8453 C   0  0  0  0  0  0  0  0  0  0  0  0
    8.3524    0.0189   20.3656 C   0  0  0  0  0  0  0  0  0  0  0  0
    6.1839    0.8750   19.7748 C   0  0  0  0  0  0  0  0  0  0  0  0
   11.5990   -0.4867   21.7307 C   0  0  0  0  0  0  0  0  0  0  0  0
   10.4514    0.3477   21.2916 C   0  0  0  0  0  0  0  0  0  0  0  0
    7.7973    0.3872   18.0416 N   0  0  0  0  0  0  0  0  0  0  0  0
   10.5598    1.5253   20.9840 O   0  0  0  0  0  0  0  0  0  0  0  0
   11.3511   -1.5003   22.6012 O   0  0  0  0  0  0  0  0  0  0  0  0
    9.2589   -0.3841   21.2900 O   0  0  0  0  0  0  0  0  0  0  0  0
    4.6203    1.4329   20.2055 Cl  0  0  0  0  0  0  0  0  0  0  0  0
  1  2  1  0
  1  6  2  0
  2  9  2  0
  3  7  2  0
  3  8  1  0
  4  7  1  0
  4 11  2  0
  5  8  2  0
  5 11  1  0
  6 13  1  0
  7 14  1  0
  8 15  1  0
  9 10  1  0
  9 13  1  0
 10 12  2  0
 10 14  1  0
M  END
