OLE-CAR-5b17bec5-4
     RDKit          3D

 19 21  0  0  0  0  0  0  0  0999 V2000
   14.2805   -1.8589   22.8620 C   0  0  0  0  0  0  0  0  0  0  0  0
   14.2727   -1.0836   24.0128 C   0  0  0  0  0  0  0  0  0  0  0  0
   13.0998   -2.0691   22.1449 C   0  0  0  0  0  0  0  0  0  0  0  0
   13.0888   -0.5026   24.4712 C   0  0  0  0  0  0  0  0  0  0  0  0
   10.5620   -1.5644   22.0260 C   0  0  0  0  0  0  0  0  0  0  0  0
    6.1207    0.1618   20.6022 C   0  0  0  0  0  0  0  0  0  0  0  0
    7.8232   -0.5356   19.0950 C   0  0  0  0  0  0  0  0  0  0  0  0
    6.2224    0.9374   18.3562 C   0  0  0  0  0  0  0  0  0  0  0  0
   11.8827   -1.4937   22.5837 C   0  0  0  0  0  0  0  0  0  0  0  0
    7.2609   -0.5960   20.3600 C   0  0  0  0  0  0  0  0  0  0  0  0
   11.9002   -0.7164   23.7459 C   0  0  0  0  0  0  0  0  0  0  0  0
    5.5850    0.9458   19.5865 C   0  0  0  0  0  0  0  0  0  0  0  0
    9.6345   -0.8600   22.7561 C   0  0  0  0  0  0  0  0  0  0  0  0
    8.2378   -0.7030   22.5111 C   0  0  0  0  0  0  0  0  0  0  0  0
    7.3315    0.2142   18.0833 N   0  0  0  0  0  0  0  0  0  0  0  0
    7.4442   -0.0414   23.2234 O   0  0  0  0  0  0  0  0  0  0  0  0
    7.8228   -1.3925   21.3614 O   0  0  0  0  0  0  0  0  0  0  0  0
   10.3309   -0.1055   24.1166 S   0  0  0  0  0  0  0  0  0  0  0  0
    4.1795    1.8933   19.8482 Cl  0  0  0  0  0  0  0  0  0  0  0  0
  1  2  2  0
  1  3  1  0
  2  4  1  0
  3  9  2  0
  4 11  2  0
  5  9  1  0
  5 13  2  0
  6 10  2  0
  6 12  1  0
  7 10  1  0
  7 15  2  0
  8 12  2  0
  8 15  1  0
  9 11  1  0
 10 17  1  0
 11 18  1  0
 12 19  1  0
 13 14  1  0
 13 18  1  0
 14 16  2  0
 14 17  1  0
M  END
