OLE-CAR-5b17bec5-8
     RDKit          3D

 41 42  0  0  1  0  0  0  0  0999 V2000
   10.3863    7.8092   25.6717 C   0  0  0  0  0  0  0  0  0  0  0  0
    9.4100    7.0476   25.0295 C   0  0  0  0  0  0  0  0  0  0  0  0
   11.7356    7.5925   25.3922 C   0  0  0  0  0  0  0  0  0  0  0  0
    9.7830    6.0693   24.1078 C   0  0  0  0  0  0  0  0  0  0  0  0
   12.1086    6.6142   24.4705 C   0  0  0  0  0  0  0  0  0  0  0  0
   11.1323    5.8526   23.8283 C   0  0  0  0  0  0  0  0  0  0  0  0
    7.6023   -6.1772   26.7611 C   0  0  0  0  0  0  0  0  0  0  0  0
    4.4672   -5.4540   23.8794 C   0  0  0  0  0  0  0  0  0  0  0  0
    5.0295   -4.3439   24.3769 C   0  0  0  0  0  0  0  0  0  0  0  0
    2.9944   -5.5795   23.8333 C   0  0  0  0  0  0  0  0  0  0  0  0
    8.0629   -2.9228   22.9214 C   0  0  0  0  0  0  0  0  0  0  0  0
   10.0163   -0.4031   23.2785 C   0  0  0  0  0  0  0  0  0  0  0  0
   11.4579    2.4302   22.7965 C   0  0  0  0  0  0  0  0  0  0  0  0
    6.6479   -4.6485   28.3099 C   0  0  0  0  0  0  0  0  0  0  0  0
    6.9168   -5.9693   29.0042 C   0  0  0  0  0  0  0  0  0  0  0  0
    6.6074   -5.0325   26.8285 C   0  0  0  0  0  0  0  0  0  0  0  0
    1.1486   -8.4618   22.5471 C   0  0  0  0  0  0  0  0  0  0  0  0
    6.9647    0.5296   20.3357 C   0  0  0  0  0  0  0  0  0  0  0  0
    7.4414   -0.8894   18.3308 C   0  0  0  0  0  0  0  0  0  0  0  0
   13.9105   -0.7281   23.6129 C   0  0  0  0  0  0  0  0  0  0  0  0
   12.1022   -1.1686   25.2932 C   0  0  0  0  0  0  0  0  0  0  0  0
   11.5343    4.8002   22.8371 C   0  0  0  0  0  0  0  0  0  0  0  0
    6.9619   -3.8861   25.9019 C   0  0  0  0  0  0  0  0  0  0  0  0
    7.7287   -1.8393   20.6825 C   0  0  0  0  0  0  0  0  0  0  0  0
    1.3068   -7.0890   23.1652 C   0  0  0  0  0  0  0  0  0  0  0  0
    6.5189   -4.1390   24.4552 C   0  0  0  0  0  0  0  0  0  0  0  0
    8.1696   -1.6198   22.1353 C   0  0  0  0  0  0  0  0  0  0  0  0
   11.4899   -0.0403   23.1072 C   0  0  0  0  0  0  0  0  0  0  0  0
    7.8407   -0.5954   19.7775 C   0  0  0  0  0  0  0  0  0  0  0  0
   12.4249   -1.0540   23.8002 C   0  0  0  0  0  0  0  0  0  0  0  0
    7.7235   -6.6828   28.0532 N   0  0  0  0  0  0  0  0  0  0  0  0
    6.8546   -3.0259   23.5966 N   0  0  0  0  0  0  0  0  0  0  0  0
    9.5371   -1.1790   22.2291 N   0  0  0  0  0  0  0  0  0  0  0  0
   11.6743    1.3101   23.5749 N   0  0  0  0  0  0  0  0  0  0  0  0
    8.1524   -6.5935   25.7535 O   0  0  0  0  0  0  0  0  0  0  0  0
    2.2000   -4.7369   24.2195 O   0  0  0  0  0  0  0  0  0  0  0  0
    8.9713   -3.7494   22.9733 O   0  0  0  0  0  0  0  0  0  0  0  0
    9.3381   -0.0135   24.2270 O   0  0  0  0  0  0  0  0  0  0  0  0
   11.0874    2.4265   21.6271 O   0  0  0  0  0  0  0  0  0  0  0  0
    2.7016   -6.7913   23.2888 O   0  0  0  0  0  0  0  0  0  0  0  0
   11.7185    3.5572   23.5240 O   0  0  0  0  0  0  0  0  0  0  0  0
  1  2  2  0
  1  3  1  0
  2  4  1  0
  3  5  2  0
  4  6  2  0
  5  6  1  0
  6 22  1  0
  7 16  1  0
  7 31  1  0
  7 35  2  0
  8  9  2  0
  8 10  1  0
  9 26  1  0
 10 36  2  0
 10 40  1  0
 11 27  1  0
 11 32  1  0
 11 37  2  0
 12 28  1  0
 12 33  1  0
 12 38  2  0
 13 34  1  0
 13 39  2  0
 13 41  1  0
 14 15  1  0
 14 16  1  0
 15 31  1  0
 16 23  1  0
 17 25  1  0
 18 29  1  0
 19 29  1  0
 20 30  1  0
 21 30  1  0
 22 41  1  0
 23 26  1  0
 24 27  1  0
 24 29  1  0
 25 40  1  0
 26 32  1  0
 27 33  1  0
 28 30  1  0
 28 34  1  0
M  END
