OLE-CAR-5b17bec5-6
     RDKit          3D

 25 28  0  0  0  0  0  0  0  0999 V2000
   13.4946   -0.1181   23.2778 C   0  0  0  0  0  0  0  0  0  0  0  0
   12.8985    1.1305   23.1287 C   0  0  0  0  0  0  0  0  0  0  0  0
   12.7145   -1.2740   23.2371 C   0  0  0  0  0  0  0  0  0  0  0  0
   11.5198    1.2281   22.9382 C   0  0  0  0  0  0  0  0  0  0  0  0
   10.5247   -2.3476   23.0026 C   0  0  0  0  0  0  0  0  0  0  0  0
    3.5524    1.6938   21.4363 C   0  0  0  0  0  0  0  0  0  0  0  0
    9.1461   -2.2501   22.8123 C   0  0  0  0  0  0  0  0  0  0  0  0
    4.5886    0.8732   21.8969 C   0  0  0  0  0  0  0  0  0  0  0  0
    9.3300    0.1545   22.7038 C   0  0  0  0  0  0  0  0  0  0  0  0
    4.5583    1.8394   19.2190 C   0  0  0  0  0  0  0  0  0  0  0  0
   11.3254   -1.1947   23.0463 C   0  0  0  0  0  0  0  0  0  0  0  0
   10.7191    0.0752   22.8946 C   0  0  0  0  0  0  0  0  0  0  0  0
    5.5655    1.0302   19.6998 C   0  0  0  0  0  0  0  0  0  0  0  0
    3.5376    2.1718   20.1109 C   0  0  0  0  0  0  0  0  0  0  0  0
    8.5499   -1.0014   22.6632 C   0  0  0  0  0  0  0  0  0  0  0  0
    5.5959    0.5486   21.0070 C   0  0  0  0  0  0  0  0  0  0  0  0
    6.7553    0.5106   19.0311 C   0  0  0  0  0  0  0  0  0  0  0  0
    7.5018   -0.3285   20.0612 C   0  0  0  0  0  0  0  0  0  0  0  0
    2.4433    3.0219   19.6678 C   0  0  0  0  0  0  0  0  0  0  0  0
    7.0661   -0.8985   22.4581 C   0  0  0  0  0  0  0  0  0  0  0  0
    6.7370   -0.2493   21.2127 N   0  0  0  0  0  0  0  0  0  0  0  0
    2.4663    3.4728   18.3515 N   0  0  0  0  0  0  0  0  0  0  0  0
    7.1225    0.6793   17.8936 O   0  0  0  0  0  0  0  0  0  0  0  0
    8.5404   -0.8995   19.8077 O   0  0  0  0  0  0  0  0  0  0  0  0
    1.5256    3.3512   20.4393 O   0  0  0  0  0  0  0  0  0  0  0  0
  1  2  2  0
  1  3  1  0
  2  4  1  0
  3 11  2  0
  4 12  2  0
  5  7  2  0
  5 11  1  0
  6  8  2  0
  6 14  1  0
  7 15  1  0
  8 16  1  0
  9 12  1  0
  9 15  2  0
 10 13  1  0
 10 14  2  0
 11 12  1  0
 13 16  2  0
 13 17  1  0
 14 19  1  0
 15 20  1  0
 16 21  1  0
 17 18  1  0
 17 23  2  0
 18 21  1  0
 18 24  2  0
 19 22  1  0
 19 25  2  0
 20 21  1  0
M  END
