PAF-PIO-d312ccf6-4
     RDKit          3D

 22 24  0  0  1  0  0  0  0  0999 V2000
   11.5411   -2.8570   24.9616 C   0  0  0  0  0  0  0  0  0  0  0  0
   12.7362   -2.4080   25.5233 C   0  0  0  0  0  0  0  0  0  0  0  0
   11.1070   -0.6378   24.1108 C   0  0  0  0  0  0  0  0  0  0  0  0
    6.2104   -5.6215   21.6294 C   0  0  0  0  0  0  0  0  0  0  0  0
    8.2408   -5.7683   22.9349 C   0  0  0  0  0  0  0  0  0  0  0  0
    7.5357   -3.6439   22.0237 C   0  0  0  0  0  0  0  0  0  0  0  0
   10.7265   -1.9720   24.2553 C   0  0  0  0  0  0  0  0  0  0  0  0
    6.4152   -4.2526   21.4530 C   0  0  0  0  0  0  0  0  0  0  0  0
    8.4402   -4.3960   22.7788 C   0  0  0  0  0  0  0  0  0  0  0  0
   13.1168   -1.0739   25.3788 C   0  0  0  0  0  0  0  0  0  0  0  0
   12.3022   -0.1887   24.6726 C   0  0  0  0  0  0  0  0  0  0  0  0
    7.1234   -6.3786   22.3643 C   0  0  0  0  0  0  0  0  0  0  0  0
    7.8049   -2.2087   21.7990 C   0  0  0  0  0  0  0  0  0  0  0  0
    9.0950   -1.6823   22.3721 C   0  0  0  0  0  0  0  0  0  0  0  0
    9.4303   -2.4599   23.6432 C   0  0  0  0  0  0  0  0  0  0  0  0
   15.0602   -1.6162   26.6378 C   0  0  0  0  0  0  0  0  0  0  0  0
    5.5387   -3.6222   20.7582 O   0  0  0  0  0  0  0  0  0  0  0  0
    7.0471   -1.5123   21.1342 O   0  0  0  0  0  0  0  0  0  0  0  0
    9.5570   -3.8641   23.3700 O   0  0  0  0  0  0  0  0  0  0  0  0
   12.6629    1.1166   24.5256 O   0  0  0  0  0  0  0  0  0  0  0  0
    6.9239   -7.7157   22.5263 O   0  0  0  0  0  0  0  0  0  0  0  0
   14.2865   -0.6478   25.9324 O   0  0  0  0  0  0  0  0  0  0  0  0
  1  2  2  0
  1  7  1  0
  2 10  1  0
  3  7  2  0
  3 11  1  0
  4  8  2  0
  4 12  1  0
  5  9  1  0
  5 12  2  0
  6  8  1  0
  6  9  2  0
  6 13  1  0
  7 15  1  0
  8 17  1  0
  9 19  1  0
 10 11  2  0
 10 22  1  0
 11 20  1  0
 12 21  1  0
 13 14  1  0
 13 18  2  0
 14 15  1  0
 15 19  1  0
 16 22  1  0
M  CHG  1  17  -1
M  END
