PAF-PIO-d312ccf6-2
     RDKit          3D

 43 47  0  0  1  0  0  0  0  0999 V2000
    7.8160   -5.2354   22.5187 C   0  0  0  0  0  0  0  0  0  0  0  0
    6.4825   -5.6410   22.4672 C   0  0  0  0  0  0  0  0  0  0  0  0
    7.3531   -3.9675   24.5225 C   0  0  0  0  0  0  0  0  0  0  0  0
   13.5677   -0.8852   23.5882 C   0  0  0  0  0  0  0  0  0  0  0  0
   11.2512   -0.8051   22.8984 C   0  0  0  0  0  0  0  0  0  0  0  0
   12.0645   -2.6705   24.2018 C   0  0  0  0  0  0  0  0  0  0  0  0
    8.2514   -4.3987   23.5464 C   0  0  0  0  0  0  0  0  0  0  0  0
   13.3408   -2.1027   24.2309 C   0  0  0  0  0  0  0  0  0  0  0  0
   11.0230   -2.0322   23.5222 C   0  0  0  0  0  0  0  0  0  0  0  0
    5.5842   -5.2098   23.4433 C   0  0  0  0  0  0  0  0  0  0  0  0
    6.0195   -4.3730   24.4710 C   0  0  0  0  0  0  0  0  0  0  0  0
   12.5245   -0.2354   22.9277 C   0  0  0  0  0  0  0  0  0  0  0  0
   11.7870   -3.9279   24.9261 C   0  0  0  0  0  0  0  0  0  0  0  0
   10.3538   -4.3927   24.9147 C   0  0  0  0  0  0  0  0  0  0  0  0
    9.6996   -3.9604   23.6039 C   0  0  0  0  0  0  0  0  0  0  0  0
    6.3277    2.5416   21.9879 C   0  0  0  0  0  0  0  0  0  0  0  0
   12.5428    4.6563   22.9341 C   0  0  0  0  0  0  0  0  0  0  0  0
    6.0607    1.1169   22.4751 C   0  0  0  0  0  0  0  0  0  0  0  0
   11.1467    4.6138   23.5557 C   0  0  0  0  0  0  0  0  0  0  0  0
   12.8682    3.3472   22.2146 C   0  0  0  0  0  0  0  0  0  0  0  0
    6.3405    3.5270   23.1578 C   0  0  0  0  0  0  0  0  0  0  0  0
    7.0315    0.7564   23.6082 C   0  0  0  0  0  0  0  0  0  0  0  0
   10.9557    3.3352   24.3749 C   0  0  0  0  0  0  0  0  0  0  0  0
   12.5554    2.1367   23.0942 C   0  0  0  0  0  0  0  0  0  0  0  0
    7.2912    3.0563   24.2570 C   0  0  0  0  0  0  0  0  0  0  0  0
    6.7096   -0.6012   24.2267 C   0  0  0  0  0  0  0  0  0  0  0  0
    3.9216   -6.4678   22.2992 C   0  0  0  0  0  0  0  0  0  0  0  0
    9.5448    3.2012   24.9070 C   0  0  0  0  0  0  0  0  0  0  0  0
   14.3451   -2.6385   24.8249 O   0  0  0  0  0  0  0  0  0  0  0  0
   12.6652   -4.5166   25.5452 O   0  0  0  0  0  0  0  0  0  0  0  0
    9.7490   -2.5335   23.4494 O   0  0  0  0  0  0  0  0  0  0  0  0
    6.9713    1.7213   24.6635 O   0  0  0  0  0  0  0  0  0  0  0  0
   11.2084    2.1907   23.5581 O   0  0  0  0  0  0  0  0  0  0  0  0
    5.1513   -3.9447   25.4295 O   0  0  0  0  0  0  0  0  0  0  0  0
    5.3198    2.9139   21.0507 O   0  0  0  0  0  0  0  0  0  0  0  0
   12.5882    5.7316   21.9946 O   0  0  0  0  0  0  0  0  0  0  0  0
    6.2376    0.2306   21.3728 O   0  0  0  0  0  0  0  0  0  0  0  0
   10.9977    5.7629   24.3856 O   0  0  0  0  0  0  0  0  0  0  0  0
   14.2563    3.3500   21.8838 O   0  0  0  0  0  0  0  0  0  0  0  0
    5.0335    3.6255   23.7259 O   0  0  0  0  0  0  0  0  0  0  0  0
   12.7496    0.9625   22.3067 O   0  0  0  0  0  0  0  0  0  0  0  0
    4.2842   -5.6130   23.3817 O   0  0  0  0  0  0  0  0  0  0  0  0
    8.6381    3.1813   23.8139 O   0  0  0  0  0  0  0  0  0  0  0  0
  1  2  2  0
  1  7  1  0
  2 10  1  0
  3  7  2  0
  3 11  1  0
  4  8  2  0
  4 12  1  0
  5  9  1  0
  5 12  2  0
  6  8  1  0
  6  9  2  0
  6 13  1  0
  7 15  1  0
  8 29  1  0
  9 31  1  0
 10 11  2  0
 10 42  1  0
 11 34  1  0
 12 41  1  0
 13 14  1  0
 13 30  2  0
 14 15  1  0
 15 31  1  0
 16 18  1  0
 16 21  1  0
 16 35  1  0
 17 19  1  0
 17 20  1  0
 17 36  1  0
 18 22  1  0
 18 37  1  0
 19 23  1  0
 19 38  1  0
 20 24  1  0
 20 39  1  0
 21 25  1  0
 21 40  1  0
 22 26  1  0
 22 32  1  0
 23 28  1  0
 23 33  1  0
 24 33  1  0
 24 41  1  0
 25 32  1  0
 25 43  1  0
 27 42  1  0
 28 43  1  0
M  CHG  1  29  -1
M  END
