PAT-UNK-b2d83456-4
     RDKit          3D

 25 27  0  0  0  0  0  0  0  0999 V2000
   14.5182   -0.1338   22.6476 C   0  0  0  0  0  0  0  0  0  0  0  0
   14.3301    1.1896   22.2327 C   0  0  0  0  0  0  0  0  0  0  0  0
   13.5351   -0.7989   23.3776 C   0  0  0  0  0  0  0  0  0  0  0  0
   11.3655    3.2245   22.8890 C   0  0  0  0  0  0  0  0  0  0  0  0
   13.1291    1.8489   22.5618 C   0  0  0  0  0  0  0  0  0  0  0  0
   12.3359   -0.1653   23.7158 C   0  0  0  0  0  0  0  0  0  0  0  0
   12.6131    3.1516   22.3135 C   0  0  0  0  0  0  0  0  0  0  0  0
   12.1617    1.1577   23.2943 C   0  0  0  0  0  0  0  0  0  0  0  0
    6.5831   -3.2317   22.7506 C   0  0  0  0  0  0  0  0  0  0  0  0
   12.8932    5.9776   24.6675 C   0  0  0  0  0  0  0  0  0  0  0  0
    7.5360   -1.2860   23.9453 C   0  0  0  0  0  0  0  0  0  0  0  0
    8.7188   -2.1093   21.9463 C   0  0  0  0  0  0  0  0  0  0  0  0
    8.8378   -1.2665   24.7329 C   0  0  0  0  0  0  0  0  0  0  0  0
   10.0397   -2.1004   22.7037 C   0  0  0  0  0  0  0  0  0  0  0  0
    6.7145   -4.2137   21.6139 C   0  0  0  0  0  0  0  0  0  0  0  0
   11.7477    6.6954   25.3006 C   0  0  0  0  0  0  0  0  0  0  0  0
   13.2872    4.2376   21.5734 C   0  0  0  0  0  0  0  0  0  0  0  0
   11.2987   -0.9111   24.5026 C   0  0  0  0  0  0  0  0  0  0  0  0
   13.8740    5.3402   22.4733 C   0  0  0  0  0  0  0  0  0  0  0  0
   11.1021    2.0172   23.4784 N   0  0  0  0  0  0  0  0  0  0  0  0
    7.5886   -2.2731   22.8668 N   0  0  0  0  0  0  0  0  0  0  0  0
   12.8668    5.9730   23.2821 N   0  0  0  0  0  0  0  0  0  0  0  0
    9.9881   -1.0373   23.7781 N   0  0  0  0  0  0  0  0  0  0  0  0
    5.6167   -3.3174   23.5127 O   0  0  0  0  0  0  0  0  0  0  0  0
   13.7488    5.4610   25.3767 O   0  0  0  0  0  0  0  0  0  0  0  0
  1  2  2  0
  1  3  1  0
  2  5  1  0
  3  6  2  0
  4  7  2  0
  4 20  1  0
  5  7  1  0
  5  8  2  0
  6  8  1  0
  6 18  1  0
  7 17  1  0
  8 20  1  0
  9 15  1  0
  9 21  1  0
  9 24  2  0
 10 16  1  0
 10 22  1  0
 10 25  2  0
 11 13  1  0
 11 21  1  0
 12 14  1  0
 12 21  1  0
 13 23  1  0
 14 23  1  0
 17 19  1  0
 18 23  1  0
 19 22  1  0
M  CHG  1  23   1
M  END
