PAT-GYR-359dbb24-4
     RDKit          3D

 21 22  0  0  0  0  0  0  0  0999 V2000
    9.6885   -2.4361   24.1534 C   0  0  0  0  0  0  0  0  0  0  0  0
    9.0946   -3.4326   24.4649 C   0  0  0  0  0  0  0  0  0  0  0  0
   10.1200   -0.0445   24.4263 C   0  0  0  0  0  0  0  0  0  0  0  0
   11.3586   -1.3001   22.7752 C   0  0  0  0  0  0  0  0  0  0  0  0
   10.8100    1.1123   24.0643 C   0  0  0  0  0  0  0  0  0  0  0  0
   12.0486   -0.1432   22.4130 C   0  0  0  0  0  0  0  0  0  0  0  0
   10.3943   -1.2508   23.7818 C   0  0  0  0  0  0  0  0  0  0  0  0
   11.7742    1.0630   23.0576 C   0  0  0  0  0  0  0  0  0  0  0  0
    8.3820   -4.6297   24.8407 C   0  0  0  0  0  0  0  0  0  0  0  0
   11.7089    4.2076   24.0461 C   0  0  0  0  0  0  0  0  0  0  0  0
   10.6242    6.0733   22.8344 C   0  0  0  0  0  0  0  0  0  0  0  0
   10.3156    5.9712   25.2785 C   0  0  0  0  0  0  0  0  0  0  0  0
    9.1598    6.4652   22.7167 C   0  0  0  0  0  0  0  0  0  0  0  0
    8.8682    6.3927   25.0483 C   0  0  0  0  0  0  0  0  0  0  0  0
   12.5158    2.3086   22.6667 C   0  0  0  0  0  0  0  0  0  0  0  0
   10.8727    5.3363   24.0756 N   0  0  0  0  0  0  0  0  0  0  0  0
    7.1857   -4.8285   24.1956 N   0  0  0  0  0  0  0  0  0  0  0  0
   11.7130    3.4967   22.8517 N   0  0  0  0  0  0  0  0  0  0  0  0
    8.8627   -5.3780   25.6828 O   0  0  0  0  0  0  0  0  0  0  0  0
   12.3940    3.8574   25.0128 O   0  0  0  0  0  0  0  0  0  0  0  0
    8.7559    7.1983   23.8746 O   0  0  0  0  0  0  0  0  0  0  0  0
  1  2  3  0
  1  7  1  0
  2  9  1  0
  3  5  2  0
  3  7  1  0
  4  6  1  0
  4  7  2  0
  5  8  1  0
  6  8  2  0
  8 15  1  0
  9 17  1  0
  9 19  2  0
 10 16  1  0
 10 18  1  0
 10 20  2  0
 11 13  1  0
 11 16  1  0
 12 14  1  0
 12 16  1  0
 13 21  1  0
 14 21  1  0
 15 18  1  0
M  END
