PAT-GYR-de8eec61-1
     RDKit          3D

 28 30  0  0  0  0  0  0  0  0999 V2000
   12.3997   -0.2851   23.2584 C   0  0  0  0  0  0  0  0  0  0  0  0
   12.8591    0.7919   22.9902 C   0  0  0  0  0  0  0  0  0  0  0  0
   10.2979    7.2818   24.3820 C   0  0  0  0  0  0  0  0  0  0  0  0
    9.9520    6.8167   23.1133 C   0  0  0  0  0  0  0  0  0  0  0  0
   11.4720    6.8388   24.9911 C   0  0  0  0  0  0  0  0  0  0  0  0
   12.6782   -2.5735   24.0745 C   0  0  0  0  0  0  0  0  0  0  0  0
   10.4909   -1.8075   23.3916 C   0  0  0  0  0  0  0  0  0  0  0  0
   10.7800    5.9085   22.4537 C   0  0  0  0  0  0  0  0  0  0  0  0
   12.3001    5.9306   24.3315 C   0  0  0  0  0  0  0  0  0  0  0  0
   12.1431   -3.8232   24.3866 C   0  0  0  0  0  0  0  0  0  0  0  0
    9.9558   -3.0573   23.7036 C   0  0  0  0  0  0  0  0  0  0  0  0
   11.8520   -1.5656   23.5771 C   0  0  0  0  0  0  0  0  0  0  0  0
   11.9541    5.4654   23.0628 C   0  0  0  0  0  0  0  0  0  0  0  0
   10.7820   -4.0652   24.2011 C   0  0  0  0  0  0  0  0  0  0  0  0
   13.4122    2.0872   22.6672 C   0  0  0  0  0  0  0  0  0  0  0  0
    7.7344   -5.2327   24.6688 C   0  0  0  0  0  0  0  0  0  0  0  0
    5.2614   -5.1335   24.6562 C   0  0  0  0  0  0  0  0  0  0  0  0
    6.3684   -6.1839   22.7196 C   0  0  0  0  0  0  0  0  0  0  0  0
    4.2972   -4.4738   23.6831 C   0  0  0  0  0  0  0  0  0  0  0  0
    5.3350   -5.4931   21.8362 C   0  0  0  0  0  0  0  0  0  0  0  0
   12.8458    4.4877   22.3535 C   0  0  0  0  0  0  0  0  0  0  0  0
   10.2063   -5.4109   24.5355 C   0  0  0  0  0  0  0  0  0  0  0  0
    6.5243   -5.4722   23.9961 N   0  0  0  0  0  0  0  0  0  0  0  0
   12.4943    3.1184   22.6543 N   0  0  0  0  0  0  0  0  0  0  0  0
    8.8853   -5.5886   23.9755 N   0  0  0  0  0  0  0  0  0  0  0  0
   14.6118    2.1735   22.4354 O   0  0  0  0  0  0  0  0  0  0  0  0
    7.7840   -4.7448   25.8028 O   0  0  0  0  0  0  0  0  0  0  0  0
    4.1065   -5.3112   22.5413 O   0  0  0  0  0  0  0  0  0  0  0  0
  1  2  3  0
  1 12  1  0
  2 15  1  0
  3  4  2  0
  3  5  1  0
  4  8  1  0
  5  9  2  0
  6 10  2  0
  6 12  1  0
  7 11  1  0
  7 12  2  0
  8 13  2  0
  9 13  1  0
 10 14  1  0
 11 14  2  0
 13 21  1  0
 14 22  1  0
 15 24  1  0
 15 26  2  0
 16 23  1  0
 16 25  1  0
 16 27  2  0
 17 19  1  0
 17 23  1  0
 18 20  1  0
 18 23  1  0
 19 28  1  0
 20 28  1  0
 21 24  1  0
 22 25  1  0
M  END
