PAU-UNI-19862c28-1
     RDKit          3D

 22 24  0  0  0  0  0  0  0  0999 V2000
   13.8361    1.0062   23.1549 C   0  0  0  0  0  0  0  0  0  0  0  0
   13.4691   -0.0380   22.3112 C   0  0  0  0  0  0  0  0  0  0  0  0
   13.0770    1.2856   24.2916 C   0  0  0  0  0  0  0  0  0  0  0  0
   12.3415   -0.8068   22.6010 C   0  0  0  0  0  0  0  0  0  0  0  0
   11.1633    0.7893   25.7386 C   0  0  0  0  0  0  0  0  0  0  0  0
    9.6686   -1.0236   25.1847 C   0  0  0  0  0  0  0  0  0  0  0  0
   11.9390    0.5222   24.5988 C   0  0  0  0  0  0  0  0  0  0  0  0
   11.5657   -0.5397   23.7408 C   0  0  0  0  0  0  0  0  0  0  0  0
   10.4277   -1.3031   24.0479 C   0  0  0  0  0  0  0  0  0  0  0  0
   10.0357    0.0205   26.0284 C   0  0  0  0  0  0  0  0  0  0  0  0
    5.9595   -1.9400   19.3997 C   0  0  0  0  0  0  0  0  0  0  0  0
    6.6986   -3.2266   21.3795 C   0  0  0  0  0  0  0  0  0  0  0  0
    7.0277   -0.7844   21.3975 C   0  0  0  0  0  0  0  0  0  0  0  0
    8.1383   -3.4446   21.8213 C   0  0  0  0  0  0  0  0  0  0  0  0
    8.4728   -0.9657   21.8418 C   0  0  0  0  0  0  0  0  0  0  0  0
    9.9768   -2.4418   23.1814 C   0  0  0  0  0  0  0  0  0  0  0  0
    5.8538   -0.5956   18.7250 C   0  0  0  0  0  0  0  0  0  0  0  0
    6.5554   -1.9610   20.6599 N   0  0  0  0  0  0  0  0  0  0  0  0
    8.5915   -2.2503   22.6310 N   0  0  0  0  0  0  0  0  0  0  0  0
    5.5273   -2.9405   18.8214 O   0  0  0  0  0  0  0  0  0  0  0  0
    9.0985    0.3639   27.4301 Cl  0  0  0  0  0  0  0  0  0  0  0  0
    7.3416   -0.3719   17.8118 Cl  0  0  0  0  0  0  0  0  0  0  0  0
  1  2  2  0
  1  3  1  0
  2  4  1  0
  3  7  2  0
  4  8  2  0
  5  7  1  0
  5 10  2  0
  6  9  2  0
  6 10  1  0
  7  8  1  0
  8  9  1  0
  9 16  1  0
 10 21  1  0
 11 17  1  0
 11 18  1  0
 11 20  2  0
 12 14  1  0
 12 18  1  0
 13 15  1  0
 13 18  1  0
 14 19  1  0
 15 19  1  0
 16 19  1  0
 17 22  1  0
M  CHG  1  19   1
M  END
