PAU-UNI-b33c5197-1
     RDKit          3D

 30 33  0  0  1  0  0  0  0  0999 V2000
   11.7110    3.1346   24.3832 C   0  0  0  0  0  0  0  0  0  0  0  0
   12.5837    2.0739   24.6366 C   0  0  0  0  0  0  0  0  0  0  0  0
    6.5971   -4.1875   26.3859 C   0  0  0  0  0  0  0  0  0  0  0  0
   10.6085    2.9747   23.5343 C   0  0  0  0  0  0  0  0  0  0  0  0
   12.3880    0.8177   24.0533 C   0  0  0  0  0  0  0  0  0  0  0  0
    7.7128   -3.6205   25.7801 C   0  0  0  0  0  0  0  0  0  0  0  0
    6.5844   -5.5614   26.5651 C   0  0  0  0  0  0  0  0  0  0  0  0
    8.6571   -5.7960   25.6023 C   0  0  0  0  0  0  0  0  0  0  0  0
   10.3967    1.7194   22.9396 C   0  0  0  0  0  0  0  0  0  0  0  0
   11.2837    0.6815   23.2115 C   0  0  0  0  0  0  0  0  0  0  0  0
    8.7668   -4.4332   25.3777 C   0  0  0  0  0  0  0  0  0  0  0  0
    9.6771    0.0420   21.8314 C   0  0  0  0  0  0  0  0  0  0  0  0
    6.9019   -3.9217   20.9428 C   0  0  0  0  0  0  0  0  0  0  0  0
   10.1750   -2.5479   24.4893 C   0  0  0  0  0  0  0  0  0  0  0  0
    7.4269   -1.0679   18.8650 C   0  0  0  0  0  0  0  0  0  0  0  0
    8.2396   -0.1199   19.7485 C   0  0  0  0  0  0  0  0  0  0  0  0
    6.4047   -1.8488   19.6861 C   0  0  0  0  0  0  0  0  0  0  0  0
    7.8127   -1.6715   21.7077 C   0  0  0  0  0  0  0  0  0  0  0  0
    8.8765   -0.8804   20.9266 C   0  0  0  0  0  0  0  0  0  0  0  0
    7.6032   -4.5608   22.1148 C   0  0  0  0  0  0  0  0  0  0  0  0
   11.5221   -2.3585   23.8110 C   0  0  0  0  0  0  0  0  0  0  0  0
   11.3749   -1.7038   22.4383 C   0  0  0  0  0  0  0  0  0  0  0  0
    7.5892   -6.3832   26.1876 N   0  0  0  0  0  0  0  0  0  0  0  0
    9.4054    1.3034   22.0807 N   0  0  0  0  0  0  0  0  0  0  0  0
   10.7991   -0.3789   22.4896 N   0  0  0  0  0  0  0  0  0  0  0  0
    7.0524   -2.5429   20.8008 N   0  0  0  0  0  0  0  0  0  0  0  0
    9.9146   -3.8856   24.7587 N   0  0  0  0  0  0  0  0  0  0  0  0
    6.2426   -4.6289   20.1764 O   0  0  0  0  0  0  0  0  0  0  0  0
    9.4745   -1.5767   24.7602 O   0  0  0  0  0  0  0  0  0  0  0  0
    7.2113   -6.2759   22.0624 Cl  0  0  0  0  0  0  0  0  0  0  0  0
  1  2  2  0
  1  4  1  0
  2  5  1  0
  3  6  2  0
  3  7  1  0
  4  9  2  0
  5 10  2  0
  6 11  1  0
  7 23  2  0
  8 11  2  0
  8 23  1  0
  9 10  1  0
  9 24  1  0
 10 25  1  0
 11 27  1  0
 12 19  1  0
 12 24  2  0
 12 25  1  0
 13 20  1  0
 13 26  1  0
 13 28  2  0
 14 21  1  0
 14 27  1  0
 14 29  2  0
 15 16  1  0
 15 17  1  0
 16 19  1  0
 17 26  1  0
 18 19  1  0
 18 26  1  0
 20 30  1  0
 21 22  1  0
 22 25  1  0
M  END
