PAU-WEI-c6d65c11-1
     RDKit          3D

 26 28  0  0  1  0  0  0  0  0999 V2000
    4.5760    1.3937   20.4602 C   0  0  0  0  0  0  0  0  0  0  0  0
    4.6766    0.5932   19.3223 C   0  0  0  0  0  0  0  0  0  0  0  0
    5.7073    1.6498   21.2350 C   0  0  0  0  0  0  0  0  0  0  0  0
    5.9084    0.0488   18.9593 C   0  0  0  0  0  0  0  0  0  0  0  0
    6.9391    1.1053   20.8720 C   0  0  0  0  0  0  0  0  0  0  0  0
    7.0397    0.3048   19.7342 C   0  0  0  0  0  0  0  0  0  0  0  0
    9.4162   -0.3900   23.6175 C   0  0  0  0  0  0  0  0  0  0  0  0
    6.5804   -4.4848   21.4577 C   0  0  0  0  0  0  0  0  0  0  0  0
   13.2128    1.3779   23.1920 C   0  0  0  0  0  0  0  0  0  0  0  0
   11.8940    2.1293   23.0181 C   0  0  0  0  0  0  0  0  0  0  0  0
   13.0003   -0.1312   23.0814 C   0  0  0  0  0  0  0  0  0  0  0  0
    8.7736   -2.7537   23.7430 C   0  0  0  0  0  0  0  0  0  0  0  0
   10.8304    1.6077   23.9804 C   0  0  0  0  0  0  0  0  0  0  0  0
   11.9145   -0.6110   24.0422 C   0  0  0  0  0  0  0  0  0  0  0  0
    8.5603   -4.0641   22.9936 C   0  0  0  0  0  0  0  0  0  0  0  0
    8.3427   -2.8579   20.8532 C   0  0  0  0  0  0  0  0  0  0  0  0
    9.3751   -1.6714   22.8386 C   0  0  0  0  0  0  0  0  0  0  0  0
    8.5592   -1.5012   21.5418 C   0  0  0  0  0  0  0  0  0  0  0  0
    8.3716   -0.2837   19.3425 C   0  0  0  0  0  0  0  0  0  0  0  0
    6.0693   -5.4937   22.4552 C   0  0  0  0  0  0  0  0  0  0  0  0
    9.2437   -0.5357   20.5692 C   0  0  0  0  0  0  0  0  0  0  0  0
   10.6769    0.1567   23.8548 N   0  0  0  0  0  0  0  0  0  0  0  0
    7.7739   -3.8383   21.7780 N   0  0  0  0  0  0  0  0  0  0  0  0
    8.3588    0.1145   24.0040 O   0  0  0  0  0  0  0  0  0  0  0  0
    5.9354   -4.2775   20.4266 O   0  0  0  0  0  0  0  0  0  0  0  0
    4.5522   -6.1131   21.8129 Cl  0  0  0  0  0  0  0  0  0  0  0  0
  1  2  2  0
  1  3  1  0
  2  4  1  0
  3  5  2  0
  4  6  2  0
  5  6  1  0
  6 19  1  0
  7 17  1  0
  7 22  1  0
  7 24  2  0
  8 20  1  0
  8 23  1  0
  8 25  2  0
  9 10  1  0
  9 11  1  0
 10 13  1  0
 11 14  1  0
 12 15  1  0
 12 17  1  0
 13 22  1  0
 14 22  1  0
 15 23  1  0
 16 18  1  0
 16 23  1  0
 17 18  1  0
 18 21  1  0
 19 21  1  0
 20 26  1  0
M  END
