PAU-UNI-6d15a9f5-4
     RDKit          3D

 51 53  0  0  1  0  0  0  0  0999 V2000
    4.5838   -6.1880   27.5834 C   0  0  0  0  0  0  0  0  0  0  0  0
    4.9090   -5.0105   28.2566 C   0  0  0  0  0  0  0  0  0  0  0  0
    5.4575   -6.7102   26.6296 C   0  0  0  0  0  0  0  0  0  0  0  0
    6.1079   -4.3551   27.9760 C   0  0  0  0  0  0  0  0  0  0  0  0
    6.6564   -6.0548   26.3490 C   0  0  0  0  0  0  0  0  0  0  0  0
   12.1737   -2.2132   23.1931 C   0  0  0  0  0  0  0  0  0  0  0  0
   11.8876   -3.2304   22.3155 C   0  0  0  0  0  0  0  0  0  0  0  0
    6.9816   -4.8772   27.0222 C   0  0  0  0  0  0  0  0  0  0  0  0
   12.5207   -1.1253   22.3698 C   0  0  0  0  0  0  0  0  0  0  0  0
   12.9222    0.2396   22.7975 C   0  0  0  0  0  0  0  0  0  0  0  0
    4.2033   -6.9177   23.1377 C   0  0  0  0  0  0  0  0  0  0  0  0
    9.0786   -0.9496   26.3044 C   0  0  0  0  0  0  0  0  0  0  0  0
    8.2023   -3.8232   24.2332 C   0  0  0  0  0  0  0  0  0  0  0  0
    9.6253    1.9495   25.0478 C   0  0  0  0  0  0  0  0  0  0  0  0
    6.0147   -3.2209   21.3118 C   0  0  0  0  0  0  0  0  0  0  0  0
   12.8076    4.8586   22.3873 C   0  0  0  0  0  0  0  0  0  0  0  0
   11.5396    5.3693   23.0283 C   0  0  0  0  0  0  0  0  0  0  0  0
   12.4415    3.4093   22.1136 C   0  0  0  0  0  0  0  0  0  0  0  0
   11.1332    4.1794   23.8818 C   0  0  0  0  0  0  0  0  0  0  0  0
    7.7861    5.6281   26.9495 C   0  0  0  0  0  0  0  0  0  0  0  0
    5.6606    4.9162   25.8369 C   0  0  0  0  0  0  0  0  0  0  0  0
   12.5901    0.3917   27.3160 C   0  0  0  0  0  0  0  0  0  0  0  0
   11.8939   -3.4038   19.8156 C   0  0  0  0  0  0  0  0  0  0  0  0
    8.2789   -4.1685   26.7180 C   0  0  0  0  0  0  0  0  0  0  0  0
    4.8053   -5.5362   22.9669 C   0  0  0  0  0  0  0  0  0  0  0  0
   13.6426    2.4874   22.0330 C   0  0  0  0  0  0  0  0  0  0  0  0
    6.1835   -5.5808   22.3028 C   0  0  0  0  0  0  0  0  0  0  0  0
    7.7265    3.5241   25.5064 C   0  0  0  0  0  0  0  0  0  0  0  0
   10.3533   -0.1146   26.2244 C   0  0  0  0  0  0  0  0  0  0  0  0
    8.1408   -3.1364   25.5929 C   0  0  0  0  0  0  0  0  0  0  0  0
    9.2437    3.3987   25.3105 C   0  0  0  0  0  0  0  0  0  0  0  0
    6.8256   -4.1933   22.1873 C   0  0  0  0  0  0  0  0  0  0  0  0
    7.1870    4.9538   25.7150 C   0  0  0  0  0  0  0  0  0  0  0  0
   11.3214   -0.4509   27.3680 C   0  0  0  0  0  0  0  0  0  0  0  0
   12.4613   -1.4234   21.0692 N   0  0  0  0  0  0  0  0  0  0  0  0
   12.0737   -2.7102   21.0685 N   0  0  0  0  0  0  0  0  0  0  0  0
    2.9620   -6.8772   23.7359 N   0  0  0  0  0  0  0  0  0  0  0  0
   13.2194    1.1473   21.7805 N   0  0  0  0  0  0  0  0  0  0  0  0
    9.1972   -2.1523   25.6225 N   0  0  0  0  0  0  0  0  0  0  0  0
    9.9635    1.2761   26.2122 N   0  0  0  0  0  0  0  0  0  0  0  0
    7.0475   -3.6133   23.4923 N   0  0  0  0  0  0  0  0  0  0  0  0
    9.6811    4.2479   24.1668 N   0  0  0  0  0  0  0  0  0  0  0  0
    6.1222   -2.0048   21.6457 O   0  0  0  0  0  0  0  0  0  0  0  0
   12.9930    0.4961   23.9966 O   0  0  0  0  0  0  0  0  0  0  0  0
    4.7553   -7.9550   22.7827 O   0  0  0  0  0  0  0  0  0  0  0  0
    8.0869   -0.5996   26.9412 O   0  0  0  0  0  0  0  0  0  0  0  0
    9.1541   -4.5134   23.8747 O   0  0  0  0  0  0  0  0  0  0  0  0
    9.6186    1.4539   23.9231 O   0  0  0  0  0  0  0  0  0  0  0  0
    5.3376   -3.7345   20.3786 O   0  0  0  0  0  0  0  0  0  0  0  0
   11.5856    3.0016   23.1950 O   0  0  0  0  0  0  0  0  0  0  0  0
   10.7028   -0.2298   28.6345 O   0  0  0  0  0  0  0  0  0  0  0  0
  1  2  2  0
  1  3  1  0
  2  4  1  0
  3  5  2  0
  4  8  2  0
  5  8  1  0
  6  7  2  0
  6  9  1  0
  7 36  1  0
  8 24  1  0
  9 10  1  0
  9 35  2  0
 10 38  1  0
 10 44  2  0
 11 25  1  0
 11 37  1  0
 11 45  2  0
 12 29  1  0
 12 39  1  0
 12 46  2  0
 13 30  1  0
 13 41  1  0
 13 47  2  0
 14 31  1  0
 14 40  1  0
 14 48  2  0
 15 32  1  0
 15 43  1  0
 15 49  2  0
 16 17  1  0
 16 18  1  0
 17 19  1  0
 18 26  1  0
 18 50  1  0
 19 42  1  0
 19 50  1  0
 20 33  1  0
 21 33  1  0
 22 34  1  0
 23 36  1  0
 24 30  1  0
 25 27  1  0
 26 38  1  0
 27 32  1  0
 28 31  1  0
 28 33  1  0
 29 34  1  0
 29 40  1  0
 30 39  1  0
 31 42  1  0
 32 41  1  0
 34 51  1  0
 35 36  1  0
M  CHG  2  42   1  43  -1
M  END
