PAU-WEI-b9b69149-9
     RDKit          3D

 38 41  0  0  1  0  0  0  0  0999 V2000
    7.3088   -0.3362   23.7452 C   0  0  0  0  0  0  0  0  0  0  0  0
    8.6349   -0.1293   24.1419 C   0  0  0  0  0  0  0  0  0  0  0  0
    7.0154   -0.9190   22.5139 C   0  0  0  0  0  0  0  0  0  0  0  0
    8.1036   -4.3864   22.6272 C   0  0  0  0  0  0  0  0  0  0  0  0
    5.7872   -4.1828   23.2832 C   0  0  0  0  0  0  0  0  0  0  0  0
    8.4736   -4.4960   23.9676 C   0  0  0  0  0  0  0  0  0  0  0  0
    6.1572   -4.2924   24.6236 C   0  0  0  0  0  0  0  0  0  0  0  0
   11.6004   -1.0001   22.1905 C   0  0  0  0  0  0  0  0  0  0  0  0
    9.6790   -0.5182   23.2793 C   0  0  0  0  0  0  0  0  0  0  0  0
    6.7604   -4.2298   22.2850 C   0  0  0  0  0  0  0  0  0  0  0  0
    7.5004   -4.4490   24.9658 C   0  0  0  0  0  0  0  0  0  0  0  0
    8.0343   -1.3127   21.6417 C   0  0  0  0  0  0  0  0  0  0  0  0
   11.0990   -0.4616   23.3530 C   0  0  0  0  0  0  0  0  0  0  0  0
    9.3552   -1.0998   22.0516 C   0  0  0  0  0  0  0  0  0  0  0  0
    5.9269    0.7481   15.7987 C   0  0  0  0  0  0  0  0  0  0  0  0
   10.9059    3.2203   24.9575 C   0  0  0  0  0  0  0  0  0  0  0  0
    6.5003    1.0097   18.1912 C   0  0  0  0  0  0  0  0  0  0  0  0
    7.9392   -0.4354   16.8077 C   0  0  0  0  0  0  0  0  0  0  0  0
    6.4074   -0.0702   19.2592 C   0  0  0  0  0  0  0  0  0  0  0  0
    7.8695   -1.5372   17.8564 C   0  0  0  0  0  0  0  0  0  0  0  0
    9.8754    4.1869   24.4755 C   0  0  0  0  0  0  0  0  0  0  0  0
    6.3596   -4.1112   20.8364 C   0  0  0  0  0  0  0  0  0  0  0  0
   11.9002    0.0769   24.4709 C   0  0  0  0  0  0  0  0  0  0  0  0
    6.2552    0.1010   14.4769 C   0  0  0  0  0  0  0  0  0  0  0  0
    6.3250   -2.6803   20.2719 C   0  0  0  0  0  0  0  0  0  0  0  0
   12.4997    1.4687   24.1998 C   0  0  0  0  0  0  0  0  0  0  0  0
    7.6800   -1.9424   20.3131 C   0  0  0  0  0  0  0  0  0  0  0  0
    7.8967   -4.5680   26.3987 C   0  0  0  0  0  0  0  0  0  0  0  0
   10.5411   -1.3819   21.4117 N   0  0  0  0  0  0  0  0  0  0  0  0
    6.7538    0.4260   16.8739 N   0  0  0  0  0  0  0  0  0  0  0  0
   11.4846    2.4580   23.9555 N   0  0  0  0  0  0  0  0  0  0  0  0
    7.6625   -0.9130   19.2183 N   0  0  0  0  0  0  0  0  0  0  0  0
    4.9627    1.5142   15.8719 O   0  0  0  0  0  0  0  0  0  0  0  0
   11.1674    3.1624   26.1533 O   0  0  0  0  0  0  0  0  0  0  0  0
    9.2417   -4.7178   26.5841 F   0  0  0  0  0  0  0  0  0  0  0  0
    7.5521   -3.4828   27.1531 F   0  0  0  0  0  0  0  0  0  0  0  0
    7.3205   -5.6406   27.0155 F   0  0  0  0  0  0  0  0  0  0  0  0
    5.0408    0.6546   13.3295 Cl  0  0  0  0  0  0  0  0  0  0  0  0
  1  2  2  0
  1  3  1  0
  2  9  1  0
  3 12  2  0
  4  6  2  0
  4 10  1  0
  5  7  1  0
  5 10  2  0
  6 11  1  0
  7 11  2  0
  8 13  2  0
  8 29  1  0
  9 13  1  0
  9 14  2  0
 10 22  1  0
 11 28  1  0
 12 14  1  0
 12 27  1  0
 13 23  1  0
 14 29  1  0
 15 24  1  0
 15 30  1  0
 15 33  2  0
 16 21  1  0
 16 31  1  0
 16 34  2  0
 17 19  1  0
 17 30  1  0
 18 20  1  0
 18 30  1  0
 19 32  1  0
 20 32  1  0
 22 25  1  0
 23 26  1  0
 24 38  1  0
 25 27  1  0
 26 31  1  0
 27 32  1  0
 28 35  1  0
 28 36  1  0
 28 37  1  0
M  CHG  1  32   1
M  END
