PAU-UNI-f4334617-1
     RDKit          3D

 28 30  0  0  1  0  0  0  0  0999 V2000
    6.3867   -3.2460   19.3386 C   0  0  0  0  0  0  0  0  0  0  0  0
    6.6831   -1.9075   19.1082 C   0  0  0  0  0  0  0  0  0  0  0  0
    7.4286   -1.7007   21.3965 C   0  0  0  0  0  0  0  0  0  0  0  0
    6.6011   -3.8190   20.6043 C   0  0  0  0  0  0  0  0  0  0  0  0
    7.1486   -3.0553   21.6642 C   0  0  0  0  0  0  0  0  0  0  0  0
    7.2009   -1.1343   20.1382 C   0  0  0  0  0  0  0  0  0  0  0  0
   12.4508    1.5448   23.4277 C   0  0  0  0  0  0  0  0  0  0  0  0
    6.2752   -5.2813   20.7901 C   0  0  0  0  0  0  0  0  0  0  0  0
    6.0989   -5.6229   22.2628 C   0  0  0  0  0  0  0  0  0  0  0  0
    9.6438    2.5021   25.4177 C   0  0  0  0  0  0  0  0  0  0  0  0
    9.5772    1.4051   26.4814 C   0  0  0  0  0  0  0  0  0  0  0  0
    7.2763   -5.0819   23.0598 C   0  0  0  0  0  0  0  0  0  0  0  0
   11.0879    2.8254   25.0471 C   0  0  0  0  0  0  0  0  0  0  0  0
   11.8199    0.5549   25.6854 C   0  0  0  0  0  0  0  0  0  0  0  0
   10.3926    0.1602   26.0946 C   0  0  0  0  0  0  0  0  0  0  0  0
   13.1743    0.2605   23.1100 C   0  0  0  0  0  0  0  0  0  0  0  0
    9.7045   -0.6468   24.9897 C   0  0  0  0  0  0  0  0  0  0  0  0
   10.1936   -2.0923   24.9738 C   0  0  0  0  0  0  0  0  0  0  0  0
    9.5283   -2.8864   23.8496 C   0  0  0  0  0  0  0  0  0  0  0  0
    8.0108   -2.8808   23.9892 C   0  0  0  0  0  0  0  0  0  0  0  0
    7.3719   -3.6299   22.9168 N   0  0  0  0  0  0  0  0  0  0  0  0
   11.8137    1.6130   24.6662 N   0  0  0  0  0  0  0  0  0  0  0  0
    6.0878    1.2839   20.2738 N   0  0  0  0  0  0  0  0  0  0  0  0
   12.4510    2.4579   22.5981 O   0  0  0  0  0  0  0  0  0  0  0  0
    8.5857    0.9602   20.8231 O   0  0  0  0  0  0  0  0  0  0  0  0
    7.8097    0.7410   18.4361 O   0  0  0  0  0  0  0  0  0  0  0  0
    7.5739    0.5493   19.8601 S   0  0  0  0  0  0  0  0  0  0  0  0
   13.8417    0.4454   21.4919 Cl  0  0  0  0  0  0  0  0  0  0  0  0
  1  2  2  0
  1  4  1  0
  2  6  1  0
  3  5  1  0
  3  6  2  0
  4  5  2  0
  4  8  1  0
  5 21  1  0
  6 27  1  0
  7 16  1  0
  7 22  1  0
  7 24  2  0
  8  9  1  0
  9 12  1  0
 10 11  1  0
 10 13  1  0
 11 15  1  0
 12 21  1  0
 13 22  1  0
 14 15  1  0
 14 22  1  0
 15 17  1  0
 16 28  1  0
 17 18  1  0
 18 19  1  0
 19 20  1  0
 20 21  1  0
 23 27  1  0
 25 27  2  0
 26 27  2  0
M  END
