PAU-UNI-6d15a9f5-6
     RDKit          3D

 53 55  0  0  1  0  0  0  0  0999 V2000
    5.6559    2.1602   17.6254 C   0  0  0  0  0  0  0  0  0  0  0  0
    5.3012    2.8383   18.7916 C   0  0  0  0  0  0  0  0  0  0  0  0
    5.8595    0.7805   17.6555 C   0  0  0  0  0  0  0  0  0  0  0  0
    5.1503    2.1370   19.9878 C   0  0  0  0  0  0  0  0  0  0  0  0
    5.7086    0.0791   18.8517 C   0  0  0  0  0  0  0  0  0  0  0  0
    7.2543    0.9008   27.5198 C   0  0  0  0  0  0  0  0  0  0  0  0
    6.0612    0.4002   27.9807 C   0  0  0  0  0  0  0  0  0  0  0  0
    5.3540    0.7573   20.0179 C   0  0  0  0  0  0  0  0  0  0  0  0
    7.8530   -0.1808   26.8462 C   0  0  0  0  0  0  0  0  0  0  0  0
    9.1658   -0.1973   26.1509 C   0  0  0  0  0  0  0  0  0  0  0  0
    5.5309   -5.4339   25.4951 C   0  0  0  0  0  0  0  0  0  0  0  0
    9.6342    4.5205   24.1346 C   0  0  0  0  0  0  0  0  0  0  0  0
    7.5439    2.1498   22.3146 C   0  0  0  0  0  0  0  0  0  0  0  0
    6.4099   -1.2196   23.1370 C   0  0  0  0  0  0  0  0  0  0  0  0
    8.0654   -4.5237   22.9781 C   0  0  0  0  0  0  0  0  0  0  0  0
   11.7087   -1.8313   22.5240 C   0  0  0  0  0  0  0  0  0  0  0  0
   12.7362   -0.7270   22.4699 C   0  0  0  0  0  0  0  0  0  0  0  0
   10.6171   -1.2318   23.3992 C   0  0  0  0  0  0  0  0  0  0  0  0
   11.8535    0.5073   22.4455 C   0  0  0  0  0  0  0  0  0  0  0  0
   11.0979    8.5888   25.4082 C   0  0  0  0  0  0  0  0  0  0  0  0
   10.3993    8.0190   23.0756 C   0  0  0  0  0  0  0  0  0  0  0  0
    6.5873    5.5500   23.9507 C   0  0  0  0  0  0  0  0  0  0  0  0
    4.9545   -1.8422   27.8189 C   0  0  0  0  0  0  0  0  0  0  0  0
    5.1912   -0.0021   21.3118 C   0  0  0  0  0  0  0  0  0  0  0  0
    5.4384   -5.6880   24.0029 C   0  0  0  0  0  0  0  0  0  0  0  0
   10.7792   -1.5818   24.8718 C   0  0  0  0  0  0  0  0  0  0  0  0
   12.5402    1.7525   22.9717 C   0  0  0  0  0  0  0  0  0  0  0  0
    5.5121   -4.3949   23.1874 C   0  0  0  0  0  0  0  0  0  0  0  0
   11.4553    6.2423   24.5810 C   0  0  0  0  0  0  0  0  0  0  0  0
   12.0242    3.9039   23.7640 C   0  0  0  0  0  0  0  0  0  0  0  0
   11.0051    5.0526   23.7099 C   0  0  0  0  0  0  0  0  0  0  0  0
    7.6388    3.3433   23.2608 C   0  0  0  0  0  0  0  0  0  0  0  0
    6.4941   -0.0920   22.1145 C   0  0  0  0  0  0  0  0  0  0  0  0
    6.8482   -3.6639   23.3638 C   0  0  0  0  0  0  0  0  0  0  0  0
   10.5426    7.4859   24.5021 C   0  0  0  0  0  0  0  0  0  0  0  0
    6.4937    4.3400   23.0291 C   0  0  0  0  0  0  0  0  0  0  0  0
    7.1022   -1.2851   26.8745 N   0  0  0  0  0  0  0  0  0  0  0  0
    6.0196   -0.9002   27.5715 N   0  0  0  0  0  0  0  0  0  0  0  0
    6.1122   -6.4860   26.1700 N   0  0  0  0  0  0  0  0  0  0  0  0
    9.5401   -1.4029   25.5541 N   0  0  0  0  0  0  0  0  0  0  0  0
    8.9418    3.9378   23.0830 N   0  0  0  0  0  0  0  0  0  0  0  0
    6.7720    1.1242   22.8418 N   0  0  0  0  0  0  0  0  0  0  0  0
    6.8647   -2.4248   22.6201 N   0  0  0  0  0  0  0  0  0  0  0  0
    8.0633   -4.9215   21.7766 O   0  0  0  0  0  0  0  0  0  0  0  0
    9.8565    0.8183   26.1490 O   0  0  0  0  0  0  0  0  0  0  0  0
    5.1359   -4.4083   26.0420 O   0  0  0  0  0  0  0  0  0  0  0  0
    9.2199    4.5875   25.2900 O   0  0  0  0  0  0  0  0  0  0  0  0
    8.0620    2.1354   21.1999 O   0  0  0  0  0  0  0  0  0  0  0  0
    5.9485   -1.0661   24.2660 O   0  0  0  0  0  0  0  0  0  0  0  0
    8.9128   -4.7403   23.8881 O   0  0  0  0  0  0  0  0  0  0  0  0
   10.7138    0.1978   23.2638 O   0  0  0  0  0  0  0  0  0  0  0  0
    6.5024    4.8150   21.6838 O   0  0  0  0  0  0  0  0  0  0  0  0
   11.6367    2.8464   22.8957 O   0  0  0  0  0  0  0  0  0  0  0  0
  1  2  2  0
  1  3  1  0
  2  4  1  0
  3  5  2  0
  4  8  2  0
  5  8  1  0
  6  7  2  0
  6  9  1  0
  7 38  1  0
  8 24  1  0
  9 10  1  0
  9 37  2  0
 10 40  1  0
 10 45  2  0
 11 25  1  0
 11 39  1  0
 11 46  2  0
 12 31  1  0
 12 41  1  0
 12 47  2  0
 13 32  1  0
 13 42  1  0
 13 48  2  0
 14 33  1  0
 14 43  1  0
 14 49  2  0
 15 34  1  0
 15 44  1  0
 15 50  2  0
 16 17  1  0
 16 18  1  0
 17 19  1  0
 18 26  1  0
 18 51  1  0
 19 27  1  0
 19 51  1  0
 20 35  1  0
 21 35  1  0
 22 36  1  0
 23 38  1  0
 24 33  1  0
 25 28  1  0
 26 40  1  0
 27 53  1  0
 28 34  1  0
 29 31  1  0
 29 35  1  0
 30 31  1  0
 30 53  1  0
 32 36  1  0
 32 41  1  0
 33 42  1  0
 34 43  1  0
 36 52  1  0
 37 38  1  0
M  CHG  1  44  -1
M  END
