PAU-UNI-b2b6b158-1
     RDKit          3D

 20 22  0  0  0  0  0  0  0  0999 V2000
   13.1780    0.8033   23.7413 C   0  0  0  0  0  0  0  0  0  0  0  0
   12.0512    0.7808   24.6287 C   0  0  0  0  0  0  0  0  0  0  0  0
   13.4104   -0.1573   22.7327 C   0  0  0  0  0  0  0  0  0  0  0  0
   11.0401   -0.2046   24.5992 C   0  0  0  0  0  0  0  0  0  0  0  0
   12.3988   -2.1729   21.8223 C   0  0  0  0  0  0  0  0  0  0  0  0
   12.4078   -1.1260   22.7105 C   0  0  0  0  0  0  0  0  0  0  0  0
   11.2773   -1.1486   23.6008 C   0  0  0  0  0  0  0  0  0  0  0  0
   10.4420   -2.2120   23.3634 C   0  0  0  0  0  0  0  0  0  0  0  0
    6.1022   -1.5614   19.5520 C   0  0  0  0  0  0  0  0  0  0  0  0
    6.3656   -3.0805   21.4870 C   0  0  0  0  0  0  0  0  0  0  0  0
    6.7107   -0.6682   21.8541 C   0  0  0  0  0  0  0  0  0  0  0  0
    7.6676   -3.3975   22.2079 C   0  0  0  0  0  0  0  0  0  0  0  0
    8.0180   -0.9492   22.5827 C   0  0  0  0  0  0  0  0  0  0  0  0
    9.1676   -2.6154   24.0447 C   0  0  0  0  0  0  0  0  0  0  0  0
    6.1655   -0.1491   19.0276 C   0  0  0  0  0  0  0  0  0  0  0  0
    6.4014   -1.7401   20.9019 N   0  0  0  0  0  0  0  0  0  0  0  0
    7.9425   -2.3150   23.2277 N   0  0  0  0  0  0  0  0  0  0  0  0
    5.7985   -2.4771   18.7830 O   0  0  0  0  0  0  0  0  0  0  0  0
   11.0244   -3.1817   22.0649 S   0  0  0  0  0  0  0  0  0  0  0  0
    7.8222    0.1173   18.4964 Cl  0  0  0  0  0  0  0  0  0  0  0  0
  1  2  1  0
  1  3  2  0
  2  4  2  0
  3  6  1  0
  4  7  1  0
  5  6  2  0
  5 19  1  0
  6  7  1  0
  7  8  2  0
  8 14  1  0
  8 19  1  0
  9 15  1  0
  9 16  1  0
  9 18  2  0
 10 12  1  0
 10 16  1  0
 11 13  1  0
 11 16  1  0
 12 17  1  0
 13 17  1  0
 14 17  1  0
 15 20  1  0
M  CHG  1  17   1
M  END
