PAU-WEI-3e86dfd8-2
     RDKit          3D

 24 26  0  0  1  0  0  0  0  0999 V2000
   12.6550    0.7132   22.8053 C   0  0  0  0  0  0  0  0  0  0  0  0
   11.5927   -0.1888   22.7466 C   0  0  0  0  0  0  0  0  0  0  0  0
   12.6333    1.7571   23.7302 C   0  0  0  0  0  0  0  0  0  0  0  0
   10.5435   -3.1621   24.4638 C   0  0  0  0  0  0  0  0  0  0  0  0
   10.3859   -4.1222   25.5047 C   0  0  0  0  0  0  0  0  0  0  0  0
   10.4867    0.9973   24.5375 C   0  0  0  0  0  0  0  0  0  0  0  0
   10.5085   -0.0467   23.6127 C   0  0  0  0  0  0  0  0  0  0  0  0
   11.5492    1.8992   24.5962 C   0  0  0  0  0  0  0  0  0  0  0  0
    9.5450   -2.2133   24.4795 C   0  0  0  0  0  0  0  0  0  0  0  0
    9.2729   -3.8705   26.2766 C   0  0  0  0  0  0  0  0  0  0  0  0
    6.2805   -1.6584   18.9789 C   0  0  0  0  0  0  0  0  0  0  0  0
    8.4094   -0.7504   19.8532 C   0  0  0  0  0  0  0  0  0  0  0  0
    7.6475   -2.9348   20.7023 C   0  0  0  0  0  0  0  0  0  0  0  0
    8.6612   -0.2634   21.2727 C   0  0  0  0  0  0  0  0  0  0  0  0
    7.8897   -2.4810   22.1355 C   0  0  0  0  0  0  0  0  0  0  0  0
    5.8333   -0.2535   18.6628 C   0  0  0  0  0  0  0  0  0  0  0  0
    9.3506   -1.0291   23.5472 C   0  0  0  0  0  0  0  0  0  0  0  0
    7.3782   -1.7879   19.8285 N   0  0  0  0  0  0  0  0  0  0  0  0
    8.9959   -1.4498   22.1488 N   0  0  0  0  0  0  0  0  0  0  0  0
    5.6729   -2.6106   18.4828 O   0  0  0  0  0  0  0  0  0  0  0  0
    8.4235   -2.4817   25.7455 S   0  0  0  0  0  0  0  0  0  0  0  0
   11.5224    3.1882   25.7363 Cl  0  0  0  0  0  0  0  0  0  0  0  0
    5.3714    0.4844   20.1925 Cl  0  0  0  0  0  0  0  0  0  0  0  0
    8.7303   -4.9284   27.7577 Br  0  0  0  0  0  0  0  0  0  0  0  0
  1  2  2  0
  1  3  1  0
  2  7  1  0
  3  8  2  0
  4  5  1  0
  4  9  2  0
  5 10  2  0
  6  7  2  0
  6  8  1  0
  7 17  1  0
  8 22  1  0
  9 17  1  0
  9 21  1  0
 10 21  1  0
 10 24  1  0
 11 16  1  0
 11 18  1  0
 11 20  2  0
 12 14  1  0
 12 18  1  0
 13 15  1  0
 13 18  1  0
 14 19  1  0
 15 19  1  0
 16 23  1  0
 17 19  1  0
M  CHG  1  19   1
M  END
