PAU-WEI-b9b69149-8
     RDKit          3D

 35 38  0  0  1  0  0  0  0  0999 V2000
    8.5046   -0.7508   24.8246 C   0  0  0  0  0  0  0  0  0  0  0  0
    9.8315   -0.3338   24.9810 C   0  0  0  0  0  0  0  0  0  0  0  0
    8.0848   -1.3672   23.6475 C   0  0  0  0  0  0  0  0  0  0  0  0
   10.3355   -4.6644   24.6847 C   0  0  0  0  0  0  0  0  0  0  0  0
    8.1791   -4.8440   25.7594 C   0  0  0  0  0  0  0  0  0  0  0  0
    9.7102   -4.6112   23.4390 C   0  0  0  0  0  0  0  0  0  0  0  0
    7.5538   -4.7908   24.5136 C   0  0  0  0  0  0  0  0  0  0  0  0
   12.4852   -0.7027   22.4946 C   0  0  0  0  0  0  0  0  0  0  0  0
   10.7464   -0.5440   23.9302 C   0  0  0  0  0  0  0  0  0  0  0  0
    9.5699   -4.7809   25.8449 C   0  0  0  0  0  0  0  0  0  0  0  0
    8.3194   -4.6743   23.3534 C   0  0  0  0  0  0  0  0  0  0  0  0
    8.9743   -1.5862   22.5917 C   0  0  0  0  0  0  0  0  0  0  0  0
   12.1283   -0.2584   23.7469 C   0  0  0  0  0  0  0  0  0  0  0  0
   10.2976   -1.1641   22.7621 C   0  0  0  0  0  0  0  0  0  0  0  0
    5.5244    0.1353   17.3036 C   0  0  0  0  0  0  0  0  0  0  0  0
   11.3903    2.8906   23.2316 C   0  0  0  0  0  0  0  0  0  0  0  0
    6.4811    0.4744   19.5599 C   0  0  0  0  0  0  0  0  0  0  0  0
    7.8501   -0.7115   17.8887 C   0  0  0  0  0  0  0  0  0  0  0  0
    6.7594   -0.6117   20.5887 C   0  0  0  0  0  0  0  0  0  0  0  0
    8.1507   -1.8153   18.8937 C   0  0  0  0  0  0  0  0  0  0  0  0
   10.2376   -4.8378   27.1771 C   0  0  0  0  0  0  0  0  0  0  0  0
   10.2005    3.7675   23.4408 C   0  0  0  0  0  0  0  0  0  0  0  0
    7.6443   -4.6150   22.0067 C   0  0  0  0  0  0  0  0  0  0  0  0
   13.0267    0.3972   24.7188 C   0  0  0  0  0  0  0  0  0  0  0  0
    5.7011   -0.4434   15.9224 C   0  0  0  0  0  0  0  0  0  0  0  0
    7.2799   -3.2058   21.5081 C   0  0  0  0  0  0  0  0  0  0  0  0
   13.3377    1.8691   24.3921 C   0  0  0  0  0  0  0  0  0  0  0  0
    8.4849   -2.2583   21.3283 C   0  0  0  0  0  0  0  0  0  0  0  0
   11.3742   -1.2472   21.9082 N   0  0  0  0  0  0  0  0  0  0  0  0
    6.5762   -0.0539   18.1990 N   0  0  0  0  0  0  0  0  0  0  0  0
   12.1513    2.6821   24.3707 N   0  0  0  0  0  0  0  0  0  0  0  0
    8.1027   -1.2398   20.2914 N   0  0  0  0  0  0  0  0  0  0  0  0
    4.4815    0.7347   17.5773 O   0  0  0  0  0  0  0  0  0  0  0  0
   11.6119    2.4282   22.1186 O   0  0  0  0  0  0  0  0  0  0  0  0
    4.2235   -0.0880   15.0346 Cl  0  0  0  0  0  0  0  0  0  0  0  0
  1  2  2  0
  1  3  1  0
  2  9  1  0
  3 12  2  0
  4  6  2  0
  4 10  1  0
  5  7  1  0
  5 10  2  0
  6 11  1  0
  7 11  2  0
  8 13  2  0
  8 29  1  0
  9 13  1  0
  9 14  2  0
 10 21  1  0
 11 23  1  0
 12 14  1  0
 12 28  1  0
 13 24  1  0
 14 29  1  0
 15 25  1  0
 15 30  1  0
 15 33  2  0
 16 22  1  0
 16 31  1  0
 16 34  2  0
 17 19  1  0
 17 30  1  0
 18 20  1  0
 18 30  1  0
 19 32  1  0
 20 32  1  0
 23 26  1  0
 24 27  1  0
 25 35  1  0
 26 28  1  0
 27 31  1  0
 28 32  1  0
M  CHG  1  32   1
M  END
