PAU-WEI-b9b69149-6
     RDKit          3D

 28 30  0  0  1  0  0  0  0  0999 V2000
    7.6086   -5.5751   26.1022 C   0  0  0  0  0  0  0  0  0  0  0  0
    5.6211   -2.4387   25.8397 C   0  0  0  0  0  0  0  0  0  0  0  0
    6.0669   -3.6854   26.2784 C   0  0  0  0  0  0  0  0  0  0  0  0
    6.2610   -1.8042   24.7749 C   0  0  0  0  0  0  0  0  0  0  0  0
   12.4840    0.7280   22.3896 C   0  0  0  0  0  0  0  0  0  0  0  0
   11.3221    0.9760   24.4933 C   0  0  0  0  0  0  0  0  0  0  0  0
   11.9517   -0.5533   22.2466 C   0  0  0  0  0  0  0  0  0  0  0  0
   10.7897   -0.3053   24.3503 C   0  0  0  0  0  0  0  0  0  0  0  0
    7.7927   -3.6632   24.5877 C   0  0  0  0  0  0  0  0  0  0  0  0
    7.1528   -4.2977   25.6524 C   0  0  0  0  0  0  0  0  0  0  0  0
   12.1693    1.4926   23.5130 C   0  0  0  0  0  0  0  0  0  0  0  0
   11.1045   -1.0700   23.2269 C   0  0  0  0  0  0  0  0  0  0  0  0
    7.3468   -2.4165   24.1489 C   0  0  0  0  0  0  0  0  0  0  0  0
    6.0120   -1.1122   17.8763 C   0  0  0  0  0  0  0  0  0  0  0  0
    5.6082   -2.1648   20.0786 C   0  0  0  0  0  0  0  0  0  0  0  0
    6.4865    0.1374   20.0399 C   0  0  0  0  0  0  0  0  0  0  0  0
    6.6730   -2.5760   21.0850 C   0  0  0  0  0  0  0  0  0  0  0  0
    7.5640   -0.2389   21.0478 C   0  0  0  0  0  0  0  0  0  0  0  0
   12.7380    2.8626   23.6667 C   0  0  0  0  0  0  0  0  0  0  0  0
   10.5281   -2.4543   23.0707 C   0  0  0  0  0  0  0  0  0  0  0  0
    6.4994    0.0948   17.1152 C   0  0  0  0  0  0  0  0  0  0  0  0
    9.1797   -2.5329   22.3337 C   0  0  0  0  0  0  0  0  0  0  0  0
    8.0405   -1.7283   22.9946 C   0  0  0  0  0  0  0  0  0  0  0  0
    7.9788   -6.6125   26.4675 N   0  0  0  0  0  0  0  0  0  0  0  0
    6.0602   -1.0343   19.2674 N   0  0  0  0  0  0  0  0  0  0  0  0
    7.0592   -1.3713   21.9138 N   0  0  0  0  0  0  0  0  0  0  0  0
    5.6036   -2.0945   17.2515 O   0  0  0  0  0  0  0  0  0  0  0  0
    8.2288   -0.1262   16.8743 Cl  0  0  0  0  0  0  0  0  0  0  0  0
  1 10  1  0
  1 24  3  0
  2  3  2  0
  2  4  1  0
  3 10  1  0
  4 13  2  0
  5  7  2  0
  5 11  1  0
  6  8  1  0
  6 11  2  0
  7 12  1  0
  8 12  2  0
  9 10  2  0
  9 13  1  0
 11 19  1  0
 12 20  1  0
 13 23  1  0
 14 21  1  0
 14 25  1  0
 14 27  2  0
 15 17  1  0
 15 25  1  0
 16 18  1  0
 16 25  1  0
 17 26  1  0
 18 26  1  0
 20 22  1  0
 21 28  1  0
 22 23  1  0
 23 26  1  0
M  CHG  1  26   1
M  END
