PAU-WEI-b9b69149-5
     RDKit          3D

 31 33  0  0  1  0  0  0  0  0999 V2000
    6.2906   -5.4035   21.1667 C   0  0  0  0  0  0  0  0  0  0  0  0
    5.4036   -2.3508   23.1032 C   0  0  0  0  0  0  0  0  0  0  0  0
    5.2923   -3.4613   22.2666 C   0  0  0  0  0  0  0  0  0  0  0  0
    6.6279   -2.0453   23.6976 C   0  0  0  0  0  0  0  0  0  0  0  0
    8.9087   -1.0377   21.0524 C   0  0  0  0  0  0  0  0  0  0  0  0
    7.8190    0.8840   22.0305 C   0  0  0  0  0  0  0  0  0  0  0  0
    8.0330   -0.9824   19.9681 C   0  0  0  0  0  0  0  0  0  0  0  0
    6.9433    0.9393   20.9461 C   0  0  0  0  0  0  0  0  0  0  0  0
    7.6297   -3.9608   22.6187 C   0  0  0  0  0  0  0  0  0  0  0  0
    6.4053   -4.2663   22.0243 C   0  0  0  0  0  0  0  0  0  0  0  0
    8.8016   -0.1046   22.0836 C   0  0  0  0  0  0  0  0  0  0  0  0
    7.0504    0.0061   19.9149 C   0  0  0  0  0  0  0  0  0  0  0  0
    7.7410   -2.8503   23.4554 C   0  0  0  0  0  0  0  0  0  0  0  0
    7.9384   -6.1323   28.1445 C   0  0  0  0  0  0  0  0  0  0  0  0
    9.5984   -5.5111   26.4184 C   0  0  0  0  0  0  0  0  0  0  0  0
    8.5251   -3.6985   27.6972 C   0  0  0  0  0  0  0  0  0  0  0  0
    9.3058   -4.7898   25.1109 C   0  0  0  0  0  0  0  0  0  0  0  0
    8.2178   -2.9484   26.4081 C   0  0  0  0  0  0  0  0  0  0  0  0
    9.7477   -0.1636   23.2560 C   0  0  0  0  0  0  0  0  0  0  0  0
    6.9572   -5.6656   29.1900 C   0  0  0  0  0  0  0  0  0  0  0  0
    9.2839   -1.0290   24.4406 C   0  0  0  0  0  0  0  0  0  0  0  0
    9.0683   -2.5189   24.1000 C   0  0  0  0  0  0  0  0  0  0  0  0
    6.1156    0.0656   18.7543 C   0  0  0  0  0  0  0  0  0  0  0  0
    6.1974   -6.3271   20.4702 N   0  0  0  0  0  0  0  0  0  0  0  0
    8.6308   -5.1407   27.4511 N   0  0  0  0  0  0  0  0  0  0  0  0
    9.2591   -3.3004   25.3694 N   0  0  0  0  0  0  0  0  0  0  0  0
    8.0817   -7.3421   27.9495 O   0  0  0  0  0  0  0  0  0  0  0  0
    6.3378   -0.9075   17.8218 F   0  0  0  0  0  0  0  0  0  0  0  0
    4.8018   -0.0690   19.1030 F   0  0  0  0  0  0  0  0  0  0  0  0
    6.1951    1.2474   18.0761 F   0  0  0  0  0  0  0  0  0  0  0  0
    5.4175   -5.4357   28.3690 Cl  0  0  0  0  0  0  0  0  0  0  0  0
  1 10  1  0
  1 24  3  0
  2  3  2  0
  2  4  1  0
  3 10  1  0
  4 13  2  0
  5  7  2  0
  5 11  1  0
  6  8  1  0
  6 11  2  0
  7 12  1  0
  8 12  2  0
  9 10  2  0
  9 13  1  0
 11 19  1  0
 12 23  1  0
 13 22  1  0
 14 20  1  0
 14 25  1  0
 14 27  2  0
 15 17  1  0
 15 25  1  0
 16 18  1  0
 16 25  1  0
 17 26  1  0
 18 26  1  0
 19 21  1  0
 20 31  1  0
 21 22  1  0
 22 26  1  0
 23 28  1  0
 23 29  1  0
 23 30  1  0
M  CHG  1  26   1
M  END
