PAU-WEI-f734c343-2
     RDKit          3D

 35 38  0  0  1  0  0  0  0  0999 V2000
    2.7481   -3.6764   26.3065 C   0  0  0  0  0  0  0  0  0  0  0  0
    3.5837   -4.4409   24.1395 C   0  0  0  0  0  0  0  0  0  0  0  0
    4.6183   -4.5587   23.2113 C   0  0  0  0  0  0  0  0  0  0  0  0
    9.5796   -4.3159   25.3096 C   0  0  0  0  0  0  0  0  0  0  0  0
   10.1321   -5.2497   26.2331 C   0  0  0  0  0  0  0  0  0  0  0  0
    5.0675   -3.2709   25.6450 C   0  0  0  0  0  0  0  0  0  0  0  0
    3.8083   -3.7970   25.3563 C   0  0  0  0  0  0  0  0  0  0  0  0
    5.8775   -4.0326   23.5000 C   0  0  0  0  0  0  0  0  0  0  0  0
    6.1021   -3.3887   24.7168 C   0  0  0  0  0  0  0  0  0  0  0  0
    8.3702   -3.8162   25.7400 C   0  0  0  0  0  0  0  0  0  0  0  0
    9.3239   -5.4279   27.3345 C   0  0  0  0  0  0  0  0  0  0  0  0
    9.1010    1.9133   24.0245 C   0  0  0  0  0  0  0  0  0  0  0  0
    6.5366   -2.5669   20.6464 C   0  0  0  0  0  0  0  0  0  0  0  0
    7.3717    0.1485   23.9204 C   0  0  0  0  0  0  0  0  0  0  0  0
    9.5010   -0.3769   25.0534 C   0  0  0  0  0  0  0  0  0  0  0  0
    6.2325   -0.8777   18.8632 C   0  0  0  0  0  0  0  0  0  0  0  0
    8.0392   -0.4956   20.4970 C   0  0  0  0  0  0  0  0  0  0  0  0
    6.5858   -0.4382   25.0839 C   0  0  0  0  0  0  0  0  0  0  0  0
    8.7436   -0.9738   26.2321 C   0  0  0  0  0  0  0  0  0  0  0  0
    5.9149    0.6072   18.9432 C   0  0  0  0  0  0  0  0  0  0  0  0
    7.6524    0.9795   20.4824 C   0  0  0  0  0  0  0  0  0  0  0  0
    6.9693   -4.1707   22.4905 C   0  0  0  0  0  0  0  0  0  0  0  0
   10.4668    2.3290   24.5098 C   0  0  0  0  0  0  0  0  0  0  0  0
    7.4654   -2.8069   25.0532 C   0  0  0  0  0  0  0  0  0  0  0  0
    1.8869   -3.5784   27.0782 N   0  0  0  0  0  0  0  0  0  0  0  0
    8.6865    0.6228   24.3536 N   0  0  0  0  0  0  0  0  0  0  0  0
    6.9085   -1.3365   20.0789 N   0  0  0  0  0  0  0  0  0  0  0  0
    7.2313   -2.9312   21.7938 N   0  0  0  0  0  0  0  0  0  0  0  0
    7.3969   -1.4984   25.7918 N   0  0  0  0  0  0  0  0  0  0  0  0
    8.4233    2.7137   23.3748 O   0  0  0  0  0  0  0  0  0  0  0  0
    5.6570   -3.2876   20.1633 O   0  0  0  0  0  0  0  0  0  0  0  0
    7.1063    1.3474   19.2153 O   0  0  0  0  0  0  0  0  0  0  0  0
    7.9056   -4.4721   27.2521 S   0  0  0  0  0  0  0  0  0  0  0  0
   10.7326    3.9673   23.9239 Cl  0  0  0  0  0  0  0  0  0  0  0  0
    9.7208   -6.5921   28.7818 Br  0  0  0  0  0  0  0  0  0  0  0  0
  1  7  1  0
  1 25  3  0
  2  3  2  0
  2  7  1  0
  3  8  1  0
  4  5  1  0
  4 10  2  0
  5 11  2  0
  6  7  2  0
  6  9  1  0
  8  9  2  0
  8 22  1  0
  9 24  1  0
 10 24  1  0
 10 33  1  0
 11 33  1  0
 11 35  1  0
 12 23  1  0
 12 26  1  0
 12 30  2  0
 13 27  1  0
 13 28  1  0
 13 31  2  0
 14 18  1  0
 14 26  1  0
 15 19  1  0
 15 26  1  0
 16 20  1  0
 16 27  1  0
 17 21  1  0
 17 27  1  0
 18 29  1  0
 19 29  1  0
 20 32  1  0
 21 32  1  0
 22 28  1  0
 23 34  1  0
 24 29  1  0
M  CHG  1  29   1
M  END
