PAU-UNI-52c0427f-1
     RDKit          3D

 22 23  0  0  0  0  0  0  0  0999 V2000
   11.2265    1.5879   25.8388 C   0  0  0  0  0  0  0  0  0  0  0  0
   10.8326   -0.2174   24.2256 C   0  0  0  0  0  0  0  0  0  0  0  0
   12.8262    1.0690   24.0608 C   0  0  0  0  0  0  0  0  0  0  0  0
   11.6285    0.8149   24.7094 C   0  0  0  0  0  0  0  0  0  0  0  0
   11.2528   -0.9538   23.1235 C   0  0  0  0  0  0  0  0  0  0  0  0
   12.4672   -0.6204   22.5458 C   0  0  0  0  0  0  0  0  0  0  0  0
    6.0736   -1.2189   19.2399 C   0  0  0  0  0  0  0  0  0  0  0  0
    6.7737   -2.2346   21.3845 C   0  0  0  0  0  0  0  0  0  0  0  0
    7.7115   -0.0360   20.7846 C   0  0  0  0  0  0  0  0  0  0  0  0
    8.1628   -2.7593   21.7174 C   0  0  0  0  0  0  0  0  0  0  0  0
    9.1154   -0.5273   21.1105 C   0  0  0  0  0  0  0  0  0  0  0  0
   14.5659   -0.3220   20.0363 C   0  0  0  0  0  0  0  0  0  0  0  0
   10.3921   -2.0678   22.6047 C   0  0  0  0  0  0  0  0  0  0  0  0
    5.6342    0.0955   18.6459 C   0  0  0  0  0  0  0  0  0  0  0  0
   14.2636   -1.4131   21.0062 C   0  0  0  0  0  0  0  0  0  0  0  0
   10.8994    2.2167   26.7577 N   0  0  0  0  0  0  0  0  0  0  0  0
   13.2677    0.3755   22.9876 N   0  0  0  0  0  0  0  0  0  0  0  0
    6.8418   -1.1533   20.4015 N   0  0  0  0  0  0  0  0  0  0  0  0
   12.9000   -1.3686   21.4224 N   0  0  0  0  0  0  0  0  0  0  0  0
    9.0306   -1.6054   22.1678 N   0  0  0  0  0  0  0  0  0  0  0  0
    5.7453   -2.2709   18.6854 O   0  0  0  0  0  0  0  0  0  0  0  0
    4.6374    0.8890   19.8603 Cl  0  0  0  0  0  0  0  0  0  0  0  0
  1  4  1  0
  1 16  3  0
  2  4  2  0
  2  5  1  0
  3  4  1  0
  3 17  2  0
  5  6  2  0
  5 13  1  0
  6 17  1  0
  6 19  1  0
  7 14  1  0
  7 18  1  0
  7 21  2  0
  8 10  1  0
  8 18  1  0
  9 11  1  0
  9 18  1  0
 10 20  1  0
 11 20  1  0
 12 15  1  0
 13 20  1  0
 14 22  1  0
 15 19  1  0
M  CHG  1  20   1
M  END
