PAU-WEI-f734c343-3
     RDKit          3D

 28 30  0  0  1  0  0  0  0  0999 V2000
   13.8349   -0.1971   22.4674 C   0  0  0  0  0  0  0  0  0  0  0  0
    9.8653   -3.5302   24.4503 C   0  0  0  0  0  0  0  0  0  0  0  0
    9.4671   -4.5101   25.4050 C   0  0  0  0  0  0  0  0  0  0  0  0
   11.4965   -0.6697   23.0380 C   0  0  0  0  0  0  0  0  0  0  0  0
   12.6648    1.0162   24.2418 C   0  0  0  0  0  0  0  0  0  0  0  0
   12.6674    0.0498   23.2489 C   0  0  0  0  0  0  0  0  0  0  0  0
   10.3746   -0.4047   23.8154 C   0  0  0  0  0  0  0  0  0  0  0  0
    9.0215   -2.4414   24.4436 C   0  0  0  0  0  0  0  0  0  0  0  0
   10.4747    0.5819   24.7831 C   0  0  0  0  0  0  0  0  0  0  0  0
    8.3341   -4.1327   26.0918 C   0  0  0  0  0  0  0  0  0  0  0  0
    6.4243   -1.0915   18.7293 C   0  0  0  0  0  0  0  0  0  0  0  0
    8.5692   -0.5708   19.8470 C   0  0  0  0  0  0  0  0  0  0  0  0
    7.4136   -2.6552   20.4740 C   0  0  0  0  0  0  0  0  0  0  0  0
    8.7514   -0.2065   21.3132 C   0  0  0  0  0  0  0  0  0  0  0  0
    7.5801   -2.3230   21.9507 C   0  0  0  0  0  0  0  0  0  0  0  0
    8.6882    3.1670   25.3911 C   0  0  0  0  0  0  0  0  0  0  0  0
    6.2228    0.3806   18.4724 C   0  0  0  0  0  0  0  0  0  0  0  0
    9.1683    2.0800   26.2914 C   0  0  0  0  0  0  0  0  0  0  0  0
    9.0960   -1.1923   23.5814 C   0  0  0  0  0  0  0  0  0  0  0  0
   14.7847   -0.3980   21.8316 N   0  0  0  0  0  0  0  0  0  0  0  0
   11.5948    1.3018   25.0171 N   0  0  0  0  0  0  0  0  0  0  0  0
    7.4032   -1.4345   19.6609 N   0  0  0  0  0  0  0  0  0  0  0  0
    9.3334    0.8560   25.5777 N   0  0  0  0  0  0  0  0  0  0  0  0
    8.8203   -1.4765   22.1317 N   0  0  0  0  0  0  0  0  0  0  0  0
    5.7335   -1.9104   18.1175 O   0  0  0  0  0  0  0  0  0  0  0  0
    7.7552   -2.6029   25.5850 S   0  0  0  0  0  0  0  0  0  0  0  0
    7.3329    0.8230   17.1802 Cl  0  0  0  0  0  0  0  0  0  0  0  0
    7.4998   -5.1740   27.4435 Br  0  0  0  0  0  0  0  0  0  0  0  0
  1  6  1  0
  1 20  3  0
  2  3  1  0
  2  8  2  0
  3 10  2  0
  4  6  2  0
  4  7  1  0
  5  6  1  0
  5 21  2  0
  7  9  2  0
  7 19  1  0
  8 19  1  0
  8 26  1  0
  9 21  1  0
  9 23  1  0
 10 26  1  0
 10 28  1  0
 11 17  1  0
 11 22  1  0
 11 25  2  0
 12 14  1  0
 12 22  1  0
 13 15  1  0
 13 22  1  0
 14 24  1  0
 15 24  1  0
 16 18  1  0
 17 27  1  0
 18 23  1  0
 19 24  1  0
M  CHG  1  24   1
M  END
