PAU-WEI-b9b69149-3
     RDKit          3D

 27 29  0  0  1  0  0  0  0  0999 V2000
    9.5308   -5.4217   26.1405 C   0  0  0  0  0  0  0  0  0  0  0  0
    9.6940   -4.4660   25.1377 C   0  0  0  0  0  0  0  0  0  0  0  0
   12.0251    1.6139   23.2107 C   0  0  0  0  0  0  0  0  0  0  0  0
   11.2595    1.1405   25.4527 C   0  0  0  0  0  0  0  0  0  0  0  0
   11.9669    0.2546   22.9037 C   0  0  0  0  0  0  0  0  0  0  0  0
   11.2012   -0.2189   25.1457 C   0  0  0  0  0  0  0  0  0  0  0  0
    8.4342   -5.3509   26.9996 C   0  0  0  0  0  0  0  0  0  0  0  0
    7.6640   -3.3686   25.8533 C   0  0  0  0  0  0  0  0  0  0  0  0
   11.6715    2.0569   24.4852 C   0  0  0  0  0  0  0  0  0  0  0  0
   11.5549   -0.6619   23.8712 C   0  0  0  0  0  0  0  0  0  0  0  0
    8.7607   -3.4394   24.9941 C   0  0  0  0  0  0  0  0  0  0  0  0
    7.5008   -4.3243   26.8560 C   0  0  0  0  0  0  0  0  0  0  0  0
    5.9190   -1.9812   19.2821 C   0  0  0  0  0  0  0  0  0  0  0  0
    6.3289   -3.3702   21.2880 C   0  0  0  0  0  0  0  0  0  0  0  0
    6.3074   -0.9211   21.5610 C   0  0  0  0  0  0  0  0  0  0  0  0
    7.6360   -3.4655   22.0612 C   0  0  0  0  0  0  0  0  0  0  0  0
    7.6141   -0.9798   22.3405 C   0  0  0  0  0  0  0  0  0  0  0  0
   11.7335    3.5102   24.8142 C   0  0  0  0  0  0  0  0  0  0  0  0
   11.4905   -2.1308   23.5381 C   0  0  0  0  0  0  0  0  0  0  0  0
    5.7960   -0.5959   18.6994 C   0  0  0  0  0  0  0  0  0  0  0  0
   10.1474   -2.6255   22.9736 C   0  0  0  0  0  0  0  0  0  0  0  0
    8.9389   -2.4028   23.9074 C   0  0  0  0  0  0  0  0  0  0  0  0
    6.1915   -2.0624   20.6469 N   0  0  0  0  0  0  0  0  0  0  0  0
    7.7139   -2.3163   23.0413 N   0  0  0  0  0  0  0  0  0  0  0  0
    5.7793   -2.9602   18.5445 O   0  0  0  0  0  0  0  0  0  0  0  0
    6.1486   -4.2369   27.9170 Cl  0  0  0  0  0  0  0  0  0  0  0  0
    7.4149   -0.1106   18.2079 Cl  0  0  0  0  0  0  0  0  0  0  0  0
  1  2  2  0
  1  7  1  0
  2 11  1  0
  3  5  2  0
  3  9  1  0
  4  6  1  0
  4  9  2  0
  5 10  1  0
  6 10  2  0
  7 12  2  0
  8 11  2  0
  8 12  1  0
  9 18  1  0
 10 19  1  0
 11 22  1  0
 12 26  1  0
 13 20  1  0
 13 23  1  0
 13 25  2  0
 14 16  1  0
 14 23  1  0
 15 17  1  0
 15 23  1  0
 16 24  1  0
 17 24  1  0
 19 21  1  0
 20 27  1  0
 21 22  1  0
 22 24  1  0
M  CHG  1  24   1
M  END
