PED-UNI-89deb5c9-1
     RDKit          3D

 24 25  0  0  1  0  0  0  0  0999 V2000
    6.7919    0.4574   22.1663 C   0  0  0  0  0  0  0  0  0  0  0  0
    7.2407    0.7199   23.4606 C   0  0  0  0  0  0  0  0  0  0  0  0
    7.8264   -1.7243   22.2500 C   0  0  0  0  0  0  0  0  0  0  0  0
    8.2752   -1.4618   23.5444 C   0  0  0  0  0  0  0  0  0  0  0  0
    7.0847   -0.7647   21.5610 C   0  0  0  0  0  0  0  0  0  0  0  0
    7.9823   -0.2397   24.1496 C   0  0  0  0  0  0  0  0  0  0  0  0
   12.5501    2.2761   23.3238 C   0  0  0  0  0  0  0  0  0  0  0  0
   12.8688   -0.6766   21.7044 C   0  0  0  0  0  0  0  0  0  0  0  0
   13.6133    0.1222   22.7693 C   0  0  0  0  0  0  0  0  0  0  0  0
   11.9798    0.2365   24.6852 C   0  0  0  0  0  0  0  0  0  0  0  0
   12.2338   -1.9658   22.2105 C   0  0  0  0  0  0  0  0  0  0  0  0
   11.8782   -1.2819   24.6145 C   0  0  0  0  0  0  0  0  0  0  0  0
    9.0698   -2.5243   24.2472 C   0  0  0  0  0  0  0  0  0  0  0  0
   11.5837    3.0369   24.1998 C   0  0  0  0  0  0  0  0  0  0  0  0
   10.3504   -2.9197   23.5189 C   0  0  0  0  0  0  0  0  0  0  0  0
   12.6945    0.9079   23.5947 N   0  0  0  0  0  0  0  0  0  0  0  0
    7.8342   -0.5062   19.0161 N   0  0  0  0  0  0  0  0  0  0  0  0
   11.2328   -1.7125   23.3141 N   0  0  0  0  0  0  0  0  0  0  0  0
   13.1505    2.8737   22.4270 O   0  0  0  0  0  0  0  0  0  0  0  0
    6.4344   -2.5360   19.7685 O   0  0  0  0  0  0  0  0  0  0  0  0
    5.3567   -0.2604   19.6784 O   0  0  0  0  0  0  0  0  0  0  0  0
    6.5226   -1.0927   19.9408 S   0  0  0  0  0  0  0  0  0  0  0  0
   10.0208    2.9750   23.3941 Cl  0  0  0  0  0  0  0  0  0  0  0  0
    8.5701    0.1631   25.9071 Br  0  0  0  0  0  0  0  0  0  0  0  0
  1  2  2  0
  1  5  1  0
  2  6  1  0
  3  4  1  0
  3  5  2  0
  4  6  2  0
  4 13  1  0
  5 22  1  0
  6 24  1  0
  7 14  1  0
  7 16  1  0
  7 19  2  0
  8  9  1  0
  8 11  1  0
  9 16  1  0
 10 12  1  0
 10 16  1  0
 11 18  1  0
 12 18  1  0
 13 15  1  0
 14 23  1  0
 15 18  1  0
 17 22  1  0
 20 22  2  0
 21 22  2  0
M  CHG  1  18   1
M  END
