PED-UNI-b79f0f51-2
     RDKit          3D

 39 42  0  0  1  0  0  0  0  0999 V2000
    2.3613    3.3353   21.7406 C   0  0  0  0  0  0  0  0  0  0  0  0
    2.9421    1.0460   21.1065 C   0  0  0  0  0  0  0  0  0  0  0  0
    4.4172    2.8621   20.5043 C   0  0  0  0  0  0  0  0  0  0  0  0
    3.8067    0.1400   20.4922 C   0  0  0  0  0  0  0  0  0  0  0  0
    5.2819    1.9562   19.8901 C   0  0  0  0  0  0  0  0  0  0  0  0
    3.8160   -5.3177   24.3522 C   0  0  0  0  0  0  0  0  0  0  0  0
    4.3907   -5.4825   23.0919 C   0  0  0  0  0  0  0  0  0  0  0  0
    5.9662   -4.6779   25.2490 C   0  0  0  0  0  0  0  0  0  0  0  0
    3.2473    2.4071   21.1125 C   0  0  0  0  0  0  0  0  0  0  0  0
    4.9766    0.5951   19.8841 C   0  0  0  0  0  0  0  0  0  0  0  0
    6.5409   -4.8428   23.9887 C   0  0  0  0  0  0  0  0  0  0  0  0
    4.6038   -4.9154   25.4307 C   0  0  0  0  0  0  0  0  0  0  0  0
    5.7531   -5.2451   22.9102 C   0  0  0  0  0  0  0  0  0  0  0  0
    2.6822    0.7450   25.3815 C   0  0  0  0  0  0  0  0  0  0  0  0
    7.9121   -0.6938   20.6556 C   0  0  0  0  0  0  0  0  0  0  0  0
    4.0404   -0.6745   26.9975 C   0  0  0  0  0  0  0  0  0  0  0  0
    1.7618   -1.3431   26.3395 C   0  0  0  0  0  0  0  0  0  0  0  0
    4.5369   -2.0915   26.7262 C   0  0  0  0  0  0  0  0  0  0  0  0
    2.2508   -2.7604   26.0630 C   0  0  0  0  0  0  0  0  0  0  0  0
    9.8499   -1.1531   22.1205 C   0  0  0  0  0  0  0  0  0  0  0  0
    8.0908   -2.8831   21.9734 C   0  0  0  0  0  0  0  0  0  0  0  0
    9.9540   -1.4595   23.6053 C   0  0  0  0  0  0  0  0  0  0  0  0
    8.2913   -3.1233   23.4730 C   0  0  0  0  0  0  0  0  0  0  0  0
    8.0147   -4.5765   23.8340 C   0  0  0  0  0  0  0  0  0  0  0  0
    5.9081   -0.3802   19.2243 C   0  0  0  0  0  0  0  0  0  0  0  0
    3.8268    1.7257   25.3404 C   0  0  0  0  0  0  0  0  0  0  0  0
    1.6416    4.0892   22.2509 N   0  0  0  0  0  0  0  0  0  0  0  0
    2.8514   -0.3775   26.1902 N   0  0  0  0  0  0  0  0  0  0  0  0
    8.5420   -1.5381   21.5871 N   0  0  0  0  0  0  0  0  0  0  0  0
    3.4206   -3.0610   26.9426 N   0  0  0  0  0  0  0  0  0  0  0  0
    6.6774   -1.1319   20.1904 N   0  0  0  0  0  0  0  0  0  0  0  0
    1.6705    0.9700   24.7124 O   0  0  0  0  0  0  0  0  0  0  0  0
    8.4154    0.3647   20.2646 O   0  0  0  0  0  0  0  0  0  0  0  0
    2.6846   -5.5322   27.0767 O   0  0  0  0  0  0  0  0  0  0  0  0
    4.9248   -4.8624   28.0150 O   0  0  0  0  0  0  0  0  0  0  0  0
    9.6391   -2.8293   23.8500 O   0  0  0  0  0  0  0  0  0  0  0  0
    3.8840   -4.7093   27.0080 S   0  0  0  0  0  0  0  0  0  0  0  0
    6.4292   -5.4593   21.3366 Cl  0  0  0  0  0  0  0  0  0  0  0  0
    4.8982    1.1957   24.0485 Cl  0  0  0  0  0  0  0  0  0  0  0  0
  1  9  1  0
  1 27  3  0
  2  4  2  0
  2  9  1  0
  3  5  1  0
  3  9  2  0
  4 10  1  0
  5 10  2  0
  6  7  2  0
  6 12  1  0
  7 13  1  0
  8 11  1  0
  8 12  2  0
 10 25  1  0
 11 13  2  0
 11 24  1  0
 12 37  1  0
 13 38  1  0
 14 26  1  0
 14 28  1  0
 14 32  2  0
 15 29  1  0
 15 31  1  0
 15 33  2  0
 16 18  1  0
 16 28  1  0
 17 19  1  0
 17 28  1  0
 18 30  1  0
 19 30  1  0
 20 22  1  0
 20 29  1  0
 21 23  1  0
 21 29  1  0
 22 36  1  0
 23 24  1  0
 23 36  1  0
 25 31  1  0
 26 39  1  0
 30 37  1  0
 34 37  2  0
 35 37  2  0
M  END
