PED-UNI-8d53fd73-1
     RDKit          3D

 23 24  0  0  1  0  0  0  0  0999 V2000
   14.2609   -0.6899   23.1366 C   0  0  0  0  0  0  0  0  0  0  0  0
   13.7776   -1.9249   22.7045 C   0  0  0  0  0  0  0  0  0  0  0  0
   13.3710    0.3436   23.4293 C   0  0  0  0  0  0  0  0  0  0  0  0
   12.4044   -2.1264   22.5649 C   0  0  0  0  0  0  0  0  0  0  0  0
   11.9979    0.1422   23.2897 C   0  0  0  0  0  0  0  0  0  0  0  0
    5.4903    0.8482   19.1752 C   0  0  0  0  0  0  0  0  0  0  0  0
    6.1354    0.7922   17.9503 C   0  0  0  0  0  0  0  0  0  0  0  0
    8.0542   -0.0431   18.8982 C   0  0  0  0  0  0  0  0  0  0  0  0
   11.5145   -1.0928   22.8575 C   0  0  0  0  0  0  0  0  0  0  0  0
    6.1921    0.4294   20.3001 C   0  0  0  0  0  0  0  0  0  0  0  0
    7.4991   -0.0261   20.1676 C   0  0  0  0  0  0  0  0  0  0  0  0
    9.5629   -0.9398   21.2866 C   0  0  0  0  0  0  0  0  0  0  0  0
    5.5211    0.4796   21.6335 C   0  0  0  0  0  0  0  0  0  0  0  0
    7.6191   -5.5364   22.7398 C   0  0  0  0  0  0  0  0  0  0  0  0
    9.5980   -2.7517   23.0433 C   0  0  0  0  0  0  0  0  0  0  0  0
   10.0173   -1.3117   22.7054 C   0  0  0  0  0  0  0  0  0  0  0  0
    7.4038    0.3559   17.7822 N   0  0  0  0  0  0  0  0  0  0  0  0
    8.2543   -0.4631   21.2816 N   0  0  0  0  0  0  0  0  0  0  0  0
    8.1317   -2.9109   22.9071 N   0  0  0  0  0  0  0  0  0  0  0  0
   10.3031   -1.0807   20.3171 O   0  0  0  0  0  0  0  0  0  0  0  0
    8.4383   -4.1656   20.6661 O   0  0  0  0  0  0  0  0  0  0  0  0
    6.1196   -3.7532   21.5661 O   0  0  0  0  0  0  0  0  0  0  0  0
    7.5245   -4.0395   21.7846 S   0  0  0  0  0  0  0  0  0  0  0  0
  1  2  2  0
  1  3  1  0
  2  4  1  0
  3  5  2  0
  4  9  2  0
  5  9  1  0
  6  7  2  0
  6 10  1  0
  7 17  1  0
  8 11  1  0
  8 17  2  0
  9 16  1  0
 10 11  2  0
 10 13  1  0
 11 18  1  0
 12 16  1  0
 12 18  1  0
 12 20  2  0
 14 23  1  0
 15 16  1  0
 15 19  1  0
 19 23  1  0
 21 23  2  0
 22 23  2  0
M  END
