PET-SGC-d0fd10df-1
     RDKit          3D

 26 27  0  0  0  0  0  0  0  0999 V2000
   10.2825    1.5322   24.3442 C   0  0  0  0  0  0  0  0  0  0  0  0
   10.8394    2.7932   24.1317 C   0  0  0  0  0  0  0  0  0  0  0  0
    5.3411    1.0044   18.9886 C   0  0  0  0  0  0  0  0  0  0  0  0
   12.6111    1.7915   22.8299 C   0  0  0  0  0  0  0  0  0  0  0  0
    6.2089    0.7274   17.9445 C   0  0  0  0  0  0  0  0  0  0  0  0
    7.7895   -0.1379   19.3696 C   0  0  0  0  0  0  0  0  0  0  0  0
   12.0542    0.5304   23.0425 C   0  0  0  0  0  0  0  0  0  0  0  0
   10.8899    0.4007   23.7997 C   0  0  0  0  0  0  0  0  0  0  0  0
    5.7497    0.6811   20.2777 C   0  0  0  0  0  0  0  0  0  0  0  0
    6.9959    0.0988   20.4805 C   0  0  0  0  0  0  0  0  0  0  0  0
   12.0036    2.9229   23.3746 C   0  0  0  0  0  0  0  0  0  0  0  0
   12.7090   -0.6347   22.4640 C   0  0  0  0  0  0  0  0  0  0  0  0
    8.6772   -0.8087   22.0877 C   0  0  0  0  0  0  0  0  0  0  0  0
    4.8343    0.9694   21.4220 C   0  0  0  0  0  0  0  0  0  0  0  0
   14.3488   -2.3190   22.8619 C   0  0  0  0  0  0  0  0  0  0  0  0
   10.2718   -0.9376   24.0428 C   0  0  0  0  0  0  0  0  0  0  0  0
    8.8094   -1.0392   23.5852 C   0  0  0  0  0  0  0  0  0  0  0  0
    7.4269    0.1626   18.1024 N   0  0  0  0  0  0  0  0  0  0  0  0
   13.7541    4.6212   24.4499 N   0  0  0  0  0  0  0  0  0  0  0  0
    7.4516   -0.2449   21.7584 N   0  0  0  0  0  0  0  0  0  0  0  0
   12.4618   -1.0883   21.3399 O   0  0  0  0  0  0  0  0  0  0  0  0
    9.6050   -1.0885   21.3338 O   0  0  0  0  0  0  0  0  0  0  0  0
   13.4957    4.4541   21.8905 O   0  0  0  0  0  0  0  0  0  0  0  0
   11.6508    5.5006   23.2502 O   0  0  0  0  0  0  0  0  0  0  0  0
   13.6344   -1.1658   23.3193 O   0  0  0  0  0  0  0  0  0  0  0  0
   12.7010    4.5016   23.1097 S   0  0  0  0  0  0  0  0  0  0  0  0
  1  2  2  0
  1  8  1  0
  2 11  1  0
  3  5  2  0
  3  9  1  0
  4  7  1  0
  4 11  2  0
  5 18  1  0
  6 10  1  0
  6 18  2  0
  7  8  2  0
  7 12  1  0
  8 16  1  0
  9 10  2  0
  9 14  1  0
 10 20  1  0
 11 26  1  0
 12 21  2  0
 12 25  1  0
 13 17  1  0
 13 20  1  0
 13 22  2  0
 15 25  1  0
 16 17  1  0
 19 26  1  0
 23 26  2  0
 24 26  2  0
M  END
