PET-SGC-708ec5d8-1
     RDKit          3D

 19 20  0  0  0  0  0  0  0  0999 V2000
   13.7296   -1.0181   21.1668 C   0  0  0  0  0  0  0  0  0  0  0  0
   13.1631    0.4180   23.0575 C   0  0  0  0  0  0  0  0  0  0  0  0
   12.3564    0.7542   24.1484 C   0  0  0  0  0  0  0  0  0  0  0  0
   11.7897   -1.5235   22.5661 C   0  0  0  0  0  0  0  0  0  0  0  0
    9.4244   -1.0275   25.3084 C   0  0  0  0  0  0  0  0  0  0  0  0
   12.8860   -0.7027   22.2772 C   0  0  0  0  0  0  0  0  0  0  0  0
   10.9622   -1.2046   23.6611 C   0  0  0  0  0  0  0  0  0  0  0  0
    9.7990   -1.7951   24.2298 C   0  0  0  0  0  0  0  0  0  0  0  0
   11.2640   -0.0755   24.4254 C   0  0  0  0  0  0  0  0  0  0  0  0
    7.2544   -2.0484   20.6601 C   0  0  0  0  0  0  0  0  0  0  0  0
    7.6701   -1.1369   19.5534 C   0  0  0  0  0  0  0  0  0  0  0  0
    8.8238    1.3431   26.8539 C   0  0  0  0  0  0  0  0  0  0  0  0
    9.1104   -3.0130   23.7567 C   0  0  0  0  0  0  0  0  0  0  0  0
   10.2513    1.0319   26.4384 C   0  0  0  0  0  0  0  0  0  0  0  0
    7.8075   -2.7374   22.9843 C   0  0  0  0  0  0  0  0  0  0  0  0
   14.4144   -1.2742   20.2654 N   0  0  0  0  0  0  0  0  0  0  0  0
   10.3139    0.0075   25.4182 N   0  0  0  0  0  0  0  0  0  0  0  0
    8.0347   -1.9517   21.8011 N   0  0  0  0  0  0  0  0  0  0  0  0
    6.2929   -2.7915   20.5018 O   0  0  0  0  0  0  0  0  0  0  0  0
  1  6  1  0
  1 16  3  0
  2  3  2  0
  2  6  1  0
  3  9  1  0
  4  6  2  0
  4  7  1  0
  5  8  2  0
  5 17  1  0
  7  8  1  0
  7  9  2  0
  8 13  1  0
  9 17  1  0
 10 11  1  0
 10 18  1  0
 10 19  2  0
 12 14  1  0
 13 15  1  0
 14 17  1  0
 15 18  1  0
M  END
