PET-SGC-a9e9d4f4-1
     RDKit          3D

 34 36  0  0  1  0  0  0  0  0999 V2000
   13.2415   -1.8587   22.6918 C   0  0  0  0  0  0  0  0  0  0  0  0
   13.6594   -1.0072   23.7145 C   0  0  0  0  0  0  0  0  0  0  0  0
   11.8806   -2.0818   22.4823 C   0  0  0  0  0  0  0  0  0  0  0  0
   12.7163   -0.3787   24.5277 C   0  0  0  0  0  0  0  0  0  0  0  0
   10.9376   -1.4534   23.2955 C   0  0  0  0  0  0  0  0  0  0  0  0
    5.9905   -2.6922   24.7240 C   0  0  0  0  0  0  0  0  0  0  0  0
    7.9171   -3.9938   24.1089 C   0  0  0  0  0  0  0  0  0  0  0  0
    5.4345   -3.0374   23.5028 C   0  0  0  0  0  0  0  0  0  0  0  0
    7.2748   -4.2809   22.9152 C   0  0  0  0  0  0  0  0  0  0  0  0
   11.3554   -0.6018   24.3182 C   0  0  0  0  0  0  0  0  0  0  0  0
    7.2558   -3.1836   25.0252 C   0  0  0  0  0  0  0  0  0  0  0  0
    5.6743   -6.2010   26.6482 C   0  0  0  0  0  0  0  0  0  0  0  0
    1.5271   -6.7106   23.8202 C   0  0  0  0  0  0  0  0  0  0  0  0
    1.5625   -6.9272   25.3308 C   0  0  0  0  0  0  0  0  0  0  0  0
    2.8822   -6.2657   23.2766 C   0  0  0  0  0  0  0  0  0  0  0  0
    2.6801   -7.8896   25.7352 C   0  0  0  0  0  0  0  0  0  0  0  0
    3.9966   -7.2299   23.6856 C   0  0  0  0  0  0  0  0  0  0  0  0
    4.0544   -7.4645   25.2010 C   0  0  0  0  0  0  0  0  0  0  0  0
    9.3071    4.2397   23.4485 C   0  0  0  0  0  0  0  0  0  0  0  0
    9.0096   -0.7050   25.4111 C   0  0  0  0  0  0  0  0  0  0  0  0
    9.2254   -2.0362   26.1521 C   0  0  0  0  0  0  0  0  0  0  0  0
    8.1976   -4.0953   27.2072 C   0  0  0  0  0  0  0  0  0  0  0  0
    7.0023   -4.5989   28.0169 C   0  0  0  0  0  0  0  0  0  0  0  0
   10.0550    1.5257   24.7368 C   0  0  0  0  0  0  0  0  0  0  0  0
   10.3252    0.0838   25.2059 C   0  0  0  0  0  0  0  0  0  0  0  0
    7.9144   -2.8357   26.3514 C   0  0  0  0  0  0  0  0  0  0  0  0
    6.0462   -3.8218   22.5873 N   0  0  0  0  0  0  0  0  0  0  0  0
    4.5112   -6.2525   25.8845 N   0  0  0  0  0  0  0  0  0  0  0  0
    5.8767   -4.9287   27.1877 N   0  0  0  0  0  0  0  0  0  0  0  0
    9.5060    1.5682   23.3616 N   0  0  0  0  0  0  0  0  0  0  0  0
    6.4320   -7.1535   26.8276 O   0  0  0  0  0  0  0  0  0  0  0  0
    7.2202    2.6986   23.7954 O   0  0  0  0  0  0  0  0  0  0  0  0
    8.2735    2.8345   21.5088 O   0  0  0  0  0  0  0  0  0  0  0  0
    8.3965    2.7949   22.9533 S   0  0  0  0  0  0  0  0  0  0  0  0
  1  2  2  0
  1  3  1  0
  2  4  1  0
  3  5  2  0
  4 10  2  0
  5 10  1  0
  6  8  2  0
  6 11  1  0
  7  9  1  0
  7 11  2  0
  8 27  1  0
  9 27  2  0
 10 25  1  0
 11 26  1  0
 12 28  1  0
 12 29  1  0
 12 31  2  0
 13 14  1  0
 13 15  1  0
 14 16  1  0
 15 17  1  0
 16 18  1  0
 17 18  1  0
 18 28  1  0
 19 34  1  0
 20 21  1  0
 20 25  1  0
 21 26  1  0
 22 23  1  0
 22 26  1  0
 23 29  1  0
 24 25  1  0
 24 30  1  0
 30 34  1  0
 32 34  2  0
 33 34  2  0
M  END
