PET-SGC-6e7c5dc0-1
     RDKit          3D

 17 17  0  0  0  0  0  0  0  0999 V2000
    5.5527    0.8539   18.9814 C   0  0  0  0  0  0  0  0  0  0  0  0
    6.1838    0.5513   17.7855 C   0  0  0  0  0  0  0  0  0  0  0  0
    8.1126   -0.0828   18.8605 C   0  0  0  0  0  0  0  0  0  0  0  0
    6.2670    0.6671   20.1596 C   0  0  0  0  0  0  0  0  0  0  0  0
    7.5721    0.1902   20.1067 C   0  0  0  0  0  0  0  0  0  0  0  0
   14.3145   -1.4243   23.8215 C   0  0  0  0  0  0  0  0  0  0  0  0
    9.7221    0.0774   21.4133 C   0  0  0  0  0  0  0  0  0  0  0  0
    5.6114    0.9858   21.4632 C   0  0  0  0  0  0  0  0  0  0  0  0
   13.9389   -1.0572   22.4356 C   0  0  0  0  0  0  0  0  0  0  0  0
   10.1410   -0.2237   22.8471 C   0  0  0  0  0  0  0  0  0  0  0  0
   12.4277   -1.1335   22.2086 C   0  0  0  0  0  0  0  0  0  0  0  0
   11.6495   -0.1410   23.0803 C   0  0  0  0  0  0  0  0  0  0  0  0
    7.4498    0.0862   17.6944 N   0  0  0  0  0  0  0  0  0  0  0  0
   14.4268   -0.4453   24.7075 N   0  0  0  0  0  0  0  0  0  0  0  0
    8.3398   -0.0168   21.2775 N   0  0  0  0  0  0  0  0  0  0  0  0
   14.5092   -2.7068   24.0912 N   0  0  0  0  0  0  0  0  0  0  0  0
   10.5391    0.3385   20.5366 O   0  0  0  0  0  0  0  0  0  0  0  0
  1  2  2  0
  1  4  1  0
  2 13  1  0
  3  5  1  0
  3 13  2  0
  4  5  2  0
  4  8  1  0
  5 15  1  0
  6  9  1  0
  6 14  1  0
  6 16  2  0
  7 10  1  0
  7 15  1  0
  7 17  2  0
  9 11  1  0
 10 12  1  0
 11 12  1  0
M  CHG  1  16   1
M  END
