PET-SGC-0f1d26ed-1
     RDKit          3D

 21 22  0  0  0  0  0  0  0  0999 V2000
    6.4339   -7.5615   23.3688 C   0  0  0  0  0  0  0  0  0  0  0  0
   14.1587   -1.9220   26.1216 C   0  0  0  0  0  0  0  0  0  0  0  0
   13.6771   -0.8711   25.3410 C   0  0  0  0  0  0  0  0  0  0  0  0
   13.4603   -3.1283   26.1748 C   0  0  0  0  0  0  0  0  0  0  0  0
   12.4971   -1.0264   24.6137 C   0  0  0  0  0  0  0  0  0  0  0  0
   12.2803   -3.2836   25.4474 C   0  0  0  0  0  0  0  0  0  0  0  0
    7.5655   -5.3933   23.1885 C   0  0  0  0  0  0  0  0  0  0  0  0
    5.5470   -5.7497   21.9822 C   0  0  0  0  0  0  0  0  0  0  0  0
    6.5143   -6.2366   22.8465 C   0  0  0  0  0  0  0  0  0  0  0  0
   11.7987   -2.2327   24.6669 C   0  0  0  0  0  0  0  0  0  0  0  0
    7.6166   -4.1069   22.6632 C   0  0  0  0  0  0  0  0  0  0  0  0
    6.6000   -3.7153   21.8070 C   0  0  0  0  0  0  0  0  0  0  0  0
    9.7712   -3.5201   23.8600 C   0  0  0  0  0  0  0  0  0  0  0  0
    5.9477   -0.5065   19.9621 C   0  0  0  0  0  0  0  0  0  0  0  0
    5.6469   -1.9067   20.3766 C   0  0  0  0  0  0  0  0  0  0  0  0
    6.3684   -8.6394   23.7939 N   0  0  0  0  0  0  0  0  0  0  0  0
    5.5628   -4.5063   21.4517 N   0  0  0  0  0  0  0  0  0  0  0  0
   10.6184   -2.3879   23.9391 N   0  0  0  0  0  0  0  0  0  0  0  0
    8.6862   -3.2485   23.0111 N   0  0  0  0  0  0  0  0  0  0  0  0
    6.6438   -2.4054   21.2662 N   0  0  0  0  0  0  0  0  0  0  0  0
    9.9634   -4.5788   24.4492 O   0  0  0  0  0  0  0  0  0  0  0  0
  1  9  1  0
  1 16  3  0
  2  3  2  0
  2  4  1  0
  3  5  1  0
  4  6  2  0
  5 10  2  0
  6 10  1  0
  7  9  2  0
  7 11  1  0
  8  9  1  0
  8 17  2  0
 10 18  1  0
 11 12  2  0
 11 19  1  0
 12 17  1  0
 12 20  1  0
 13 18  1  0
 13 19  1  0
 13 21  2  0
 14 15  1  0
 15 20  1  0
M  END
