PET-SGC-1fc12be1-1
     RDKit          3D

 19 20  0  0  0  0  0  0  0  0999 V2000
    6.4935    0.7098   19.7000 C   0  0  0  0  0  0  0  0  0  0  0  0
    7.5296    0.4777   20.5977 C   0  0  0  0  0  0  0  0  0  0  0  0
    6.7787    0.6326   18.3463 C   0  0  0  0  0  0  0  0  0  0  0  0
    8.9832    0.1262   18.7485 C   0  0  0  0  0  0  0  0  0  0  0  0
    8.8013    0.1798   20.1210 C   0  0  0  0  0  0  0  0  0  0  0  0
    9.8442   -0.0429   22.3985 C   0  0  0  0  0  0  0  0  0  0  0  0
   14.0695   -1.0899   22.6038 C   0  0  0  0  0  0  0  0  0  0  0  0
   13.6766    0.3307   22.9931 C   0  0  0  0  0  0  0  0  0  0  0  0
   13.0651   -2.1105   23.1269 C   0  0  0  0  0  0  0  0  0  0  0  0
   12.2599    0.6734   22.5304 C   0  0  0  0  0  0  0  0  0  0  0  0
   11.6423   -1.7928   22.6652 C   0  0  0  0  0  0  0  0  0  0  0  0
   11.2211   -0.3557   22.9849 C   0  0  0  0  0  0  0  0  0  0  0  0
    8.5636   -2.2294   26.6154 C   0  0  0  0  0  0  0  0  0  0  0  0
   10.9844   -0.2143   24.4872 C   0  0  0  0  0  0  0  0  0  0  0  0
    9.6121   -1.1737   26.3406 C   0  0  0  0  0  0  0  0  0  0  0  0
    8.0013    0.3458   17.8456 N   0  0  0  0  0  0  0  0  0  0  0  0
    9.8757   -0.0610   21.0099 N   0  0  0  0  0  0  0  0  0  0  0  0
    9.9194   -1.1546   24.8804 N   0  0  0  0  0  0  0  0  0  0  0  0
    8.8857    0.1804   23.1308 O   0  0  0  0  0  0  0  0  0  0  0  0
  1  2  2  0
  1  3  1  0
  2  5  1  0
  3 16  2  0
  4  5  2  0
  4 16  1  0
  5 17  1  0
  6 12  1  0
  6 17  1  0
  6 19  2  0
  7  8  1  0
  7  9  1  0
  8 10  1  0
  9 11  1  0
 10 12  1  0
 11 12  1  0
 12 14  1  0
 13 15  1  0
 14 18  1  0
 15 18  1  0
M  CHG  1  18   1
M  END
