PET-SGC-fc67af9f-1
     RDKit          3D

 29 32  0  0  1  0  0  0  0  0999 V2000
    4.6538    1.2886   18.6886 C   0  0  0  0  0  0  0  0  0  0  0  0
    5.2399    1.4094   19.9472 C   0  0  0  0  0  0  0  0  0  0  0  0
    9.2321   -4.7524   24.5820 C   0  0  0  0  0  0  0  0  0  0  0  0
    8.1246   -5.4333   25.0742 C   0  0  0  0  0  0  0  0  0  0  0  0
    7.3349   -3.3820   26.0755 C   0  0  0  0  0  0  0  0  0  0  0  0
    5.3824    0.6947   17.6668 C   0  0  0  0  0  0  0  0  0  0  0  0
    8.6159    0.2366   20.7004 C   0  0  0  0  0  0  0  0  0  0  0  0
    6.5455    0.9196   20.1123 C   0  0  0  0  0  0  0  0  0  0  0  0
    9.3932   -3.3773   24.8259 C   0  0  0  0  0  0  0  0  0  0  0  0
    7.4764    0.8442   21.1820 C   0  0  0  0  0  0  0  0  0  0  0  0
    8.4478   -2.6610   25.5998 C   0  0  0  0  0  0  0  0  0  0  0  0
    7.1745   -4.7472   25.8181 C   0  0  0  0  0  0  0  0  0  0  0  0
    7.1600    0.3473   19.0022 C   0  0  0  0  0  0  0  0  0  0  0  0
    6.9798    0.2229   23.5788 C   0  0  0  0  0  0  0  0  0  0  0  0
   10.6242   -2.6953   24.2797 C   0  0  0  0  0  0  0  0  0  0  0  0
   10.4273   -1.1885   24.1975 C   0  0  0  0  0  0  0  0  0  0  0  0
    9.8940   -0.6672   25.5235 C   0  0  0  0  0  0  0  0  0  0  0  0
    7.2675    1.3361   22.5897 C   0  0  0  0  0  0  0  0  0  0  0  0
    7.6987   -0.5689   26.7141 C   0  0  0  0  0  0  0  0  0  0  0  0
    6.4436   -0.1305   25.9783 C   0  0  0  0  0  0  0  0  0  0  0  0
    6.6405    0.2062   17.7681 N   0  0  0  0  0  0  0  0  0  0  0  0
    8.4130   -0.0601   19.3775 N   0  0  0  0  0  0  0  0  0  0  0  0
    8.6158   -1.2978   25.8498 N   0  0  0  0  0  0  0  0  0  0  0  0
    6.3470   -6.1162   27.9502 N   0  0  0  0  0  0  0  0  0  0  0  0
    6.7451    0.7181   24.8574 N   0  0  0  0  0  0  0  0  0  0  0  0
    6.9562   -0.9665   23.2729 O   0  0  0  0  0  0  0  0  0  0  0  0
    4.7081   -4.6193   26.6391 O   0  0  0  0  0  0  0  0  0  0  0  0
    5.5331   -6.7569   25.5914 O   0  0  0  0  0  0  0  0  0  0  0  0
    5.7724   -5.5906   26.4295 S   0  0  0  0  0  0  0  0  0  0  0  0
  1  2  2  0
  1  6  1  0
  2  8  1  0
  3  4  2  0
  3  9  1  0
  4 12  1  0
  5 11  1  0
  5 12  2  0
  6 21  2  0
  7 10  2  0
  7 22  1  0
  8 10  1  0
  8 13  2  0
  9 11  2  0
  9 15  1  0
 10 18  1  0
 11 23  1  0
 12 29  1  0
 13 21  1  0
 13 22  1  0
 14 18  1  0
 14 25  1  0
 14 26  2  0
 15 16  1  0
 16 17  1  0
 17 23  1  0
 19 20  1  0
 19 23  1  0
 20 25  1  0
 24 29  1  0
 27 29  2  0
 28 29  2  0
M  END
