PET-SGC-cb83a00c-1
     RDKit          3D

 18 19  0  0  0  0  0  0  0  0999 V2000
    6.1978   -4.7414   21.2594 C   0  0  0  0  0  0  0  0  0  0  0  0
    6.6755   -4.9400   23.6563 C   0  0  0  0  0  0  0  0  0  0  0  0
    7.5806   -5.1857   24.6828 C   0  0  0  0  0  0  0  0  0  0  0  0
    8.4347   -5.2841   22.0932 C   0  0  0  0  0  0  0  0  0  0  0  0
    7.1027   -4.9882   22.3340 C   0  0  0  0  0  0  0  0  0  0  0  0
    8.8911   -5.4730   24.3369 C   0  0  0  0  0  0  0  0  0  0  0  0
   10.8364   -3.4935   24.9594 C   0  0  0  0  0  0  0  0  0  0  0  0
   12.1422   -1.6253   23.9948 C   0  0  0  0  0  0  0  0  0  0  0  0
   13.2004   -2.9478   25.7866 C   0  0  0  0  0  0  0  0  0  0  0  0
   12.7216   -0.3777   24.6428 C   0  0  0  0  0  0  0  0  0  0  0  0
   13.7522   -1.6378   26.3388 C   0  0  0  0  0  0  0  0  0  0  0  0
    9.8956   -5.7436   25.4195 C   0  0  0  0  0  0  0  0  0  0  0  0
    5.4617   -4.5406   20.3850 N   0  0  0  0  0  0  0  0  0  0  0  0
    9.3432   -5.5286   23.0640 N   0  0  0  0  0  0  0  0  0  0  0  0
   12.0010   -2.7073   24.9718 N   0  0  0  0  0  0  0  0  0  0  0  0
   10.9971   -4.8079   25.3817 N   0  0  0  0  0  0  0  0  0  0  0  0
    9.7395   -3.0581   24.5939 O   0  0  0  0  0  0  0  0  0  0  0  0
   13.9566   -0.6917   25.2889 O   0  0  0  0  0  0  0  0  0  0  0  0
  1  5  1  0
  1 13  3  0
  2  3  2  0
  2  5  1  0
  3  6  1  0
  4  5  2  0
  4 14  1  0
  6 12  1  0
  6 14  2  0
  7 15  1  0
  7 16  1  0
  7 17  2  0
  8 10  1  0
  8 15  1  0
  9 11  1  0
  9 15  1  0
 10 18  1  0
 11 18  1  0
 12 16  1  0
M  END
