PET-SGC-c429dc17-1
     RDKit          3D

 22 23  0  0  0  0  0  0  0  0999 V2000
    4.9007    0.3321   18.6544 C   0  0  0  0  0  0  0  0  0  0  0  0
    5.7408    0.2485   17.5557 C   0  0  0  0  0  0  0  0  0  0  0  0
    7.5968   -0.0203   18.8827 C   0  0  0  0  0  0  0  0  0  0  0  0
    5.4707    0.2305   19.9186 C   0  0  0  0  0  0  0  0  0  0  0  0
    6.8438    0.0509   20.0436 C   0  0  0  0  0  0  0  0  0  0  0  0
    8.8232   -0.2390   21.5674 C   0  0  0  0  0  0  0  0  0  0  0  0
    5.6043    3.0008   22.2360 C   0  0  0  0  0  0  0  0  0  0  0  0
   10.1573    5.4676   23.3994 C   0  0  0  0  0  0  0  0  0  0  0  0
    9.6269    4.1217   23.8853 C   0  0  0  0  0  0  0  0  0  0  0  0
    9.0448    6.5071   23.2956 C   0  0  0  0  0  0  0  0  0  0  0  0
    8.4731    3.6237   23.0165 C   0  0  0  0  0  0  0  0  0  0  0  0
    7.8908    6.0120   22.4255 C   0  0  0  0  0  0  0  0  0  0  0  0
    7.3533    4.6661   22.9242 C   0  0  0  0  0  0  0  0  0  0  0  0
    9.0873   -0.3064   23.0507 C   0  0  0  0  0  0  0  0  0  0  0  0
    4.5794    0.3186   21.1330 C   0  0  0  0  0  0  0  0  0  0  0  0
    3.7991    1.6289   21.2052 C   0  0  0  0  0  0  0  0  0  0  0  0
    7.0789    0.0743   17.6375 N   0  0  0  0  0  0  0  0  0  0  0  0
    7.4616   -0.0569   21.2893 N   0  0  0  0  0  0  0  0  0  0  0  0
    6.3023    4.1880   22.0280 N   0  0  0  0  0  0  0  0  0  0  0  0
    4.6615    2.7866   21.2337 N   0  0  0  0  0  0  0  0  0  0  0  0
    9.7424   -0.3363   20.7608 O   0  0  0  0  0  0  0  0  0  0  0  0
    5.7946    2.2388   23.1830 O   0  0  0  0  0  0  0  0  0  0  0  0
  1  2  2  0
  1  4  1  0
  2 17  1  0
  3  5  1  0
  3 17  2  0
  4  5  2  0
  4 15  1  0
  5 18  1  0
  6 14  1  0
  6 18  1  0
  6 21  2  0
  7 19  1  0
  7 20  1  0
  7 22  2  0
  8  9  1  0
  8 10  1  0
  9 11  1  0
 10 12  1  0
 11 13  1  0
 12 13  1  0
 13 19  1  0
 15 16  1  0
 16 20  1  0
M  END
