PET-SGC-f913cec9-2
     RDKit          3D

 34 37  0  0  1  0  0  0  0  0999 V2000
   12.4441    2.7229   22.8800 C   0  0  0  0  0  0  0  0  0  0  0  0
   11.7422    3.8901   23.1586 C   0  0  0  0  0  0  0  0  0  0  0  0
    6.1204   -3.8401   23.4525 C   0  0  0  0  0  0  0  0  0  0  0  0
    8.4463   -4.3934   23.7137 C   0  0  0  0  0  0  0  0  0  0  0  0
   10.2385    2.6253   24.5636 C   0  0  0  0  0  0  0  0  0  0  0  0
    6.0053   -4.9473   22.6274 C   0  0  0  0  0  0  0  0  0  0  0  0
    8.2270   -5.4759   22.8771 C   0  0  0  0  0  0  0  0  0  0  0  0
   12.0413    1.4957   23.4352 C   0  0  0  0  0  0  0  0  0  0  0  0
    7.3676   -3.5648   24.0020 C   0  0  0  0  0  0  0  0  0  0  0  0
   10.9304    1.4243   24.3111 C   0  0  0  0  0  0  0  0  0  0  0  0
   10.6375    3.8405   23.9977 C   0  0  0  0  0  0  0  0  0  0  0  0
    7.2730   -0.1399   21.9439 C   0  0  0  0  0  0  0  0  0  0  0  0
   12.8520    0.2647   23.1091 C   0  0  0  0  0  0  0  0  0  0  0  0
   12.0521   -1.0047   23.3651 C   0  0  0  0  0  0  0  0  0  0  0  0
    5.1213    0.9976   17.0983 C   0  0  0  0  0  0  0  0  0  0  0  0
    6.4339    0.2639   17.3586 C   0  0  0  0  0  0  0  0  0  0  0  0
    4.8293    2.0311   18.1824 C   0  0  0  0  0  0  0  0  0  0  0  0
    6.4634   -0.3613   18.7522 C   0  0  0  0  0  0  0  0  0  0  0  0
    4.8562    1.4077   19.5769 C   0  0  0  0  0  0  0  0  0  0  0  0
   11.4292   -0.9481   24.7518 C   0  0  0  0  0  0  0  0  0  0  0  0
    6.1808    0.6824   19.8385 C   0  0  0  0  0  0  0  0  0  0  0  0
    7.5501   -2.3700   24.9079 C   0  0  0  0  0  0  0  0  0  0  0  0
    8.0962    0.0856   25.1321 C   0  0  0  0  0  0  0  0  0  0  0  0
    9.4532    0.1321   25.8368 C   0  0  0  0  0  0  0  0  0  0  0  0
    7.9397   -1.0892   24.1480 C   0  0  0  0  0  0  0  0  0  0  0  0
    7.0301   -5.7752   22.3245 N   0  0  0  0  0  0  0  0  0  0  0  0
   10.5398    0.2064   24.8707 N   0  0  0  0  0  0  0  0  0  0  0  0
    8.5895    5.2881   23.0950 N   0  0  0  0  0  0  0  0  0  0  0  0
    6.1434    0.0372   21.1495 N   0  0  0  0  0  0  0  0  0  0  0  0
    6.9525   -0.7801   23.1366 N   0  0  0  0  0  0  0  0  0  0  0  0
    8.4067    0.2229   21.6328 O   0  0  0  0  0  0  0  0  0  0  0  0
    9.0616    5.1231   25.6240 O   0  0  0  0  0  0  0  0  0  0  0  0
   10.6330    6.4401   24.1598 O   0  0  0  0  0  0  0  0  0  0  0  0
    9.7469    5.3008   24.3517 S   0  0  0  0  0  0  0  0  0  0  0  0
  1  2  2  0
  1  8  1  0
  2 11  1  0
  3  6  2  0
  3  9  1  0
  4  7  1  0
  4  9  2  0
  5 10  1  0
  5 11  2  0
  6 26  1  0
  7 26  2  0
  8 10  2  0
  8 13  1  0
  9 22  1  0
 10 27  1  0
 11 34  1  0
 12 29  1  0
 12 30  1  0
 12 31  2  0
 13 14  1  0
 14 20  1  0
 15 16  1  0
 15 17  1  0
 16 18  1  0
 17 19  1  0
 18 21  1  0
 19 21  1  0
 20 27  1  0
 21 29  1  0
 22 25  1  0
 23 24  1  0
 23 25  1  0
 24 27  1  0
 25 30  1  0
 28 34  1  0
 32 34  2  0
 33 34  2  0
M  END
