PET-SGC-1c3a473d-1
     RDKit          3D

 27 29  0  0  0  0  0  0  0  0999 V2000
    4.8398    0.7436   19.5564 C   0  0  0  0  0  0  0  0  0  0  0  0
    8.1604   -1.7799   26.2180 C   0  0  0  0  0  0  0  0  0  0  0  0
    8.4812    0.4689   25.3593 C   0  0  0  0  0  0  0  0  0  0  0  0
    5.4799    0.3934   18.3785 C   0  0  0  0  0  0  0  0  0  0  0  0
    7.5363    0.3562   19.4022 C   0  0  0  0  0  0  0  0  0  0  0  0
    9.9435   -3.4820   23.5191 C   0  0  0  0  0  0  0  0  0  0  0  0
    8.8727   -2.2932   25.1159 C   0  0  0  0  0  0  0  0  0  0  0  0
    5.6177    0.9004   20.6981 C   0  0  0  0  0  0  0  0  0  0  0  0
    9.1910   -0.0172   24.2576 C   0  0  0  0  0  0  0  0  0  0  0  0
    9.2420   -3.6019   24.6966 C   0  0  0  0  0  0  0  0  0  0  0  0
    9.3705   -1.4018   24.1630 C   0  0  0  0  0  0  0  0  0  0  0  0
    6.9926    0.7049   20.6280 C   0  0  0  0  0  0  0  0  0  0  0  0
    7.9730   -0.3970   26.3256 C   0  0  0  0  0  0  0  0  0  0  0  0
    5.6961   -5.4514   24.8580 C   0  0  0  0  0  0  0  0  0  0  0  0
    9.2078    0.6858   21.8268 C   0  0  0  0  0  0  0  0  0  0  0  0
    4.9538    1.2782   21.9815 C   0  0  0  0  0  0  0  0  0  0  0  0
    4.5037   -4.8105   24.2291 C   0  0  0  0  0  0  0  0  0  0  0  0
    9.7211    0.9387   23.2418 C   0  0  0  0  0  0  0  0  0  0  0  0
    8.9335   -4.8676   25.3924 C   0  0  0  0  0  0  0  0  0  0  0  0
    8.1272   -5.8690   24.5455 C   0  0  0  0  0  0  0  0  0  0  0  0
    6.8128    0.1950   18.2716 N   0  0  0  0  0  0  0  0  0  0  0  0
   10.0161   -2.1513   23.2055 N   0  0  0  0  0  0  0  0  0  0  0  0
    7.8267    0.8521   21.7617 N   0  0  0  0  0  0  0  0  0  0  0  0
    6.8637   -5.3274   24.1223 N   0  0  0  0  0  0  0  0  0  0  0  0
    5.5776   -6.0205   25.9368 O   0  0  0  0  0  0  0  0  0  0  0  0
    9.9630    0.3778   20.9103 O   0  0  0  0  0  0  0  0  0  0  0  0
    7.2969    0.0989   27.3710 F   0  0  0  0  0  0  0  0  0  0  0  0
  1  4  2  0
  1  8  1  0
  2  7  2  0
  2 13  1  0
  3  9  1  0
  3 13  2  0
  4 21  1  0
  5 12  1  0
  5 21  2  0
  6 10  2  0
  6 22  1  0
  7 10  1  0
  7 11  1  0
  8 12  2  0
  8 16  1  0
  9 11  2  0
  9 18  1  0
 10 19  1  0
 11 22  1  0
 12 23  1  0
 13 27  1  0
 14 17  1  0
 14 24  1  0
 14 25  2  0
 15 18  1  0
 15 23  1  0
 15 26  2  0
 19 20  1  0
 20 24  1  0
M  END
