PET-SGC-85e821e4-2
     RDKit          3D

 21 22  0  0  0  0  0  0  0  0999 V2000
   13.6337   -2.0117   22.5499 C   0  0  0  0  0  0  0  0  0  0  0  0
   14.1184   -0.7445   22.2246 C   0  0  0  0  0  0  0  0  0  0  0  0
   11.6066    1.4367   23.8717 C   0  0  0  0  0  0  0  0  0  0  0  0
   12.4772   -2.1406   23.3133 C   0  0  0  0  0  0  0  0  0  0  0  0
   12.0913    2.7039   23.5464 C   0  0  0  0  0  0  0  0  0  0  0  0
   13.9241    1.6950   22.3420 C   0  0  0  0  0  0  0  0  0  0  0  0
   13.4505    0.4116   22.6600 C   0  0  0  0  0  0  0  0  0  0  0  0
   12.2744    0.2806   23.4363 C   0  0  0  0  0  0  0  0  0  0  0  0
   11.8009   -1.0028   23.7543 C   0  0  0  0  0  0  0  0  0  0  0  0
   13.2478    2.8328   22.7830 C   0  0  0  0  0  0  0  0  0  0  0  0
    6.6395   -2.8535   22.6019 C   0  0  0  0  0  0  0  0  0  0  0  0
   10.5629   -1.2129   24.5700 C   0  0  0  0  0  0  0  0  0  0  0  0
    9.2705   -0.9732   23.7845 C   0  0  0  0  0  0  0  0  0  0  0  0
   12.6907    5.4152   23.1371 N   0  0  0  0  0  0  0  0  0  0  0  0
    9.1367   -1.8645   22.6635 N   0  0  0  0  0  0  0  0  0  0  0  0
   15.1361    4.6055   23.0376 O   0  0  0  0  0  0  0  0  0  0  0  0
   13.7486    4.5983   20.9347 O   0  0  0  0  0  0  0  0  0  0  0  0
    8.4556   -3.8220   24.2188 O   0  0  0  0  0  0  0  0  0  0  0  0
    8.6694   -4.2489   21.7432 O   0  0  0  0  0  0  0  0  0  0  0  0
   13.8522    4.4196   22.3762 S   0  0  0  0  0  0  0  0  0  0  0  0
    8.3222   -3.3739   22.8464 S   0  0  0  0  0  0  0  0  0  0  0  0
  1  2  2  0
  1  4  1  0
  2  7  1  0
  3  5  1  0
  3  8  2  0
  4  9  2  0
  5 10  2  0
  6  7  2  0
  6 10  1  0
  7  8  1  0
  8  9  1  0
  9 12  1  0
 10 20  1  0
 11 21  1  0
 12 13  1  0
 13 15  1  0
 14 20  1  0
 15 21  1  0
 16 20  2  0
 17 20  2  0
 18 21  2  0
 19 21  2  0
M  END
