PET-SGC-f913cec9-1
     RDKit          3D

 34 37  0  0  1  0  0  0  0  0999 V2000
    6.2697    0.9877   22.9116 C   0  0  0  0  0  0  0  0  0  0  0  0
    6.0312    1.1175   21.5481 C   0  0  0  0  0  0  0  0  0  0  0  0
   13.4992   -1.1597   24.1778 C   0  0  0  0  0  0  0  0  0  0  0  0
   14.2811   -1.3787   21.9139 C   0  0  0  0  0  0  0  0  0  0  0  0
    8.0265   -0.1675   21.0983 C   0  0  0  0  0  0  0  0  0  0  0  0
   14.5703   -1.9478   24.5669 C   0  0  0  0  0  0  0  0  0  0  0  0
   15.3173   -2.1568   22.4044 C   0  0  0  0  0  0  0  0  0  0  0  0
    7.3953    0.2859   23.3776 C   0  0  0  0  0  0  0  0  0  0  0  0
   13.3590   -0.8743   22.8242 C   0  0  0  0  0  0  0  0  0  0  0  0
    8.2954   -0.3272   22.4720 C   0  0  0  0  0  0  0  0  0  0  0  0
    6.9116    0.5427   20.6417 C   0  0  0  0  0  0  0  0  0  0  0  0
   11.4594    3.2326   22.6275 C   0  0  0  0  0  0  0  0  0  0  0  0
    7.5932    0.1647   24.8692 C   0  0  0  0  0  0  0  0  0  0  0  0
    9.0379   -0.1756   25.2067 C   0  0  0  0  0  0  0  0  0  0  0  0
    7.0573    5.5092   22.6504 C   0  0  0  0  0  0  0  0  0  0  0  0
    8.1038    6.0195   21.6633 C   0  0  0  0  0  0  0  0  0  0  0  0
    7.5732    4.3276   23.4674 C   0  0  0  0  0  0  0  0  0  0  0  0
    9.4244    6.3459   22.3619 C   0  0  0  0  0  0  0  0  0  0  0  0
    8.8950    4.6582   24.1620 C   0  0  0  0  0  0  0  0  0  0  0  0
    9.4988   -1.3534   24.3614 C   0  0  0  0  0  0  0  0  0  0  0  0
    9.9654    5.1732   23.1907 C   0  0  0  0  0  0  0  0  0  0  0  0
   11.2719   -0.7689   21.3588 C   0  0  0  0  0  0  0  0  0  0  0  0
   10.2916   -1.7388   22.0224 C   0  0  0  0  0  0  0  0  0  0  0  0
   12.7007    1.2887   21.6872 C   0  0  0  0  0  0  0  0  0  0  0  0
   12.2005   -0.0141   22.3408 C   0  0  0  0  0  0  0  0  0  0  0  0
   15.4862   -2.4556   23.7120 N   0  0  0  0  0  0  0  0  0  0  0  0
    9.4058   -1.0339   22.9377 N   0  0  0  0  0  0  0  0  0  0  0  0
    5.6665   -0.6814   18.6277 N   0  0  0  0  0  0  0  0  0  0  0  0
   10.4118    4.0925   22.3088 N   0  0  0  0  0  0  0  0  0  0  0  0
   11.6763    2.2979   21.6152 N   0  0  0  0  0  0  0  0  0  0  0  0
   12.1124    3.2869   23.6688 O   0  0  0  0  0  0  0  0  0  0  0  0
    5.8109    1.8913   18.7069 O   0  0  0  0  0  0  0  0  0  0  0  0
    7.8918    0.5539   18.2285 O   0  0  0  0  0  0  0  0  0  0  0  0
    6.6226    0.7027   18.9265 S   0  0  0  0  0  0  0  0  0  0  0  0
  1  2  2  0
  1  8  1  0
  2 11  1  0
  3  6  2  0
  3  9  1  0
  4  7  1  0
  4  9  2  0
  5 10  1  0
  5 11  2  0
  6 26  1  0
  7 26  2  0
  8 10  2  0
  8 13  1  0
  9 25  1  0
 10 27  1  0
 11 34  1  0
 12 29  1  0
 12 30  1  0
 12 31  2  0
 13 14  1  0
 14 20  1  0
 15 16  1  0
 15 17  1  0
 16 18  1  0
 17 19  1  0
 18 21  1  0
 19 21  1  0
 20 27  1  0
 21 29  1  0
 22 23  1  0
 22 25  1  0
 23 27  1  0
 24 25  1  0
 24 30  1  0
 28 34  1  0
 32 34  2  0
 33 34  2  0
M  END
