PET-SGC-a3e47117-1
     RDKit          3D

 24 26  0  0  1  0  0  0  0  0999 V2000
    5.0873    1.3055   19.3893 C   0  0  0  0  0  0  0  0  0  0  0  0
    8.3441   -4.3928   23.7177 C   0  0  0  0  0  0  0  0  0  0  0  0
    5.5015    0.8734   18.1397 C   0  0  0  0  0  0  0  0  0  0  0  0
    7.3808   -0.1226   19.0083 C   0  0  0  0  0  0  0  0  0  0  0  0
    8.3329   -5.5152   22.9192 C   0  0  0  0  0  0  0  0  0  0  0  0
    6.7886   -3.7843   22.1014 C   0  0  0  0  0  0  0  0  0  0  0  0
    7.4494   -3.3901   23.2442 C   0  0  0  0  0  0  0  0  0  0  0  0
    5.8843    0.9904   20.4841 C   0  0  0  0  0  0  0  0  0  0  0  0
    7.0548    0.2631   20.2986 C   0  0  0  0  0  0  0  0  0  0  0  0
    5.8631   -3.1851   25.7498 C   0  0  0  0  0  0  0  0  0  0  0  0
    8.7168   -1.2031   21.4944 C   0  0  0  0  0  0  0  0  0  0  0  0
    8.0385   -1.9865   26.2565 C   0  0  0  0  0  0  0  0  0  0  0  0
    9.1834   -1.5835   25.3248 C   0  0  0  0  0  0  0  0  0  0  0  0
    7.2497   -2.0431   23.9216 C   0  0  0  0  0  0  0  0  0  0  0  0
    6.7751   -2.0528   25.3912 C   0  0  0  0  0  0  0  0  0  0  0  0
    8.5141   -1.1591   24.0164 C   0  0  0  0  0  0  0  0  0  0  0  0
    5.4620    1.4442   21.8429 C   0  0  0  0  0  0  0  0  0  0  0  0
    9.4565   -1.1866   22.8221 C   0  0  0  0  0  0  0  0  0  0  0  0
    6.6318    0.1649   17.9202 N   0  0  0  0  0  0  0  0  0  0  0  0
    4.7180   -3.2366   24.9906 N   0  0  0  0  0  0  0  0  0  0  0  0
    7.8989   -0.0825   21.3806 N   0  0  0  0  0  0  0  0  0  0  0  0
    6.1408   -3.9922   26.6335 O   0  0  0  0  0  0  0  0  0  0  0  0
    8.8624   -2.1060   20.6770 O   0  0  0  0  0  0  0  0  0  0  0  0
    7.2471   -5.3575   21.6045 S   0  0  0  0  0  0  0  0  0  0  0  0
  1  3  2  0
  1  8  1  0
  2  5  2  0
  2  7  1  0
  3 19  1  0
  4  9  1  0
  4 19  2  0
  5 24  1  0
  6  7  2  0
  6 24  1  0
  7 14  1  0
  8  9  2  0
  8 17  1  0
  9 21  1  0
 10 15  1  0
 10 20  1  0
 10 22  2  0
 11 18  1  0
 11 21  1  0
 11 23  2  0
 12 13  1  0
 12 15  1  0
 13 16  1  0
 14 15  1  0
 14 16  1  0
 16 18  1  0
M  END
