PET-SGC-9a4d8c0f-1
     RDKit          3D

 16 16  0  0  0  0  0  0  0  0999 V2000
    6.5697   -3.4862   21.4461 C   0  0  0  0  0  0  0  0  0  0  0  0
    8.1764   -3.7095   23.2860 C   0  0  0  0  0  0  0  0  0  0  0  0
    8.1358   -1.6957   22.0213 C   0  0  0  0  0  0  0  0  0  0  0  0
    7.6263   -2.9639   22.2494 C   0  0  0  0  0  0  0  0  0  0  0  0
    9.2046   -3.1718   24.0522 C   0  0  0  0  0  0  0  0  0  0  0  0
    9.6436   -1.8944   23.7433 C   0  0  0  0  0  0  0  0  0  0  0  0
    7.6143   -4.6322   26.2042 C   0  0  0  0  0  0  0  0  0  0  0  0
   12.2120   -0.6048   22.8085 C   0  0  0  0  0  0  0  0  0  0  0  0
    9.7985   -3.9830   25.1768 C   0  0  0  0  0  0  0  0  0  0  0  0
    8.9303   -3.9887   26.4379 C   0  0  0  0  0  0  0  0  0  0  0  0
   11.4962   -0.2551   24.0687 C   0  0  0  0  0  0  0  0  0  0  0  0
    5.7099   -3.9112   20.7927 N   0  0  0  0  0  0  0  0  0  0  0  0
    9.1338   -1.1398   22.7441 N   0  0  0  0  0  0  0  0  0  0  0  0
    6.5952   -3.8535   25.8709 N   0  0  0  0  0  0  0  0  0  0  0  0
   10.6912   -1.3419   24.5219 N   0  0  0  0  0  0  0  0  0  0  0  0
    7.5398   -5.9475   26.3463 N   0  0  0  0  0  0  0  0  0  0  0  0
  1  4  1  0
  1 12  3  0
  2  4  2  0
  2  5  1  0
  3  4  1  0
  3 13  2  0
  5  6  2  0
  5  9  1  0
  6 13  1  0
  6 15  1  0
  7 10  1  0
  7 14  1  0
  7 16  2  0
  8 11  1  0
  9 10  1  0
 11 15  1  0
M  CHG  1  16   1
M  END
