PET-SGC-f147f0b6-1
     RDKit          3D

 18 19  0  0  0  0  0  0  0  0999 V2000
    7.9891   -4.9230   25.2268 C   0  0  0  0  0  0  0  0  0  0  0  0
    9.4940   -3.3144   24.1477 C   0  0  0  0  0  0  0  0  0  0  0  0
    7.2664   -3.5361   23.3442 C   0  0  0  0  0  0  0  0  0  0  0  0
    8.2488   -3.9262   24.2401 C   0  0  0  0  0  0  0  0  0  0  0  0
    9.7156   -2.3450   23.1758 C   0  0  0  0  0  0  0  0  0  0  0  0
    8.6677   -2.0259   22.3274 C   0  0  0  0  0  0  0  0  0  0  0  0
   11.5110    2.0954   23.6061 C   0  0  0  0  0  0  0  0  0  0  0  0
   11.0157   -0.1875   23.2745 C   0  0  0  0  0  0  0  0  0  0  0  0
   12.1494    3.4101   23.8196 C   0  0  0  0  0  0  0  0  0  0  0  0
    7.3638   -1.0526   19.4737 C   0  0  0  0  0  0  0  0  0  0  0  0
   11.0517   -1.6902   23.0801 C   0  0  0  0  0  0  0  0  0  0  0  0
    7.8235   -0.3358   20.6975 C   0  0  0  0  0  0  0  0  0  0  0  0
    7.7777   -5.7339   26.0296 N   0  0  0  0  0  0  0  0  0  0  0  0
    7.4444   -2.5984   22.3868 N   0  0  0  0  0  0  0  0  0  0  0  0
   10.2161    1.8885   23.4948 N   0  0  0  0  0  0  0  0  0  0  0  0
    9.9256    0.5493   23.3014 N   0  0  0  0  0  0  0  0  0  0  0  0
    8.8888   -1.0378   21.3355 N   0  0  0  0  0  0  0  0  0  0  0  0
   12.4780    0.6842   23.4824 S   0  0  0  0  0  0  0  0  0  0  0  0
  1  4  1  0
  1 13  3  0
  2  4  2  0
  2  5  1  0
  3  4  1  0
  3 14  2  0
  5  6  2  0
  5 11  1  0
  6 14  1  0
  6 17  1  0
  7  9  1  0
  7 15  2  0
  7 18  1  0
  8 11  1  0
  8 16  2  0
  8 18  1  0
 10 12  1  0
 12 17  1  0
 15 16  1  0
M  END
