PET-SGC-0f1d26ed-2
     RDKit          3D

 21 22  0  0  0  0  0  0  0  0999 V2000
    6.6056   -6.5701   22.5784 C   0  0  0  0  0  0  0  0  0  0  0  0
   14.3172   -1.6156   26.3113 C   0  0  0  0  0  0  0  0  0  0  0  0
   14.0517   -0.5374   25.4672 C   0  0  0  0  0  0  0  0  0  0  0  0
   13.5066   -2.7500   26.2698 C   0  0  0  0  0  0  0  0  0  0  0  0
    6.0114   -4.7681   21.0355 C   0  0  0  0  0  0  0  0  0  0  0  0
   12.9754   -0.5934   24.5817 C   0  0  0  0  0  0  0  0  0  0  0  0
   12.4303   -2.8061   25.3842 C   0  0  0  0  0  0  0  0  0  0  0  0
    6.2443   -3.4990   20.5057 C   0  0  0  0  0  0  0  0  0  0  0  0
    7.9112   -4.5036   22.5045 C   0  0  0  0  0  0  0  0  0  0  0  0
    6.8448   -5.2704   22.0349 C   0  0  0  0  0  0  0  0  0  0  0  0
   12.1647   -1.7278   24.5402 C   0  0  0  0  0  0  0  0  0  0  0  0
    7.3107   -2.7322   20.9753 C   0  0  0  0  0  0  0  0  0  0  0  0
    8.1441   -3.2345   21.9747 C   0  0  0  0  0  0  0  0  0  0  0  0
   10.1565   -2.8325   23.4605 C   0  0  0  0  0  0  0  0  0  0  0  0
    7.1680    0.4640   19.0065 C   0  0  0  0  0  0  0  0  0  0  0  0
    6.7013   -0.8964   19.3992 C   0  0  0  0  0  0  0  0  0  0  0  0
    6.4113   -7.6257   23.0197 N   0  0  0  0  0  0  0  0  0  0  0  0
   11.0731   -1.7845   23.6418 N   0  0  0  0  0  0  0  0  0  0  0  0
    9.2185   -2.4837   22.4608 N   0  0  0  0  0  0  0  0  0  0  0  0
    7.5289   -1.4495   20.4240 N   0  0  0  0  0  0  0  0  0  0  0  0
   10.1628   -3.8947   24.0745 O   0  0  0  0  0  0  0  0  0  0  0  0
  1 10  1  0
  1 17  3  0
  2  3  2  0
  2  4  1  0
  3  6  1  0
  4  7  2  0
  5  8  2  0
  5 10  1  0
  6 11  2  0
  7 11  1  0
  8 12  1  0
  9 10  2  0
  9 13  1  0
 11 18  1  0
 12 13  2  0
 12 20  1  0
 13 19  1  0
 14 18  1  0
 14 19  1  0
 14 21  2  0
 15 16  1  0
 16 20  1  0
M  END
