RAF-POL-950dada1-2
     RDKit          3D

 17 18  0  0  1  0  0  0  0  0999 V2000
    9.8028   -0.5532   25.1327 C   0  0  0  0  0  0  0  0  0  0  0  0
   11.8952    0.3809   24.4774 C   0  0  0  0  0  0  0  0  0  0  0  0
    9.8219   -1.4866   24.1704 C   0  0  0  0  0  0  0  0  0  0  0  0
   12.0772   -0.4804   23.4635 C   0  0  0  0  0  0  0  0  0  0  0  0
   11.0004   -1.5094   23.2435 C   0  0  0  0  0  0  0  0  0  0  0  0
    8.6904   -2.4307   24.0793 C   0  0  0  0  0  0  0  0  0  0  0  0
    7.6383   -0.7925   22.5702 C   0  0  0  0  0  0  0  0  0  0  0  0
    6.3787   -2.8566   23.0780 C   0  0  0  0  0  0  0  0  0  0  0  0
    7.3856   -0.9666   21.0834 C   0  0  0  0  0  0  0  0  0  0  0  0
    6.0664   -3.0681   21.5944 C   0  0  0  0  0  0  0  0  0  0  0  0
   13.2622   -0.4808   22.5570 C   0  0  0  0  0  0  0  0  0  0  0  0
    6.9989   -4.0673   20.9182 C   0  0  0  0  0  0  0  0  0  0  0  0
   10.8025    0.3652   25.2989 N   0  0  0  0  0  0  0  0  0  0  0  0
    7.6078   -2.0743   23.2780 N   0  0  0  0  0  0  0  0  0  0  0  0
    6.1283   -1.7481   20.8827 N   0  0  0  0  0  0  0  0  0  0  0  0
   11.0823   -2.3365   22.3408 O   0  0  0  0  0  0  0  0  0  0  0  0
    8.7735   -3.4807   24.7190 O   0  0  0  0  0  0  0  0  0  0  0  0
  1  3  2  0
  1 13  1  0
  2  4  2  0
  2 13  1  0
  3  5  1  0
  3  6  1  0
  4  5  1  0
  4 11  1  0
  5 16  2  0
  6 14  1  0
  6 17  2  0
  7  9  1  0
  7 14  1  0
  8 10  1  0
  8 14  1  0
  9 15  1  0
 10 12  1  0
 10 15  1  0
M  CHG  1  15   1
M  END
