RAF-POL-b61b4b25-2
     RDKit          3D

 18 20  0  0  1  0  0  0  0  0999 V2000
   12.2487    0.2921   23.7880 C   0  0  0  0  0  0  0  0  0  0  0  0
   13.6591   -1.4515   22.8736 C   0  0  0  0  0  0  0  0  0  0  0  0
   12.8911    0.2361   24.9601 C   0  0  0  0  0  0  0  0  0  0  0  0
   12.6469   -0.5840   22.7036 C   0  0  0  0  0  0  0  0  0  0  0  0
   14.3784   -1.5168   24.1810 C   0  0  0  0  0  0  0  0  0  0  0  0
    9.4490   -0.0203   21.1582 C   0  0  0  0  0  0  0  0  0  0  0  0
    5.8060    0.0816   18.7925 C   0  0  0  0  0  0  0  0  0  0  0  0
    7.3182    0.1429   18.5524 C   0  0  0  0  0  0  0  0  0  0  0  0
    6.8348    1.5924   20.7892 C   0  0  0  0  0  0  0  0  0  0  0  0
    6.9596    0.1288   21.2439 C   0  0  0  0  0  0  0  0  0  0  0  0
    6.7335    0.4848   19.8454 C   0  0  0  0  0  0  0  0  0  0  0  0
   12.3603   -1.4915   20.4094 C   0  0  0  0  0  0  0  0  0  0  0  0
   11.8852   -0.4681   21.4196 C   0  0  0  0  0  0  0  0  0  0  0  0
   13.9268   -0.6417   25.1549 N   0  0  0  0  0  0  0  0  0  0  0  0
    8.2249   -0.3910   21.7084 N   0  0  0  0  0  0  0  0  0  0  0  0
   10.5139   -0.6685   21.7902 N   0  0  0  0  0  0  0  0  0  0  0  0
   15.3041   -2.3083   24.3407 O   0  0  0  0  0  0  0  0  0  0  0  0
    9.5826    0.7782   20.2319 O   0  0  0  0  0  0  0  0  0  0  0  0
  1  3  2  0
  1  4  1  0
  2  4  2  0
  2  5  1  0
  3 14  1  0
  4 13  1  0
  5 14  1  0
  5 17  2  0
  6 15  1  0
  6 16  1  0
  6 18  2  0
  7  8  1  0
  7 11  1  0
  8 11  1  0
  9 10  1  0
  9 11  1  0
 10 11  1  0
 10 15  1  0
 12 13  1  0
 13 16  1  0
M  END
