RAF-POL-950dada1-12
     RDKit          3D

 17 18  0  0  1  0  0  0  0  0999 V2000
   12.6102    3.5414   23.0219 C   0  0  0  0  0  0  0  0  0  0  0  0
   10.0717    6.0088   23.8926 C   0  0  0  0  0  0  0  0  0  0  0  0
   10.4410   -2.2698   23.7690 C   0  0  0  0  0  0  0  0  0  0  0  0
   11.5749   -1.3298   23.3620 C   0  0  0  0  0  0  0  0  0  0  0  0
   10.8508    0.7512   24.6625 C   0  0  0  0  0  0  0  0  0  0  0  0
   11.0498    2.2456   24.4508 C   0  0  0  0  0  0  0  0  0  0  0  0
   12.2462    1.0410   22.7456 C   0  0  0  0  0  0  0  0  0  0  0  0
    9.2421   -2.1335   22.8457 C   0  0  0  0  0  0  0  0  0  0  0  0
    9.8868    0.2378   22.3437 C   0  0  0  0  0  0  0  0  0  0  0  0
   11.1155    0.1359   23.2690 C   0  0  0  0  0  0  0  0  0  0  0  0
    8.9841    6.5456   23.0225 C   0  0  0  0  0  0  0  0  0  0  0  0
   12.2058    4.7334   23.8516 C   0  0  0  0  0  0  0  0  0  0  0  0
   12.0117    2.3424   23.3656 N   0  0  0  0  0  0  0  0  0  0  0  0
   11.0711    5.3256   23.2106 N   0  0  0  0  0  0  0  0  0  0  0  0
    8.8162   -0.7048   22.7931 N   0  0  0  0  0  0  0  0  0  0  0  0
   13.4294    3.6659   22.1099 O   0  0  0  0  0  0  0  0  0  0  0  0
   10.0241    6.1941   25.1031 O   0  0  0  0  0  0  0  0  0  0  0  0
  1 12  1  0
  1 13  1  0
  1 16  2  0
  2 11  1  0
  2 14  1  0
  2 17  2  0
  3  4  1  0
  3  8  1  0
  4 10  1  0
  5  6  1  0
  5 10  1  0
  6 13  1  0
  7 10  1  0
  7 13  1  0
  8 15  1  0
  9 10  1  0
  9 15  1  0
 12 14  1  0
M  CHG  1  15   1
M  END
