RAF-POL-950dada1-14
     RDKit          3D

 17 18  0  0  1  0  0  0  0  0999 V2000
    7.3888    0.6478   20.2302 C   0  0  0  0  0  0  0  0  0  0  0  0
    8.5238   -0.0729   20.5107 C   0  0  0  0  0  0  0  0  0  0  0  0
    7.3221    0.6660   18.8241 C   0  0  0  0  0  0  0  0  0  0  0  0
    9.1166   -0.4267   21.8064 C   0  0  0  0  0  0  0  0  0  0  0  0
   12.5721   -0.7883   20.5115 C   0  0  0  0  0  0  0  0  0  0  0  0
   12.2622   -2.2508   22.5415 C   0  0  0  0  0  0  0  0  0  0  0  0
   11.4692    0.1306   21.0264 C   0  0  0  0  0  0  0  0  0  0  0  0
   13.2686   -1.5649   21.6213 C   0  0  0  0  0  0  0  0  0  0  0  0
   11.0626   -1.3954   22.9810 C   0  0  0  0  0  0  0  0  0  0  0  0
    6.4517    1.2643   21.1866 C   0  0  0  0  0  0  0  0  0  0  0  0
    6.2997    1.3037   17.9761 C   0  0  0  0  0  0  0  0  0  0  0  0
   11.3445   -0.5276   24.2101 C   0  0  0  0  0  0  0  0  0  0  0  0
    8.3342    0.0092   18.2513 N   0  0  0  0  0  0  0  0  0  0  0  0
    9.0477   -0.4285   19.3027 N   0  0  0  0  0  0  0  0  0  0  0  0
   10.5090   -0.5833   21.8826 N   0  0  0  0  0  0  0  0  0  0  0  0
   14.1435   -0.6485   22.3997 N   0  0  0  0  0  0  0  0  0  0  0  0
    8.3293   -0.5500   22.7439 O   0  0  0  0  0  0  0  0  0  0  0  0
  1  2  2  0
  1  3  1  0
  1 10  1  0
  2  4  1  0
  2 14  1  0
  3 11  1  0
  3 13  2  0
  4 15  1  0
  4 17  2  0
  5  7  1  0
  5  8  1  0
  6  8  1  0
  6  9  1  0
  7 15  1  0
  8 16  1  0
  9 12  1  0
  9 15  1  0
 13 14  1  0
M  CHG  1  16   1
M  END
