RAF-POL-b61b4b25-6
     RDKit          3D

 18 19  0  0  1  0  0  0  0  0999 V2000
   14.4519   -0.8422   23.6302 C   0  0  0  0  0  0  0  0  0  0  0  0
   13.6896   -1.9631   23.4289 C   0  0  0  0  0  0  0  0  0  0  0  0
   12.6079   -0.2210   22.5816 C   0  0  0  0  0  0  0  0  0  0  0  0
   11.5040    0.5065   21.8942 C   0  0  0  0  0  0  0  0  0  0  0  0
   10.4660   -1.6995   21.7356 C   0  0  0  0  0  0  0  0  0  0  0  0
   11.4812   -2.3263   22.3605 C   0  0  0  0  0  0  0  0  0  0  0  0
   10.4712   -0.2587   21.4951 C   0  0  0  0  0  0  0  0  0  0  0  0
    9.3538    0.3951   20.8131 C   0  0  0  0  0  0  0  0  0  0  0  0
    7.0595    0.1702   18.8772 C   0  0  0  0  0  0  0  0  0  0  0  0
   13.9582   -3.3591   23.8005 C   0  0  0  0  0  0  0  0  0  0  0  0
    6.5444    1.5620   20.8973 C   0  0  0  0  0  0  0  0  0  0  0  0
    6.9098    0.1757   20.3907 C   0  0  0  0  0  0  0  0  0  0  0  0
   12.5461   -1.5539   22.7748 N   0  0  0  0  0  0  0  0  0  0  0  0
   13.7588    0.2192   23.0965 N   0  0  0  0  0  0  0  0  0  0  0  0
    5.8819    0.4619   18.2219 N   0  0  0  0  0  0  0  0  0  0  0  0
    8.1538   -0.2783   20.9699 N   0  0  0  0  0  0  0  0  0  0  0  0
    9.5184    1.4384   20.1792 O   0  0  0  0  0  0  0  0  0  0  0  0
    8.1070   -0.1035   18.2961 O   0  0  0  0  0  0  0  0  0  0  0  0
  1  2  2  0
  1 14  1  0
  2 10  1  0
  2 13  1  0
  3  4  1  0
  3 13  1  0
  3 14  2  0
  4  7  2  0
  5  6  2  0
  5  7  1  0
  6 13  1  0
  7  8  1  0
  8 16  1  0
  8 17  2  0
  9 12  1  0
  9 15  1  0
  9 18  2  0
 11 12  1  0
 12 16  1  0
M  CHG  1  14   1
M  END
