RAF-POL-9fce0577-4
     RDKit          3D

 18 20  0  0  1  0  0  0  0  0999 V2000
    6.4749    0.7467   17.9010 C   0  0  0  0  0  0  0  0  0  0  0  0
    7.5815    0.6588   19.7655 C   0  0  0  0  0  0  0  0  0  0  0  0
   10.0886   -1.9766   22.3490 C   0  0  0  0  0  0  0  0  0  0  0  0
   14.6407   -2.0209   22.8526 C   0  0  0  0  0  0  0  0  0  0  0  0
   13.8156   -1.6272   21.6112 C   0  0  0  0  0  0  0  0  0  0  0  0
    6.9191   -0.0304   22.1062 C   0  0  0  0  0  0  0  0  0  0  0  0
    7.6071   -1.3803   22.2652 C   0  0  0  0  0  0  0  0  0  0  0  0
    9.2576    0.2798   21.7048 C   0  0  0  0  0  0  0  0  0  0  0  0
    7.8888    0.7950   21.2460 C   0  0  0  0  0  0  0  0  0  0  0  0
   13.3271   -1.9632   23.6749 C   0  0  0  0  0  0  0  0  0  0  0  0
   12.5747   -2.1977   22.3323 C   0  0  0  0  0  0  0  0  0  0  0  0
   13.1016   -0.6609   24.4319 C   0  0  0  0  0  0  0  0  0  0  0  0
    7.6694    0.2720   17.6289 N   0  0  0  0  0  0  0  0  0  0  0  0
    8.3735    0.2161   18.8152 N   0  0  0  0  0  0  0  0  0  0  0  0
    6.3758    1.0041   19.2346 N   0  0  0  0  0  0  0  0  0  0  0  0
    9.0321   -1.0963   22.1288 N   0  0  0  0  0  0  0  0  0  0  0  0
   11.3529   -1.4304   22.1461 N   0  0  0  0  0  0  0  0  0  0  0  0
    9.9216   -3.1478   22.7002 O   0  0  0  0  0  0  0  0  0  0  0  0
  1 13  2  0
  1 15  1  0
  2  9  1  0
  2 14  2  0
  2 15  1  0
  3 16  1  0
  3 17  1  0
  3 18  2  0
  4  5  1  0
  4 10  1  0
  5 11  1  0
  6  7  1  0
  6  9  1  0
  7 16  1  0
  8  9  1  0
  8 16  1  0
 10 11  1  0
 10 12  1  0
 11 17  1  0
 13 14  1  0
M  END
