RAF-POL-950dada1-20
     RDKit          3D

 17 19  0  0  1  0  0  0  0  0999 V2000
    6.5953   -5.2895   21.9339 C   0  0  0  0  0  0  0  0  0  0  0  0
    9.3926   -3.0776   22.9252 C   0  0  0  0  0  0  0  0  0  0  0  0
    9.9193   -3.7231   24.1977 C   0  0  0  0  0  0  0  0  0  0  0  0
    7.9105   -3.3723   22.7392 C   0  0  0  0  0  0  0  0  0  0  0  0
    9.9018   -5.8877   25.5157 C   0  0  0  0  0  0  0  0  0  0  0  0
    7.5143   -5.4497   25.1874 C   0  0  0  0  0  0  0  0  0  0  0  0
    4.2155   -5.3414   23.8643 C   0  0  0  0  0  0  0  0  0  0  0  0
    3.9910   -7.1117   24.9408 C   0  0  0  0  0  0  0  0  0  0  0  0
    9.6785   -5.2330   24.1589 C   0  0  0  0  0  0  0  0  0  0  0  0
    8.2250   -5.6019   23.8467 C   0  0  0  0  0  0  0  0  0  0  0  0
    4.5290   -6.8076   23.5352 C   0  0  0  0  0  0  0  0  0  0  0  0
    6.3129   -6.7709   21.9905 C   0  0  0  0  0  0  0  0  0  0  0  0
    7.6031   -4.8060   22.7781 N   0  0  0  0  0  0  0  0  0  0  0  0
    8.5655   -5.8115   26.2001 N   0  0  0  0  0  0  0  0  0  0  0  0
    3.3042   -5.8118   24.9182 N   0  0  0  0  0  0  0  0  0  0  0  0
    5.9467   -4.5842   21.1562 O   0  0  0  0  0  0  0  0  0  0  0  0
    5.9106   -7.1216   23.2980 O   0  0  0  0  0  0  0  0  0  0  0  0
  1 12  1  0
  1 13  1  0
  1 16  2  0
  2  3  1  0
  2  4  1  0
  3  9  1  0
  4 13  1  0
  5  9  1  0
  5 14  1  0
  6 10  1  0
  6 14  1  0
  7 11  1  0
  7 15  1  0
  8 11  1  0
  8 15  1  0
  9 10  1  0
 10 13  1  0
 11 17  1  0
 12 17  1  0
M  CHG  2  14   1  15   1
M  END
