RAF-POL-653f0897-1
     RDKit          3D

 17 19  0  0  1  0  0  0  0  0999 V2000
   13.0871   -1.5464   24.4999 C   0  0  0  0  0  0  0  0  0  0  0  0
   12.5805   -0.6656   23.5502 C   0  0  0  0  0  0  0  0  0  0  0  0
   12.3387   -2.6570   24.8852 C   0  0  0  0  0  0  0  0  0  0  0  0
   11.3246   -0.8946   22.9882 C   0  0  0  0  0  0  0  0  0  0  0  0
   11.0690   -2.8895   24.3345 C   0  0  0  0  0  0  0  0  0  0  0  0
   10.5513   -2.0039   23.3739 C   0  0  0  0  0  0  0  0  0  0  0  0
    7.5416   -4.0358   22.3331 C   0  0  0  0  0  0  0  0  0  0  0  0
   10.3153   -4.1304   24.7229 C   0  0  0  0  0  0  0  0  0  0  0  0
    8.8176   -4.0161   24.4587 C   0  0  0  0  0  0  0  0  0  0  0  0
    9.1821   -2.2185   22.7414 C   0  0  0  0  0  0  0  0  0  0  0  0
    8.2146   -1.0994   23.1591 C   0  0  0  0  0  0  0  0  0  0  0  0
    8.3461   -6.4359   22.4052 C   0  0  0  0  0  0  0  0  0  0  0  0
    6.5134   -3.4249   21.7908 N   0  0  0  0  0  0  0  0  0  0  0  0
    5.7917   -4.4080   21.1525 N   0  0  0  0  0  0  0  0  0  0  0  0
    6.3674   -5.5949   21.3008 N   0  0  0  0  0  0  0  0  0  0  0  0
    7.4609   -5.3596   22.0393 N   0  0  0  0  0  0  0  0  0  0  0  0
    8.6006   -3.5327   23.0947 N   0  0  0  0  0  0  0  0  0  0  0  0
  1  2  2  0
  1  3  1  0
  2  4  1  0
  3  5  2  0
  4  6  2  0
  5  6  1  0
  5  8  1  0
  6 10  1  0
  7 13  2  0
  7 16  1  0
  7 17  1  0
  8  9  1  0
  9 17  1  0
 10 11  1  0
 10 17  1  0
 12 16  1  0
 13 14  1  0
 14 15  2  0
 15 16  1  0
M  END
