RAF-POL-950dada1-9
     RDKit          3D

 15 16  0  0  1  0  0  0  0  0999 V2000
   12.8103   -1.8988   25.4445 C   0  0  0  0  0  0  0  0  0  0  0  0
   11.9050   -2.7431   24.8260 C   0  0  0  0  0  0  0  0  0  0  0  0
   12.3158   -0.7864   26.0951 C   0  0  0  0  0  0  0  0  0  0  0  0
   10.5651   -2.4192   24.8994 C   0  0  0  0  0  0  0  0  0  0  0  0
    8.7541   -5.5579   24.0501 C   0  0  0  0  0  0  0  0  0  0  0  0
   10.0060   -4.6965   24.1865 C   0  0  0  0  0  0  0  0  0  0  0  0
    8.7770   -2.7431   23.2169 C   0  0  0  0  0  0  0  0  0  0  0  0
    7.5100   -3.5999   23.0772 C   0  0  0  0  0  0  0  0  0  0  0  0
    7.8661   -5.0748   22.9186 C   0  0  0  0  0  0  0  0  0  0  0  0
    6.6619   -3.1112   21.9025 C   0  0  0  0  0  0  0  0  0  0  0  0
   10.9992   -0.4939   26.1510 N   0  0  0  0  0  0  0  0  0  0  0  0
   10.1094   -1.3240   25.5435 N   0  0  0  0  0  0  0  0  0  0  0  0
    9.6491   -3.2738   24.2727 N   0  0  0  0  0  0  0  0  0  0  0  0
    8.5030   -5.2751   21.7367 F   0  0  0  0  0  0  0  0  0  0  0  0
    6.7370   -5.8248   22.8856 F   0  0  0  0  0  0  0  0  0  0  0  0
  1  2  2  0
  1  3  1  0
  2  4  1  0
  3 11  2  0
  4 12  2  0
  4 13  1  0
  5  6  1  0
  5  9  1  0
  6 13  1  0
  7  8  1  0
  7 13  1  0
  8  9  1  0
  8 10  1  0
  9 14  1  0
  9 15  1  0
 11 12  1  0
M  END
