RAF-POL-950dada1-5
     RDKit          3D

 17 18  0  0  1  0  0  0  0  0999 V2000
    8.1729   -0.5381   19.1222 C   0  0  0  0  0  0  0  0  0  0  0  0
    6.7377    0.9457   18.6036 C   0  0  0  0  0  0  0  0  0  0  0  0
    7.4334   -0.3278   20.2621 C   0  0  0  0  0  0  0  0  0  0  0  0
    9.8728   -1.5868   22.0568 C   0  0  0  0  0  0  0  0  0  0  0  0
   12.4117   -0.0726   24.4806 C   0  0  0  0  0  0  0  0  0  0  0  0
   13.7082   -0.3389   23.7199 C   0  0  0  0  0  0  0  0  0  0  0  0
   11.1919   -0.0237   23.5671 C   0  0  0  0  0  0  0  0  0  0  0  0
   12.2453   -2.0642   22.5767 C   0  0  0  0  0  0  0  0  0  0  0  0
   13.5111   -1.2276   22.4965 C   0  0  0  0  0  0  0  0  0  0  0  0
    5.5002    1.1997   20.7621 C   0  0  0  0  0  0  0  0  0  0  0  0
    7.5144   -0.9394   21.6309 C   0  0  0  0  0  0  0  0  0  0  0  0
    7.7350    0.2579   18.0934 N   0  0  0  0  0  0  0  0  0  0  0  0
    6.5183    0.6256   19.9146 N   0  0  0  0  0  0  0  0  0  0  0  0
   11.0583   -1.2200   22.7216 N   0  0  0  0  0  0  0  0  0  0  0  0
    8.8025   -0.7175   22.2470 N   0  0  0  0  0  0  0  0  0  0  0  0
    9.7820   -2.5961   21.3512 O   0  0  0  0  0  0  0  0  0  0  0  0
   14.5830   -2.0587   22.3847 F   0  0  0  0  0  0  0  0  0  0  0  0
  1  3  2  0
  1 12  1  0
  2 12  2  0
  2 13  1  0
  3 11  1  0
  3 13  1  0
  4 14  1  0
  4 15  1  0
  4 16  2  0
  5  6  1  0
  5  7  1  0
  6  9  1  0
  7 14  1  0
  8  9  1  0
  8 14  1  0
  9 17  1  0
 10 13  1  0
 11 15  1  0
M  END
