RAF-POL-950dada1-1
     RDKit          3D

 16 17  0  0  1  0  0  0  0  0999 V2000
    7.5361   -0.5899   21.6730 C   0  0  0  0  0  0  0  0  0  0  0  0
    9.4032    0.8347   22.4319 C   0  0  0  0  0  0  0  0  0  0  0  0
    9.6394   -1.6803   22.3972 C   0  0  0  0  0  0  0  0  0  0  0  0
   10.9166    0.9751   22.5816 C   0  0  0  0  0  0  0  0  0  0  0  0
   11.1529   -1.5408   22.5449 C   0  0  0  0  0  0  0  0  0  0  0  0
    5.2533    0.9414   19.1779 C   0  0  0  0  0  0  0  0  0  0  0  0
    7.4953    0.1586   19.2567 C   0  0  0  0  0  0  0  0  0  0  0  0
    9.0278   -0.4595   21.7101 C   0  0  0  0  0  0  0  0  0  0  0  0
   11.5334   -0.2464   23.2761 C   0  0  0  0  0  0  0  0  0  0  0  0
    6.2978    0.2377   18.3223 C   0  0  0  0  0  0  0  0  0  0  0  0
    5.4887    0.3670   20.5791 C   0  0  0  0  0  0  0  0  0  0  0  0
   13.0517   -0.1052   23.3676 C   0  0  0  0  0  0  0  0  0  0  0  0
    5.1143    1.3825   21.6528 C   0  0  0  0  0  0  0  0  0  0  0  0
    6.9087   -0.0040   20.5837 N   0  0  0  0  0  0  0  0  0  0  0  0
    6.9488   -1.1931   22.5726 O   0  0  0  0  0  0  0  0  0  0  0  0
    6.5843    0.9896   17.1610 O   0  0  0  0  0  0  0  0  0  0  0  0
  1  8  1  0
  1 14  1  0
  1 15  2  0
  2  4  1  0
  2  8  1  0
  3  5  1  0
  3  8  1  0
  4  9  1  0
  5  9  1  0
  6 10  1  0
  6 11  1  0
  7 10  1  0
  7 14  1  0
  9 12  1  0
 10 16  1  0
 11 13  1  0
 11 14  1  0
M  END
