RAF-POL-950dada1-24
     RDKit          3D

 18 21  0  0  1  0  0  0  0  0999 V2000
    7.1534   -5.2241   22.5167 C   0  0  0  0  0  0  0  0  0  0  0  0
    8.2272   -5.3211   23.4019 C   0  0  0  0  0  0  0  0  0  0  0  0
    6.1099   -2.2367   20.9831 C   0  0  0  0  0  0  0  0  0  0  0  0
    6.8677   -3.9572   21.9921 C   0  0  0  0  0  0  0  0  0  0  0  0
    8.9491   -4.1734   23.7144 C   0  0  0  0  0  0  0  0  0  0  0  0
    7.6698   -2.8965   22.3897 C   0  0  0  0  0  0  0  0  0  0  0  0
   10.0929   -4.2731   24.6573 C   0  0  0  0  0  0  0  0  0  0  0  0
   12.2312   -0.4295   24.6214 C   0  0  0  0  0  0  0  0  0  0  0  0
   13.4286   -1.2406   24.1138 C   0  0  0  0  0  0  0  0  0  0  0  0
   12.0644   -0.8342   26.0903 C   0  0  0  0  0  0  0  0  0  0  0  0
   13.4939   -2.4576   24.9907 C   0  0  0  0  0  0  0  0  0  0  0  0
   12.6587   -2.2084   26.2013 C   0  0  0  0  0  0  0  0  0  0  0  0
   12.3111   -3.3511   25.2778 C   0  0  0  0  0  0  0  0  0  0  0  0
    5.9003   -3.5295   21.1155 N   0  0  0  0  0  0  0  0  0  0  0  0
    8.7132   -2.9279   23.2350 N   0  0  0  0  0  0  0  0  0  0  0  0
    7.1703   -1.8065   21.7347 N   0  0  0  0  0  0  0  0  0  0  0  0
   11.1429   -3.3646   24.4742 N   0  0  0  0  0  0  0  0  0  0  0  0
   10.0805   -5.1415   25.5258 O   0  0  0  0  0  0  0  0  0  0  0  0
  1  2  2  0
  1  4  1  0
  2  5  1  0
  3 14  2  0
  3 16  1  0
  4  6  2  0
  4 14  1  0
  5  7  1  0
  5 15  2  0
  6 15  1  0
  6 16  1  0
  7 17  1  0
  7 18  2  0
  8  9  1  0
  8 10  1  0
  9 11  1  0
 10 12  1  0
 11 12  1  0
 11 13  1  0
 12 13  1  0
 13 17  1  0
M  END
