RAF-POL-9fce0577-3
     RDKit          3D

 18 21  0  0  1  0  0  0  0  0999 V2000
    5.4026   -4.2471   22.3443 C   0  0  0  0  0  0  0  0  0  0  0  0
    6.1914   -5.9466   21.3187 C   0  0  0  0  0  0  0  0  0  0  0  0
    6.6000   -4.5241   22.9670 C   0  0  0  0  0  0  0  0  0  0  0  0
    9.7469   -3.4741   24.3959 C   0  0  0  0  0  0  0  0  0  0  0  0
    7.3229   -3.9065   24.1098 C   0  0  0  0  0  0  0  0  0  0  0  0
   14.4079   -1.3247   25.1230 C   0  0  0  0  0  0  0  0  0  0  0  0
   13.3843   -1.4891   26.2536 C   0  0  0  0  0  0  0  0  0  0  0  0
   13.5669   -1.0785   23.8639 C   0  0  0  0  0  0  0  0  0  0  0  0
    8.3499   -6.2555   22.5844 C   0  0  0  0  0  0  0  0  0  0  0  0
    8.8646   -5.8464   23.9622 C   0  0  0  0  0  0  0  0  0  0  0  0
   12.1502   -2.0266   25.5882 C   0  0  0  0  0  0  0  0  0  0  0  0
   12.2621   -1.7749   24.1233 C   0  0  0  0  0  0  0  0  0  0  0  0
   12.1963   -3.1953   24.6327 C   0  0  0  0  0  0  0  0  0  0  0  0
    5.1563   -5.1340   21.3223 N   0  0  0  0  0  0  0  0  0  0  0  0
    7.0823   -5.6162   22.2930 N   0  0  0  0  0  0  0  0  0  0  0  0
    8.7119   -4.3902   24.1462 N   0  0  0  0  0  0  0  0  0  0  0  0
   11.0311   -4.0063   24.4029 N   0  0  0  0  0  0  0  0  0  0  0  0
    9.5428   -2.2706   24.5881 O   0  0  0  0  0  0  0  0  0  0  0  0
  1  3  2  0
  1 14  1  0
  2 14  2  0
  2 15  1  0
  3  5  1  0
  3 15  1  0
  4 16  1  0
  4 17  1  0
  4 18  2  0
  5 16  1  0
  6  7  1  0
  6  8  1  0
  7 11  1  0
  8 12  1  0
  9 10  1  0
  9 15  1  0
 10 16  1  0
 11 12  1  0
 11 13  1  0
 12 13  1  0
 13 17  1  0
M  END
