RAF-POL-950dada1-8
     RDKit          3D

 18 20  0  0  0  0  0  0  0  0999 V2000
   10.8953   -4.2865   25.4265 C   0  0  0  0  0  0  0  0  0  0  0  0
    9.7520   -3.6457   25.8384 C   0  0  0  0  0  0  0  0  0  0  0  0
    8.9408   -4.6904   26.3514 C   0  0  0  0  0  0  0  0  0  0  0  0
   10.7675   -1.3969   24.0606 C   0  0  0  0  0  0  0  0  0  0  0  0
   10.2518   -1.7090   22.8612 C   0  0  0  0  0  0  0  0  0  0  0  0
   12.5077   -1.4704   22.6051 C   0  0  0  0  0  0  0  0  0  0  0  0
   10.0681   -1.2239   25.3485 C   0  0  0  0  0  0  0  0  0  0  0  0
    7.6099   -4.4739   26.9695 C   0  0  0  0  0  0  0  0  0  0  0  0
    7.0591   -3.1033   26.5536 C   0  0  0  0  0  0  0  0  0  0  0  0
    8.1234   -1.9969   26.6461 C   0  0  0  0  0  0  0  0  0  0  0  0
    8.8602   -1.9777   22.4280 C   0  0  0  0  0  0  0  0  0  0  0  0
    9.5073   -5.8940   26.2459 N   0  0  0  0  0  0  0  0  0  0  0  0
   10.6922   -5.6169   25.6756 N   0  0  0  0  0  0  0  0  0  0  0  0
   12.1274   -1.2434   23.9528 N   0  0  0  0  0  0  0  0  0  0  0  0
   11.2836   -1.7629   21.9479 N   0  0  0  0  0  0  0  0  0  0  0  0
    9.3502   -2.3008   25.8716 N   0  0  0  0  0  0  0  0  0  0  0  0
   13.6277   -1.4251   22.1220 O   0  0  0  0  0  0  0  0  0  0  0  0
   10.1100   -0.1063   25.8688 O   0  0  0  0  0  0  0  0  0  0  0  0
  1  2  2  0
  1 13  1  0
  2  3  1  0
  2 16  1  0
  3  8  1  0
  3 12  2  0
  4  5  2  0
  4  7  1  0
  4 14  1  0
  5 11  1  0
  5 15  1  0
  6 14  1  0
  6 15  1  0
  6 17  2  0
  7 16  1  0
  7 18  2  0
  8  9  1  0
  9 10  1  0
 10 16  1  0
 12 13  1  0
M  END
