RAI-NOV-a7d52b4a-3
     RDKit          3D

 26 28  0  0  1  0  0  0  0  0999 V2000
    8.0936   -4.1346   26.5548 C   0  0  0  0  0  0  0  0  0  0  0  0
    9.4471   -4.1292   26.2345 C   0  0  0  0  0  0  0  0  0  0  0  0
   13.0280   -1.0709   22.3847 C   0  0  0  0  0  0  0  0  0  0  0  0
    7.1707   -3.5638   25.6809 C   0  0  0  0  0  0  0  0  0  0  0  0
    9.8820   -3.5381   25.0478 C   0  0  0  0  0  0  0  0  0  0  0  0
   11.8630   -1.8291   22.2691 C   0  0  0  0  0  0  0  0  0  0  0  0
   13.0538    0.0449   23.2214 C   0  0  0  0  0  0  0  0  0  0  0  0
   10.7495   -0.3557   23.8268 C   0  0  0  0  0  0  0  0  0  0  0  0
   10.7237   -1.4715   22.9901 C   0  0  0  0  0  0  0  0  0  0  0  0
    7.5934   -2.9774   24.4779 C   0  0  0  0  0  0  0  0  0  0  0  0
    8.9699   -2.9278   24.1688 C   0  0  0  0  0  0  0  0  0  0  0  0
   11.9146    0.4025   23.9425 C   0  0  0  0  0  0  0  0  0  0  0  0
    6.5196   -1.8390   19.8441 C   0  0  0  0  0  0  0  0  0  0  0  0
    6.1771   -0.5463   19.8415 C   0  0  0  0  0  0  0  0  0  0  0  0
    6.3669   -2.6005   21.0999 C   0  0  0  0  0  0  0  0  0  0  0  0
    6.2979    0.2383   18.5780 C   0  0  0  0  0  0  0  0  0  0  0  0
    6.5545   -2.3906   23.5524 C   0  0  0  0  0  0  0  0  0  0  0  0
    8.3591   -1.4436   22.1936 C   0  0  0  0  0  0  0  0  0  0  0  0
    9.4518   -2.2990   22.8624 C   0  0  0  0  0  0  0  0  0  0  0  0
    5.3738    2.1253   17.2162 C   0  0  0  0  0  0  0  0  0  0  0  0
    4.4024    1.6276   19.4307 C   0  0  0  0  0  0  0  0  0  0  0  0
    7.0829   -2.1615   22.2089 N   0  0  0  0  0  0  0  0  0  0  0  0
    5.3919    1.2903   18.4156 N   0  0  0  0  0  0  0  0  0  0  0  0
    5.6239   -3.5831   21.0882 O   0  0  0  0  0  0  0  0  0  0  0  0
    7.1472   -0.0756   17.7426 O   0  0  0  0  0  0  0  0  0  0  0  0
   11.9467    1.7799   24.9737 Cl  0  0  0  0  0  0  0  0  0  0  0  0
  1  2  2  0
  1  4  1  0
  2  5  1  0
  3  6  2  0
  3  7  1  0
  4 10  2  0
  5 11  2  0
  6  9  1  0
  7 12  2  0
  8  9  2  0
  8 12  1  0
  9 19  1  0
 10 11  1  0
 10 17  1  0
 11 19  1  0
 12 26  1  0
 13 14  2  0
 13 15  1  0
 14 16  1  0
 15 22  1  0
 15 24  2  0
 16 23  1  0
 16 25  2  0
 17 22  1  0
 18 19  1  0
 18 22  1  0
 20 23  1  0
 21 23  1  0
M  END
