RAI-NOV-2f6a9876-7
     RDKit          3D

 26 30  0  0  1  0  0  0  0  0999 V2000
    5.6400    1.0352   19.1614 C   0  0  0  0  0  0  0  0  0  0  0  0
    6.5458    0.6928   20.1591 C   0  0  0  0  0  0  0  0  0  0  0  0
    5.9999    0.7887   17.8463 C   0  0  0  0  0  0  0  0  0  0  0  0
    8.0312   -0.0835   18.4718 C   0  0  0  0  0  0  0  0  0  0  0  0
   10.4601   -0.9579   22.7267 C   0  0  0  0  0  0  0  0  0  0  0  0
    7.7665    0.1224   19.8162 C   0  0  0  0  0  0  0  0  0  0  0  0
   11.5820   -1.1165   23.5726 C   0  0  0  0  0  0  0  0  0  0  0  0
   12.6392   -0.3340   23.1959 C   0  0  0  0  0  0  0  0  0  0  0  0
    9.1800   -1.5160   22.6941 C   0  0  0  0  0  0  0  0  0  0  0  0
   10.7565   -0.0285   21.7261 C   0  0  0  0  0  0  0  0  0  0  0  0
    8.7264   -0.2430   20.8274 C   0  0  0  0  0  0  0  0  0  0  0  0
   11.9124   -1.9173   24.7777 C   0  0  0  0  0  0  0  0  0  0  0  0
   13.8326   -0.4731   24.0618 C   0  0  0  0  0  0  0  0  0  0  0  0
   13.4631   -1.7577   24.8663 C   0  0  0  0  0  0  0  0  0  0  0  0
    8.5509   -3.5546   25.7029 C   0  0  0  0  0  0  0  0  0  0  0  0
    8.7492   -2.1749   25.0754 C   0  0  0  0  0  0  0  0  0  0  0  0
    8.3645   -3.8050   23.3248 C   0  0  0  0  0  0  0  0  0  0  0  0
    7.7623   -4.3039   24.6385 C   0  0  0  0  0  0  0  0  0  0  0  0
    7.7890   -5.8101   24.7972 C   0  0  0  0  0  0  0  0  0  0  0  0
    7.1763    0.2362   17.4744 N   0  0  0  0  0  0  0  0  0  0  0  0
    8.3061   -1.1512   21.7311 N   0  0  0  0  0  0  0  0  0  0  0  0
    9.9224    0.3685   20.7453 N   0  0  0  0  0  0  0  0  0  0  0  0
    8.7901   -2.4409   23.6396 N   0  0  0  0  0  0  0  0  0  0  0  0
    7.2424   -6.1509   26.0621 O   0  0  0  0  0  0  0  0  0  0  0  0
    6.4635   -3.8913   24.6966 F   0  0  0  0  0  0  0  0  0  0  0  0
   12.3512    0.6075   21.8454 S   0  0  0  0  0  0  0  0  0  0  0  0
  1  2  2  0
  1  3  1  0
  2  6  1  0
  3 20  2  0
  4  6  2  0
  4 20  1  0
  5  7  1  0
  5  9  2  0
  5 10  1  0
  6 11  1  0
  7  8  2  0
  7 12  1  0
  8 13  1  0
  8 26  1  0
  9 21  1  0
  9 23  1  0
 10 22  2  0
 10 26  1  0
 11 21  2  0
 11 22  1  0
 12 14  1  0
 13 14  1  0
 15 16  1  0
 15 18  1  0
 16 23  1  0
 17 18  1  0
 17 23  1  0
 18 19  1  0
 18 25  1  0
 19 24  1  0
M  END
