RAI-NOV-2f6a9876-4
     RDKit          3D

 23 26  0  0  1  0  0  0  0  0999 V2000
   13.0013    0.8519   23.8864 C   0  0  0  0  0  0  0  0  0  0  0  0
   13.1583    0.2308   22.6474 C   0  0  0  0  0  0  0  0  0  0  0  0
   11.8868    0.5645   24.6744 C   0  0  0  0  0  0  0  0  0  0  0  0
   12.2008   -0.6778   22.1963 C   0  0  0  0  0  0  0  0  0  0  0  0
   10.9293   -0.3440   24.2234 C   0  0  0  0  0  0  0  0  0  0  0  0
    7.5925   -1.2873   18.7332 C   0  0  0  0  0  0  0  0  0  0  0  0
    5.7006   -0.4877   19.5183 C   0  0  0  0  0  0  0  0  0  0  0  0
    6.6724   -1.4194   19.7904 C   0  0  0  0  0  0  0  0  0  0  0  0
   11.0863   -0.9652   22.9843 C   0  0  0  0  0  0  0  0  0  0  0  0
    6.6964   -2.3330   20.9460 C   0  0  0  0  0  0  0  0  0  0  0  0
    8.9134   -4.3328   25.3954 C   0  0  0  0  0  0  0  0  0  0  0  0
    7.6216   -4.7966   24.7050 C   0  0  0  0  0  0  0  0  0  0  0  0
    9.9371   -3.7275   24.4236 C   0  0  0  0  0  0  0  0  0  0  0  0
    7.0199   -3.7468   23.7544 C   0  0  0  0  0  0  0  0  0  0  0  0
    8.9093   -1.3090   21.6765 C   0  0  0  0  0  0  0  0  0  0  0  0
   10.0504   -1.9473   22.4971 C   0  0  0  0  0  0  0  0  0  0  0  0
    9.2488   -2.6569   23.5923 C   0  0  0  0  0  0  0  0  0  0  0  0
    8.1014   -3.2790   22.7866 C   0  0  0  0  0  0  0  0  0  0  0  0
    5.3769    1.1783   17.6751 C   0  0  0  0  0  0  0  0  0  0  0  0
    7.2371   -0.3459   17.8549 N   0  0  0  0  0  0  0  0  0  0  0  0
    6.0827    0.1219   18.3596 N   0  0  0  0  0  0  0  0  0  0  0  0
    7.7798   -2.2446   21.8110 N   0  0  0  0  0  0  0  0  0  0  0  0
    5.7540   -3.1140   21.0588 O   0  0  0  0  0  0  0  0  0  0  0  0
  1  2  2  0
  1  3  1  0
  2  4  1  0
  3  5  2  0
  4  9  2  0
  5  9  1  0
  6  8  1  0
  6 20  2  0
  7  8  2  0
  7 21  1  0
  8 10  1  0
  9 16  1  0
 10 22  1  0
 10 23  2  0
 11 12  1  0
 11 13  1  0
 12 14  1  0
 13 17  1  0
 14 18  1  0
 15 16  1  0
 15 22  1  0
 16 17  1  0
 17 18  1  0
 18 22  1  0
 19 21  1  0
 20 21  1  0
M  END
