RAI-NOV-a7d52b4a-4
     RDKit          3D

 27 30  0  0  1  0  0  0  0  0999 V2000
    8.8268   -2.3230   17.3157 C   0  0  0  0  0  0  0  0  0  0  0  0
   11.8342    0.5405   23.8449 C   0  0  0  0  0  0  0  0  0  0  0  0
   12.0205   -0.0266   22.5843 C   0  0  0  0  0  0  0  0  0  0  0  0
   10.8227    0.0665   24.6804 C   0  0  0  0  0  0  0  0  0  0  0  0
    8.1667   -5.5015   25.6340 C   0  0  0  0  0  0  0  0  0  0  0  0
    9.4707   -5.0233   25.5612 C   0  0  0  0  0  0  0  0  0  0  0  0
   11.1953   -1.0677   22.1590 C   0  0  0  0  0  0  0  0  0  0  0  0
    9.9975   -0.9746   24.2551 C   0  0  0  0  0  0  0  0  0  0  0  0
    7.2211   -5.0854   24.6990 C   0  0  0  0  0  0  0  0  0  0  0  0
    9.8275   -4.1153   24.5637 C   0  0  0  0  0  0  0  0  0  0  0  0
    7.4574    0.0418   18.9528 C   0  0  0  0  0  0  0  0  0  0  0  0
    5.0668   -0.1739   18.7500 C   0  0  0  0  0  0  0  0  0  0  0  0
   10.1838   -1.5417   22.9944 C   0  0  0  0  0  0  0  0  0  0  0  0
    7.5700   -4.1824   23.6828 C   0  0  0  0  0  0  0  0  0  0  0  0
    8.8796   -3.6581   23.6312 C   0  0  0  0  0  0  0  0  0  0  0  0
    6.9944   -1.2103   18.6064 C   0  0  0  0  0  0  0  0  0  0  0  0
    7.7065   -3.4738   19.1415 C   0  0  0  0  0  0  0  0  0  0  0  0
    7.8545   -2.3892   18.3605 C   0  0  0  0  0  0  0  0  0  0  0  0
    6.7103   -3.5682   20.2273 C   0  0  0  0  0  0  0  0  0  0  0  0
    6.5168   -3.7771   22.6794 C   0  0  0  0  0  0  0  0  0  0  0  0
    8.0588   -2.0867   21.8052 C   0  0  0  0  0  0  0  0  0  0  0  0
    9.2825   -2.6780   22.5307 C   0  0  0  0  0  0  0  0  0  0  0  0
    9.6139   -2.2616   16.4650 N   0  0  0  0  0  0  0  0  0  0  0  0
    5.6238   -1.3360   18.4900 N   0  0  0  0  0  0  0  0  0  0  0  0
    7.0998   -3.1490   21.4952 N   0  0  0  0  0  0  0  0  0  0  0  0
    5.5990   -4.0209   19.9485 O   0  0  0  0  0  0  0  0  0  0  0  0
    6.1318    1.1136   19.1412 S   0  0  0  0  0  0  0  0  0  0  0  0
  1 18  1  0
  1 23  3  0
  2  3  2  0
  2  4  1  0
  3  7  1  0
  4  8  2  0
  5  6  2  0
  5  9  1  0
  6 10  1  0
  7 13  2  0
  8 13  1  0
  9 14  2  0
 10 15  2  0
 11 16  2  0
 11 27  1  0
 12 24  2  0
 12 27  1  0
 13 22  1  0
 14 15  1  0
 14 20  1  0
 15 22  1  0
 16 18  1  0
 16 24  1  0
 17 18  2  0
 17 19  1  0
 19 25  1  0
 19 26  2  0
 20 25  1  0
 21 22  1  0
 21 25  1  0
M  END
