RAI-NOV-c18e0037-5
     RDKit          3D

 25 28  0  0  0  0  0  0  0  0999 V2000
   11.3066    5.7411   24.5118 C   0  0  0  0  0  0  0  0  0  0  0  0
   12.2893    5.2019   23.6818 C   0  0  0  0  0  0  0  0  0  0  0  0
   10.1117    5.0513   24.7174 C   0  0  0  0  0  0  0  0  0  0  0  0
    6.0163    0.2864   19.4886 C   0  0  0  0  0  0  0  0  0  0  0  0
    7.0309    0.4831   20.4187 C   0  0  0  0  0  0  0  0  0  0  0  0
   12.0772    3.9729   23.0571 C   0  0  0  0  0  0  0  0  0  0  0  0
    9.8996    3.8223   24.0927 C   0  0  0  0  0  0  0  0  0  0  0  0
   12.2730   -1.3464   22.3736 C   0  0  0  0  0  0  0  0  0  0  0  0
   12.5476    0.9607   23.8954 C   0  0  0  0  0  0  0  0  0  0  0  0
    6.3803    0.0129   18.1799 C   0  0  0  0  0  0  0  0  0  0  0  0
    8.6188    0.1226   18.6853 C   0  0  0  0  0  0  0  0  0  0  0  0
    8.3597    0.4015   20.0176 C   0  0  0  0  0  0  0  0  0  0  0  0
   11.4152   -0.2563   22.1557 C   0  0  0  0  0  0  0  0  0  0  0  0
   10.8823    3.2831   23.2626 C   0  0  0  0  0  0  0  0  0  0  0  0
   11.5637    0.9308   22.8896 C   0  0  0  0  0  0  0  0  0  0  0  0
   13.2679   -1.2777   23.3435 C   0  0  0  0  0  0  0  0  0  0  0  0
   13.3973   -0.1283   24.1117 C   0  0  0  0  0  0  0  0  0  0  0  0
   10.3353   -0.3854   21.1854 C   0  0  0  0  0  0  0  0  0  0  0  0
    9.4586    0.6056   20.9798 C   0  0  0  0  0  0  0  0  0  0  0  0
    9.5975    1.9062   21.7137 C   0  0  0  0  0  0  0  0  0  0  0  0
    7.6600   -0.0744   17.7528 N   0  0  0  0  0  0  0  0  0  0  0  0
   10.6647    2.0203   22.6208 N   0  0  0  0  0  0  0  0  0  0  0  0
    8.8091    2.8161   21.4446 O   0  0  0  0  0  0  0  0  0  0  0  0
   14.0745   -2.3306   23.5373 F   0  0  0  0  0  0  0  0  0  0  0  0
   14.6060   -0.0378   25.3354 Cl  0  0  0  0  0  0  0  0  0  0  0  0
  1  2  2  0
  1  3  1  0
  2  6  1  0
  3  7  2  0
  4  5  2  0
  4 10  1  0
  5 12  1  0
  6 14  2  0
  7 14  1  0
  8 13  2  0
  8 16  1  0
  9 15  2  0
  9 17  1  0
 10 21  2  0
 11 12  2  0
 11 21  1  0
 12 19  1  0
 13 15  1  0
 13 18  1  0
 14 22  1  0
 15 22  1  0
 16 17  2  0
 16 24  1  0
 17 25  1  0
 18 19  2  0
 19 20  1  0
 20 22  1  0
 20 23  2  0
M  END
