RAI-NOV-2f6a9876-2
     RDKit          3D

 26 30  0  0  1  0  0  0  0  0999 V2000
   14.3012   -1.4994   25.4976 C   0  0  0  0  0  0  0  0  0  0  0  0
   13.4762   -0.6340   24.7792 C   0  0  0  0  0  0  0  0  0  0  0  0
   13.8267   -2.7516   25.8882 C   0  0  0  0  0  0  0  0  0  0  0  0
   12.1767   -1.0208   24.4514 C   0  0  0  0  0  0  0  0  0  0  0  0
   12.5272   -3.1384   25.5604 C   0  0  0  0  0  0  0  0  0  0  0  0
    6.2615   -5.3418   21.5765 C   0  0  0  0  0  0  0  0  0  0  0  0
    6.8731   -5.4839   22.8382 C   0  0  0  0  0  0  0  0  0  0  0  0
   11.7022   -2.2730   24.8420 C   0  0  0  0  0  0  0  0  0  0  0  0
    5.8270   -5.4925   23.7323 C   0  0  0  0  0  0  0  0  0  0  0  0
    8.3030   -5.5958   23.1693 C   0  0  0  0  0  0  0  0  0  0  0  0
    5.7695   -5.5915   25.2179 C   0  0  0  0  0  0  0  0  0  0  0  0
    8.1358   -1.2131   21.6994 C   0  0  0  0  0  0  0  0  0  0  0  0
    9.1088   -0.8862   22.8626 C   0  0  0  0  0  0  0  0  0  0  0  0
    7.9530   -2.7534   21.6903 C   0  0  0  0  0  0  0  0  0  0  0  0
    3.2832   -5.1717   24.9972 C   0  0  0  0  0  0  0  0  0  0  0  0
    3.3394   -5.3768   23.4809 C   0  0  0  0  0  0  0  0  0  0  0  0
   10.1593   -4.2365   24.3030 C   0  0  0  0  0  0  0  0  0  0  0  0
   10.2966   -2.6919   24.4881 C   0  0  0  0  0  0  0  0  0  0  0  0
    9.7109   -2.2408   23.1553 C   0  0  0  0  0  0  0  0  0  0  0  0
    8.4759   -3.1288   23.0581 C   0  0  0  0  0  0  0  0  0  0  0  0
    4.3692   -6.0023   25.6868 C   0  0  0  0  0  0  0  0  0  0  0  0
    4.9295   -5.2658   21.6516 N   0  0  0  0  0  0  0  0  0  0  0  0
    4.6961   -5.3518   22.9726 N   0  0  0  0  0  0  0  0  0  0  0  0
    8.9921   -4.4208   23.4152 N   0  0  0  0  0  0  0  0  0  0  0  0
    4.2763   -5.8008   27.1562 N   0  0  0  0  0  0  0  0  0  0  0  0
    8.7897   -6.7241   23.1980 O   0  0  0  0  0  0  0  0  0  0  0  0
  1  2  2  0
  1  3  1  0
  2  4  1  0
  3  5  2  0
  4  8  2  0
  5  8  1  0
  6  7  1  0
  6 22  2  0
  7  9  2  0
  7 10  1  0
  8 18  1  0
  9 11  1  0
  9 23  1  0
 10 24  1  0
 10 26  2  0
 11 21  1  0
 12 13  1  0
 12 14  1  0
 13 19  1  0
 14 20  1  0
 15 16  1  0
 15 21  1  0
 16 23  1  0
 17 18  1  0
 17 24  1  0
 18 19  1  0
 19 20  1  0
 20 24  1  0
 21 25  1  0
 22 23  1  0
M  CHG  1  25   1
M  END
