RAI-NOV-a7d52b4a-2
     RDKit          3D

 25 28  0  0  1  0  0  0  0  0999 V2000
    8.1733   -3.7669   25.6842 C   0  0  0  0  0  0  0  0  0  0  0  0
    8.4100   -2.6951   26.5449 C   0  0  0  0  0  0  0  0  0  0  0  0
    8.7359   -3.7738   24.4078 C   0  0  0  0  0  0  0  0  0  0  0  0
   14.0082   -1.6643   21.9650 C   0  0  0  0  0  0  0  0  0  0  0  0
   14.0231   -1.8910   23.3381 C   0  0  0  0  0  0  0  0  0  0  0  0
    9.2092   -1.6301   26.1292 C   0  0  0  0  0  0  0  0  0  0  0  0
    9.5351   -2.7089   23.9921 C   0  0  0  0  0  0  0  0  0  0  0  0
   12.9023   -1.0571   21.3710 C   0  0  0  0  0  0  0  0  0  0  0  0
   12.9339   -1.5069   24.1187 C   0  0  0  0  0  0  0  0  0  0  0  0
    9.7718   -1.6370   24.8528 C   0  0  0  0  0  0  0  0  0  0  0  0
   11.7973   -0.6689   22.1440 C   0  0  0  0  0  0  0  0  0  0  0  0
   11.8169   -0.8900   23.5323 C   0  0  0  0  0  0  0  0  0  0  0  0
    6.8637    0.8803   19.9156 C   0  0  0  0  0  0  0  0  0  0  0  0
    6.5231    0.7612   18.4767 C   0  0  0  0  0  0  0  0  0  0  0  0
    7.8827    0.2217   20.4713 C   0  0  0  0  0  0  0  0  0  0  0  0
    8.1584    0.4159   21.9100 C   0  0  0  0  0  0  0  0  0  0  0  0
   10.6161   -0.0323   21.4529 C   0  0  0  0  0  0  0  0  0  0  0  0
    5.8996    1.8041   20.5916 C   0  0  0  0  0  0  0  0  0  0  0  0
    4.8354    2.0421   19.5304 C   0  0  0  0  0  0  0  0  0  0  0  0
    9.8174    0.6259   23.7164 C   0  0  0  0  0  0  0  0  0  0  0  0
   10.6438   -0.4751   24.3985 C   0  0  0  0  0  0  0  0  0  0  0  0
    5.3591    1.4896   18.3086 N   0  0  0  0  0  0  0  0  0  0  0  0
    9.4822    0.2887   22.3327 N   0  0  0  0  0  0  0  0  0  0  0  0
    7.1558    0.1472   17.6354 O   0  0  0  0  0  0  0  0  0  0  0  0
    7.2073    0.6847   22.6452 O   0  0  0  0  0  0  0  0  0  0  0  0
  1  2  2  0
  1  3  1  0
  2  6  1  0
  3  7  2  0
  4  5  2  0
  4  8  1  0
  5  9  1  0
  6 10  2  0
  7 10  1  0
  8 11  2  0
  9 12  2  0
 10 21  1  0
 11 12  1  0
 11 17  1  0
 12 21  1  0
 13 14  1  0
 13 15  2  0
 13 18  1  0
 14 22  1  0
 14 24  2  0
 15 16  1  0
 16 23  1  0
 16 25  2  0
 17 23  1  0
 18 19  1  0
 19 22  1  0
 20 21  1  0
 20 23  1  0
M  END
