RAJ-NOV-842d5654-3
     RDKit          3D

 21 23  0  0  1  0  0  0  0  0999 V2000
    6.5248   -2.3504   24.1953 C   0  0  0  0  0  0  0  0  0  0  0  0
   12.9353    1.2593   23.8335 C   0  0  0  0  0  0  0  0  0  0  0  0
   11.6932    0.9483   24.3868 C   0  0  0  0  0  0  0  0  0  0  0  0
   13.4935    0.4288   22.8616 C   0  0  0  0  0  0  0  0  0  0  0  0
   11.0094   -0.1932   23.9684 C   0  0  0  0  0  0  0  0  0  0  0  0
   12.8097   -0.7126   22.4432 C   0  0  0  0  0  0  0  0  0  0  0  0
    6.8785   -1.7868   21.8373 C   0  0  0  0  0  0  0  0  0  0  0  0
    9.1460   -1.6950   21.0408 C   0  0  0  0  0  0  0  0  0  0  0  0
    7.3866   -2.1156   23.0837 C   0  0  0  0  0  0  0  0  0  0  0  0
    7.7816   -1.5741   20.8018 C   0  0  0  0  0  0  0  0  0  0  0  0
   11.5676   -1.0237   22.9965 C   0  0  0  0  0  0  0  0  0  0  0  0
    9.5526   -2.0278   22.3229 C   0  0  0  0  0  0  0  0  0  0  0  0
    5.9205   -1.7880   19.0865 C   0  0  0  0  0  0  0  0  0  0  0  0
    7.0838    0.2968   19.2163 C   0  0  0  0  0  0  0  0  0  0  0  0
    6.0103    0.3734   18.1484 C   0  0  0  0  0  0  0  0  0  0  0  0
    7.2833   -1.2121   19.4258 C   0  0  0  0  0  0  0  0  0  0  0  0
    5.8233   -2.5415   25.0999 N   0  0  0  0  0  0  0  0  0  0  0  0
    8.7051   -2.2421   23.3542 N   0  0  0  0  0  0  0  0  0  0  0  0
    5.2394   -0.8206   18.3542 N   0  0  0  0  0  0  0  0  0  0  0  0
    5.5190   -2.9055   19.3743 O   0  0  0  0  0  0  0  0  0  0  0  0
   10.8920   -2.1544   22.5833 O   0  0  0  0  0  0  0  0  0  0  0  0
  1  9  1  0
  1 17  3  0
  2  3  2  0
  2  4  1  0
  3  5  1  0
  4  6  2  0
  5 11  2  0
  6 11  1  0
  7  9  2  0
  7 10  1  0
  8 10  2  0
  8 12  1  0
  9 18  1  0
 10 16  1  0
 11 21  1  0
 12 18  2  0
 12 21  1  0
 13 16  1  0
 13 19  1  0
 13 20  2  0
 14 15  1  0
 14 16  1  0
 15 19  1  0
M  END
