RAJ-NOV-842d5654-4
     RDKit          3D

 22 24  0  0  1  0  0  0  0  0999 V2000
    8.5739   -2.3867   23.7154 B   0  0  0  0  0  0  0  0  0  0  0  0
   14.4793   -1.3594   24.3973 C   0  0  0  0  0  0  0  0  0  0  0  0
   13.7445   -0.1907   24.5969 C   0  0  0  0  0  0  0  0  0  0  0  0
   14.3923   -2.0390   23.1823 C   0  0  0  0  0  0  0  0  0  0  0  0
   12.9226    0.2983   23.5815 C   0  0  0  0  0  0  0  0  0  0  0  0
   13.5705   -1.5500   22.1669 C   0  0  0  0  0  0  0  0  0  0  0  0
    7.8614   -0.7527   21.8502 C   0  0  0  0  0  0  0  0  0  0  0  0
    9.5536    0.4777   20.6640 C   0  0  0  0  0  0  0  0  0  0  0  0
    8.8788   -1.3342   22.5895 C   0  0  0  0  0  0  0  0  0  0  0  0
    8.2136    0.1694   20.8710 C   0  0  0  0  0  0  0  0  0  0  0  0
   12.8356   -0.3813   22.3665 C   0  0  0  0  0  0  0  0  0  0  0  0
   10.4952   -0.1587   21.4566 C   0  0  0  0  0  0  0  0  0  0  0  0
    6.8379    0.0804   18.7550 C   0  0  0  0  0  0  0  0  0  0  0  0
    5.7788    0.9385   20.7311 C   0  0  0  0  0  0  0  0  0  0  0  0
    4.9431   -0.1793   20.1371 C   0  0  0  0  0  0  0  0  0  0  0  0
    7.1446    0.8344   20.0341 C   0  0  0  0  0  0  0  0  0  0  0  0
   11.9429    0.1492   21.2633 C   0  0  0  0  0  0  0  0  0  0  0  0
   10.1913   -1.0599   22.4173 N   0  0  0  0  0  0  0  0  0  0  0  0
    5.5565   -0.4435   18.8672 N   0  0  0  0  0  0  0  0  0  0  0  0
    7.6061   -0.0574   17.8142 O   0  0  0  0  0  0  0  0  0  0  0  0
    7.2857   -2.7656   24.0041 O   0  0  0  0  0  0  0  0  0  0  0  0
    9.6199   -2.9311   24.4216 O   0  0  0  0  0  0  0  0  0  0  0  0
  1  9  1  0
  1 21  1  0
  1 22  1  0
  2  3  2  0
  2  4  1  0
  3  5  1  0
  4  6  2  0
  5 11  2  0
  6 11  1  0
  7  9  2  0
  7 10  1  0
  8 10  2  0
  8 12  1  0
  9 18  1  0
 10 16  1  0
 11 17  1  0
 12 17  1  0
 12 18  2  0
 13 16  1  0
 13 19  1  0
 13 20  2  0
 14 15  1  0
 14 16  1  0
 15 19  1  0
M  END
