RAL-MED-9a5eb9cb-3
     RDKit          3D

 33 35  0  0  1  0  0  0  0  0999 V2000
    7.0255   -0.8788   19.0727 C   0  0  0  0  0  0  0  0  0  0  0  0
    5.9733   -0.8654   19.9882 C   0  0  0  0  0  0  0  0  0  0  0  0
    8.1932   -1.5847   19.3625 C   0  0  0  0  0  0  0  0  0  0  0  0
    6.0887   -1.5578   21.1935 C   0  0  0  0  0  0  0  0  0  0  0  0
    8.3086   -2.2771   20.5678 C   0  0  0  0  0  0  0  0  0  0  0  0
    4.6455   -6.4545   24.8514 C   0  0  0  0  0  0  0  0  0  0  0  0
    6.2486   -5.2889   26.2329 C   0  0  0  0  0  0  0  0  0  0  0  0
    5.2001   -5.8686   23.7135 C   0  0  0  0  0  0  0  0  0  0  0  0
    6.8032   -4.7031   25.0950 C   0  0  0  0  0  0  0  0  0  0  0  0
   10.5195   -0.5884   25.5134 C   0  0  0  0  0  0  0  0  0  0  0  0
   11.4654   -2.5820   24.5295 C   0  0  0  0  0  0  0  0  0  0  0  0
   11.7401   -0.3134   26.1298 C   0  0  0  0  0  0  0  0  0  0  0  0
   12.6861   -2.3070   25.1459 C   0  0  0  0  0  0  0  0  0  0  0  0
    7.2564   -2.2636   21.4834 C   0  0  0  0  0  0  0  0  0  0  0  0
    5.1697   -6.1646   26.1111 C   0  0  0  0  0  0  0  0  0  0  0  0
   10.3821   -1.7227   24.7132 C   0  0  0  0  0  0  0  0  0  0  0  0
    6.2790   -4.9929   23.8353 C   0  0  0  0  0  0  0  0  0  0  0  0
   12.8234   -1.1727   25.9460 C   0  0  0  0  0  0  0  0  0  0  0  0
    8.0262   -7.1027   22.0054 C   0  0  0  0  0  0  0  0  0  0  0  0
    6.9511   -6.5270   21.4579 C   0  0  0  0  0  0  0  0  0  0  0  0
    6.8389   -5.0398   21.4038 C   0  0  0  0  0  0  0  0  0  0  0  0
    8.8325   -3.0800   23.2631 C   0  0  0  0  0  0  0  0  0  0  0  0
   15.0802   -1.8248   26.3170 C   0  0  0  0  0  0  0  0  0  0  0  0
    7.3823   -3.0146   22.7906 C   0  0  0  0  0  0  0  0  0  0  0  0
    4.5766   -6.7910   27.3277 C   0  0  0  0  0  0  0  0  0  0  0  0
    9.1437   -2.0019   24.0879 N   0  0  0  0  0  0  0  0  0  0  0  0
    6.8570   -4.3829   22.6504 N   0  0  0  0  0  0  0  0  0  0  0  0
    6.7292   -4.4918   20.3066 O   0  0  0  0  0  0  0  0  0  0  0  0
    9.5835   -3.9875   22.9156 O   0  0  0  0  0  0  0  0  0  0  0  0
   14.0146   -0.9044   26.5475 O   0  0  0  0  0  0  0  0  0  0  0  0
    3.5285   -7.6248   27.0586 F   0  0  0  0  0  0  0  0  0  0  0  0
    5.4619   -7.5503   28.0386 F   0  0  0  0  0  0  0  0  0  0  0  0
    4.0935   -5.8691   28.2106 F   0  0  0  0  0  0  0  0  0  0  0  0
  1  2  2  0
  1  3  1  0
  2  4  1  0
  3  5  2  0
  4 14  2  0
  5 14  1  0
  6  8  2  0
  6 15  1  0
  7  9  1  0
  7 15  2  0
  8 17  1  0
  9 17  2  0
 10 12  2  0
 10 16  1  0
 11 13  1  0
 11 16  2  0
 12 18  1  0
 13 18  2  0
 14 24  1  0
 15 25  1  0
 16 26  1  0
 17 27  1  0
 18 30  1  0
 19 20  2  0
 20 21  1  0
 21 27  1  0
 21 28  2  0
 22 24  1  0
 22 26  1  0
 22 29  2  0
 23 30  1  0
 24 27  1  0
 25 31  1  0
 25 32  1  0
 25 33  1  0
M  END
