RAL-MED-9a5eb9cb-15
     RDKit          3D

 30 32  0  0  1  0  0  0  0  0999 V2000
    4.5212   -4.7747   24.7833 C   0  0  0  0  0  0  0  0  0  0  0  0
    5.7590   -4.1569   24.6440 C   0  0  0  0  0  0  0  0  0  0  0  0
   10.8882   -1.3630   25.2375 C   0  0  0  0  0  0  0  0  0  0  0  0
   12.1844   -3.2657   24.5051 C   0  0  0  0  0  0  0  0  0  0  0  0
    9.7295   -1.9622   24.7437 C   0  0  0  0  0  0  0  0  0  0  0  0
   11.0257   -3.8650   24.0113 C   0  0  0  0  0  0  0  0  0  0  0  0
    3.7158   -4.8740   23.6602 C   0  0  0  0  0  0  0  0  0  0  0  0
    5.2700   -3.8133   22.3420 C   0  0  0  0  0  0  0  0  0  0  0  0
   12.1157   -2.0147   25.1182 C   0  0  0  0  0  0  0  0  0  0  0  0
    6.1481   -3.6642   23.4034 C   0  0  0  0  0  0  0  0  0  0  0  0
    9.7982   -3.2133   24.1306 C   0  0  0  0  0  0  0  0  0  0  0  0
    6.9237   -6.9646   22.7518 C   0  0  0  0  0  0  0  0  0  0  0  0
    7.5676   -5.8113   22.5461 C   0  0  0  0  0  0  0  0  0  0  0  0
    8.4861   -5.2656   23.5882 C   0  0  0  0  0  0  0  0  0  0  0  0
    7.7114   -2.5618   21.7735 C   0  0  0  0  0  0  0  0  0  0  0  0
    6.1142    0.2369   18.3287 C   0  0  0  0  0  0  0  0  0  0  0  0
    7.0006    1.3461   18.9021 C   0  0  0  0  0  0  0  0  0  0  0  0
    6.0313   -0.8375   19.4097 C   0  0  0  0  0  0  0  0  0  0  0  0
    7.4070    0.8817   20.2982 C   0  0  0  0  0  0  0  0  0  0  0  0
    7.3094   -0.6368   20.2149 C   0  0  0  0  0  0  0  0  0  0  0  0
    7.4870   -2.9884   23.2193 C   0  0  0  0  0  0  0  0  0  0  0  0
   13.3545   -1.3739   25.6462 C   0  0  0  0  0  0  0  0  0  0  0  0
    4.0595   -4.4075   22.4388 N   0  0  0  0  0  0  0  0  0  0  0  0
    7.2554   -1.2685   21.5211 N   0  0  0  0  0  0  0  0  0  0  0  0
    8.5801   -3.8437   23.6116 N   0  0  0  0  0  0  0  0  0  0  0  0
    9.0789   -6.0513   24.3280 O   0  0  0  0  0  0  0  0  0  0  0  0
    8.2054   -3.3054   20.9282 O   0  0  0  0  0  0  0  0  0  0  0  0
   13.1378   -0.1530   26.2194 F   0  0  0  0  0  0  0  0  0  0  0  0
   13.9847   -2.1116   26.6076 F   0  0  0  0  0  0  0  0  0  0  0  0
   14.2905   -1.1615   24.6756 F   0  0  0  0  0  0  0  0  0  0  0  0
  1  2  2  0
  1  7  1  0
  2 10  1  0
  3  5  2  0
  3  9  1  0
  4  6  1  0
  4  9  2  0
  5 11  1  0
  6 11  2  0
  7 23  2  0
  8 10  2  0
  8 23  1  0
  9 22  1  0
 10 21  1  0
 11 25  1  0
 12 13  2  0
 13 14  1  0
 14 25  1  0
 14 26  2  0
 15 21  1  0
 15 24  1  0
 15 27  2  0
 16 17  1  0
 16 18  1  0
 17 19  1  0
 18 20  1  0
 19 20  1  0
 20 24  1  0
 21 25  1  0
 22 28  1  0
 22 29  1  0
 22 30  1  0
M  END
