RAM-SYN-2a37ce6c-3
     RDKit          3D

 26 28  0  0  0  0  0  0  0  0999 V2000
   14.4250   -0.2945   22.5452 C   0  0  0  0  0  0  0  0  0  0  0  0
   13.4455   -0.8452   23.3796 C   0  0  0  0  0  0  0  0  0  0  0  0
   14.2852    0.9951   22.0360 C   0  0  0  0  0  0  0  0  0  0  0  0
    9.5377    7.5789   24.1299 C   0  0  0  0  0  0  0  0  0  0  0  0
   10.3887    8.0108   25.1344 C   0  0  0  0  0  0  0  0  0  0  0  0
   11.9918    6.4677   24.5626 C   0  0  0  0  0  0  0  0  0  0  0  0
   10.3704    0.8222   24.4399 C   0  0  0  0  0  0  0  0  0  0  0  0
   12.3081   -0.0790   23.7030 C   0  0  0  0  0  0  0  0  0  0  0  0
   13.1657    1.7738   22.3429 C   0  0  0  0  0  0  0  0  0  0  0  0
    9.9666    6.5351   23.3176 C   0  0  0  0  0  0  0  0  0  0  0  0
   11.1499   -0.3102   24.4968 C   0  0  0  0  0  0  0  0  0  0  0  0
   12.1946    1.2102   23.1782 C   0  0  0  0  0  0  0  0  0  0  0  0
   11.2158    5.9633   23.5315 C   0  0  0  0  0  0  0  0  0  0  0  0
    8.1403   -3.3057   22.9925 C   0  0  0  0  0  0  0  0  0  0  0  0
   12.9206    4.2429   22.8394 C   0  0  0  0  0  0  0  0  0  0  0  0
    9.0690    6.0491   22.2273 C   0  0  0  0  0  0  0  0  0  0  0  0
    8.0739   -3.8530   21.5904 C   0  0  0  0  0  0  0  0  0  0  0  0
   13.0479    3.1512   21.7806 C   0  0  0  0  0  0  0  0  0  0  0  0
   10.8315   -1.5405   25.2495 C   0  0  0  0  0  0  0  0  0  0  0  0
    9.4419   -2.6262   23.3842 C   0  0  0  0  0  0  0  0  0  0  0  0
    9.4769   -2.1561   24.8376 C   0  0  0  0  0  0  0  0  0  0  0  0
   11.6091    7.4802   25.3725 N   0  0  0  0  0  0  0  0  0  0  0  0
   11.0088    1.7335   23.6421 N   0  0  0  0  0  0  0  0  0  0  0  0
   11.6972    4.8995   22.7318 N   0  0  0  0  0  0  0  0  0  0  0  0
    7.1953   -3.4376   23.7687 O   0  0  0  0  0  0  0  0  0  0  0  0
   13.8144    4.4655   23.6498 O   0  0  0  0  0  0  0  0  0  0  0  0
  1  2  2  0
  1  3  1  0
  2  8  1  0
  3  9  2  0
  4  5  2  0
  4 10  1  0
  5 22  1  0
  6 13  1  0
  6 22  2  0
  7 11  2  0
  7 23  1  0
  8 11  1  0
  8 12  2  0
  9 12  1  0
  9 18  1  0
 10 13  2  0
 10 16  1  0
 11 19  1  0
 12 23  1  0
 13 24  1  0
 14 17  1  0
 14 20  1  0
 14 25  2  0
 15 18  1  0
 15 24  1  0
 15 26  2  0
 19 21  1  0
 20 21  1  0
M  END
