RAM-SYN-2a37ce6c-2
     RDKit          3D

 48 52  0  0  1  0  0  0  0  0999 V2000
    3.2439    2.5270   21.3424 C   0  0  0  0  0  0  0  0  0  0  0  0
    3.5356    2.7573   19.9980 C   0  0  0  0  0  0  0  0  0  0  0  0
    9.9300   -3.3206   23.9719 C   0  0  0  0  0  0  0  0  0  0  0  0
    3.6321    1.3306   21.9454 C   0  0  0  0  0  0  0  0  0  0  0  0
    4.2155    1.7911   19.2565 C   0  0  0  0  0  0  0  0  0  0  0  0
   10.4257   -2.3632   24.8569 C   0  0  0  0  0  0  0  0  0  0  0  0
    8.6118   -3.2394   23.5231 C   0  0  0  0  0  0  0  0  0  0  0  0
    8.2848   -1.2434   24.8446 C   0  0  0  0  0  0  0  0  0  0  0  0
    9.6031   -1.3246   25.2933 C   0  0  0  0  0  0  0  0  0  0  0  0
    7.7892   -2.2008   23.9595 C   0  0  0  0  0  0  0  0  0  0  0  0
    4.3120    0.3644   21.2038 C   0  0  0  0  0  0  0  0  0  0  0  0
    4.6037    0.5947   19.8594 C   0  0  0  0  0  0  0  0  0  0  0  0
    9.1782    2.7248   23.3376 C   0  0  0  0  0  0  0  0  0  0  0  0
    6.0495   -5.8260   26.7426 C   0  0  0  0  0  0  0  0  0  0  0  0
   13.7462    2.2587   21.3494 C   0  0  0  0  0  0  0  0  0  0  0  0
   13.5261    1.0017   20.5088 C   0  0  0  0  0  0  0  0  0  0  0  0
    4.8811   -4.9477   23.7053 C   0  0  0  0  0  0  0  0  0  0  0  0
    3.9873   -4.9480   24.9111 C   0  0  0  0  0  0  0  0  0  0  0  0
   11.4421    2.5361   22.3936 C   0  0  0  0  0  0  0  0  0  0  0  0
   12.8973   -0.2831   22.5955 C   0  0  0  0  0  0  0  0  0  0  0  0
   12.2956    0.9752   24.7287 C   0  0  0  0  0  0  0  0  0  0  0  0
   10.6215    2.5372   23.6841 C   0  0  0  0  0  0  0  0  0  0  0  0
   12.9317    2.2709   22.6525 C   0  0  0  0  0  0  0  0  0  0  0  0
   13.1408    0.9731   23.4530 C   0  0  0  0  0  0  0  0  0  0  0  0
   13.7596   -0.2629   21.3327 C   0  0  0  0  0  0  0  0  0  0  0  0
    5.2793   -4.1612   24.9350 C   0  0  0  0  0  0  0  0  0  0  0  0
    6.2008    0.1548   17.9024 C   0  0  0  0  0  0  0  0  0  0  0  0
    4.3423   -1.4519   18.4485 C   0  0  0  0  0  0  0  0  0  0  0  0
    7.3137    5.9775   23.1043 C   0  0  0  0  0  0  0  0  0  0  0  0
    7.0660    3.9844   21.6029 C   0  0  0  0  0  0  0  0  0  0  0  0
    6.4525    3.8144   24.0284 C   0  0  0  0  0  0  0  0  0  0  0  0
    4.7229   -0.9210   21.8771 C   0  0  0  0  0  0  0  0  0  0  0  0
    6.4105   -4.6892   25.7743 C   0  0  0  0  0  0  0  0  0  0  0  0
    5.9943   -0.8056   22.7360 C   0  0  0  0  0  0  0  0  0  0  0  0
   10.0136    1.1241   25.6852 C   0  0  0  0  0  0  0  0  0  0  0  0
   10.1417   -0.2861   26.2518 C   0  0  0  0  0  0  0  0  0  0  0  0
    6.3794   -2.1145   23.4800 C   0  0  0  0  0  0  0  0  0  0  0  0
    5.3300   -0.4252   19.0451 C   0  0  0  0  0  0  0  0  0  0  0  0
    7.4163    4.4503   23.0199 C   0  0  0  0  0  0  0  0  0  0  0  0
    8.7684    4.0444   23.3299 N   0  0  0  0  0  0  0  0  0  0  0  0
   10.8352    1.2261   24.4217 N   0  0  0  0  0  0  0  0  0  0  0  0
    5.2130   -5.5457   27.6443 O   0  0  0  0  0  0  0  0  0  0  0  0
    8.4835    1.7455   23.0926 O   0  0  0  0  0  0  0  0  0  0  0  0
    6.6435   -6.9191   26.5120 O   0  0  0  0  0  0  0  0  0  0  0  0
    9.3897   -0.3787   27.4617 O   0  0  0  0  0  0  0  0  0  0  0  0
    6.2530   -1.1673   19.8739 O   0  0  0  0  0  0  0  0  0  0  0  0
    5.1926   -2.3611   24.8712 S   0  0  0  0  0  0  0  0  0  0  0  0
   13.4133   -1.7064   20.3379 Cl  0  0  0  0  0  0  0  0  0  0  0  0
  1  2  2  0
  1  4  1  0
  2  5  1  0
  3  6  2  0
  3  7  1  0
  4 11  2  0
  5 12  2  0
  6  9  1  0
  7 10  2  0
  8  9  2  0
  8 10  1  0
  9 36  1  0
 10 37  1  0
 11 12  1  0
 11 32  1  0
 12 38  1  0
 13 22  1  0
 13 40  1  0
 13 43  2  0
 14 33  1  0
 14 42  1  0
 14 44  2  0
 15 16  1  0
 15 23  1  0
 16 25  1  0
 17 18  1  0
 17 26  1  0
 18 26  1  0
 19 22  1  0
 19 23  1  0
 20 24  1  0
 20 25  1  0
 21 24  1  0
 21 41  1  0
 22 41  1  0
 23 24  1  0
 25 48  1  0
 26 33  1  0
 26 47  1  0
 27 38  1  0
 28 38  1  0
 29 39  1  0
 30 39  1  0
 31 39  1  0
 32 34  1  0
 34 37  1  0
 35 36  1  0
 35 41  1  0
 36 45  1  0
 37 47  1  0
 38 46  1  0
 39 40  1  0
M  CHG  2  41   1  42  -1
M  END
