RAM-SYN-2a37ce6c-1
     RDKit          3D

 40 44  0  0  1  0  0  0  0  0999 V2000
    4.5452   -8.2977   27.1408 C   0  0  0  0  0  0  0  0  0  0  0  0
    5.7119   -7.8459   27.7503 C   0  0  0  0  0  0  0  0  0  0  0  0
   11.2524   -2.5909   20.7185 C   0  0  0  0  0  0  0  0  0  0  0  0
   12.2057   -2.9070   21.6864 C   0  0  0  0  0  0  0  0  0  0  0  0
    3.6409   -7.3836   26.5993 C   0  0  0  0  0  0  0  0  0  0  0  0
    5.9788   -6.4783   27.8207 C   0  0  0  0  0  0  0  0  0  0  0  0
    2.9943   -5.0693   26.1214 C   0  0  0  0  0  0  0  0  0  0  0  0
   10.7002   -1.3106   20.6754 C   0  0  0  0  0  0  0  0  0  0  0  0
   12.6069   -1.9430   22.6112 C   0  0  0  0  0  0  0  0  0  0  0  0
    3.2611   -3.7017   26.1919 C   0  0  0  0  0  0  0  0  0  0  0  0
    5.3322   -4.1639   27.3430 C   0  0  0  0  0  0  0  0  0  0  0  0
    3.8933   -6.0035   26.6612 C   0  0  0  0  0  0  0  0  0  0  0  0
    5.0798   -5.5441   27.2811 C   0  0  0  0  0  0  0  0  0  0  0  0
    4.4278   -3.2499   26.8015 C   0  0  0  0  0  0  0  0  0  0  0  0
   11.1014   -0.3466   21.6002 C   0  0  0  0  0  0  0  0  0  0  0  0
   12.0547   -0.6627   22.5682 C   0  0  0  0  0  0  0  0  0  0  0  0
    8.0492    0.8260   23.3016 C   0  0  0  0  0  0  0  0  0  0  0  0
    5.9971   -2.6141   20.3686 C   0  0  0  0  0  0  0  0  0  0  0  0
    7.2434    0.6458   18.5522 C   0  0  0  0  0  0  0  0  0  0  0  0
    5.7863    0.2948   18.4704 C   0  0  0  0  0  0  0  0  0  0  0  0
    7.6343    0.3879   25.7010 C   0  0  0  0  0  0  0  0  0  0  0  0
    7.3443   -1.4775   24.1170 C   0  0  0  0  0  0  0  0  0  0  0  0
    6.2858    0.0844   26.3373 C   0  0  0  0  0  0  0  0  0  0  0  0
    5.9913   -1.8106   24.7312 C   0  0  0  0  0  0  0  0  0  0  0  0
    6.6218   -0.2314   19.6168 C   0  0  0  0  0  0  0  0  0  0  0  0
   13.9572    0.1819   24.0652 C   0  0  0  0  0  0  0  0  0  0  0  0
   11.5543    0.3652   24.7909 C   0  0  0  0  0  0  0  0  0  0  0  0
   10.4917    1.0311   21.5337 C   0  0  0  0  0  0  0  0  0  0  0  0
    4.7131   -1.7789   26.8761 C   0  0  0  0  0  0  0  0  0  0  0  0
    6.9732   -1.6941   19.6194 C   0  0  0  0  0  0  0  0  0  0  0  0
    9.0452    1.0477   21.0127 C   0  0  0  0  0  0  0  0  0  0  0  0
    8.0581    0.2848   21.8942 C   0  0  0  0  0  0  0  0  0  0  0  0
   12.4994    0.3526   23.5692 C   0  0  0  0  0  0  0  0  0  0  0  0
    7.6717   -0.0607   24.3090 N   0  0  0  0  0  0  0  0  0  0  0  0
    5.9894   -1.3908   26.1841 N   0  0  0  0  0  0  0  0  0  0  0  0
    5.8782   -2.4098   21.6077 O   0  0  0  0  0  0  0  0  0  0  0  0
    8.3659    2.0022   23.4973 O   0  0  0  0  0  0  0  0  0  0  0  0
    5.4239   -3.4747   19.6394 O   0  0  0  0  0  0  0  0  0  0  0  0
   12.4564    1.6785   22.9950 O   0  0  0  0  0  0  0  0  0  0  0  0
    6.3617    0.4639   21.2642 S   0  0  0  0  0  0  0  0  0  0  0  0
  1  2  2  0
  1  5  1  0
  2  6  1  0
  3  4  2  0
  3  8  1  0
  4  9  1  0
  5 12  2  0
  6 13  2  0
  7 10  2  0
  7 12  1  0
  8 15  2  0
  9 16  2  0
 10 14  1  0
 11 13  1  0
 11 14  2  0
 12 13  1  0
 14 29  1  0
 15 16  1  0
 15 28  1  0
 16 33  1  0
 17 32  1  0
 17 34  1  0
 17 37  2  0
 18 30  1  0
 18 36  1  0
 18 38  2  0
 19 20  1  0
 19 25  1  0
 20 25  1  0
 21 23  1  0
 21 34  1  0
 22 24  1  0
 22 34  1  0
 23 35  1  0
 24 35  1  0
 25 30  1  0
 25 40  1  0
 26 33  1  0
 27 33  1  0
 28 31  1  0
 29 35  1  0
 31 32  1  0
 32 40  1  0
 33 39  1  0
M  CHG  2  35   1  36  -1
M  END
