REN-UFA-aaaed2d6-3
     RDKit          3D

 24 26  0  0  1  0  0  0  0  0999 V2000
   11.6130    2.0676   24.1318 C   0  0  0  0  0  0  0  0  0  0  0  0
   12.4057    1.3363   23.2473 C   0  0  0  0  0  0  0  0  0  0  0  0
   10.3644    1.5791   24.5166 C   0  0  0  0  0  0  0  0  0  0  0  0
    7.9992   -4.0533   25.4634 C   0  0  0  0  0  0  0  0  0  0  0  0
    9.3841   -3.9527   25.5562 C   0  0  0  0  0  0  0  0  0  0  0  0
   11.9498    0.1165   22.7474 C   0  0  0  0  0  0  0  0  0  0  0  0
    9.9085    0.3593   24.0168 C   0  0  0  0  0  0  0  0  0  0  0  0
    7.3191   -3.3892   24.4430 C   0  0  0  0  0  0  0  0  0  0  0  0
   10.0905   -3.1913   24.6263 C   0  0  0  0  0  0  0  0  0  0  0  0
   10.7012   -0.3720   23.1322 C   0  0  0  0  0  0  0  0  0  0  0  0
    8.0170   -2.6160   23.5026 C   0  0  0  0  0  0  0  0  0  0  0  0
    9.4170   -2.5224   23.5916 C   0  0  0  0  0  0  0  0  0  0  0  0
    5.8037    1.2130   21.9202 C   0  0  0  0  0  0  0  0  0  0  0  0
    6.1255    0.3520   20.9475 C   0  0  0  0  0  0  0  0  0  0  0  0
    7.5573    0.0190   20.7968 C   0  0  0  0  0  0  0  0  0  0  0  0
    7.2351   -1.9005   22.4280 C   0  0  0  0  0  0  0  0  0  0  0  0
    9.4123   -1.5251   21.2817 C   0  0  0  0  0  0  0  0  0  0  0  0
   10.2029   -1.7030   22.5869 C   0  0  0  0  0  0  0  0  0  0  0  0
    4.1503    1.7697   19.0937 C   0  0  0  0  0  0  0  0  0  0  0  0
    6.0905    0.6884   17.9681 C   0  0  0  0  0  0  0  0  0  0  0  0
    5.1398   -0.3097   20.0419 C   0  0  0  0  0  0  0  0  0  0  0  0
    8.0427   -1.0699   21.5222 N   0  0  0  0  0  0  0  0  0  0  0  0
    4.8569    0.4691   18.8068 N   0  0  0  0  0  0  0  0  0  0  0  0
    8.2317    0.7162   20.0376 O   0  0  0  0  0  0  0  0  0  0  0  0
  1  2  2  0
  1  3  1  0
  2  6  1  0
  3  7  2  0
  4  5  2  0
  4  8  1  0
  5  9  1  0
  6 10  2  0
  7 10  1  0
  8 11  2  0
  9 12  2  0
 10 18  1  0
 11 12  1  0
 11 16  1  0
 12 18  1  0
 13 14  2  0
 14 15  1  0
 14 21  1  0
 15 22  1  0
 15 24  2  0
 16 22  1  0
 17 18  1  0
 17 22  1  0
 19 23  1  0
 20 23  1  0
 21 23  1  0
M  CHG  1  23   1
M  END
