RIC-ARG-a8e88843-5
     RDKit          3D

 27 29  0  0  0  0  0  0  0  0999 V2000
   10.4498   -0.6252   24.0707 C   0  0  0  0  0  0  0  0  0  0  0  0
   10.2315   -1.8866   23.4849 C   0  0  0  0  0  0  0  0  0  0  0  0
   11.5260   -0.1117   23.3890 C   0  0  0  0  0  0  0  0  0  0  0  0
    8.0012    1.5143   24.0267 C   0  0  0  0  0  0  0  0  0  0  0  0
    4.4871    1.0632   22.9977 C   0  0  0  0  0  0  0  0  0  0  0  0
    5.9609    0.1147   20.1432 C   0  0  0  0  0  0  0  0  0  0  0  0
    7.0671    0.7420   21.0108 C   0  0  0  0  0  0  0  0  0  0  0  0
    4.5299    0.3684   20.6267 C   0  0  0  0  0  0  0  0  0  0  0  0
    7.5206   -0.1333   22.1983 C   0  0  0  0  0  0  0  0  0  0  0  0
    6.2063   -0.2164   24.3446 C   0  0  0  0  0  0  0  0  0  0  0  0
    4.8506    0.5034   24.3501 C   0  0  0  0  0  0  0  0  0  0  0  0
    9.1961   -2.8764   23.8305 C   0  0  0  0  0  0  0  0  0  0  0  0
   12.2432    1.1702   23.5245 C   0  0  0  0  0  0  0  0  0  0  0  0
   14.1540   -1.8129   21.9379 C   0  0  0  0  0  0  0  0  0  0  0  0
    9.6800    0.0187   25.1920 C   0  0  0  0  0  0  0  0  0  0  0  0
   12.9517   -0.9870   21.5138 C   0  0  0  0  0  0  0  0  0  0  0  0
   11.0991   -2.1578   22.5063 N   0  0  0  0  0  0  0  0  0  0  0  0
    7.8525    2.8134   23.9065 N   0  0  0  0  0  0  0  0  0  0  0  0
    8.8963    3.3730   24.6083 N   0  0  0  0  0  0  0  0  0  0  0  0
    9.6662    2.4352   25.1467 N   0  0  0  0  0  0  0  0  0  0  0  0
   11.8731   -1.0596   22.4719 N   0  0  0  0  0  0  0  0  0  0  0  0
    9.1047    1.2743   24.7817 N   0  0  0  0  0  0  0  0  0  0  0  0
    4.3892    0.0741   22.0334 N   0  0  0  0  0  0  0  0  0  0  0  0
    7.2325    0.4599   23.5229 N   0  0  0  0  0  0  0  0  0  0  0  0
    4.3887    2.2720   22.8031 O   0  0  0  0  0  0  0  0  0  0  0  0
    3.9037   -0.3826   24.7714 F   0  0  0  0  0  0  0  0  0  0  0  0
    4.8650    1.4906   25.2854 F   0  0  0  0  0  0  0  0  0  0  0  0
  1  2  1  0
  1  3  2  0
  1 15  1  0
  2 12  1  0
  2 17  2  0
  3 13  1  0
  3 21  1  0
  4 18  2  0
  4 22  1  0
  4 24  1  0
  5 11  1  0
  5 23  1  0
  5 25  2  0
  6  7  1  0
  6  8  1  0
  7  9  1  0
  8 23  1  0
  9 24  1  0
 10 11  1  0
 10 24  1  0
 11 26  1  0
 11 27  1  0
 14 16  1  0
 15 22  1  0
 16 21  1  0
 17 21  1  0
 18 19  1  0
 19 20  2  0
 20 22  1  0
M  END
