RIC-ARG-a8e88843-6
     RDKit          3D

 26 29  0  0  1  0  0  0  0  0999 V2000
    6.9231   -4.1674   25.6405 C   0  0  0  0  0  0  0  0  0  0  0  0
    7.5712   -4.7229   24.5438 C   0  0  0  0  0  0  0  0  0  0  0  0
    2.6406    1.7528   20.7490 C   0  0  0  0  0  0  0  0  0  0  0  0
    3.7476    1.1788   20.1341 C   0  0  0  0  0  0  0  0  0  0  0  0
    7.2591   -2.8842   26.0701 C   0  0  0  0  0  0  0  0  0  0  0  0
    8.5547   -3.9949   23.8757 C   0  0  0  0  0  0  0  0  0  0  0  0
    7.0717   -0.1663   20.9831 C   0  0  0  0  0  0  0  0  0  0  0  0
    2.7856    2.2115   22.0484 C   0  0  0  0  0  0  0  0  0  0  0  0
    4.9907    1.5711   22.1233 C   0  0  0  0  0  0  0  0  0  0  0  0
    6.3203    0.5635   18.8479 C   0  0  0  0  0  0  0  0  0  0  0  0
    8.2982   -0.5966   18.9914 C   0  0  0  0  0  0  0  0  0  0  0  0
    4.9490    1.0823   20.8275 C   0  0  0  0  0  0  0  0  0  0  0  0
    6.1161    0.4910   20.2164 C   0  0  0  0  0  0  0  0  0  0  0  0
    8.2535   -2.1369   25.4136 C   0  0  0  0  0  0  0  0  0  0  0  0
    8.9101   -2.7018   24.2971 C   0  0  0  0  0  0  0  0  0  0  0  0
    8.1867   -0.7232   20.3667 C   0  0  0  0  0  0  0  0  0  0  0  0
    8.5616   -0.7458   25.9273 C   0  0  0  0  0  0  0  0  0  0  0  0
    9.9590   -1.9534   23.5100 C   0  0  0  0  0  0  0  0  0  0  0  0
    7.8740    0.3533   25.1090 C   0  0  0  0  0  0  0  0  0  0  0  0
    8.7892    1.4773   24.6080 C   0  0  0  0  0  0  0  0  0  0  0  0
   10.1222    1.1159   23.9424 C   0  0  0  0  0  0  0  0  0  0  0  0
   10.0832    0.4233   22.5791 C   0  0  0  0  0  0  0  0  0  0  0  0
    9.2360   -1.4388   21.1653 C   0  0  0  0  0  0  0  0  0  0  0  0
    3.9363    2.1351   22.7539 N   0  0  0  0  0  0  0  0  0  0  0  0
    7.3906    0.0347   18.2134 N   0  0  0  0  0  0  0  0  0  0  0  0
    9.3745   -0.9064   22.5723 N   0  0  0  0  0  0  0  0  0  0  0  0
  1  2  2  0
  1  5  1  0
  2  6  1  0
  3  4  2  0
  3  8  1  0
  4 12  1  0
  5 14  2  0
  6 15  2  0
  7 13  2  0
  7 16  1  0
  8 24  2  0
  9 12  2  0
  9 24  1  0
 10 13  1  0
 10 25  2  0
 11 16  2  0
 11 25  1  0
 12 13  1  0
 14 15  1  0
 14 17  1  0
 15 18  1  0
 16 23  1  0
 17 19  1  0
 18 26  1  0
 19 20  1  0
 20 21  1  0
 21 22  1  0
 22 26  1  0
 23 26  1  0
M  CHG  1  26   1
M  END
