RIC-ARG-a8e88843-1
     RDKit          3D

 22 23  0  0  0  0  0  0  0  0999 V2000
   10.6100   -1.4679   22.8032 C   0  0  0  0  0  0  0  0  0  0  0  0
    9.9201   -1.8116   23.9604 C   0  0  0  0  0  0  0  0  0  0  0  0
   11.4410   -0.3531   22.8010 C   0  0  0  0  0  0  0  0  0  0  0  0
   10.0940   -1.0142   25.0801 C   0  0  0  0  0  0  0  0  0  0  0  0
   11.5465    0.3791   23.9726 C   0  0  0  0  0  0  0  0  0  0  0  0
   10.6953    2.7878   22.6424 C   0  0  0  0  0  0  0  0  0  0  0  0
    7.5372    4.5028   21.9766 C   0  0  0  0  0  0  0  0  0  0  0  0
    7.2903    3.5263   23.1303 C   0  0  0  0  0  0  0  0  0  0  0  0
    8.1237    5.8477   22.3988 C   0  0  0  0  0  0  0  0  0  0  0  0
    8.3702    2.4716   23.3919 C   0  0  0  0  0  0  0  0  0  0  0  0
   10.0211    3.4894   25.0037 C   0  0  0  0  0  0  0  0  0  0  0  0
    9.5149    4.9067   25.2508 C   0  0  0  0  0  0  0  0  0  0  0  0
   13.0887    3.0885   22.1595 C   0  0  0  0  0  0  0  0  0  0  0  0
   12.4346    1.5892   24.0064 C   0  0  0  0  0  0  0  0  0  0  0  0
   10.8922    0.0762   25.1162 N   0  0  0  0  0  0  0  0  0  0  0  0
    9.5601    5.7320   22.6813 N   0  0  0  0  0  0  0  0  0  0  0  0
    9.7378    2.9242   23.6696 N   0  0  0  0  0  0  0  0  0  0  0  0
   12.0291    2.5927   23.0248 N   0  0  0  0  0  0  0  0  0  0  0  0
   10.3799    2.8408   21.4466 O   0  0  0  0  0  0  0  0  0  0  0  0
   11.6435    5.9644   24.1417 O   0  0  0  0  0  0  0  0  0  0  0  0
    9.6525    7.4342   24.5928 O   0  0  0  0  0  0  0  0  0  0  0  0
   10.2065    6.1578   24.1817 S   0  0  0  0  0  0  0  0  0  0  0  0
  1  2  2  0
  1  3  1  0
  2  4  1  0
  3  5  2  0
  4 15  2  0
  5 14  1  0
  5 15  1  0
  6 17  1  0
  6 18  1  0
  6 19  2  0
  7  8  1  0
  7  9  1  0
  8 10  1  0
  9 16  1  0
 10 17  1  0
 11 12  1  0
 11 17  1  0
 12 22  1  0
 13 18  1  0
 14 18  1  0
 16 22  1  0
 20 22  2  0
 21 22  2  0
M  END
