ROB-UNI-b2e39629-5
     RDKit          3D

 26 27  0  0  0  0  0  0  0  0999 V2000
    9.5275   -4.9231   25.5476 C   0  0  0  0  0  0  0  0  0  0  0  0
   10.1007   -3.1103   24.0114 C   0  0  0  0  0  0  0  0  0  0  0  0
    7.9107   -4.1522   23.8885 C   0  0  0  0  0  0  0  0  0  0  0  0
    9.5499   -0.7313   21.2916 C   0  0  0  0  0  0  0  0  0  0  0  0
    9.1732   -4.0530   24.4698 C   0  0  0  0  0  0  0  0  0  0  0  0
    9.7445   -2.2558   22.9492 C   0  0  0  0  0  0  0  0  0  0  0  0
    7.5349   -3.3154   22.8338 C   0  0  0  0  0  0  0  0  0  0  0  0
   10.4129   -1.2129   22.2488 C   0  0  0  0  0  0  0  0  0  0  0  0
    8.4724   -2.3779   22.3860 C   0  0  0  0  0  0  0  0  0  0  0  0
   11.4639    2.2134   24.0307 C   0  0  0  0  0  0  0  0  0  0  0  0
   10.4052    3.1790   24.4492 C   0  0  0  0  0  0  0  0  0  0  0  0
    7.5819   -0.3311   19.3336 C   0  0  0  0  0  0  0  0  0  0  0  0
    3.0411   -4.4599   25.5368 C   0  0  0  0  0  0  0  0  0  0  0  0
    6.1685   -3.4695   22.2501 C   0  0  0  0  0  0  0  0  0  0  0  0
   11.7857   -0.7273   22.4959 C   0  0  0  0  0  0  0  0  0  0  0  0
    7.2391   -1.2095   20.5245 C   0  0  0  0  0  0  0  0  0  0  0  0
    5.1188   -3.9317   23.2668 C   0  0  0  0  0  0  0  0  0  0  0  0
   12.0196   -0.2079   23.9261 C   0  0  0  0  0  0  0  0  0  0  0  0
    9.8151   -5.6293   26.4225 N   0  0  0  0  0  0  0  0  0  0  0  0
    8.3820   -1.4399   21.3823 N   0  0  0  0  0  0  0  0  0  0  0  0
   11.1438    0.8842   24.2564 N   0  0  0  0  0  0  0  0  0  0  0  0
    4.9603   -3.0005   24.3516 N   0  0  0  0  0  0  0  0  0  0  0  0
   12.5028    2.6334   23.5348 O   0  0  0  0  0  0  0  0  0  0  0  0
    4.1614   -2.4290   26.7494 O   0  0  0  0  0  0  0  0  0  0  0  0
    5.5086   -4.5280   26.3807 O   0  0  0  0  0  0  0  0  0  0  0  0
    4.5271   -3.5631   25.9235 S   0  0  0  0  0  0  0  0  0  0  0  0
  1  5  1  0
  1 19  3  0
  2  5  2  0
  2  6  1  0
  3  5  1  0
  3  7  2  0
  4  8  2  0
  4 20  1  0
  6  8  1  0
  6  9  2  0
  7  9  1  0
  7 14  1  0
  8 15  1  0
  9 20  1  0
 10 11  1  0
 10 21  1  0
 10 23  2  0
 12 16  1  0
 13 26  1  0
 14 17  1  0
 15 18  1  0
 16 20  1  0
 17 22  1  0
 18 21  1  0
 22 26  1  0
 24 26  2  0
 25 26  2  0
M  END
