ROB-UNI-b2e39629-8
     RDKit          3D

 25 26  0  0  1  0  0  0  0  0999 V2000
    4.4855   -5.1094   22.8731 C   0  0  0  0  0  0  0  0  0  0  0  0
    6.8382   -4.7798   23.4483 C   0  0  0  0  0  0  0  0  0  0  0  0
    5.6855   -3.1356   22.0827 C   0  0  0  0  0  0  0  0  0  0  0  0
   10.0650   -3.0630   23.4786 C   0  0  0  0  0  0  0  0  0  0  0  0
    5.6825   -4.3309   22.7989 C   0  0  0  0  0  0  0  0  0  0  0  0
    8.0140   -4.0071   23.3712 C   0  0  0  0  0  0  0  0  0  0  0  0
    6.8397   -2.3524   21.9923 C   0  0  0  0  0  0  0  0  0  0  0  0
    9.3309   -4.1512   23.8907 C   0  0  0  0  0  0  0  0  0  0  0  0
    7.9876   -2.8136   22.6464 C   0  0  0  0  0  0  0  0  0  0  0  0
    7.8496   -5.4495   27.3962 C   0  0  0  0  0  0  0  0  0  0  0  0
    6.5912   -2.1218   18.9590 C   0  0  0  0  0  0  0  0  0  0  0  0
    6.6038   -4.8390   27.9472 C   0  0  0  0  0  0  0  0  0  0  0  0
    7.2107   -2.1538   17.6012 C   0  0  0  0  0  0  0  0  0  0  0  0
   11.1908   -0.8675   22.1446 C   0  0  0  0  0  0  0  0  0  0  0  0
    5.3959   -0.4235   21.2263 C   0  0  0  0  0  0  0  0  0  0  0  0
    9.8308   -5.2645   24.7227 C   0  0  0  0  0  0  0  0  0  0  0  0
    9.6797   -1.0210   22.1226 C   0  0  0  0  0  0  0  0  0  0  0  0
    9.9724   -4.9174   26.2159 C   0  0  0  0  0  0  0  0  0  0  0  0
    6.7826   -1.0815   21.2092 C   0  0  0  0  0  0  0  0  0  0  0  0
    3.5140   -5.7414   22.9334 N   0  0  0  0  0  0  0  0  0  0  0  0
    9.2462   -2.2617   22.7290 N   0  0  0  0  0  0  0  0  0  0  0  0
    8.7158   -4.5425   26.8069 N   0  0  0  0  0  0  0  0  0  0  0  0
    7.2216   -1.2674   19.8375 N   0  0  0  0  0  0  0  0  0  0  0  0
    8.0246   -6.6584   27.4945 O   0  0  0  0  0  0  0  0  0  0  0  0
    5.6116   -2.8199   19.1927 O   0  0  0  0  0  0  0  0  0  0  0  0
  1  5  1  0
  1 20  3  0
  2  5  2  0
  2  6  1  0
  3  5  1  0
  3  7  2  0
  4  8  2  0
  4 21  1  0
  6  8  1  0
  6  9  2  0
  7  9  1  0
  7 19  1  0
  8 16  1  0
  9 21  1  0
 10 12  1  0
 10 22  1  0
 10 24  2  0
 11 13  1  0
 11 23  1  0
 11 25  2  0
 14 17  1  0
 15 19  1  0
 16 18  1  0
 17 21  1  0
 18 22  1  0
 19 23  1  0
M  END
