RUT-UNI-630c5802-7
     RDKit          3D

 33 36  0  0  0  0  0  0  0  0999 V2000
    3.6440   -6.5663   25.5387 C   0  0  0  0  0  0  0  0  0  0  0  0
    4.3944   -7.3191   24.6355 C   0  0  0  0  0  0  0  0  0  0  0  0
    3.8736   -5.1962   25.6647 C   0  0  0  0  0  0  0  0  0  0  0  0
    5.3745   -6.7019   23.8583 C   0  0  0  0  0  0  0  0  0  0  0  0
    4.8537   -4.5790   24.8875 C   0  0  0  0  0  0  0  0  0  0  0  0
    8.6994   -2.9379   21.9183 C   0  0  0  0  0  0  0  0  0  0  0  0
    8.6132   -1.5627   23.9028 C   0  0  0  0  0  0  0  0  0  0  0  0
    9.6651   -2.0915   21.3737 C   0  0  0  0  0  0  0  0  0  0  0  0
    9.5790   -0.7163   23.3582 C   0  0  0  0  0  0  0  0  0  0  0  0
    6.1578    0.3031   20.2701 C   0  0  0  0  0  0  0  0  0  0  0  0
   13.6115   -0.4458   23.6223 C   0  0  0  0  0  0  0  0  0  0  0  0
    6.5980   -0.1425   19.0342 C   0  0  0  0  0  0  0  0  0  0  0  0
    8.7276    0.6314   19.4136 C   0  0  0  0  0  0  0  0  0  0  0  0
   14.0743   -1.3262   24.5751 C   0  0  0  0  0  0  0  0  0  0  0  0
   13.2087   -2.5420   22.9056 C   0  0  0  0  0  0  0  0  0  0  0  0
    5.6042   -5.3318   23.9843 C   0  0  0  0  0  0  0  0  0  0  0  0
    7.0757    0.9420   21.0962 C   0  0  0  0  0  0  0  0  0  0  0  0
   13.0639   -1.2149   22.5660 C   0  0  0  0  0  0  0  0  0  0  0  0
    8.3872    1.1134   20.6672 C   0  0  0  0  0  0  0  0  0  0  0  0
    8.1733   -2.6734   23.1828 C   0  0  0  0  0  0  0  0  0  0  0  0
   10.1050   -0.9808   22.0936 C   0  0  0  0  0  0  0  0  0  0  0  0
    6.6261   -4.6884   23.1740 C   0  0  0  0  0  0  0  0  0  0  0  0
   10.8373    1.2677   21.3045 C   0  0  0  0  0  0  0  0  0  0  0  0
    6.6330    1.4329   22.4347 C   0  0  0  0  0  0  0  0  0  0  0  0
   14.1564   -3.8107   24.8401 C   0  0  0  0  0  0  0  0  0  0  0  0
    9.4245    1.7987   21.5240 C   0  0  0  0  0  0  0  0  0  0  0  0
   12.4416   -0.6832   21.3074 C   0  0  0  0  0  0  0  0  0  0  0  0
    7.8637    0.0057   18.5830 N   0  0  0  0  0  0  0  0  0  0  0  0
   13.8238   -2.5976   24.1289 N   0  0  0  0  0  0  0  0  0  0  0  0
    7.1914   -3.5333   23.7363 N   0  0  0  0  0  0  0  0  0  0  0  0
   11.0709   -0.1340   21.5492 N   0  0  0  0  0  0  0  0  0  0  0  0
    6.9385   -5.1206   22.0557 O   0  0  0  0  0  0  0  0  0  0  0  0
   11.7190    2.0327   20.9045 O   0  0  0  0  0  0  0  0  0  0  0  0
  1  2  2  0
  1  3  1  0
  2  4  1  0
  3  5  2  0
  4 16  2  0
  5 16  1  0
  6  8  2  0
  6 20  1  0
  7  9  1  0
  7 20  2  0
  8 21  1  0
  9 21  2  0
 10 12  2  0
 10 17  1  0
 11 14  2  0
 11 18  1  0
 12 28  1  0
 13 19  1  0
 13 28  2  0
 14 29  1  0
 15 18  2  0
 15 29  1  0
 16 22  1  0
 17 19  2  0
 17 24  1  0
 18 27  1  0
 19 26  1  0
 20 30  1  0
 21 31  1  0
 22 30  1  0
 22 32  2  0
 23 26  1  0
 23 31  1  0
 23 33  2  0
 25 29  1  0
 27 31  1  0
M  END
