RUT-UNI-630c5802-1
     RDKit          3D

 34 38  0  0  0  0  0  0  0  0999 V2000
    4.5095   -6.8377   25.4150 C   0  0  0  0  0  0  0  0  0  0  0  0
    5.0429   -7.0753   24.1483 C   0  0  0  0  0  0  0  0  0  0  0  0
    4.8062   -5.6509   26.0853 C   0  0  0  0  0  0  0  0  0  0  0  0
    9.8240    7.4279   24.4722 C   0  0  0  0  0  0  0  0  0  0  0  0
   10.4105    6.2881   25.0307 C   0  0  0  0  0  0  0  0  0  0  0  0
    5.8730   -6.1262   23.5518 C   0  0  0  0  0  0  0  0  0  0  0  0
    5.6364   -4.7018   25.4889 C   0  0  0  0  0  0  0  0  0  0  0  0
    9.0232    7.3416   23.3258 C   0  0  0  0  0  0  0  0  0  0  0  0
   10.2201    5.0214   24.4673 C   0  0  0  0  0  0  0  0  0  0  0  0
    8.8829   -1.7140   22.8752 C   0  0  0  0  0  0  0  0  0  0  0  0
    9.2330   -1.3548   25.2386 C   0  0  0  0  0  0  0  0  0  0  0  0
    9.7524   -0.6621   22.5865 C   0  0  0  0  0  0  0  0  0  0  0  0
   10.1025   -0.3029   24.9499 C   0  0  0  0  0  0  0  0  0  0  0  0
   13.6570   -0.3884   22.0270 C   0  0  0  0  0  0  0  0  0  0  0  0
   14.3550   -1.5614   21.8415 C   0  0  0  0  0  0  0  0  0  0  0  0
   13.8514   -1.1515   24.2138 C   0  0  0  0  0  0  0  0  0  0  0  0
    6.1697   -4.9395   24.2221 C   0  0  0  0  0  0  0  0  0  0  0  0
   13.3654   -0.1508   23.4012 C   0  0  0  0  0  0  0  0  0  0  0  0
    8.8245    6.0777   22.7513 C   0  0  0  0  0  0  0  0  0  0  0  0
    9.4196    4.9643   23.3284 C   0  0  0  0  0  0  0  0  0  0  0  0
    8.6232   -2.0603   24.2012 C   0  0  0  0  0  0  0  0  0  0  0  0
   10.3622    0.0434   23.6238 C   0  0  0  0  0  0  0  0  0  0  0  0
    7.0464   -3.9373   23.5922 C   0  0  0  0  0  0  0  0  0  0  0  0
   10.8299    2.2678   22.5993 C   0  0  0  0  0  0  0  0  0  0  0  0
   12.6154    1.0494   23.9025 C   0  0  0  0  0  0  0  0  0  0  0  0
    9.3326    2.5392   22.6395 C   0  0  0  0  0  0  0  0  0  0  0  0
    8.1063    5.6904   21.6509 N   0  0  0  0  0  0  0  0  0  0  0  0
    8.2315    4.3742   21.5199 N   0  0  0  0  0  0  0  0  0  0  0  0
    9.0155    3.9407   22.5209 N   0  0  0  0  0  0  0  0  0  0  0  0
    7.7533   -3.1120   24.4902 N   0  0  0  0  0  0  0  0  0  0  0  0
   11.2654    1.1360   23.3243 N   0  0  0  0  0  0  0  0  0  0  0  0
    7.1087   -3.8307   22.3692 O   0  0  0  0  0  0  0  0  0  0  0  0
   11.5636    3.0031   21.9336 O   0  0  0  0  0  0  0  0  0  0  0  0
   14.6559   -2.3708   23.3203 S   0  0  0  0  0  0  0  0  0  0  0  0
  1  2  2  0
  1  3  1  0
  2  6  1  0
  3  7  2  0
  4  5  2  0
  4  8  1  0
  5  9  1  0
  6 17  2  0
  7 17  1  0
  8 19  2  0
  9 20  2  0
 10 12  2  0
 10 21  1  0
 11 13  1  0
 11 21  2  0
 12 22  1  0
 13 22  2  0
 14 15  2  0
 14 18  1  0
 15 34  1  0
 16 18  2  0
 16 34  1  0
 17 23  1  0
 18 25  1  0
 19 20  1  0
 19 27  1  0
 20 29  1  0
 21 30  1  0
 22 31  1  0
 23 30  1  0
 23 32  2  0
 24 26  1  0
 24 31  1  0
 24 33  2  0
 25 31  1  0
 26 29  1  0
 27 28  2  0
 28 29  1  0
M  END
