RUT-UNI-630c5802-5
     RDKit          3D

 35 39  0  0  0  0  0  0  0  0999 V2000
    3.9928   -6.8445   24.2365 C   0  0  0  0  0  0  0  0  0  0  0  0
    4.0780   -6.1094   25.4188 C   0  0  0  0  0  0  0  0  0  0  0  0
    4.8280   -6.5372   23.1624 C   0  0  0  0  0  0  0  0  0  0  0  0
    8.4400    7.7221   23.2816 C   0  0  0  0  0  0  0  0  0  0  0  0
    8.4138    6.7739   22.2543 C   0  0  0  0  0  0  0  0  0  0  0  0
    4.9983   -5.0668   25.5271 C   0  0  0  0  0  0  0  0  0  0  0  0
    5.7483   -5.4946   23.2706 C   0  0  0  0  0  0  0  0  0  0  0  0
    8.7303    7.3514   24.6012 C   0  0  0  0  0  0  0  0  0  0  0  0
    8.6760    5.4223   22.5048 C   0  0  0  0  0  0  0  0  0  0  0  0
    8.7640   -1.4534   24.2050 C   0  0  0  0  0  0  0  0  0  0  0  0
    8.2799   -1.5268   21.8391 C   0  0  0  0  0  0  0  0  0  0  0  0
    9.6744   -0.4194   23.9866 C   0  0  0  0  0  0  0  0  0  0  0  0
    9.1903   -0.4929   21.6207 C   0  0  0  0  0  0  0  0  0  0  0  0
   12.8479   -1.6581   21.7974 C   0  0  0  0  0  0  0  0  0  0  0  0
   13.6961   -2.3555   22.6288 C   0  0  0  0  0  0  0  0  0  0  0  0
   13.6395   -0.2380   23.3551 C   0  0  0  0  0  0  0  0  0  0  0  0
    5.8335   -4.7594   24.4529 C   0  0  0  0  0  0  0  0  0  0  0  0
   12.8119   -0.3185   22.2569 C   0  0  0  0  0  0  0  0  0  0  0  0
    8.9948    5.9997   24.8656 C   0  0  0  0  0  0  0  0  0  0  0  0
    8.9616    5.0814   23.8252 C   0  0  0  0  0  0  0  0  0  0  0  0
    8.0668   -2.0071   23.1312 C   0  0  0  0  0  0  0  0  0  0  0  0
    9.8876    0.0608   22.6945 C   0  0  0  0  0  0  0  0  0  0  0  0
    6.8052   -3.6584   24.5673 C   0  0  0  0  0  0  0  0  0  0  0  0
   10.6674    2.3977   23.0790 C   0  0  0  0  0  0  0  0  0  0  0  0
   15.0940   -1.8210   24.6314 C   0  0  0  0  0  0  0  0  0  0  0  0
   12.0179    0.8068   21.6590 C   0  0  0  0  0  0  0  0  0  0  0  0
    9.3673    2.5917   23.8464 C   0  0  0  0  0  0  0  0  0  0  0  0
    9.3032    5.3531   26.0332 N   0  0  0  0  0  0  0  0  0  0  0  0
    9.4639    4.0630   25.7593 N   0  0  0  0  0  0  0  0  0  0  0  0
   14.1718   -1.4821   23.5718 N   0  0  0  0  0  0  0  0  0  0  0  0
    9.2598    3.9006   24.4415 N   0  0  0  0  0  0  0  0  0  0  0  0
    7.1564   -3.0415   23.3494 N   0  0  0  0  0  0  0  0  0  0  0  0
   10.8332    1.1349   22.4673 N   0  0  0  0  0  0  0  0  0  0  0  0
    7.2830   -3.3468   25.6561 O   0  0  0  0  0  0  0  0  0  0  0  0
   11.4731    3.3288   23.0021 O   0  0  0  0  0  0  0  0  0  0  0  0
  1  2  2  0
  1  3  1  0
  2  6  1  0
  3  7  2  0
  4  5  2  0
  4  8  1  0
  5  9  1  0
  6 17  2  0
  7 17  1  0
  8 19  2  0
  9 20  2  0
 10 12  2  0
 10 21  1  0
 11 13  1  0
 11 21  2  0
 12 22  1  0
 13 22  2  0
 14 15  2  0
 14 18  1  0
 15 30  1  0
 16 18  2  0
 16 30  1  0
 17 23  1  0
 18 26  1  0
 19 20  1  0
 19 28  1  0
 20 31  1  0
 21 32  1  0
 22 33  1  0
 23 32  1  0
 23 34  2  0
 24 27  1  0
 24 33  1  0
 24 35  2  0
 25 30  1  0
 26 33  1  0
 27 31  1  0
 28 29  2  0
 29 31  1  0
M  END
