RUT-UNI-630c5802-26
     RDKit          3D

 30 33  0  0  1  0  0  0  0  0999 V2000
    4.0381    1.3565   18.9530 C   0  0  0  0  0  0  0  0  0  0  0  0
    4.2616    1.2650   20.3302 C   0  0  0  0  0  0  0  0  0  0  0  0
    5.0427    1.0274   18.0335 C   0  0  0  0  0  0  0  0  0  0  0  0
    5.4939    0.8422   20.8409 C   0  0  0  0  0  0  0  0  0  0  0  0
    7.1159   -3.4004   23.8880 C   0  0  0  0  0  0  0  0  0  0  0  0
    9.4083   -3.6383   24.6128 C   0  0  0  0  0  0  0  0  0  0  0  0
    6.7576   -4.5069   24.6579 C   0  0  0  0  0  0  0  0  0  0  0  0
    9.0500   -4.7449   25.3828 C   0  0  0  0  0  0  0  0  0  0  0  0
    9.4827    1.5112   24.2762 C   0  0  0  0  0  0  0  0  0  0  0  0
    8.8778    2.2715   25.2526 C   0  0  0  0  0  0  0  0  0  0  0  0
    8.5956   -0.1391   25.6516 C   0  0  0  0  0  0  0  0  0  0  0  0
    9.3192    0.1148   24.5071 C   0  0  0  0  0  0  0  0  0  0  0  0
    6.2825    0.6022   18.5325 C   0  0  0  0  0  0  0  0  0  0  0  0
    6.4747    0.5212   19.9049 C   0  0  0  0  0  0  0  0  0  0  0  0
    8.4413   -2.9661   23.8654 C   0  0  0  0  0  0  0  0  0  0  0  0
    7.7246   -5.1792   25.4053 C   0  0  0  0  0  0  0  0  0  0  0  0
    8.1196   -1.4986   21.8755 C   0  0  0  0  0  0  0  0  0  0  0  0
    8.2087   -6.7387   27.2745 C   0  0  0  0  0  0  0  0  0  0  0  0
    9.8723   -0.9529   23.6080 C   0  0  0  0  0  0  0  0  0  0  0  0
    8.5101   -0.1823   21.2184 C   0  0  0  0  0  0  0  0  0  0  0  0
    6.1297   -7.0117   25.9137 C   0  0  0  0  0  0  0  0  0  0  0  0
    4.9930   -6.3810   26.6971 C   0  0  0  0  0  0  0  0  0  0  0  0
    7.4305    0.2213   17.8893 N   0  0  0  0  0  0  0  0  0  0  0  0
    8.3334   -0.0949   18.8113 N   0  0  0  0  0  0  0  0  0  0  0  0
    7.7632    0.0842   20.0143 N   0  0  0  0  0  0  0  0  0  0  0  0
    8.8135   -1.8176   23.0643 N   0  0  0  0  0  0  0  0  0  0  0  0
    7.3616   -6.2975   26.1843 N   0  0  0  0  0  0  0  0  0  0  0  0
    7.2253   -2.1860   21.3758 O   0  0  0  0  0  0  0  0  0  0  0  0
    5.2668   -6.4799   28.0889 O   0  0  0  0  0  0  0  0  0  0  0  0
    8.1166    1.3026   26.4418 S   0  0  0  0  0  0  0  0  0  0  0  0
  1  2  2  0
  1  3  1  0
  2  4  1  0
  3 13  2  0
  4 14  2  0
  5  7  2  0
  5 15  1  0
  6  8  1  0
  6 15  2  0
  7 16  1  0
  8 16  2  0
  9 10  2  0
  9 12  1  0
 10 30  1  0
 11 12  2  0
 11 30  1  0
 12 19  1  0
 13 14  1  0
 13 23  1  0
 14 25  1  0
 15 26  1  0
 16 27  1  0
 17 20  1  0
 17 26  1  0
 17 28  2  0
 18 27  1  0
 19 26  1  0
 20 25  1  0
 21 22  1  0
 21 27  1  0
 22 29  1  0
 23 24  2  0
 24 25  1  0
M  END
