RUT-UNI-630c5802-8
     RDKit          3D

 33 36  0  0  0  0  0  0  0  0999 V2000
    4.5302   -6.9442   24.6795 C   0  0  0  0  0  0  0  0  0  0  0  0
    5.2803   -6.7607   25.8410 C   0  0  0  0  0  0  0  0  0  0  0  0
    4.7208   -6.1001   23.5855 C   0  0  0  0  0  0  0  0  0  0  0  0
    6.2211   -5.7331   25.9086 C   0  0  0  0  0  0  0  0  0  0  0  0
    5.6615   -5.0724   23.6531 C   0  0  0  0  0  0  0  0  0  0  0  0
    9.8771    4.6722   22.9000 C   0  0  0  0  0  0  0  0  0  0  0  0
    9.4910   -1.7317   24.4546 C   0  0  0  0  0  0  0  0  0  0  0  0
    9.3428   -2.1975   22.0885 C   0  0  0  0  0  0  0  0  0  0  0  0
   10.4678   -0.7682   24.2037 C   0  0  0  0  0  0  0  0  0  0  0  0
   10.3196   -1.2339   21.8377 C   0  0  0  0  0  0  0  0  0  0  0  0
    9.8266    6.0240   23.2218 C   0  0  0  0  0  0  0  0  0  0  0  0
   13.9307   -2.4089   22.7253 C   0  0  0  0  0  0  0  0  0  0  0  0
   10.6180    4.2258   25.1154 C   0  0  0  0  0  0  0  0  0  0  0  0
   14.6317   -2.9598   23.7752 C   0  0  0  0  0  0  0  0  0  0  0  0
   14.4981   -0.7550   24.1439 C   0  0  0  0  0  0  0  0  0  0  0  0
    6.4117   -4.8889   24.8146 C   0  0  0  0  0  0  0  0  0  0  0  0
   10.2793    3.7495   23.8592 C   0  0  0  0  0  0  0  0  0  0  0  0
   13.8460   -1.0141   22.9586 C   0  0  0  0  0  0  0  0  0  0  0  0
    8.9285   -2.4465   23.3969 C   0  0  0  0  0  0  0  0  0  0  0  0
   10.8821   -0.5192   22.8953 C   0  0  0  0  0  0  0  0  0  0  0  0
   10.1854    6.3985   24.5066 C   0  0  0  0  0  0  0  0  0  0  0  0
    7.3924   -3.8174   24.8852 C   0  0  0  0  0  0  0  0  0  0  0  0
   11.7005    1.8333   22.9982 C   0  0  0  0  0  0  0  0  0  0  0  0
   15.7169   -2.1054   25.8590 C   0  0  0  0  0  0  0  0  0  0  0  0
   10.3452    2.2751   23.5407 C   0  0  0  0  0  0  0  0  0  0  0  0
   13.1696   -0.0036   22.0779 C   0  0  0  0  0  0  0  0  0  0  0  0
   10.5814    5.5312   25.4651 N   0  0  0  0  0  0  0  0  0  0  0  0
   14.9719   -1.9451   24.6313 N   0  0  0  0  0  0  0  0  0  0  0  0
   10.1280    7.7796   24.8190 N   0  0  0  0  0  0  0  0  0  0  0  0
    7.9359   -3.4262   23.6517 N   0  0  0  0  0  0  0  0  0  0  0  0
   11.8591    0.4445   22.6441 N   0  0  0  0  0  0  0  0  0  0  0  0
    7.7381   -3.3210   25.9664 O   0  0  0  0  0  0  0  0  0  0  0  0
   12.5988    2.6670   22.8543 O   0  0  0  0  0  0  0  0  0  0  0  0
  1  2  2  0
  1  3  1  0
  2  4  1  0
  3  5  2  0
  4 16  2  0
  5 16  1  0
  6 11  2  0
  6 17  1  0
  7  9  2  0
  7 19  1  0
  8 10  1  0
  8 19  2  0
  9 20  1  0
 10 20  2  0
 11 21  1  0
 12 14  2  0
 12 18  1  0
 13 17  2  0
 13 27  1  0
 14 28  1  0
 15 18  2  0
 15 28  1  0
 16 22  1  0
 17 25  1  0
 18 26  1  0
 19 30  1  0
 20 31  1  0
 21 27  2  0
 21 29  1  0
 22 30  1  0
 22 32  2  0
 23 25  1  0
 23 31  1  0
 23 33  2  0
 24 28  1  0
 26 31  1  0
M  END
