RUT-UNI-630c5802-13
     RDKit          3D

 35 39  0  0  0  0  0  0  0  0999 V2000
    4.9026   -7.2076   28.2010 C   0  0  0  0  0  0  0  0  0  0  0  0
    4.1367   -6.8528   27.0905 C   0  0  0  0  0  0  0  0  0  0  0  0
    6.2113   -6.7407   28.3237 C   0  0  0  0  0  0  0  0  0  0  0  0
   10.6369    6.5004   25.2958 C   0  0  0  0  0  0  0  0  0  0  0  0
    9.7400    5.8255   24.4621 C   0  0  0  0  0  0  0  0  0  0  0  0
    4.6795   -6.0311   26.1027 C   0  0  0  0  0  0  0  0  0  0  0  0
    6.7541   -5.9190   27.3359 C   0  0  0  0  0  0  0  0  0  0  0  0
   11.9495    6.0418   25.4684 C   0  0  0  0  0  0  0  0  0  0  0  0
   10.1185    4.6696   23.7703 C   0  0  0  0  0  0  0  0  0  0  0  0
    8.5020   -3.0634   23.5226 C   0  0  0  0  0  0  0  0  0  0  0  0
    8.7584   -1.7188   25.5134 C   0  0  0  0  0  0  0  0  0  0  0  0
    9.2035   -2.1082   22.7871 C   0  0  0  0  0  0  0  0  0  0  0  0
    9.4600   -0.7635   24.7779 C   0  0  0  0  0  0  0  0  0  0  0  0
    7.6864   -0.2146   20.2579 C   0  0  0  0  0  0  0  0  0  0  0  0
    6.9585    1.7417   21.0451 C   0  0  0  0  0  0  0  0  0  0  0  0
    5.9882   -5.5642   26.2254 C   0  0  0  0  0  0  0  0  0  0  0  0
   12.3415    4.8841   24.7805 C   0  0  0  0  0  0  0  0  0  0  0  0
   11.4289    4.2357   23.9598 C   0  0  0  0  0  0  0  0  0  0  0  0
    8.2794   -2.8687   24.8858 C   0  0  0  0  0  0  0  0  0  0  0  0
    9.6825   -0.9582   23.4147 C   0  0  0  0  0  0  0  0  0  0  0  0
    6.5564    0.6340   20.3356 C   0  0  0  0  0  0  0  0  0  0  0  0
    8.6986    0.4351   20.9253 C   0  0  0  0  0  0  0  0  0  0  0  0
    6.5613   -4.6965   25.1821 C   0  0  0  0  0  0  0  0  0  0  0  0
   11.4087    0.8336   23.2530 C   0  0  0  0  0  0  0  0  0  0  0  0
   10.1317    0.0875   21.2076 C   0  0  0  0  0  0  0  0  0  0  0  0
   11.7007    2.1561   22.5581 C   0  0  0  0  0  0  0  0  0  0  0  0
   13.5351    4.2125   24.7529 N   0  0  0  0  0  0  0  0  0  0  0  0
   13.4008    3.1672   23.9439 N   0  0  0  0  0  0  0  0  0  0  0  0
   12.1437    3.1808   23.4706 N   0  0  0  0  0  0  0  0  0  0  0  0
    7.5774   -3.8238   25.6215 N   0  0  0  0  0  0  0  0  0  0  0  0
   10.4113    0.0342   22.6509 N   0  0  0  0  0  0  0  0  0  0  0  0
    6.1386   -4.7304   24.0284 O   0  0  0  0  0  0  0  0  0  0  0  0
   12.0552    0.5173   24.2550 O   0  0  0  0  0  0  0  0  0  0  0  0
    8.2631    1.6283   21.4081 O   0  0  0  0  0  0  0  0  0  0  0  0
    5.3492    0.4089   19.8261 F   0  0  0  0  0  0  0  0  0  0  0  0
  1  2  2  0
  1  3  1  0
  2  6  1  0
  3  7  2  0
  4  5  2  0
  4  8  1  0
  5  9  1  0
  6 16  2  0
  7 16  1  0
  8 17  2  0
  9 18  2  0
 10 12  2  0
 10 19  1  0
 11 13  1  0
 11 19  2  0
 12 20  1  0
 13 20  2  0
 14 21  1  0
 14 22  2  0
 15 21  2  0
 15 34  1  0
 16 23  1  0
 17 18  1  0
 17 27  1  0
 18 29  1  0
 19 30  1  0
 20 31  1  0
 21 35  1  0
 22 25  1  0
 22 34  1  0
 23 30  1  0
 23 32  2  0
 24 26  1  0
 24 31  1  0
 24 33  2  0
 25 31  1  0
 26 29  1  0
 27 28  2  0
 28 29  1  0
M  END
