RUT-UNI-630c5802-27
     RDKit          3D

 30 34  0  0  0  0  0  0  0  0999 V2000
    4.3693    2.2231   18.2847 C   0  0  0  0  0  0  0  0  0  0  0  0
    4.3529    2.0030   19.6654 C   0  0  0  0  0  0  0  0  0  0  0  0
    7.3348   -1.9353   25.1646 C   0  0  0  0  0  0  0  0  0  0  0  0
    8.6590   -3.5929   24.0088 C   0  0  0  0  0  0  0  0  0  0  0  0
    5.3895    1.6984   17.4804 C   0  0  0  0  0  0  0  0  0  0  0  0
    5.3522    1.2522   20.2944 C   0  0  0  0  0  0  0  0  0  0  0  0
    7.9745   -0.9243   24.4477 C   0  0  0  0  0  0  0  0  0  0  0  0
    9.2987   -2.5818   23.2917 C   0  0  0  0  0  0  0  0  0  0  0  0
   12.7981   -0.9044   24.3172 C   0  0  0  0  0  0  0  0  0  0  0  0
   13.8977   -1.6083   23.8777 C   0  0  0  0  0  0  0  0  0  0  0  0
   12.5775   -0.6982   22.0126 C   0  0  0  0  0  0  0  0  0  0  0  0
    7.6770   -3.2697   24.9452 C   0  0  0  0  0  0  0  0  0  0  0  0
   12.0332   -0.3773   23.2368 C   0  0  0  0  0  0  0  0  0  0  0  0
    6.3973    0.9440   18.0987 C   0  0  0  0  0  0  0  0  0  0  0  0
    6.3542    0.7423   19.4715 C   0  0  0  0  0  0  0  0  0  0  0  0
    8.9565   -1.2475   23.5112 C   0  0  0  0  0  0  0  0  0  0  0  0
    9.1115    0.2581   21.5298 C   0  0  0  0  0  0  0  0  0  0  0  0
    7.1129   -4.3322   27.2245 C   0  0  0  0  0  0  0  0  0  0  0  0
    7.8604   -5.3627   26.4375 C   0  0  0  0  0  0  0  0  0  0  0  0
    6.9937   -4.3499   25.7112 C   0  0  0  0  0  0  0  0  0  0  0  0
    5.8780   -5.3932   23.7325 C   0  0  0  0  0  0  0  0  0  0  0  0
   10.7819    0.4333   23.4140 C   0  0  0  0  0  0  0  0  0  0  0  0
    7.9326   -0.5282   20.9740 C   0  0  0  0  0  0  0  0  0  0  0  0
    5.7005   -4.8321   25.1149 C   0  0  0  0  0  0  0  0  0  0  0  0
    7.5004    0.3176   17.5815 N   0  0  0  0  0  0  0  0  0  0  0  0
    8.1483   -0.2683   18.5825 N   0  0  0  0  0  0  0  0  0  0  0  0
    7.4645   -0.0148   19.7106 N   0  0  0  0  0  0  0  0  0  0  0  0
    9.6211   -0.1973   22.7664 N   0  0  0  0  0  0  0  0  0  0  0  0
    9.5718    1.2026   20.8831 O   0  0  0  0  0  0  0  0  0  0  0  0
   14.0046   -1.6316   22.1688 S   0  0  0  0  0  0  0  0  0  0  0  0
  1  2  2  0
  1  5  1  0
  2  6  1  0
  3  7  2  0
  3 12  1  0
  4  8  1  0
  4 12  2  0
  5 14  2  0
  6 15  2  0
  7 16  1  0
  8 16  2  0
  9 10  2  0
  9 13  1  0
 10 30  1  0
 11 13  2  0
 11 30  1  0
 12 20  1  0
 13 22  1  0
 14 15  1  0
 14 25  1  0
 15 27  1  0
 16 28  1  0
 17 23  1  0
 17 28  1  0
 17 29  2  0
 18 19  1  0
 18 20  1  0
 19 20  1  0
 20 24  1  0
 21 24  1  0
 22 28  1  0
 23 27  1  0
 25 26  2  0
 26 27  1  0
M  END
