RUT-UNI-630c5802-3
     RDKit          3D

 32 35  0  0  0  0  0  0  0  0999 V2000
    4.1155   -7.4615   29.1153 C   0  0  0  0  0  0  0  0  0  0  0  0
    3.5410   -6.1906   29.0962 C   0  0  0  0  0  0  0  0  0  0  0  0
    5.2707   -7.7159   28.3762 C   0  0  0  0  0  0  0  0  0  0  0  0
    4.1217   -5.1741   28.3379 C   0  0  0  0  0  0  0  0  0  0  0  0
    5.8514   -6.6994   27.6178 C   0  0  0  0  0  0  0  0  0  0  0  0
    6.5933    1.2663   19.6920 C   0  0  0  0  0  0  0  0  0  0  0  0
    7.3904   -2.6361   24.8940 C   0  0  0  0  0  0  0  0  0  0  0  0
    8.0200   -4.6452   23.7090 C   0  0  0  0  0  0  0  0  0  0  0  0
    8.1080   -1.8696   23.9758 C   0  0  0  0  0  0  0  0  0  0  0  0
    8.7376   -3.8787   22.7907 C   0  0  0  0  0  0  0  0  0  0  0  0
    6.0341    1.6797   18.4880 C   0  0  0  0  0  0  0  0  0  0  0  0
   12.9360   -1.3182   23.5334 C   0  0  0  0  0  0  0  0  0  0  0  0
    6.3693   -0.9864   18.9629 C   0  0  0  0  0  0  0  0  0  0  0  0
   13.3676   -0.3182   24.3767 C   0  0  0  0  0  0  0  0  0  0  0  0
   11.2258    0.2389   23.3035 C   0  0  0  0  0  0  0  0  0  0  0  0
    5.2769   -5.4285   27.5986 C   0  0  0  0  0  0  0  0  0  0  0  0
    6.7676   -0.0903   19.9418 C   0  0  0  0  0  0  0  0  0  0  0  0
   11.6953   -0.9955   22.9115 C   0  0  0  0  0  0  0  0  0  0  0  0
    7.3464   -4.0239   24.7607 C   0  0  0  0  0  0  0  0  0  0  0  0
    8.7816   -2.4909   22.9241 C   0  0  0  0  0  0  0  0  0  0  0  0
    5.6688    0.7044   17.5741 C   0  0  0  0  0  0  0  0  0  0  0  0
    5.8823   -4.3686   26.8080 C   0  0  0  0  0  0  0  0  0  0  0  0
    8.8895   -0.7058   21.1874 C   0  0  0  0  0  0  0  0  0  0  0  0
    7.3712   -0.5710   21.2396 C   0  0  0  0  0  0  0  0  0  0  0  0
   10.9844   -1.8968   21.9438 C   0  0  0  0  0  0  0  0  0  0  0  0
    5.8224   -0.6227   17.7812 N   0  0  0  0  0  0  0  0  0  0  0  0
    5.1009    1.1419   16.3516 N   0  0  0  0  0  0  0  0  0  0  0  0
    6.6174   -4.8031   25.6941 N   0  0  0  0  0  0  0  0  0  0  0  0
    9.4994   -1.7245   22.0056 N   0  0  0  0  0  0  0  0  0  0  0  0
    5.7769   -3.1763   27.1275 O   0  0  0  0  0  0  0  0  0  0  0  0
    9.5397    0.0292   20.4392 O   0  0  0  0  0  0  0  0  0  0  0  0
   12.2791    1.0031   24.4165 S   0  0  0  0  0  0  0  0  0  0  0  0
  1  2  2  0
  1  3  1  0
  2  4  1  0
  3  5  2  0
  4 16  2  0
  5 16  1  0
  6 11  2  0
  6 17  1  0
  7  9  2  0
  7 19  1  0
  8 10  1  0
  8 19  2  0
  9 20  1  0
 10 20  2  0
 11 21  1  0
 12 14  2  0
 12 18  1  0
 13 17  2  0
 13 26  1  0
 14 32  1  0
 15 18  2  0
 15 32  1  0
 16 22  1  0
 17 24  1  0
 18 25  1  0
 19 28  1  0
 20 29  1  0
 21 26  2  0
 21 27  1  0
 22 28  1  0
 22 30  2  0
 23 24  1  0
 23 29  1  0
 23 31  2  0
 25 29  1  0
M  END
