RUT-UNI-630c5802-25
     RDKit          3D

 38 43  0  0  0  0  0  0  0  0999 V2000
    4.2857    1.8324   19.2539 C   0  0  0  0  0  0  0  0  0  0  0  0
    4.6095    1.2171   20.4669 C   0  0  0  0  0  0  0  0  0  0  0  0
    6.7659   -5.8164   23.8529 C   0  0  0  0  0  0  0  0  0  0  0  0
    5.3059   -4.1184   24.7598 C   0  0  0  0  0  0  0  0  0  0  0  0
    9.0035   -3.4125   23.3876 C   0  0  0  0  0  0  0  0  0  0  0  0
    8.5307   -1.7337   25.0596 C   0  0  0  0  0  0  0  0  0  0  0  0
    5.1824    1.8263   18.1774 C   0  0  0  0  0  0  0  0  0  0  0  0
    5.8382    0.5734   20.6511 C   0  0  0  0  0  0  0  0  0  0  0  0
    5.7028   -6.3362   23.1146 C   0  0  0  0  0  0  0  0  0  0  0  0
    4.2428   -4.6382   24.0214 C   0  0  0  0  0  0  0  0  0  0  0  0
    9.6333   -2.4497   22.5990 C   0  0  0  0  0  0  0  0  0  0  0  0
    9.1605   -0.7709   24.2709 C   0  0  0  0  0  0  0  0  0  0  0  0
   13.3400   -1.0702   22.3491 C   0  0  0  0  0  0  0  0  0  0  0  0
   14.3480   -1.7679   22.9773 C   0  0  0  0  0  0  0  0  0  0  0  0
   13.0931   -0.3465   24.5440 C   0  0  0  0  0  0  0  0  0  0  0  0
    6.5675   -4.7075   24.6756 C   0  0  0  0  0  0  0  0  0  0  0  0
    8.4522   -3.0545   24.6179 C   0  0  0  0  0  0  0  0  0  0  0  0
   12.6131   -0.2466   23.2565 C   0  0  0  0  0  0  0  0  0  0  0  0
    6.4176    1.1844   18.3491 C   0  0  0  0  0  0  0  0  0  0  0  0
    6.7108    0.5821   19.5649 C   0  0  0  0  0  0  0  0  0  0  0  0
    4.4412   -5.7471   23.1988 C   0  0  0  0  0  0  0  0  0  0  0  0
    9.7118   -1.1289   23.0406 C   0  0  0  0  0  0  0  0  0  0  0  0
    9.9041    0.1682   20.9200 C   0  0  0  0  0  0  0  0  0  0  0  0
    7.7884   -5.5878   28.1852 C   0  0  0  0  0  0  0  0  0  0  0  0
    6.6984   -4.5895   27.8293 C   0  0  0  0  0  0  0  0  0  0  0  0
    8.3782   -6.2252   26.9375 C   0  0  0  0  0  0  0  0  0  0  0  0
    7.2204   -3.5345   26.8522 C   0  0  0  0  0  0  0  0  0  0  0  0
    8.8400   -5.1822   25.9124 C   0  0  0  0  0  0  0  0  0  0  0  0
    7.7495   -4.1288   25.4977 C   0  0  0  0  0  0  0  0  0  0  0  0
   11.4591    0.6259   22.8548 C   0  0  0  0  0  0  0  0  0  0  0  0
    8.7901   -0.6748   20.3156 C   0  0  0  0  0  0  0  0  0  0  0  0
    7.4743    1.0190   17.4932 N   0  0  0  0  0  0  0  0  0  0  0  0
    8.4176    0.3347   18.1312 N   0  0  0  0  0  0  0  0  0  0  0  0
    7.9622    0.0741   19.3677 N   0  0  0  0  0  0  0  0  0  0  0  0
    3.3665   -6.2712   22.4510 N   0  0  0  0  0  0  0  0  0  0  0  0
   10.3420   -0.1657   22.2522 N   0  0  0  0  0  0  0  0  0  0  0  0
   10.4086    1.0766   20.2548 O   0  0  0  0  0  0  0  0  0  0  0  0
   14.4151   -1.4293   24.6546 S   0  0  0  0  0  0  0  0  0  0  0  0
  1  2  2  0
  1  7  1  0
  2  8  1  0
  3  9  2  0
  3 16  1  0
  4 10  1  0
  4 16  2  0
  5 11  2  0
  5 17  1  0
  6 12  1  0
  6 17  2  0
  7 19  2  0
  8 20  2  0
  9 21  1  0
 10 21  2  0
 11 22  1  0
 12 22  2  0
 13 14  2  0
 13 18  1  0
 14 38  1  0
 15 18  2  0
 15 38  1  0
 16 29  1  0
 17 29  1  0
 18 30  1  0
 19 20  1  0
 19 32  1  0
 20 34  1  0
 21 35  1  0
 22 36  1  0
 23 31  1  0
 23 36  1  0
 23 37  2  0
 24 25  1  0
 24 26  1  0
 25 27  1  0
 26 28  1  0
 27 29  1  0
 28 29  1  0
 30 36  1  0
 31 34  1  0
 32 33  2  0
 33 34  1  0
M  END
