RUT-UNI-630c5802-2
     RDKit          3D

 31 34  0  0  0  0  0  0  0  0999 V2000
   11.3583    8.1347   25.8862 C   0  0  0  0  0  0  0  0  0  0  0  0
   12.6222    7.6575   25.5392 C   0  0  0  0  0  0  0  0  0  0  0  0
   10.2320    7.3368   25.6849 C   0  0  0  0  0  0  0  0  0  0  0  0
    5.9336   -5.8125   21.6329 C   0  0  0  0  0  0  0  0  0  0  0  0
   12.7599    6.3823   24.9909 C   0  0  0  0  0  0  0  0  0  0  0  0
   10.3697    6.0617   25.1365 C   0  0  0  0  0  0  0  0  0  0  0  0
    7.2031   -5.2607   21.7640 C   0  0  0  0  0  0  0  0  0  0  0  0
   11.6212    1.3829   23.4015 C   0  0  0  0  0  0  0  0  0  0  0  0
    9.5828    1.2197   24.6881 C   0  0  0  0  0  0  0  0  0  0  0  0
   11.5057    0.0386   23.0479 C   0  0  0  0  0  0  0  0  0  0  0  0
    9.4672   -0.1247   24.3344 C   0  0  0  0  0  0  0  0  0  0  0  0
   12.2290   -3.4621   25.2050 C   0  0  0  0  0  0  0  0  0  0  0  0
    5.1572   -5.9317   22.7743 C   0  0  0  0  0  0  0  0  0  0  0  0
    6.7977   -5.0127   24.0943 C   0  0  0  0  0  0  0  0  0  0  0  0
   13.2939   -3.3865   26.0755 C   0  0  0  0  0  0  0  0  0  0  0  0
   13.8084   -2.3690   23.8962 C   0  0  0  0  0  0  0  0  0  0  0  0
   11.6336    5.5844   24.7895 C   0  0  0  0  0  0  0  0  0  0  0  0
    7.6511   -4.8507   23.0148 C   0  0  0  0  0  0  0  0  0  0  0  0
   12.5270   -2.8728   23.9424 C   0  0  0  0  0  0  0  0  0  0  0  0
   10.6598    1.9735   24.2217 C   0  0  0  0  0  0  0  0  0  0  0  0
   10.4287   -0.7152   23.5143 C   0  0  0  0  0  0  0  0  0  0  0  0
   11.7772    4.2550   24.2177 C   0  0  0  0  0  0  0  0  0  0  0  0
    9.0428   -2.7303   23.0315 C   0  0  0  0  0  0  0  0  0  0  0  0
    9.0239   -4.2472   23.1899 C   0  0  0  0  0  0  0  0  0  0  0  0
   11.5566   -2.8085   22.7986 C   0  0  0  0  0  0  0  0  0  0  0  0
    5.5580   -5.5446   24.0060 N   0  0  0  0  0  0  0  0  0  0  0  0
   10.7772    3.3397   24.5815 N   0  0  0  0  0  0  0  0  0  0  0  0
   10.3128   -2.0598   23.1608 N   0  0  0  0  0  0  0  0  0  0  0  0
   12.7368    3.9580   23.4926 O   0  0  0  0  0  0  0  0  0  0  0  0
    7.9942   -2.1329   22.7745 O   0  0  0  0  0  0  0  0  0  0  0  0
   14.6461   -2.6076   25.3705 S   0  0  0  0  0  0  0  0  0  0  0  0
  1  2  2  0
  1  3  1  0
  2  5  1  0
  3  6  2  0
  4  7  2  0
  4 13  1  0
  5 17  2  0
  6 17  1  0
  7 18  1  0
  8 10  2  0
  8 20  1  0
  9 11  1  0
  9 20  2  0
 10 21  1  0
 11 21  2  0
 12 15  2  0
 12 19  1  0
 13 26  2  0
 14 18  2  0
 14 26  1  0
 15 31  1  0
 16 19  2  0
 16 31  1  0
 17 22  1  0
 18 24  1  0
 19 25  1  0
 20 27  1  0
 21 28  1  0
 22 27  1  0
 22 29  2  0
 23 24  1  0
 23 28  1  0
 23 30  2  0
 25 28  1  0
M  END
