RUT-UNI-630c5802-9
     RDKit          3D

 35 39  0  0  0  0  0  0  0  0999 V2000
    3.6288   -5.9069   25.5837 C   0  0  0  0  0  0  0  0  0  0  0  0
    3.8264   -5.0508   26.6670 C   0  0  0  0  0  0  0  0  0  0  0  0
    4.4255   -5.7864   24.4451 C   0  0  0  0  0  0  0  0  0  0  0  0
    9.5266    7.8369   25.8751 C   0  0  0  0  0  0  0  0  0  0  0  0
   10.0497    6.7029   26.5040 C   0  0  0  0  0  0  0  0  0  0  0  0
    4.8205   -4.0739   26.6116 C   0  0  0  0  0  0  0  0  0  0  0  0
    5.4196   -4.8095   24.3897 C   0  0  0  0  0  0  0  0  0  0  0  0
    8.9592    7.7582   24.5965 C   0  0  0  0  0  0  0  0  0  0  0  0
   10.0262    5.4498   25.8817 C   0  0  0  0  0  0  0  0  0  0  0  0
    8.7508   -0.9237   24.7104 C   0  0  0  0  0  0  0  0  0  0  0  0
    8.1390   -1.2290   22.3931 C   0  0  0  0  0  0  0  0  0  0  0  0
    9.7174    0.0082   24.3325 C   0  0  0  0  0  0  0  0  0  0  0  0
    9.1056   -0.2970   22.0152 C   0  0  0  0  0  0  0  0  0  0  0  0
   13.6691   -0.1155   23.5423 C   0  0  0  0  0  0  0  0  0  0  0  0
   12.6430   -1.6530   22.1333 C   0  0  0  0  0  0  0  0  0  0  0  0
    5.6172   -3.9533   25.4730 C   0  0  0  0  0  0  0  0  0  0  0  0
   12.7590   -0.3212   22.4654 C   0  0  0  0  0  0  0  0  0  0  0  0
    8.9295    6.5079   23.9618 C   0  0  0  0  0  0  0  0  0  0  0  0
    9.4564    5.3999   24.6112 C   0  0  0  0  0  0  0  0  0  0  0  0
    7.9617   -1.5424   23.7407 C   0  0  0  0  0  0  0  0  0  0  0  0
    9.8947    0.3216   22.9849 C   0  0  0  0  0  0  0  0  0  0  0  0
   14.2138   -1.2981   23.9924 C   0  0  0  0  0  0  0  0  0  0  0  0
    6.6670   -2.9217   25.4146 C   0  0  0  0  0  0  0  0  0  0  0  0
   10.8524    2.6225   23.0584 C   0  0  0  0  0  0  0  0  0  0  0  0
   12.0138    0.7848   21.7758 C   0  0  0  0  0  0  0  0  0  0  0  0
    9.6108    2.9985   23.8547 C   0  0  0  0  0  0  0  0  0  0  0  0
    8.4483    6.1303   22.7361 N   0  0  0  0  0  0  0  0  0  0  0  0
    8.6559    4.8255   22.5965 N   0  0  0  0  0  0  0  0  0  0  0  0
    9.2577    4.3894   23.7154 N   0  0  0  0  0  0  0  0  0  0  0  0
    6.9951   -2.4748   24.1185 N   0  0  0  0  0  0  0  0  0  0  0  0
   10.8987    1.2896   22.5919 N   0  0  0  0  0  0  0  0  0  0  0  0
    7.2216   -2.5249   26.4372 O   0  0  0  0  0  0  0  0  0  0  0  0
   11.7150    3.4765   22.8376 O   0  0  0  0  0  0  0  0  0  0  0  0
   15.0958   -1.3811   24.9938 F   0  0  0  0  0  0  0  0  0  0  0  0
   13.6285   -2.6489   23.1178 S   0  0  0  0  0  0  0  0  0  0  0  0
  1  2  2  0
  1  3  1  0
  2  6  1  0
  3  7  2  0
  4  5  2  0
  4  8  1  0
  5  9  1  0
  6 16  2  0
  7 16  1  0
  8 18  2  0
  9 19  2  0
 10 12  2  0
 10 20  1  0
 11 13  1  0
 11 20  2  0
 12 21  1  0
 13 21  2  0
 14 17  1  0
 14 22  2  0
 15 17  2  0
 15 35  1  0
 16 23  1  0
 17 25  1  0
 18 19  1  0
 18 27  1  0
 19 29  1  0
 20 30  1  0
 21 31  1  0
 22 34  1  0
 22 35  1  0
 23 30  1  0
 23 32  2  0
 24 26  1  0
 24 31  1  0
 24 33  2  0
 25 31  1  0
 26 29  1  0
 27 28  2  0
 28 29  1  0
M  END
