SAL-INS-cba98abe-9
     RDKit          3D

 25 28  0  0  0  0  0  0  0  0999 V2000
    7.1788   -4.5565   24.7750 C   0  0  0  0  0  0  0  0  0  0  0  0
    8.1836   -5.3504   24.2662 C   0  0  0  0  0  0  0  0  0  0  0  0
    7.0701    0.7559   18.4974 C   0  0  0  0  0  0  0  0  0  0  0  0
    5.1335   -0.0415   17.8116 C   0  0  0  0  0  0  0  0  0  0  0  0
    8.9188   -2.0576   22.9186 C   0  0  0  0  0  0  0  0  0  0  0  0
    8.5541   -3.3047   23.4898 C   0  0  0  0  0  0  0  0  0  0  0  0
    7.4331   -3.2504   24.2663 C   0  0  0  0  0  0  0  0  0  0  0  0
    8.0204   -1.0863   23.3062 C   0  0  0  0  0  0  0  0  0  0  0  0
    6.3547    0.2094   19.5367 C   0  0  0  0  0  0  0  0  0  0  0  0
    7.9622    0.6143   21.4333 C   0  0  0  0  0  0  0  0  0  0  0  0
   11.3890   -0.0846   23.2179 C   0  0  0  0  0  0  0  0  0  0  0  0
   12.6439   -1.9486   22.0571 C   0  0  0  0  0  0  0  0  0  0  0  0
   12.6577    0.2921   23.9771 C   0  0  0  0  0  0  0  0  0  0  0  0
   13.9089   -1.5669   22.8198 C   0  0  0  0  0  0  0  0  0  0  0  0
   11.3773   -1.5720   22.8384 C   0  0  0  0  0  0  0  0  0  0  0  0
   13.9151   -0.0880   23.1979 C   0  0  0  0  0  0  0  0  0  0  0  0
   10.1252   -1.9130   22.0326 C   0  0  0  0  0  0  0  0  0  0  0  0
    8.0254    0.3501   22.9392 C   0  0  0  0  0  0  0  0  0  0  0  0
    5.1503   -0.2855   19.1031 N   0  0  0  0  0  0  0  0  0  0  0  0
    6.2752    0.5874   17.3988 N   0  0  0  0  0  0  0  0  0  0  0  0
    9.0195   -4.5965   23.4869 N   0  0  0  0  0  0  0  0  0  0  0  0
    6.7691    0.1464   20.8884 N   0  0  0  0  0  0  0  0  0  0  0  0
    8.8813    1.1710   20.8413 O   0  0  0  0  0  0  0  0  0  0  0  0
   15.0674    0.1736   23.9914 O   0  0  0  0  0  0  0  0  0  0  0  0
    6.7629   -1.6543   24.3360 S   0  0  0  0  0  0  0  0  0  0  0  0
  1  2  2  0
  1  7  1  0
  2 21  1  0
  3  9  2  0
  3 20  1  0
  4 19  2  0
  4 20  1  0
  5  6  1  0
  5  8  2  0
  5 17  1  0
  6  7  2  0
  6 21  1  0
  7 25  1  0
  8 18  1  0
  8 25  1  0
  9 19  1  0
  9 22  1  0
 10 18  1  0
 10 22  1  0
 10 23  2  0
 11 13  1  0
 11 15  1  0
 12 14  1  0
 12 15  1  0
 13 16  1  0
 14 16  1  0
 15 17  1  0
 16 24  1  0
M  END
