SAL-INS-cba98abe-7
     RDKit          3D

 24 27  0  0  0  0  0  0  0  0999 V2000
   11.9934    2.9394   23.2826 C   0  0  0  0  0  0  0  0  0  0  0  0
    7.5272   -0.5461   21.4459 C   0  0  0  0  0  0  0  0  0  0  0  0
   12.8654   -0.5869   23.3509 C   0  0  0  0  0  0  0  0  0  0  0  0
    7.9591    5.9195   21.9206 C   0  0  0  0  0  0  0  0  0  0  0  0
    8.5225   -0.5771   20.5103 C   0  0  0  0  0  0  0  0  0  0  0  0
    6.0651    6.5936   22.8232 C   0  0  0  0  0  0  0  0  0  0  0  0
   11.5881   -0.5553   23.8668 C   0  0  0  0  0  0  0  0  0  0  0  0
   12.2459    1.5441   23.3472 C   0  0  0  0  0  0  0  0  0  0  0  0
   11.2085    0.8177   23.8561 C   0  0  0  0  0  0  0  0  0  0  0  0
    8.1701    6.5333   23.1327 C   0  0  0  0  0  0  0  0  0  0  0  0
   10.7294    3.2076   23.7634 C   0  0  0  0  0  0  0  0  0  0  0  0
    9.2226   -1.6923   22.2898 C   0  0  0  0  0  0  0  0  0  0  0  0
   10.5266    5.7089   23.5453 C   0  0  0  0  0  0  0  0  0  0  0  0
   10.7311   -1.6438   24.3460 C   0  0  0  0  0  0  0  0  0  0  0  0
    9.4769    6.7676   23.8443 C   0  0  0  0  0  0  0  0  0  0  0  0
   10.0807   -2.5038   23.2295 C   0  0  0  0  0  0  0  0  0  0  0  0
    6.9870    6.9504   23.6896 N   0  0  0  0  0  0  0  0  0  0  0  0
    6.6060    5.9653   21.7361 N   0  0  0  0  0  0  0  0  0  0  0  0
   13.2684    0.6827   23.0346 N   0  0  0  0  0  0  0  0  0  0  0  0
    7.9873   -1.2442   22.5363 N   0  0  0  0  0  0  0  0  0  0  0  0
    9.5593   -1.2925   21.0592 N   0  0  0  0  0  0  0  0  0  0  0  0
   10.0758    4.4048   23.8849 N   0  0  0  0  0  0  0  0  0  0  0  0
   11.6222    5.9881   23.0690 O   0  0  0  0  0  0  0  0  0  0  0  0
    9.8592    1.8164   24.2844 S   0  0  0  0  0  0  0  0  0  0  0  0
  1  8  1  0
  1 11  2  0
  2  5  2  0
  2 20  1  0
  3  7  2  0
  3 19  1  0
  4 10  2  0
  4 18  1  0
  5 21  1  0
  6 17  2  0
  6 18  1  0
  7  9  1  0
  7 14  1  0
  8  9  2  0
  8 19  1  0
  9 24  1  0
 10 15  1  0
 10 17  1  0
 11 22  1  0
 11 24  1  0
 12 16  1  0
 12 20  1  0
 12 21  2  0
 13 15  1  0
 13 22  1  0
 13 23  2  0
 14 16  1  0
M  CHG  1  21   1
M  END
