SAL-INS-cba98abe-8
     RDKit          3D

 25 28  0  0  0  0  0  0  0  0999 V2000
   13.4555   -1.9925   23.8561 C   0  0  0  0  0  0  0  0  0  0  0  0
    7.9837    0.2226   18.5464 C   0  0  0  0  0  0  0  0  0  0  0  0
   14.5664   -1.1794   23.7976 C   0  0  0  0  0  0  0  0  0  0  0  0
    6.1199    0.4088   17.5353 C   0  0  0  0  0  0  0  0  0  0  0  0
   11.9540    0.8153   22.2498 C   0  0  0  0  0  0  0  0  0  0  0  0
   12.9084   -0.0345   22.8675 C   0  0  0  0  0  0  0  0  0  0  0  0
   12.4042   -1.2420   23.2554 C   0  0  0  0  0  0  0  0  0  0  0  0
    7.0730    0.5717   19.5157 C   0  0  0  0  0  0  0  0  0  0  0  0
   10.7299    0.1832   22.1992 C   0  0  0  0  0  0  0  0  0  0  0  0
    8.2821   -0.0466   21.6509 C   0  0  0  0  0  0  0  0  0  0  0  0
   10.6336    3.6118   22.9714 C   0  0  0  0  0  0  0  0  0  0  0  0
   12.9637    4.4935   22.5357 C   0  0  0  0  0  0  0  0  0  0  0  0
   10.4161    4.7090   24.0090 C   0  0  0  0  0  0  0  0  0  0  0  0
   12.7397    5.5881   23.5747 C   0  0  0  0  0  0  0  0  0  0  0  0
   12.1187    3.2476   22.8359 C   0  0  0  0  0  0  0  0  0  0  0  0
   11.2616    5.9449   23.7085 C   0  0  0  0  0  0  0  0  0  0  0  0
   12.3174    2.1877   21.7540 C   0  0  0  0  0  0  0  0  0  0  0  0
    7.2061    0.8065   20.9975 C   0  0  0  0  0  0  0  0  0  0  0  0
    7.3841    0.1232   17.3159 N   0  0  0  0  0  0  0  0  0  0  0  0
   14.2400    0.0081   23.1996 N   0  0  0  0  0  0  0  0  0  0  0  0
    5.8838    0.6878   18.8528 N   0  0  0  0  0  0  0  0  0  0  0  0
    9.5350    0.6221   21.6934 N   0  0  0  0  0  0  0  0  0  0  0  0
    8.0556   -1.1747   22.0766 O   0  0  0  0  0  0  0  0  0  0  0  0
   11.1160    6.8920   24.7611 O   0  0  0  0  0  0  0  0  0  0  0  0
   10.7203   -1.3987   22.8790 S   0  0  0  0  0  0  0  0  0  0  0  0
  1  3  2  0
  1  7  1  0
  2  8  2  0
  2 19  1  0
  3 20  1  0
  4 19  2  0
  4 21  1  0
  5  6  1  0
  5  9  2  0
  5 17  1  0
  6  7  2  0
  6 20  1  0
  7 25  1  0
  8 18  1  0
  8 21  1  0
  9 22  1  0
  9 25  1  0
 10 18  1  0
 10 22  1  0
 10 23  2  0
 11 13  1  0
 11 15  1  0
 12 14  1  0
 12 15  1  0
 13 16  1  0
 14 16  1  0
 15 17  1  0
 16 24  1  0
M  END
