SAL-INS-1c7a5a55-11
     RDKit          3D

 23 25  0  0  1  0  0  0  0  0999 V2000
    5.3519   -4.6110   26.6469 C   0  0  0  0  0  0  0  0  0  0  0  0
    5.8756   -3.3851   26.2363 C   0  0  0  0  0  0  0  0  0  0  0  0
    5.8514   -5.7977   26.1102 C   0  0  0  0  0  0  0  0  0  0  0  0
    6.8986   -3.3459   25.2890 C   0  0  0  0  0  0  0  0  0  0  0  0
    6.8744   -5.7585   25.1629 C   0  0  0  0  0  0  0  0  0  0  0  0
   11.1403   -1.3290   25.8535 C   0  0  0  0  0  0  0  0  0  0  0  0
   12.3049   -0.5314   26.0472 C   0  0  0  0  0  0  0  0  0  0  0  0
    7.3981   -4.5326   24.7522 C   0  0  0  0  0  0  0  0  0  0  0  0
   11.4469   -2.5868   25.3827 C   0  0  0  0  0  0  0  0  0  0  0  0
   13.4575   -1.2101   25.7172 C   0  0  0  0  0  0  0  0  0  0  0  0
    6.7990   -2.4572   21.1413 C   0  0  0  0  0  0  0  0  0  0  0  0
    9.1562   -2.2897   21.7996 C   0  0  0  0  0  0  0  0  0  0  0  0
    7.9572   -4.4100   22.2822 C   0  0  0  0  0  0  0  0  0  0  0  0
   10.2037   -2.8994   22.7178 C   0  0  0  0  0  0  0  0  0  0  0  0
    8.5112   -4.4906   23.7211 C   0  0  0  0  0  0  0  0  0  0  0  0
   10.5131   -3.7141   25.0539 C   0  0  0  0  0  0  0  0  0  0  0  0
    6.9982   -1.0851   20.5493 C   0  0  0  0  0  0  0  0  0  0  0  0
    7.9029   -3.0406   21.7646 N   0  0  0  0  0  0  0  0  0  0  0  0
    9.5189   -3.3624   23.9782 N   0  0  0  0  0  0  0  0  0  0  0  0
    5.6947   -3.0010   21.0543 O   0  0  0  0  0  0  0  0  0  0  0  0
   13.1331   -2.8021   25.1761 S   0  0  0  0  0  0  0  0  0  0  0  0
    6.5718    0.0718   21.8053 Cl  0  0  0  0  0  0  0  0  0  0  0  0
   15.2070   -0.4814   25.8416 Br  0  0  0  0  0  0  0  0  0  0  0  0
  1  2  2  0
  1  3  1  0
  2  4  1  0
  3  5  2  0
  4  8  2  0
  5  8  1  0
  6  7  1  0
  6  9  2  0
  7 10  2  0
  8 15  1  0
  9 16  1  0
  9 21  1  0
 10 21  1  0
 10 23  1  0
 11 17  1  0
 11 18  1  0
 11 20  2  0
 12 14  1  0
 12 18  1  0
 13 15  1  0
 13 18  1  0
 14 19  1  0
 15 19  1  0
 16 19  1  0
 17 22  1  0
M  CHG  1  19   1
M  END
