SAL-INS-1c7a5a55-10
     RDKit          3D

 25 27  0  0  1  0  0  0  0  0999 V2000
    8.3932   -5.7633   24.3685 C   0  0  0  0  0  0  0  0  0  0  0  0
    9.5100   -5.5048   25.1633 C   0  0  0  0  0  0  0  0  0  0  0  0
   10.0409   -3.5869   23.7932 C   0  0  0  0  0  0  0  0  0  0  0  0
    8.8292   -0.5858   23.0345 C   0  0  0  0  0  0  0  0  0  0  0  0
   10.1597    0.3814   21.6838 C   0  0  0  0  0  0  0  0  0  0  0  0
    8.9242   -3.8455   22.9985 C   0  0  0  0  0  0  0  0  0  0  0  0
    8.1003   -4.9337   23.2861 C   0  0  0  0  0  0  0  0  0  0  0  0
   10.3338   -4.4166   24.8757 C   0  0  0  0  0  0  0  0  0  0  0  0
    9.0987   -1.5138   22.0564 C   0  0  0  0  0  0  0  0  0  0  0  0
    5.5447   -4.4843   24.2900 C   0  0  0  0  0  0  0  0  0  0  0  0
    4.9851   -5.0307   25.3743 C   0  0  0  0  0  0  0  0  0  0  0  0
    7.1733   -5.4812   21.0875 C   0  0  0  0  0  0  0  0  0  0  0  0
    5.3266   -6.7737   23.4800 C   0  0  0  0  0  0  0  0  0  0  0  0
    5.6285   -5.3373   23.0584 C   0  0  0  0  0  0  0  0  0  0  0  0
    8.6348   -2.9398   21.8457 C   0  0  0  0  0  0  0  0  0  0  0  0
    8.5794   -5.9636   20.7779 C   0  0  0  0  0  0  0  0  0  0  0  0
    9.4924    0.5919   22.7966 N   0  0  0  0  0  0  0  0  0  0  0  0
    9.9520   -0.8796   21.1980 N   0  0  0  0  0  0  0  0  0  0  0  0
    6.9369   -5.2189   22.4742 N   0  0  0  0  0  0  0  0  0  0  0  0
    6.3605   -5.3157   20.1743 O   0  0  0  0  0  0  0  0  0  0  0  0
    5.1031   -7.5618   25.9901 O   0  0  0  0  0  0  0  0  0  0  0  0
    3.0485   -6.6722   24.8071 O   0  0  0  0  0  0  0  0  0  0  0  0
   11.4059   -4.1680   25.6393 F   0  0  0  0  0  0  0  0  0  0  0  0
    4.4764   -6.6511   25.0537 S   0  0  0  0  0  0  0  0  0  0  0  0
    8.6432   -7.7377   20.8408 Cl  0  0  0  0  0  0  0  0  0  0  0  0
  1  2  2  0
  1  7  1  0
  2  8  1  0
  3  6  1  0
  3  8  2  0
  4  9  2  0
  4 17  1  0
  5 17  2  0
  5 18  1  0
  6  7  2  0
  6 15  1  0
  7 19  1  0
  8 23  1  0
  9 15  1  0
  9 18  1  0
 10 11  2  0
 10 14  1  0
 11 24  1  0
 12 16  1  0
 12 19  1  0
 12 20  2  0
 13 14  1  0
 13 24  1  0
 14 19  1  0
 16 25  1  0
 21 24  2  0
 22 24  2  0
M  END
