SAL-INS-1c7a5a55-6
     RDKit          3D

 26 29  0  0  1  0  0  0  0  0999 V2000
   13.4128   -2.6160   26.6284 C   0  0  0  0  0  0  0  0  0  0  0  0
   12.3942   -3.4982   26.2677 C   0  0  0  0  0  0  0  0  0  0  0  0
   13.5951   -1.4350   25.9156 C   0  0  0  0  0  0  0  0  0  0  0  0
   10.5166   -4.0871   24.8085 C   0  0  0  0  0  0  0  0  0  0  0  0
   10.8783   -1.7223   23.3848 C   0  0  0  0  0  0  0  0  0  0  0  0
    6.5592   -3.7301   24.6459 C   0  0  0  0  0  0  0  0  0  0  0  0
    6.0195   -5.5682   25.7353 C   0  0  0  0  0  0  0  0  0  0  0  0
   11.5446   -3.2095   25.1870 C   0  0  0  0  0  0  0  0  0  0  0  0
   11.7291   -2.0107   24.4639 C   0  0  0  0  0  0  0  0  0  0  0  0
    9.8470   -2.5991   23.0130 C   0  0  0  0  0  0  0  0  0  0  0  0
    9.6700   -3.7952   23.7259 C   0  0  0  0  0  0  0  0  0  0  0  0
   12.7593   -1.1330   24.8402 C   0  0  0  0  0  0  0  0  0  0  0  0
    7.3956   -4.7717   24.3202 C   0  0  0  0  0  0  0  0  0  0  0  0
    6.6249   -2.7722   21.0429 C   0  0  0  0  0  0  0  0  0  0  0  0
    8.9664   -2.2288   21.8442 C   0  0  0  0  0  0  0  0  0  0  0  0
    8.1033   -4.5555   21.9005 C   0  0  0  0  0  0  0  0  0  0  0  0
    8.5691   -4.7701   23.3496 C   0  0  0  0  0  0  0  0  0  0  0  0
    6.4873   -1.3238   20.6442 C   0  0  0  0  0  0  0  0  0  0  0  0
    7.0542   -5.9131   25.0015 N   0  0  0  0  0  0  0  0  0  0  0  0
    5.6828   -4.2557   25.5530 N   0  0  0  0  0  0  0  0  0  0  0  0
    7.8412   -3.1449   21.6197 N   0  0  0  0  0  0  0  0  0  0  0  0
   12.9996    0.0931   24.1525 N   0  0  0  0  0  0  0  0  0  0  0  0
    5.6807   -3.5434   20.8551 O   0  0  0  0  0  0  0  0  0  0  0  0
   13.9352    0.8280   24.5417 O   0  0  0  0  0  0  0  0  0  0  0  0
   12.2670    0.3928   23.1827 O   0  0  0  0  0  0  0  0  0  0  0  0
    5.4231   -1.2870   19.2431 Cl  0  0  0  0  0  0  0  0  0  0  0  0
  1  2  2  0
  1  3  1  0
  2  8  1  0
  3 12  2  0
  4  8  2  0
  4 11  1  0
  5  9  2  0
  5 10  1  0
  6 13  2  0
  6 20  1  0
  7 19  2  0
  7 20  1  0
  8  9  1  0
  9 12  1  0
 10 11  2  0
 10 15  1  0
 11 17  1  0
 12 22  1  0
 13 17  1  0
 13 19  1  0
 14 18  1  0
 14 21  1  0
 14 23  2  0
 15 21  1  0
 16 17  1  0
 16 21  1  0
 18 26  1  0
 22 24  1  0
 22 25  2  0
M  CHG  2  22   1  24  -1
M  END
