SAL-INS-3161d1be-3
     RDKit          3D

 26 29  0  0  0  0  0  0  0  0999 V2000
    7.0908    6.9049   22.2082 C   0  0  0  0  0  0  0  0  0  0  0  0
   11.7076   -1.7084   23.5145 C   0  0  0  0  0  0  0  0  0  0  0  0
    6.0230    7.7745   22.2962 C   0  0  0  0  0  0  0  0  0  0  0  0
   10.8062   -2.7377   23.3512 C   0  0  0  0  0  0  0  0  0  0  0  0
    4.6612    6.1079   23.0277 C   0  0  0  0  0  0  0  0  0  0  0  0
    8.8461    0.2437   22.6667 C   0  0  0  0  0  0  0  0  0  0  0  0
    9.6886   -0.8628   22.9499 C   0  0  0  0  0  0  0  0  0  0  0  0
   10.9732   -0.5161   23.2537 C   0  0  0  0  0  0  0  0  0  0  0  0
    6.8286    5.5990   22.5689 C   0  0  0  0  0  0  0  0  0  0  0  0
    9.5632    1.4162   22.7756 C   0  0  0  0  0  0  0  0  0  0  0  0
    7.8717    3.3022   22.8042 C   0  0  0  0  0  0  0  0  0  0  0  0
    5.5861    0.9357   20.7895 C   0  0  0  0  0  0  0  0  0  0  0  0
    7.5466   -0.3412   19.8288 C   0  0  0  0  0  0  0  0  0  0  0  0
    5.2411    1.4486   19.3946 C   0  0  0  0  0  0  0  0  0  0  0  0
    7.1961    0.1755   18.4367 C   0  0  0  0  0  0  0  0  0  0  0  0
    7.0841    0.6289   20.9249 C   0  0  0  0  0  0  0  0  0  0  0  0
    5.7064    0.4823   18.3073 C   0  0  0  0  0  0  0  0  0  0  0  0
    7.3960    0.0657   22.3102 C   0  0  0  0  0  0  0  0  0  0  0  0
    4.7899    7.4086   22.7036 N   0  0  0  0  0  0  0  0  0  0  0  0
    5.6211    5.1643   22.9850 N   0  0  0  0  0  0  0  0  0  0  0  0
    9.5815   -2.2304   23.0090 N   0  0  0  0  0  0  0  0  0  0  0  0
    7.8941    4.6711   22.4930 N   0  0  0  0  0  0  0  0  0  0  0  0
    9.1599    2.7125   22.5937 N   0  0  0  0  0  0  0  0  0  0  0  0
    6.8916    2.6811   23.2027 O   0  0  0  0  0  0  0  0  0  0  0  0
    5.4697    1.0540   17.0255 O   0  0  0  0  0  0  0  0  0  0  0  0
   11.2156    1.1988   23.2078 S   0  0  0  0  0  0  0  0  0  0  0  0
  1  3  2  0
  1  9  1  0
  2  4  2  0
  2  8  1  0
  3 19  1  0
  4 21  1  0
  5 19  2  0
  5 20  1  0
  6  7  1  0
  6 10  2  0
  6 18  1  0
  7  8  2  0
  7 21  1  0
  8 26  1  0
  9 20  2  0
  9 22  1  0
 10 23  1  0
 10 26  1  0
 11 22  1  0
 11 23  1  0
 11 24  2  0
 12 14  1  0
 12 16  1  0
 13 15  1  0
 13 16  1  0
 14 17  1  0
 15 17  1  0
 16 18  1  0
 17 25  1  0
M  END
