SAL-INS-68b48d12-4
     RDKit          3D

 43 44  0  0  1  0  0  0  0  0999 V2000
   13.7791   -3.1450   24.4275 C   0  0  0  0  0  0  0  0  0  0  0  0
    6.0947   -1.0047   18.2609 C   0  0  0  0  0  0  0  0  0  0  0  0
   14.1249   -2.0887   25.2702 C   0  0  0  0  0  0  0  0  0  0  0  0
   13.3864   -2.8894   23.1137 C   0  0  0  0  0  0  0  0  0  0  0  0
    7.2028   -0.1657   18.1440 C   0  0  0  0  0  0  0  0  0  0  0  0
    5.6179   -1.3588   19.5230 C   0  0  0  0  0  0  0  0  0  0  0  0
   14.0779   -0.7766   24.7991 C   0  0  0  0  0  0  0  0  0  0  0  0
   13.3394   -1.5774   22.6425 C   0  0  0  0  0  0  0  0  0  0  0  0
    7.8342    0.3192   19.2894 C   0  0  0  0  0  0  0  0  0  0  0  0
    6.2493   -0.8739   20.6683 C   0  0  0  0  0  0  0  0  0  0  0  0
   13.6852   -0.5209   23.4852 C   0  0  0  0  0  0  0  0  0  0  0  0
    7.3575   -0.0349   20.5516 C   0  0  0  0  0  0  0  0  0  0  0  0
    6.5529   -5.0191   22.1141 C   0  0  0  0  0  0  0  0  0  0  0  0
   12.7896    6.0204   24.2037 C   0  0  0  0  0  0  0  0  0  0  0  0
   12.2680    2.9764   22.6348 C   0  0  0  0  0  0  0  0  0  0  0  0
   10.1004    0.3276   23.2158 C   0  0  0  0  0  0  0  0  0  0  0  0
    8.9086   -2.8781   22.6508 C   0  0  0  0  0  0  0  0  0  0  0  0
    6.3727    3.5575   22.4759 C   0  0  0  0  0  0  0  0  0  0  0  0
    6.3015   -6.2721   21.3427 C   0  0  0  0  0  0  0  0  0  0  0  0
   13.6339    0.8985   22.9749 C   0  0  0  0  0  0  0  0  0  0  0  0
    8.0404    0.4893   21.7912 C   0  0  0  0  0  0  0  0  0  0  0  0
    9.3134    5.0567   22.7086 C   0  0  0  0  0  0  0  0  0  0  0  0
   10.3344    5.7737   23.6043 C   0  0  0  0  0  0  0  0  0  0  0  0
    7.8754    5.4770   23.0038 C   0  0  0  0  0  0  0  0  0  0  0  0
    9.1214   -4.3282   24.7109 C   0  0  0  0  0  0  0  0  0  0  0  0
   11.7729    5.3258   23.3083 C   0  0  0  0  0  0  0  0  0  0  0  0
   12.2685    1.5593   23.1969 C   0  0  0  0  0  0  0  0  0  0  0  0
    9.1624   -0.4317   22.2842 C   0  0  0  0  0  0  0  0  0  0  0  0
    8.2151   -3.8782   23.5694 C   0  0  0  0  0  0  0  0  0  0  0  0
   13.2875    7.1835   23.6563 N   0  0  0  0  0  0  0  0  0  0  0  0
    5.5241    3.1002   21.4837 N   0  0  0  0  0  0  0  0  0  0  0  0
    7.7719   -4.9913   22.7705 N   0  0  0  0  0  0  0  0  0  0  0  0
   11.9027    3.8962   23.5937 N   0  0  0  0  0  0  0  0  0  0  0  0
   11.2035    0.8410   22.5434 N   0  0  0  0  0  0  0  0  0  0  0  0
    8.6548   -1.5627   23.0194 N   0  0  0  0  0  0  0  0  0  0  0  0
    6.9502    4.7770   22.1457 N   0  0  0  0  0  0  0  0  0  0  0  0
    5.7071   -4.1324   22.1186 O   0  0  0  0  0  0  0  0  0  0  0  0
   13.1130    5.6017   25.3128 O   0  0  0  0  0  0  0  0  0  0  0  0
   12.5223    3.2301   21.4593 O   0  0  0  0  0  0  0  0  0  0  0  0
    9.9076    0.4245   24.4259 O   0  0  0  0  0  0  0  0  0  0  0  0
    9.5797   -3.2157   21.6778 O   0  0  0  0  0  0  0  0  0  0  0  0
    6.5745    2.9371   23.5184 O   0  0  0  0  0  0  0  0  0  0  0  0
   10.2891   -4.9567   24.1945 O   0  0  0  0  0  0  0  0  0  0  0  0
  1  3  2  0
  1  4  1  0
  2  5  2  0
  2  6  1  0
  3  7  1  0
  4  8  2  0
  5  9  1  0
  6 10  2  0
  7 11  2  0
  8 11  1  0
  9 12  2  0
 10 12  1  0
 11 20  1  0
 12 21  1  0
 13 19  1  0
 13 32  1  0
 13 37  2  0
 14 26  1  0
 14 30  1  0
 14 38  2  0
 15 27  1  0
 15 33  1  0
 15 39  2  0
 16 28  1  0
 16 34  1  0
 16 40  2  0
 17 29  1  0
 17 35  1  0
 17 41  2  0
 18 31  1  0
 18 36  1  0
 18 42  2  0
 20 27  1  0
 21 28  1  0
 22 23  1  0
 22 24  1  0
 23 26  1  0
 24 36  1  0
 25 29  1  0
 25 43  1  0
 26 33  1  0
 27 34  1  0
 28 35  1  0
 29 32  1  0
M  END
