SAL-INS-68b48d12-9
     RDKit          3D

 38 39  0  0  1  0  0  0  0  0999 V2000
   11.9992   -0.8471   22.7070 C   0  0  0  0  0  0  0  0  0  0  0  0
   12.4554    0.2370   23.4543 C   0  0  0  0  0  0  0  0  0  0  0  0
   11.0246   -1.7111   23.2196 C   0  0  0  0  0  0  0  0  0  0  0  0
   11.9544    0.4922   24.7340 C   0  0  0  0  0  0  0  0  0  0  0  0
    9.4433   -1.4267   26.5027 C   0  0  0  0  0  0  0  0  0  0  0  0
   10.5047   -1.4738   24.5075 C   0  0  0  0  0  0  0  0  0  0  0  0
    9.5352   -2.1248   25.3207 C   0  0  0  0  0  0  0  0  0  0  0  0
   10.9806   -0.3799   25.2336 C   0  0  0  0  0  0  0  0  0  0  0  0
    6.7258   -2.4549   23.7785 C   0  0  0  0  0  0  0  0  0  0  0  0
    5.4532    0.9794   23.5687 C   0  0  0  0  0  0  0  0  0  0  0  0
    6.1624   -4.9297   26.4046 C   0  0  0  0  0  0  0  0  0  0  0  0
    3.0409    3.3369   22.0602 C   0  0  0  0  0  0  0  0  0  0  0  0
    8.9469    6.2695   23.2668 C   0  0  0  0  0  0  0  0  0  0  0  0
    8.7451   -3.3599   24.9629 C   0  0  0  0  0  0  0  0  0  0  0  0
    5.8737    4.5614   21.8219 C   0  0  0  0  0  0  0  0  0  0  0  0
    5.1822    4.2352   23.1524 C   0  0  0  0  0  0  0  0  0  0  0  0
    6.8897    5.6903   21.9627 C   0  0  0  0  0  0  0  0  0  0  0  0
    7.2745    0.2703   21.9656 C   0  0  0  0  0  0  0  0  0  0  0  0
    3.8927   -6.0309   26.2462 C   0  0  0  0  0  0  0  0  0  0  0  0
    7.2303   -3.1388   25.0443 C   0  0  0  0  0  0  0  0  0  0  0  0
    6.1576   -0.1933   22.8953 C   0  0  0  0  0  0  0  0  0  0  0  0
    5.4034   -6.2387   26.2572 C   0  0  0  0  0  0  0  0  0  0  0  0
    4.2029    3.0607   23.0314 C   0  0  0  0  0  0  0  0  0  0  0  0
   10.3186   -0.3759   26.4406 N   0  0  0  0  0  0  0  0  0  0  0  0
    9.9096    5.8943   24.1979 N   0  0  0  0  0  0  0  0  0  0  0  0
    9.0157    7.5346   22.6926 N   0  0  0  0  0  0  0  0  0  0  0  0
    6.6487   -1.0738   23.9235 N   0  0  0  0  0  0  0  0  0  0  0  0
    6.5057   -4.3776   25.1773 N   0  0  0  0  0  0  0  0  0  0  0  0
    4.8903    1.8489   22.6460 N   0  0  0  0  0  0  0  0  0  0  0  0
    7.9349    5.3680   22.9314 N   0  0  0  0  0  0  0  0  0  0  0  0
    5.7486   -7.1704   27.3688 N   0  0  0  0  0  0  0  0  0  0  0  0
    2.5927    2.3069   21.4770 O   0  0  0  0  0  0  0  0  0  0  0  0
    6.3891   -3.0748   22.7719 O   0  0  0  0  0  0  0  0  0  0  0  0
    5.4315    1.1375   24.7876 O   0  0  0  0  0  0  0  0  0  0  0  0
    6.4303   -4.4375   27.4983 O   0  0  0  0  0  0  0  0  0  0  0  0
    2.6737    4.5394   21.9488 O   0  0  0  0  0  0  0  0  0  0  0  0
    8.2484    1.0082   22.6950 O   0  0  0  0  0  0  0  0  0  0  0  0
    3.5227   -5.1450   25.1961 O   0  0  0  0  0  0  0  0  0  0  0  0
  1  2  2  0
  1  3  1  0
  2  4  1  0
  3  6  2  0
  4  8  2  0
  5  7  2  0
  5 24  1  0
  6  7  1  0
  6  8  1  0
  7 14  1  0
  8 24  1  0
  9 20  1  0
  9 27  1  0
  9 33  2  0
 10 21  1  0
 10 29  1  0
 10 34  2  0
 11 22  1  0
 11 28  1  0
 11 35  2  0
 12 23  1  0
 12 32  1  0
 12 36  2  0
 13 25  1  0
 13 26  1  0
 13 30  2  3
 14 20  1  0
 15 16  1  0
 15 17  1  0
 16 23  1  0
 17 30  1  0
 18 21  1  0
 18 37  1  0
 19 22  1  0
 19 38  1  0
 20 28  1  0
 21 27  1  0
 22 31  1  0
 23 29  1  0
M  CHG  3  30   1  31   1  32  -1
M  END
