SAL-INS-68b48d12-6
     RDKit          3D

 46 48  0  0  1  0  0  0  0  0999 V2000
   14.5025   -0.3604   22.1934 C   0  0  0  0  0  0  0  0  0  0  0  0
    8.2568    7.9358   22.8190 C   0  0  0  0  0  0  0  0  0  0  0  0
   13.8372   -1.1734   21.2759 C   0  0  0  0  0  0  0  0  0  0  0  0
   13.9049   -0.0548   23.4162 C   0  0  0  0  0  0  0  0  0  0  0  0
    8.3683    8.7160   23.9682 C   0  0  0  0  0  0  0  0  0  0  0  0
    8.2835    6.5386   22.8964 C   0  0  0  0  0  0  0  0  0  0  0  0
   12.5742   -1.6808   21.5810 C   0  0  0  0  0  0  0  0  0  0  0  0
   12.6420   -0.5621   23.7214 C   0  0  0  0  0  0  0  0  0  0  0  0
    8.5095    8.1273   25.2281 C   0  0  0  0  0  0  0  0  0  0  0  0
    8.6350    4.5836   25.9648 C   0  0  0  0  0  0  0  0  0  0  0  0
    8.4251    5.9226   24.1557 C   0  0  0  0  0  0  0  0  0  0  0  0
   11.9766   -1.3751   22.8038 C   0  0  0  0  0  0  0  0  0  0  0  0
    8.4898    4.5712   24.5967 C   0  0  0  0  0  0  0  0  0  0  0  0
    8.5347    6.7295   25.2902 C   0  0  0  0  0  0  0  0  0  0  0  0
   12.7466    7.0629   23.8944 C   0  0  0  0  0  0  0  0  0  0  0  0
    7.0083   -4.9821   22.3683 C   0  0  0  0  0  0  0  0  0  0  0  0
    8.1236   -1.5867   23.0737 C   0  0  0  0  0  0  0  0  0  0  0  0
    9.6548    1.4882   22.5716 C   0  0  0  0  0  0  0  0  0  0  0  0
   11.9207    3.9858   23.3742 C   0  0  0  0  0  0  0  0  0  0  0  0
    5.5259   -0.3046   18.5855 C   0  0  0  0  0  0  0  0  0  0  0  0
   13.6384    7.8735   24.7752 C   0  0  0  0  0  0  0  0  0  0  0  0
   10.6100   -1.9236   23.1345 C   0  0  0  0  0  0  0  0  0  0  0  0
    8.4155    3.3382   23.7295 C   0  0  0  0  0  0  0  0  0  0  0  0
    6.1642   -3.1905   20.0734 C   0  0  0  0  0  0  0  0  0  0  0  0
    5.6234   -3.0375   21.5028 C   0  0  0  0  0  0  0  0  0  0  0  0
    5.1630   -2.7348   19.0145 C   0  0  0  0  0  0  0  0  0  0  0  0
   13.6224    4.3265   21.5358 C   0  0  0  0  0  0  0  0  0  0  0  0
    6.6342   -3.5179   22.5540 C   0  0  0  0  0  0  0  0  0  0  0  0
    9.4746   -0.9962   22.6860 C   0  0  0  0  0  0  0  0  0  0  0  0
    9.7898    2.7080   23.4761 C   0  0  0  0  0  0  0  0  0  0  0  0
   12.6598    5.0003   22.5085 C   0  0  0  0  0  0  0  0  0  0  0  0
    8.6607    5.8899   26.3739 N   0  0  0  0  0  0  0  0  0  0  0  0
    5.9324   -5.8352   22.4906 N   0  0  0  0  0  0  0  0  0  0  0  0
    5.0046    0.9332   18.9169 N   0  0  0  0  0  0  0  0  0  0  0  0
   13.3411    5.9235   23.3787 N   0  0  0  0  0  0  0  0  0  0  0  0
    7.8813   -2.7668   22.4046 N   0  0  0  0  0  0  0  0  0  0  0  0
    9.5619    0.3061   23.2972 N   0  0  0  0  0  0  0  0  0  0  0  0
   10.6964    3.6216   22.8274 N   0  0  0  0  0  0  0  0  0  0  0  0
    4.8283   -1.3422   19.1908 N   0  0  0  0  0  0  0  0  0  0  0  0
   11.5969    7.4355   23.6915 O   0  0  0  0  0  0  0  0  0  0  0  0
    8.1477   -5.3623   22.1087 O   0  0  0  0  0  0  0  0  0  0  0  0
    7.3508   -1.0341   23.8535 O   0  0  0  0  0  0  0  0  0  0  0  0
    9.6732    1.5598   21.3446 O   0  0  0  0  0  0  0  0  0  0  0  0
   12.3569    3.5779   24.4487 O   0  0  0  0  0  0  0  0  0  0  0  0
    6.4945   -0.4420   17.8403 O   0  0  0  0  0  0  0  0  0  0  0  0
   14.5995    3.5771   22.2490 O   0  0  0  0  0  0  0  0  0  0  0  0
  1  3  2  0
  1  4  1  0
  2  5  2  0
  2  6  1  0
  3  7  1  0
  4  8  2  0
  5  9  1  0
  6 11  2  0
  7 12  2  0
  8 12  1  0
  9 14  2  0
 10 13  2  0
 10 32  1  0
 11 13  1  0
 11 14  1  0
 12 22  1  0
 13 23  1  0
 14 32  1  0
 15 21  1  0
 15 35  1  0
 15 40  2  0
 16 28  1  0
 16 33  1  0
 16 41  2  0
 17 29  1  0
 17 36  1  0
 17 42  2  0
 18 30  1  0
 18 37  1  0
 18 43  2  0
 19 31  1  0
 19 38  1  0
 19 44  2  0
 20 34  1  0
 20 39  1  0
 20 45  2  0
 22 29  1  0
 23 30  1  0
 24 25  1  0
 24 26  1  0
 25 28  1  0
 26 39  1  0
 27 31  1  0
 27 46  1  0
 28 36  1  0
 29 37  1  0
 30 38  1  0
 31 35  1  0
M  END
