SAL-INS-68b48d12-1
     RDKit          3D

 33 33  0  0  1  0  0  0  0  0999 V2000
   12.6544   -2.8095   22.9318 C   0  0  0  0  0  0  0  0  0  0  0  0
   11.4869   -2.4342   23.5964 C   0  0  0  0  0  0  0  0  0  0  0  0
   13.6688   -1.8752   22.7226 C   0  0  0  0  0  0  0  0  0  0  0  0
   11.3337   -1.1247   24.0516 C   0  0  0  0  0  0  0  0  0  0  0  0
   13.5157   -0.5657   23.1778 C   0  0  0  0  0  0  0  0  0  0  0  0
   12.3481   -0.1904   23.8423 C   0  0  0  0  0  0  0  0  0  0  0  0
    8.6856   -0.4944   20.9338 C   0  0  0  0  0  0  0  0  0  0  0  0
   10.1329    1.6438   22.9478 C   0  0  0  0  0  0  0  0  0  0  0  0
   12.3534    4.4790   23.5551 C   0  0  0  0  0  0  0  0  0  0  0  0
    5.6946   -2.5664   20.2712 C   0  0  0  0  0  0  0  0  0  0  0  0
    8.2375   -5.3972   25.7823 C   0  0  0  0  0  0  0  0  0  0  0  0
   12.1829    1.2268   24.3344 C   0  0  0  0  0  0  0  0  0  0  0  0
    8.7334    1.0114   20.9832 C   0  0  0  0  0  0  0  0  0  0  0  0
    6.7572   -4.4696   22.4062 C   0  0  0  0  0  0  0  0  0  0  0  0
    7.0668   -2.9666   22.4024 C   0  0  0  0  0  0  0  0  0  0  0  0
    6.7258   -5.0474   23.8174 C   0  0  0  0  0  0  0  0  0  0  0  0
   11.2280    6.7089   23.1676 C   0  0  0  0  0  0  0  0  0  0  0  0
   11.5312    2.1437   23.2930 C   0  0  0  0  0  0  0  0  0  0  0  0
   11.9584    5.8148   24.1641 C   0  0  0  0  0  0  0  0  0  0  0  0
    7.0406   -2.3665   20.9909 C   0  0  0  0  0  0  0  0  0  0  0  0
    9.4855   -5.2176   26.3695 N   0  0  0  0  0  0  0  0  0  0  0  0
    7.2464   -6.0710   26.4886 N   0  0  0  0  0  0  0  0  0  0  0  0
    9.9983    1.4449   21.5945 N   0  0  0  0  0  0  0  0  0  0  0  0
   11.3945    3.4973   23.7689 N   0  0  0  0  0  0  0  0  0  0  0  0
    7.3821   -0.9621   21.0171 N   0  0  0  0  0  0  0  0  0  0  0  0
    8.0097   -4.8977   24.4987 N   0  0  0  0  0  0  0  0  0  0  0  0
   13.1634    6.5391   24.6606 N   0  0  0  0  0  0  0  0  0  0  0  0
    4.7035   -2.0509   20.8661 O   0  0  0  0  0  0  0  0  0  0  0  0
    9.6860   -1.1993   20.8299 O   0  0  0  0  0  0  0  0  0  0  0  0
    9.2500    1.4916   23.7893 O   0  0  0  0  0  0  0  0  0  0  0  0
   13.4088    4.3126   22.9478 O   0  0  0  0  0  0  0  0  0  0  0  0
    5.7252   -3.2166   19.1897 O   0  0  0  0  0  0  0  0  0  0  0  0
   10.0689    6.0511   22.6697 O   0  0  0  0  0  0  0  0  0  0  0  0
  1  2  2  0
  1  3  1  0
  2  4  1  0
  3  5  2  0
  4  6  2  0
  5  6  1  0
  6 12  1  0
  7 13  1  0
  7 25  1  0
  7 29  2  0
  8 18  1  0
  8 23  1  0
  8 30  2  0
  9 19  1  0
  9 24  1  0
  9 31  2  0
 10 20  1  0
 10 28  1  0
 10 32  2  0
 11 21  1  0
 11 22  1  0
 11 26  2  3
 12 18  1  0
 13 23  1  0
 14 15  1  0
 14 16  1  0
 15 20  1  0
 16 26  1  0
 17 19  1  0
 17 33  1  0
 18 24  1  0
 19 27  1  0
 20 25  1  0
M  CHG  3  26   1  27   1  28  -1
M  END
