SAL-INS-1c7a5a55-1
     RDKit          3D

 27 29  0  0  1  0  0  0  0  0999 V2000
    4.7528   -5.6961   25.1263 C   0  0  0  0  0  0  0  0  0  0  0  0
    5.3221   -4.4234   25.1668 C   0  0  0  0  0  0  0  0  0  0  0  0
    5.3153   -6.6866   24.3211 C   0  0  0  0  0  0  0  0  0  0  0  0
   10.9463   -3.5365   25.1363 C   0  0  0  0  0  0  0  0  0  0  0  0
    6.4539   -4.1411   24.4020 C   0  0  0  0  0  0  0  0  0  0  0  0
    6.4472   -6.4042   23.5563 C   0  0  0  0  0  0  0  0  0  0  0  0
   10.0384   -4.3766   24.4932 C   0  0  0  0  0  0  0  0  0  0  0  0
   10.2714   -1.7154   23.7040 C   0  0  0  0  0  0  0  0  0  0  0  0
   11.0640   -2.2072   24.7409 C   0  0  0  0  0  0  0  0  0  0  0  0
    7.0165   -5.1315   23.5968 C   0  0  0  0  0  0  0  0  0  0  0  0
    9.2372   -3.8942   23.4457 C   0  0  0  0  0  0  0  0  0  0  0  0
    9.3491   -2.5478   23.0519 C   0  0  0  0  0  0  0  0  0  0  0  0
   12.0119   -1.3305   25.4099 C   0  0  0  0  0  0  0  0  0  0  0  0
    6.2918   -2.4833   20.8253 C   0  0  0  0  0  0  0  0  0  0  0  0
    8.5104   -1.9705   21.9372 C   0  0  0  0  0  0  0  0  0  0  0  0
    7.8755   -4.3013   21.3656 C   0  0  0  0  0  0  0  0  0  0  0  0
    8.2524   -4.8238   22.7612 C   0  0  0  0  0  0  0  0  0  0  0  0
   15.3799   -0.3763   25.8917 C   0  0  0  0  0  0  0  0  0  0  0  0
   14.8730   -2.5355   27.0863 C   0  0  0  0  0  0  0  0  0  0  0  0
   13.9769   -2.4068   24.2867 C   0  0  0  0  0  0  0  0  0  0  0  0
    6.0419   -0.9965   20.7705 C   0  0  0  0  0  0  0  0  0  0  0  0
   14.2921   -1.2764   26.4597 C   0  0  0  0  0  0  0  0  0  0  0  0
    7.4968   -2.8895   21.4031 N   0  0  0  0  0  0  0  0  0  0  0  0
   13.3794   -1.6605   25.3850 N   0  0  0  0  0  0  0  0  0  0  0  0
   11.5517   -0.3213   25.9603 O   0  0  0  0  0  0  0  0  0  0  0  0
    5.4417   -3.2564   20.3773 O   0  0  0  0  0  0  0  0  0  0  0  0
    6.7381   -0.4249   19.2587 Cl  0  0  0  0  0  0  0  0  0  0  0  0
  1  2  2  0
  1  3  1  0
  2  5  1  0
  3  6  2  0
  4  7  2  0
  4  9  1  0
  5 10  2  0
  6 10  1  0
  7 11  1  0
  8  9  2  0
  8 12  1  0
  9 13  1  0
 10 17  1  0
 11 12  2  0
 11 17  1  0
 12 15  1  0
 13 24  1  0
 13 25  2  0
 14 21  1  0
 14 23  1  0
 14 26  2  0
 15 23  1  0
 16 17  1  0
 16 23  1  0
 18 22  1  0
 19 22  1  0
 20 24  1  0
 21 27  1  0
 22 24  1  0
M  END
