SAL-INS-a5f8a8b9-2
     RDKit          3D

 36 36  0  0  1  0  0  0  0  0999 V2000
    7.9242   -5.6630   26.7207 C   0  0  0  0  0  0  0  0  0  0  0  0
    9.2635   -5.3017   26.5751 C   0  0  0  0  0  0  0  0  0  0  0  0
    6.9958   -5.3084   25.7419 C   0  0  0  0  0  0  0  0  0  0  0  0
    9.6745   -4.5859   25.4507 C   0  0  0  0  0  0  0  0  0  0  0  0
    7.4068   -4.5926   24.6175 C   0  0  0  0  0  0  0  0  0  0  0  0
    8.7461   -4.2313   24.4718 C   0  0  0  0  0  0  0  0  0  0  0  0
    7.6984    4.8296   22.6091 C   0  0  0  0  0  0  0  0  0  0  0  0
    7.2998   -0.2990   23.9508 C   0  0  0  0  0  0  0  0  0  0  0  0
   13.4149   -1.1794   22.0123 C   0  0  0  0  0  0  0  0  0  0  0  0
    5.7797    2.2341   22.5545 C   0  0  0  0  0  0  0  0  0  0  0  0
    9.9761   -1.2214   22.4272 C   0  0  0  0  0  0  0  0  0  0  0  0
   13.5064    4.8495   22.0050 C   0  0  0  0  0  0  0  0  0  0  0  0
    8.4880    5.6869   21.6764 C   0  0  0  0  0  0  0  0  0  0  0  0
    9.1901   -3.4566   23.2551 C   0  0  0  0  0  0  0  0  0  0  0  0
    5.8600   -0.0194   23.6029 C   0  0  0  0  0  0  0  0  0  0  0  0
   11.6393    2.2013   22.6760 C   0  0  0  0  0  0  0  0  0  0  0  0
   12.6334    1.0575   22.9254 C   0  0  0  0  0  0  0  0  0  0  0  0
   12.0019    3.4722   23.4406 C   0  0  0  0  0  0  0  0  0  0  0  0
    4.0568    4.0835   22.6085 C   0  0  0  0  0  0  0  0  0  0  0  0
   12.2440   -0.2183   22.1652 C   0  0  0  0  0  0  0  0  0  0  0  0
    5.5041    3.6951   22.8930 C   0  0  0  0  0  0  0  0  0  0  0  0
    9.1112   -1.9390   23.4573 C   0  0  0  0  0  0  0  0  0  0  0  0
   14.1275   -0.9834   20.8487 N   0  0  0  0  0  0  0  0  0  0  0  0
   14.8457    5.1498   21.8321 N   0  0  0  0  0  0  0  0  0  0  0  0
    5.6123    1.4289   23.6551 N   0  0  0  0  0  0  0  0  0  0  0  0
    6.4305    4.5116   22.1522 N   0  0  0  0  0  0  0  0  0  0  0  0
    7.7675   -1.4391   23.3084 N   0  0  0  0  0  0  0  0  0  0  0  0
   11.2295   -0.9459   22.9291 N   0  0  0  0  0  0  0  0  0  0  0  0
   13.3042    3.9535   23.0471 N   0  0  0  0  0  0  0  0  0  0  0  0
    8.1960    4.4747   23.6712 O   0  0  0  0  0  0  0  0  0  0  0  0
    7.9614    0.4063   24.7078 O   0  0  0  0  0  0  0  0  0  0  0  0
   13.7111   -2.0252   22.8532 O   0  0  0  0  0  0  0  0  0  0  0  0
    6.1409    1.8612   21.4402 O   0  0  0  0  0  0  0  0  0  0  0  0
    9.5647   -0.9026   21.3136 O   0  0  0  0  0  0  0  0  0  0  0  0
   12.6191    5.3330   21.3040 O   0  0  0  0  0  0  0  0  0  0  0  0
    3.7588    3.8982   21.2294 O   0  0  0  0  0  0  0  0  0  0  0  0
  1  2  2  0
  1  3  1  0
  2  4  1  0
  3  5  2  0
  4  6  2  0
  5  6  1  0
  6 14  1  0
  7 13  1  0
  7 26  1  0
  7 30  2  0
  8 15  1  0
  8 27  1  0
  8 31  2  0
  9 20  1  0
  9 23  1  0
  9 32  2  0
 10 21  1  0
 10 25  1  0
 10 33  2  0
 11 22  1  0
 11 28  1  0
 11 34  2  0
 12 24  1  0
 12 29  1  0
 12 35  2  0
 14 22  1  0
 15 25  1  0
 16 17  1  0
 16 18  1  0
 17 20  1  0
 18 29  1  0
 19 21  1  0
 19 36  1  0
 20 28  1  0
 21 26  1  0
 22 27  1  0
M  END
