SAL-INS-1c7a5a55-9
     RDKit          3D

 25 27  0  0  1  0  0  0  0  0999 V2000
    7.6376   -5.7130   24.3023 C   0  0  0  0  0  0  0  0  0  0  0  0
    8.5207   -4.7553   24.8007 C   0  0  0  0  0  0  0  0  0  0  0  0
    7.5355   -4.5252   22.2009 C   0  0  0  0  0  0  0  0  0  0  0  0
    6.9862   -0.5979   22.0674 C   0  0  0  0  0  0  0  0  0  0  0  0
    6.1601   -0.8353   20.0382 C   0  0  0  0  0  0  0  0  0  0  0  0
    7.1451   -5.5980   23.0023 C   0  0  0  0  0  0  0  0  0  0  0  0
    8.4186   -3.5674   22.6994 C   0  0  0  0  0  0  0  0  0  0  0  0
    8.9112   -3.6825   23.9993 C   0  0  0  0  0  0  0  0  0  0  0  0
    7.6548   -1.5711   21.3630 C   0  0  0  0  0  0  0  0  0  0  0  0
   11.8141   -2.8809   25.8763 C   0  0  0  0  0  0  0  0  0  0  0  0
   12.9264   -2.1665   26.0753 C   0  0  0  0  0  0  0  0  0  0  0  0
    9.2440   -1.5796   25.2077 C   0  0  0  0  0  0  0  0  0  0  0  0
   11.9492   -1.7921   23.6988 C   0  0  0  0  0  0  0  0  0  0  0  0
   11.2510   -2.8993   24.4855 C   0  0  0  0  0  0  0  0  0  0  0  0
    6.1989   -6.6209   22.4702 C   0  0  0  0  0  0  0  0  0  0  0  0
    8.8174   -2.4271   21.8196 C   0  0  0  0  0  0  0  0  0  0  0  0
    7.7297   -1.5185   25.1115 C   0  0  0  0  0  0  0  0  0  0  0  0
    7.1359   -1.7138   20.1004 N   0  0  0  0  0  0  0  0  0  0  0  0
    6.0319   -0.1354   21.2057 N   0  0  0  0  0  0  0  0  0  0  0  0
    9.8281   -2.6995   24.5352 N   0  0  0  0  0  0  0  0  0  0  0  0
    9.8631   -0.6912   25.7987 O   0  0  0  0  0  0  0  0  0  0  0  0
   13.5422    0.0129   24.7829 O   0  0  0  0  0  0  0  0  0  0  0  0
   14.5358   -2.1917   24.0318 O   0  0  0  0  0  0  0  0  0  0  0  0
   13.4505   -1.4220   24.6061 S   0  0  0  0  0  0  0  0  0  0  0  0
    6.9964   -2.3743   26.4845 Cl  0  0  0  0  0  0  0  0  0  0  0  0
  1  2  2  0
  1  6  1  0
  2  8  1  0
  3  6  2  0
  3  7  1  0
  4  9  2  0
  4 19  1  0
  5 18  2  0
  5 19  1  0
  6 15  1  0
  7  8  2  0
  7 16  1  0
  8 20  1  0
  9 16  1  0
  9 18  1  0
 10 11  2  0
 10 14  1  0
 11 24  1  0
 12 17  1  0
 12 20  1  0
 12 21  2  0
 13 14  1  0
 13 24  1  0
 14 20  1  0
 17 25  1  0
 22 24  2  0
 23 24  2  0
M  END
