SAL-INS-68b48d12-10
     RDKit          3D

 41 42  0  0  1  0  0  0  0  0999 V2000
    0.8414  -10.8288   19.3424 C   0  0  0  0  0  0  0  0  0  0  0  0
   -0.3572  -11.5385   19.3048 C   0  0  0  0  0  0  0  0  0  0  0  0
    0.9758   -9.6921   20.1478 C   0  0  0  0  0  0  0  0  0  0  0  0
   -1.4569  -11.1368   20.0683 C   0  0  0  0  0  0  0  0  0  0  0  0
   -1.6254   -8.2875   22.2975 C   0  0  0  0  0  0  0  0  0  0  0  0
   -0.1194   -9.2679   20.9263 C   0  0  0  0  0  0  0  0  0  0  0  0
   -0.3344   -8.1915   21.8318 C   0  0  0  0  0  0  0  0  0  0  0  0
   -1.3081   -9.9986   20.8687 C   0  0  0  0  0  0  0  0  0  0  0  0
    0.5667  -11.4453   27.8397 C   0  0  0  0  0  0  0  0  0  0  0  0
    6.5399   -5.6291   27.1975 C   0  0  0  0  0  0  0  0  0  0  0  0
    2.6511   -6.5014   23.6190 C   0  0  0  0  0  0  0  0  0  0  0  0
    5.8289   -6.1792   24.1253 C   0  0  0  0  0  0  0  0  0  0  0  0
    1.6265   -9.0444   25.2855 C   0  0  0  0  0  0  0  0  0  0  0  0
   10.4834   -1.9992   22.5606 C   0  0  0  0  0  0  0  0  0  0  0  0
    1.3762  -12.5142   28.4959 C   0  0  0  0  0  0  0  0  0  0  0  0
    0.6651   -7.1288   22.2184 C   0  0  0  0  0  0  0  0  0  0  0  0
    9.1818   -4.0962   24.7647 C   0  0  0  0  0  0  0  0  0  0  0  0
    8.3584   -4.2801   26.0480 C   0  0  0  0  0  0  0  0  0  0  0  0
   10.1552   -2.9232   24.8541 C   0  0  0  0  0  0  0  0  0  0  0  0
    5.6574   -5.3558   21.7414 C   0  0  0  0  0  0  0  0  0  0  0  0
    0.5531   -8.1639   27.3984 C   0  0  0  0  0  0  0  0  0  0  0  0
    7.3714   -5.4508   25.9347 C   0  0  0  0  0  0  0  0  0  0  0  0
    1.6900   -7.6242   23.2452 C   0  0  0  0  0  0  0  0  0  0  0  0
    4.9108   -5.6164   23.0458 C   0  0  0  0  0  0  0  0  0  0  0  0
    0.7394   -9.3692   26.4823 C   0  0  0  0  0  0  0  0  0  0  0  0
   -2.2046   -9.3807   21.7111 N   0  0  0  0  0  0  0  0  0  0  0  0
    7.1084   -6.5010   28.1012 N   0  0  0  0  0  0  0  0  0  0  0  0
   11.3792   -2.0356   21.5069 N   0  0  0  0  0  0  0  0  0  0  0  0
    1.3188  -10.4862   27.1825 N   0  0  0  0  0  0  0  0  0  0  0  0
    6.4134   -5.1737   24.8635 N   0  0  0  0  0  0  0  0  0  0  0  0
    1.0657   -8.0744   24.4638 N   0  0  0  0  0  0  0  0  0  0  0  0
    3.8171   -6.5349   22.8616 N   0  0  0  0  0  0  0  0  0  0  0  0
   10.9032   -2.7829   23.6279 N   0  0  0  0  0  0  0  0  0  0  0  0
   -0.6558  -11.4799   27.9169 O   0  0  0  0  0  0  0  0  0  0  0  0
    5.4835   -5.0355   27.4022 O   0  0  0  0  0  0  0  0  0  0  0  0
    2.4220   -5.6966   24.5194 O   0  0  0  0  0  0  0  0  0  0  0  0
    6.0328   -7.3827   24.2708 O   0  0  0  0  0  0  0  0  0  0  0  0
    2.6942   -9.6138   25.0689 O   0  0  0  0  0  0  0  0  0  0  0  0
    9.4444   -1.3421   22.5296 O   0  0  0  0  0  0  0  0  0  0  0  0
    6.2260   -6.5640   21.2492 O   0  0  0  0  0  0  0  0  0  0  0  0
    1.8111   -7.7282   27.9014 O   0  0  0  0  0  0  0  0  0  0  0  0
  1  2  2  0
  1  3  1  0
  2  4  1  0
  3  6  2  0
  4  8  2  0
  5  7  2  0
  5 26  1  0
  6  7  1  0
  6  8  1  0
  7 16  1  0
  8 26  1  0
  9 15  1  0
  9 29  1  0
  9 34  2  0
 10 22  1  0
 10 27  1  0
 10 35  2  0
 11 23  1  0
 11 32  1  0
 11 36  2  0
 12 24  1  0
 12 30  1  0
 12 37  2  0
 13 25  1  0
 13 31  1  0
 13 38  2  0
 14 28  1  0
 14 33  1  0
 14 39  2  0
 16 23  1  0
 17 18  1  0
 17 19  1  0
 18 22  1  0
 19 33  1  0
 20 24  1  0
 20 40  1  0
 21 25  1  0
 21 41  1  0
 22 30  1  0
 23 31  1  0
 24 32  1  0
 25 29  1  0
M  END
