SAM-UNK-83e03154-1
     RDKit          3D

 24 26  0  0  0  0  0  0  0  0999 V2000
   11.9491   -2.1835   22.8107 C   0  0  0  0  0  0  0  0  0  0  0  0
   13.2925   -0.1708   23.0143 C   0  0  0  0  0  0  0  0  0  0  0  0
    8.8931   -0.7519   24.2148 C   0  0  0  0  0  0  0  0  0  0  0  0
   10.8519   -1.4974   23.3681 C   0  0  0  0  0  0  0  0  0  0  0  0
   12.2181    0.5303   23.5692 C   0  0  0  0  0  0  0  0  0  0  0  0
    9.5104   -1.8577   23.6772 C   0  0  0  0  0  0  0  0  0  0  0  0
   11.0114   -0.1590   23.7338 C   0  0  0  0  0  0  0  0  0  0  0  0
   13.1624   -1.5068   22.6402 C   0  0  0  0  0  0  0  0  0  0  0  0
    7.9382   -3.1746   22.2810 C   0  0  0  0  0  0  0  0  0  0  0  0
    6.8203   -2.1497   20.5717 C   0  0  0  0  0  0  0  0  0  0  0  0
   13.7241    3.9536   21.8858 C   0  0  0  0  0  0  0  0  0  0  0  0
   12.6001    5.1221   23.8226 C   0  0  0  0  0  0  0  0  0  0  0  0
   12.4841    3.0857   21.6997 C   0  0  0  0  0  0  0  0  0  0  0  0
   11.3664    4.2487   23.6235 C   0  0  0  0  0  0  0  0  0  0  0  0
   13.3972    5.2991   22.5307 C   0  0  0  0  0  0  0  0  0  0  0  0
    6.6537   -0.8193   19.8857 C   0  0  0  0  0  0  0  0  0  0  0  0
    8.8834   -3.1777   23.4634 C   0  0  0  0  0  0  0  0  0  0  0  0
   12.3938    1.9679   23.9607 C   0  0  0  0  0  0  0  0  0  0  0  0
    7.7154   -2.0891   21.6176 N   0  0  0  0  0  0  0  0  0  0  0  0
    9.8063    0.2677   24.2446 N   0  0  0  0  0  0  0  0  0  0  0  0
   11.7382    2.9246   23.0017 N   0  0  0  0  0  0  0  0  0  0  0  0
    6.1977   -3.1379   20.1873 O   0  0  0  0  0  0  0  0  0  0  0  0
   12.6436    6.0778   21.6030 O   0  0  0  0  0  0  0  0  0  0  0  0
   14.2105   -2.1525   22.1105 F   0  0  0  0  0  0  0  0  0  0  0  0
  1  4  2  0
  1  8  1  0
  2  5  1  0
  2  8  2  0
  3  6  2  0
  3 20  1  0
  4  6  1  0
  4  7  1  0
  5  7  2  0
  5 18  1  0
  6 17  1  0
  7 20  1  0
  8 24  1  0
  9 17  1  0
  9 19  2  0
 10 16  1  0
 10 19  1  0
 10 22  2  0
 11 13  1  0
 11 15  1  0
 12 14  1  0
 12 15  1  0
 13 21  1  0
 14 21  1  0
 15 23  1  0
 18 21  1  0
M  CHG  1  21   1
M  END
