SAN-PRS-3c4a6997-4
     RDKit          3D

 16 17  0  0  0  0  0  0  0  0999 V2000
   12.6118    0.5725   24.0545 C   0  0  0  0  0  0  0  0  0  0  0  0
   13.4285    0.2666   22.9620 C   0  0  0  0  0  0  0  0  0  0  0  0
   11.9179   -1.4976   22.2530 C   0  0  0  0  0  0  0  0  0  0  0  0
    9.5001   -1.0459   24.9568 C   0  0  0  0  0  0  0  0  0  0  0  0
   11.0789   -1.2075   23.3473 C   0  0  0  0  0  0  0  0  0  0  0  0
    9.8500   -1.7437   23.8239 C   0  0  0  0  0  0  0  0  0  0  0  0
   11.4445   -0.1812   24.2210 C   0  0  0  0  0  0  0  0  0  0  0  0
   13.0887   -0.7520   22.0739 C   0  0  0  0  0  0  0  0  0  0  0  0
    6.5910   -0.9238   21.3021 C   0  0  0  0  0  0  0  0  0  0  0  0
    5.6923    0.1629   21.8094 C   0  0  0  0  0  0  0  0  0  0  0  0
    9.0795   -2.8492   23.2187 C   0  0  0  0  0  0  0  0  0  0  0  0
    8.2787   -2.4343   21.9756 C   0  0  0  0  0  0  0  0  0  0  0  0
   10.4678   -0.1054   25.1882 N   0  0  0  0  0  0  0  0  0  0  0  0
    6.6046   -1.3165   20.1433 O   0  0  0  0  0  0  0  0  0  0  0  0
    7.3736   -1.3934   22.3204 O   0  0  0  0  0  0  0  0  0  0  0  0
   13.8913   -1.0209   21.0350 F   0  0  0  0  0  0  0  0  0  0  0  0
  1  2  2  0
  1  7  1  0
  2  8  1  0
  3  5  1  0
  3  8  2  0
  4  6  2  0
  4 13  1  0
  5  6  1  0
  5  7  2  0
  6 11  1  0
  7 13  1  0
  8 16  1  0
  9 10  1  0
  9 14  2  0
  9 15  1  0
 11 12  1  0
 12 15  1  0
M  END
