SAN-PRS-3c4a6997-1
     RDKit          3D

 16 17  0  0  0  0  0  0  0  0999 V2000
   10.3973   -0.7402   23.9111 C   0  0  0  0  0  0  0  0  0  0  0  0
   11.3543   -1.4435   23.1739 C   0  0  0  0  0  0  0  0  0  0  0  0
   12.6297    0.5860   22.7842 C   0  0  0  0  0  0  0  0  0  0  0  0
   10.3884    2.8103   24.6254 C   0  0  0  0  0  0  0  0  0  0  0  0
   11.6778    1.3160   23.5235 C   0  0  0  0  0  0  0  0  0  0  0  0
   11.5401    2.6860   23.8830 C   0  0  0  0  0  0  0  0  0  0  0  0
   10.5858    0.6374   24.0687 C   0  0  0  0  0  0  0  0  0  0  0  0
   12.4541   -0.7926   22.6183 C   0  0  0  0  0  0  0  0  0  0  0  0
    9.6612    6.2588   23.4450 C   0  0  0  0  0  0  0  0  0  0  0  0
    8.5056    6.3481   22.5044 C   0  0  0  0  0  0  0  0  0  0  0  0
   12.4609    3.7852   23.5283 C   0  0  0  0  0  0  0  0  0  0  0  0
   11.8828    5.1910   23.7718 C   0  0  0  0  0  0  0  0  0  0  0  0
    9.8200    1.5694   24.7322 N   0  0  0  0  0  0  0  0  0  0  0  0
   10.6785    5.4199   23.0193 N   0  0  0  0  0  0  0  0  0  0  0  0
    9.6431    6.9032   24.4872 O   0  0  0  0  0  0  0  0  0  0  0  0
   13.6116   -1.6938   21.7146 Cl  0  0  0  0  0  0  0  0  0  0  0  0
  1  2  2  0
  1  7  1  0
  2  8  1  0
  3  5  1  0
  3  8  2  0
  4  6  2  0
  4 13  1  0
  5  6  1  0
  5  7  2  0
  6 11  1  0
  7 13  1  0
  8 16  1  0
  9 10  1  0
  9 14  1  0
  9 15  2  0
 11 12  1  0
 12 14  1  0
M  END
