SAN-PRS-3c4a6997-5
     RDKit          3D

 17 18  0  0  0  0  0  0  0  0999 V2000
    8.6843   -5.9728   22.9204 C   0  0  0  0  0  0  0  0  0  0  0  0
    7.6660   -5.4888   22.0942 C   0  0  0  0  0  0  0  0  0  0  0  0
    7.9959   -3.2273   22.9150 C   0  0  0  0  0  0  0  0  0  0  0  0
    9.0261   -3.6920   23.7565 C   0  0  0  0  0  0  0  0  0  0  0  0
    9.8940   -3.0704   24.6974 C   0  0  0  0  0  0  0  0  0  0  0  0
    9.3459   -5.0513   23.7399 C   0  0  0  0  0  0  0  0  0  0  0  0
    7.3254   -4.1376   22.0900 C   0  0  0  0  0  0  0  0  0  0  0  0
   10.7085   -4.0461   25.2240 C   0  0  0  0  0  0  0  0  0  0  0  0
   13.0592   -0.9562   25.9348 C   0  0  0  0  0  0  0  0  0  0  0  0
   14.3648   -1.6466   26.1513 C   0  0  0  0  0  0  0  0  0  0  0  0
    9.9188   -1.6356   25.0500 C   0  0  0  0  0  0  0  0  0  0  0  0
   11.0882   -0.8559   24.4223 C   0  0  0  0  0  0  0  0  0  0  0  0
   10.3706   -5.2375   24.6402 N   0  0  0  0  0  0  0  0  0  0  0  0
   12.3663   -1.3864   24.8146 N   0  0  0  0  0  0  0  0  0  0  0  0
   12.6944   -0.0923   26.7237 O   0  0  0  0  0  0  0  0  0  0  0  0
   11.6769   -3.9944   26.1273 O   0  0  0  0  0  0  0  0  0  0  0  0
    6.3447   -3.7035   21.2866 F   0  0  0  0  0  0  0  0  0  0  0  0
  1  2  2  0
  1  6  1  0
  2  7  1  0
  3  4  1  0
  3  7  2  0
  4  5  1  0
  4  6  2  0
  5  8  2  0
  5 11  1  0
  6 13  1  0
  7 17  1  0
  8 13  1  0
  8 16  1  0
  9 10  1  0
  9 14  1  0
  9 15  2  0
 11 12  1  0
 12 14  1  0
M  END
