SAN-PRS-3c4a6997-2
     RDKit          3D

 15 16  0  0  0  0  0  0  0  0999 V2000
   14.2390   -1.3079   22.2936 C   0  0  0  0  0  0  0  0  0  0  0  0
   13.1328   -1.8754   22.9230 C   0  0  0  0  0  0  0  0  0  0  0  0
   14.3332    0.0781   22.1230 C   0  0  0  0  0  0  0  0  0  0  0  0
   12.0883   -1.0791   23.4010 C   0  0  0  0  0  0  0  0  0  0  0  0
   11.8497    2.5297   23.2101 C   0  0  0  0  0  0  0  0  0  0  0  0
   13.2923    0.9012   22.5967 C   0  0  0  0  0  0  0  0  0  0  0  0
   13.0600    2.3051   22.5957 C   0  0  0  0  0  0  0  0  0  0  0  0
   12.1961    0.3048   23.2235 C   0  0  0  0  0  0  0  0  0  0  0  0
   12.0670    6.0593   23.7822 C   0  0  0  0  0  0  0  0  0  0  0  0
   10.6679    6.5314   23.5636 C   0  0  0  0  0  0  0  0  0  0  0  0
   13.9495    3.3436   22.0371 C   0  0  0  0  0  0  0  0  0  0  0  0
   13.8847    4.6908   22.7793 C   0  0  0  0  0  0  0  0  0  0  0  0
   11.3363    1.3173   23.5856 N   0  0  0  0  0  0  0  0  0  0  0  0
   12.5602    5.2517   22.7700 N   0  0  0  0  0  0  0  0  0  0  0  0
   12.6681    6.3990   24.7947 O   0  0  0  0  0  0  0  0  0  0  0  0
  1  2  2  0
  1  3  1  0
  2  4  1  0
  3  6  2  0
  4  8  2  0
  5  7  2  0
  5 13  1  0
  6  7  1  0
  6  8  1  0
  7 11  1  0
  8 13  1  0
  9 10  1  0
  9 14  1  0
  9 15  2  0
 11 12  1  0
 12 14  1  0
M  END
