SAN-PRS-3c4a6997-10
     RDKit          3D

 16 17  0  0  0  0  0  0  0  0999 V2000
   14.5784   -1.4046   22.0537 C   0  0  0  0  0  0  0  0  0  0  0  0
   13.5767   -2.2599   22.5084 C   0  0  0  0  0  0  0  0  0  0  0  0
   14.4448   -0.0166   22.1751 C   0  0  0  0  0  0  0  0  0  0  0  0
   12.4127   -1.7580   23.0974 C   0  0  0  0  0  0  0  0  0  0  0  0
   13.2800    0.5127   22.7655 C   0  0  0  0  0  0  0  0  0  0  0  0
   12.8203    1.8304   23.0433 C   0  0  0  0  0  0  0  0  0  0  0  0
   12.2928   -0.3684   23.2121 C   0  0  0  0  0  0  0  0  0  0  0  0
   11.5858    1.7258   23.6417 C   0  0  0  0  0  0  0  0  0  0  0  0
   12.6668    5.3839   23.1831 C   0  0  0  0  0  0  0  0  0  0  0  0
   10.0561   -0.1311   24.3155 C   0  0  0  0  0  0  0  0  0  0  0  0
   13.5367    3.0878   22.7440 C   0  0  0  0  0  0  0  0  0  0  0  0
   11.2763    0.3957   23.7395 N   0  0  0  0  0  0  0  0  0  0  0  0
   11.7118    6.2750   22.7275 N   0  0  0  0  0  0  0  0  0  0  0  0
   12.6432    4.1922   22.4730 N   0  0  0  0  0  0  0  0  0  0  0  0
   13.4325    5.6436   24.1098 O   0  0  0  0  0  0  0  0  0  0  0  0
   10.7529    2.6585   24.0861 O   0  0  0  0  0  0  0  0  0  0  0  0
  1  2  2  0
  1  3  1  0
  2  4  1  0
  3  5  2  0
  4  7  2  0
  5  6  1  0
  5  7  1  0
  6  8  2  0
  6 11  1  0
  7 12  1  0
  8 12  1  0
  8 16  1  0
  9 13  1  0
  9 14  1  0
  9 15  2  0
 10 12  1  0
 11 14  1  0
M  END
