SAN-PRS-3c4a6997-11
     RDKit          3D

 16 17  0  0  0  0  0  0  0  0999 V2000
    9.5501   -0.0448   23.5683 C   0  0  0  0  0  0  0  0  0  0  0  0
    9.8637   -1.3975   23.4513 C   0  0  0  0  0  0  0  0  0  0  0  0
   10.5322    0.9362   23.3894 C   0  0  0  0  0  0  0  0  0  0  0  0
   11.1646   -1.8126   23.1525 C   0  0  0  0  0  0  0  0  0  0  0  0
   11.8508    0.5417   23.0875 C   0  0  0  0  0  0  0  0  0  0  0  0
   13.0653    1.2435   22.8479 C   0  0  0  0  0  0  0  0  0  0  0  0
   12.1360   -0.8209   22.9763 C   0  0  0  0  0  0  0  0  0  0  0  0
   14.0461    0.3107   22.6007 C   0  0  0  0  0  0  0  0  0  0  0  0
   13.2666    2.6423   22.8554 C   0  0  0  0  0  0  0  0  0  0  0  0
   13.6913    3.4170   21.8002 C   0  0  0  0  0  0  0  0  0  0  0  0
   13.8580    4.8899   21.9238 C   0  0  0  0  0  0  0  0  0  0  0  0
   14.1802   -2.1816   22.4822 C   0  0  0  0  0  0  0  0  0  0  0  0
   13.4759   -0.9314   22.6801 N   0  0  0  0  0  0  0  0  0  0  0  0
   12.6841    5.5241   22.2600 N   0  0  0  0  0  0  0  0  0  0  0  0
   14.9251    5.4662   21.7431 O   0  0  0  0  0  0  0  0  0  0  0  0
   15.3378    0.4514   22.3257 O   0  0  0  0  0  0  0  0  0  0  0  0
  1  2  2  0
  1  3  1  0
  2  4  1  0
  3  5  2  0
  4  7  2  0
  5  6  1  0
  5  7  1  0
  6  8  2  0
  6  9  1  0
  7 13  1  0
  8 13  1  0
  8 16  1  0
  9 10  2  0
 10 11  1  0
 11 14  1  0
 11 15  2  0
 12 13  1  0
M  END
