SAN-PRS-3c4a6997-6
     RDKit          3D

 16 17  0  0  0  0  0  0  0  0999 V2000
   14.5526   -0.8408   22.0250 C   0  0  0  0  0  0  0  0  0  0  0  0
   13.6532   -1.8062   22.4733 C   0  0  0  0  0  0  0  0  0  0  0  0
   14.2996    0.5213   22.2241 C   0  0  0  0  0  0  0  0  0  0  0  0
   12.4756   -1.4431   23.1331 C   0  0  0  0  0  0  0  0  0  0  0  0
   13.1189    0.9114   22.8867 C   0  0  0  0  0  0  0  0  0  0  0  0
   12.2359   -0.0778   23.3250 C   0  0  0  0  0  0  0  0  0  0  0  0
   12.5547    2.1660   23.2509 C   0  0  0  0  0  0  0  0  0  0  0  0
   11.3622    1.9188   23.8911 C   0  0  0  0  0  0  0  0  0  0  0  0
   11.9984    5.4205   23.7406 C   0  0  0  0  0  0  0  0  0  0  0  0
   10.0373   -0.1019   24.5260 C   0  0  0  0  0  0  0  0  0  0  0  0
   11.1787    0.5626   23.9312 N   0  0  0  0  0  0  0  0  0  0  0  0
   13.1867    5.8395   24.2730 N   0  0  0  0  0  0  0  0  0  0  0  0
   12.0429    4.3665   22.8785 N   0  0  0  0  0  0  0  0  0  0  0  0
   10.4691    2.7483   24.4159 O   0  0  0  0  0  0  0  0  0  0  0  0
   13.0599    3.3886   23.0287 O   0  0  0  0  0  0  0  0  0  0  0  0
   10.5562    6.1705   24.1298 S   0  0  0  0  0  0  0  0  0  0  0  0
  1  2  2  0
  1  3  1  0
  2  4  1  0
  3  5  2  0
  4  6  2  0
  5  6  1  0
  5  7  1  0
  6 11  1  0
  7  8  2  0
  7 15  1  0
  8 11  1  0
  8 14  1  0
  9 12  1  0
  9 13  1  0
  9 16  2  0
 10 11  1  0
 13 15  1  0
M  END
