SAN-PRS-3c4a6997-3
     RDKit          3D

 17 18  0  0  0  0  0  0  0  0999 V2000
   10.7540   -1.0439   23.3613 C   0  0  0  0  0  0  0  0  0  0  0  0
   11.7038   -1.6587   22.5403 C   0  0  0  0  0  0  0  0  0  0  0  0
   12.8954    0.4374   22.2511 C   0  0  0  0  0  0  0  0  0  0  0  0
   10.6567    2.4445   24.3297 C   0  0  0  0  0  0  0  0  0  0  0  0
   11.9500    1.0789   23.0759 C   0  0  0  0  0  0  0  0  0  0  0  0
   11.7816    2.4142   23.5381 C   0  0  0  0  0  0  0  0  0  0  0  0
   10.9032    0.3250   23.6108 C   0  0  0  0  0  0  0  0  0  0  0  0
   12.7588   -0.9314   21.9928 C   0  0  0  0  0  0  0  0  0  0  0  0
    9.7735    5.9419   23.4309 C   0  0  0  0  0  0  0  0  0  0  0  0
    8.5795    6.0580   22.5427 C   0  0  0  0  0  0  0  0  0  0  0  0
    8.9434    0.8106   25.1029 C   0  0  0  0  0  0  0  0  0  0  0  0
   12.6518    3.5671   23.2305 C   0  0  0  0  0  0  0  0  0  0  0  0
   12.0392    4.9312   23.5968 C   0  0  0  0  0  0  0  0  0  0  0  0
   10.1340    1.1797   24.3677 N   0  0  0  0  0  0  0  0  0  0  0  0
   10.7996    5.1713   22.9080 N   0  0  0  0  0  0  0  0  0  0  0  0
    9.7759    6.5091   24.5172 O   0  0  0  0  0  0  0  0  0  0  0  0
   13.6529   -1.5482   21.2082 F   0  0  0  0  0  0  0  0  0  0  0  0
  1  2  2  0
  1  7  1  0
  2  8  1  0
  3  5  1  0
  3  8  2  0
  4  6  2  0
  4 14  1  0
  5  6  1  0
  5  7  2  0
  6 12  1  0
  7 14  1  0
  8 17  1  0
  9 10  1  0
  9 15  1  0
  9 16  2  0
 11 14  1  0
 12 13  1  0
 13 15  1  0
M  END
