SAN-PRS-3c4a6997-7
     RDKit          3D

 16 17  0  0  0  0  0  0  0  0999 V2000
    9.8874   -1.2172   24.0677 C   0  0  0  0  0  0  0  0  0  0  0  0
   10.6383   -2.2132   23.4465 C   0  0  0  0  0  0  0  0  0  0  0  0
   10.3495    0.1031   24.1163 C   0  0  0  0  0  0  0  0  0  0  0  0
   11.8715   -1.9233   22.8555 C   0  0  0  0  0  0  0  0  0  0  0  0
   11.5900    0.4192   23.5274 C   0  0  0  0  0  0  0  0  0  0  0  0
   12.3467    1.6167   23.3921 C   0  0  0  0  0  0  0  0  0  0  0  0
   12.3208   -0.5993   22.9119 C   0  0  0  0  0  0  0  0  0  0  0  0
   13.5010    1.3077   22.7101 C   0  0  0  0  0  0  0  0  0  0  0  0
   12.1202    5.0347   23.5656 C   0  0  0  0  0  0  0  0  0  0  0  0
   14.5152   -0.7456   21.7118 C   0  0  0  0  0  0  0  0  0  0  0  0
   11.9797    2.8716   23.8650 N   0  0  0  0  0  0  0  0  0  0  0  0
   12.4585    3.7704   23.1324 N   0  0  0  0  0  0  0  0  0  0  0  0
   13.4762   -0.0310   22.4245 N   0  0  0  0  0  0  0  0  0  0  0  0
   11.4107    5.7408   22.6174 N   0  0  0  0  0  0  0  0  0  0  0  0
   12.3945    5.5251   24.6614 O   0  0  0  0  0  0  0  0  0  0  0  0
   14.5214    2.0702   22.3371 O   0  0  0  0  0  0  0  0  0  0  0  0
  1  2  2  0
  1  3  1  0
  2  4  1  0
  3  5  2  0
  4  7  2  0
  5  6  1  0
  5  7  1  0
  6  8  2  0
  6 11  1  0
  7 13  1  0
  8 13  1  0
  8 16  1  0
  9 12  1  0
  9 14  1  0
  9 15  2  0
 10 13  1  0
 11 12  2  0
M  END
