SAN-PRS-52b81272-1
     RDKit          3D

 16 17  0  0  0  0  0  0  0  0999 V2000
    5.8034    0.8590   18.8285 C   0  0  0  0  0  0  0  0  0  0  0  0
    6.5449    0.5515   19.9638 C   0  0  0  0  0  0  0  0  0  0  0  0
    6.4072    0.6868   17.5933 C   0  0  0  0  0  0  0  0  0  0  0  0
    8.3611   -0.0500   18.5512 C   0  0  0  0  0  0  0  0  0  0  0  0
    7.8490    0.0878   19.8312 C   0  0  0  0  0  0  0  0  0  0  0  0
    8.6654   -0.2484   21.0260 C   0  0  0  0  0  0  0  0  0  0  0  0
   13.1707    0.3761   23.6708 C   0  0  0  0  0  0  0  0  0  0  0  0
   12.1971    0.9520   22.6474 C   0  0  0  0  0  0  0  0  0  0  0  0
   12.9237   -1.1090   23.9174 C   0  0  0  0  0  0  0  0  0  0  0  0
   12.2110    0.1547   21.3444 C   0  0  0  0  0  0  0  0  0  0  0  0
   12.9381   -1.9070   22.6148 C   0  0  0  0  0  0  0  0  0  0  0  0
   11.9764   -1.3483   21.5556 C   0  0  0  0  0  0  0  0  0  0  0  0
   10.5159   -1.6488   21.9037 C   0  0  0  0  0  0  0  0  0  0  0  0
    7.6715    0.2386   17.4248 N   0  0  0  0  0  0  0  0  0  0  0  0
    9.6682   -1.2052   20.8490 N   0  0  0  0  0  0  0  0  0  0  0  0
    8.4167    0.3003   22.0964 O   0  0  0  0  0  0  0  0  0  0  0  0
  1  2  2  0
  1  3  1  0
  2  5  1  0
  3 14  2  0
  4  5  2  0
  4 14  1  0
  5  6  1  0
  6 15  1  0
  6 16  2  0
  7  8  1  0
  7  9  1  0
  8 10  1  0
  9 11  1  0
 10 12  1  0
 11 12  1  0
 12 13  1  0
 13 15  1  0
M  END
