SCO-VAN-260d9628-4
     RDKit          3D

 25 26  0  0  0  0  0  0  0  0999 V2000
    6.1201   -2.3127   19.3829 C   0  0  0  0  0  0  0  0  0  0  0  0
    7.2548   -1.7575   21.4764 C   0  0  0  0  0  0  0  0  0  0  0  0
    7.7879   -2.1430   22.7064 C   0  0  0  0  0  0  0  0  0  0  0  0
    6.6109   -4.0446   21.0386 C   0  0  0  0  0  0  0  0  0  0  0  0
    6.6662   -2.7083   20.6426 C   0  0  0  0  0  0  0  0  0  0  0  0
    7.7325   -3.4793   23.1025 C   0  0  0  0  0  0  0  0  0  0  0  0
    7.1440   -4.4301   22.2686 C   0  0  0  0  0  0  0  0  0  0  0  0
   10.7064   -3.5262   24.9897 C   0  0  0  0  0  0  0  0  0  0  0  0
   13.0569   -3.0254   25.5813 C   0  0  0  0  0  0  0  0  0  0  0  0
   11.4327   -1.1744   25.7051 C   0  0  0  0  0  0  0  0  0  0  0  0
   14.0491   -2.0469   24.9727 C   0  0  0  0  0  0  0  0  0  0  0  0
   12.5113   -0.2742   25.1120 C   0  0  0  0  0  0  0  0  0  0  0  0
    2.9566   -7.7678   23.9729 C   0  0  0  0  0  0  0  0  0  0  0  0
    7.0726   -5.8664   22.6721 C   0  0  0  0  0  0  0  0  0  0  0  0
    8.3127   -3.8700   24.4310 C   0  0  0  0  0  0  0  0  0  0  0  0
    5.9891   -6.1542   23.7173 C   0  0  0  0  0  0  0  0  0  0  0  0
    5.6765   -1.9914   18.3598 N   0  0  0  0  0  0  0  0  0  0  0  0
   11.6786   -2.5818   25.3599 N   0  0  0  0  0  0  0  0  0  0  0  0
    9.4234   -3.0239   24.8062 N   0  0  0  0  0  0  0  0  0  0  0  0
    4.6704   -5.8324   23.2415 N   0  0  0  0  0  0  0  0  0  0  0  0
   10.9618   -4.7257   24.8406 O   0  0  0  0  0  0  0  0  0  0  0  0
    2.1899   -5.2759   23.7432 O   0  0  0  0  0  0  0  0  0  0  0  0
    3.7060   -5.9178   25.6526 O   0  0  0  0  0  0  0  0  0  0  0  0
   13.8126   -0.7325   25.4805 O   0  0  0  0  0  0  0  0  0  0  0  0
    3.2999   -6.0479   24.2664 S   0  0  0  0  0  0  0  0  0  0  0  0
  1  5  1  0
  1 17  3  0
  2  3  2  0
  2  5  1  0
  3  6  1  0
  4  5  2  0
  4  7  1  0
  6  7  2  0
  6 15  1  0
  7 14  1  0
  8 18  1  0
  8 19  1  0
  8 21  2  0
  9 11  1  0
  9 18  1  0
 10 12  1  0
 10 18  1  0
 11 24  1  0
 12 24  1  0
 13 25  1  0
 14 16  1  0
 15 19  1  0
 16 20  1  0
 20 25  1  0
 22 25  2  0
 23 25  2  0
M  END
