SCO-CSI-e56d7cb6-1
     RDKit          3D

 36 39  0  0  1  0  0  0  0  0999 V2000
    7.0532   -4.9637   21.8493 C   0  0  0  0  0  0  0  0  0  0  0  0
    8.0663   -5.5463   22.6107 C   0  0  0  0  0  0  0  0  0  0  0  0
    6.2433   -3.9741   22.4064 C   0  0  0  0  0  0  0  0  0  0  0  0
    8.2693   -5.1394   23.9294 C   0  0  0  0  0  0  0  0  0  0  0  0
    6.4463   -3.5672   23.7250 C   0  0  0  0  0  0  0  0  0  0  0  0
    7.4594   -4.1498   24.4866 C   0  0  0  0  0  0  0  0  0  0  0  0
    9.9551    0.1610   22.0586 C   0  0  0  0  0  0  0  0  0  0  0  0
   10.6825    0.9218   22.8798 C   0  0  0  0  0  0  0  0  0  0  0  0
   11.4372    0.2507   23.9632 C   0  0  0  0  0  0  0  0  0  0  0  0
    6.2402    3.5141   22.5116 C   0  0  0  0  0  0  0  0  0  0  0  0
    4.9153    0.9266   19.0170 C   0  0  0  0  0  0  0  0  0  0  0  0
    6.0568   -0.0559   19.1806 C   0  0  0  0  0  0  0  0  0  0  0  0
    9.3146   -0.0653   25.1783 C   0  0  0  0  0  0  0  0  0  0  0  0
   11.1743   -1.6200   25.6469 C   0  0  0  0  0  0  0  0  0  0  0  0
    8.3557   -1.2436   25.0534 C   0  0  0  0  0  0  0  0  0  0  0  0
   10.2171   -2.8016   25.5258 C   0  0  0  0  0  0  0  0  0  0  0  0
    6.2585    5.4225   24.0860 C   0  0  0  0  0  0  0  0  0  0  0  0
    7.5823    5.6169   22.0214 C   0  0  0  0  0  0  0  0  0  0  0  0
    4.8084    1.5771   20.3830 C   0  0  0  0  0  0  0  0  0  0  0  0
    7.4342    6.0288   24.8388 C   0  0  0  0  0  0  0  0  0  0  0  0
    8.7017    6.2206   22.8601 C   0  0  0  0  0  0  0  0  0  0  0  0
    7.0795    0.7505   19.9677 C   0  0  0  0  0  0  0  0  0  0  0  0
    6.7714    2.9206   21.2314 C   0  0  0  0  0  0  0  0  0  0  0  0
    8.0730   -0.1064   20.7305 C   0  0  0  0  0  0  0  0  0  0  0  0
   10.6843   -0.4739   24.8746 N   0  0  0  0  0  0  0  0  0  0  0  0
    6.7188    4.7760   22.8571 N   0  0  0  0  0  0  0  0  0  0  0  0
    8.8392   -2.3686   25.9103 N   0  0  0  0  0  0  0  0  0  0  0  0
    6.2242    1.5576   20.9358 N   0  0  0  0  0  0  0  0  0  0  0  0
   12.6509    0.4062   23.9371 O   0  0  0  0  0  0  0  0  0  0  0  0
    5.4285    2.8737   23.1846 O   0  0  0  0  0  0  0  0  0  0  0  0
    6.4719   -3.0785   26.6431 O   0  0  0  0  0  0  0  0  0  0  0  0
    8.3729   -4.7178   26.8587 O   0  0  0  0  0  0  0  0  0  0  0  0
    8.1613    6.9172   23.9861 O   0  0  0  0  0  0  0  0  0  0  0  0
   10.7535    2.2888   22.7540 O   0  0  0  0  0  0  0  0  0  0  0  0
    9.2174    0.6662   21.0225 O   0  0  0  0  0  0  0  0  0  0  0  0
    7.7145   -3.6376   26.1564 S   0  0  0  0  0  0  0  0  0  0  0  0
  1  2  2  0
  1  3  1  0
  2  4  1  0
  3  5  2  0
  4  6  2  0
  5  6  1  0
  6 36  1  0
  7  8  2  0
  7 35  1  0
  8  9  1  0
  8 34  1  0
  9 25  1  0
  9 29  2  0
 10 23  1  0
 10 26  1  0
 10 30  2  0
 11 12  1  0
 11 19  1  0
 12 22  1  0
 13 15  1  0
 13 25  1  0
 14 16  1  0
 14 25  1  0
 15 27  1  0
 16 27  1  0
 17 20  1  0
 17 26  1  0
 18 21  1  0
 18 26  1  0
 19 28  1  0
 20 33  1  0
 21 33  1  0
 22 24  1  0
 22 28  1  0
 23 28  1  0
 24 35  1  0
 27 36  1  0
 31 36  2  0
 32 36  2  0
M  CHG  1  28   1
M  END
