SCO-VAN-260d9628-3
     RDKit          3D

 18 20  0  0  1  0  0  0  0  0999 V2000
    8.0061   -0.0114   21.0952 C   0  0  0  0  0  0  0  0  0  0  0  0
    7.2805    0.1805   19.9401 C   0  0  0  0  0  0  0  0  0  0  0  0
    6.9080   -2.0511   20.9049 C   0  0  0  0  0  0  0  0  0  0  0  0
   12.0216    1.0747   24.1686 C   0  0  0  0  0  0  0  0  0  0  0  0
    7.7905   -1.3042   21.6541 C   0  0  0  0  0  0  0  0  0  0  0  0
   10.6180   -0.6807   23.4508 C   0  0  0  0  0  0  0  0  0  0  0  0
    6.7403   -3.2857   23.9978 C   0  0  0  0  0  0  0  0  0  0  0  0
   10.4185   -3.1699   23.4128 C   0  0  0  0  0  0  0  0  0  0  0  0
    9.1807   -3.7156   24.1118 C   0  0  0  0  0  0  0  0  0  0  0  0
    8.4400   -1.7867   22.8968 C   0  0  0  0  0  0  0  0  0  0  0  0
    9.9885   -1.8371   22.7653 C   0  0  0  0  0  0  0  0  0  0  0  0
    8.0298   -3.2294   23.2405 C   0  0  0  0  0  0  0  0  0  0  0  0
   10.9239    1.0016   24.8907 N   0  0  0  0  0  0  0  0  0  0  0  0
   10.1010   -0.0287   24.4703 N   0  0  0  0  0  0  0  0  0  0  0  0
    6.7343   -2.5209   25.1403 N   0  0  0  0  0  0  0  0  0  0  0  0
    5.7820   -3.9477   23.6068 O   0  0  0  0  0  0  0  0  0  0  0  0
    6.3439   -1.1943   19.5338 S   0  0  0  0  0  0  0  0  0  0  0  0
   12.1417   -0.0974   22.9221 S   0  0  0  0  0  0  0  0  0  0  0  0
  1  2  2  0
  1  5  1  0
  2 17  1  0
  3  5  2  0
  3 17  1  0
  4 13  2  0
  4 18  1  0
  5 10  1  0
  6 11  1  0
  6 14  2  0
  6 18  1  0
  7 12  1  0
  7 15  1  0
  7 16  2  0
  8  9  1  0
  8 11  1  0
  9 12  1  0
 10 11  1  0
 10 12  1  0
 13 14  1  0
M  END
