SCO-CSI-071a6f1c-1
     RDKit          3D

 30 32  0  0  1  0  0  0  0  0999 V2000
    6.9098    0.6039   21.2988 C   0  0  0  0  0  0  0  0  0  0  0  0
    7.4405   -0.5432   20.7090 C   0  0  0  0  0  0  0  0  0  0  0  0
    7.0728    0.8242   22.6665 C   0  0  0  0  0  0  0  0  0  0  0  0
    8.1343   -1.4702   21.4869 C   0  0  0  0  0  0  0  0  0  0  0  0
    7.7665   -0.1028   23.4444 C   0  0  0  0  0  0  0  0  0  0  0  0
    8.2973   -1.2500   22.8546 C   0  0  0  0  0  0  0  0  0  0  0  0
   12.3881    2.4627   22.4211 C   0  0  0  0  0  0  0  0  0  0  0  0
   13.5882    2.0203   22.8035 C   0  0  0  0  0  0  0  0  0  0  0  0
   13.9413    0.6150   22.4966 C   0  0  0  0  0  0  0  0  0  0  0  0
   12.4274    6.2338   24.6912 C   0  0  0  0  0  0  0  0  0  0  0  0
    8.9312    5.3140   25.5472 C   0  0  0  0  0  0  0  0  0  0  0  0
    8.9087    5.4016   24.0256 C   0  0  0  0  0  0  0  0  0  0  0  0
   10.2125    6.0475   25.9131 C   0  0  0  0  0  0  0  0  0  0  0  0
   12.4403   -0.1071   24.3151 C   0  0  0  0  0  0  0  0  0  0  0  0
   12.9028   -1.6925   22.4800 C   0  0  0  0  0  0  0  0  0  0  0  0
   10.9502   -0.4090   24.2058 C   0  0  0  0  0  0  0  0  0  0  0  0
   11.4127   -1.9996   22.3696 C   0  0  0  0  0  0  0  0  0  0  0  0
   10.3826    5.2515   23.6402 C   0  0  0  0  0  0  0  0  0  0  0  0
   12.9771    6.9233   25.9145 C   0  0  0  0  0  0  0  0  0  0  0  0
   10.7785    3.7909   23.4324 C   0  0  0  0  0  0  0  0  0  0  0  0
   13.1168   -0.3561   23.0441 N   0  0  0  0  0  0  0  0  0  0  0  0
   11.1001    5.8447   24.7707 N   0  0  0  0  0  0  0  0  0  0  0  0
   10.7632   -1.8034   23.7014 N   0  0  0  0  0  0  0  0  0  0  0  0
   14.9266    0.4601   21.7872 O   0  0  0  0  0  0  0  0  0  0  0  0
   13.1460    6.0450   23.7084 O   0  0  0  0  0  0  0  0  0  0  0  0
    8.7253   -2.2770   25.2073 O   0  0  0  0  0  0  0  0  0  0  0  0
    9.1094   -3.7050   23.1674 O   0  0  0  0  0  0  0  0  0  0  0  0
   14.4949    2.8157   23.4632 O   0  0  0  0  0  0  0  0  0  0  0  0
   11.9507    3.7394   22.6480 O   0  0  0  0  0  0  0  0  0  0  0  0
    9.1724   -2.4250   23.8392 S   0  0  0  0  0  0  0  0  0  0  0  0
  1  2  2  0
  1  3  1  0
  2  4  1  0
  3  5  2  0
  4  6  2  0
  5  6  1  0
  6 30  1  0
  7  8  2  0
  7 29  1  0
  8  9  1  0
  8 28  1  0
  9 21  1  0
  9 24  2  0
 10 19  1  0
 10 22  1  0
 10 25  2  0
 11 12  1  0
 11 13  1  0
 12 18  1  0
 13 22  1  0
 14 16  1  0
 14 21  1  0
 15 17  1  0
 15 21  1  0
 16 23  1  0
 17 23  1  0
 18 20  1  0
 18 22  1  0
 20 29  1  0
 23 30  1  0
 26 30  2  0
 27 30  2  0
M  END
