SEA-TRI-078a8df3-1
     RDKit          3D

 30 33  0  0  1  0  0  0  0  0999 V2000
    9.9181   -4.7614   24.8271 C   0  0  0  0  0  0  0  0  0  0  0  0
   11.3483    0.6856   24.4651 C   0  0  0  0  0  0  0  0  0  0  0  0
   10.2050   -3.7073   23.9591 C   0  0  0  0  0  0  0  0  0  0  0  0
   10.3677   -0.1954   24.0093 C   0  0  0  0  0  0  0  0  0  0  0  0
    8.5999   -5.1531   25.0359 C   0  0  0  0  0  0  0  0  0  0  0  0
   12.5298    0.8491   23.7418 C   0  0  0  0  0  0  0  0  0  0  0  0
   11.7500   -0.7496   22.1069 C   0  0  0  0  0  0  0  0  0  0  0  0
   10.5686   -0.9131   22.8302 C   0  0  0  0  0  0  0  0  0  0  0  0
    9.1746   -3.0165   23.2973 C   0  0  0  0  0  0  0  0  0  0  0  0
    7.8430   -3.4489   23.4784 C   0  0  0  0  0  0  0  0  0  0  0  0
    7.5673   -4.5021   24.3641 C   0  0  0  0  0  0  0  0  0  0  0  0
   12.7306    0.1315   22.5627 C   0  0  0  0  0  0  0  0  0  0  0  0
    6.2006   -0.4591   18.6635 C   0  0  0  0  0  0  0  0  0  0  0  0
    7.0324   -1.3125   19.2645 C   0  0  0  0  0  0  0  0  0  0  0  0
    6.5260   -2.1345   20.3819 C   0  0  0  0  0  0  0  0  0  0  0  0
    6.6930   -2.7879   22.7567 C   0  0  0  0  0  0  0  0  0  0  0  0
    8.2421   -1.0743   21.9422 C   0  0  0  0  0  0  0  0  0  0  0  0
    4.7941   -3.0136   27.4944 C   0  0  0  0  0  0  0  0  0  0  0  0
    2.8886   -3.3173   25.9265 C   0  0  0  0  0  0  0  0  0  0  0  0
    4.5783   -1.5154   27.3647 C   0  0  0  0  0  0  0  0  0  0  0  0
    2.7708   -1.8034   25.8783 C   0  0  0  0  0  0  0  0  0  0  0  0
    9.4981   -1.8757   22.3339 C   0  0  0  0  0  0  0  0  0  0  0  0
    4.5510   -5.1576   26.2340 C   0  0  0  0  0  0  0  0  0  0  0  0
    5.9942   -5.4506   25.8740 C   0  0  0  0  0  0  0  0  0  0  0  0
    7.1457   -1.9896   21.6188 N   0  0  0  0  0  0  0  0  0  0  0  0
    4.3278   -3.6726   26.2176 N   0  0  0  0  0  0  0  0  0  0  0  0
    5.5935   -2.9053   20.1502 O   0  0  0  0  0  0  0  0  0  0  0  0
    3.2022   -1.2275   27.1122 O   0  0  0  0  0  0  0  0  0  0  0  0
    6.2845   -4.9095   24.5879 O   0  0  0  0  0  0  0  0  0  0  0  0
   14.1889    0.3328   21.6712 Cl  0  0  0  0  0  0  0  0  0  0  0  0
  1  3  2  0
  1  5  1  0
  2  4  2  0
  2  6  1  0
  3  9  1  0
  4  8  1  0
  5 11  2  0
  6 12  2  0
  7  8  2  0
  7 12  1  0
  8 22  1  0
  9 10  2  0
  9 22  1  0
 10 11  1  0
 10 16  1  0
 11 29  1  0
 12 30  1  0
 13 14  2  0
 14 15  1  0
 15 25  1  0
 15 27  2  0
 16 25  1  0
 17 22  1  0
 17 25  1  0
 18 20  1  0
 18 26  1  0
 19 21  1  0
 19 26  1  0
 20 28  1  0
 21 28  1  0
 23 24  1  0
 23 26  1  0
 24 29  1  0
M  CHG  1  26   1
M  END
