SEA-TRI-6cb4f71a-1
     RDKit          3D

 30 32  0  0  1  0  0  0  0  0999 V2000
    8.7480   -4.1800   25.1055 C   0  0  0  0  0  0  0  0  0  0  0  0
    8.9075   -3.5908   23.8180 C   0  0  0  0  0  0  0  0  0  0  0  0
   10.5199    0.7663   23.5486 C   0  0  0  0  0  0  0  0  0  0  0  0
   12.8757    0.9883   23.0614 C   0  0  0  0  0  0  0  0  0  0  0  0
   11.6556   -0.9419   22.2723 C   0  0  0  0  0  0  0  0  0  0  0  0
    8.7389   -3.2363   26.1089 C   0  0  0  0  0  0  0  0  0  0  0  0
   11.7118    1.4836   23.6493 C   0  0  0  0  0  0  0  0  0  0  0  0
   10.4918   -0.4466   22.8602 C   0  0  0  0  0  0  0  0  0  0  0  0
   12.8476   -0.2246   22.3729 C   0  0  0  0  0  0  0  0  0  0  0  0
    9.0140   -2.2190   23.8866 C   0  0  0  0  0  0  0  0  0  0  0  0
    7.0443   -3.1595   16.9324 C   0  0  0  0  0  0  0  0  0  0  0  0
    7.2123   -2.5456   18.1051 C   0  0  0  0  0  0  0  0  0  0  0  0
    7.8221   -0.1577   20.1041 C   0  0  0  0  0  0  0  0  0  0  0  0
    6.4698   -1.8695   21.2689 C   0  0  0  0  0  0  0  0  0  0  0  0
    8.0386    0.5821   21.4152 C   0  0  0  0  0  0  0  0  0  0  0  0
    6.6718   -1.1473   22.5920 C   0  0  0  0  0  0  0  0  0  0  0  0
   11.7408    2.7812   24.3843 C   0  0  0  0  0  0  0  0  0  0  0  0
   11.4422    3.9945   23.4995 C   0  0  0  0  0  0  0  0  0  0  0  0
    9.1919   -1.2265   22.7497 C   0  0  0  0  0  0  0  0  0  0  0  0
    6.5235   -0.8894   20.1463 N   0  0  0  0  0  0  0  0  0  0  0  0
   11.1552    6.6073   23.1228 N   0  0  0  0  0  0  0  0  0  0  0  0
    7.9661   -0.3706   22.5838 N   0  0  0  0  0  0  0  0  0  0  0  0
    5.9125   -0.3470   17.7198 O   0  0  0  0  0  0  0  0  0  0  0  0
    4.7658   -2.2594   18.8818 O   0  0  0  0  0  0  0  0  0  0  0  0
   10.4559    5.5437   25.3580 O   0  0  0  0  0  0  0  0  0  0  0  0
   12.9103    5.7310   24.7868 O   0  0  0  0  0  0  0  0  0  0  0  0
    8.9221   -1.6471   25.4980 S   0  0  0  0  0  0  0  0  0  0  0  0
    5.9612   -1.4726   18.6362 S   0  0  0  0  0  0  0  0  0  0  0  0
   11.5312    5.5210   24.3818 S   0  0  0  0  0  0  0  0  0  0  0  0
   14.2840   -0.8364   21.6487 Cl  0  0  0  0  0  0  0  0  0  0  0  0
  1  2  1  0
  1  6  2  0
  2 10  2  0
  3  7  2  0
  3  8  1  0
  4  7  1  0
  4  9  2  0
  5  8  2  0
  5  9  1  0
  6 27  1  0
  7 17  1  0
  8 19  1  0
  9 30  1  0
 10 19  1  0
 10 27  1  0
 11 12  2  0
 12 28  1  0
 13 15  1  0
 13 20  1  0
 14 16  1  0
 14 20  1  0
 15 22  1  0
 16 22  1  0
 17 18  1  0
 18 29  1  0
 19 22  1  0
 20 28  1  0
 21 29  1  0
 23 28  2  0
 24 28  2  0
 25 29  2  0
 26 29  2  0
M  CHG  1  22   1
M  END
