SEA-TRI-5a552082-1
     RDKit          3D

 23 24  0  0  0  0  0  0  0  0999 V2000
   14.0101   -0.9128   24.1243 C   0  0  0  0  0  0  0  0  0  0  0  0
   12.7451   -0.3409   23.9892 C   0  0  0  0  0  0  0  0  0  0  0  0
   14.6833   -1.3904   22.9998 C   0  0  0  0  0  0  0  0  0  0  0  0
   12.8264   -0.7242   21.6052 C   0  0  0  0  0  0  0  0  0  0  0  0
    8.4786    0.0833   19.0028 C   0  0  0  0  0  0  0  0  0  0  0  0
    6.6165   -0.1335   20.3962 C   0  0  0  0  0  0  0  0  0  0  0  0
    6.3722    0.0996   18.1483 C   0  0  0  0  0  0  0  0  0  0  0  0
   12.1533   -0.2466   22.7296 C   0  0  0  0  0  0  0  0  0  0  0  0
    7.9905   -0.0722   20.2842 C   0  0  0  0  0  0  0  0  0  0  0  0
   14.0915   -1.2961   21.7403 C   0  0  0  0  0  0  0  0  0  0  0  0
    8.1591   -4.6034   24.1978 C   0  0  0  0  0  0  0  0  0  0  0  0
    8.0656   -3.2963   23.9460 C   0  0  0  0  0  0  0  0  0  0  0  0
   10.1276    0.5095   21.4198 C   0  0  0  0  0  0  0  0  0  0  0  0
    8.4388   -0.9545   22.6126 C   0  0  0  0  0  0  0  0  0  0  0  0
    7.6952    0.1730   17.9080 N   0  0  0  0  0  0  0  0  0  0  0  0
    5.7741   -0.0505   19.3456 N   0  0  0  0  0  0  0  0  0  0  0  0
   10.8685    0.3333   22.5940 N   0  0  0  0  0  0  0  0  0  0  0  0
    8.8656   -0.1649   21.4378 N   0  0  0  0  0  0  0  0  0  0  0  0
   10.5177    1.1767   20.4595 O   0  0  0  0  0  0  0  0  0  0  0  0
   10.2659   -2.8484   22.6562 O   0  0  0  0  0  0  0  0  0  0  0  0
    8.1442   -3.2442   21.3574 O   0  0  0  0  0  0  0  0  0  0  0  0
    8.8305   -2.6984   22.5129 S   0  0  0  0  0  0  0  0  0  0  0  0
   14.9220   -1.8853   20.3528 Cl  0  0  0  0  0  0  0  0  0  0  0  0
  1  2  2  0
  1  3  1  0
  2  8  1  0
  3 10  2  0
  4  8  2  0
  4 10  1  0
  5  9  2  0
  5 15  1  0
  6  9  1  0
  6 16  2  0
  7 15  2  0
  7 16  1  0
  8 17  1  0
  9 18  1  0
 10 23  1  0
 11 12  2  0
 12 22  1  0
 13 17  1  0
 13 18  1  0
 13 19  2  0
 14 18  1  0
 14 22  1  0
 20 22  2  0
 21 22  2  0
M  END
