SEA-TRI-f744d433-1
     RDKit          3D

 25 27  0  0  1  0  0  0  0  0999 V2000
   14.3859   -1.9449   25.9803 C   0  0  0  0  0  0  0  0  0  0  0  0
   13.7824   -0.7108   25.7652 C   0  0  0  0  0  0  0  0  0  0  0  0
   13.7129   -3.1331   25.6851 C   0  0  0  0  0  0  0  0  0  0  0  0
   12.4860   -0.6346   25.2477 C   0  0  0  0  0  0  0  0  0  0  0  0
   11.7836   -1.8200   24.9407 C   0  0  0  0  0  0  0  0  0  0  0  0
   12.4112   -3.0491   25.1654 C   0  0  0  0  0  0  0  0  0  0  0  0
   10.1661   -3.1589   24.2638 C   0  0  0  0  0  0  0  0  0  0  0  0
    6.7276   -3.5196   20.7639 C   0  0  0  0  0  0  0  0  0  0  0  0
    7.0521   -5.4274   23.7625 C   0  0  0  0  0  0  0  0  0  0  0  0
    8.3914   -4.9687   24.3419 C   0  0  0  0  0  0  0  0  0  0  0  0
    7.0959   -5.4729   22.2377 C   0  0  0  0  0  0  0  0  0  0  0  0
    8.8324   -3.7174   22.1813 C   0  0  0  0  0  0  0  0  0  0  0  0
    8.8282   -3.6303   23.7175 C   0  0  0  0  0  0  0  0  0  0  0  0
   11.8854    0.7194   25.0364 C   0  0  0  0  0  0  0  0  0  0  0  0
    7.2433   -2.1987   20.2511 C   0  0  0  0  0  0  0  0  0  0  0  0
   11.4896    0.9901   23.5843 C   0  0  0  0  0  0  0  0  0  0  0  0
   10.4986   -1.8993   24.4240 N   0  0  0  0  0  0  0  0  0  0  0  0
    7.5288   -4.1859   21.6903 N   0  0  0  0  0  0  0  0  0  0  0  0
   10.5139    2.5524   21.6716 N   0  0  0  0  0  0  0  0  0  0  0  0
    5.6440   -3.9436   20.3540 O   0  0  0  0  0  0  0  0  0  0  0  0
    9.5686    2.6963   24.0596 O   0  0  0  0  0  0  0  0  0  0  0  0
   11.8919    3.5719   23.5896 O   0  0  0  0  0  0  0  0  0  0  0  0
   11.3401   -4.3207   24.7086 S   0  0  0  0  0  0  0  0  0  0  0  0
   10.8307    2.6105   23.3458 S   0  0  0  0  0  0  0  0  0  0  0  0
    6.0602   -1.6136   19.0867 Cl  0  0  0  0  0  0  0  0  0  0  0  0
  1  2  2  0
  1  3  1  0
  2  4  1  0
  3  6  2  0
  4  5  2  0
  4 14  1  0
  5  6  1  0
  5 17  1  0
  6 23  1  0
  7 13  1  0
  7 17  2  0
  7 23  1  0
  8 15  1  0
  8 18  1  0
  8 20  2  0
  9 10  1  0
  9 11  1  0
 10 13  1  0
 11 18  1  0
 12 13  1  0
 12 18  1  0
 14 16  1  0
 15 25  1  0
 16 24  1  0
 19 24  1  0
 21 24  2  0
 22 24  2  0
M  END
