SEA-TRI-146a67b6-1
     RDKit          3D

 24 26  0  0  0  0  0  0  0  0999 V2000
    7.7238    7.0042   25.4826 C   0  0  0  0  0  0  0  0  0  0  0  0
    9.0554    6.6219   25.3209 C   0  0  0  0  0  0  0  0  0  0  0  0
    6.9806    7.4263   24.3802 C   0  0  0  0  0  0  0  0  0  0  0  0
   10.2335   -2.8712   24.0721 C   0  0  0  0  0  0  0  0  0  0  0  0
    8.9007    7.0837   22.9545 C   0  0  0  0  0  0  0  0  0  0  0  0
    9.0789   -3.4575   24.5186 C   0  0  0  0  0  0  0  0  0  0  0  0
    9.6439    6.6616   24.0569 C   0  0  0  0  0  0  0  0  0  0  0  0
    7.5691    7.4661   23.1162 C   0  0  0  0  0  0  0  0  0  0  0  0
    9.8577   -1.5398   23.8234 C   0  0  0  0  0  0  0  0  0  0  0  0
   10.7726   -0.5066   23.3223 C   0  0  0  0  0  0  0  0  0  0  0  0
   11.8866   -0.0875   23.9448 C   0  0  0  0  0  0  0  0  0  0  0  0
   12.6561    0.9576   23.2405 C   0  0  0  0  0  0  0  0  0  0  0  0
   12.7519    3.2220   22.2734 C   0  0  0  0  0  0  0  0  0  0  0  0
   10.6198    2.4991   23.2826 C   0  0  0  0  0  0  0  0  0  0  0  0
   12.6800    4.5442   23.0207 C   0  0  0  0  0  0  0  0  0  0  0  0
   10.5154    3.8240   24.0287 C   0  0  0  0  0  0  0  0  0  0  0  0
   12.4233   -0.5236   25.2704 C   0  0  0  0  0  0  0  0  0  0  0  0
   11.0766    6.2513   23.8839 C   0  0  0  0  0  0  0  0  0  0  0  0
    8.5686   -1.3174   24.0948 N   0  0  0  0  0  0  0  0  0  0  0  0
   12.0179    2.1669   22.9753 N   0  0  0  0  0  0  0  0  0  0  0  0
   11.2291    4.8994   23.2454 N   0  0  0  0  0  0  0  0  0  0  0  0
   13.8179    0.6940   22.9254 O   0  0  0  0  0  0  0  0  0  0  0  0
    8.0782   -2.5404   24.5366 O   0  0  0  0  0  0  0  0  0  0  0  0
    6.6520    7.9880   21.7567 Cl  0  0  0  0  0  0  0  0  0  0  0  0
  1  2  2  0
  1  3  1  0
  2  7  1  0
  3  8  2  0
  4  6  2  0
  4  9  1  0
  5  7  2  0
  5  8  1  0
  6 23  1  0
  7 18  1  0
  8 24  1  0
  9 10  1  0
  9 19  2  0
 10 11  2  0
 11 12  1  0
 11 17  1  0
 12 20  1  0
 12 22  2  0
 13 15  1  0
 13 20  1  0
 14 16  1  0
 14 20  1  0
 15 21  1  0
 16 21  1  0
 18 21  1  0
 19 23  1  0
M  CHG  1  21   1
M  END
