SEA-TRI-04ff6e57-1
     RDKit          3D

 23 25  0  0  0  0  0  0  0  0999 V2000
    8.6769   -2.0301   25.3086 C   0  0  0  0  0  0  0  0  0  0  0  0
    9.6077   -1.3437   24.5289 C   0  0  0  0  0  0  0  0  0  0  0  0
    7.8677   -3.0078   24.7297 C   0  0  0  0  0  0  0  0  0  0  0  0
   13.1837   -0.4521   22.1413 C   0  0  0  0  0  0  0  0  0  0  0  0
   14.3919   -0.7979   22.8128 C   0  0  0  0  0  0  0  0  0  0  0  0
    8.9201   -2.6124   22.5912 C   0  0  0  0  0  0  0  0  0  0  0  0
    6.8031    0.9466   20.2565 C   0  0  0  0  0  0  0  0  0  0  0  0
    8.4475    0.1323   18.8111 C   0  0  0  0  0  0  0  0  0  0  0  0
    6.4225    0.7965   18.0205 C   0  0  0  0  0  0  0  0  0  0  0  0
    9.7293   -1.6348   23.1702 C   0  0  0  0  0  0  0  0  0  0  0  0
    8.0787    0.4427   20.1041 C   0  0  0  0  0  0  0  0  0  0  0  0
    7.9892   -3.2989   23.3710 C   0  0  0  0  0  0  0  0  0  0  0  0
   12.0800   -1.0245   22.7343 C   0  0  0  0  0  0  0  0  0  0  0  0
   14.1655   -1.6213   23.8939 C   0  0  0  0  0  0  0  0  0  0  0  0
   10.2602   -0.2426   21.1839 C   0  0  0  0  0  0  0  0  0  0  0  0
    5.9452    1.1372   19.2327 N   0  0  0  0  0  0  0  0  0  0  0  0
    7.6417    0.2970   17.7417 N   0  0  0  0  0  0  0  0  0  0  0  0
    8.9511    0.2564   21.2030 N   0  0  0  0  0  0  0  0  0  0  0  0
   10.6600   -0.9469   22.3912 N   0  0  0  0  0  0  0  0  0  0  0  0
   11.0184   -0.1639   20.2148 O   0  0  0  0  0  0  0  0  0  0  0  0
   12.5020   -1.9744   24.0953 S   0  0  0  0  0  0  0  0  0  0  0  0
    6.9909   -4.5051   22.6565 Cl  0  0  0  0  0  0  0  0  0  0  0  0
   15.3225   -2.2755   24.9755 Cl  0  0  0  0  0  0  0  0  0  0  0  0
  1  2  2  0
  1  3  1  0
  2 10  1  0
  3 12  2  0
  4  5  1  0
  4 13  2  0
  5 14  2  0
  6 10  2  0
  6 12  1  0
  7 11  2  0
  7 16  1  0
  8 11  1  0
  8 17  2  0
  9 16  2  0
  9 17  1  0
 10 19  1  0
 11 18  1  0
 12 22  1  0
 13 19  1  0
 13 21  1  0
 14 21  1  0
 14 23  1  0
 15 18  1  0
 15 19  1  0
 15 20  2  0
M  END
