SEA-TRI-74689dea-1
     RDKit          3D

 20 21  0  0  1  0  0  0  0  0999 V2000
   13.3056   -1.1169   24.7624 C   0  0  0  0  0  0  0  0  0  0  0  0
    6.0594   -1.9212   19.4938 C   0  0  0  0  0  0  0  0  0  0  0  0
   11.2912   -4.0804   25.7701 C   0  0  0  0  0  0  0  0  0  0  0  0
   12.2565   -3.0738   25.7864 C   0  0  0  0  0  0  0  0  0  0  0  0
   10.3853   -4.1610   24.7124 C   0  0  0  0  0  0  0  0  0  0  0  0
    8.8037   -5.8373   22.2034 C   0  0  0  0  0  0  0  0  0  0  0  0
    7.7269   -6.7191   22.5084 C   0  0  0  0  0  0  0  0  0  0  0  0
   11.4101   -2.2280   23.6875 C   0  0  0  0  0  0  0  0  0  0  0  0
   12.3160   -2.1475   24.7452 C   0  0  0  0  0  0  0  0  0  0  0  0
   10.4448   -3.2348   23.6712 C   0  0  0  0  0  0  0  0  0  0  0  0
    8.5620   -4.5542   22.6424 C   0  0  0  0  0  0  0  0  0  0  0  0
    6.7031   -6.0762   23.1692 C   0  0  0  0  0  0  0  0  0  0  0  0
    6.6533   -1.9554   20.7833 C   0  0  0  0  0  0  0  0  0  0  0  0
    7.9835   -1.9737   20.9436 C   0  0  0  0  0  0  0  0  0  0  0  0
    8.6607   -2.0097   22.2885 C   0  0  0  0  0  0  0  0  0  0  0  0
    9.4542   -3.3230   22.5151 C   0  0  0  0  0  0  0  0  0  0  0  0
   14.1092   -0.2798   24.7764 N   0  0  0  0  0  0  0  0  0  0  0  0
    5.5701   -1.8927   18.4421 N   0  0  0  0  0  0  0  0  0  0  0  0
    7.0421   -4.4164   23.4189 S   0  0  0  0  0  0  0  0  0  0  0  0
    5.2260   -6.7461   23.7227 Cl  0  0  0  0  0  0  0  0  0  0  0  0
  1  9  1  0
  1 17  3  0
  2 13  1  0
  2 18  3  0
  3  4  2  0
  3  5  1  0
  4  9  1  0
  5 10  2  0
  6  7  1  0
  6 11  2  0
  7 12  2  0
  8  9  2  0
  8 10  1  0
 10 16  1  0
 11 16  1  0
 11 19  1  0
 12 19  1  0
 12 20  1  0
 13 14  2  0
 14 15  1  0
 15 16  1  0
M  END
