SEL-UNI-49ab05bd-2
     RDKit          3D

 22 23  0  0  1  0  0  0  0  0999 V2000
    8.0269   -2.1937   23.9818 C   0  0  0  0  0  0  0  0  0  0  0  0
    6.6607   -5.0090   23.7352 C   0  0  0  0  0  0  0  0  0  0  0  0
    9.4698   -2.7503   22.1459 C   0  0  0  0  0  0  0  0  0  0  0  0
    9.0243   -1.5905   24.6428 C   0  0  0  0  0  0  0  0  0  0  0  0
    7.6212   -5.6183   24.4389 C   0  0  0  0  0  0  0  0  0  0  0  0
    8.2469   -2.7955   22.6916 C   0  0  0  0  0  0  0  0  0  0  0  0
   11.3198   -0.8553   24.8882 C   0  0  0  0  0  0  0  0  0  0  0  0
    6.3599   -2.6627   21.1912 C   0  0  0  0  0  0  0  0  0  0  0  0
   10.6319   -2.0927   22.8282 C   0  0  0  0  0  0  0  0  0  0  0  0
    8.0962   -5.6812   21.8915 C   0  0  0  0  0  0  0  0  0  0  0  0
    6.9129   -4.7923   22.2716 C   0  0  0  0  0  0  0  0  0  0  0  0
   12.7046   -0.7948   24.2871 C   0  0  0  0  0  0  0  0  0  0  0  0
    6.7176   -1.1962   21.0194 C   0  0  0  0  0  0  0  0  0  0  0  0
   10.3182   -1.5016   24.1453 N   0  0  0  0  0  0  0  0  0  0  0  0
    7.1959   -3.3962   22.0627 N   0  0  0  0  0  0  0  0  0  0  0  0
   11.1220   -0.3418   25.9939 O   0  0  0  0  0  0  0  0  0  0  0  0
    5.3976   -3.1588   20.5989 O   0  0  0  0  0  0  0  0  0  0  0  0
   10.0008   -4.9928   23.5873 O   0  0  0  0  0  0  0  0  0  0  0  0
    9.2681   -7.4155   23.5058 O   0  0  0  0  0  0  0  0  0  0  0  0
    8.9710   -5.9998   23.4268 S   0  0  0  0  0  0  0  0  0  0  0  0
   13.5638   -2.2172   24.8645 Cl  0  0  0  0  0  0  0  0  0  0  0  0
    7.8799   -0.9835   19.6949 Cl  0  0  0  0  0  0  0  0  0  0  0  0
  1  4  2  0
  1  6  1  0
  2  5  2  0
  2 11  1  0
  3  6  2  0
  3  9  1  0
  4 14  1  0
  5 20  1  0
  6 15  1  0
  7 12  1  0
  7 14  1  0
  7 16  2  0
  8 13  1  0
  8 15  1  0
  8 17  2  0
  9 14  1  0
 10 11  1  0
 10 20  1  0
 11 15  1  0
 12 21  1  0
 13 22  1  0
 18 20  2  0
 19 20  2  0
M  END
