SEL-UNI-cd366922-3
     RDKit          3D

 25 27  0  0  1  0  0  0  0  0999 V2000
    7.3367   -4.5576   22.1611 C   0  0  0  0  0  0  0  0  0  0  0  0
    8.1766   -4.4935   23.3132 C   0  0  0  0  0  0  0  0  0  0  0  0
    7.0725   -3.3107   21.6405 C   0  0  0  0  0  0  0  0  0  0  0  0
    8.5473   -3.1937   23.6071 C   0  0  0  0  0  0  0  0  0  0  0  0
    6.2796   -2.9644   20.5055 C   0  0  0  0  0  0  0  0  0  0  0  0
    6.3053   -0.2833   17.9961 C   0  0  0  0  0  0  0  0  0  0  0  0
    8.6249   -5.6526   24.1397 C   0  0  0  0  0  0  0  0  0  0  0  0
    8.9858   -5.1960   25.5568 C   0  0  0  0  0  0  0  0  0  0  0  0
   11.3644   -4.3948   25.1097 C   0  0  0  0  0  0  0  0  0  0  0  0
   12.3773   -3.2705   25.3421 C   0  0  0  0  0  0  0  0  0  0  0  0
   10.5717   -1.8434   24.3001 C   0  0  0  0  0  0  0  0  0  0  0  0
    9.4234   -2.7658   24.7673 C   0  0  0  0  0  0  0  0  0  0  0  0
    9.9557   -3.9955   25.5734 C   0  0  0  0  0  0  0  0  0  0  0  0
   11.7570   -1.8734   25.2599 C   0  0  0  0  0  0  0  0  0  0  0  0
    5.4197    0.0175   16.8150 C   0  0  0  0  0  0  0  0  0  0  0  0
   12.0077    0.7271   24.7907 N   0  0  0  0  0  0  0  0  0  0  0  0
    6.6332   -1.8076   19.7844 N   0  0  0  0  0  0  0  0  0  0  0  0
    5.9230   -1.4248   18.6724 N   0  0  0  0  0  0  0  0  0  0  0  0
    5.3029   -3.6696   20.1414 O   0  0  0  0  0  0  0  0  0  0  0  0
    7.2482    0.4441   18.3033 O   0  0  0  0  0  0  0  0  0  0  0  0
   13.9410   -0.5792   25.8736 O   0  0  0  0  0  0  0  0  0  0  0  0
   13.3929   -0.9659   23.4373 O   0  0  0  0  0  0  0  0  0  0  0  0
    7.8236   -2.0674   22.5421 S   0  0  0  0  0  0  0  0  0  0  0  0
   12.9761   -0.6743   24.7952 S   0  0  0  0  0  0  0  0  0  0  0  0
    4.1155    1.0791   17.3685 Cl  0  0  0  0  0  0  0  0  0  0  0  0
  1  2  1  0
  1  3  2  0
  2  4  2  0
  2  7  1  0
  3  5  1  0
  3 23  1  0
  4 12  1  0
  4 23  1  0
  5 17  1  0
  5 19  2  0
  6 15  1  0
  6 18  1  0
  6 20  2  0
  7  8  1  0
  8 13  1  0
  9 10  1  0
  9 13  1  0
 10 14  1  0
 11 12  1  0
 11 14  1  0
 12 13  1  0
 14 24  1  0
 15 25  1  0
 16 24  1  0
 17 18  1  0
 21 24  2  0
 22 24  2  0
M  END
