SEL-UNI-cd366922-2
     RDKit          3D

 23 24  0  0  1  0  0  0  0  0999 V2000
    8.1876   -5.4090   26.9555 C   0  0  0  0  0  0  0  0  0  0  0  0
    9.3330   -5.8151   26.2708 C   0  0  0  0  0  0  0  0  0  0  0  0
    7.5003   -4.2655   26.5483 C   0  0  0  0  0  0  0  0  0  0  0  0
    9.7911   -5.0777   25.1790 C   0  0  0  0  0  0  0  0  0  0  0  0
    7.9584   -3.5281   25.4565 C   0  0  0  0  0  0  0  0  0  0  0  0
    9.1038   -3.9342   24.7718 C   0  0  0  0  0  0  0  0  0  0  0  0
    6.2613   -2.0411   19.3045 C   0  0  0  0  0  0  0  0  0  0  0  0
    6.3186   -2.8098   21.6554 C   0  0  0  0  0  0  0  0  0  0  0  0
    7.8059   -0.9546   21.0078 C   0  0  0  0  0  0  0  0  0  0  0  0
    7.4751   -3.5263   22.3370 C   0  0  0  0  0  0  0  0  0  0  0  0
    8.9853   -1.6429   21.6817 C   0  0  0  0  0  0  0  0  0  0  0  0
   11.6376    0.7213   25.7447 C   0  0  0  0  0  0  0  0  0  0  0  0
    6.8143   -1.1046   18.2601 C   0  0  0  0  0  0  0  0  0  0  0  0
   10.5885   -2.0387   24.0004 C   0  0  0  0  0  0  0  0  0  0  0  0
    9.6002   -3.1340   23.5880 C   0  0  0  0  0  0  0  0  0  0  0  0
    6.7992   -1.9346   20.5862 N   0  0  0  0  0  0  0  0  0  0  0  0
    9.8563   -0.8546   24.5090 N   0  0  0  0  0  0  0  0  0  0  0  0
    8.4756   -2.4997   22.8190 N   0  0  0  0  0  0  0  0  0  0  0  0
    5.3798   -2.8442   18.9881 O   0  0  0  0  0  0  0  0  0  0  0  0
    9.5507    1.7139   24.5159 O   0  0  0  0  0  0  0  0  0  0  0  0
   11.3948    0.6725   23.1478 O   0  0  0  0  0  0  0  0  0  0  0  0
   10.5579    0.6873   24.3322 S   0  0  0  0  0  0  0  0  0  0  0  0
    5.7999    0.3336   18.2853 Cl  0  0  0  0  0  0  0  0  0  0  0  0
  1  2  2  0
  1  3  1  0
  2  4  1  0
  3  5  2  0
  4  6  2  0
  5  6  1  0
  6 15  1  0
  7 13  1  0
  7 16  1  0
  7 19  2  0
  8 10  1  0
  8 16  1  0
  9 11  1  0
  9 16  1  0
 10 18  1  0
 11 18  1  0
 12 22  1  0
 13 23  1  0
 14 15  1  0
 14 17  1  0
 15 18  1  0
 17 22  1  0
 20 22  2  0
 21 22  2  0
M  CHG  1  18   1
M  END
