SEL-UNI-8426c22c-2
     RDKit          3D

 20 21  0  0  0  0  0  0  0  0999 V2000
   13.4595   -2.1690   22.8196 C   0  0  0  0  0  0  0  0  0  0  0  0
   12.4071   -1.6930   22.0455 C   0  0  0  0  0  0  0  0  0  0  0  0
   13.9975   -1.3214   23.7745 C   0  0  0  0  0  0  0  0  0  0  0  0
   11.9315   -0.4020   22.2472 C   0  0  0  0  0  0  0  0  0  0  0  0
   12.5378    0.3665   23.2279 C   0  0  0  0  0  0  0  0  0  0  0  0
    8.7849   -0.0356   19.2273 C   0  0  0  0  0  0  0  0  0  0  0  0
    8.5558   -0.0946   20.6903 C   0  0  0  0  0  0  0  0  0  0  0  0
    7.3955    0.4185   21.1305 C   0  0  0  0  0  0  0  0  0  0  0  0
   10.8111    0.0941   21.4190 C   0  0  0  0  0  0  0  0  0  0  0  0
    9.3439   -1.6775   22.3618 C   0  0  0  0  0  0  0  0  0  0  0  0
    6.3968    0.9508   20.1325 C   0  0  0  0  0  0  0  0  0  0  0  0
    6.5161    0.2548   18.7797 C   0  0  0  0  0  0  0  0  0  0  0  0
    6.9890    0.5415   22.5713 C   0  0  0  0  0  0  0  0  0  0  0  0
    8.2363   -2.6409   21.9955 C   0  0  0  0  0  0  0  0  0  0  0  0
   13.5622   -0.0614   23.9994 N   0  0  0  0  0  0  0  0  0  0  0  0
    7.9018    0.1587   18.3107 N   0  0  0  0  0  0  0  0  0  0  0  0
    9.5590   -0.5915   21.4646 N   0  0  0  0  0  0  0  0  0  0  0  0
   11.0330    1.0919   20.7318 O   0  0  0  0  0  0  0  0  0  0  0  0
    9.9565   -1.8537   23.4193 O   0  0  0  0  0  0  0  0  0  0  0  0
   12.0432    1.9782   23.5730 Cl  0  0  0  0  0  0  0  0  0  0  0  0
  1  2  2  0
  1  3  1  0
  2  4  1  0
  3 15  2  0
  4  5  2  0
  4  9  1  0
  5 15  1  0
  5 20  1  0
  6  7  1  0
  6 16  2  0
  7  8  2  0
  7 17  1  0
  8 11  1  0
  8 13  1  0
  9 17  1  0
  9 18  2  0
 10 14  1  0
 10 17  1  0
 10 19  2  0
 11 12  1  0
 12 16  1  0
M  END
