SEL-UNI-cd366922-4
     RDKit          3D

 36 39  0  0  1  0  0  0  0  0999 V2000
    4.7782   -4.2277   22.1767 C   0  0  0  0  0  0  0  0  0  0  0  0
   11.2458    0.1721   24.4668 C   0  0  0  0  0  0  0  0  0  0  0  0
    4.6451   -4.5950   20.8473 C   0  0  0  0  0  0  0  0  0  0  0  0
   13.4765    0.9806   24.6303 C   0  0  0  0  0  0  0  0  0  0  0  0
    6.7194   -3.7621   20.3166 C   0  0  0  0  0  0  0  0  0  0  0  0
   11.6224   -0.5499   23.3398 C   0  0  0  0  0  0  0  0  0  0  0  0
    5.9555   -3.5967   22.5628 C   0  0  0  0  0  0  0  0  0  0  0  0
   12.1845    0.9544   25.1302 C   0  0  0  0  0  0  0  0  0  0  0  0
    6.9497   -3.3557   21.6211 C   0  0  0  0  0  0  0  0  0  0  0  0
   12.9395   -0.4562   22.9199 C   0  0  0  0  0  0  0  0  0  0  0  0
    8.9837   -3.3222   22.9317 C   0  0  0  0  0  0  0  0  0  0  0  0
    6.9979   -0.4415   19.5633 C   0  0  0  0  0  0  0  0  0  0  0  0
   10.0585   -2.4594   23.5650 C   0  0  0  0  0  0  0  0  0  0  0  0
    6.6353   -0.0128   22.0431 C   0  0  0  0  0  0  0  0  0  0  0  0
   10.6101   -1.3906   22.6293 C   0  0  0  0  0  0  0  0  0  0  0  0
    9.4461   -0.5390   22.1173 C   0  0  0  0  0  0  0  0  0  0  0  0
    8.5097   -1.4358   21.2798 C   0  0  0  0  0  0  0  0  0  0  0  0
    7.6264    0.8264   22.8398 C   0  0  0  0  0  0  0  0  0  0  0  0
    6.1255   -3.1895   23.9897 C   0  0  0  0  0  0  0  0  0  0  0  0
   11.8143    1.7375   26.3392 C   0  0  0  0  0  0  0  0  0  0  0  0
   15.7217   -1.4088   21.6569 C   0  0  0  0  0  0  0  0  0  0  0  0
    5.7811    0.4015   19.2776 C   0  0  0  0  0  0  0  0  0  0  0  0
   14.4910   -0.8703   21.0103 C   0  0  0  0  0  0  0  0  0  0  0  0
    5.5887   -4.3776   19.9040 N   0  0  0  0  0  0  0  0  0  0  0  0
   13.8796    0.2930   23.5384 N   0  0  0  0  0  0  0  0  0  0  0  0
    8.1588   -2.7206   21.9629 N   0  0  0  0  0  0  0  0  0  0  0  0
    7.3482   -0.5962   20.9034 N   0  0  0  0  0  0  0  0  0  0  0  0
   13.3278   -1.1903   21.7713 N   0  0  0  0  0  0  0  0  0  0  0  0
    6.9641    1.3236   24.0647 N   0  0  0  0  0  0  0  0  0  0  0  0
    8.8175   -4.4744   23.3452 O   0  0  0  0  0  0  0  0  0  0  0  0
    7.6182   -0.9454   18.6235 O   0  0  0  0  0  0  0  0  0  0  0  0
    9.0398    2.7761   24.5754 O   0  0  0  0  0  0  0  0  0  0  0  0
    6.8479    3.9078   23.9440 O   0  0  0  0  0  0  0  0  0  0  0  0
    8.7379    0.0255   23.2341 O   0  0  0  0  0  0  0  0  0  0  0  0
    7.5361    2.8037   24.7112 S   0  0  0  0  0  5  0  0  0  0  0  0
    6.0560    1.1715   17.7189 Cl  0  0  0  0  0  0  0  0  0  0  0  0
  1  3  2  0
  1  7  1  0
  2  6  2  0
  2  8  1  0
  3 24  1  0
  4  8  2  0
  4 25  1  0
  5  9  1  0
  5 24  2  0
  6 10  1  0
  6 15  1  0
  7  9  2  0
  7 19  1  0
  8 20  1  0
  9 26  1  0
 10 25  2  0
 10 28  1  0
 11 13  1  0
 11 26  1  0
 11 30  2  0
 12 22  1  0
 12 27  1  0
 12 31  2  0
 13 15  1  0
 14 18  1  0
 14 27  1  0
 15 16  1  0
 16 17  1  0
 16 34  1  0
 17 26  1  0
 17 27  1  0
 18 29  1  0
 18 34  1  0
 21 23  1  0
 22 36  1  0
 23 28  1  0
 29 35  1  0
 32 35  2  0
 33 35  2  0
M  RAD  1  35   2
M  END
