SEL-UNI-8426c22c-4
     RDKit          3D

 25 27  0  0  0  0  0  0  0  0999 V2000
    6.4906   -6.6477   28.5879 C   0  0  0  0  0  0  0  0  0  0  0  0
    7.8054   -6.1887   28.6666 C   0  0  0  0  0  0  0  0  0  0  0  0
    5.6706   -6.2381   27.5364 C   0  0  0  0  0  0  0  0  0  0  0  0
    8.3003   -5.3201   27.6939 C   0  0  0  0  0  0  0  0  0  0  0  0
    6.1655   -5.3694   26.5637 C   0  0  0  0  0  0  0  0  0  0  0  0
   13.3590   -0.8623   24.1258 C   0  0  0  0  0  0  0  0  0  0  0  0
   13.7074   -1.8980   23.2739 C   0  0  0  0  0  0  0  0  0  0  0  0
   11.6669   -1.8370   22.2201 C   0  0  0  0  0  0  0  0  0  0  0  0
   12.0911   -0.3076   23.9913 C   0  0  0  0  0  0  0  0  0  0  0  0
    7.4803   -4.9104   26.6424 C   0  0  0  0  0  0  0  0  0  0  0  0
   11.2227   -0.7986   23.0228 C   0  0  0  0  0  0  0  0  0  0  0  0
    9.6808    1.0885   22.5155 C   0  0  0  0  0  0  0  0  0  0  0  0
    8.8295   -1.1745   22.7242 C   0  0  0  0  0  0  0  0  0  0  0  0
    8.4585   -2.7105   26.0662 C   0  0  0  0  0  0  0  0  0  0  0  0
    7.4456   -4.1683   24.3005 C   0  0  0  0  0  0  0  0  0  0  0  0
    9.3974   -2.1366   25.0107 C   0  0  0  0  0  0  0  0  0  0  0  0
    8.3961   -3.5528   23.2760 C   0  0  0  0  0  0  0  0  0  0  0  0
   11.6889    0.8098   24.8970 C   0  0  0  0  0  0  0  0  0  0  0  0
   10.8800    1.8749   22.0319 C   0  0  0  0  0  0  0  0  0  0  0  0
   12.8911   -2.4014   22.3211 N   0  0  0  0  0  0  0  0  0  0  0  0
    7.9770   -4.0381   25.6651 N   0  0  0  0  0  0  0  0  0  0  0  0
    8.8050   -2.2114   23.6750 N   0  0  0  0  0  0  0  0  0  0  0  0
    9.8977   -0.2571   22.8432 N   0  0  0  0  0  0  0  0  0  0  0  0
    8.5910    1.6539   22.6405 O   0  0  0  0  0  0  0  0  0  0  0  0
    7.9334   -1.0228   21.8852 O   0  0  0  0  0  0  0  0  0  0  0  0
  1  2  2  0
  1  3  1  0
  2  4  1  0
  3  5  2  0
  4 10  2  0
  5 10  1  0
  6  7  2  0
  6  9  1  0
  7 20  1  0
  8 11  1  0
  8 20  2  0
  9 11  2  0
  9 18  1  0
 10 21  1  0
 11 23  1  0
 12 19  1  0
 12 23  1  0
 12 24  2  0
 13 22  1  0
 13 23  1  0
 13 25  2  0
 14 16  1  0
 14 21  1  0
 15 17  1  0
 15 21  1  0
 16 22  1  0
 17 22  1  0
M  END
