SEL-UNI-cd366922-9
     RDKit          3D

 24 25  0  0  1  0  0  0  0  0999 V2000
    6.0544   -5.3102   24.4136 C   0  0  0  0  0  0  0  0  0  0  0  0
    6.3226   -6.3778   23.5569 C   0  0  0  0  0  0  0  0  0  0  0  0
    6.7215   -4.0967   24.2458 C   0  0  0  0  0  0  0  0  0  0  0  0
    7.9251   -5.0184   22.3647 C   0  0  0  0  0  0  0  0  0  0  0  0
    7.2580   -6.2319   22.5325 C   0  0  0  0  0  0  0  0  0  0  0  0
    7.6568   -3.9508   23.2213 C   0  0  0  0  0  0  0  0  0  0  0  0
   13.2006   -2.3686   25.7580 C   0  0  0  0  0  0  0  0  0  0  0  0
   11.6740   -3.8785   24.5288 C   0  0  0  0  0  0  0  0  0  0  0  0
   12.0139   -1.6043   23.6425 C   0  0  0  0  0  0  0  0  0  0  0  0
   10.1652   -3.7230   24.4062 C   0  0  0  0  0  0  0  0  0  0  0  0
   10.5093   -1.4151   23.5046 C   0  0  0  0  0  0  0  0  0  0  0  0
    7.5432   -7.3735   21.6160 C   0  0  0  0  0  0  0  0  0  0  0  0
    6.2538   -1.0166   18.9855 C   0  0  0  0  0  0  0  0  0  0  0  0
   13.8262   -1.0003   25.8576 C   0  0  0  0  0  0  0  0  0  0  0  0
    8.1612   -2.0386   21.6461 C   0  0  0  0  0  0  0  0  0  0  0  0
    8.3806   -2.6350   23.0398 C   0  0  0  0  0  0  0  0  0  0  0  0
   12.3248   -2.5787   24.6939 N   0  0  0  0  0  0  0  0  0  0  0  0
    6.8377   -1.3747   21.5767 N   0  0  0  0  0  0  0  0  0  0  0  0
    9.8588   -2.7617   23.2795 N   0  0  0  0  0  0  0  0  0  0  0  0
   13.4811   -3.2228   26.6029 O   0  0  0  0  0  0  0  0  0  0  0  0
    4.3818   -1.4314   20.7671 O   0  0  0  0  0  0  0  0  0  0  0  0
    5.9438   -3.3190   20.1723 O   0  0  0  0  0  0  0  0  0  0  0  0
    5.7061   -1.9102   20.4220 S   0  0  0  0  0  0  0  0  0  0  0  0
   14.8417   -1.0141   27.2951 Cl  0  0  0  0  0  0  0  0  0  0  0  0
  1  2  2  0
  1  3  1  0
  2  5  1  0
  3  6  2  0
  4  5  2  0
  4  6  1  0
  5 12  1  0
  6 16  1  0
  7 14  1  0
  7 17  1  0
  7 20  2  0
  8 10  1  0
  8 17  1  0
  9 11  1  0
  9 17  1  0
 10 19  1  0
 11 19  1  0
 13 23  1  0
 14 24  1  0
 15 16  1  0
 15 18  1  0
 16 19  1  0
 18 23  1  0
 21 23  2  0
 22 23  2  0
M  CHG  1  19   1
M  END
