SEL-UNI-cd366922-1
     RDKit          3D

 23 24  0  0  1  0  0  0  0  0999 V2000
   11.0143   -0.8938   23.9492 C   0  0  0  0  0  0  0  0  0  0  0  0
   12.4301   -1.5422   22.1019 C   0  0  0  0  0  0  0  0  0  0  0  0
   11.9129    0.1197   24.2822 C   0  0  0  0  0  0  0  0  0  0  0  0
   13.3287   -0.5287   22.4349 C   0  0  0  0  0  0  0  0  0  0  0  0
   11.2729   -1.7248   22.8591 C   0  0  0  0  0  0  0  0  0  0  0  0
   13.0701    0.3023   23.5250 C   0  0  0  0  0  0  0  0  0  0  0  0
   10.3268   -2.7923   22.5071 C   0  0  0  0  0  0  0  0  0  0  0  0
    5.9622   -2.1472   19.5127 C   0  0  0  0  0  0  0  0  0  0  0  0
    5.7506   -5.4736   22.2465 C   0  0  0  0  0  0  0  0  0  0  0  0
    8.6700   -1.1312   21.5608 C   0  0  0  0  0  0  0  0  0  0  0  0
    7.1636   -0.9520   21.4013 C   0  0  0  0  0  0  0  0  0  0  0  0
    7.9042   -3.2813   22.5669 C   0  0  0  0  0  0  0  0  0  0  0  0
    6.8680   -3.4248   21.4372 C   0  0  0  0  0  0  0  0  0  0  0  0
   14.0302    1.3869   23.8808 C   0  0  0  0  0  0  0  0  0  0  0  0
    5.8500   -0.8222   18.8022 C   0  0  0  0  0  0  0  0  0  0  0  0
    5.5789   -4.0287   21.9999 C   0  0  0  0  0  0  0  0  0  0  0  0
    9.0199   -2.4167   22.1832 N   0  0  0  0  0  0  0  0  0  0  0  0
    6.6031   -2.1424   20.7540 N   0  0  0  0  0  0  0  0  0  0  0  0
    6.1757   -5.8478   23.4445 N   0  0  0  0  0  0  0  0  0  0  0  0
    5.4616   -6.3061   21.2570 N   0  0  0  0  0  0  0  0  0  0  0  0
   10.7622   -3.9418   22.5286 O   0  0  0  0  0  0  0  0  0  0  0  0
    5.4957   -3.1586   18.9816 O   0  0  0  0  0  0  0  0  0  0  0  0
    7.3073   -0.6471   17.8310 Cl  0  0  0  0  0  0  0  0  0  0  0  0
  1  3  2  0
  1  5  1  0
  2  4  1  0
  2  5  2  0
  3  6  1  0
  4  6  2  0
  5  7  1  0
  6 14  1  0
  7 17  1  0
  7 21  2  0
  8 15  1  0
  8 18  1  0
  8 22  2  0
  9 16  1  0
  9 19  1  0
  9 20  2  0
 10 11  1  0
 10 17  1  0
 11 18  1  0
 12 13  1  0
 12 17  1  0
 13 16  1  0
 13 18  1  0
 15 23  1  0
M  CHG  1  20   1
M  END
