SEL-UNI-8426c22c-3
     RDKit          3D

 17 18  0  0  0  0  0  0  0  0999 V2000
   12.6053    0.4753   23.6870 C   0  0  0  0  0  0  0  0  0  0  0  0
   11.5469   -0.2269   22.9234 C   0  0  0  0  0  0  0  0  0  0  0  0
   11.9526   -1.2396   22.1404 C   0  0  0  0  0  0  0  0  0  0  0  0
    9.6016    0.3194   24.2807 C   0  0  0  0  0  0  0  0  0  0  0  0
    9.6710    0.7315   21.7998 C   0  0  0  0  0  0  0  0  0  0  0  0
   13.4098   -1.6310   22.1341 C   0  0  0  0  0  0  0  0  0  0  0  0
    7.3545    0.1267   19.3897 C   0  0  0  0  0  0  0  0  0  0  0  0
    6.1817    0.4174   20.2779 C   0  0  0  0  0  0  0  0  0  0  0  0
   14.0941   -1.3033   23.4581 C   0  0  0  0  0  0  0  0  0  0  0  0
    7.5242    1.0211   20.5872 C   0  0  0  0  0  0  0  0  0  0  0  0
   11.0719   -2.0343   21.2189 C   0  0  0  0  0  0  0  0  0  0  0  0
   10.0166   -0.6957   25.3242 C   0  0  0  0  0  0  0  0  0  0  0  0
   13.7967    0.0522   23.9307 N   0  0  0  0  0  0  0  0  0  0  0  0
    8.2852    0.5996   21.7297 N   0  0  0  0  0  0  0  0  0  0  0  0
   10.2770    0.2532   23.0213 N   0  0  0  0  0  0  0  0  0  0  0  0
    8.7438    1.1537   24.5853 O   0  0  0  0  0  0  0  0  0  0  0  0
   10.3239    1.2229   20.8732 O   0  0  0  0  0  0  0  0  0  0  0  0
  1  2  1  0
  1 13  2  0
  2  3  2  0
  2 15  1  0
  3  6  1  0
  3 11  1  0
  4 12  1  0
  4 15  1  0
  4 16  2  0
  5 14  1  0
  5 15  1  0
  5 17  2  0
  6  9  1  0
  7  8  1  0
  7 10  1  0
  8 10  1  0
  9 13  1  0
 10 14  1  0
M  END
