SER-UNI-400afb01-3
     RDKit          3D

 24 26  0  0  1  0  0  0  0  0999 V2000
   12.6300    5.3768   24.6467 C   0  0  0  0  0  0  0  0  0  0  0  0
   11.0010    4.8701   22.9359 C   0  0  0  0  0  0  0  0  0  0  0  0
   10.5613    0.5661   21.5661 C   0  0  0  0  0  0  0  0  0  0  0  0
   11.8155    6.4068   25.1171 C   0  0  0  0  0  0  0  0  0  0  0  0
   10.1865    5.9001   23.4064 C   0  0  0  0  0  0  0  0  0  0  0  0
    9.4761   -0.0987   20.9951 C   0  0  0  0  0  0  0  0  0  0  0  0
    8.3217   -0.0359   23.1166 C   0  0  0  0  0  0  0  0  0  0  0  0
   14.3562   -1.1259   21.3145 C   0  0  0  0  0  0  0  0  0  0  0  0
   14.2164    0.0490   22.0149 C   0  0  0  0  0  0  0  0  0  0  0  0
   12.9377   -1.5419   22.8458 C   0  0  0  0  0  0  0  0  0  0  0  0
   12.2228    4.6085   23.5560 C   0  0  0  0  0  0  0  0  0  0  0  0
   10.5268    0.9297   22.9123 C   0  0  0  0  0  0  0  0  0  0  0  0
   10.5938    6.6685   24.4970 C   0  0  0  0  0  0  0  0  0  0  0  0
    8.3562   -0.3996   21.7704 C   0  0  0  0  0  0  0  0  0  0  0  0
    9.4070    0.6288   23.6875 C   0  0  0  0  0  0  0  0  0  0  0  0
   13.0926    3.5060   23.0537 C   0  0  0  0  0  0  0  0  0  0  0  0
   12.8120    0.6916   24.0066 C   0  0  0  0  0  0  0  0  0  0  0  0
   11.7246    1.6464   23.4934 C   0  0  0  0  0  0  0  0  0  0  0  0
   13.5574   -2.1122   21.8365 N   0  0  0  0  0  0  0  0  0  0  0  0
   13.3042   -0.2329   22.9925 N   0  0  0  0  0  0  0  0  0  0  0  0
   12.2807    2.4836   22.4892 O   0  0  0  0  0  0  0  0  0  0  0  0
    9.5892    7.9390   25.0776 Cl  0  0  0  0  0  0  0  0  0  0  0  0
    7.0167   -1.2182   21.0652 Cl  0  0  0  0  0  0  0  0  0  0  0  0
    9.3289    1.0617   25.3567 Cl  0  0  0  0  0  0  0  0  0  0  0  0
  1  4  2  0
  1 11  1  0
  2  5  1  0
  2 11  2  0
  3  6  2  0
  3 12  1  0
  4 13  1  0
  5 13  2  0
  6 14  1  0
  7 14  2  0
  7 15  1  0
  8  9  2  0
  8 19  1  0
  9 20  1  0
 10 19  2  0
 10 20  1  0
 11 16  1  0
 12 15  2  0
 12 18  1  0
 13 22  1  0
 14 23  1  0
 15 24  1  0
 16 21  1  0
 17 18  1  0
 17 20  1  0
 18 21  1  0
M  END
