SER-UNI-985a0e14-4
     RDKit          3D

 27 30  0  0  0  0  0  0  0  0999 V2000
    6.9455   -5.5758   25.9077 C   0  0  0  0  0  0  0  0  0  0  0  0
    7.7923   -4.5372   26.2949 C   0  0  0  0  0  0  0  0  0  0  0  0
    6.9692   -6.0417   24.5931 C   0  0  0  0  0  0  0  0  0  0  0  0
    8.6628   -3.9645   25.3676 C   0  0  0  0  0  0  0  0  0  0  0  0
    7.8396   -5.4689   23.6657 C   0  0  0  0  0  0  0  0  0  0  0  0
    8.6864   -4.4303   24.0529 C   0  0  0  0  0  0  0  0  0  0  0  0
    7.6443    1.0755   20.6691 C   0  0  0  0  0  0  0  0  0  0  0  0
   10.2707   -0.4330   23.7768 C   0  0  0  0  0  0  0  0  0  0  0  0
   11.4075   -1.0582   21.9456 C   0  0  0  0  0  0  0  0  0  0  0  0
   10.1046   -2.5384   23.0172 C   0  0  0  0  0  0  0  0  0  0  0  0
    8.1978    1.3782   22.7618 C   0  0  0  0  0  0  0  0  0  0  0  0
    6.8668    0.5203   19.6148 C   0  0  0  0  0  0  0  0  0  0  0  0
    5.8544   -0.3185   19.9116 C   0  0  0  0  0  0  0  0  0  0  0  0
    5.5355   -0.6720   21.2880 C   0  0  0  0  0  0  0  0  0  0  0  0
    6.2692   -0.1484   22.2843 C   0  0  0  0  0  0  0  0  0  0  0  0
    7.1043   -5.0621   21.3035 C   0  0  0  0  0  0  0  0  0  0  0  0
    7.8439   -5.9876   22.2645 C   0  0  0  0  0  0  0  0  0  0  0  0
    9.8940    0.6237   24.7784 C   0  0  0  0  0  0  0  0  0  0  0  0
    8.6682    1.9016   20.6994 N   0  0  0  0  0  0  0  0  0  0  0  0
   11.1179   -0.0654   22.8019 N   0  0  0  0  0  0  0  0  0  0  0  0
    9.7247   -1.6479   23.9477 N   0  0  0  0  0  0  0  0  0  0  0  0
   10.9403   -2.3163   21.9900 N   0  0  0  0  0  0  0  0  0  0  0  0
    9.0169    2.0921   22.0220 N   0  0  0  0  0  0  0  0  0  0  0  0
    7.3094    0.7149   21.9649 N   0  0  0  0  0  0  0  0  0  0  0  0
   12.2948   -0.7476   20.8921 N   0  0  0  0  0  0  0  0  0  0  0  0
    9.5712   -3.8405   23.1308 N   0  0  0  0  0  0  0  0  0  0  0  0
    8.2268    1.2820   24.4858 S   0  0  0  0  0  0  0  0  0  0  0  0
  1  2  2  0
  1  3  1  0
  2  4  1  0
  3  5  2  0
  4  6  2  0
  5  6  1  0
  5 17  1  0
  6 26  1  0
  7 12  1  0
  7 19  2  0
  7 24  1  0
  8 18  1  0
  8 20  1  0
  8 21  2  0
  9 20  2  0
  9 22  1  0
  9 25  1  0
 10 21  1  0
 10 22  2  0
 10 26  1  0
 11 23  2  0
 11 24  1  0
 11 27  1  0
 12 13  2  0
 13 14  1  0
 14 15  2  0
 15 24  1  0
 16 17  1  0
 18 27  1  0
 19 23  1  0
M  END
