SER-UNI-400afb01-4
     RDKit          3D

 30 31  0  0  1  0  0  0  0  0999 V2000
   11.4140    5.2880   24.1051 B   0  0  0  0  0  0  0  0  0  0  0  0
    9.2899   -5.2244   25.2635 C   0  0  0  0  0  0  0  0  0  0  0  0
    8.5417   -5.5711   24.1385 C   0  0  0  0  0  0  0  0  0  0  0  0
    9.1659   -3.9506   25.8182 C   0  0  0  0  0  0  0  0  0  0  0  0
    7.6696   -4.6439   23.5681 C   0  0  0  0  0  0  0  0  0  0  0  0
    8.2939   -3.0234   25.2478 C   0  0  0  0  0  0  0  0  0  0  0  0
    7.5457   -3.3700   24.1227 C   0  0  0  0  0  0  0  0  0  0  0  0
   10.1518    1.9101   22.7701 C   0  0  0  0  0  0  0  0  0  0  0  0
    8.0692   -0.4049   23.0783 C   0  0  0  0  0  0  0  0  0  0  0  0
    6.6556   -0.4147   20.3009 C   0  0  0  0  0  0  0  0  0  0  0  0
   11.5226   -0.7169   21.7402 C   0  0  0  0  0  0  0  0  0  0  0  0
   11.7248   -0.0129   23.0797 C   0  0  0  0  0  0  0  0  0  0  0  0
   10.1099   -1.2709   21.8462 C   0  0  0  0  0  0  0  0  0  0  0  0
   10.3467    0.5594   23.3907 C   0  0  0  0  0  0  0  0  0  0  0  0
    5.5347    0.2760   19.5976 C   0  0  0  0  0  0  0  0  0  0  0  0
    6.6027   -2.3663   23.5059 C   0  0  0  0  0  0  0  0  0  0  0  0
    7.9367    4.2636   22.3808 C   0  0  0  0  0  0  0  0  0  0  0  0
    8.8521    4.8017   23.4921 C   0  0  0  0  0  0  0  0  0  0  0  0
    6.4898    4.7248   22.5148 C   0  0  0  0  0  0  0  0  0  0  0  0
   10.3311    4.3639   23.3235 C   0  0  0  0  0  0  0  0  0  0  0  0
    7.2831   -1.5208   22.4376 C   0  0  0  0  0  0  0  0  0  0  0  0
    9.4126   -0.3506   22.7409 N   0  0  0  0  0  0  0  0  0  0  0  0
   10.4349    2.9362   23.6594 N   0  0  0  0  0  0  0  0  0  0  0  0
    6.3522   -0.8358   21.5880 N   0  0  0  0  0  0  0  0  0  0  0  0
    5.6632    4.1815   21.4117 N   0  0  0  0  0  0  0  0  0  0  0  0
    9.7839    2.0437   21.6063 O   0  0  0  0  0  0  0  0  0  0  0  0
    7.5144    0.3906   23.8382 O   0  0  0  0  0  0  0  0  0  0  0  0
    7.7281   -0.5642   19.7271 O   0  0  0  0  0  0  0  0  0  0  0  0
   11.4980    6.6357   23.8583 O   0  0  0  0  0  0  0  0  0  0  0  0
   12.2451    4.6978   25.0254 O   0  0  0  0  0  0  0  0  0  0  0  0
  1 20  1  0
  1 29  1  0
  1 30  1  0
  2  3  2  0
  2  4  1  0
  3  5  1  0
  4  6  2  0
  5  7  2  0
  6  7  1  0
  7 16  1  0
  8 14  1  0
  8 23  1  0
  8 26  2  0
  9 21  1  0
  9 22  1  0
  9 27  2  0
 10 15  1  0
 10 24  1  0
 10 28  2  0
 11 12  1  0
 11 13  1  0
 12 14  1  0
 13 22  1  0
 14 22  1  0
 16 21  1  0
 17 18  1  0
 17 19  1  0
 18 20  1  0
 19 25  1  0
 20 23  1  0
 21 24  1  0
M  CHG  1  25   1
M  END
