SER-UNI-400afb01-2
     RDKit          3D

 37 41  0  0  0  0  0  0  0  0999 V2000
    6.0397    2.7529   21.4325 C   0  0  0  0  0  0  0  0  0  0  0  0
    6.8781    3.7381   21.9421 C   0  0  0  0  0  0  0  0  0  0  0  0
   11.2756   -2.4125   23.5098 C   0  0  0  0  0  0  0  0  0  0  0  0
    9.3735   -0.9803   23.1000 C   0  0  0  0  0  0  0  0  0  0  0  0
   10.4234   -3.5103   23.6290 C   0  0  0  0  0  0  0  0  0  0  0  0
    8.5213   -2.0781   23.2192 C   0  0  0  0  0  0  0  0  0  0  0  0
   13.5530    3.9351   22.9123 C   0  0  0  0  0  0  0  0  0  0  0  0
   12.9726    2.6680   22.9671 C   0  0  0  0  0  0  0  0  0  0  0  0
    6.7171    6.8518   23.8885 C   0  0  0  0  0  0  0  0  0  0  0  0
   10.9086    3.6473   23.7533 C   0  0  0  0  0  0  0  0  0  0  0  0
    4.7416    2.6935   21.9134 C   0  0  0  0  0  0  0  0  0  0  0  0
    7.6281    7.7584   24.3911 C   0  0  0  0  0  0  0  0  0  0  0  0
    5.0854    4.4783   23.3186 C   0  0  0  0  0  0  0  0  0  0  0  0
    6.3997    4.6212   22.9036 C   0  0  0  0  0  0  0  0  0  0  0  0
   10.7507   -1.1475   23.2453 C   0  0  0  0  0  0  0  0  0  0  0  0
    9.0463   -3.3431   23.4837 C   0  0  0  0  0  0  0  0  0  0  0  0
   12.8112    5.0584   23.2781 C   0  0  0  0  0  0  0  0  0  0  0  0
   11.6504    2.5240   23.3876 C   0  0  0  0  0  0  0  0  0  0  0  0
   11.4890    4.9145   23.6986 C   0  0  0  0  0  0  0  0  0  0  0  0
    7.2456    5.6540   23.4522 C   0  0  0  0  0  0  0  0  0  0  0  0
    9.3463    6.3198   24.0098 C   0  0  0  0  0  0  0  0  0  0  0  0
   11.6384   -0.0022   23.1203 C   0  0  0  0  0  0  0  0  0  0  0  0
    8.2817   -5.0495   25.9579 C   0  0  0  0  0  0  0  0  0  0  0  0
    6.1827   -5.3191   24.7879 C   0  0  0  0  0  0  0  0  0  0  0  0
    7.5675   -5.0203   27.3050 C   0  0  0  0  0  0  0  0  0  0  0  0
    5.4076   -5.2977   26.1011 C   0  0  0  0  0  0  0  0  0  0  0  0
   13.4577    6.4036   23.2096 C   0  0  0  0  0  0  0  0  0  0  0  0
    5.5685   -5.8897   28.5205 C   0  0  0  0  0  0  0  0  0  0  0  0
    8.1295   -4.5253   23.6111 C   0  0  0  0  0  0  0  0  0  0  0  0
    4.2411    3.5338   22.8467 N   0  0  0  0  0  0  0  0  0  0  0  0
    8.9547    7.5245   24.4669 N   0  0  0  0  0  0  0  0  0  0  0  0
    8.5601    5.3536   23.4980 N   0  0  0  0  0  0  0  0  0  0  0  0
    7.4180   -4.5310   24.8889 N   0  0  0  0  0  0  0  0  0  0  0  0
   10.7239    6.0409   24.0735 N   0  0  0  0  0  0  0  0  0  0  0  0
   11.0614    1.2357   23.4435 N   0  0  0  0  0  0  0  0  0  0  0  0
    6.2921   -5.8186   27.2059 N   0  0  0  0  0  0  0  0  0  0  0  0
   12.8053   -0.1232   22.7225 O   0  0  0  0  0  0  0  0  0  0  0  0
  1  2  2  0
  1 11  1  0
  2 14  1  0
  3  5  2  0
  3 15  1  0
  4  6  1  0
  4 15  2  0
  5 16  1  0
  6 16  2  0
  7  8  2  0
  7 17  1  0
  8 18  1  0
  9 12  2  0
  9 20  1  0
 10 18  2  0
 10 19  1  0
 11 30  2  0
 12 31  1  0
 13 14  2  0
 13 30  1  0
 14 20  1  0
 15 22  1  0
 16 29  1  0
 17 19  2  0
 17 27  1  0
 18 35  1  0
 19 34  1  0
 20 32  2  0
 21 31  2  0
 21 32  1  0
 21 34  1  0
 22 35  1  0
 22 37  2  0
 23 25  1  0
 23 33  1  0
 24 26  1  0
 24 33  1  0
 25 36  1  0
 26 36  1  0
 28 36  1  0
 29 33  1  0
M  CHG  1  36   1
M  END
