SER-UNI-985a0e14-3
     RDKit          3D

 34 37  0  0  0  0  0  0  0  0999 V2000
   10.4434   -4.3344   24.7400 C   0  0  0  0  0  0  0  0  0  0  0  0
   11.8406   -4.1611   24.8039 C   0  0  0  0  0  0  0  0  0  0  0  0
    5.6803    6.7569   22.9219 C   0  0  0  0  0  0  0  0  0  0  0  0
    9.0441    2.4787   25.7423 C   0  0  0  0  0  0  0  0  0  0  0  0
    9.6635   -3.5786   23.8598 C   0  0  0  0  0  0  0  0  0  0  0  0
   12.4883   -3.2280   23.9892 C   0  0  0  0  0  0  0  0  0  0  0  0
    7.0656    6.6943   22.7724 C   0  0  0  0  0  0  0  0  0  0  0  0
    9.0601    3.7496   25.1677 C   0  0  0  0  0  0  0  0  0  0  0  0
    4.8909    5.6611   22.5728 C   0  0  0  0  0  0  0  0  0  0  0  0
   11.0205    3.1475   23.8904 C   0  0  0  0  0  0  0  0  0  0  0  0
    6.8724    4.4403   21.9244 C   0  0  0  0  0  0  0  0  0  0  0  0
   10.0164    1.5422   25.3910 C   0  0  0  0  0  0  0  0  0  0  0  0
   10.3196   -2.6626   23.0624 C   0  0  0  0  0  0  0  0  0  0  0  0
   11.7031   -2.4907   23.1259 C   0  0  0  0  0  0  0  0  0  0  0  0
    7.6617    5.5360   22.2736 C   0  0  0  0  0  0  0  0  0  0  0  0
   11.0045    1.8766   24.4650 C   0  0  0  0  0  0  0  0  0  0  0  0
   10.0482    4.0840   24.2418 C   0  0  0  0  0  0  0  0  0  0  0  0
    5.4869    4.5028   22.0740 C   0  0  0  0  0  0  0  0  0  0  0  0
   10.8905   -1.0298   21.5405 C   0  0  0  0  0  0  0  0  0  0  0  0
   13.0189    1.1687   23.1919 C   0  0  0  0  0  0  0  0  0  0  0  0
    9.9747    0.1886   26.0225 C   0  0  0  0  0  0  0  0  0  0  0  0
    8.4264   -1.6431   21.7324 C   0  0  0  0  0  0  0  0  0  0  0  0
   13.8815   -0.0832   23.0664 C   0  0  0  0  0  0  0  0  0  0  0  0
   13.4116   -1.0423   21.9808 C   0  0  0  0  0  0  0  0  0  0  0  0
    9.8134   -1.7763   22.0985 N   0  0  0  0  0  0  0  0  0  0  0  0
   12.0625   -1.4970   22.2017 N   0  0  0  0  0  0  0  0  0  0  0  0
   11.9868    0.9522   24.1004 N   0  0  0  0  0  0  0  0  0  0  0  0
    9.0901    5.4720   22.1190 N   0  0  0  0  0  0  0  0  0  0  0  0
   10.8231   -0.1676   20.6747 O   0  0  0  0  0  0  0  0  0  0  0  0
   13.2530    2.1846   22.5463 O   0  0  0  0  0  0  0  0  0  0  0  0
   11.4323    5.9497   23.0887 O   0  0  0  0  0  0  0  0  0  0  0  0
    9.4205    6.6080   24.4373 O   0  0  0  0  0  0  0  0  0  0  0  0
   10.0677    5.6751   23.5231 S   0  0  0  0  0  0  0  0  0  0  0  0
    4.5124    3.1515   21.6430 Cl  0  0  0  0  0  0  0  0  0  0  0  0
  1  2  2  0
  1  5  1  0
  2  6  1  0
  3  7  2  0
  3  9  1  0
  4  8  2  0
  4 12  1  0
  5 13  2  0
  6 14  2  0
  7 15  1  0
  8 17  1  0
  9 18  2  0
 10 16  1  0
 10 17  2  0
 11 15  2  0
 11 18  1  0
 12 16  2  0
 12 21  1  0
 13 14  1  0
 13 25  1  0
 14 26  1  0
 15 28  1  0
 16 27  1  0
 17 33  1  0
 18 34  1  0
 19 25  1  0
 19 26  1  0
 19 29  2  0
 20 23  1  0
 20 27  1  0
 20 30  2  0
 22 25  1  0
 23 24  1  0
 24 26  1  0
 28 33  1  0
 31 33  2  0
 32 33  2  0
M  END
