SID-ELM-2583a2cd-2
     RDKit          3D

 19 21  0  0  0  0  0  0  0  0999 V2000
    4.4677    1.3815   20.6628 C   0  0  0  0  0  0  0  0  0  0  0  0
    5.6425    1.1917   21.3607 C   0  0  0  0  0  0  0  0  0  0  0  0
    5.9184    0.9074   19.1978 C   0  0  0  0  0  0  0  0  0  0  0  0
    6.6494    0.6199   17.9970 C   0  0  0  0  0  0  0  0  0  0  0  0
    8.5456    0.3284   19.2659 C   0  0  0  0  0  0  0  0  0  0  0  0
    7.9332    0.5866   20.4427 C   0  0  0  0  0  0  0  0  0  0  0  0
    9.9587    0.8649   21.7510 C   0  0  0  0  0  0  0  0  0  0  0  0
   14.4512   -1.9360   22.7978 C   0  0  0  0  0  0  0  0  0  0  0  0
   14.2664   -0.7792   23.7750 C   0  0  0  0  0  0  0  0  0  0  0  0
   13.7403   -1.6713   21.4743 C   0  0  0  0  0  0  0  0  0  0  0  0
   12.7902   -0.4520   23.9881 C   0  0  0  0  0  0  0  0  0  0  0  0
   12.2632   -1.3454   21.6834 C   0  0  0  0  0  0  0  0  0  0  0  0
   12.0735   -0.1764   22.6593 C   0  0  0  0  0  0  0  0  0  0  0  0
   10.5887    0.0954   22.8936 C   0  0  0  0  0  0  0  0  0  0  0  0
    4.6470    1.2025   19.3117 N   0  0  0  0  0  0  0  0  0  0  0  0
    7.9230    0.3383   18.0233 N   0  0  0  0  0  0  0  0  0  0  0  0
    6.5746    0.8857   20.4052 N   0  0  0  0  0  0  0  0  0  0  0  0
    8.6094    0.5579   21.6267 N   0  0  0  0  0  0  0  0  0  0  0  0
   10.5815    1.6519   21.0425 O   0  0  0  0  0  0  0  0  0  0  0  0
  1  2  2  0
  1 15  1  0
  2 17  1  0
  3  4  1  0
  3 15  2  0
  3 17  1  0
  4 16  2  0
  5  6  2  0
  5 16  1  0
  6 17  1  0
  6 18  1  0
  7 14  1  0
  7 18  1  0
  7 19  2  0
  8  9  1  0
  8 10  1  0
  9 11  1  0
 10 12  1  0
 11 13  1  0
 12 13  1  0
 13 14  1  0
M  END
