SID-ELM-2583a2cd-3
     RDKit          3D

 20 22  0  0  0  0  0  0  0  0999 V2000
    5.2912    1.4322   21.3541 C   0  0  0  0  0  0  0  0  0  0  0  0
    6.2390    0.8813   22.1767 C   0  0  0  0  0  0  0  0  0  0  0  0
    6.7215    0.7126   18.1429 C   0  0  0  0  0  0  0  0  0  0  0  0
    8.7027   -0.4016   18.3936 C   0  0  0  0  0  0  0  0  0  0  0  0
    6.5079    0.7981   19.5092 C   0  0  0  0  0  0  0  0  0  0  0  0
    7.4798    0.2336   20.3482 C   0  0  0  0  0  0  0  0  0  0  0  0
    8.5893   -0.3727   19.7736 C   0  0  0  0  0  0  0  0  0  0  0  0
   10.0035   -0.5832   21.8467 C   0  0  0  0  0  0  0  0  0  0  0  0
   14.4100   -1.3621   24.1948 C   0  0  0  0  0  0  0  0  0  0  0  0
   13.3566   -0.2601   24.2479 C   0  0  0  0  0  0  0  0  0  0  0  0
   13.9652   -2.5321   23.3227 C   0  0  0  0  0  0  0  0  0  0  0  0
   12.9523    0.2020   22.8490 C   0  0  0  0  0  0  0  0  0  0  0  0
   13.5614   -2.0707   21.9233 C   0  0  0  0  0  0  0  0  0  0  0  0
   12.5088   -0.9524   21.9383 C   0  0  0  0  0  0  0  0  0  0  0  0
   11.1267   -1.4823   22.3302 C   0  0  0  0  0  0  0  0  0  0  0  0
    7.7911    0.1293   17.5585 N   0  0  0  0  0  0  0  0  0  0  0  0
    5.4141    1.3971   20.0152 N   0  0  0  0  0  0  0  0  0  0  0  0
    7.3377    0.2792   21.6848 N   0  0  0  0  0  0  0  0  0  0  0  0
    9.6032   -0.9593   20.5676 N   0  0  0  0  0  0  0  0  0  0  0  0
    9.5528    0.3297   22.5307 O   0  0  0  0  0  0  0  0  0  0  0  0
  1  2  2  0
  1 17  1  0
  2 18  1  0
  3  5  1  0
  3 16  2  0
  4  7  2  0
  4 16  1  0
  5  6  1  0
  5 17  2  0
  6  7  1  0
  6 18  2  0
  7 19  1  0
  8 15  1  0
  8 19  1  0
  8 20  2  0
  9 10  1  0
  9 11  1  0
 10 12  1  0
 11 13  1  0
 12 14  1  0
 13 14  1  0
 14 15  1  0
M  END
