SID-ELM-1f105489-3
     RDKit          3D

 20 22  0  0  0  0  0  0  0  0999 V2000
    7.3565   -1.6712   20.7107 C   0  0  0  0  0  0  0  0  0  0  0  0
    8.2325   -2.1375   21.6893 C   0  0  0  0  0  0  0  0  0  0  0  0
    6.1181   -2.2843   20.5760 C   0  0  0  0  0  0  0  0  0  0  0  0
    7.8095   -3.2103   22.4907 C   0  0  0  0  0  0  0  0  0  0  0  0
    8.3645   -3.9629   23.5593 C   0  0  0  0  0  0  0  0  0  0  0  0
    6.5416   -3.7305   22.2472 C   0  0  0  0  0  0  0  0  0  0  0  0
    7.4322   -4.9071   23.9319 C   0  0  0  0  0  0  0  0  0  0  0  0
    9.8949   -2.3844   24.7400 C   0  0  0  0  0  0  0  0  0  0  0  0
   11.6466   -0.7188   25.2624 C   0  0  0  0  0  0  0  0  0  0  0  0
   11.9903   -3.0429   26.0204 C   0  0  0  0  0  0  0  0  0  0  0  0
   13.0630   -0.6699   24.7085 C   0  0  0  0  0  0  0  0  0  0  0  0
   13.4135   -3.0247   25.4788 C   0  0  0  0  0  0  0  0  0  0  0  0
   14.3734   -1.1129   26.8233 C   0  0  0  0  0  0  0  0  0  0  0  0
    9.7183   -3.7717   24.1758 C   0  0  0  0  0  0  0  0  0  0  0  0
    5.6586   -3.3188   21.3178 N   0  0  0  0  0  0  0  0  0  0  0  0
    6.3310   -4.7574   23.1294 N   0  0  0  0  0  0  0  0  0  0  0  0
   11.1384   -2.0906   25.2994 N   0  0  0  0  0  0  0  0  0  0  0  0
   13.9631   -1.6174   25.4669 N   0  0  0  0  0  0  0  0  0  0  0  0
    8.9557   -1.5866   24.6821 O   0  0  0  0  0  0  0  0  0  0  0  0
    7.5690   -5.8127   24.9023 F   0  0  0  0  0  0  0  0  0  0  0  0
  1  2  2  0
  1  3  1  0
  2  4  1  0
  3 15  2  0
  4  5  1  0
  4  6  2  0
  5  7  2  0
  5 14  1  0
  6 15  1  0
  6 16  1  0
  7 16  1  0
  7 20  1  0
  8 14  1  0
  8 17  1  0
  8 19  2  0
  9 11  1  0
  9 17  1  0
 10 12  1  0
 10 17  1  0
 11 18  1  0
 12 18  1  0
 13 18  1  0
M  CHG  1  18   1
M  END
