SID-ELM-8b394441-18
     RDKit          3D

 20 21  0  0  0  0  0  0  0  0999 V2000
    6.8450    0.1379   20.4069 C   0  0  0  0  0  0  0  0  0  0  0  0
    6.4022    0.7484   18.1513 C   0  0  0  0  0  0  0  0  0  0  0  0
    6.0126    0.7568   19.4809 C   0  0  0  0  0  0  0  0  0  0  0  0
    8.0249   -0.4619   19.9809 C   0  0  0  0  0  0  0  0  0  0  0  0
    8.3243   -0.4159   18.6288 C   0  0  0  0  0  0  0  0  0  0  0  0
    9.0427   -0.7613   22.2649 C   0  0  0  0  0  0  0  0  0  0  0  0
   14.1897   -0.7336   23.9029 C   0  0  0  0  0  0  0  0  0  0  0  0
   13.1957    0.4143   23.7560 C   0  0  0  0  0  0  0  0  0  0  0  0
   13.9281   -1.8363   22.8818 C   0  0  0  0  0  0  0  0  0  0  0  0
   11.7520   -0.0788   23.8219 C   0  0  0  0  0  0  0  0  0  0  0  0
   12.4856   -2.3331   22.9460 C   0  0  0  0  0  0  0  0  0  0  0  0
   11.4825   -1.1822   22.7899 C   0  0  0  0  0  0  0  0  0  0  0  0
    4.0783    0.8762   21.0315 C   0  0  0  0  0  0  0  0  0  0  0  0
    4.2940    2.5183   19.1592 C   0  0  0  0  0  0  0  0  0  0  0  0
   10.0491   -1.6959   22.9112 C   0  0  0  0  0  0  0  0  0  0  0  0
    7.5406    0.1760   17.6997 N   0  0  0  0  0  0  0  0  0  0  0  0
    8.8725   -1.0913   20.9233 N   0  0  0  0  0  0  0  0  0  0  0  0
    4.8140    1.3698   19.8806 N   0  0  0  0  0  0  0  0  0  0  0  0
    8.4892    0.1392   22.8872 O   0  0  0  0  0  0  0  0  0  0  0  0
    9.7515   -1.1214   17.9738 Cl  0  0  0  0  0  0  0  0  0  0  0  0
  1  3  2  0
  1  4  1  0
  2  3  1  0
  2 16  2  0
  3 18  1  0
  4  5  2  0
  4 17  1  0
  5 16  1  0
  5 20  1  0
  6 15  1  0
  6 17  1  0
  6 19  2  0
  7  8  1  0
  7  9  1  0
  8 10  1  0
  9 11  1  0
 10 12  1  0
 11 12  1  0
 12 15  1  0
 13 18  1  0
 14 18  1  0
M  END
