SID-ELM-8b394441-25
     RDKit          3D

 20 22  0  0  0  0  0  0  0  0999 V2000
    5.4268    1.6175   20.8730 C   0  0  0  0  0  0  0  0  0  0  0  0
    6.4584    0.8003   17.5775 C   0  0  0  0  0  0  0  0  0  0  0  0
    6.4016    1.1066   19.9894 C   0  0  0  0  0  0  0  0  0  0  0  0
    5.8118    1.2061   18.7349 C   0  0  0  0  0  0  0  0  0  0  0  0
    7.6924    0.5796   20.0961 C   0  0  0  0  0  0  0  0  0  0  0  0
    8.2830    0.1926   18.8991 C   0  0  0  0  0  0  0  0  0  0  0  0
    9.5370    1.0458   21.7460 C   0  0  0  0  0  0  0  0  0  0  0  0
   13.6142   -1.2911   22.0516 C   0  0  0  0  0  0  0  0  0  0  0  0
   12.4567   -2.1686   22.5178 C   0  0  0  0  0  0  0  0  0  0  0  0
   13.6829    0.0128   22.8405 C   0  0  0  0  0  0  0  0  0  0  0  0
   11.1277   -1.4177   22.4750 C   0  0  0  0  0  0  0  0  0  0  0  0
   12.3560    0.7673   22.7984 C   0  0  0  0  0  0  0  0  0  0  0  0
   11.1902   -0.1095   23.2751 C   0  0  0  0  0  0  0  0  0  0  0  0
    9.8681    0.6487   23.1731 C   0  0  0  0  0  0  0  0  0  0  0  0
    7.7091    0.2891   17.6750 N   0  0  0  0  0  0  0  0  0  0  0  0
    4.3140    2.0092   20.2473 N   0  0  0  0  0  0  0  0  0  0  0  0
    4.5762    1.7482   18.9554 N   0  0  0  0  0  0  0  0  0  0  0  0
    8.3399    0.4571   21.3485 N   0  0  0  0  0  0  0  0  0  0  0  0
   10.2599    1.7845   21.0857 O   0  0  0  0  0  0  0  0  0  0  0  0
    9.8722   -0.4757   18.8450 Cl  0  0  0  0  0  0  0  0  0  0  0  0
  1  3  1  0
  1 16  2  0
  2  4  1  0
  2 15  2  0
  3  4  2  0
  3  5  1  0
  4 17  1  0
  5  6  2  0
  5 18  1  0
  6 15  1  0
  6 20  1  0
  7 14  1  0
  7 18  1  0
  7 19  2  0
  8  9  1  0
  8 10  1  0
  9 11  1  0
 10 12  1  0
 11 13  1  0
 12 13  1  0
 13 14  1  0
 16 17  1  0
M  END
