SID-ELM-433ea7f3-4
     RDKit          3D

 30 32  0  0  1  0  0  0  0  0999 V2000
    6.4573    0.5383   18.0389 C   0  0  0  0  0  0  0  0  0  0  0  0
    9.0519    3.1880   24.2631 C   0  0  0  0  0  0  0  0  0  0  0  0
    9.3592    1.8875   23.8675 C   0  0  0  0  0  0  0  0  0  0  0  0
    7.5764   -0.3373   20.0377 C   0  0  0  0  0  0  0  0  0  0  0  0
   10.0915    4.0584   24.5622 C   0  0  0  0  0  0  0  0  0  0  0  0
    5.5135   -1.3007   19.3501 C   0  0  0  0  0  0  0  0  0  0  0  0
    6.5146   -0.3660   19.1405 C   0  0  0  0  0  0  0  0  0  0  0  0
   10.7146    1.5277   23.7931 C   0  0  0  0  0  0  0  0  0  0  0  0
   11.4388    0.3558   23.4490 C   0  0  0  0  0  0  0  0  0  0  0  0
    7.6044   -1.2316   21.1020 C   0  0  0  0  0  0  0  0  0  0  0  0
   11.6543    2.5005   24.1213 C   0  0  0  0  0  0  0  0  0  0  0  0
    6.5544   -2.1275   21.2239 C   0  0  0  0  0  0  0  0  0  0  0  0
   12.7808    0.6435   23.5753 C   0  0  0  0  0  0  0  0  0  0  0  0
    8.6556   -4.5085   25.5775 C   0  0  0  0  0  0  0  0  0  0  0  0
    8.9654   -3.2340   25.3210 C   0  0  0  0  0  0  0  0  0  0  0  0
    9.8447   -2.8895   24.1719 C   0  0  0  0  0  0  0  0  0  0  0  0
   10.0023   -0.8292   21.7608 C   0  0  0  0  0  0  0  0  0  0  0  0
    5.8177   -4.8288   23.7309 C   0  0  0  0  0  0  0  0  0  0  0  0
    5.5424   -4.0042   22.5198 C   0  0  0  0  0  0  0  0  0  0  0  0
   10.8658   -0.9397   23.0313 C   0  0  0  0  0  0  0  0  0  0  0  0
    6.4107    1.2739   17.1425 N   0  0  0  0  0  0  0  0  0  0  0  0
   11.4120    3.7672   24.5083 N   0  0  0  0  0  0  0  0  0  0  0  0
    5.5060   -2.1854   20.3723 N   0  0  0  0  0  0  0  0  0  0  0  0
   12.8998    1.9466   23.9839 N   0  0  0  0  0  0  0  0  0  0  0  0
    8.6850   -1.2026   22.0152 N   0  0  0  0  0  0  0  0  0  0  0  0
    6.5742   -3.0432   22.3062 N   0  0  0  0  0  0  0  0  0  0  0  0
   10.0394   -1.5311   24.0825 N   0  0  0  0  0  0  0  0  0  0  0  0
   10.3137   -3.7394   23.4216 O   0  0  0  0  0  0  0  0  0  0  0  0
   10.4796   -0.4858   20.6826 O   0  0  0  0  0  0  0  0  0  0  0  0
   13.7937   -0.1935   23.3430 F   0  0  0  0  0  0  0  0  0  0  0  0
  1  7  1  0
  1 21  3  0
  2  3  2  0
  2  5  1  0
  3  8  1  0
  4  7  2  0
  4 10  1  0
  5 22  2  0
  6  7  1  0
  6 23  2  0
  8  9  1  0
  8 11  2  0
  9 13  2  0
  9 20  1  0
 10 12  2  0
 10 25  1  0
 11 22  1  0
 11 24  1  0
 12 23  1  0
 12 26  1  0
 13 24  1  0
 13 30  1  0
 14 15  2  0
 15 16  1  0
 16 27  1  0
 16 28  2  0
 17 20  1  0
 17 25  1  0
 17 29  2  0
 18 19  1  0
 19 26  1  0
 20 27  1  0
M  END
