SID-ELM-8b394441-19
     RDKit          3D

 21 23  0  0  0  0  0  0  0  0999 V2000
    7.8953    0.0550   19.2389 C   0  0  0  0  0  0  0  0  0  0  0  0
    5.1830    1.4338   21.1948 C   0  0  0  0  0  0  0  0  0  0  0  0
    6.3352    0.9154   17.8390 C   0  0  0  0  0  0  0  0  0  0  0  0
    7.1435    0.4220   20.3517 C   0  0  0  0  0  0  0  0  0  0  0  0
    5.9306    1.0688   20.0869 C   0  0  0  0  0  0  0  0  0  0  0  0
    7.5481    0.1736   21.6696 C   0  0  0  0  0  0  0  0  0  0  0  0
    6.7114    0.5878   22.6894 C   0  0  0  0  0  0  0  0  0  0  0  0
   10.0544   -0.0651   21.6113 C   0  0  0  0  0  0  0  0  0  0  0  0
   14.3314   -1.2394   24.0332 C   0  0  0  0  0  0  0  0  0  0  0  0
   13.3856   -0.0429   24.0640 C   0  0  0  0  0  0  0  0  0  0  0  0
   13.7919   -2.3680   23.1600 C   0  0  0  0  0  0  0  0  0  0  0  0
   13.0482    0.4460   22.6566 C   0  0  0  0  0  0  0  0  0  0  0  0
   13.4550   -1.8799   21.7521 C   0  0  0  0  0  0  0  0  0  0  0  0
   12.5122   -0.6675   21.7447 C   0  0  0  0  0  0  0  0  0  0  0  0
   11.0805   -1.0626   22.1172 C   0  0  0  0  0  0  0  0  0  0  0  0
    7.5167    0.2883   17.9674 N   0  0  0  0  0  0  0  0  0  0  0  0
    5.5347    1.2139   22.4848 N   0  0  0  0  0  0  0  0  0  0  0  0
    5.5168    1.3203   18.8312 N   0  0  0  0  0  0  0  0  0  0  0  0
    8.7709   -0.4785   21.9565 N   0  0  0  0  0  0  0  0  0  0  0  0
   10.3710    0.9452   20.9919 O   0  0  0  0  0  0  0  0  0  0  0  0
    7.0795    0.3494   24.3541 Cl  0  0  0  0  0  0  0  0  0  0  0  0
  1  4  2  0
  1 16  1  0
  2  5  1  0
  2 17  2  0
  3 16  2  0
  3 18  1  0
  4  5  1  0
  4  6  1  0
  5 18  2  0
  6  7  2  0
  6 19  1  0
  7 17  1  0
  7 21  1  0
  8 15  1  0
  8 19  1  0
  8 20  2  0
  9 10  1  0
  9 11  1  0
 10 12  1  0
 11 13  1  0
 12 14  1  0
 13 14  1  0
 14 15  1  0
M  END
