SID-ELM-b654bfa2-9
     RDKit          3D

 20 21  0  0  0  0  0  0  0  0999 V2000
    6.4897    1.0734   20.6778 C   0  0  0  0  0  0  0  0  0  0  0  0
    6.1430    0.9737   18.3269 C   0  0  0  0  0  0  0  0  0  0  0  0
    5.6872    1.3565   19.5781 C   0  0  0  0  0  0  0  0  0  0  0  0
    7.7063    0.4254   20.4952 C   0  0  0  0  0  0  0  0  0  0  0  0
    8.0716    0.0841   19.2029 C   0  0  0  0  0  0  0  0  0  0  0  0
    9.9296    0.0365   21.6121 C   0  0  0  0  0  0  0  0  0  0  0  0
   14.3947   -1.7763   24.0518 C   0  0  0  0  0  0  0  0  0  0  0  0
   13.9492   -0.4311   24.6168 C   0  0  0  0  0  0  0  0  0  0  0  0
   13.9033   -1.9744   22.6212 C   0  0  0  0  0  0  0  0  0  0  0  0
   12.4365   -0.2502   24.5143 C   0  0  0  0  0  0  0  0  0  0  0  0
   12.3905   -1.7959   22.5153 C   0  0  0  0  0  0  0  0  0  0  0  0
   11.9394   -0.4399   23.0748 C   0  0  0  0  0  0  0  0  0  0  0  0
    3.9859    2.4077   21.0481 C   0  0  0  0  0  0  0  0  0  0  0  0
    3.6285    2.3143   18.5758 C   0  0  0  0  0  0  0  0  0  0  0  0
   10.4192   -0.3072   23.0071 C   0  0  0  0  0  0  0  0  0  0  0  0
    7.3187    0.3425   18.1102 N   0  0  0  0  0  0  0  0  0  0  0  0
    8.5406    0.1259   21.5983 N   0  0  0  0  0  0  0  0  0  0  0  0
    4.4539    2.0103   19.7318 N   0  0  0  0  0  0  0  0  0  0  0  0
   10.6968    0.2010   20.6692 O   0  0  0  0  0  0  0  0  0  0  0  0
    9.2426   -0.5420   19.0008 F   0  0  0  0  0  0  0  0  0  0  0  0
  1  3  2  0
  1  4  1  0
  2  3  1  0
  2 16  2  0
  3 18  1  0
  4  5  2  0
  4 17  1  0
  5 16  1  0
  5 20  1  0
  6 15  1  0
  6 17  1  0
  6 19  2  0
  7  8  1  0
  7  9  1  0
  8 10  1  0
  9 11  1  0
 10 12  1  0
 11 12  1  0
 12 15  1  0
 13 18  1  0
 14 18  1  0
M  END
