SID-ELM-2583a2cd-17
     RDKit          3D

 20 22  0  0  0  0  0  0  0  0999 V2000
   14.5660   -1.9754   24.3118 C   0  0  0  0  0  0  0  0  0  0  0  0
   14.0746   -3.0232   23.5333 C   0  0  0  0  0  0  0  0  0  0  0  0
   13.9163   -0.7410   24.3102 C   0  0  0  0  0  0  0  0  0  0  0  0
   12.9335   -2.8367   22.7530 C   0  0  0  0  0  0  0  0  0  0  0  0
   12.7752   -0.5545   23.5299 C   0  0  0  0  0  0  0  0  0  0  0  0
    7.9207   -0.0448   18.5619 C   0  0  0  0  0  0  0  0  0  0  0  0
    5.4904    1.3053   20.8757 C   0  0  0  0  0  0  0  0  0  0  0  0
    7.1729    0.3881   22.1458 C   0  0  0  0  0  0  0  0  0  0  0  0
    6.2185    0.8841   17.3900 C   0  0  0  0  0  0  0  0  0  0  0  0
    7.3158    0.2950   19.7689 C   0  0  0  0  0  0  0  0  0  0  0  0
    6.0917    0.9673   19.6742 C   0  0  0  0  0  0  0  0  0  0  0  0
   12.2838   -1.6023   22.7513 C   0  0  0  0  0  0  0  0  0  0  0  0
    7.8724   -0.0033   21.0193 C   0  0  0  0  0  0  0  0  0  0  0  0
   10.0403   -0.5586   22.2072 C   0  0  0  0  0  0  0  0  0  0  0  0
    5.9915    1.0371   22.1058 N   0  0  0  0  0  0  0  0  0  0  0  0
    7.3953    0.2365   17.3539 N   0  0  0  0  0  0  0  0  0  0  0  0
    5.5336    1.2668   18.4867 N   0  0  0  0  0  0  0  0  0  0  0  0
   11.1263   -1.4134   21.9598 N   0  0  0  0  0  0  0  0  0  0  0  0
    9.0896   -0.6722   21.1646 N   0  0  0  0  0  0  0  0  0  0  0  0
    9.9259    0.1798   23.1803 O   0  0  0  0  0  0  0  0  0  0  0  0
  1  2  2  0
  1  3  1  0
  2  4  1  0
  3  5  2  0
  4 12  2  0
  5 12  1  0
  6 10  2  0
  6 16  1  0
  7 11  1  0
  7 15  2  0
  8 13  2  0
  8 15  1  0
  9 16  2  0
  9 17  1  0
 10 11  1  0
 10 13  1  0
 11 17  2  0
 12 18  1  0
 13 19  1  0
 14 18  1  0
 14 19  1  0
 14 20  2  0
M  END
