SID-ELM-b654bfa2-19
     RDKit          3D

 20 22  0  0  0  0  0  0  0  0999 V2000
   14.4733   -1.4884   23.9268 C   0  0  0  0  0  0  0  0  0  0  0  0
   13.8331   -0.4568   24.6134 C   0  0  0  0  0  0  0  0  0  0  0  0
   13.9537   -1.9486   22.7168 C   0  0  0  0  0  0  0  0  0  0  0  0
   12.6732    0.1147   24.0902 C   0  0  0  0  0  0  0  0  0  0  0  0
   12.7939   -1.3771   22.1935 C   0  0  0  0  0  0  0  0  0  0  0  0
    6.4199    0.7109   17.8038 C   0  0  0  0  0  0  0  0  0  0  0  0
    4.9026    1.7202   20.8006 C   0  0  0  0  0  0  0  0  0  0  0  0
    5.9895    1.0879   19.0763 C   0  0  0  0  0  0  0  0  0  0  0  0
    6.9099    1.0890   20.1194 C   0  0  0  0  0  0  0  0  0  0  0  0
   12.1536   -0.3454   22.8802 C   0  0  0  0  0  0  0  0  0  0  0  0
    8.2413    0.7320   19.9562 C   0  0  0  0  0  0  0  0  0  0  0  0
    8.5689    0.3741   18.6563 C   0  0  0  0  0  0  0  0  0  0  0  0
   10.3137   -0.0945   21.1567 C   0  0  0  0  0  0  0  0  0  0  0  0
    7.7133    0.3553   17.6043 N   0  0  0  0  0  0  0  0  0  0  0  0
    4.7481    1.4824   19.5172 N   0  0  0  0  0  0  0  0  0  0  0  0
    6.1879    1.4976   21.2109 N   0  0  0  0  0  0  0  0  0  0  0  0
   10.9771    0.2345   22.3495 N   0  0  0  0  0  0  0  0  0  0  0  0
    9.1689    0.7281   20.9920 N   0  0  0  0  0  0  0  0  0  0  0  0
   10.6649   -0.9645   20.3662 O   0  0  0  0  0  0  0  0  0  0  0  0
    9.8380    0.0141   18.3977 F   0  0  0  0  0  0  0  0  0  0  0  0
  1  2  2  0
  1  3  1  0
  2  4  1  0
  3  5  2  0
  4 10  2  0
  5 10  1  0
  6  8  2  0
  6 14  1  0
  7 15  2  0
  7 16  1  0
  8  9  1  0
  8 15  1  0
  9 11  2  0
  9 16  1  0
 10 17  1  0
 11 12  1  0
 11 18  1  0
 12 14  2  0
 12 20  1  0
 13 17  1  0
 13 18  1  0
 13 19  2  0
M  END
