SID-ELM-b654bfa2-10
     RDKit          3D

 21 23  0  0  0  0  0  0  0  0999 V2000
    4.3811    1.5827   21.6296 C   0  0  0  0  0  0  0  0  0  0  0  0
    5.6647    1.0584   21.5615 C   0  0  0  0  0  0  0  0  0  0  0  0
    3.7424    1.8692   20.4389 C   0  0  0  0  0  0  0  0  0  0  0  0
    6.1668    0.9285   17.9507 C   0  0  0  0  0  0  0  0  0  0  0  0
    6.2688    0.8372   20.3164 C   0  0  0  0  0  0  0  0  0  0  0  0
    5.5359    1.1615   19.1613 C   0  0  0  0  0  0  0  0  0  0  0  0
    7.5611    0.3102   20.2017 C   0  0  0  0  0  0  0  0  0  0  0  0
    8.0802    0.1242   18.9332 C   0  0  0  0  0  0  0  0  0  0  0  0
    9.7339   -0.0088   21.4343 C   0  0  0  0  0  0  0  0  0  0  0  0
   14.1783   -1.6929   24.0007 C   0  0  0  0  0  0  0  0  0  0  0  0
   13.5771   -0.4578   24.6642 C   0  0  0  0  0  0  0  0  0  0  0  0
   13.8003   -1.7771   22.5252 C   0  0  0  0  0  0  0  0  0  0  0  0
   12.0639   -0.3939   24.4694 C   0  0  0  0  0  0  0  0  0  0  0  0
   12.2875   -1.7153   22.3267 C   0  0  0  0  0  0  0  0  0  0  0  0
   11.6800   -0.4694   22.9854 C   0  0  0  0  0  0  0  0  0  0  0  0
   10.1616   -0.4577   22.8197 C   0  0  0  0  0  0  0  0  0  0  0  0
    4.2893    1.6708   19.2178 N   0  0  0  0  0  0  0  0  0  0  0  0
    7.4134    0.4211   17.8005 N   0  0  0  0  0  0  0  0  0  0  0  0
    8.3463   -0.0349   21.3274 N   0  0  0  0  0  0  0  0  0  0  0  0
   10.5421    0.3191   20.5719 O   0  0  0  0  0  0  0  0  0  0  0  0
    9.3178   -0.3801   18.7980 F   0  0  0  0  0  0  0  0  0  0  0  0
  1  2  2  0
  1  3  1  0
  2  5  1  0
  3 17  2  0
  4  6  1  0
  4 18  2  0
  5  6  2  0
  5  7  1  0
  6 17  1  0
  7  8  2  0
  7 19  1  0
  8 18  1  0
  8 21  1  0
  9 16  1  0
  9 19  1  0
  9 20  2  0
 10 11  1  0
 10 12  1  0
 11 13  1  0
 12 14  1  0
 13 15  1  0
 14 15  1  0
 15 16  1  0
M  END
