SID-ELM-8b394441-6
     RDKit          3D

 19 20  0  0  0  0  0  0  0  0999 V2000
   13.7718   -1.7931   26.1238 C   0  0  0  0  0  0  0  0  0  0  0  0
   13.1356   -0.7013   25.5332 C   0  0  0  0  0  0  0  0  0  0  0  0
   13.2519   -3.0768   25.9580 C   0  0  0  0  0  0  0  0  0  0  0  0
   11.9793   -0.8932   24.7770 C   0  0  0  0  0  0  0  0  0  0  0  0
   12.0956   -3.2687   25.2019 C   0  0  0  0  0  0  0  0  0  0  0  0
    7.6954   -5.5990   22.5581 C   0  0  0  0  0  0  0  0  0  0  0  0
    5.7302   -6.0222   21.2869 C   0  0  0  0  0  0  0  0  0  0  0  0
   11.4593   -2.1769   24.6113 C   0  0  0  0  0  0  0  0  0  0  0  0
    6.7690   -6.5102   22.0632 C   0  0  0  0  0  0  0  0  0  0  0  0
    7.5566   -4.2467   22.2657 C   0  0  0  0  0  0  0  0  0  0  0  0
    6.4826   -3.8601   21.4803 C   0  0  0  0  0  0  0  0  0  0  0  0
    9.6231   -3.5781   23.5701 C   0  0  0  0  0  0  0  0  0  0  0  0
    7.4742   -8.3913   23.5430 C   0  0  0  0  0  0  0  0  0  0  0  0
    5.5625   -4.7159   20.9816 N   0  0  0  0  0  0  0  0  0  0  0  0
   10.3027   -2.3686   23.8548 N   0  0  0  0  0  0  0  0  0  0  0  0
    8.4988   -3.3194   22.7697 N   0  0  0  0  0  0  0  0  0  0  0  0
    6.8835   -7.8822   22.3402 N   0  0  0  0  0  0  0  0  0  0  0  0
    9.9714   -4.6852   23.9676 O   0  0  0  0  0  0  0  0  0  0  0  0
    6.1995   -2.2186   21.0453 Cl  0  0  0  0  0  0  0  0  0  0  0  0
  1  2  2  0
  1  3  1  0
  2  4  1  0
  3  5  2  0
  4  8  2  0
  5  8  1  0
  6  9  2  0
  6 10  1  0
  7  9  1  0
  7 14  2  0
  8 15  1  0
  9 17  1  0
 10 11  2  0
 10 16  1  0
 11 14  1  0
 11 19  1  0
 12 15  1  0
 12 16  1  0
 12 18  2  0
 13 17  1  0
M  END
