SID-ELM-2583a2cd-11
     RDKit          3D

 20 22  0  0  0  0  0  0  0  0999 V2000
   14.3990   -1.5084   23.8602 C   0  0  0  0  0  0  0  0  0  0  0  0
   14.0751   -0.1800   24.1355 C   0  0  0  0  0  0  0  0  0  0  0  0
   13.5343   -2.2936   23.0975 C   0  0  0  0  0  0  0  0  0  0  0  0
   12.8863    0.3634   23.6483 C   0  0  0  0  0  0  0  0  0  0  0  0
   12.3456   -1.7503   22.6103 C   0  0  0  0  0  0  0  0  0  0  0  0
    4.0855    1.5190   20.7127 C   0  0  0  0  0  0  0  0  0  0  0  0
    4.9819    1.5539   21.7489 C   0  0  0  0  0  0  0  0  0  0  0  0
    6.2353    0.4929   18.0292 C   0  0  0  0  0  0  0  0  0  0  0  0
    8.3718    0.2103   18.7941 C   0  0  0  0  0  0  0  0  0  0  0  0
    5.7554    0.8613   19.2758 C   0  0  0  0  0  0  0  0  0  0  0  0
    6.6753    0.8961   20.3339 C   0  0  0  0  0  0  0  0  0  0  0  0
   12.0216   -0.4218   22.8857 C   0  0  0  0  0  0  0  0  0  0  0  0
    7.9998    0.5644   20.0803 C   0  0  0  0  0  0  0  0  0  0  0  0
   10.1265   -0.2127   21.2172 C   0  0  0  0  0  0  0  0  0  0  0  0
    7.5176    0.1661   17.7556 N   0  0  0  0  0  0  0  0  0  0  0  0
    4.4605    1.1734   19.4681 N   0  0  0  0  0  0  0  0  0  0  0  0
    6.2797    1.2442   21.5713 N   0  0  0  0  0  0  0  0  0  0  0  0
   10.8159    0.1296   22.3915 N   0  0  0  0  0  0  0  0  0  0  0  0
    8.9614    0.5811   21.0935 N   0  0  0  0  0  0  0  0  0  0  0  0
   10.4766   -1.0711   20.4136 O   0  0  0  0  0  0  0  0  0  0  0  0
  1  2  2  0
  1  3  1  0
  2  4  1  0
  3  5  2  0
  4 12  2  0
  5 12  1  0
  6  7  2  0
  6 16  1  0
  7 17  1  0
  8 10  1  0
  8 15  2  0
  9 13  2  0
  9 15  1  0
 10 11  1  0
 10 16  2  0
 11 13  1  0
 11 17  2  0
 12 18  1  0
 13 19  1  0
 14 18  1  0
 14 19  1  0
 14 20  2  0
M  END
