SID-ELM-1f105489-2
     RDKit          3D

 19 21  0  0  0  0  0  0  0  0999 V2000
    6.9921   -1.7469   20.9051 C   0  0  0  0  0  0  0  0  0  0  0  0
    5.7712   -2.3280   20.6103 C   0  0  0  0  0  0  0  0  0  0  0  0
    7.3637   -5.4993   23.2521 C   0  0  0  0  0  0  0  0  0  0  0  0
    8.2037   -4.4207   23.0650 C   0  0  0  0  0  0  0  0  0  0  0  0
    7.5369   -3.5191   22.2037 C   0  0  0  0  0  0  0  0  0  0  0  0
    6.3046   -4.0772   21.8898 C   0  0  0  0  0  0  0  0  0  0  0  0
    9.6615   -3.0007   24.5092 C   0  0  0  0  0  0  0  0  0  0  0  0
   11.3002   -1.3368   25.3227 C   0  0  0  0  0  0  0  0  0  0  0  0
   11.8632   -3.7295   25.5509 C   0  0  0  0  0  0  0  0  0  0  0  0
   12.6791   -1.0475   24.7480 C   0  0  0  0  0  0  0  0  0  0  0  0
   13.2519   -3.4722   24.9813 C   0  0  0  0  0  0  0  0  0  0  0  0
   14.1235   -1.8123   26.6753 C   0  0  0  0  0  0  0  0  0  0  0  0
    9.5671   -4.2467   23.6651 C   0  0  0  0  0  0  0  0  0  0  0  0
    7.9169   -2.3144   21.7072 N   0  0  0  0  0  0  0  0  0  0  0  0
    5.3727   -3.5240   21.0922 N   0  0  0  0  0  0  0  0  0  0  0  0
    6.2136   -5.2804   22.5342 N   0  0  0  0  0  0  0  0  0  0  0  0
   10.9041   -2.7243   25.0792 N   0  0  0  0  0  0  0  0  0  0  0  0
   13.6875   -2.0517   25.2557 N   0  0  0  0  0  0  0  0  0  0  0  0
    8.6606   -2.2942   24.6542 O   0  0  0  0  0  0  0  0  0  0  0  0
  1  2  2  0
  1 14  1  0
  2 15  1  0
  3  4  2  0
  3 16  1  0
  4  5  1  0
  4 13  1  0
  5  6  1  0
  5 14  2  0
  6 15  2  0
  6 16  1  0
  7 13  1  0
  7 17  1  0
  7 19  2  0
  8 10  1  0
  8 17  1  0
  9 11  1  0
  9 17  1  0
 10 18  1  0
 11 18  1  0
 12 18  1  0
M  CHG  1  18   1
M  END
