SID-ELM-8b394441-11
     RDKit          3D

 20 22  0  0  0  0  0  0  0  0999 V2000
   14.1440   -0.4991   24.3081 C   0  0  0  0  0  0  0  0  0  0  0  0
   13.1596   -1.2756   24.9192 C   0  0  0  0  0  0  0  0  0  0  0  0
   13.8640    0.1719   23.1176 C   0  0  0  0  0  0  0  0  0  0  0  0
   11.8951   -1.3813   24.3398 C   0  0  0  0  0  0  0  0  0  0  0  0
   12.5995    0.0662   22.5383 C   0  0  0  0  0  0  0  0  0  0  0  0
    5.9135    1.0766   21.3695 C   0  0  0  0  0  0  0  0  0  0  0  0
    4.8208    1.7459   20.7767 C   0  0  0  0  0  0  0  0  0  0  0  0
   11.6151   -0.7104   23.1494 C   0  0  0  0  0  0  0  0  0  0  0  0
    6.6361    0.5922   20.3046 C   0  0  0  0  0  0  0  0  0  0  0  0
    6.3544    0.6988   17.8925 C   0  0  0  0  0  0  0  0  0  0  0  0
    7.8158   -0.1550   20.0737 C   0  0  0  0  0  0  0  0  0  0  0  0
    8.1551   -0.4055   18.7893 C   0  0  0  0  0  0  0  0  0  0  0  0
    9.8755   -0.2213   21.3819 C   0  0  0  0  0  0  0  0  0  0  0  0
    4.8412    1.6943   19.4403 N   0  0  0  0  0  0  0  0  0  0  0  0
    7.4367    0.0131   17.6805 N   0  0  0  0  0  0  0  0  0  0  0  0
    5.9543    0.9878   19.1854 N   0  0  0  0  0  0  0  0  0  0  0  0
   10.3328   -0.8176   22.5622 N   0  0  0  0  0  0  0  0  0  0  0  0
    8.5420   -0.5798   21.1491 N   0  0  0  0  0  0  0  0  0  0  0  0
   10.5220    0.5131   20.6381 O   0  0  0  0  0  0  0  0  0  0  0  0
    9.5891   -1.3170   18.4098 Cl  0  0  0  0  0  0  0  0  0  0  0  0
  1  2  2  0
  1  3  1  0
  2  4  1  0
  3  5  2  0
  4  8  2  0
  5  8  1  0
  6  7  1  0
  6  9  2  0
  7 14  2  0
  8 17  1  0
  9 11  1  0
  9 16  1  0
 10 15  2  0
 10 16  1  0
 11 12  2  0
 11 18  1  0
 12 15  1  0
 12 20  1  0
 13 17  1  0
 13 18  1  0
 13 19  2  0
 14 16  1  0
M  END
