SID-ELM-b654bfa2-1
     RDKit          3D

 18 19  0  0  0  0  0  0  0  0999 V2000
   14.4702   -1.4646   23.9030 C   0  0  0  0  0  0  0  0  0  0  0  0
   13.7859   -0.4911   24.6306 C   0  0  0  0  0  0  0  0  0  0  0  0
   13.9627   -1.9077   22.6815 C   0  0  0  0  0  0  0  0  0  0  0  0
   12.5941    0.0394   24.1369 C   0  0  0  0  0  0  0  0  0  0  0  0
   12.7709   -1.3772   22.1879 C   0  0  0  0  0  0  0  0  0  0  0  0
    6.7619    0.8708   20.3138 C   0  0  0  0  0  0  0  0  0  0  0  0
    6.3088    0.5468   18.0016 C   0  0  0  0  0  0  0  0  0  0  0  0
   12.0865   -0.4037   22.9155 C   0  0  0  0  0  0  0  0  0  0  0  0
    5.8441    0.8574   19.2694 C   0  0  0  0  0  0  0  0  0  0  0  0
    8.0975    0.5774   20.0620 C   0  0  0  0  0  0  0  0  0  0  0  0
    8.4613    0.2792   18.7588 C   0  0  0  0  0  0  0  0  0  0  0  0
   10.2200   -0.1854   21.2164 C   0  0  0  0  0  0  0  0  0  0  0  0
    7.5984    0.2564   17.7183 N   0  0  0  0  0  0  0  0  0  0  0  0
    4.4890    1.1500   19.4934 N   0  0  0  0  0  0  0  0  0  0  0  0
   10.8944    0.1271   22.4219 N   0  0  0  0  0  0  0  0  0  0  0  0
    9.0504    0.5840   21.1079 N   0  0  0  0  0  0  0  0  0  0  0  0
   10.6067   -1.0085   20.3928 O   0  0  0  0  0  0  0  0  0  0  0  0
    9.7459   -0.0070   18.4902 F   0  0  0  0  0  0  0  0  0  0  0  0
  1  2  2  0
  1  3  1  0
  2  4  1  0
  3  5  2  0
  4  8  2  0
  5  8  1  0
  6  9  2  0
  6 10  1  0
  7  9  1  0
  7 13  2  0
  8 15  1  0
  9 14  1  0
 10 11  2  0
 10 16  1  0
 11 13  1  0
 11 18  1  0
 12 15  1  0
 12 16  1  0
 12 17  2  0
M  END
