SID-ELM-1f105489-5
     RDKit          3D

 20 22  0  0  0  0  0  0  0  0999 V2000
    5.1220    0.6575   19.1110 C   0  0  0  0  0  0  0  0  0  0  0  0
    6.0239    0.6941   18.0619 C   0  0  0  0  0  0  0  0  0  0  0  0
    7.0766   -1.5528   21.2503 C   0  0  0  0  0  0  0  0  0  0  0  0
    6.5005   -0.7175   20.2655 C   0  0  0  0  0  0  0  0  0  0  0  0
    7.3859   -0.6616   19.1971 C   0  0  0  0  0  0  0  0  0  0  0  0
    8.2922   -1.9816   20.7580 C   0  0  0  0  0  0  0  0  0  0  0  0
    5.9229   -3.3099   22.5951 C   0  0  0  0  0  0  0  0  0  0  0  0
    6.0294   -5.4192   23.8838 C   0  0  0  0  0  0  0  0  0  0  0  0
    5.7149   -3.3164   25.1298 C   0  0  0  0  0  0  0  0  0  0  0  0
    7.1456   -5.8369   24.8299 C   0  0  0  0  0  0  0  0  0  0  0  0
    6.8258   -3.7036   26.0965 C   0  0  0  0  0  0  0  0  0  0  0  0
    7.9185   -5.6603   27.1978 C   0  0  0  0  0  0  0  0  0  0  0  0
    6.4827   -1.9099   22.5803 C   0  0  0  0  0  0  0  0  0  0  0  0
    5.3223   -0.0442   20.2461 N   0  0  0  0  0  0  0  0  0  0  0  0
    7.2005    0.0330   18.0596 N   0  0  0  0  0  0  0  0  0  0  0  0
    8.4700   -1.4346   19.5108 N   0  0  0  0  0  0  0  0  0  0  0  0
    5.9060   -3.9626   23.8269 N   0  0  0  0  0  0  0  0  0  0  0  0
    6.9026   -5.2114   26.1853 N   0  0  0  0  0  0  0  0  0  0  0  0
    5.5158   -3.8076   21.5422 O   0  0  0  0  0  0  0  0  0  0  0  0
    9.1556   -2.7864   21.3809 F   0  0  0  0  0  0  0  0  0  0  0  0
  1  2  2  0
  1 14  1  0
  2 15  1  0
  3  4  1  0
  3  6  2  0
  3 13  1  0
  4  5  1  0
  4 14  2  0
  5 15  2  0
  5 16  1  0
  6 16  1  0
  6 20  1  0
  7 13  1  0
  7 17  1  0
  7 19  2  0
  8 10  1  0
  8 17  1  0
  9 11  1  0
  9 17  1  0
 10 18  1  0
 11 18  1  0
 12 18  1  0
M  CHG  1  18   1
M  END
