SID-ELM-2583a2cd-9
     RDKit          3D

 19 21  0  0  0  0  0  0  0  0999 V2000
   14.6009   -1.4586   23.5933 C   0  0  0  0  0  0  0  0  0  0  0  0
   13.6696   -1.0206   24.5347 C   0  0  0  0  0  0  0  0  0  0  0  0
   14.2578   -1.5047   22.2420 C   0  0  0  0  0  0  0  0  0  0  0  0
   12.3952   -0.6288   24.1250 C   0  0  0  0  0  0  0  0  0  0  0  0
   12.9834   -1.1130   21.8323 C   0  0  0  0  0  0  0  0  0  0  0  0
    6.3169    0.7044   17.7832 C   0  0  0  0  0  0  0  0  0  0  0  0
    8.3810    0.0986   18.6947 C   0  0  0  0  0  0  0  0  0  0  0  0
    4.7518    1.6172   20.7863 C   0  0  0  0  0  0  0  0  0  0  0  0
    5.8603    1.0204   19.0631 C   0  0  0  0  0  0  0  0  0  0  0  0
    6.7241    0.8523   20.1406 C   0  0  0  0  0  0  0  0  0  0  0  0
   12.0520   -0.6750   22.7738 C   0  0  0  0  0  0  0  0  0  0  0  0
    8.0235    0.3837   20.0047 C   0  0  0  0  0  0  0  0  0  0  0  0
   10.2388   -0.2563   21.0545 C   0  0  0  0  0  0  0  0  0  0  0  0
    7.5806    0.2436   17.6097 N   0  0  0  0  0  0  0  0  0  0  0  0
    4.6401    1.4960   19.4823 N   0  0  0  0  0  0  0  0  0  0  0  0
    5.9893    1.2415   21.2307 N   0  0  0  0  0  0  0  0  0  0  0  0
   10.7592   -0.2774   22.3584 N   0  0  0  0  0  0  0  0  0  0  0  0
    8.8983    0.2106   21.0710 N   0  0  0  0  0  0  0  0  0  0  0  0
   10.8465   -0.5908   20.0426 O   0  0  0  0  0  0  0  0  0  0  0  0
  1  2  2  0
  1  3  1  0
  2  4  1  0
  3  5  2  0
  4 11  2  0
  5 11  1  0
  6  9  2  0
  6 14  1  0
  7 12  1  0
  7 14  2  0
  8 15  2  0
  8 16  1  0
  9 10  1  0
  9 15  1  0
 10 12  2  0
 10 16  1  0
 11 17  1  0
 12 18  1  0
 13 17  1  0
 13 18  1  0
 13 19  2  0
M  END
