SID-ELM-1f105489-11
     RDKit          3D

 19 21  0  0  0  0  0  0  0  0999 V2000
    6.8149   -3.8602   26.2789 C   0  0  0  0  0  0  0  0  0  0  0  0
    7.0584   -5.1856   26.5943 C   0  0  0  0  0  0  0  0  0  0  0  0
   10.4001   -4.5820   23.7586 C   0  0  0  0  0  0  0  0  0  0  0  0
    8.5982   -3.8506   24.8848 C   0  0  0  0  0  0  0  0  0  0  0  0
    9.6004   -3.4759   23.9605 C   0  0  0  0  0  0  0  0  0  0  0  0
    8.8174   -5.1801   25.2206 C   0  0  0  0  0  0  0  0  0  0  0  0
    9.0031   -1.0698   23.5086 C   0  0  0  0  0  0  0  0  0  0  0  0
    9.2896    1.3173   24.1212 C   0  0  0  0  0  0  0  0  0  0  0  0
   10.9228    0.3329   22.5384 C   0  0  0  0  0  0  0  0  0  0  0  0
    9.1877    2.5654   23.2601 C   0  0  0  0  0  0  0  0  0  0  0  0
   10.8447    1.5887   21.6781 C   0  0  0  0  0  0  0  0  0  0  0  0
   11.5980    3.3208   23.3520 C   0  0  0  0  0  0  0  0  0  0  0  0
    7.5689   -3.1449   25.4184 N   0  0  0  0  0  0  0  0  0  0  0  0
    8.0750   -5.9063   26.0763 N   0  0  0  0  0  0  0  0  0  0  0  0
    9.9158   -5.6111   24.5284 N   0  0  0  0  0  0  0  0  0  0  0  0
    9.7084    0.1451   23.3474 N   0  0  0  0  0  0  0  0  0  0  0  0
    9.7809   -2.2153   23.3387 N   0  0  0  0  0  0  0  0  0  0  0  0
   10.4734    2.7917   22.5053 N   0  0  0  0  0  0  0  0  0  0  0  0
    7.8050   -1.0915   23.8019 O   0  0  0  0  0  0  0  0  0  0  0  0
  1  2  2  0
  1 13  1  0
  2 14  1  0
  3  5  2  0
  3 15  1  0
  4  5  1  0
  4  6  1  0
  4 13  2  0
  5 17  1  0
  6 14  2  0
  6 15  1  0
  7 16  1  0
  7 17  1  0
  7 19  2  0
  8 10  1  0
  8 16  1  0
  9 11  1  0
  9 16  1  0
 10 18  1  0
 11 18  1  0
 12 18  1  0
M  CHG  1  18   1
M  END
