SID-ELM-8b394441-3
     RDKit          3D

 17 18  0  0  0  0  0  0  0  0999 V2000
    6.3711   -5.7847   21.7878 C   0  0  0  0  0  0  0  0  0  0  0  0
    6.2259   -4.4221   21.5276 C   0  0  0  0  0  0  0  0  0  0  0  0
    7.4645   -6.2416   22.5237 C   0  0  0  0  0  0  0  0  0  0  0  0
   14.0932   -2.8659   26.2174 C   0  0  0  0  0  0  0  0  0  0  0  0
    7.1741   -3.5163   22.0031 C   0  0  0  0  0  0  0  0  0  0  0  0
    8.4127   -5.3358   22.9993 C   0  0  0  0  0  0  0  0  0  0  0  0
   12.9121   -3.0443   25.5057 C   0  0  0  0  0  0  0  0  0  0  0  0
   14.5768   -1.5751   26.3583 C   0  0  0  0  0  0  0  0  0  0  0  0
    8.2675   -3.9731   22.7390 C   0  0  0  0  0  0  0  0  0  0  0  0
   12.2599   -1.9421   24.9644 C   0  0  0  0  0  0  0  0  0  0  0  0
   12.8255   -0.6927   25.1616 C   0  0  0  0  0  0  0  0  0  0  0  0
   10.3839   -3.3261   23.9722 C   0  0  0  0  0  0  0  0  0  0  0  0
   13.9712   -0.4800   25.8469 N   0  0  0  0  0  0  0  0  0  0  0  0
    9.2157   -3.0669   23.2146 N   0  0  0  0  0  0  0  0  0  0  0  0
   11.0578   -2.1238   24.2407 N   0  0  0  0  0  0  0  0  0  0  0  0
   10.7472   -4.4397   24.3367 O   0  0  0  0  0  0  0  0  0  0  0  0
   12.1177    0.7500   24.5439 Cl  0  0  0  0  0  0  0  0  0  0  0  0
  1  2  2  0
  1  3  1  0
  2  5  1  0
  3  6  2  0
  4  7  2  0
  4  8  1  0
  5  9  2  0
  6  9  1  0
  7 10  1  0
  8 13  2  0
  9 14  1  0
 10 11  2  0
 10 15  1  0
 11 13  1  0
 11 17  1  0
 12 14  1  0
 12 15  1  0
 12 16  2  0
M  END
