SID-ELM-8b394441-9
     RDKit          3D

 21 23  0  0  0  0  0  0  0  0999 V2000
    7.2057   -5.5506   26.5586 C   0  0  0  0  0  0  0  0  0  0  0  0
    7.9759   -4.5126   27.0831 C   0  0  0  0  0  0  0  0  0  0  0  0
    7.0008   -5.6401   25.1818 C   0  0  0  0  0  0  0  0  0  0  0  0
   13.6739   -2.0103   23.0036 C   0  0  0  0  0  0  0  0  0  0  0  0
   12.3265   -1.8699   22.7007 C   0  0  0  0  0  0  0  0  0  0  0  0
    8.5410   -3.5641   26.2308 C   0  0  0  0  0  0  0  0  0  0  0  0
    7.5660   -4.6916   24.3294 C   0  0  0  0  0  0  0  0  0  0  0  0
   14.2729   -1.0065   23.7392 C   0  0  0  0  0  0  0  0  0  0  0  0
   11.5902    1.3278   24.2942 C   0  0  0  0  0  0  0  0  0  0  0  0
   11.6215   -0.7401   23.1376 C   0  0  0  0  0  0  0  0  0  0  0  0
   12.3212    0.2266   23.8808 C   0  0  0  0  0  0  0  0  0  0  0  0
    8.3361   -3.6535   24.8539 C   0  0  0  0  0  0  0  0  0  0  0  0
   10.2622   -0.5583   22.8548 C   0  0  0  0  0  0  0  0  0  0  0  0
    9.6449    0.5866   23.3251 C   0  0  0  0  0  0  0  0  0  0  0  0
    8.8133   -2.6199   22.5906 C   0  0  0  0  0  0  0  0  0  0  0  0
   13.6293    0.0987   24.1796 N   0  0  0  0  0  0  0  0  0  0  0  0
   10.2767    1.5379   24.0403 N   0  0  0  0  0  0  0  0  0  0  0  0
    8.9096   -2.6913   23.9895 N   0  0  0  0  0  0  0  0  0  0  0  0
    9.5355   -1.5011   22.1174 N   0  0  0  0  0  0  0  0  0  0  0  0
    8.1963   -3.4076   21.8807 O   0  0  0  0  0  0  0  0  0  0  0  0
    7.9811    0.9324   23.0484 Cl  0  0  0  0  0  0  0  0  0  0  0  0
  1  2  2  0
  1  3  1  0
  2  6  1  0
  3  7  2  0
  4  5  2  0
  4  8  1  0
  5 10  1  0
  6 12  2  0
  7 12  1  0
  8 16  2  0
  9 11  1  0
  9 17  2  0
 10 11  2  0
 10 13  1  0
 11 16  1  0
 12 18  1  0
 13 14  2  0
 13 19  1  0
 14 17  1  0
 14 21  1  0
 15 18  1  0
 15 19  1  0
 15 20  2  0
M  END
