SID-ELM-8b394441-13
     RDKit          3D

 20 22  0  0  0  0  0  0  0  0999 V2000
   14.1762   -1.6881   24.4655 C   0  0  0  0  0  0  0  0  0  0  0  0
   13.9765   -0.3193   24.6441 C   0  0  0  0  0  0  0  0  0  0  0  0
   13.3761   -2.3988   23.5707 C   0  0  0  0  0  0  0  0  0  0  0  0
   12.9767    0.3390   23.9280 C   0  0  0  0  0  0  0  0  0  0  0  0
   12.3763   -1.7406   22.8546 C   0  0  0  0  0  0  0  0  0  0  0  0
    6.3327    0.4208   18.0173 C   0  0  0  0  0  0  0  0  0  0  0  0
    5.1268    1.5832   21.0989 C   0  0  0  0  0  0  0  0  0  0  0  0
    6.0351    0.8703   19.3042 C   0  0  0  0  0  0  0  0  0  0  0  0
    7.0679    0.9758   20.2301 C   0  0  0  0  0  0  0  0  0  0  0  0
   12.1766   -0.3717   23.0333 C   0  0  0  0  0  0  0  0  0  0  0  0
    8.3858    0.6546   19.9358 C   0  0  0  0  0  0  0  0  0  0  0  0
    8.5775    0.2186   18.6326 C   0  0  0  0  0  0  0  0  0  0  0  0
   10.2680   -0.2482   21.3716 C   0  0  0  0  0  0  0  0  0  0  0  0
    7.6088    0.0971   17.6914 N   0  0  0  0  0  0  0  0  0  0  0  0
    4.8367    1.2515   19.8606 N   0  0  0  0  0  0  0  0  0  0  0  0
    6.4588    1.4342   21.3697 N   0  0  0  0  0  0  0  0  0  0  0  0
   11.1625    0.2963   22.3069 N   0  0  0  0  0  0  0  0  0  0  0  0
    9.4099    0.7646   20.8733 N   0  0  0  0  0  0  0  0  0  0  0  0
   10.2282   -1.4259   21.0303 O   0  0  0  0  0  0  0  0  0  0  0  0
   10.1374   -0.2342   18.0519 Cl  0  0  0  0  0  0  0  0  0  0  0  0
  1  2  2  0
  1  3  1  0
  2  4  1  0
  3  5  2  0
  4 10  2  0
  5 10  1  0
  6  8  2  0
  6 14  1  0
  7 15  2  0
  7 16  1  0
  8  9  1  0
  8 15  1  0
  9 11  2  0
  9 16  1  0
 10 17  1  0
 11 12  1  0
 11 18  1  0
 12 14  2  0
 12 20  1  0
 13 17  1  0
 13 18  1  0
 13 19  2  0
M  END
