SID-ELM-2583a2cd-22
     RDKit          3D

 19 21  0  0  0  0  0  0  0  0999 V2000
   14.3944   -1.7196   23.6697 C   0  0  0  0  0  0  0  0  0  0  0  0
   13.8027   -0.7199   24.4417 C   0  0  0  0  0  0  0  0  0  0  0  0
   13.8190   -2.0962   22.4562 C   0  0  0  0  0  0  0  0  0  0  0  0
   12.6354   -0.0968   24.0002 C   0  0  0  0  0  0  0  0  0  0  0  0
   12.6517   -1.4731   22.0147 C   0  0  0  0  0  0  0  0  0  0  0  0
    6.0030    1.4777   21.3431 C   0  0  0  0  0  0  0  0  0  0  0  0
    4.7264    1.6483   20.7641 C   0  0  0  0  0  0  0  0  0  0  0  0
   12.0599   -0.4734   22.7867 C   0  0  0  0  0  0  0  0  0  0  0  0
    6.8047    1.0969   20.2935 C   0  0  0  0  0  0  0  0  0  0  0  0
    8.5057    0.4304   18.7972 C   0  0  0  0  0  0  0  0  0  0  0  0
    6.4127    0.7247   17.9204 C   0  0  0  0  0  0  0  0  0  0  0  0
    8.1544    0.7521   20.0575 C   0  0  0  0  0  0  0  0  0  0  0  0
   10.1645   -0.0863   21.1597 C   0  0  0  0  0  0  0  0  0  0  0  0
    4.7115    1.3975   19.4501 N   0  0  0  0  0  0  0  0  0  0  0  0
    7.6549    0.4080   17.7061 N   0  0  0  0  0  0  0  0  0  0  0  0
    5.9872    1.0654   19.1946 N   0  0  0  0  0  0  0  0  0  0  0  0
   10.8763    0.1586   22.3391 N   0  0  0  0  0  0  0  0  0  0  0  0
    9.0448    0.7540   21.0894 N   0  0  0  0  0  0  0  0  0  0  0  0
   10.4511   -0.9087   20.2925 O   0  0  0  0  0  0  0  0  0  0  0  0
  1  2  2  0
  1  3  1  0
  2  4  1  0
  3  5  2  0
  4  8  2  0
  5  8  1  0
  6  7  1  0
  6  9  2  0
  7 14  2  0
  8 17  1  0
  9 12  1  0
  9 16  1  0
 10 12  2  0
 10 15  1  0
 11 15  2  0
 11 16  1  0
 12 18  1  0
 13 17  1  0
 13 18  1  0
 13 19  2  0
 14 16  1  0
M  END
