SID-ELM-8b394441-16
     RDKit          3D

 18 19  0  0  0  0  0  0  0  0999 V2000
    6.5816    0.3298   20.4240 C   0  0  0  0  0  0  0  0  0  0  0  0
    6.6364    0.8441   18.1025 C   0  0  0  0  0  0  0  0  0  0  0  0
    6.0373    1.0107   19.3407 C   0  0  0  0  0  0  0  0  0  0  0  0
    7.6926   -0.4854   20.2386 C   0  0  0  0  0  0  0  0  0  0  0  0
    8.2175   -0.5852   18.9601 C   0  0  0  0  0  0  0  0  0  0  0  0
    8.2453   -0.7867   22.6770 C   0  0  0  0  0  0  0  0  0  0  0  0
   12.9567   -0.3181   22.6782 C   0  0  0  0  0  0  0  0  0  0  0  0
   12.6849   -1.8049   22.4721 C   0  0  0  0  0  0  0  0  0  0  0  0
   12.2260    0.2212   23.9040 C   0  0  0  0  0  0  0  0  0  0  0  0
   11.1881   -2.1002   22.4066 C   0  0  0  0  0  0  0  0  0  0  0  0
   10.7285   -0.0708   23.8411 C   0  0  0  0  0  0  0  0  0  0  0  0
   10.4508   -1.5670   23.6425 C   0  0  0  0  0  0  0  0  0  0  0  0
    8.9499   -1.8267   23.5290 C   0  0  0  0  0  0  0  0  0  0  0  0
    7.7163    0.0609   17.8835 N   0  0  0  0  0  0  0  0  0  0  0  0
    4.9149    1.8402   19.4964 N   0  0  0  0  0  0  0  0  0  0  0  0
    8.2470   -1.1781   21.3411 N   0  0  0  0  0  0  0  0  0  0  0  0
    7.7618    0.2346   23.1541 O   0  0  0  0  0  0  0  0  0  0  0  0
    9.5883   -1.5615   18.5976 Cl  0  0  0  0  0  0  0  0  0  0  0  0
  1  3  2  0
  1  4  1  0
  2  3  1  0
  2 14  2  0
  3 15  1  0
  4  5  2  0
  4 16  1  0
  5 14  1  0
  5 18  1  0
  6 13  1  0
  6 16  1  0
  6 17  2  0
  7  8  1  0
  7  9  1  0
  8 10  1  0
  9 11  1  0
 10 12  1  0
 11 12  1  0
 12 13  1  0
M  END
