SID-ELM-b654bfa2-21
     RDKit          3D

 18 19  0  0  0  0  0  0  0  0999 V2000
    6.5382    0.7300   20.4260 C   0  0  0  0  0  0  0  0  0  0  0  0
    6.3997    0.7947   18.0526 C   0  0  0  0  0  0  0  0  0  0  0  0
    5.8081    1.0340   19.2825 C   0  0  0  0  0  0  0  0  0  0  0  0
    7.8196    0.2035   20.3066 C   0  0  0  0  0  0  0  0  0  0  0  0
    8.3210    0.0011   19.0309 C   0  0  0  0  0  0  0  0  0  0  0  0
    9.9678   -0.0879   21.5879 C   0  0  0  0  0  0  0  0  0  0  0  0
   14.3593   -1.7140   24.2799 C   0  0  0  0  0  0  0  0  0  0  0  0
   13.7480   -0.4618   24.9008 C   0  0  0  0  0  0  0  0  0  0  0  0
   14.0092   -1.8346   22.8000 C   0  0  0  0  0  0  0  0  0  0  0  0
   12.2389   -0.4005   24.6756 C   0  0  0  0  0  0  0  0  0  0  0  0
   12.5006   -1.7754   22.5712 C   0  0  0  0  0  0  0  0  0  0  0  0
   11.8832   -0.5125   23.1869 C   0  0  0  0  0  0  0  0  0  0  0  0
   10.3682   -0.5026   22.9921 C   0  0  0  0  0  0  0  0  0  0  0  0
    7.6418    0.2842   17.8968 N   0  0  0  0  0  0  0  0  0  0  0  0
    4.5120    1.5673   19.3721 N   0  0  0  0  0  0  0  0  0  0  0  0
    8.5824   -0.1146   21.4553 N   0  0  0  0  0  0  0  0  0  0  0  0
   10.7930    0.2171   20.7332 O   0  0  0  0  0  0  0  0  0  0  0  0
    9.5568   -0.5059   18.8894 F   0  0  0  0  0  0  0  0  0  0  0  0
  1  3  2  0
  1  4  1  0
  2  3  1  0
  2 14  2  0
  3 15  1  0
  4  5  2  0
  4 16  1  0
  5 14  1  0
  5 18  1  0
  6 13  1  0
  6 16  1  0
  6 17  2  0
  7  8  1  0
  7  9  1  0
  8 10  1  0
  9 11  1  0
 10 12  1  0
 11 12  1  0
 12 13  1  0
M  END
