SID-ELM-2583a2cd-4
     RDKit          3D

 19 21  0  0  0  0  0  0  0  0999 V2000
    5.4391    1.3096   21.1534 C   0  0  0  0  0  0  0  0  0  0  0  0
    4.3105    1.7496   20.4276 C   0  0  0  0  0  0  0  0  0  0  0  0
    6.3194    0.8825   20.1880 C   0  0  0  0  0  0  0  0  0  0  0  0
    8.0985    0.0540   18.8746 C   0  0  0  0  0  0  0  0  0  0  0  0
    6.2396    0.7837   17.7575 C   0  0  0  0  0  0  0  0  0  0  0  0
    7.6155    0.3265   20.1025 C   0  0  0  0  0  0  0  0  0  0  0  0
    9.7139    0.1283   21.3064 C   0  0  0  0  0  0  0  0  0  0  0  0
   14.3053   -1.1566   23.8347 C   0  0  0  0  0  0  0  0  0  0  0  0
   13.6758    0.1063   24.4144 C   0  0  0  0  0  0  0  0  0  0  0  0
   13.8810   -1.3810   22.3867 C   0  0  0  0  0  0  0  0  0  0  0  0
   12.1555    0.0944   24.2719 C   0  0  0  0  0  0  0  0  0  0  0  0
   12.3610   -1.3952   22.2406 C   0  0  0  0  0  0  0  0  0  0  0  0
   11.7247   -0.1223   22.8149 C   0  0  0  0  0  0  0  0  0  0  0  0
   10.2023   -0.1837   22.7060 C   0  0  0  0  0  0  0  0  0  0  0  0
    4.4562    1.6155   19.1045 N   0  0  0  0  0  0  0  0  0  0  0  0
    7.4321    0.2724   17.6817 N   0  0  0  0  0  0  0  0  0  0  0  0
    5.6852    1.0868   18.9910 N   0  0  0  0  0  0  0  0  0  0  0  0
    8.3267    0.0858   21.2411 N   0  0  0  0  0  0  0  0  0  0  0  0
   10.4668    0.3827   20.3696 O   0  0  0  0  0  0  0  0  0  0  0  0
  1  2  1  0
  1  3  2  0
  2 15  2  0
  3  6  1  0
  3 17  1  0
  4  6  2  0
  4 16  1  0
  5 16  2  0
  5 17  1  0
  6 18  1  0
  7 14  1  0
  7 18  1  0
  7 19  2  0
  8  9  1  0
  8 10  1  0
  9 11  1  0
 10 12  1  0
 11 13  1  0
 12 13  1  0
 13 14  1  0
 15 17  1  0
M  END
