SID-ELM-8b394441-7
     RDKit          3D

 20 21  0  0  0  0  0  0  0  0999 V2000
   11.1356    7.4656   24.2960 C   0  0  0  0  0  0  0  0  0  0  0  0
   12.3657    7.0057   24.7662 C   0  0  0  0  0  0  0  0  0  0  0  0
   10.2694    6.5920   23.6385 C   0  0  0  0  0  0  0  0  0  0  0  0
   12.7297    5.6723   24.5788 C   0  0  0  0  0  0  0  0  0  0  0  0
   10.6334    5.2585   23.4511 C   0  0  0  0  0  0  0  0  0  0  0  0
   10.5660   -0.5745   23.9632 C   0  0  0  0  0  0  0  0  0  0  0  0
   10.8949   -2.7490   23.0576 C   0  0  0  0  0  0  0  0  0  0  0  0
   11.8635    4.7987   23.9212 C   0  0  0  0  0  0  0  0  0  0  0  0
   10.1327   -1.8892   23.8319 C   0  0  0  0  0  0  0  0  0  0  0  0
   11.7318   -0.1657   23.3252 C   0  0  0  0  0  0  0  0  0  0  0  0
   12.4225   -1.1027   22.5738 C   0  0  0  0  0  0  0  0  0  0  0  0
   11.3929    2.3239   23.6516 C   0  0  0  0  0  0  0  0  0  0  0  0
    8.1686   -1.4232   25.2761 C   0  0  0  0  0  0  0  0  0  0  0  0
    8.5083   -3.7038   24.3105 C   0  0  0  0  0  0  0  0  0  0  0  0
   12.0327   -2.3884   22.4229 N   0  0  0  0  0  0  0  0  0  0  0  0
   12.2278    3.4649   23.7340 N   0  0  0  0  0  0  0  0  0  0  0  0
   12.1725    1.1722   23.4583 N   0  0  0  0  0  0  0  0  0  0  0  0
    8.9601   -2.3320   24.4653 N   0  0  0  0  0  0  0  0  0  0  0  0
   10.1692    2.3461   23.7374 O   0  0  0  0  0  0  0  0  0  0  0  0
   13.8788   -0.7247   21.7371 Cl  0  0  0  0  0  0  0  0  0  0  0  0
  1  2  2  0
  1  3  1  0
  2  4  1  0
  3  5  2  0
  4  8  2  0
  5  8  1  0
  6  9  2  0
  6 10  1  0
  7  9  1  0
  7 15  2  0
  8 16  1  0
  9 18  1  0
 10 11  2  0
 10 17  1  0
 11 15  1  0
 11 20  1  0
 12 16  1  0
 12 17  1  0
 12 19  2  0
 13 18  1  0
 14 18  1  0
M  END
