SID-ELM-2583a2cd-7
     RDKit          3D

 19 20  0  0  0  0  0  0  0  0999 V2000
   14.5621   -1.2532   23.5859 C   0  0  0  0  0  0  0  0  0  0  0  0
   13.6989   -0.6533   24.5027 C   0  0  0  0  0  0  0  0  0  0  0  0
   14.1574   -1.4363   22.2636 C   0  0  0  0  0  0  0  0  0  0  0  0
   12.4310   -0.2365   24.0974 C   0  0  0  0  0  0  0  0  0  0  0  0
   12.8895   -1.0196   21.8582 C   0  0  0  0  0  0  0  0  0  0  0  0
    6.6899    1.1176   20.2450 C   0  0  0  0  0  0  0  0  0  0  0  0
    8.2564    0.0815   18.7859 C   0  0  0  0  0  0  0  0  0  0  0  0
    6.2096    0.7086   17.9519 C   0  0  0  0  0  0  0  0  0  0  0  0
   12.0263   -0.4197   22.7751 C   0  0  0  0  0  0  0  0  0  0  0  0
    7.9433    0.5473   20.0527 C   0  0  0  0  0  0  0  0  0  0  0  0
    5.8005    1.2036   19.1797 C   0  0  0  0  0  0  0  0  0  0  0  0
   10.1644   -0.0970   21.0874 C   0  0  0  0  0  0  0  0  0  0  0  0
    4.1087    2.2901   20.6348 C   0  0  0  0  0  0  0  0  0  0  0  0
    3.6108    1.8721   18.2212 C   0  0  0  0  0  0  0  0  0  0  0  0
    7.4189    0.1477   17.7268 N   0  0  0  0  0  0  0  0  0  0  0  0
   10.7580   -0.0026   22.3698 N   0  0  0  0  0  0  0  0  0  0  0  0
    8.8700    0.4462   21.1171 N   0  0  0  0  0  0  0  0  0  0  0  0
    4.5276    1.7743   19.3435 N   0  0  0  0  0  0  0  0  0  0  0  0
   10.7073   -0.5832   20.1005 O   0  0  0  0  0  0  0  0  0  0  0  0
  1  2  2  0
  1  3  1  0
  2  4  1  0
  3  5  2  0
  4  9  2  0
  5  9  1  0
  6 10  2  0
  6 11  1  0
  7 10  1  0
  7 15  2  0
  8 11  2  0
  8 15  1  0
  9 16  1  0
 10 17  1  0
 11 18  1  0
 12 16  1  0
 12 17  1  0
 12 19  2  0
 13 18  1  0
 14 18  1  0
M  END
