SID-ELM-8b394441-10
     RDKit          3D

 20 22  0  0  0  0  0  0  0  0999 V2000
   13.5262   -0.3496   23.2228 C   0  0  0  0  0  0  0  0  0  0  0  0
   12.8060   -1.5287   23.4140 C   0  0  0  0  0  0  0  0  0  0  0  0
   12.8582    0.8305   22.8959 C   0  0  0  0  0  0  0  0  0  0  0  0
   11.4178   -1.5278   23.2782 C   0  0  0  0  0  0  0  0  0  0  0  0
   11.4700    0.8314   22.7601 C   0  0  0  0  0  0  0  0  0  0  0  0
    6.7125    0.1533   19.0590 C   0  0  0  0  0  0  0  0  0  0  0  0
    3.8181    1.8720   20.3253 C   0  0  0  0  0  0  0  0  0  0  0  0
    6.0499    0.4242   17.8836 C   0  0  0  0  0  0  0  0  0  0  0  0
    5.9320    0.6776   20.1269 C   0  0  0  0  0  0  0  0  0  0  0  0
    4.7996    1.2609   19.5560 C   0  0  0  0  0  0  0  0  0  0  0  0
   10.7497   -0.3477   22.9512 C   0  0  0  0  0  0  0  0  0  0  0  0
    6.0760    0.7141   21.5210 C   0  0  0  0  0  0  0  0  0  0  0  0
    5.0565    1.3407   22.2256 C   0  0  0  0  0  0  0  0  0  0  0  0
    8.5545    0.4700   21.9863 C   0  0  0  0  0  0  0  0  0  0  0  0
    3.9597    1.9056   21.6707 N   0  0  0  0  0  0  0  0  0  0  0  0
    4.8961    1.0933   18.1944 N   0  0  0  0  0  0  0  0  0  0  0  0
    9.3415   -0.3470   22.8137 N   0  0  0  0  0  0  0  0  0  0  0  0
    7.1852    0.1473   22.1497 N   0  0  0  0  0  0  0  0  0  0  0  0
    8.9825    1.3370   21.2312 O   0  0  0  0  0  0  0  0  0  0  0  0
    5.0831    1.4694   23.9450 Cl  0  0  0  0  0  0  0  0  0  0  0  0
  1  2  2  0
  1  3  1  0
  2  4  1  0
  3  5  2  0
  4 11  2  0
  5 11  1  0
  6  8  2  0
  6  9  1  0
  7 10  1  0
  7 15  2  0
  8 16  1  0
  9 10  2  0
  9 12  1  0
 10 16  1  0
 11 17  1  0
 12 13  2  0
 12 18  1  0
 13 15  1  0
 13 20  1  0
 14 17  1  0
 14 18  1  0
 14 19  2  0
M  END
