SID-ELM-1f105489-15
     RDKit          3D

 20 22  0  0  0  0  0  0  0  0999 V2000
    8.7758    0.2803   18.6345 C   0  0  0  0  0  0  0  0  0  0  0  0
    6.5981   -0.1273   17.9752 C   0  0  0  0  0  0  0  0  0  0  0  0
    8.3438    0.2063   19.9579 C   0  0  0  0  0  0  0  0  0  0  0  0
    8.9376    0.3228   21.2407 C   0  0  0  0  0  0  0  0  0  0  0  0
    6.9917   -0.0437   20.1585 C   0  0  0  0  0  0  0  0  0  0  0  0
    7.9417    0.1415   22.1767 C   0  0  0  0  0  0  0  0  0  0  0  0
   10.8875    0.6921   22.7937 C   0  0  0  0  0  0  0  0  0  0  0  0
   12.5725   -0.2400   24.3581 C   0  0  0  0  0  0  0  0  0  0  0  0
   12.3145   -1.3450   22.1549 C   0  0  0  0  0  0  0  0  0  0  0  0
   14.0853   -0.3145   24.2328 C   0  0  0  0  0  0  0  0  0  0  0  0
   13.8302   -1.4444   22.0282 C   0  0  0  0  0  0  0  0  0  0  0  0
   14.3572   -2.8225   24.0758 C   0  0  0  0  0  0  0  0  0  0  0  0
    7.8840    0.1099   17.6312 N   0  0  0  0  0  0  0  0  0  0  0  0
    6.0583   -0.2216   19.2074 N   0  0  0  0  0  0  0  0  0  0  0  0
    6.7646   -0.0794   21.5087 N   0  0  0  0  0  0  0  0  0  0  0  0
   11.9090   -0.2511   23.0514 N   0  0  0  0  0  0  0  0  0  0  0  0
   10.3007    0.5771   21.5333 N   0  0  0  0  0  0  0  0  0  0  0  0
   14.4866   -1.4939   23.3832 N   0  0  0  0  0  0  0  0  0  0  0  0
   10.5414    1.5220   23.6383 O   0  0  0  0  0  0  0  0  0  0  0  0
    7.9218    0.1446   23.8718 Cl  0  0  0  0  0  0  0  0  0  0  0  0
  1  3  2  0
  1 13  1  0
  2 13  2  0
  2 14  1  0
  3  4  1  0
  3  5  1  0
  4  6  2  0
  4 17  1  0
  5 14  2  0
  5 15  1  0
  6 15  1  0
  6 20  1  0
  7 16  1  0
  7 17  1  0
  7 19  2  0
  8 10  1  0
  8 16  1  0
  9 11  1  0
  9 16  1  0
 10 18  1  0
 11 18  1  0
 12 18  1  0
M  CHG  1  18   1
M  END
