SID-ELM-1f105489-4
     RDKit          3D

 20 22  0  0  0  0  0  0  0  0999 V2000
    8.9482   -0.1375   18.5565 C   0  0  0  0  0  0  0  0  0  0  0  0
    6.6695   -0.2996   18.2041 C   0  0  0  0  0  0  0  0  0  0  0  0
    8.7088   -0.3346   19.9157 C   0  0  0  0  0  0  0  0  0  0  0  0
    9.4915   -0.4154   21.0958 C   0  0  0  0  0  0  0  0  0  0  0  0
    7.3832   -0.5043   20.2963 C   0  0  0  0  0  0  0  0  0  0  0  0
    8.6303   -0.6306   22.1508 C   0  0  0  0  0  0  0  0  0  0  0  0
   11.4243    0.3088   22.4983 C   0  0  0  0  0  0  0  0  0  0  0  0
   13.1877    0.4786   24.2254 C   0  0  0  0  0  0  0  0  0  0  0  0
   13.6339   -0.9257   22.2500 C   0  0  0  0  0  0  0  0  0  0  0  0
   13.6486   -0.6390   25.1496 C   0  0  0  0  0  0  0  0  0  0  0  0
   14.1037   -2.0645   23.1451 C   0  0  0  0  0  0  0  0  0  0  0  0
   15.2380   -2.5579   25.3143 C   0  0  0  0  0  0  0  0  0  0  0  0
   10.9834   -0.2919   21.1874 C   0  0  0  0  0  0  0  0  0  0  0  0
    7.9078   -0.1208   17.6915 N   0  0  0  0  0  0  0  0  0  0  0  0
    6.3087   -0.4980   19.4883 N   0  0  0  0  0  0  0  0  0  0  0  0
    7.3531   -0.6820   21.6541 N   0  0  0  0  0  0  0  0  0  0  0  0
   12.6875   -0.0584   22.9598 N   0  0  0  0  0  0  0  0  0  0  0  0
   14.6681   -1.4890   24.4247 N   0  0  0  0  0  0  0  0  0  0  0  0
   10.6665    1.0790   23.0938 O   0  0  0  0  0  0  0  0  0  0  0  0
    8.9707   -0.7662   23.4338 F   0  0  0  0  0  0  0  0  0  0  0  0
  1  3  2  0
  1 14  1  0
  2 14  2  0
  2 15  1  0
  3  4  1  0
  3  5  1  0
  4  6  2  0
  4 13  1  0
  5 15  2  0
  5 16  1  0
  6 16  1  0
  6 20  1  0
  7 13  1  0
  7 17  1  0
  7 19  2  0
  8 10  1  0
  8 17  1  0
  9 11  1  0
  9 17  1  0
 10 18  1  0
 11 18  1  0
 12 18  1  0
M  CHG  1  18   1
M  END
