SID-ELM-b654bfa2-16
     RDKit          3D

 21 23  0  0  0  0  0  0  0  0999 V2000
    8.4206   -0.1292   18.7391 C   0  0  0  0  0  0  0  0  0  0  0  0
    6.0044    1.1405   21.1124 C   0  0  0  0  0  0  0  0  0  0  0  0
    6.7151    0.8458   17.6102 C   0  0  0  0  0  0  0  0  0  0  0  0
    7.8222    0.1675   19.9606 C   0  0  0  0  0  0  0  0  0  0  0  0
    6.5992    0.8455   19.8964 C   0  0  0  0  0  0  0  0  0  0  0  0
    8.3840   -0.1776   21.1966 C   0  0  0  0  0  0  0  0  0  0  0  0
    7.6907    0.1737   22.3400 C   0  0  0  0  0  0  0  0  0  0  0  0
   10.0148   -1.7393   22.3117 C   0  0  0  0  0  0  0  0  0  0  0  0
   14.5245   -1.5005   24.0575 C   0  0  0  0  0  0  0  0  0  0  0  0
   13.1297   -1.0005   24.4199 C   0  0  0  0  0  0  0  0  0  0  0  0
   14.5100   -2.3634   22.7995 C   0  0  0  0  0  0  0  0  0  0  0  0
   12.4674   -0.2773   23.2484 C   0  0  0  0  0  0  0  0  0  0  0  0
   13.8485   -1.6405   21.6274 C   0  0  0  0  0  0  0  0  0  0  0  0
   12.4449   -1.1130   21.9601 C   0  0  0  0  0  0  0  0  0  0  0  0
   11.4192   -2.2470   22.0399 C   0  0  0  0  0  0  0  0  0  0  0  0
    7.8902    0.1973   17.5447 N   0  0  0  0  0  0  0  0  0  0  0  0
    6.5106    0.8264   22.3294 N   0  0  0  0  0  0  0  0  0  0  0  0
    6.0363    1.1895   18.7234 N   0  0  0  0  0  0  0  0  0  0  0  0
    9.6182   -0.8612   21.3071 N   0  0  0  0  0  0  0  0  0  0  0  0
    9.3691   -2.0889   23.2942 O   0  0  0  0  0  0  0  0  0  0  0  0
    8.2028   -0.1416   23.5410 F   0  0  0  0  0  0  0  0  0  0  0  0
  1  4  2  0
  1 16  1  0
  2  5  1  0
  2 17  2  0
  3 16  2  0
  3 18  1  0
  4  5  1  0
  4  6  1  0
  5 18  2  0
  6  7  2  0
  6 19  1  0
  7 17  1  0
  7 21  1  0
  8 15  1  0
  8 19  1  0
  8 20  2  0
  9 10  1  0
  9 11  1  0
 10 12  1  0
 11 13  1  0
 12 14  1  0
 13 14  1  0
 14 15  1  0
M  END
