SID-ELM-1f105489-1
     RDKit          3D

 19 21  0  0  0  0  0  0  0  0999 V2000
    8.2450   -2.0712   21.8838 C   0  0  0  0  0  0  0  0  0  0  0  0
    7.7747   -5.3280   23.4441 C   0  0  0  0  0  0  0  0  0  0  0  0
    6.1926   -2.1411   20.8229 C   0  0  0  0  0  0  0  0  0  0  0  0
    7.9588   -3.3227   22.4272 C   0  0  0  0  0  0  0  0  0  0  0  0
    8.6103   -4.2424   23.2884 C   0  0  0  0  0  0  0  0  0  0  0  0
    6.7352   -3.8852   22.0848 C   0  0  0  0  0  0  0  0  0  0  0  0
   10.0311   -2.8408   24.7864 C   0  0  0  0  0  0  0  0  0  0  0  0
   11.6462   -1.1852   25.6618 C   0  0  0  0  0  0  0  0  0  0  0  0
   12.2112   -3.5796   25.8660 C   0  0  0  0  0  0  0  0  0  0  0  0
   13.0368   -0.8836   25.1226 C   0  0  0  0  0  0  0  0  0  0  0  0
   13.6115   -3.3100   25.3317 C   0  0  0  0  0  0  0  0  0  0  0  0
   14.4399   -1.6739   27.0699 C   0  0  0  0  0  0  0  0  0  0  0  0
    9.9594   -4.0740   23.9215 C   0  0  0  0  0  0  0  0  0  0  0  0
    7.3436   -1.4757   21.0692 N   0  0  0  0  0  0  0  0  0  0  0  0
    5.7999   -3.3462   21.2835 N   0  0  0  0  0  0  0  0  0  0  0  0
    6.6391   -5.1001   22.7098 N   0  0  0  0  0  0  0  0  0  0  0  0
   11.2598   -2.5699   25.3883 N   0  0  0  0  0  0  0  0  0  0  0  0
   14.0366   -1.8927   25.6374 N   0  0  0  0  0  0  0  0  0  0  0  0
    9.0251   -2.1392   24.9196 O   0  0  0  0  0  0  0  0  0  0  0  0
  1  4  2  0
  1 14  1  0
  2  5  2  0
  2 16  1  0
  3 14  2  0
  3 15  1  0
  4  5  1  0
  4  6  1  0
  5 13  1  0
  6 15  2  0
  6 16  1  0
  7 13  1  0
  7 17  1  0
  7 19  2  0
  8 10  1  0
  8 17  1  0
  9 11  1  0
  9 17  1  0
 10 18  1  0
 11 18  1  0
 12 18  1  0
M  CHG  1  18   1
M  END
