SID-ELM-2583a2cd-1
     RDKit          3D

 19 21  0  0  0  0  0  0  0  0999 V2000
    5.3988    1.2510   20.9150 C   0  0  0  0  0  0  0  0  0  0  0  0
    6.6670    0.7307   17.5900 C   0  0  0  0  0  0  0  0  0  0  0  0
    8.4516    0.1860   18.9849 C   0  0  0  0  0  0  0  0  0  0  0  0
    4.2928    1.5924   20.1705 C   0  0  0  0  0  0  0  0  0  0  0  0
    6.4330    0.8824   20.0100 C   0  0  0  0  0  0  0  0  0  0  0  0
    5.9130    1.0139   18.7213 C   0  0  0  0  0  0  0  0  0  0  0  0
    7.7584    0.4502   20.1587 C   0  0  0  0  0  0  0  0  0  0  0  0
    9.6707   -0.1298   21.6913 C   0  0  0  0  0  0  0  0  0  0  0  0
   14.0156   -1.5954   22.7648 C   0  0  0  0  0  0  0  0  0  0  0  0
   12.9713   -2.5507   23.3340 C   0  0  0  0  0  0  0  0  0  0  0  0
   13.7952   -0.1672   23.2536 C   0  0  0  0  0  0  0  0  0  0  0  0
   11.5511   -2.0718   23.0417 C   0  0  0  0  0  0  0  0  0  0  0  0
   12.3763    0.3156   22.9615 C   0  0  0  0  0  0  0  0  0  0  0  0
   11.3227   -0.6384   23.5401 C   0  0  0  0  0  0  0  0  0  0  0  0
    9.9140   -0.1633   23.1892 C   0  0  0  0  0  0  0  0  0  0  0  0
    7.9462    0.3139   17.7365 N   0  0  0  0  0  0  0  0  0  0  0  0
    4.6134    1.4458   18.8472 N   0  0  0  0  0  0  0  0  0  0  0  0
    8.3702    0.2887   21.4246 N   0  0  0  0  0  0  0  0  0  0  0  0
   10.5361   -0.4385   20.8787 O   0  0  0  0  0  0  0  0  0  0  0  0
  1  4  2  0
  1  5  1  0
  2  6  1  0
  2 16  2  0
  3  7  2  0
  3 16  1  0
  4 17  1  0
  5  6  2  0
  5  7  1  0
  6 17  1  0
  7 18  1  0
  8 15  1  0
  8 18  1  0
  8 19  2  0
  9 10  1  0
  9 11  1  0
 10 12  1  0
 11 13  1  0
 12 14  1  0
 13 14  1  0
 14 15  1  0
M  END
