SIM-SYN-f15aaa3a-1
     RDKit          3D

 23 25  0  0  0  0  0  0  0  0999 V2000
    8.5396   -4.7877   26.3010 C   0  0  0  0  0  0  0  0  0  0  0  0
   12.5446    0.5391   23.6875 C   0  0  0  0  0  0  0  0  0  0  0  0
    9.6954   -5.0885   25.5805 C   0  0  0  0  0  0  0  0  0  0  0  0
    7.7194   -3.7347   25.8959 C   0  0  0  0  0  0  0  0  0  0  0  0
   12.6025   -0.1743   22.4903 C   0  0  0  0  0  0  0  0  0  0  0  0
   11.5261    0.2807   24.6049 C   0  0  0  0  0  0  0  0  0  0  0  0
   10.0311   -4.3362   24.4548 C   0  0  0  0  0  0  0  0  0  0  0  0
    8.0550   -2.9824   24.7702 C   0  0  0  0  0  0  0  0  0  0  0  0
   11.6418   -1.1461   22.2104 C   0  0  0  0  0  0  0  0  0  0  0  0
   10.5654   -0.6910   24.3250 C   0  0  0  0  0  0  0  0  0  0  0  0
    9.2109   -3.2832   24.0497 C   0  0  0  0  0  0  0  0  0  0  0  0
   10.6232   -1.4045   23.1278 C   0  0  0  0  0  0  0  0  0  0  0  0
    6.3584   -1.0197   18.5509 C   0  0  0  0  0  0  0  0  0  0  0  0
    6.4431   -2.3468   20.6372 C   0  0  0  0  0  0  0  0  0  0  0  0
    7.4890   -0.1154   20.6418 C   0  0  0  0  0  0  0  0  0  0  0  0
    7.6895   -2.9550   21.2634 C   0  0  0  0  0  0  0  0  0  0  0  0
    8.7513   -0.6901   21.2703 C   0  0  0  0  0  0  0  0  0  0  0  0
    6.7411    0.2528   17.8380 C   0  0  0  0  0  0  0  0  0  0  0  0
    9.5762   -2.4629   22.8234 C   0  0  0  0  0  0  0  0  0  0  0  0
    6.7717   -1.1410   19.8768 N   0  0  0  0  0  0  0  0  0  0  0  0
    8.3858   -1.9026   22.0970 N   0  0  0  0  0  0  0  0  0  0  0  0
    5.7140   -1.8797   17.9450 O   0  0  0  0  0  0  0  0  0  0  0  0
    8.3215   -0.0296   17.1167 Cl  0  0  0  0  0  0  0  0  0  0  0  0
  1  3  2  0
  1  4  1  0
  2  5  2  0
  2  6  1  0
  3  7  1  0
  4  8  2  0
  5  9  1  0
  6 10  2  0
  7 11  2  0
  8 11  1  0
  9 12  2  0
 10 12  1  0
 11 19  1  0
 12 19  1  0
 13 18  1  0
 13 20  1  0
 13 22  2  0
 14 16  1  0
 14 20  1  0
 15 17  1  0
 15 20  1  0
 16 21  1  0
 17 21  1  0
 18 23  1  0
 19 21  1  0
M  CHG  1  21   1
M  END
