SIM-DEM-5935bd74-5
     RDKit          3D

 21 22  0  0  1  0  0  0  0  0999 V2000
   10.2639   -0.8701   24.8950 C   0  0  0  0  0  0  0  0  0  0  0  0
   11.2446   -0.0407   24.5042 C   0  0  0  0  0  0  0  0  0  0  0  0
   10.2793   -2.1066   22.8014 C   0  0  0  0  0  0  0  0  0  0  0  0
    9.6798   -1.8056   23.9641 C   0  0  0  0  0  0  0  0  0  0  0  0
   14.1097   -1.8048   22.5918 C   0  0  0  0  0  0  0  0  0  0  0  0
   12.7329   -2.4240   22.7839 C   0  0  0  0  0  0  0  0  0  0  0  0
   14.2353   -0.4874   23.3359 C   0  0  0  0  0  0  0  0  0  0  0  0
   11.5940   -1.4571   22.4138 C   0  0  0  0  0  0  0  0  0  0  0  0
   11.7426   -0.0554   23.0763 C   0  0  0  0  0  0  0  0  0  0  0  0
   10.3746    5.3287   23.0411 C   0  0  0  0  0  0  0  0  0  0  0  0
   12.6362    2.8268   22.4145 C   0  0  0  0  0  0  0  0  0  0  0  0
   13.3921    1.8633   23.3098 C   0  0  0  0  0  0  0  0  0  0  0  0
    7.3735   -1.5604   25.3800 N   0  0  0  0  0  0  0  0  0  0  0  0
   12.8088    4.2159   22.8952 N   0  0  0  0  0  0  0  0  0  0  0  0
   13.1647    0.4497   22.8423 N   0  0  0  0  0  0  0  0  0  0  0  0
    7.4398   -2.7882   23.1343 O   0  0  0  0  0  0  0  0  0  0  0  0
    8.5616   -3.8175   25.1355 O   0  0  0  0  0  0  0  0  0  0  0  0
   12.2939    6.0119   24.6842 O   0  0  0  0  0  0  0  0  0  0  0  0
   11.2733    3.7152   24.8835 O   0  0  0  0  0  0  0  0  0  0  0  0
    8.2274   -2.6386   24.3496 S   0  0  0  0  0  0  0  0  0  0  0  0
   11.7342    4.8239   24.0700 S   0  0  0  0  0  0  0  0  0  0  0  0
  1  2  2  0
  1  4  1  0
  2  9  1  0
  3  4  2  0
  3  8  1  0
  4 20  1  0
  5  6  1  0
  5  7  1  0
  6  8  1  0
  7 15  1  0
  8  9  1  0
  9 15  1  0
 10 21  1  0
 11 12  1  0
 11 14  1  0
 12 15  1  0
 13 20  1  0
 14 21  1  0
 16 20  2  0
 17 20  2  0
 18 21  2  0
 19 21  2  0
M  CHG  1  15   1
M  END
