SIM-SYN-f15aaa3a-2
     RDKit          3D

 24 26  0  0  1  0  0  0  0  0999 V2000
    9.5001   -4.8792   25.9766 C   0  0  0  0  0  0  0  0  0  0  0  0
    8.4917   -4.3284   26.7674 C   0  0  0  0  0  0  0  0  0  0  0  0
    9.8495   -4.2731   24.7698 C   0  0  0  0  0  0  0  0  0  0  0  0
   11.9428   -1.4413   22.6444 C   0  0  0  0  0  0  0  0  0  0  0  0
   12.7093   -0.3070   23.0392 C   0  0  0  0  0  0  0  0  0  0  0  0
    8.1820   -2.5655   25.1447 C   0  0  0  0  0  0  0  0  0  0  0  0
    7.8327   -3.1716   26.3515 C   0  0  0  0  0  0  0  0  0  0  0  0
    9.1904   -3.1163   24.3539 C   0  0  0  0  0  0  0  0  0  0  0  0
   10.6847   -1.4364   23.2054 C   0  0  0  0  0  0  0  0  0  0  0  0
   12.0077    0.5219   23.8869 C   0  0  0  0  0  0  0  0  0  0  0  0
    5.9438   -1.8473   18.8954 C   0  0  0  0  0  0  0  0  0  0  0  0
    6.1631   -2.3314   21.3118 C   0  0  0  0  0  0  0  0  0  0  0  0
    7.6050   -0.5814   20.3466 C   0  0  0  0  0  0  0  0  0  0  0  0
    7.3630   -2.9734   21.9927 C   0  0  0  0  0  0  0  0  0  0  0  0
    8.8272   -1.1964   21.0150 C   0  0  0  0  0  0  0  0  0  0  0  0
    6.7556   -2.5824   27.1984 C   0  0  0  0  0  0  0  0  0  0  0  0
    5.8619   -0.6946   17.9267 C   0  0  0  0  0  0  0  0  0  0  0  0
    9.5707   -2.4564   23.0386 C   0  0  0  0  0  0  0  0  0  0  0  0
    6.5697   -1.5944   20.1152 N   0  0  0  0  0  0  0  0  0  0  0  0
    8.3964   -1.9068   22.2787 N   0  0  0  0  0  0  0  0  0  0  0  0
    5.4675   -2.9393   18.5749 O   0  0  0  0  0  0  0  0  0  0  0  0
   10.4317   -0.0682   24.2036 S   0  0  0  0  0  0  0  0  0  0  0  0
   12.5379    1.9870   24.6005 Cl  0  0  0  0  0  0  0  0  0  0  0  0
    4.9215    0.5641   18.7198 Cl  0  0  0  0  0  0  0  0  0  0  0  0
  1  2  2  0
  1  3  1  0
  2  7  1  0
  3  8  2  0
  4  5  1  0
  4  9  2  0
  5 10  2  0
  6  7  2  0
  6  8  1  0
  7 16  1  0
  8 18  1  0
  9 18  1  0
  9 22  1  0
 10 22  1  0
 10 23  1  0
 11 17  1  0
 11 19  1  0
 11 21  2  0
 12 14  1  0
 12 19  1  0
 13 15  1  0
 13 19  1  0
 14 20  1  0
 15 20  1  0
 17 24  1  0
 18 20  1  0
M  CHG  1  20   1
M  END
