SIM-SYN-7db9eb24-2
     RDKit          3D

 26 28  0  0  0  0  0  0  0  0999 V2000
    7.3688    8.0437   24.4507 C   0  0  0  0  0  0  0  0  0  0  0  0
    8.2969    8.3445   25.4475 C   0  0  0  0  0  0  0  0  0  0  0  0
    7.7228    7.1958   23.4011 C   0  0  0  0  0  0  0  0  0  0  0  0
    9.5790    7.7976   25.3949 C   0  0  0  0  0  0  0  0  0  0  0  0
    9.0049    6.6489   23.3484 C   0  0  0  0  0  0  0  0  0  0  0  0
    9.9985   -2.4668   23.8003 C   0  0  0  0  0  0  0  0  0  0  0  0
    9.9330    6.9498   24.3453 C   0  0  0  0  0  0  0  0  0  0  0  0
   10.0281   -1.1977   23.1969 C   0  0  0  0  0  0  0  0  0  0  0  0
    9.1051   -2.3181   24.8278 C   0  0  0  0  0  0  0  0  0  0  0  0
   11.2985    6.3673   24.2892 C   0  0  0  0  0  0  0  0  0  0  0  0
   12.6924    0.3359   23.3396 C   0  0  0  0  0  0  0  0  0  0  0  0
   12.8967    3.5201   24.7034 C   0  0  0  0  0  0  0  0  0  0  0  0
   12.7406    3.6685   22.1915 C   0  0  0  0  0  0  0  0  0  0  0  0
   11.9712    2.3063   24.6551 C   0  0  0  0  0  0  0  0  0  0  0  0
   11.8346    2.4322   22.1926 C   0  0  0  0  0  0  0  0  0  0  0  0
   12.6680    4.4528   23.5073 C   0  0  0  0  0  0  0  0  0  0  0  0
    8.5894   -3.2202   25.8648 C   0  0  0  0  0  0  0  0  0  0  0  0
   13.1688   -1.5513   21.8267 C   0  0  0  0  0  0  0  0  0  0  0  0
   10.8390   -0.7614   22.0110 C   0  0  0  0  0  0  0  0  0  0  0  0
    9.2152   -0.3283   23.8037 N   0  0  0  0  0  0  0  0  0  0  0  0
   12.0916    1.6024   23.3778 N   0  0  0  0  0  0  0  0  0  0  0  0
   11.4112    5.1567   23.6254 N   0  0  0  0  0  0  0  0  0  0  0  0
   12.2449   -0.5575   22.3548 N   0  0  0  0  0  0  0  0  0  0  0  0
   12.2262    6.9593   24.8348 O   0  0  0  0  0  0  0  0  0  0  0  0
   13.5755    0.0158   24.1458 O   0  0  0  0  0  0  0  0  0  0  0  0
    8.6307   -1.0461   24.8403 O   0  0  0  0  0  0  0  0  0  0  0  0
  1  2  2  0
  1  3  1  0
  2  4  1  0
  3  5  2  0
  4  7  2  0
  5  7  1  0
  6  8  1  0
  6  9  2  0
  7 10  1  0
  8 19  1  0
  8 20  2  0
  9 17  1  0
  9 26  1  0
 10 22  1  0
 10 24  2  0
 11 21  1  0
 11 23  1  0
 11 25  2  0
 12 14  1  0
 12 16  1  0
 13 15  1  0
 13 16  1  0
 14 21  1  0
 15 21  1  0
 16 22  1  0
 18 23  1  0
 19 23  1  0
 20 26  1  0
M  END
