SIM-SYN-3099a863-1
     RDKit          3D

 28 30  0  0  0  0  0  0  0  0999 V2000
    6.0603   -1.2562   26.3871 C   0  0  0  0  0  0  0  0  0  0  0  0
    8.2573   -2.2441   26.5716 C   0  0  0  0  0  0  0  0  0  0  0  0
    5.4987   -2.5273   26.2677 C   0  0  0  0  0  0  0  0  0  0  0  0
    7.6957   -3.5153   26.4523 C   0  0  0  0  0  0  0  0  0  0  0  0
    5.8816    0.1937   19.9629 C   0  0  0  0  0  0  0  0  0  0  0  0
    7.4397   -1.1145   26.5390 C   0  0  0  0  0  0  0  0  0  0  0  0
    6.3164   -3.6569   26.3003 C   0  0  0  0  0  0  0  0  0  0  0  0
    6.4984   -0.2987   18.7998 C   0  0  0  0  0  0  0  0  0  0  0  0
    5.1035    1.2248   19.5073 C   0  0  0  0  0  0  0  0  0  0  0  0
    6.6734   -3.3928   20.0418 C   0  0  0  0  0  0  0  0  0  0  0  0
    4.7337   -4.9167   22.2258 C   0  0  0  0  0  0  0  0  0  0  0  0
    6.8861   -6.2117   22.4454 C   0  0  0  0  0  0  0  0  0  0  0  0
    4.8976   -4.4421   23.6685 C   0  0  0  0  0  0  0  0  0  0  0  0
    7.0173   -5.7030   23.8793 C   0  0  0  0  0  0  0  0  0  0  0  0
    6.0717   -5.2607   21.5639 C   0  0  0  0  0  0  0  0  0  0  0  0
    8.0405    0.2445   26.6660 C   0  0  0  0  0  0  0  0  0  0  0  0
    4.1960    2.1776   20.1582 C   0  0  0  0  0  0  0  0  0  0  0  0
    8.4194   -1.8326   20.9339 C   0  0  0  0  0  0  0  0  0  0  0  0
    7.4694   -1.4380   18.6851 C   0  0  0  0  0  0  0  0  0  0  0  0
    6.1309    0.3754   17.7065 N   0  0  0  0  0  0  0  0  0  0  0  0
    5.6604   -5.4590   24.4491 N   0  0  0  0  0  0  0  0  0  0  0  0
    6.8265   -4.0701   21.2476 N   0  0  0  0  0  0  0  0  0  0  0  0
    7.4937   -2.2593   19.8929 N   0  0  0  0  0  0  0  0  0  0  0  0
    5.8825   -3.7713   19.1724 O   0  0  0  0  0  0  0  0  0  0  0  0
    6.5154   -6.2105   26.7621 O   0  0  0  0  0  0  0  0  0  0  0  0
    4.2229   -5.1833   26.5691 O   0  0  0  0  0  0  0  0  0  0  0  0
    5.2437    1.3432   18.1622 O   0  0  0  0  0  0  0  0  0  0  0  0
    5.6056   -5.2657   26.1515 S   0  0  0  0  0  0  0  0  0  0  0  0
  1  3  2  0
  1  6  1  0
  2  4  1  0
  2  6  2  0
  3  7  1  0
  4  7  2  0
  5  8  1  0
  5  9  2  0
  6 16  1  0
  7 28  1  0
  8 19  1  0
  8 20  2  0
  9 17  1  0
  9 27  1  0
 10 22  1  0
 10 23  1  0
 10 24  2  0
 11 13  1  0
 11 15  1  0
 12 14  1  0
 12 15  1  0
 13 21  1  0
 14 21  1  0
 15 22  1  0
 18 23  1  0
 19 23  1  0
 20 27  1  0
 21 28  1  0
 25 28  2  0
 26 28  2  0
M  END
