SIM-SYN-a98e6a07-5
     RDKit          3D

 25 28  0  0  1  0  0  0  0  0999 V2000
   14.5296   -0.8649   23.1213 C   0  0  0  0  0  0  0  0  0  0  0  0
   14.1264   -1.1711   21.8216 C   0  0  0  0  0  0  0  0  0  0  0  0
   13.5749   -0.6333   24.1115 C   0  0  0  0  0  0  0  0  0  0  0  0
    5.7323    1.0123   18.9004 C   0  0  0  0  0  0  0  0  0  0  0  0
   12.7683   -1.2455   21.5121 C   0  0  0  0  0  0  0  0  0  0  0  0
   12.2168   -0.7077   23.8020 C   0  0  0  0  0  0  0  0  0  0  0  0
    6.4008    0.6300   20.0581 C   0  0  0  0  0  0  0  0  0  0  0  0
    6.3844    0.8444   17.6895 C   0  0  0  0  0  0  0  0  0  0  0  0
    8.2476   -0.0283   18.7119 C   0  0  0  0  0  0  0  0  0  0  0  0
   11.8135   -1.0138   22.5022 C   0  0  0  0  0  0  0  0  0  0  0  0
    7.6829    0.0989   19.9707 C   0  0  0  0  0  0  0  0  0  0  0  0
    9.8288   -0.2434   21.2035 C   0  0  0  0  0  0  0  0  0  0  0  0
    7.4832    0.6654   23.1293 C   0  0  0  0  0  0  0  0  0  0  0  0
    4.9870    1.7960   25.7904 C   0  0  0  0  0  0  0  0  0  0  0  0
    6.4383    2.0723   26.0473 C   0  0  0  0  0  0  0  0  0  0  0  0
    8.3151   -1.6525   23.2954 C   0  0  0  0  0  0  0  0  0  0  0  0
    9.6084   -2.1862   22.7124 C   0  0  0  0  0  0  0  0  0  0  0  0
    7.6495   -0.6276   22.3810 C   0  0  0  0  0  0  0  0  0  0  0  0
    5.9448    1.9086   24.6359 C   0  0  0  0  0  0  0  0  0  0  0  0
    7.6293    0.3321   17.5649 N   0  0  0  0  0  0  0  0  0  0  0  0
   10.4132   -1.0907   22.1828 N   0  0  0  0  0  0  0  0  0  0  0  0
    8.4053   -0.3085   21.1590 N   0  0  0  0  0  0  0  0  0  0  0  0
    6.3045    0.7536   23.8450 N   0  0  0  0  0  0  0  0  0  0  0  0
   10.4923    0.4691   20.4446 O   0  0  0  0  0  0  0  0  0  0  0  0
    8.3602    1.5188   23.0632 O   0  0  0  0  0  0  0  0  0  0  0  0
  1  2  2  0
  1  3  1  0
  2  5  1  0
  3  6  2  0
  4  7  2  0
  4  8  1  0
  5 10  2  0
  6 10  1  0
  7 11  1  0
  8 20  2  0
  9 11  2  0
  9 20  1  0
 10 21  1  0
 11 22  1  0
 12 21  1  0
 12 22  1  0
 12 24  2  0
 13 18  1  0
 13 23  1  0
 13 25  2  0
 14 15  1  0
 14 19  1  0
 15 19  1  0
 16 17  1  0
 16 18  1  0
 17 21  1  0
 18 22  1  0
 19 23  1  0
M  END
