SIM-DEM-5935bd74-8
     RDKit          3D

 19 20  0  0  1  0  0  0  0  0999 V2000
    9.5544    1.5229   24.3656 C   0  0  0  0  0  0  0  0  0  0  0  0
   10.4330    2.5337   24.4088 C   0  0  0  0  0  0  0  0  0  0  0  0
   13.1873    0.9712   22.6485 C   0  0  0  0  0  0  0  0  0  0  0  0
   11.2432   -0.1237   23.7562 C   0  0  0  0  0  0  0  0  0  0  0  0
   13.1506    2.1752   22.0782 C   0  0  0  0  0  0  0  0  0  0  0  0
    9.9608    0.1955   23.9834 C   0  0  0  0  0  0  0  0  0  0  0  0
    9.7231    6.3449   23.2894 C   0  0  0  0  0  0  0  0  0  0  0  0
   12.3522    0.8878   23.8813 C   0  0  0  0  0  0  0  0  0  0  0  0
   11.8897    2.3556   24.0747 C   0  0  0  0  0  0  0  0  0  0  0  0
    8.6001    6.4171   22.3087 C   0  0  0  0  0  0  0  0  0  0  0  0
   11.9606    5.3336   23.6811 C   0  0  0  0  0  0  0  0  0  0  0  0
   12.9194    4.4043   22.9610 C   0  0  0  0  0  0  0  0  0  0  0  0
    9.4387   -2.1016   22.6288 N   0  0  0  0  0  0  0  0  0  0  0  0
   10.7441    5.5470   22.8658 N   0  0  0  0  0  0  0  0  0  0  0  0
   12.2769    3.0658   22.7679 N   0  0  0  0  0  0  0  0  0  0  0  0
    9.6494    6.9720   24.3396 O   0  0  0  0  0  0  0  0  0  0  0  0
    8.7682   -1.8146   25.0831 O   0  0  0  0  0  0  0  0  0  0  0  0
    7.5638   -0.4949   23.3138 O   0  0  0  0  0  0  0  0  0  0  0  0
    8.7966   -1.0631   23.8374 S   0  0  0  0  0  0  0  0  0  0  0  0
  1  2  2  0
  1  6  1  0
  2  9  1  0
  3  5  2  0
  3  8  1  0
  4  6  2  0
  4  8  1  0
  5 15  1  0
  6 19  1  0
  7 10  1  0
  7 14  1  0
  7 16  2  0
  8  9  1  0
  9 15  1  0
 11 12  1  0
 11 14  1  0
 12 15  1  0
 13 19  1  0
 17 19  2  0
 18 19  2  0
M  CHG  1  15   1
M  END
