SIM-DEM-5935bd74-7
     RDKit          3D

 20 21  0  0  0  0  0  0  0  0999 V2000
   12.1018    0.5127   23.0222 C   0  0  0  0  0  0  0  0  0  0  0  0
   12.6189    1.8088   22.9413 C   0  0  0  0  0  0  0  0  0  0  0  0
    9.2080    0.8016   25.1641 C   0  0  0  0  0  0  0  0  0  0  0  0
   10.8663    2.6606   24.3904 C   0  0  0  0  0  0  0  0  0  0  0  0
    9.1797   -0.5447   24.8822 C   0  0  0  0  0  0  0  0  0  0  0  0
   10.3268    1.3625   24.4868 C   0  0  0  0  0  0  0  0  0  0  0  0
   10.9557    0.3206   23.8018 C   0  0  0  0  0  0  0  0  0  0  0  0
   12.0124    2.8677   23.6141 C   0  0  0  0  0  0  0  0  0  0  0  0
    7.9501   -0.5936   19.5683 C   0  0  0  0  0  0  0  0  0  0  0  0
   10.5435   -2.1429   23.5454 C   0  0  0  0  0  0  0  0  0  0  0  0
    9.6270   -2.5659   22.4026 C   0  0  0  0  0  0  0  0  0  0  0  0
   10.2379   -0.8254   24.0601 N   0  0  0  0  0  0  0  0  0  0  0  0
   11.8516    5.0725   22.1249 N   0  0  0  0  0  0  0  0  0  0  0  0
    9.7202   -1.6883   21.2673 N   0  0  0  0  0  0  0  0  0  0  0  0
   12.2821    5.2349   24.6614 O   0  0  0  0  0  0  0  0  0  0  0  0
   14.1008    4.3552   23.1560 O   0  0  0  0  0  0  0  0  0  0  0  0
    9.5229    0.8861   21.0473 O   0  0  0  0  0  0  0  0  0  0  0  0
    7.6500   -0.3903   22.1517 O   0  0  0  0  0  0  0  0  0  0  0  0
   12.6887    4.4744   23.4887 S   0  0  0  0  0  0  0  0  0  0  0  0
    8.6994   -0.3023   21.1544 S   0  0  0  0  0  0  0  0  0  0  0  0
  1  2  2  0
  1  7  1  0
  2  8  1  0
  3  5  2  0
  3  6  1  0
  4  6  1  0
  4  8  2  0
  5 12  1  0
  6  7  2  0
  7 12  1  0
  8 19  1  0
  9 20  1  0
 10 11  1  0
 10 12  1  0
 11 14  1  0
 13 19  1  0
 14 20  1  0
 15 19  2  0
 16 19  2  0
 17 20  2  0
 18 20  2  0
M  END
