SIM-DEM-2843056b-7
     RDKit          3D

 27 29  0  0  0  0  0  0  0  0999 V2000
    4.2711    0.4584   19.4316 C   0  0  0  0  0  0  0  0  0  0  0  0
    4.7470    0.3344   20.7322 C   0  0  0  0  0  0  0  0  0  0  0  0
    5.1935    0.4305   18.3981 C   0  0  0  0  0  0  0  0  0  0  0  0
    6.1114    0.1883   20.9563 C   0  0  0  0  0  0  0  0  0  0  0  0
    6.9514    0.1722   19.8545 C   0  0  0  0  0  0  0  0  0  0  0  0
    5.8706    0.0595   23.4600 C   0  0  0  0  0  0  0  0  0  0  0  0
    9.7928    1.3031   21.6793 C   0  0  0  0  0  0  0  0  0  0  0  0
   12.6198    4.8788   23.8302 C   0  0  0  0  0  0  0  0  0  0  0  0
   12.7184    4.8243   22.3311 C   0  0  0  0  0  0  0  0  0  0  0  0
    5.0994   -4.0115   25.8688 C   0  0  0  0  0  0  0  0  0  0  0  0
    6.3327   -4.9394   24.0072 C   0  0  0  0  0  0  0  0  0  0  0  0
    6.0778   -2.8472   25.9821 C   0  0  0  0  0  0  0  0  0  0  0  0
    7.3468   -3.8019   24.0665 C   0  0  0  0  0  0  0  0  0  0  0  0
   11.4553    4.3839   23.0178 C   0  0  0  0  0  0  0  0  0  0  0  0
    4.8218   -6.3286   25.2691 C   0  0  0  0  0  0  0  0  0  0  0  0
    8.4278    0.0201   20.0308 C   0  0  0  0  0  0  0  0  0  0  0  0
    6.7946   -0.1012   24.6618 C   0  0  0  0  0  0  0  0  0  0  0  0
   11.0797    2.9414   23.0446 C   0  0  0  0  0  0  0  0  0  0  0  0
    7.6035   -1.3888   24.6500 C   0  0  0  0  0  0  0  0  0  0  0  0
    6.5262    0.2901   18.5766 N   0  0  0  0  0  0  0  0  0  0  0  0
    5.7604   -5.2088   25.3328 N   0  0  0  0  0  0  0  0  0  0  0  0
    6.6042    0.0614   22.2768 N   0  0  0  0  0  0  0  0  0  0  0  0
    9.0476    1.2311   20.5022 N   0  0  0  0  0  0  0  0  0  0  0  0
   10.2768    2.5907   21.8967 N   0  0  0  0  0  0  0  0  0  0  0  0
    6.6780   -2.5718   24.6265 N   0  0  0  0  0  0  0  0  0  0  0  0
    4.6540    0.1575   23.5815 O   0  0  0  0  0  0  0  0  0  0  0  0
    9.9970    0.3499   22.4298 O   0  0  0  0  0  0  0  0  0  0  0  0
  1  2  2  0
  1  3  1  0
  2  4  1  0
  3 20  2  0
  4  5  2  0
  4 22  1  0
  5 16  1  0
  5 20  1  0
  6 17  1  0
  6 22  1  0
  6 26  2  0
  7 23  1  0
  7 24  1  0
  7 27  2  0
  8  9  1  0
  8 14  1  0
  9 14  1  0
 10 12  1  0
 10 21  1  0
 11 13  1  0
 11 21  1  0
 12 25  1  0
 13 25  1  0
 14 18  1  0
 15 21  1  0
 16 23  1  0
 17 19  1  0
 18 24  1  0
 19 25  1  0
M  CHG  1  25   1
M  END
