SIM-SYN-a98e6a07-3
     RDKit          3D

 28 30  0  0  0  0  0  0  0  0999 V2000
    8.5431   -3.7735   26.5394 C   0  0  0  0  0  0  0  0  0  0  0  0
    5.0447    0.4379   19.1743 C   0  0  0  0  0  0  0  0  0  0  0  0
    7.7811   -4.9283   26.3623 C   0  0  0  0  0  0  0  0  0  0  0  0
    8.5438   -2.7811   25.5591 C   0  0  0  0  0  0  0  0  0  0  0  0
    5.7193   -0.1433   20.2423 C   0  0  0  0  0  0  0  0  0  0  0  0
    7.0206   -4.0986   24.2244 C   0  0  0  0  0  0  0  0  0  0  0  0
    5.7145    0.5471   17.9663 C   0  0  0  0  0  0  0  0  0  0  0  0
    7.6056   -0.4361   18.8238 C   0  0  0  0  0  0  0  0  0  0  0  0
    7.0199   -5.0909   25.2048 C   0  0  0  0  0  0  0  0  0  0  0  0
    7.7826   -2.9437   24.4016 C   0  0  0  0  0  0  0  0  0  0  0  0
    7.0245   -0.5911   20.0720 C   0  0  0  0  0  0  0  0  0  0  0  0
    9.6760    0.0831   21.9284 C   0  0  0  0  0  0  0  0  0  0  0  0
    7.0840   -1.9325   22.1934 C   0  0  0  0  0  0  0  0  0  0  0  0
   10.3178    1.1579   25.0998 C   0  0  0  0  0  0  0  0  0  0  0  0
   11.4962    0.2501   25.2896 C   0  0  0  0  0  0  0  0  0  0  0  0
   11.0828    0.6620   23.9033 C   0  0  0  0  0  0  0  0  0  0  0  0
    6.2055   -6.3257   25.0159 C   0  0  0  0  0  0  0  0  0  0  0  0
    9.2224   -1.1173   21.1376 C   0  0  0  0  0  0  0  0  0  0  0  0
    6.9821    0.1236   17.7628 N   0  0  0  0  0  0  0  0  0  0  0  0
    4.0400   -7.6978   25.7078 N   0  0  0  0  0  0  0  0  0  0  0  0
    7.7830   -1.9359   23.4070 N   0  0  0  0  0  0  0  0  0  0  0  0
   10.5002   -0.2867   22.9817 N   0  0  0  0  0  0  0  0  0  0  0  0
    7.7548   -1.2016   21.1673 N   0  0  0  0  0  0  0  0  0  0  0  0
    9.3481    1.2350   21.6563 O   0  0  0  0  0  0  0  0  0  0  0  0
    5.9982   -2.4901   22.0264 O   0  0  0  0  0  0  0  0  0  0  0  0
    5.2754   -6.2728   27.4570 O   0  0  0  0  0  0  0  0  0  0  0  0
    3.9645   -5.1279   25.6250 O   0  0  0  0  0  0  0  0  0  0  0  0
    4.8052   -6.2210   26.0831 S   0  0  0  0  0  0  0  0  0  0  0  0
  1  3  2  0
  1  4  1  0
  2  5  2  0
  2  7  1  0
  3  9  1  0
  4 10  2  0
  5 11  1  0
  6  9  2  0
  6 10  1  0
  7 19  2  0
  8 11  2  0
  8 19  1  0
  9 17  1  0
 10 21  1  0
 11 23  1  0
 12 18  1  0
 12 22  1  0
 12 24  2  0
 13 21  1  0
 13 23  1  0
 13 25  2  0
 14 15  1  0
 14 16  1  0
 15 16  1  0
 16 22  1  0
 17 28  1  0
 18 23  1  0
 20 28  1  0
 26 28  2  0
 27 28  2  0
M  END
