SIM-DEM-2843056b-4
     RDKit          3D

 26 28  0  0  0  0  0  0  0  0999 V2000
    5.5422    0.6102   19.8133 C   0  0  0  0  0  0  0  0  0  0  0  0
    5.8038    0.5307   18.4550 C   0  0  0  0  0  0  0  0  0  0  0  0
    7.9118   -0.3070   18.8193 C   0  0  0  0  0  0  0  0  0  0  0  0
    7.7490   -0.2665   20.1946 C   0  0  0  0  0  0  0  0  0  0  0  0
    6.5385    0.2021   20.6931 C   0  0  0  0  0  0  0  0  0  0  0  0
    5.4871    1.1707   22.7665 C   0  0  0  0  0  0  0  0  0  0  0  0
    8.9652   -1.9890   23.2263 C   0  0  0  0  0  0  0  0  0  0  0  0
    8.0824   -2.9630   26.3740 C   0  0  0  0  0  0  0  0  0  0  0  0
    7.8328   -4.3899   25.9862 C   0  0  0  0  0  0  0  0  0  0  0  0
    9.4016    3.8783   24.5168 C   0  0  0  0  0  0  0  0  0  0  0  0
    7.3283    4.7764   25.3782 C   0  0  0  0  0  0  0  0  0  0  0  0
    8.9339    2.4510   24.7808 C   0  0  0  0  0  0  0  0  0  0  0  0
    6.8004    3.3752   25.6672 C   0  0  0  0  0  0  0  0  0  0  0  0
    8.7695   -3.5436   25.1684 C   0  0  0  0  0  0  0  0  0  0  0  0
    9.2831    6.1770   25.2293 C   0  0  0  0  0  0  0  0  0  0  0  0
    8.8534   -0.7163   21.0882 C   0  0  0  0  0  0  0  0  0  0  0  0
    5.5173    0.8934   24.2653 C   0  0  0  0  0  0  0  0  0  0  0  0
    6.9009    1.0068   24.8857 C   0  0  0  0  0  0  0  0  0  0  0  0
    6.9671    0.0810   17.9334 N   0  0  0  0  0  0  0  0  0  0  0  0
    8.7937    4.8194   25.4668 N   0  0  0  0  0  0  0  0  0  0  0  0
    6.3029    0.2704   22.0868 N   0  0  0  0  0  0  0  0  0  0  0  0
    8.4227   -3.1193   23.8317 N   0  0  0  0  0  0  0  0  0  0  0  0
    8.4597   -1.8108   21.9395 N   0  0  0  0  0  0  0  0  0  0  0  0
    7.4288    2.4013   24.7024 N   0  0  0  0  0  0  0  0  0  0  0  0
    4.8084    2.0711   22.2837 O   0  0  0  0  0  0  0  0  0  0  0  0
    9.7862   -1.2416   23.7565 O   0  0  0  0  0  0  0  0  0  0  0  0
  1  2  2  0
  1  5  1  0
  2 19  1  0
  3  4  1  0
  3 19  2  0
  4  5  2  0
  4 16  1  0
  5 21  1  0
  6 17  1  0
  6 21  1  0
  6 25  2  0
  7 22  1  0
  7 23  1  0
  7 26  2  0
  8  9  1  0
  8 14  1  0
  9 14  1  0
 10 12  1  0
 10 20  1  0
 11 13  1  0
 11 20  1  0
 12 24  1  0
 13 24  1  0
 14 22  1  0
 15 20  1  0
 16 23  1  0
 17 18  1  0
 18 24  1  0
M  CHG  1  24   1
M  END
