SIM-DEM-2843056b-5
     RDKit          3D

 26 28  0  0  0  0  0  0  0  0999 V2000
   13.3197   -1.5431   21.6763 C   0  0  0  0  0  0  0  0  0  0  0  0
   11.9881   -1.5605   22.0763 C   0  0  0  0  0  0  0  0  0  0  0  0
   14.0970   -0.4611   22.0568 C   0  0  0  0  0  0  0  0  0  0  0  0
   11.4818   -0.5102   22.8337 C   0  0  0  0  0  0  0  0  0  0  0  0
   12.3415    0.5255   23.1626 C   0  0  0  0  0  0  0  0  0  0  0  0
    9.1712   -1.4922   22.9825 C   0  0  0  0  0  0  0  0  0  0  0  0
    9.7317    2.9128   23.5472 C   0  0  0  0  0  0  0  0  0  0  0  0
    7.0703    4.8037   21.5461 C   0  0  0  0  0  0  0  0  0  0  0  0
    6.6501    3.5326   22.2218 C   0  0  0  0  0  0  0  0  0  0  0  0
    6.4177   -4.5034   23.4918 C   0  0  0  0  0  0  0  0  0  0  0  0
    6.4092   -2.9909   25.5020 C   0  0  0  0  0  0  0  0  0  0  0  0
    6.4392   -5.7168   24.4082 C   0  0  0  0  0  0  0  0  0  0  0  0
    6.4306   -4.2078   26.4138 C   0  0  0  0  0  0  0  0  0  0  0  0
    7.8240    4.3102   22.7506 C   0  0  0  0  0  0  0  0  0  0  0  0
    7.0572   -3.2852   24.1515 C   0  0  0  0  0  0  0  0  0  0  0  0
    5.6520   -6.5684   26.6162 C   0  0  0  0  0  0  0  0  0  0  0  0
   11.8558    1.6836   23.9730 C   0  0  0  0  0  0  0  0  0  0  0  0
    7.8345   -1.1379   23.5969 C   0  0  0  0  0  0  0  0  0  0  0  0
   13.6406    0.5774   22.7922 N   0  0  0  0  0  0  0  0  0  0  0  0
   10.1278   -0.5199   23.2450 N   0  0  0  0  0  0  0  0  0  0  0  0
    9.1720    3.8036   22.6352 N   0  0  0  0  0  0  0  0  0  0  0  0
   11.0428    2.5862   23.2004 N   0  0  0  0  0  0  0  0  0  0  0  0
    5.7644   -5.3698   25.7148 N   0  0  0  0  0  0  0  0  0  0  0  0
    9.3060   -2.5292   22.3400 O   0  0  0  0  0  0  0  0  0  0  0  0
    9.1472    2.4676   24.5340 O   0  0  0  0  0  0  0  0  0  0  0  0
    6.9018   -2.1642   23.2889 O   0  0  0  0  0  0  0  0  0  0  0  0
  1  2  2  0
  1  3  1  0
  2  4  1  0
  3 19  2  0
  4  5  2  0
  4 20  1  0
  5 17  1  0
  5 19  1  0
  6 18  1  0
  6 20  1  0
  6 24  2  0
  7 21  1  0
  7 22  1  0
  7 25  2  0
  8  9  1  0
  8 14  1  0
  9 14  1  0
 10 12  1  0
 10 15  1  0
 11 13  1  0
 11 15  1  0
 12 23  1  0
 13 23  1  0
 14 21  1  0
 15 26  1  0
 16 23  1  0
 17 22  1  0
 18 26  1  0
M  CHG  1  23   1
M  END
