SIM-DEM-5935bd74-6
     RDKit          3D

 20 21  0  0  1  0  0  0  0  0999 V2000
    8.6021    0.3269   24.0284 C   0  0  0  0  0  0  0  0  0  0  0  0
    9.1152    1.3160   23.2859 C   0  0  0  0  0  0  0  0  0  0  0  0
   10.4646   -1.1745   23.5850 C   0  0  0  0  0  0  0  0  0  0  0  0
    9.2627   -0.9454   24.1308 C   0  0  0  0  0  0  0  0  0  0  0  0
    9.3517    5.7150   23.2566 C   0  0  0  0  0  0  0  0  0  0  0  0
   13.4404    1.1786   22.8647 C   0  0  0  0  0  0  0  0  0  0  0  0
   12.5639    0.1391   23.5598 C   0  0  0  0  0  0  0  0  0  0  0  0
   12.6697    2.1647   22.0022 C   0  0  0  0  0  0  0  0  0  0  0  0
   11.2394   -0.1151   22.8296 C   0  0  0  0  0  0  0  0  0  0  0  0
   10.4161    1.1832   22.5339 C   0  0  0  0  0  0  0  0  0  0  0  0
    8.4173    6.1941   22.1957 C   0  0  0  0  0  0  0  0  0  0  0  0
   11.5731    4.6596   23.6229 C   0  0  0  0  0  0  0  0  0  0  0  0
   11.3485    3.1826   23.8864 C   0  0  0  0  0  0  0  0  0  0  0  0
    8.3225   -1.6595   26.5805 N   0  0  0  0  0  0  0  0  0  0  0  0
   10.5042    5.1927   22.7491 N   0  0  0  0  0  0  0  0  0  0  0  0
   11.3051    2.4323   22.5776 N   0  0  0  0  0  0  0  0  0  0  0  0
    9.0335    5.8215   24.4351 O   0  0  0  0  0  0  0  0  0  0  0  0
    7.1924   -2.4645   24.4287 O   0  0  0  0  0  0  0  0  0  0  0  0
    9.4626   -3.3579   25.0373 O   0  0  0  0  0  0  0  0  0  0  0  0
    8.5231   -2.2475   24.9781 S   0  0  0  0  0  0  0  0  0  0  0  0
  1  2  2  0
  1  4  1  0
  2 10  1  0
  3  4  2  0
  3  9  1  0
  4 20  1  0
  5 11  1  0
  5 15  1  0
  5 17  2  0
  6  7  1  0
  6  8  1  0
  7  9  1  0
  8 16  1  0
  9 10  1  0
 10 16  1  0
 12 13  1  0
 12 15  1  0
 13 16  1  0
 14 20  1  0
 18 20  2  0
 19 20  2  0
M  CHG  1  16   1
M  END
