STE-UNK-4e3fa4d2-1
     RDKit          3D

 25 28  0  0  0  0  0  0  0  0999 V2000
    5.5858    1.1984   19.5359 C   0  0  0  0  0  0  0  0  0  0  0  0
    9.1204   -2.6911   24.0334 C   0  0  0  0  0  0  0  0  0  0  0  0
    7.5173   -2.3331   21.7906 C   0  0  0  0  0  0  0  0  0  0  0  0
    5.9428    0.7435   18.2768 C   0  0  0  0  0  0  0  0  0  0  0  0
    7.8906   -0.1845   19.0662 C   0  0  0  0  0  0  0  0  0  0  0  0
    9.2279   -1.5152   23.2746 C   0  0  0  0  0  0  0  0  0  0  0  0
    8.2092   -3.6792   23.6745 C   0  0  0  0  0  0  0  0  0  0  0  0
    6.4484    0.9312   20.5932 C   0  0  0  0  0  0  0  0  0  0  0  0
    8.3989   -1.3004   22.1590 C   0  0  0  0  0  0  0  0  0  0  0  0
    7.6250    0.2271   20.3623 C   0  0  0  0  0  0  0  0  0  0  0  0
    7.4166   -3.5046   22.5474 C   0  0  0  0  0  0  0  0  0  0  0  0
   10.2390   -0.5291   23.6320 C   0  0  0  0  0  0  0  0  0  0  0  0
   10.4074    0.5692   22.8960 C   0  0  0  0  0  0  0  0  0  0  0  0
    9.5471    0.8626   21.7222 C   0  0  0  0  0  0  0  0  0  0  0  0
    7.0857   -4.9865   25.5987 C   0  0  0  0  0  0  0  0  0  0  0  0
    8.5339   -4.8544   25.9530 C   0  0  0  0  0  0  0  0  0  0  0  0
    8.1198   -4.9152   24.5069 C   0  0  0  0  0  0  0  0  0  0  0  0
    6.0887    1.4105   21.9612 C   0  0  0  0  0  0  0  0  0  0  0  0
    7.0770    0.0565   18.0137 N   0  0  0  0  0  0  0  0  0  0  0  0
    8.5460   -0.0735   21.4178 N   0  0  0  0  0  0  0  0  0  0  0  0
    5.6046   -3.9959   20.6553 N   0  0  0  0  0  0  0  0  0  0  0  0
    9.7404    1.9268   21.1315 O   0  0  0  0  0  0  0  0  0  0  0  0
    7.0213   -5.9115   21.6396 O   0  0  0  0  0  0  0  0  0  0  0  0
    5.2397   -4.8390   23.0621 O   0  0  0  0  0  0  0  0  0  0  0  0
    6.2728   -4.7317   22.0438 S   0  0  0  0  0  0  0  0  0  0  0  0
  1  4  2  0
  1  8  1  0
  2  6  2  0
  2  7  1  0
  3  9  2  0
  3 11  1  0
  4 19  1  0
  5 10  1  0
  5 19  2  0
  6  9  1  0
  6 12  1  0
  7 11  2  0
  7 17  1  0
  8 10  2  0
  8 18  1  0
  9 20  1  0
 10 20  1  0
 11 25  1  0
 12 13  2  0
 13 14  1  0
 14 20  1  0
 14 22  2  0
 15 16  1  0
 15 17  1  0
 16 17  1  0
 21 25  1  0
 23 25  2  0
 24 25  2  0
M  END
