STE-LAU-a2c26472-1
     RDKit          3D

 30 31  0  0  0  0  0  0  0  0999 V2000
   12.6037   -2.5480   25.0798 C   0  0  0  0  0  0  0  0  0  0  0  0
    7.7906   -4.3193   23.8558 C   0  0  0  0  0  0  0  0  0  0  0  0
    6.0915   -4.0033   21.6659 C   0  0  0  0  0  0  0  0  0  0  0  0
   11.7820   -3.6429   24.9054 C   0  0  0  0  0  0  0  0  0  0  0  0
    7.9240   -3.2073   23.0244 C   0  0  0  0  0  0  0  0  0  0  0  0
    7.0744   -3.0493   21.9295 C   0  0  0  0  0  0  0  0  0  0  0  0
    6.8078   -5.2734   23.5922 C   0  0  0  0  0  0  0  0  0  0  0  0
    5.9583   -5.1154   22.4973 C   0  0  0  0  0  0  0  0  0  0  0  0
   12.1044   -1.3473   24.6180 C   0  0  0  0  0  0  0  0  0  0  0  0
   10.1906   -2.3546   23.9181 C   0  0  0  0  0  0  0  0  0  0  0  0
    6.2465    0.0947   18.2205 C   0  0  0  0  0  0  0  0  0  0  0  0
    6.8592   -0.3649   19.3161 C   0  0  0  0  0  0  0  0  0  0  0  0
   12.8835   -0.1285   24.7484 C   0  0  0  0  0  0  0  0  0  0  0  0
    6.4215   -1.6418   19.9512 C   0  0  0  0  0  0  0  0  0  0  0  0
    5.2451   -7.1969   21.3488 C   0  0  0  0  0  0  0  0  0  0  0  0
    3.6361   -5.9408   22.7915 C   0  0  0  0  0  0  0  0  0  0  0  0
    5.5499   -7.6387   27.3482 C   0  0  0  0  0  0  0  0  0  0  0  0
    5.0927   -5.3530   28.2240 C   0  0  0  0  0  0  0  0  0  0  0  0
    7.5800   -6.5577   25.5872 C   0  0  0  0  0  0  0  0  0  0  0  0
    7.0753   -5.7563   26.7723 C   0  0  0  0  0  0  0  0  0  0  0  0
   10.5649   -3.5820   24.3265 N   0  0  0  0  0  0  0  0  0  0  0  0
   10.8976   -1.2138   24.0298 N   0  0  0  0  0  0  0  0  0  0  0  0
   12.3273    1.0528   24.2638 N   0  0  0  0  0  0  0  0  0  0  0  0
    8.9264   -2.2532   23.3096 N   0  0  0  0  0  0  0  0  0  0  0  0
    7.1896   -1.9434   21.0822 N   0  0  0  0  0  0  0  0  0  0  0  0
    6.6956   -6.3558   24.4178 N   0  0  0  0  0  0  0  0  0  0  0  0
    4.9569   -6.0707   22.2121 N   0  0  0  0  0  0  0  0  0  0  0  0
    5.6658   -6.1625   27.0959 N   0  0  0  0  0  0  0  0  0  0  0  0
   14.0182   -0.1337   25.2596 O   0  0  0  0  0  0  0  0  0  0  0  0
    5.4958   -2.2974   19.4876 O   0  0  0  0  0  0  0  0  0  0  0  0
  1  4  2  0
  1  9  1  0
  2  5  2  0
  2  7  1  0
  3  6  2  0
  3  8  1  0
  4 21  1  0
  5  6  1  0
  5 24  1  0
  6 25  1  0
  7  8  2  0
  7 26  1  0
  8 27  1  0
  9 13  1  0
  9 22  2  0
 10 21  2  0
 10 22  1  0
 10 24  1  0
 11 12  2  0
 12 14  1  0
 13 23  1  0
 13 29  2  0
 14 25  1  0
 14 30  2  0
 15 27  1  0
 16 27  1  0
 17 28  1  0
 18 28  1  0
 19 20  1  0
 19 26  1  0
 20 28  1  0
M  CHG  1  28   1
M  END
