STE-KUL-2e0d2e88-3
     RDKit          3D

 21 22  0  0  0  0  0  0  0  0999 V2000
    6.9871   -4.2323   28.2123 C   0  0  0  0  0  0  0  0  0  0  0  0
    7.8824   -3.6323   27.3339 C   0  0  0  0  0  0  0  0  0  0  0  0
    6.7573   -5.5919   28.0761 C   0  0  0  0  0  0  0  0  0  0  0  0
    8.2140   -5.7516   26.3067 C   0  0  0  0  0  0  0  0  0  0  0  0
    8.5119   -4.3994   26.3599 C   0  0  0  0  0  0  0  0  0  0  0  0
    9.4729   -3.7861   25.4073 C   0  0  0  0  0  0  0  0  0  0  0  0
    5.7449   -1.7698   19.3728 C   0  0  0  0  0  0  0  0  0  0  0  0
    6.9081   -3.3420   20.8881 C   0  0  0  0  0  0  0  0  0  0  0  0
    6.6581   -1.0018   21.6187 C   0  0  0  0  0  0  0  0  0  0  0  0
    8.3875   -3.3165   21.2434 C   0  0  0  0  0  0  0  0  0  0  0  0
    8.1344   -0.9416   21.9871 C   0  0  0  0  0  0  0  0  0  0  0  0
    5.2786   -0.3581   19.1210 C   0  0  0  0  0  0  0  0  0  0  0  0
   10.1199   -1.7072   24.2176 C   0  0  0  0  0  0  0  0  0  0  0  0
   10.0362   -2.3211   22.8328 C   0  0  0  0  0  0  0  0  0  0  0  0
    7.3499   -6.3698   27.1426 N   0  0  0  0  0  0  0  0  0  0  0  0
    6.4206   -1.9998   20.5704 N   0  0  0  0  0  0  0  0  0  0  0  0
    9.2633   -2.4569   25.1633 N   0  0  0  0  0  0  0  0  0  0  0  0
    8.6078   -2.3271   22.3659 N   0  0  0  0  0  0  0  0  0  0  0  0
   10.3470   -4.4860   24.9027 O   0  0  0  0  0  0  0  0  0  0  0  0
    5.5168   -2.6398   18.5283 O   0  0  0  0  0  0  0  0  0  0  0  0
    6.6014    0.4721   18.3095 Cl  0  0  0  0  0  0  0  0  0  0  0  0
  1  2  2  0
  1  3  1  0
  2  5  1  0
  3 15  2  0
  4  5  2  0
  4 15  1  0
  5  6  1  0
  6 17  1  0
  6 19  2  0
  7 12  1  0
  7 16  1  0
  7 20  2  0
  8 10  1  0
  8 16  1  0
  9 11  1  0
  9 16  1  0
 10 18  1  0
 11 18  1  0
 12 21  1  0
 13 14  1  0
 13 17  1  0
 14 18  1  0
M  CHG  1  18   1
M  END
