STE-NAN-bafe64f0-2
     RDKit          3D

 36 41  0  0  1  0  0  0  0  0999 V2000
   12.5246    2.2315   22.5511 C   0  0  0  0  0  0  0  0  0  0  0  0
   12.1976    3.5422   22.8772 C   0  0  0  0  0  0  0  0  0  0  0  0
   10.7869    2.7209   24.6561 C   0  0  0  0  0  0  0  0  0  0  0  0
    8.2822   -5.7737   26.2060 C   0  0  0  0  0  0  0  0  0  0  0  0
    8.1285   -1.8486   22.4799 C   0  0  0  0  0  0  0  0  0  0  0  0
    7.8734   -4.3072   27.6570 C   0  0  0  0  0  0  0  0  0  0  0  0
   11.9925    1.1559   23.2844 C   0  0  0  0  0  0  0  0  0  0  0  0
   11.0921    1.3784   24.3526 C   0  0  0  0  0  0  0  0  0  0  0  0
   11.3307    3.7869   23.9325 C   0  0  0  0  0  0  0  0  0  0  0  0
    9.7243   -1.7387   23.8842 C   0  0  0  0  0  0  0  0  0  0  0  0
    9.3221   -3.0536   23.8870 C   0  0  0  0  0  0  0  0  0  0  0  0
    8.9221   -4.6223   25.8193 C   0  0  0  0  0  0  0  0  0  0  0  0
    8.1490    5.4742   23.7624 C   0  0  0  0  0  0  0  0  0  0  0  0
    7.3469    5.8279   22.7477 C   0  0  0  0  0  0  0  0  0  0  0  0
    9.5745    6.2275   22.1430 C   0  0  0  0  0  0  0  0  0  0  0  0
    9.5086    5.7228   23.3797 C   0  0  0  0  0  0  0  0  0  0  0  0
   12.3695   -0.2428   22.8699 C   0  0  0  0  0  0  0  0  0  0  0  0
    8.1763    6.3469   21.6040 C   0  0  0  0  0  0  0  0  0  0  0  0
   12.2068   -1.2131   24.0300 C   0  0  0  0  0  0  0  0  0  0  0  0
    5.5170   -5.6557   23.3238 C   0  0  0  0  0  0  0  0  0  0  0  0
    4.0601   -5.3002   23.5340 C   0  0  0  0  0  0  0  0  0  0  0  0
    5.1116   -3.4977   22.4981 C   0  0  0  0  0  0  0  0  0  0  0  0
   10.8334   -1.0847   24.6995 C   0  0  0  0  0  0  0  0  0  0  0  0
    6.1602   -4.2874   23.2621 C   0  0  0  0  0  0  0  0  0  0  0  0
    9.5948    0.5464   26.1504 C   0  0  0  0  0  0  0  0  0  0  0  0
    9.8006   -4.2264   24.6402 C   0  0  0  0  0  0  0  0  0  0  0  0
    7.5304   -4.2731   22.6123 C   0  0  0  0  0  0  0  0  0  0  0  0
    7.6121   -5.5656   27.3844 N   0  0  0  0  0  0  0  0  0  0  0  0
    8.9771   -0.9938   23.0065 N   0  0  0  0  0  0  0  0  0  0  0  0
    8.2989   -3.1084   22.9829 N   0  0  0  0  0  0  0  0  0  0  0  0
   10.5379    0.3123   25.0614 N   0  0  0  0  0  0  0  0  0  0  0  0
   10.5167    5.4617   25.7556 O   0  0  0  0  0  0  0  0  0  0  0  0
   11.9954    6.2937   23.9007 O   0  0  0  0  0  0  0  0  0  0  0  0
    8.6634   -3.6651   26.7533 O   0  0  0  0  0  0  0  0  0  0  0  0
    3.8381   -4.0480   22.8687 O   0  0  0  0  0  0  0  0  0  0  0  0
   10.9121    5.4298   24.3528 S   0  0  0  0  0  0  0  0  0  0  0  0
  1  2  2  0
  1  7  1  0
  2  9  1  0
  3  8  1  0
  3  9  2  0
  4 12  2  0
  4 28  1  0
  5 29  2  0
  5 30  1  0
  6 28  2  0
  6 34  1  0
  7  8  2  0
  7 17  1  0
  8 31  1  0
  9 36  1  0
 10 11  2  0
 10 23  1  0
 10 29  1  0
 11 26  1  0
 11 30  1  0
 12 26  1  0
 12 34  1  0
 13 14  2  0
 13 16  1  0
 14 18  1  0
 15 16  2  0
 15 18  1  0
 16 36  1  0
 17 19  1  0
 19 23  1  0
 20 21  1  0
 20 24  1  0
 21 35  1  0
 22 24  1  0
 22 35  1  0
 23 31  1  0
 24 27  1  0
 25 31  1  0
 27 30  1  0
 32 36  2  0
 33 36  2  0
M  END
