STE-UNK-e42f3418-1
     RDKit          3D

 23 26  0  0  0  0  0  0  0  0999 V2000
   12.6432    0.8813   23.3609 C   0  0  0  0  0  0  0  0  0  0  0  0
    5.2429    1.2248   19.1256 C   0  0  0  0  0  0  0  0  0  0  0  0
   11.3615    1.3837   23.5178 C   0  0  0  0  0  0  0  0  0  0  0  0
    6.0769    0.8368   18.0894 C   0  0  0  0  0  0  0  0  0  0  0  0
    8.9020   -2.7475   23.0389 C   0  0  0  0  0  0  0  0  0  0  0  0
    7.7735    0.2923   19.5396 C   0  0  0  0  0  0  0  0  0  0  0  0
    9.1875   -1.3836   22.8391 C   0  0  0  0  0  0  0  0  0  0  0  0
   12.7792   -0.4568   23.0086 C   0  0  0  0  0  0  0  0  0  0  0  0
    5.7306    1.1291   20.4242 C   0  0  0  0  0  0  0  0  0  0  0  0
    7.0192    0.6550   20.6438 C   0  0  0  0  0  0  0  0  0  0  0  0
   11.6453   -1.2407   22.8266 C   0  0  0  0  0  0  0  0  0  0  0  0
   10.4082   -0.6434   23.0076 C   0  0  0  0  0  0  0  0  0  0  0  0
    7.9968   -0.8411   22.4216 C   0  0  0  0  0  0  0  0  0  0  0  0
   14.5389   -2.2445   23.6263 C   0  0  0  0  0  0  0  0  0  0  0  0
   15.1374   -0.9142   23.9614 C   0  0  0  0  0  0  0  0  0  0  0  0
   14.1476   -1.0265   22.8325 C   0  0  0  0  0  0  0  0  0  0  0  0
    4.8563    1.5383   21.5628 C   0  0  0  0  0  0  0  0  0  0  0  0
   11.7709   -2.6803   22.4481 C   0  0  0  0  0  0  0  0  0  0  0  0
    7.6029    0.5286   22.0443 C   0  0  0  0  0  0  0  0  0  0  0  0
    7.3341    0.3714   18.2635 N   0  0  0  0  0  0  0  0  0  0  0  0
   10.2365    0.6532   23.3496 N   0  0  0  0  0  0  0  0  0  0  0  0
    7.6296   -3.0526   22.7706 N   0  0  0  0  0  0  0  0  0  0  0  0
    7.1051   -1.8728   22.3979 N   0  0  0  0  0  0  0  0  0  0  0  0
  1  3  2  0
  1  8  1  0
  2  4  2  0
  2  9  1  0
  3 21  1  0
  4 20  1  0
  5  7  1  0
  5 22  2  0
  6 10  1  0
  6 20  2  0
  7 12  1  0
  7 13  2  0
  8 11  2  0
  8 16  1  0
  9 10  2  0
  9 17  1  0
 10 19  1  0
 11 12  1  0
 11 18  1  0
 12 21  2  0
 13 19  1  0
 13 23  1  0
 14 15  1  0
 14 16  1  0
 15 16  1  0
 22 23  1  0
M  END
