STE-LAU-a2c26472-3
     RDKit          3D

 32 33  0  0  0  0  0  0  0  0999 V2000
   13.1431    1.1858   23.7006 C   0  0  0  0  0  0  0  0  0  0  0  0
    8.6890   -1.6483   22.0823 C   0  0  0  0  0  0  0  0  0  0  0  0
    7.4599   -3.4263   23.8461 C   0  0  0  0  0  0  0  0  0  0  0  0
   13.6996   -0.0518   23.4494 C   0  0  0  0  0  0  0  0  0  0  0  0
    9.4556   -2.3483   23.0140 C   0  0  0  0  0  0  0  0  0  0  0  0
    8.8411   -3.2373   23.8958 C   0  0  0  0  0  0  0  0  0  0  0  0
    7.3079   -1.8373   22.0325 C   0  0  0  0  0  0  0  0  0  0  0  0
    6.6934   -2.7263   22.9144 C   0  0  0  0  0  0  0  0  0  0  0  0
   11.7639    1.2280   23.7169 C   0  0  0  0  0  0  0  0  0  0  0  0
   11.6403   -0.9976   23.2718 C   0  0  0  0  0  0  0  0  0  0  0  0
   10.0040   -6.3118   27.5729 C   0  0  0  0  0  0  0  0  0  0  0  0
   10.2437   -5.4154   26.6107 C   0  0  0  0  0  0  0  0  0  0  0  0
   11.0698    2.4783   23.9710 C   0  0  0  0  0  0  0  0  0  0  0  0
    9.1265   -4.8704   25.7859 C   0  0  0  0  0  0  0  0  0  0  0  0
    4.5535   -4.4678   21.1590 C   0  0  0  0  0  0  0  0  0  0  0  0
    4.9980   -0.8210   24.0366 C   0  0  0  0  0  0  0  0  0  0  0  0
    5.7925    2.1660   21.1077 C   0  0  0  0  0  0  0  0  0  0  0  0
    4.0131    1.7891   19.4072 C   0  0  0  0  0  0  0  0  0  0  0  0
    4.7560   -4.2495   22.6198 C   0  0  0  0  0  0  0  0  0  0  0  0
    4.3888   -1.8285   23.1220 C   0  0  0  0  0  0  0  0  0  0  0  0
    7.1927   -0.1878   20.1639 C   0  0  0  0  0  0  0  0  0  0  0  0
    6.1241    0.4718   19.3128 C   0  0  0  0  0  0  0  0  0  0  0  0
   12.9754   -1.1687   23.2298 N   0  0  0  0  0  0  0  0  0  0  0  0
   10.9784    0.1516   23.5055 N   0  0  0  0  0  0  0  0  0  0  0  0
    9.6772    2.4589   23.9750 N   0  0  0  0  0  0  0  0  0  0  0  0
   10.8530   -2.1415   23.0473 N   0  0  0  0  0  0  0  0  0  0  0  0
    9.5887   -3.9493   24.8382 N   0  0  0  0  0  0  0  0  0  0  0  0
    6.5757   -1.1404   21.1138 N   0  0  0  0  0  0  0  0  0  0  0  0
    5.2957   -2.9314   22.8812 N   0  0  0  0  0  0  0  0  0  0  0  0
    5.1314    1.1711   20.1970 N   0  0  0  0  0  0  0  0  0  0  0  0
   11.6911    3.5395   24.1630 O   0  0  0  0  0  0  0  0  0  0  0  0
    7.9688   -5.2279   25.9686 O   0  0  0  0  0  0  0  0  0  0  0  0
  1  4  2  0
  1  9  1  0
  2  5  2  0
  2  7  1  0
  3  6  2  0
  3  8  1  0
  4 23  1  0
  5  6  1  0
  5 26  1  0
  6 27  1  0
  7  8  2  0
  7 28  1  0
  8 29  1  0
  9 13  1  0
  9 24  2  0
 10 23  2  0
 10 24  1  0
 10 26  1  0
 11 12  2  0
 12 14  1  0
 13 25  1  0
 13 31  2  0
 14 27  1  0
 14 32  2  0
 15 19  1  0
 16 20  1  0
 17 30  1  0
 18 30  1  0
 19 29  1  0
 20 29  1  0
 21 22  1  0
 21 28  1  0
 22 30  1  0
M  CHG  1  30   1
M  END
