STE-UNK-a3cce3f2-1
     RDKit          3D

 31 35  0  0  0  0  0  0  0  0999 V2000
   12.2965   -3.3349   21.8433 C   0  0  0  0  0  0  0  0  0  0  0  0
   12.2554   -2.1578   22.0768 C   0  0  0  0  0  0  0  0  0  0  0  0
    6.0700    0.8106   18.8095 C   0  0  0  0  0  0  0  0  0  0  0  0
   10.7409    5.5357   23.6846 C   0  0  0  0  0  0  0  0  0  0  0  0
    6.4101    0.6800   21.2264 C   0  0  0  0  0  0  0  0  0  0  0  0
    8.5917    0.1398   22.0807 C   0  0  0  0  0  0  0  0  0  0  0  0
    6.6156    0.7054   17.5488 C   0  0  0  0  0  0  0  0  0  0  0  0
   11.9165    6.2518   23.5264 C   0  0  0  0  0  0  0  0  0  0  0  0
   13.1037    4.3578   22.9957 C   0  0  0  0  0  0  0  0  0  0  0  0
   12.2070   -0.7673   22.3531 C   0  0  0  0  0  0  0  0  0  0  0  0
    6.8967    0.5899   19.9112 C   0  0  0  0  0  0  0  0  0  0  0  0
   12.9411   -0.1183   23.3303 C   0  0  0  0  0  0  0  0  0  0  0  0
   11.9838    3.5530   23.1292 C   0  0  0  0  0  0  0  0  0  0  0  0
   10.7837    4.1611   23.4804 C   0  0  0  0  0  0  0  0  0  0  0  0
    7.2575    0.4550   22.3081 C   0  0  0  0  0  0  0  0  0  0  0  0
    9.0744    0.0505   20.7732 C   0  0  0  0  0  0  0  0  0  0  0  0
    8.2454    0.2715   19.6766 C   0  0  0  0  0  0  0  0  0  0  0  0
   12.9205    1.2876   23.6411 C   0  0  0  0  0  0  0  0  0  0  0  0
   12.0851    2.1419   22.9075 C   0  0  0  0  0  0  0  0  0  0  0  0
   11.4174    0.1833   21.6938 C   0  0  0  0  0  0  0  0  0  0  0  0
   13.8298   -0.7034   24.1870 C   0  0  0  0  0  0  0  0  0  0  0  0
    9.5260    3.3715   23.6476 C   0  0  0  0  0  0  0  0  0  0  0  0
    6.7366    0.5521   23.7014 C   0  0  0  0  0  0  0  0  0  0  0  0
   14.3091   -2.0811   24.3967 C   0  0  0  0  0  0  0  0  0  0  0  0
   10.5180   -0.2912   20.5731 C   0  0  0  0  0  0  0  0  0  0  0  0
   13.1011    5.6963   23.1860 N   0  0  0  0  0  0  0  0  0  0  0  0
    7.9083    0.3997   17.3452 N   0  0  0  0  0  0  0  0  0  0  0  0
    8.7225    0.1825   18.4233 N   0  0  0  0  0  0  0  0  0  0  0  0
   13.7707    1.5325   24.6521 N   0  0  0  0  0  0  0  0  0  0  0  0
   11.3341    1.5499   21.9250 N   0  0  0  0  0  0  0  0  0  0  0  0
   14.2944    0.3273   24.9524 N   0  0  0  0  0  0  0  0  0  0  0  0
  1  2  3  0
  2 10  1  0
  3  7  2  0
  3 11  1  0
  4  8  2  0
  4 14  1  0
  5 11  2  0
  5 15  1  0
  6 15  2  0
  6 16  1  0
  7 27  1  0
  8 26  1  0
  9 13  1  0
  9 26  2  0
 10 12  1  0
 10 20  2  0
 11 17  1  0
 12 18  1  0
 12 21  2  0
 13 14  2  0
 13 19  1  0
 14 22  1  0
 15 23  1  0
 16 17  2  0
 16 25  1  0
 17 28  1  0
 18 19  1  0
 18 29  2  0
 19 30  2  0
 20 25  1  0
 20 30  1  0
 21 24  1  0
 21 31  1  0
 27 28  2  0
 29 31  1  0
M  END
