STE-NAN-bafe64f0-3
     RDKit          3D

 42 46  0  0  1  0  0  0  0  0999 V2000
   13.5674    1.7786   21.4286 C   0  0  0  0  0  0  0  0  0  0  0  0
   13.5999    2.9929   22.1095 C   0  0  0  0  0  0  0  0  0  0  0  0
   12.2097    2.0492   23.8433 C   0  0  0  0  0  0  0  0  0  0  0  0
   12.8496    0.6887   21.9461 C   0  0  0  0  0  0  0  0  0  0  0  0
   12.1627    0.8115   23.1761 C   0  0  0  0  0  0  0  0  0  0  0  0
   12.9210    3.1284   23.3154 C   0  0  0  0  0  0  0  0  0  0  0  0
    7.4936   -4.8137   22.1007 C   0  0  0  0  0  0  0  0  0  0  0  0
    7.1177   -3.7395   22.8007 C   0  0  0  0  0  0  0  0  0  0  0  0
    6.3891   -2.8104   21.9875 C   0  0  0  0  0  0  0  0  0  0  0  0
    6.2989   -3.3028   20.7406 C   0  0  0  0  0  0  0  0  0  0  0  0
    4.7460   -1.0282   21.9525 C   0  0  0  0  0  0  0  0  0  0  0  0
   12.8486   -0.6096   21.1737 C   0  0  0  0  0  0  0  0  0  0  0  0
    7.0017   -4.6441   20.6876 C   0  0  0  0  0  0  0  0  0  0  0  0
   11.8331   -1.6172   21.7138 C   0  0  0  0  0  0  0  0  0  0  0  0
    9.2929   -1.1488   24.6103 C   0  0  0  0  0  0  0  0  0  0  0  0
   11.0619   -2.7357   23.8803 C   0  0  0  0  0  0  0  0  0  0  0  0
   10.0052    0.0020   23.9104 C   0  0  0  0  0  0  0  0  0  0  0  0
    5.4302   -0.7759   18.0074 C   0  0  0  0  0  0  0  0  0  0  0  0
    7.6666   -1.3706   19.0030 C   0  0  0  0  0  0  0  0  0  0  0  0
    5.7727    0.6946   17.8377 C   0  0  0  0  0  0  0  0  0  0  0  0
    8.2048    0.0477   18.9198 C   0  0  0  0  0  0  0  0  0  0  0  0
    9.5556   -2.4767   23.9020 C   0  0  0  0  0  0  0  0  0  0  0  0
   11.8680   -1.5981   23.2444 C   0  0  0  0  0  0  0  0  0  0  0  0
    6.7354   -5.9311   25.4050 C   0  0  0  0  0  0  0  0  0  0  0  0
    4.4041    0.2588   22.6610 C   0  0  0  0  0  0  0  0  0  0  0  0
    8.8189   -3.6187   24.5991 C   0  0  0  0  0  0  0  0  0  0  0  0
    5.6503   -2.7325   19.5317 C   0  0  0  0  0  0  0  0  0  0  0  0
   11.4346   -0.2726   23.7154 N   0  0  0  0  0  0  0  0  0  0  0  0
   14.3423    4.4341   25.1546 N   0  0  0  0  0  0  0  0  0  0  0  0
    5.8924   -1.6383   22.4527 N   0  0  0  0  0  0  0  0  0  0  0  0
    7.4511   -3.6189   24.2052 N   0  0  0  0  0  0  0  0  0  0  0  0
    6.1668   -1.3591   19.1915 N   0  0  0  0  0  0  0  0  0  0  0  0
    4.0474   -1.4660   21.0395 O   0  0  0  0  0  0  0  0  0  0  0  0
   13.2377    5.7087   23.2050 O   0  0  0  0  0  0  0  0  0  0  0  0
   11.7872    4.7345   25.0201 O   0  0  0  0  0  0  0  0  0  0  0  0
    4.9098   -4.2392   24.6132 O   0  0  0  0  0  0  0  0  0  0  0  0
    6.3745   -3.6175   26.5575 O   0  0  0  0  0  0  0  0  0  0  0  0
    5.7474   -3.6708   18.4608 O   0  0  0  0  0  0  0  0  0  0  0  0
    7.5357    0.9378   17.4878 S   0  0  0  0  0  0  0  0  0  0  0  0
   12.9647    4.6514   24.1678 S   0  0  0  0  0  0  0  0  0  0  0  0
    6.2113   -4.2361   25.2550 S   0  0  0  0  0  0  0  0  0  0  0  0
    5.2514    1.5768   21.8363 Cl  0  0  0  0  0  0  0  0  0  0  0  0
  1  2  2  0
  1  4  1  0
  2  6  1  0
  3  5  1  0
  3  6  2  0
  4  5  2  0
  4 12  1  0
  5 28  1  0
  6 40  1  0
  7  8  2  0
  7 13  1  0
  8  9  1  0
  8 31  1  0
  9 10  2  0
  9 30  1  0
 10 13  1  0
 10 27  1  0
 11 25  1  0
 11 30  1  0
 11 33  2  0
 12 14  1  0
 14 23  1  0
 15 17  1  0
 15 22  1  0
 16 22  1  0
 16 23  1  0
 17 28  1  0
 18 20  1  0
 18 32  1  0
 19 21  1  0
 19 32  1  0
 20 39  1  0
 21 39  1  0
 22 26  1  0
 23 28  1  0
 24 41  1  0
 25 42  1  0
 26 31  1  0
 27 32  1  0
 27 38  1  0
 29 40  1  0
 31 41  1  0
 34 40  2  0
 35 40  2  0
 36 41  2  0
 37 41  2  0
M  CHG  1  32   1
M  END
