STU-CHA-6cae54d3-1
     RDKit          3D

 28 30  0  0  0  0  0  0  0  0999 V2000
    6.7373   -5.2595   22.0450 C   0  0  0  0  0  0  0  0  0  0  0  0
    7.3433   -6.5147   21.9916 C   0  0  0  0  0  0  0  0  0  0  0  0
    8.6630   -5.9605   23.9380 C   0  0  0  0  0  0  0  0  0  0  0  0
    7.0942   -4.3547   23.0448 C   0  0  0  0  0  0  0  0  0  0  0  0
    8.0570   -4.7052   23.9913 C   0  0  0  0  0  0  0  0  0  0  0  0
    8.3061   -6.8652   22.9380 C   0  0  0  0  0  0  0  0  0  0  0  0
   13.1240   -0.9490   24.0333 C   0  0  0  0  0  0  0  0  0  0  0  0
    6.3387   -2.0247   20.8083 C   0  0  0  0  0  0  0  0  0  0  0  0
   11.0986   -1.9235   22.9994 C   0  0  0  0  0  0  0  0  0  0  0  0
   10.8520   -0.7669   25.1615 C   0  0  0  0  0  0  0  0  0  0  0  0
    6.3868   -0.9575   18.5758 C   0  0  0  0  0  0  0  0  0  0  0  0
    8.2143   -0.4112   20.1382 C   0  0  0  0  0  0  0  0  0  0  0  0
   10.3085   -3.1140   23.5228 C   0  0  0  0  0  0  0  0  0  0  0  0
   10.0561   -1.9401   25.7172 C   0  0  0  0  0  0  0  0  0  0  0  0
    6.3607    0.5085   18.1731 C   0  0  0  0  0  0  0  0  0  0  0  0
    8.1196    1.0283   19.6439 C   0  0  0  0  0  0  0  0  0  0  0  0
    6.4327   -3.0163   23.0817 C   0  0  0  0  0  0  0  0  0  0  0  0
    8.4581   -3.7481   25.0749 C   0  0  0  0  0  0  0  0  0  0  0  0
   13.7230   -0.2082   25.2021 C   0  0  0  0  0  0  0  0  0  0  0  0
   11.7552   -1.2066   24.0926 N   0  0  0  0  0  0  0  0  0  0  0  0
    6.9475   -1.1236   19.9187 N   0  0  0  0  0  0  0  0  0  0  0  0
    6.9369   -2.1276   22.0588 N   0  0  0  0  0  0  0  0  0  0  0  0
    9.3399   -2.6358   24.5813 N   0  0  0  0  0  0  0  0  0  0  0  0
   13.8528   -1.2897   23.0980 O   0  0  0  0  0  0  0  0  0  0  0  0
    5.3423   -2.6907   20.5082 O   0  0  0  0  0  0  0  0  0  0  0  0
    7.6694    1.0701   18.2893 O   0  0  0  0  0  0  0  0  0  0  0  0
    9.0546   -8.4131   22.8707 Cl  0  0  0  0  0  0  0  0  0  0  0  0
   14.1998   -1.4263   26.3797 Cl  0  0  0  0  0  0  0  0  0  0  0  0
  1  2  2  0
  1  4  1  0
  2  6  1  0
  3  5  1  0
  3  6  2  0
  4  5  2  0
  4 17  1  0
  5 18  1  0
  6 27  1  0
  7 19  1  0
  7 20  1  0
  7 24  2  0
  8 21  1  0
  8 22  1  0
  8 25  2  0
  9 13  1  0
  9 20  1  0
 10 14  1  0
 10 20  1  0
 11 15  1  0
 11 21  1  0
 12 16  1  0
 12 21  1  0
 13 23  1  0
 14 23  1  0
 15 26  1  0
 16 26  1  0
 17 22  1  0
 18 23  1  0
 19 28  1  0
M  CHG  1  23   1
M  END
