STU-CHA-0f79177c-1
     RDKit          3D

 25 27  0  0  0  0  0  0  0  0999 V2000
   13.8043   -0.3935   22.3577 C   0  0  0  0  0  0  0  0  0  0  0  0
   12.7885   -1.3508   22.4114 C   0  0  0  0  0  0  0  0  0  0  0  0
   13.6275    0.8781   22.9174 C   0  0  0  0  0  0  0  0  0  0  0  0
   11.5621   -1.0741   23.0246 C   0  0  0  0  0  0  0  0  0  0  0  0
   12.4016    1.1733   23.5373 C   0  0  0  0  0  0  0  0  0  0  0  0
   11.4084    0.1987   23.5752 C   0  0  0  0  0  0  0  0  0  0  0  0
   10.7553    2.0685   24.5609 C   0  0  0  0  0  0  0  0  0  0  0  0
    6.2801   -2.2722   19.4691 C   0  0  0  0  0  0  0  0  0  0  0  0
    6.8593   -2.2079   21.8736 C   0  0  0  0  0  0  0  0  0  0  0  0
    8.1682   -0.8019   20.3299 C   0  0  0  0  0  0  0  0  0  0  0  0
    8.1373   -2.7426   22.5030 C   0  0  0  0  0  0  0  0  0  0  0  0
    9.4669   -1.3144   20.9378 C   0  0  0  0  0  0  0  0  0  0  0  0
   10.4890   -2.1217   23.0683 C   0  0  0  0  0  0  0  0  0  0  0  0
    9.8530    2.9828   25.2855 C   0  0  0  0  0  0  0  0  0  0  0  0
    6.5878   -1.7879   18.0747 C   0  0  0  0  0  0  0  0  0  0  0  0
   11.9778    2.3278   24.1546 N   0  0  0  0  0  0  0  0  0  0  0  0
   10.3670    0.7987   24.2356 N   0  0  0  0  0  0  0  0  0  0  0  0
    7.0908   -1.7838   20.4928 N   0  0  0  0  0  0  0  0  0  0  0  0
    9.1095    5.4859   25.7684 N   0  0  0  0  0  0  0  0  0  0  0  0
    9.2223   -1.6961   22.3806 N   0  0  0  0  0  0  0  0  0  0  0  0
    5.3486   -3.0627   19.6410 O   0  0  0  0  0  0  0  0  0  0  0  0
   11.5844    4.9393   25.3291 O   0  0  0  0  0  0  0  0  0  0  0  0
    9.9288    4.8151   23.4241 O   0  0  0  0  0  0  0  0  0  0  0  0
   10.2545    4.6437   24.8281 S   0  0  0  0  0  0  0  0  0  0  0  0
    5.6076   -0.3497   17.8132 Cl  0  0  0  0  0  0  0  0  0  0  0  0
  1  2  2  0
  1  3  1  0
  2  4  1  0
  3  5  2  0
  4  6  2  0
  4 13  1  0
  5  6  1  0
  5 16  1  0
  6 17  1  0
  7 14  1  0
  7 16  2  0
  7 17  1  0
  8 15  1  0
  8 18  1  0
  8 21  2  0
  9 11  1  0
  9 18  1  0
 10 12  1  0
 10 18  1  0
 11 20  1  0
 12 20  1  0
 13 20  1  0
 14 24  1  0
 15 25  1  0
 19 24  1  0
 22 24  2  0
 23 24  2  0
M  CHG  1  20   1
M  END
