STU-CHA-7b3b91d5-1
     RDKit          3D

 28 30  0  0  1  0  0  0  0  0999 V2000
    8.8478   -1.4854   26.4088 C   0  0  0  0  0  0  0  0  0  0  0  0
    8.7853   -2.7884   26.9027 C   0  0  0  0  0  0  0  0  0  0  0  0
    9.2942   -3.6468   24.7024 C   0  0  0  0  0  0  0  0  0  0  0  0
    9.1334   -1.2631   25.0617 C   0  0  0  0  0  0  0  0  0  0  0  0
    9.3566   -2.3438   24.2085 C   0  0  0  0  0  0  0  0  0  0  0  0
    9.0085   -3.8691   26.0495 C   0  0  0  0  0  0  0  0  0  0  0  0
   10.9542    1.8964   24.5087 C   0  0  0  0  0  0  0  0  0  0  0  0
    6.1213   -2.0257   18.4977 C   0  0  0  0  0  0  0  0  0  0  0  0
   12.5621    1.3279   21.8250 C   0  0  0  0  0  0  0  0  0  0  0  0
   12.6178    2.5282   22.7670 C   0  0  0  0  0  0  0  0  0  0  0  0
    6.3204   -2.4369   20.9293 C   0  0  0  0  0  0  0  0  0  0  0  0
    7.5771   -0.5473   19.9684 C   0  0  0  0  0  0  0  0  0  0  0  0
    7.5654   -2.9210   21.6581 C   0  0  0  0  0  0  0  0  0  0  0  0
    8.8415   -1.0022   20.6848 C   0  0  0  0  0  0  0  0  0  0  0  0
   13.4195    0.1866   22.3490 C   0  0  0  0  0  0  0  0  0  0  0  0
   13.2099    0.8853   24.6040 C   0  0  0  0  0  0  0  0  0  0  0  0
   12.4101    2.1307   24.2279 C   0  0  0  0  0  0  0  0  0  0  0  0
    9.1943    0.1405   24.5552 C   0  0  0  0  0  0  0  0  0  0  0  0
    9.6639   -2.1292   22.7558 C   0  0  0  0  0  0  0  0  0  0  0  0
    6.5417   -1.1962   17.3108 C   0  0  0  0  0  0  0  0  0  0  0  0
    6.6751   -1.6790   19.7293 N   0  0  0  0  0  0  0  0  0  0  0  0
   10.5470    0.5840   24.3377 N   0  0  0  0  0  0  0  0  0  0  0  0
    8.4576   -1.7353   21.9507 N   0  0  0  0  0  0  0  0  0  0  0  0
   10.2474    2.8349   24.8572 O   0  0  0  0  0  0  0  0  0  0  0  0
    5.3267   -2.9549   18.3328 O   0  0  0  0  0  0  0  0  0  0  0  0
   13.0142   -0.1750   23.6672 O   0  0  0  0  0  0  0  0  0  0  0  0
    8.9296   -5.4763   26.6588 Cl  0  0  0  0  0  0  0  0  0  0  0  0
    5.7254   -1.8753   15.9071 Cl  0  0  0  0  0  0  0  0  0  0  0  0
  1  2  2  0
  1  4  1  0
  2  6  1  0
  3  5  1  0
  3  6  2  0
  4  5  2  0
  4 18  1  0
  5 19  1  0
  6 27  1  0
  7 17  1  0
  7 22  1  0
  7 24  2  0
  8 20  1  0
  8 21  1  0
  8 25  2  0
  9 10  1  0
  9 15  1  0
 10 17  1  0
 11 13  1  0
 11 21  1  0
 12 14  1  0
 12 21  1  0
 13 23  1  0
 14 23  1  0
 15 26  1  0
 16 17  1  0
 16 26  1  0
 18 22  1  0
 19 23  1  0
 20 28  1  0
M  CHG  1  23   1
M  END
