STU-CHA-128b80be-1
     RDKit          3D

 30 32  0  0  0  0  0  0  0  0999 V2000
   14.7921   -1.1323   26.4871 C   0  0  0  0  0  0  0  0  0  0  0  0
    6.4665   -5.7549   21.5698 C   0  0  0  0  0  0  0  0  0  0  0  0
    5.7818   -6.5222   22.5120 C   0  0  0  0  0  0  0  0  0  0  0  0
    6.4703   -4.9970   24.2546 C   0  0  0  0  0  0  0  0  0  0  0  0
    7.1533   -4.6086   21.9699 C   0  0  0  0  0  0  0  0  0  0  0  0
    7.1552   -4.2296   23.3123 C   0  0  0  0  0  0  0  0  0  0  0  0
    5.7836   -6.1433   23.8544 C   0  0  0  0  0  0  0  0  0  0  0  0
   13.0705   -2.6367   25.6900 C   0  0  0  0  0  0  0  0  0  0  0  0
   11.3117   -4.2146   24.9566 C   0  0  0  0  0  0  0  0  0  0  0  0
   11.6118   -2.1357   23.6678 C   0  0  0  0  0  0  0  0  0  0  0  0
    5.6461    0.0274   20.0771 C   0  0  0  0  0  0  0  0  0  0  0  0
    6.2266   -1.0541   17.9453 C   0  0  0  0  0  0  0  0  0  0  0  0
    9.8099   -3.9793   25.0258 C   0  0  0  0  0  0  0  0  0  0  0  0
   10.1132   -1.8698   23.7160 C   0  0  0  0  0  0  0  0  0  0  0  0
    5.2687    1.2706   19.2841 C   0  0  0  0  0  0  0  0  0  0  0  0
    5.8252    0.2349   17.2419 C   0  0  0  0  0  0  0  0  0  0  0  0
   13.7626   -1.3148   25.4724 C   0  0  0  0  0  0  0  0  0  0  0  0
    7.8801   -3.8031   20.9436 C   0  0  0  0  0  0  0  0  0  0  0  0
    7.8880   -3.0017   23.7664 C   0  0  0  0  0  0  0  0  0  0  0  0
   15.6161   -0.9715   27.2883 N   0  0  0  0  0  0  0  0  0  0  0  0
   12.0356   -2.9517   24.8106 N   0  0  0  0  0  0  0  0  0  0  0  0
    5.4465   -1.1720   19.2119 N   0  0  0  0  0  0  0  0  0  0  0  0
    7.1820   -2.5890   20.6080 N   0  0  0  0  0  0  0  0  0  0  0  0
    9.3785   -3.1883   23.8110 N   0  0  0  0  0  0  0  0  0  0  0  0
   13.4382   -3.3646   26.6157 O   0  0  0  0  0  0  0  0  0  0  0  0
    5.4832   -3.7290   19.0065 O   0  0  0  0  0  0  0  0  0  0  0  0
    4.6481   -2.6785   21.1381 O   0  0  0  0  0  0  0  0  0  0  0  0
    6.0563    1.3584   18.0946 O   0  0  0  0  0  0  0  0  0  0  0  0
    5.5586   -2.6831   20.0091 S   0  0  0  0  0  0  0  0  0  0  0  0
    4.9403   -7.0911   25.0167 Cl  0  0  0  0  0  0  0  0  0  0  0  0
  1 17  1  0
  1 20  3  0
  2  3  2  0
  2  5  1  0
  3  7  1  0
  4  6  1  0
  4  7  2  0
  5  6  2  0
  5 18  1  0
  6 19  1  0
  7 30  1  0
  8 17  1  0
  8 21  1  0
  8 25  2  0
  9 13  1  0
  9 21  1  0
 10 14  1  0
 10 21  1  0
 11 15  1  0
 11 22  1  0
 12 16  1  0
 12 22  1  0
 13 24  1  0
 14 24  1  0
 15 28  1  0
 16 28  1  0
 18 23  1  0
 19 24  1  0
 22 29  1  0
 23 29  1  0
 26 29  2  0
 27 29  2  0
M  CHG  1  24   1
M  END
