STU-CHA-0be58c98-1
     RDKit          3D

 22 23  0  0  1  0  0  0  0  0999 V2000
   12.1570    0.7719   24.2717 C   0  0  0  0  0  0  0  0  0  0  0  0
   13.2156    0.6412   23.3730 C   0  0  0  0  0  0  0  0  0  0  0  0
   11.0890   -0.1243   24.2266 C   0  0  0  0  0  0  0  0  0  0  0  0
   12.1384   -1.2820   22.3840 C   0  0  0  0  0  0  0  0  0  0  0  0
   13.2064   -0.3857   22.4291 C   0  0  0  0  0  0  0  0  0  0  0  0
   11.0798   -1.1513   23.2827 C   0  0  0  0  0  0  0  0  0  0  0  0
    6.2097   -1.3913   19.1663 C   0  0  0  0  0  0  0  0  0  0  0  0
    7.7010   -5.3641   21.3929 C   0  0  0  0  0  0  0  0  0  0  0  0
    7.7322   -0.1970   20.7831 C   0  0  0  0  0  0  0  0  0  0  0  0
    6.6006   -2.3059   21.4330 C   0  0  0  0  0  0  0  0  0  0  0  0
    8.4768   -0.4492   22.0864 C   0  0  0  0  0  0  0  0  0  0  0  0
    7.8961   -2.9188   21.9805 C   0  0  0  0  0  0  0  0  0  0  0  0
   14.3394   -0.5257   21.4695 C   0  0  0  0  0  0  0  0  0  0  0  0
    9.9308   -2.1148   23.2339 C   0  0  0  0  0  0  0  0  0  0  0  0
    6.4765   -0.2632   18.1993 C   0  0  0  0  0  0  0  0  0  0  0  0
    8.3964   -4.0563   21.0915 C   0  0  0  0  0  0  0  0  0  0  0  0
    6.8525   -1.3036   20.4021 N   0  0  0  0  0  0  0  0  0  0  0  0
    8.3747   -6.0997   22.3442 N   0  0  0  0  0  0  0  0  0  0  0  0
    9.0001   -1.8652   22.0762 N   0  0  0  0  0  0  0  0  0  0  0  0
    5.4667   -2.3168   18.8325 O   0  0  0  0  0  0  0  0  0  0  0  0
    6.6600   -5.7326   20.8568 O   0  0  0  0  0  0  0  0  0  0  0  0
    5.2266    0.9445   18.4770 Cl  0  0  0  0  0  0  0  0  0  0  0  0
  1  2  2  0
  1  3  1  0
  2  5  1  0
  3  6  2  0
  4  5  2  0
  4  6  1  0
  5 13  1  0
  6 14  1  0
  7 15  1  0
  7 17  1  0
  7 20  2  0
  8 16  1  0
  8 18  1  0
  8 21  2  0
  9 11  1  0
  9 17  1  0
 10 12  1  0
 10 17  1  0
 11 19  1  0
 12 16  1  0
 12 19  1  0
 14 19  1  0
 15 22  1  0
M  CHG  1  19   1
M  END
