STU-CHA-91df9a40-1
     RDKit          3D

 25 26  0  0  1  0  0  0  0  0999 V2000
   12.2229   -1.5781   22.5442 C   0  0  0  0  0  0  0  0  0  0  0  0
   11.1138   -2.1420   21.9137 C   0  0  0  0  0  0  0  0  0  0  0  0
    8.3507   -0.4822   19.7822 C   0  0  0  0  0  0  0  0  0  0  0  0
   12.0705   -0.4422   23.3394 C   0  0  0  0  0  0  0  0  0  0  0  0
    7.4773    0.3868   19.1284 C   0  0  0  0  0  0  0  0  0  0  0  0
    5.6741   -0.3500   20.5576 C   0  0  0  0  0  0  0  0  0  0  0  0
    9.6999   -0.4341   22.8733 C   0  0  0  0  0  0  0  0  0  0  0  0
    6.5475   -1.2191   21.2114 C   0  0  0  0  0  0  0  0  0  0  0  0
    9.8523   -1.5700   22.0782 C   0  0  0  0  0  0  0  0  0  0  0  0
    7.8858   -1.2853   20.8237 C   0  0  0  0  0  0  0  0  0  0  0  0
   10.8090    0.1298   23.5039 C   0  0  0  0  0  0  0  0  0  0  0  0
    6.1390    0.4530   19.5160 C   0  0  0  0  0  0  0  0  0  0  0  0
    6.2374   -4.4427   21.6268 C   0  0  0  0  0  0  0  0  0  0  0  0
    6.1277   -1.3978   23.6982 C   0  0  0  0  0  0  0  0  0  0  0  0
    7.0863   -5.6745   21.8120 C   0  0  0  0  0  0  0  0  0  0  0  0
    6.0323   -2.0730   22.3227 C   0  0  0  0  0  0  0  0  0  0  0  0
   10.3148    0.8394   26.0252 N   0  0  0  0  0  0  0  0  0  0  0  0
    6.6896   -3.3676   22.3647 N   0  0  0  0  0  0  0  0  0  0  0  0
    5.2634   -4.4330   20.8761 O   0  0  0  0  0  0  0  0  0  0  0  0
   11.8947    2.2489   24.5546 O   0  0  0  0  0  0  0  0  0  0  0  0
    9.4222    2.2605   24.0706 O   0  0  0  0  0  0  0  0  0  0  0  0
    8.7519   -2.1289   21.4518 O   0  0  0  0  0  0  0  0  0  0  0  0
   10.6182    1.5504   24.5015 S   0  0  0  0  0  0  0  0  0  0  0  0
    5.0611    1.5249   18.7098 Cl  0  0  0  0  0  0  0  0  0  0  0  0
    6.4193   -6.5966   23.1684 Cl  0  0  0  0  0  0  0  0  0  0  0  0
  1  2  2  0
  1  4  1  0
  2  9  1  0
  3  5  2  0
  3 10  1  0
  4 11  2  0
  5 12  1  0
  6  8  1  0
  6 12  2  0
  7  9  2  0
  7 11  1  0
  8 10  2  0
  8 16  1  0
  9 22  1  0
 10 22  1  0
 11 23  1  0
 12 24  1  0
 13 15  1  0
 13 18  1  0
 13 19  2  0
 14 16  1  0
 15 25  1  0
 16 18  1  0
 17 23  1  0
 20 23  2  0
 21 23  2  0
M  END
