SUN-WAB-e274cdaf-1
     RDKit          3D

 32 35  0  0  1  0  0  0  0  0999 V2000
   11.7139    5.5627   22.8072 C   0  0  0  0  0  0  0  0  0  0  0  0
    6.5985    1.8017   22.7545 C   0  0  0  0  0  0  0  0  0  0  0  0
    4.8746   -5.2693   26.5171 C   0  0  0  0  0  0  0  0  0  0  0  0
   12.7330    4.6197   22.6733 C   0  0  0  0  0  0  0  0  0  0  0  0
   10.5641    5.2488   23.5320 C   0  0  0  0  0  0  0  0  0  0  0  0
    6.8483    1.0239   23.8850 C   0  0  0  0  0  0  0  0  0  0  0  0
    7.6543    2.1990   21.9340 C   0  0  0  0  0  0  0  0  0  0  0  0
    5.2244   -6.3176   27.3659 C   0  0  0  0  0  0  0  0  0  0  0  0
    5.8578   -4.5262   25.8536 C   0  0  0  0  0  0  0  0  0  0  0  0
   12.6023    3.3629   23.2640 C   0  0  0  0  0  0  0  0  0  0  0  0
   10.4335    3.9921   24.1227 C   0  0  0  0  0  0  0  0  0  0  0  0
    8.1539    0.6435   24.1952 C   0  0  0  0  0  0  0  0  0  0  0  0
    8.9599    1.8186   22.2442 C   0  0  0  0  0  0  0  0  0  0  0  0
    6.5638   -6.6565   27.5786 C   0  0  0  0  0  0  0  0  0  0  0  0
    9.4647   -5.0587   26.1129 C   0  0  0  0  0  0  0  0  0  0  0  0
    7.2148   -4.8495   26.0525 C   0  0  0  0  0  0  0  0  0  0  0  0
   11.4525    3.0491   23.9888 C   0  0  0  0  0  0  0  0  0  0  0  0
    9.2098    1.0408   23.3748 C   0  0  0  0  0  0  0  0  0  0  0  0
    8.4416   -4.3252   25.5577 C   0  0  0  0  0  0  0  0  0  0  0  0
    7.5358   -5.9050   26.9087 C   0  0  0  0  0  0  0  0  0  0  0  0
    9.1152   -2.3665   22.2838 C   0  0  0  0  0  0  0  0  0  0  0  0
    7.8075   -4.4902   22.5701 C   0  0  0  0  0  0  0  0  0  0  0  0
   12.9366   -0.0291   22.7446 C   0  0  0  0  0  0  0  0  0  0  0  0
   11.3100    1.6857   24.6298 C   0  0  0  0  0  0  0  0  0  0  0  0
    8.6042   -3.1723   24.5983 C   0  0  0  0  0  0  0  0  0  0  0  0
   10.8600   -0.7689   21.5362 C   0  0  0  0  0  0  0  0  0  0  0  0
   10.6395    0.6249   23.7140 C   0  0  0  0  0  0  0  0  0  0  0  0
    8.9143   -3.6088   23.1532 C   0  0  0  0  0  0  0  0  0  0  0  0
   11.4783    0.3337   22.4234 C   0  0  0  0  0  0  0  0  0  0  0  0
    8.9084   -6.0093   26.9261 N   0  0  0  0  0  0  0  0  0  0  0  0
   10.4350   -1.9272   22.2737 N   0  0  0  0  0  0  0  0  0  0  0  0
    8.1961   -1.8215   21.6763 O   0  0  0  0  0  0  0  0  0  0  0  0
  1  4  2  0
  1  5  1  0
  2  6  2  0
  2  7  1  0
  3  8  2  0
  3  9  1  0
  4 10  1  0
  5 11  2  0
  6 12  1  0
  7 13  2  0
  8 14  1  0
  9 16  2  0
 10 17  2  0
 11 17  1  0
 12 18  2  0
 13 18  1  0
 14 20  2  0
 15 19  2  0
 15 30  1  0
 16 19  1  0
 16 20  1  0
 17 24  1  0
 18 27  1  0
 19 25  1  0
 20 30  1  0
 21 28  1  0
 21 31  1  0
 21 32  2  0
 22 28  1  0
 23 29  1  0
 24 27  1  0
 25 28  1  0
 26 29  1  0
 26 31  1  0
 27 29  1  0
M  END
