SWA-SYN-6423ea73-6
     RDKit          3D

 22 23  0  0  0  0  0  0  0  0999 V2000
    6.3069    0.4738   17.9616 C   0  0  0  0  0  0  0  0  0  0  0  0
    7.0345    0.3345   19.1259 C   0  0  0  0  0  0  0  0  0  0  0  0
    5.5252   -0.6086   17.6129 C   0  0  0  0  0  0  0  0  0  0  0  0
    6.2078   -1.7578   19.4515 C   0  0  0  0  0  0  0  0  0  0  0  0
    6.1531   -2.9922   20.2756 C   0  0  0  0  0  0  0  0  0  0  0  0
   11.0134    0.1070   23.9511 C   0  0  0  0  0  0  0  0  0  0  0  0
   10.6698   -2.1719   22.8742 C   0  0  0  0  0  0  0  0  0  0  0  0
    9.4145   -1.5294   24.8949 C   0  0  0  0  0  0  0  0  0  0  0  0
    9.3777   -2.6553   22.2225 C   0  0  0  0  0  0  0  0  0  0  0  0
    8.1186   -2.0071   24.2494 C   0  0  0  0  0  0  0  0  0  0  0  0
   12.0579    0.4019   22.9044 C   0  0  0  0  0  0  0  0  0  0  0  0
    7.0086   -0.7715   19.8982 N   0  0  0  0  0  0  0  0  0  0  0  0
    5.4517   -1.7445   18.3372 N   0  0  0  0  0  0  0  0  0  0  0  0
   10.3902   -1.1374   23.8769 N   0  0  0  0  0  0  0  0  0  0  0  0
    8.4228   -3.1035   23.2809 N   0  0  0  0  0  0  0  0  0  0  0  0
    6.3608   -2.8064   21.6802 N   0  0  0  0  0  0  0  0  0  0  0  0
    5.9422   -4.0820   19.7591 O   0  0  0  0  0  0  0  0  0  0  0  0
   10.7585    0.9590   24.8060 O   0  0  0  0  0  0  0  0  0  0  0  0
    7.5297   -5.1064   21.9279 O   0  0  0  0  0  0  0  0  0  0  0  0
    6.1617   -4.1895   23.8355 O   0  0  0  0  0  0  0  0  0  0  0  0
    7.0636   -3.9815   22.7173 S   0  0  0  0  0  0  0  0  0  0  0  0
   12.6399    2.0330   23.2188 Cl  0  0  0  0  0  0  0  0  0  0  0  0
  1  2  2  0
  1  3  1  0
  2 12  1  0
  3 13  2  0
  4  5  1  0
  4 12  2  0
  4 13  1  0
  5 16  1  0
  5 17  2  0
  6 11  1  0
  6 14  1  0
  6 18  2  0
  7  9  1  0
  7 14  1  0
  8 10  1  0
  8 14  1  0
  9 15  1  0
 10 15  1  0
 11 22  1  0
 15 21  1  0
 16 21  1  0
 19 21  2  0
 20 21  2  0
M  END
