SWA-SYN-d2e6fa14-3
     RDKit          3D

 24 26  0  0  0  0  0  0  0  0999 V2000
   11.1994    7.1498   23.9917 C   0  0  0  0  0  0  0  0  0  0  0  0
    9.9374    7.4014   24.5300 C   0  0  0  0  0  0  0  0  0  0  0  0
   11.5499    5.8542   23.6118 C   0  0  0  0  0  0  0  0  0  0  0  0
    9.0261    6.3574   24.6885 C   0  0  0  0  0  0  0  0  0  0  0  0
   10.2077   -4.9892   24.9282 C   0  0  0  0  0  0  0  0  0  0  0  0
    9.9990   -3.9244   24.0314 C   0  0  0  0  0  0  0  0  0  0  0  0
   11.4891   -4.8053   25.3873 C   0  0  0  0  0  0  0  0  0  0  0  0
   10.6386    4.8102   23.7703 C   0  0  0  0  0  0  0  0  0  0  0  0
    9.3766    5.0618   24.3087 C   0  0  0  0  0  0  0  0  0  0  0  0
   13.6753   -2.3837   23.6575 C   0  0  0  0  0  0  0  0  0  0  0  0
   12.2248    3.0850   22.8305 C   0  0  0  0  0  0  0  0  0  0  0  0
   12.5790   -0.2965   24.5775 C   0  0  0  0  0  0  0  0  0  0  0  0
   13.7027   -0.2938   22.3521 C   0  0  0  0  0  0  0  0  0  0  0  0
   11.7684    0.8586   23.9950 C   0  0  0  0  0  0  0  0  0  0  0  0
   13.8241    1.1994   22.6256 C   0  0  0  0  0  0  0  0  0  0  0  0
   13.2623   -3.0878   24.9263 C   0  0  0  0  0  0  0  0  0  0  0  0
   11.0625   -3.1232   23.9257 N   0  0  0  0  0  0  0  0  0  0  0  0
   11.9518   -3.6849   24.7622 N   0  0  0  0  0  0  0  0  0  0  0  0
   13.3145   -1.0402   23.5492 N   0  0  0  0  0  0  0  0  0  0  0  0
   12.5731    1.7518   23.1493 N   0  0  0  0  0  0  0  0  0  0  0  0
   11.0097    3.4994   23.3804 N   0  0  0  0  0  0  0  0  0  0  0  0
   14.2940   -3.0039   22.7893 O   0  0  0  0  0  0  0  0  0  0  0  0
   12.9424    3.7864   22.1142 O   0  0  0  0  0  0  0  0  0  0  0  0
    8.4713    4.0560   24.4723 O   0  0  0  0  0  0  0  0  0  0  0  0
  1  2  2  0
  1  3  1  0
  2  4  1  0
  3  8  2  0
  4  9  2  0
  5  6  1  0
  5  7  2  0
  6 17  2  0
  7 18  1  0
  8  9  1  0
  8 21  1  0
  9 24  1  0
 10 16  1  0
 10 19  1  0
 10 22  2  0
 11 20  1  0
 11 21  1  0
 11 23  2  0
 12 14  1  0
 12 19  1  0
 13 15  1  0
 13 19  1  0
 14 20  1  0
 15 20  1  0
 16 18  1  0
 17 18  1  0
M  END
