SWA-SYN-59528602-3
     RDKit          3D

 18 19  0  0  0  0  0  0  0  0999 V2000
    7.2036   -3.3765   21.3129 C   0  0  0  0  0  0  0  0  0  0  0  0
   13.6450   -0.1119   22.5253 C   0  0  0  0  0  0  0  0  0  0  0  0
   12.6129    0.3444   23.3452 C   0  0  0  0  0  0  0  0  0  0  0  0
   13.5221   -1.3339   21.8641 C   0  0  0  0  0  0  0  0  0  0  0  0
    6.8145    0.3587   18.7922 C   0  0  0  0  0  0  0  0  0  0  0  0
   11.4579   -0.4214   23.5040 C   0  0  0  0  0  0  0  0  0  0  0  0
   12.3671   -2.0997   22.0229 C   0  0  0  0  0  0  0  0  0  0  0  0
    7.9333   -0.2960   19.2950 C   0  0  0  0  0  0  0  0  0  0  0  0
    5.7683    0.6172   19.6631 C   0  0  0  0  0  0  0  0  0  0  0  0
    6.8734   -0.3623   21.4231 C   0  0  0  0  0  0  0  0  0  0  0  0
   11.3350   -1.6435   22.8428 C   0  0  0  0  0  0  0  0  0  0  0  0
    7.9712   -0.6669   20.6346 C   0  0  0  0  0  0  0  0  0  0  0  0
    9.1494   -2.2642   22.2039 C   0  0  0  0  0  0  0  0  0  0  0  0
    6.5497   -3.6462   20.3931 N   0  0  0  0  0  0  0  0  0  0  0  0
    5.7689    0.2724   20.9703 N   0  0  0  0  0  0  0  0  0  0  0  0
   10.1774   -2.4117   23.0020 N   0  0  0  0  0  0  0  0  0  0  0  0
    7.9540   -3.0710   22.3835 N   0  0  0  0  0  0  0  0  0  0  0  0
    9.0947   -1.3333   21.1742 N   0  0  0  0  0  0  0  0  0  0  0  0
  1 14  3  0
  1 17  1  0
  2  3  2  0
  2  4  1  0
  3  6  1  0
  4  7  2  0
  5  8  2  0
  5  9  1  0
  6 11  2  0
  7 11  1  0
  8 12  1  0
  9 15  2  0
 10 12  2  0
 10 15  1  0
 11 16  1  0
 12 18  1  0
 13 16  2  0
 13 17  1  0
 13 18  1  0
M  END
