SWA-SYN-40d44a84-2
     RDKit          3D

 26 28  0  0  0  0  0  0  0  0999 V2000
   11.2644    1.4933   26.0505 C   0  0  0  0  0  0  0  0  0  0  0  0
   12.1856    2.5246   25.8464 C   0  0  0  0  0  0  0  0  0  0  0  0
   12.8843    1.5599   23.7302 C   0  0  0  0  0  0  0  0  0  0  0  0
   11.6040   -0.6388   23.1550 C   0  0  0  0  0  0  0  0  0  0  0  0
   11.9627    0.5100   23.9143 C   0  0  0  0  0  0  0  0  0  0  0  0
   11.1756    0.5009   25.0679 C   0  0  0  0  0  0  0  0  0  0  0  0
   12.9840    2.5594   24.7049 C   0  0  0  0  0  0  0  0  0  0  0  0
   10.6246   -1.3107   23.8495 C   0  0  0  0  0  0  0  0  0  0  0  0
    9.9333   -2.5517   23.4789 C   0  0  0  0  0  0  0  0  0  0  0  0
    5.9901   -2.4509   19.6182 C   0  0  0  0  0  0  0  0  0  0  0  0
    8.0479   -3.6656   22.3288 C   0  0  0  0  0  0  0  0  0  0  0  0
    8.0948   -1.2014   22.3378 C   0  0  0  0  0  0  0  0  0  0  0  0
    7.7828   -3.6570   20.8262 C   0  0  0  0  0  0  0  0  0  0  0  0
    7.8327   -1.1845   20.8338 C   0  0  0  0  0  0  0  0  0  0  0  0
   12.3833    5.8001   24.1487 C   0  0  0  0  0  0  0  0  0  0  0  0
    5.3808   -1.1242   19.2413 C   0  0  0  0  0  0  0  0  0  0  0  0
   10.3728   -0.6155   25.0017 N   0  0  0  0  0  0  0  0  0  0  0  0
    8.7603   -2.4517   22.7292 N   0  0  0  0  0  0  0  0  0  0  0  0
    7.1337   -2.4083   20.4144 N   0  0  0  0  0  0  0  0  0  0  0  0
   13.9159    3.6273   24.5255 N   0  0  0  0  0  0  0  0  0  0  0  0
   10.4560   -3.5993   23.8561 O   0  0  0  0  0  0  0  0  0  0  0  0
    5.4630   -3.4923   19.2189 O   0  0  0  0  0  0  0  0  0  0  0  0
   14.7693    5.6188   23.1281 O   0  0  0  0  0  0  0  0  0  0  0  0
   12.9352    4.1866   22.1639 O   0  0  0  0  0  0  0  0  0  0  0  0
   13.5866    4.7971   23.3058 S   0  0  0  0  0  0  0  0  0  0  0  0
    6.1651   -0.6151   17.7501 Cl  0  0  0  0  0  0  0  0  0  0  0  0
  1  2  2  0
  1  6  1  0
  2  7  1  0
  3  5  1  0
  3  7  2  0
  4  5  1  0
  4  8  2  0
  5  6  2  0
  6 17  1  0
  7 20  1  0
  8  9  1  0
  8 17  1  0
  9 18  1  0
  9 21  2  0
 10 16  1  0
 10 19  1  0
 10 22  2  0
 11 13  1  0
 11 18  1  0
 12 14  1  0
 12 18  1  0
 13 19  1  0
 14 19  1  0
 15 25  1  0
 16 26  1  0
 20 25  1  0
 23 25  2  0
 24 25  2  0
M  END
