SWA-SYN-40d44a84-4
     RDKit          3D

 18 20  0  0  0  0  0  0  0  0999 V2000
   14.1843   -1.4036   23.9419 C   0  0  0  0  0  0  0  0  0  0  0  0
   14.4979   -1.9383   22.6902 C   0  0  0  0  0  0  0  0  0  0  0  0
   13.0489   -0.6033   24.1207 C   0  0  0  0  0  0  0  0  0  0  0  0
   13.6911   -1.6943   21.5739 C   0  0  0  0  0  0  0  0  0  0  0  0
   12.2272   -0.3476   23.0099 C   0  0  0  0  0  0  0  0  0  0  0  0
   12.5657   -0.8946   21.7754 C   0  0  0  0  0  0  0  0  0  0  0  0
   10.7108    0.3054   21.6558 C   0  0  0  0  0  0  0  0  0  0  0  0
    5.5328    1.2890   20.7713 C   0  0  0  0  0  0  0  0  0  0  0  0
    6.9448    1.0050   20.8315 C   0  0  0  0  0  0  0  0  0  0  0  0
    4.8967    1.2217   19.5978 C   0  0  0  0  0  0  0  0  0  0  0  0
    7.6469    0.6724   19.7351 C   0  0  0  0  0  0  0  0  0  0  0  0
    6.9282    0.5981   18.4156 C   0  0  0  0  0  0  0  0  0  0  0  0
    9.1025    0.3705   19.7493 C   0  0  0  0  0  0  0  0  0  0  0  0
   11.0722    0.3944   22.9162 N   0  0  0  0  0  0  0  0  0  0  0  0
   11.5785   -0.4606   20.9281 N   0  0  0  0  0  0  0  0  0  0  0  0
    5.5722    0.8865   18.4525 N   0  0  0  0  0  0  0  0  0  0  0  0
    9.6469    0.8455   21.0216 N   0  0  0  0  0  0  0  0  0  0  0  0
    7.5261    0.2993   17.3840 O   0  0  0  0  0  0  0  0  0  0  0  0
  1  2  2  0
  1  3  1  0
  2  4  1  0
  3  5  2  0
  4  6  2  0
  5  6  1  0
  5 14  1  0
  6 15  1  0
  7 14  2  0
  7 15  1  0
  7 17  1  0
  8  9  1  0
  8 10  2  0
  9 11  2  0
 10 16  1  0
 11 12  1  0
 11 13  1  0
 12 16  1  0
 12 18  2  0
 13 17  1  0
M  END
