SWA-SYN-d2e6fa14-1
     RDKit          3D

 20 21  0  0  0  0  0  0  0  0999 V2000
   14.2663   -2.5898   26.0811 C   0  0  0  0  0  0  0  0  0  0  0  0
   14.2967   -1.2235   26.3600 C   0  0  0  0  0  0  0  0  0  0  0  0
   13.0939   -3.1792   25.6081 C   0  0  0  0  0  0  0  0  0  0  0  0
   13.1547   -0.4465   26.1661 C   0  0  0  0  0  0  0  0  0  0  0  0
   11.9518   -2.4022   25.4141 C   0  0  0  0  0  0  0  0  0  0  0  0
   11.9822   -1.0359   25.6931 C   0  0  0  0  0  0  0  0  0  0  0  0
    6.1325   -5.2334   21.1918 C   0  0  0  0  0  0  0  0  0  0  0  0
   10.5739   -4.3609   24.6098 C   0  0  0  0  0  0  0  0  0  0  0  0
    7.8273   -6.1053   22.8472 C   0  0  0  0  0  0  0  0  0  0  0  0
    8.2232   -3.9806   21.6064 C   0  0  0  0  0  0  0  0  0  0  0  0
    9.3091   -5.9399   23.1668 C   0  0  0  0  0  0  0  0  0  0  0  0
    8.9100   -3.4958   22.8789 C   0  0  0  0  0  0  0  0  0  0  0  0
    5.0272   -5.9533   21.9254 C   0  0  0  0  0  0  0  0  0  0  0  0
    7.3481   -5.1231   21.8683 N   0  0  0  0  0  0  0  0  0  0  0  0
    9.6168   -4.5717   23.5896 N   0  0  0  0  0  0  0  0  0  0  0  0
   10.7680   -3.0157   24.9337 N   0  0  0  0  0  0  0  0  0  0  0  0
    5.9259   -4.7903   20.0598 O   0  0  0  0  0  0  0  0  0  0  0  0
   11.1573   -5.3008   25.1538 O   0  0  0  0  0  0  0  0  0  0  0  0
   10.8773   -0.2587   25.5108 O   0  0  0  0  0  0  0  0  0  0  0  0
    4.7611   -5.0705   23.4241 Cl  0  0  0  0  0  0  0  0  0  0  0  0
  1  2  2  0
  1  3  1  0
  2  4  1  0
  3  5  2  0
  4  6  2  0
  5  6  1  0
  5 16  1  0
  6 19  1  0
  7 13  1  0
  7 14  1  0
  7 17  2  0
  8 15  1  0
  8 16  1  0
  8 18  2  0
  9 11  1  0
  9 14  1  0
 10 12  1  0
 10 14  1  0
 11 15  1  0
 12 15  1  0
 13 20  1  0
M  END
