SWA-SYN-6423ea73-2
     RDKit          3D

 21 22  0  0  0  0  0  0  0  0999 V2000
   13.1077    1.3039   23.7494 C   0  0  0  0  0  0  0  0  0  0  0  0
   14.3229    0.7237   23.3859 C   0  0  0  0  0  0  0  0  0  0  0  0
   11.9070    0.7022   23.3722 C   0  0  0  0  0  0  0  0  0  0  0  0
   14.3376   -0.4580   22.6450 C   0  0  0  0  0  0  0  0  0  0  0  0
   11.9217   -0.4795   22.6314 C   0  0  0  0  0  0  0  0  0  0  0  0
   13.1369   -1.0597   22.2677 C   0  0  0  0  0  0  0  0  0  0  0  0
    5.9462   -1.8560   19.1091 C   0  0  0  0  0  0  0  0  0  0  0  0
    7.3936   -0.6986   20.8315 C   0  0  0  0  0  0  0  0  0  0  0  0
    6.7444   -3.0855   21.0962 C   0  0  0  0  0  0  0  0  0  0  0  0
    7.5697   -0.7735   22.3425 C   0  0  0  0  0  0  0  0  0  0  0  0
    8.0749   -3.1870   21.8290 C   0  0  0  0  0  0  0  0  0  0  0  0
    5.9280   -0.5562   18.3431 C   0  0  0  0  0  0  0  0  0  0  0  0
    6.6683   -1.8587   20.3027 N   0  0  0  0  0  0  0  0  0  0  0  0
    8.2559   -2.0318   22.7510 N   0  0  0  0  0  0  0  0  0  0  0  0
   10.6736   -1.0884   22.2496 N   0  0  0  0  0  0  0  0  0  0  0  0
    5.3373   -2.8330   18.6669 O   0  0  0  0  0  0  0  0  0  0  0  0
    9.6574   -0.9587   24.6065 O   0  0  0  0  0  0  0  0  0  0  0  0
   10.3196   -3.2167   23.7162 O   0  0  0  0  0  0  0  0  0  0  0  0
   13.1715   -2.2134   21.5433 O   0  0  0  0  0  0  0  0  0  0  0  0
    9.7837   -1.8856   23.4949 S   0  0  0  0  0  0  0  0  0  0  0  0
    4.5173    0.3370   18.8999 Cl  0  0  0  0  0  0  0  0  0  0  0  0
  1  2  2  0
  1  3  1  0
  2  4  1  0
  3  5  2  0
  4  6  2  0
  5  6  1  0
  5 15  1  0
  6 19  1  0
  7 12  1  0
  7 13  1  0
  7 16  2  0
  8 10  1  0
  8 13  1  0
  9 11  1  0
  9 13  1  0
 10 14  1  0
 11 14  1  0
 12 21  1  0
 14 20  1  0
 15 20  1  0
 17 20  2  0
 18 20  2  0
M  END
