SWA-SYN-d2e6fa14-8
     RDKit          3D

 22 24  0  0  1  0  0  0  0  0999 V2000
   14.2033   -1.4414   22.4240 C   0  0  0  0  0  0  0  0  0  0  0  0
   13.0440   -2.1035   22.8278 C   0  0  0  0  0  0  0  0  0  0  0  0
   14.2454   -0.0471   22.4215 C   0  0  0  0  0  0  0  0  0  0  0  0
   10.2256    6.6749   24.5070 C   0  0  0  0  0  0  0  0  0  0  0  0
   11.9686    0.0229   23.2267 C   0  0  0  0  0  0  0  0  0  0  0  0
   10.0921    6.8257   23.1137 C   0  0  0  0  0  0  0  0  0  0  0  0
   11.2122    5.7312   24.6572 C   0  0  0  0  0  0  0  0  0  0  0  0
   11.9266   -1.3714   23.2291 C   0  0  0  0  0  0  0  0  0  0  0  0
   13.1280    0.6850   22.8228 C   0  0  0  0  0  0  0  0  0  0  0  0
   12.1562    2.9795   23.1876 C   0  0  0  0  0  0  0  0  0  0  0  0
    8.8497   -1.1632   24.8867 C   0  0  0  0  0  0  0  0  0  0  0  0
   10.2134   -1.8328   25.0349 C   0  0  0  0  0  0  0  0  0  0  0  0
    8.1588   -1.8597   23.7267 C   0  0  0  0  0  0  0  0  0  0  0  0
   12.6231    4.4153   23.0348 C   0  0  0  0  0  0  0  0  0  0  0  0
   10.9274    6.0409   22.4278 N   0  0  0  0  0  0  0  0  0  0  0  0
   11.5951    5.3879   23.3940 N   0  0  0  0  0  0  0  0  0  0  0  0
   10.7270   -2.0573   23.6472 N   0  0  0  0  0  0  0  0  0  0  0  0
   13.1698    2.0796   22.8203 N   0  0  0  0  0  0  0  0  0  0  0  0
   11.0314    2.6949   23.5858 O   0  0  0  0  0  0  0  0  0  0  0  0
    9.4581   -0.8198   21.6988 O   0  0  0  0  0  0  0  0  0  0  0  0
    9.3055   -3.3443   21.8701 O   0  0  0  0  0  0  0  0  0  0  0  0
    9.4245   -2.0380   22.4835 S   0  0  0  0  0  0  0  0  0  0  0  0
  1  2  2  0
  1  3  1  0
  2  8  1  0
  3  9  2  0
  4  6  1  0
  4  7  2  0
  5  8  2  0
  5  9  1  0
  6 15  2  0
  7 16  1  0
  8 17  1  0
  9 18  1  0
 10 14  1  0
 10 18  1  0
 10 19  2  0
 11 12  1  0
 11 13  1  0
 12 17  1  0
 13 22  1  0
 14 16  1  0
 15 16  1  0
 17 22  1  0
 20 22  2  0
 21 22  2  0
M  END
