SWA-SYN-d2e6fa14-7
     RDKit          3D

 22 23  0  0  0  0  0  0  0  0999 V2000
    6.5465   -6.3084   29.7043 C   0  0  0  0  0  0  0  0  0  0  0  0
    7.4555   -4.4664   28.3772 C   0  0  0  0  0  0  0  0  0  0  0  0
    8.2524   -6.7159   28.0004 C   0  0  0  0  0  0  0  0  0  0  0  0
    8.3138   -3.9959   27.3835 C   0  0  0  0  0  0  0  0  0  0  0  0
    9.1107   -6.2453   27.0067 C   0  0  0  0  0  0  0  0  0  0  0  0
    7.4248   -5.8264   28.6857 C   0  0  0  0  0  0  0  0  0  0  0  0
    9.1414   -4.8853   26.6982 C   0  0  0  0  0  0  0  0  0  0  0  0
    6.0172   -1.6600   19.5819 C   0  0  0  0  0  0  0  0  0  0  0  0
    9.3571   -2.7873   23.8589 C   0  0  0  0  0  0  0  0  0  0  0  0
    6.4919   -3.2088   21.5424 C   0  0  0  0  0  0  0  0  0  0  0  0
    7.2862   -0.8816   21.5592 C   0  0  0  0  0  0  0  0  0  0  0  0
    7.8772   -3.6961   21.9694 C   0  0  0  0  0  0  0  0  0  0  0  0
    8.6791   -1.3541   21.9565 C   0  0  0  0  0  0  0  0  0  0  0  0
   10.0641   -4.3791   25.6275 C   0  0  0  0  0  0  0  0  0  0  0  0
    6.2320   -0.2718   19.0341 C   0  0  0  0  0  0  0  0  0  0  0  0
    5.8331   -6.7000   30.5316 N   0  0  0  0  0  0  0  0  0  0  0  0
    6.5798   -1.9323   20.8271 N   0  0  0  0  0  0  0  0  0  0  0  0
    8.6289   -2.6379   22.6657 N   0  0  0  0  0  0  0  0  0  0  0  0
    9.3557   -4.0646   24.4069 N   0  0  0  0  0  0  0  0  0  0  0  0
    5.3672   -2.4753   18.9227 O   0  0  0  0  0  0  0  0  0  0  0  0
    9.9674   -1.8542   24.3915 O   0  0  0  0  0  0  0  0  0  0  0  0
    5.4531   -0.2281   17.4569 Cl  0  0  0  0  0  0  0  0  0  0  0  0
  1  6  1  0
  1 16  3  0
  2  4  2  0
  2  6  1  0
  3  5  1  0
  3  6  2  0
  4  7  1  0
  5  7  2  0
  7 14  1  0
  8 15  1  0
  8 17  1  0
  8 20  2  0
  9 18  1  0
  9 19  1  0
  9 21  2  0
 10 12  1  0
 10 17  1  0
 11 13  1  0
 11 17  1  0
 12 18  1  0
 13 18  1  0
 14 19  1  0
 15 22  1  0
M  END
