TAM-UNI-d1c3dd9f-9
     RDKit          3D

 25 27  0  0  1  0  0  0  0  0999 V2000
    7.4707   -6.0775   23.2605 C   0  0  0  0  0  0  0  0  0  0  0  0
    6.2113   -5.5720   22.9379 C   0  0  0  0  0  0  0  0  0  0  0  0
    8.6155   -5.3358   22.9689 C   0  0  0  0  0  0  0  0  0  0  0  0
    6.0967   -4.3250   22.3236 C   0  0  0  0  0  0  0  0  0  0  0  0
    8.5010   -4.0888   22.3546 C   0  0  0  0  0  0  0  0  0  0  0  0
    7.2416   -3.5833   22.0319 C   0  0  0  0  0  0  0  0  0  0  0  0
    5.9983   -2.4996   19.2774 C   0  0  0  0  0  0  0  0  0  0  0  0
   13.5901   -2.1793   25.8804 C   0  0  0  0  0  0  0  0  0  0  0  0
    6.7264   -0.0452   21.0897 C   0  0  0  0  0  0  0  0  0  0  0  0
    7.4760   -0.5965   19.8860 C   0  0  0  0  0  0  0  0  0  0  0  0
    6.9658   -1.0983   22.1677 C   0  0  0  0  0  0  0  0  0  0  0  0
   12.0889   -1.1754   24.1893 C   0  0  0  0  0  0  0  0  0  0  0  0
   11.2064   -3.0119   25.5755 C   0  0  0  0  0  0  0  0  0  0  0  0
   11.5778   -1.8549   22.9273 C   0  0  0  0  0  0  0  0  0  0  0  0
   10.6801   -3.7187   24.3337 C   0  0  0  0  0  0  0  0  0  0  0  0
    7.2564   -2.1077   19.9879 C   0  0  0  0  0  0  0  0  0  0  0  0
    9.7490   -3.3128   22.0525 C   0  0  0  0  0  0  0  0  0  0  0  0
   13.7777   -3.2210   26.9543 C   0  0  0  0  0  0  0  0  0  0  0  0
    7.1094   -2.3501   21.4233 N   0  0  0  0  0  0  0  0  0  0  0  0
   12.3495   -2.1543   25.2447 N   0  0  0  0  0  0  0  0  0  0  0  0
    6.0127   -2.2228   17.9307 N   0  0  0  0  0  0  0  0  0  0  0  0
   10.3638   -2.6879   23.2732 N   0  0  0  0  0  0  0  0  0  0  0  0
    5.0584   -3.0339   19.8609 O   0  0  0  0  0  0  0  0  0  0  0  0
   14.5200   -1.4135   25.6142 O   0  0  0  0  0  0  0  0  0  0  0  0
   14.3763   -4.6689   26.1525 Cl  0  0  0  0  0  0  0  0  0  0  0  0
  1  2  2  0
  1  3  1  0
  2  4  1  0
  3  5  2  0
  4  6  2  0
  5  6  1  0
  5 17  1  0
  6 19  1  0
  7 16  1  0
  7 21  1  0
  7 23  2  0
  8 18  1  0
  8 20  1  0
  8 24  2  0
  9 10  1  0
  9 11  1  0
 10 16  1  0
 11 19  1  0
 12 14  1  0
 12 20  1  0
 13 15  1  0
 13 20  1  0
 14 22  1  0
 15 22  1  0
 16 19  1  0
 17 22  1  0
 18 25  1  0
M  CHG  1  22   1
M  END
