TAM-UNI-c140e31a-17
     RDKit          3D

 27 30  0  0  0  0  0  0  0  0999 V2000
    6.0606    1.1898   19.7807 C   0  0  0  0  0  0  0  0  0  0  0  0
    6.9258    1.4146   20.8500 C   0  0  0  0  0  0  0  0  0  0  0  0
   10.8342   -3.1374   22.5241 C   0  0  0  0  0  0  0  0  0  0  0  0
   12.1186   -2.6965   22.8426 C   0  0  0  0  0  0  0  0  0  0  0  0
   11.1772   -0.7674   23.9365 C   0  0  0  0  0  0  0  0  0  0  0  0
    6.5535    0.5656   18.6427 C   0  0  0  0  0  0  0  0  0  0  0  0
   10.4455    0.4397   20.8116 C   0  0  0  0  0  0  0  0  0  0  0  0
    8.2585    0.9935   20.7147 C   0  0  0  0  0  0  0  0  0  0  0  0
    9.6980   -2.4038   22.9094 C   0  0  0  0  0  0  0  0  0  0  0  0
    9.4232    1.0259   21.5265 C   0  0  0  0  0  0  0  0  0  0  0  0
    9.8782   -1.2042   23.6254 C   0  0  0  0  0  0  0  0  0  0  0  0
   12.2901   -1.5100   23.5457 C   0  0  0  0  0  0  0  0  0  0  0  0
    8.6182    0.3804   19.5181 C   0  0  0  0  0  0  0  0  0  0  0  0
    8.5856    0.9161   23.8764 C   0  0  0  0  0  0  0  0  0  0  0  0
    8.3422   -2.8713   22.4333 C   0  0  0  0  0  0  0  0  0  0  0  0
    7.3561   -3.2048   23.5479 C   0  0  0  0  0  0  0  0  0  0  0  0
    6.7840   -1.9688   24.2363 C   0  0  0  0  0  0  0  0  0  0  0  0
    7.8414   -1.1732   24.9885 C   0  0  0  0  0  0  0  0  0  0  0  0
    9.5325    1.5925   22.9096 C   0  0  0  0  0  0  0  0  0  0  0  0
    7.8246    0.1398   18.4572 N   0  0  0  0  0  0  0  0  0  0  0  0
    9.9461    0.0523   19.5952 N   0  0  0  0  0  0  0  0  0  0  0  0
    8.7626   -0.4542   24.0994 N   0  0  0  0  0  0  0  0  0  0  0  0
   14.2881   -0.0265   22.5954 N   0  0  0  0  0  0  0  0  0  0  0  0
    7.6827    1.5840   24.3895 O   0  0  0  0  0  0  0  0  0  0  0  0
   13.8004   -0.0967   25.1258 O   0  0  0  0  0  0  0  0  0  0  0  0
   14.7787   -2.1283   24.0019 O   0  0  0  0  0  0  0  0  0  0  0  0
   13.8965   -0.9703   23.9648 S   0  0  0  0  0  0  0  0  0  0  0  0
  1  2  2  0
  1  6  1  0
  2  8  1  0
  3  4  2  0
  3  9  1  0
  4 12  1  0
  5 11  1  0
  5 12  2  0
  6 20  2  0
  7 10  2  0
  7 21  1  0
  8 10  1  0
  8 13  2  0
  9 11  2  0
  9 15  1  0
 10 19  1  0
 11 22  1  0
 12 27  1  0
 13 20  1  0
 13 21  1  0
 14 19  1  0
 14 22  1  0
 14 24  2  0
 15 16  1  0
 16 17  1  0
 17 18  1  0
 18 22  1  0
 23 27  1  0
 25 27  2  0
 26 27  2  0
M  END
