TAM-UNI-d1c3dd9f-10
     RDKit          3D

 27 29  0  0  1  0  0  0  0  0999 V2000
   10.4685   -3.1890   25.1754 C   0  0  0  0  0  0  0  0  0  0  0  0
   13.7189   -0.1952   23.0694 C   0  0  0  0  0  0  0  0  0  0  0  0
   12.9526   -0.9772   22.2125 C   0  0  0  0  0  0  0  0  0  0  0  0
    8.9204   -4.5465   23.8767 C   0  0  0  0  0  0  0  0  0  0  0  0
   13.1219    0.4165   24.1695 C   0  0  0  0  0  0  0  0  0  0  0  0
   11.5928   -1.1623   22.4645 C   0  0  0  0  0  0  0  0  0  0  0  0
    7.9154   -4.6696   22.9173 C   0  0  0  0  0  0  0  0  0  0  0  0
    7.9443   -2.2774   22.5801 C   0  0  0  0  0  0  0  0  0  0  0  0
    9.4373   -3.2889   24.1878 C   0  0  0  0  0  0  0  0  0  0  0  0
   11.7521    0.2468   24.4290 C   0  0  0  0  0  0  0  0  0  0  0  0
   10.9803   -0.5822   23.5896 C   0  0  0  0  0  0  0  0  0  0  0  0
    8.9493   -2.1544   23.5395 C   0  0  0  0  0  0  0  0  0  0  0  0
    7.4273   -3.5351   22.2690 C   0  0  0  0  0  0  0  0  0  0  0  0
    8.8584    1.9222   26.1167 C   0  0  0  0  0  0  0  0  0  0  0  0
   11.1535    0.9624   25.6167 C   0  0  0  0  0  0  0  0  0  0  0  0
    9.1195   -0.3953   25.3000 C   0  0  0  0  0  0  0  0  0  0  0  0
    9.4895   -0.7660   23.8528 C   0  0  0  0  0  0  0  0  0  0  0  0
    4.2086   -4.7133   22.7071 C   0  0  0  0  0  0  0  0  0  0  0  0
    9.5397    3.1819   26.5904 C   0  0  0  0  0  0  0  0  0  0  0  0
   11.3046   -3.1079   25.9761 N   0  0  0  0  0  0  0  0  0  0  0  0
    9.6899    0.8987   25.6611 N   0  0  0  0  0  0  0  0  0  0  0  0
    4.7469   -3.5412   22.0020 N   0  0  0  0  0  0  0  0  0  0  0  0
    7.6271    1.8534   26.1479 O   0  0  0  0  0  0  0  0  0  0  0  0
    6.2496   -2.5546   20.1567 O   0  0  0  0  0  0  0  0  0  0  0  0
    6.2338   -5.0417   20.5287 O   0  0  0  0  0  0  0  0  0  0  0  0
    6.1701   -3.6896   21.0673 S   0  0  0  0  0  0  0  0  0  0  0  0
    9.7194    4.2175   25.1789 Cl  0  0  0  0  0  0  0  0  0  0  0  0
  1  9  1  0
  1 20  3  0
  2  3  2  0
  2  5  1  0
  3  6  1  0
  4  7  2  0
  4  9  1  0
  5 10  2  0
  6 11  2  0
  7 13  1  0
  8 12  1  0
  8 13  2  0
  9 12  2  0
 10 11  1  0
 10 15  1  0
 11 17  1  0
 12 17  1  0
 13 26  1  0
 14 19  1  0
 14 21  1  0
 14 23  2  0
 15 21  1  0
 16 17  1  0
 16 21  1  0
 18 22  1  0
 19 27  1  0
 22 26  1  0
 24 26  2  0
 25 26  2  0
M  END
