TAM-UNI-d1c3dd9f-19
     RDKit          3D

 27 29  0  0  0  0  0  0  0  0999 V2000
   12.8757    0.4598   23.1122 C   0  0  0  0  0  0  0  0  0  0  0  0
   12.1487   -0.5665   22.4981 C   0  0  0  0  0  0  0  0  0  0  0  0
   10.4213   -0.4348   24.2020 C   0  0  0  0  0  0  0  0  0  0  0  0
   11.9014    2.2291   26.1587 C   0  0  0  0  0  0  0  0  0  0  0  0
   12.3720    1.0502   24.2883 C   0  0  0  0  0  0  0  0  0  0  0  0
   10.9406   -1.0053   23.0363 C   0  0  0  0  0  0  0  0  0  0  0  0
   12.8289    2.0840   25.1528 C   0  0  0  0  0  0  0  0  0  0  0  0
   11.1589    0.5902   24.8050 C   0  0  0  0  0  0  0  0  0  0  0  0
    5.9392   -1.1755   18.9212 C   0  0  0  0  0  0  0  0  0  0  0  0
   11.6734    4.7993   23.7319 C   0  0  0  0  0  0  0  0  0  0  0  0
    6.6351   -2.3836   20.9651 C   0  0  0  0  0  0  0  0  0  0  0  0
    7.4275   -0.0698   20.6620 C   0  0  0  0  0  0  0  0  0  0  0  0
    8.0464   -2.8453   21.2974 C   0  0  0  0  0  0  0  0  0  0  0  0
    8.8515   -0.4967   20.9919 C   0  0  0  0  0  0  0  0  0  0  0  0
   10.7766    5.9252   24.1272 C   0  0  0  0  0  0  0  0  0  0  0  0
    9.7373    1.1719   26.7913 C   0  0  0  0  0  0  0  0  0  0  0  0
   14.0720    2.8677   25.0056 C   0  0  0  0  0  0  0  0  0  0  0  0
   10.1845   -2.1083   22.3561 C   0  0  0  0  0  0  0  0  0  0  0  0
    6.0187    0.0890   18.1035 C   0  0  0  0  0  0  0  0  0  0  0  0
   14.0043    3.9533   23.9161 C   0  0  0  0  0  0  0  0  0  0  0  0
   10.8980    1.3237   25.9404 N   0  0  0  0  0  0  0  0  0  0  0  0
    6.6578   -1.1927   20.1157 N   0  0  0  0  0  0  0  0  0  0  0  0
   12.9778    4.9251   24.1822 N   0  0  0  0  0  0  0  0  0  0  0  0
    8.8090   -1.6942   21.9146 N   0  0  0  0  0  0  0  0  0  0  0  0
    5.2605   -2.1191   18.5079 O   0  0  0  0  0  0  0  0  0  0  0  0
   11.2239    3.8742   23.0657 O   0  0  0  0  0  0  0  0  0  0  0  0
    7.4094   -0.0861   17.0391 Cl  0  0  0  0  0  0  0  0  0  0  0  0
  1  2  2  0
  1  5  1  0
  2  6  1  0
  3  6  2  0
  3  8  1  0
  4  7  2  0
  4 21  1  0
  5  7  1  0
  5  8  2  0
  6 18  1  0
  7 17  1  0
  8 21  1  0
  9 19  1  0
  9 22  1  0
  9 25  2  0
 10 15  1  0
 10 23  1  0
 10 26  2  0
 11 13  1  0
 11 22  1  0
 12 14  1  0
 12 22  1  0
 13 24  1  0
 14 24  1  0
 16 21  1  0
 17 20  1  0
 18 24  1  0
 19 27  1  0
 20 23  1  0
M  CHG  1  24   1
M  END
