TAM-UNI-c140e31a-4
     RDKit          3D

 26 29  0  0  0  0  0  0  0  0999 V2000
    5.4422   -5.5338   26.4339 C   0  0  0  0  0  0  0  0  0  0  0  0
    5.5139   -4.6338   25.3722 C   0  0  0  0  0  0  0  0  0  0  0  0
   10.5523   -1.2876   23.1179 C   0  0  0  0  0  0  0  0  0  0  0  0
   10.6284   -2.3307   24.0344 C   0  0  0  0  0  0  0  0  0  0  0  0
    8.7004   -3.3552   22.9999 C   0  0  0  0  0  0  0  0  0  0  0  0
    5.3206   -6.8883   26.1541 C   0  0  0  0  0  0  0  0  0  0  0  0
    5.3973   -5.6621   21.8694 C   0  0  0  0  0  0  0  0  0  0  0  0
    5.4585   -5.1521   24.0683 C   0  0  0  0  0  0  0  0  0  0  0  0
    9.5396   -1.2594   22.1424 C   0  0  0  0  0  0  0  0  0  0  0  0
    5.4965   -4.6113   22.7558 C   0  0  0  0  0  0  0  0  0  0  0  0
    8.5754   -2.2929   22.0913 C   0  0  0  0  0  0  0  0  0  0  0  0
    9.7083   -3.3684   23.9686 C   0  0  0  0  0  0  0  0  0  0  0  0
    5.3356   -6.5319   23.9323 C   0  0  0  0  0  0  0  0  0  0  0  0
    6.3470   -2.9733   21.0793 C   0  0  0  0  0  0  0  0  0  0  0  0
    9.5637   -0.1287   21.1428 C   0  0  0  0  0  0  0  0  0  0  0  0
    8.2777   -0.0377   20.3372 C   0  0  0  0  0  0  0  0  0  0  0  0
    7.8473   -1.4288   19.9055 C   0  0  0  0  0  0  0  0  0  0  0  0
    5.6208   -3.1641   22.3898 C   0  0  0  0  0  0  0  0  0  0  0  0
    5.2623   -7.4429   24.9210 N   0  0  0  0  0  0  0  0  0  0  0  0
    5.2998   -6.8218   22.5937 N   0  0  0  0  0  0  0  0  0  0  0  0
    7.5532   -2.2635   21.0787 N   0  0  0  0  0  0  0  0  0  0  0  0
    8.8003   -4.0925   26.3676 N   0  0  0  0  0  0  0  0  0  0  0  0
    5.8002   -3.3803   20.0475 O   0  0  0  0  0  0  0  0  0  0  0  0
    9.1681   -5.8529   24.5207 O   0  0  0  0  0  0  0  0  0  0  0  0
   11.1667   -4.7712   25.6084 O   0  0  0  0  0  0  0  0  0  0  0  0
    9.7999   -4.6835   25.1146 S   0  0  0  0  0  0  0  0  0  0  0  0
  1  2  2  0
  1  6  1  0
  2  8  1  0
  3  4  2  0
  3  9  1  0
  4 12  1  0
  5 11  1  0
  5 12  2  0
  6 19  2  0
  7 10  2  0
  7 20  1  0
  8 10  1  0
  8 13  2  0
  9 11  2  0
  9 15  1  0
 10 18  1  0
 11 21  1  0
 12 26  1  0
 13 19  1  0
 13 20  1  0
 14 18  1  0
 14 21  1  0
 14 23  2  0
 15 16  1  0
 16 17  1  0
 17 21  1  0
 22 26  1  0
 24 26  2  0
 25 26  2  0
M  END
