TAM-UNI-c140e31a-6
     RDKit          3D

 24 26  0  0  1  0  0  0  0  0999 V2000
    5.6392    0.9636   18.9868 C   0  0  0  0  0  0  0  0  0  0  0  0
   12.1828   -3.0516   22.8162 C   0  0  0  0  0  0  0  0  0  0  0  0
    6.3923    1.1579   20.1393 C   0  0  0  0  0  0  0  0  0  0  0  0
   10.9320   -3.5734   22.5065 C   0  0  0  0  0  0  0  0  0  0  0  0
   10.0149   -1.3389   22.5402 C   0  0  0  0  0  0  0  0  0  0  0  0
    6.2948    0.5146   17.8517 C   0  0  0  0  0  0  0  0  0  0  0  0
    8.3193    0.4545   18.9360 C   0  0  0  0  0  0  0  0  0  0  0  0
   12.3559   -1.6684   22.9992 C   0  0  0  0  0  0  0  0  0  0  0  0
   11.2687   -0.7736   22.8457 C   0  0  0  0  0  0  0  0  0  0  0  0
    7.7586    0.9009   20.1218 C   0  0  0  0  0  0  0  0  0  0  0  0
    9.8476   -2.7172   22.3719 C   0  0  0  0  0  0  0  0  0  0  0  0
    9.8970    1.4420   21.3379 C   0  0  0  0  0  0  0  0  0  0  0  0
   13.7405   -1.1588   23.3184 C   0  0  0  0  0  0  0  0  0  0  0  0
   13.6858    0.2270   23.9454 C   0  0  0  0  0  0  0  0  0  0  0  0
   12.8034    1.1367   23.1039 C   0  0  0  0  0  0  0  0  0  0  0  0
   10.3576    1.5384   22.7795 C   0  0  0  0  0  0  0  0  0  0  0  0
    7.6202    0.2541   17.7964 N   0  0  0  0  0  0  0  0  0  0  0  0
   11.4459    0.6007   23.0161 N   0  0  0  0  0  0  0  0  0  0  0  0
    7.6451   -3.6477   23.5499 N   0  0  0  0  0  0  0  0  0  0  0  0
    8.5513    1.0894   21.2790 N   0  0  0  0  0  0  0  0  0  0  0  0
   10.6492    1.6660   20.3948 O   0  0  0  0  0  0  0  0  0  0  0  0
    7.4884   -2.3129   21.3500 O   0  0  0  0  0  0  0  0  0  0  0  0
    8.4482   -4.6421   21.3132 O   0  0  0  0  0  0  0  0  0  0  0  0
    8.2712   -3.3630   21.9860 S   0  0  0  0  0  0  0  0  0  0  0  0
  1  3  2  0
  1  6  1  0
  2  4  2  0
  2  8  1  0
  3 10  1  0
  4 11  1  0
  5  9  1  0
  5 11  2  0
  6 17  2  0
  7 10  2  0
  7 17  1  0
  8  9  2  0
  8 13  1  0
  9 18  1  0
 10 20  1  0
 11 24  1  0
 12 16  1  0
 12 20  1  0
 12 21  2  0
 13 14  1  0
 14 15  1  0
 15 18  1  0
 16 18  1  0
 19 24  1  0
 22 24  2  0
 23 24  2  0
M  END
