TAM-UNI-d1c3dd9f-13
     RDKit          3D

 25 27  0  0  0  0  0  0  0  0999 V2000
   13.4499   -0.1659   22.3227 C   0  0  0  0  0  0  0  0  0  0  0  0
   13.1801    0.9979   23.0410 C   0  0  0  0  0  0  0  0  0  0  0  0
   12.4878   -1.1621   22.2396 C   0  0  0  0  0  0  0  0  0  0  0  0
   11.9422    1.1950   23.6870 C   0  0  0  0  0  0  0  0  0  0  0  0
   10.9793    0.1649   23.6313 C   0  0  0  0  0  0  0  0  0  0  0  0
   11.2641   -0.9965   22.8854 C   0  0  0  0  0  0  0  0  0  0  0  0
    9.7809    0.1736   26.8179 C   0  0  0  0  0  0  0  0  0  0  0  0
    6.1292   -2.0297   19.0691 C   0  0  0  0  0  0  0  0  0  0  0  0
   11.7728    2.4977   24.4437 C   0  0  0  0  0  0  0  0  0  0  0  0
    9.6205    0.2458   24.2897 C   0  0  0  0  0  0  0  0  0  0  0  0
   10.3469    3.0359   24.5622 C   0  0  0  0  0  0  0  0  0  0  0  0
    9.5299    2.3289   25.6424 C   0  0  0  0  0  0  0  0  0  0  0  0
    6.6745   -2.2880   21.4684 C   0  0  0  0  0  0  0  0  0  0  0  0
    7.8883   -0.5702   20.1843 C   0  0  0  0  0  0  0  0  0  0  0  0
    7.9829   -2.8152   22.0393 C   0  0  0  0  0  0  0  0  0  0  0  0
    9.2157   -1.0706   20.7376 C   0  0  0  0  0  0  0  0  0  0  0  0
    9.8780   -1.3295   26.7216 C   0  0  0  0  0  0  0  0  0  0  0  0
   10.2730   -2.1133   22.7452 C   0  0  0  0  0  0  0  0  0  0  0  0
    6.4143   -1.3177   17.7708 C   0  0  0  0  0  0  0  0  0  0  0  0
    9.6577    0.8730   25.6134 N   0  0  0  0  0  0  0  0  0  0  0  0
    6.8882   -1.6432   20.1728 N   0  0  0  0  0  0  0  0  0  0  0  0
    8.9851   -1.6841   22.1006 N   0  0  0  0  0  0  0  0  0  0  0  0
    9.8115    0.7090   27.9290 O   0  0  0  0  0  0  0  0  0  0  0  0
    5.2597   -2.9044   19.0987 O   0  0  0  0  0  0  0  0  0  0  0  0
    5.3289    0.0663   17.7063 Cl  0  0  0  0  0  0  0  0  0  0  0  0
  1  2  2  0
  1  3  1  0
  2  4  1  0
  3  6  2  0
  4  5  2  0
  4  9  1  0
  5  6  1  0
  5 10  1  0
  6 18  1  0
  7 17  1  0
  7 20  1  0
  7 23  2  0
  8 19  1  0
  8 21  1  0
  8 24  2  0
  9 11  1  0
 10 20  1  0
 11 12  1  0
 12 20  1  0
 13 15  1  0
 13 21  1  0
 14 16  1  0
 14 21  1  0
 15 22  1  0
 16 22  1  0
 18 22  1  0
 19 25  1  0
M  CHG  1  22   1
M  END
