TAM-UNI-c140e31a-22
     RDKit          3D

 33 36  0  0  1  0  0  0  0  0999 V2000
    5.2770    0.6332   19.5788 C   0  0  0  0  0  0  0  0  0  0  0  0
    5.9262    1.0915   20.7198 C   0  0  0  0  0  0  0  0  0  0  0  0
   12.5195    5.4621   22.7976 C   0  0  0  0  0  0  0  0  0  0  0  0
   10.9027    5.1469   24.5501 C   0  0  0  0  0  0  0  0  0  0  0  0
   11.5180   -1.8253   22.5216 C   0  0  0  0  0  0  0  0  0  0  0  0
   11.3917    0.3957   21.5478 C   0  0  0  0  0  0  0  0  0  0  0  0
    6.0478    0.3562   18.4612 C   0  0  0  0  0  0  0  0  0  0  0  0
   13.0577    6.4914   23.5530 C   0  0  0  0  0  0  0  0  0  0  0  0
   11.5135    6.1901   25.2272 C   0  0  0  0  0  0  0  0  0  0  0  0
    7.9867    0.9513   19.5404 C   0  0  0  0  0  0  0  0  0  0  0  0
    8.2544   -1.7131   24.1639 C   0  0  0  0  0  0  0  0  0  0  0  0
   10.2445   -1.6372   23.0947 C   0  0  0  0  0  0  0  0  0  0  0  0
   10.1275    0.6049   22.1061 C   0  0  0  0  0  0  0  0  0  0  0  0
    9.3961   -2.4376   23.9098 C   0  0  0  0  0  0  0  0  0  0  0  0
    9.5800   -0.4288   22.8742 C   0  0  0  0  0  0  0  0  0  0  0  0
    7.3068    1.2563   20.7085 C   0  0  0  0  0  0  0  0  0  0  0  0
   11.4215    4.7821   23.3127 C   0  0  0  0  0  0  0  0  0  0  0  0
   12.0780   -0.7999   21.7510 C   0  0  0  0  0  0  0  0  0  0  0  0
    6.7213   -5.3009   24.7266 C   0  0  0  0  0  0  0  0  0  0  0  0
    9.7402    2.9424   22.9453 C   0  0  0  0  0  0  0  0  0  0  0  0
    5.2639   -4.9994   24.6119 C   0  0  0  0  0  0  0  0  0  0  0  0
    9.6798   -3.8016   24.4002 C   0  0  0  0  0  0  0  0  0  0  0  0
    8.9252   -4.9100   23.6437 C   0  0  0  0  0  0  0  0  0  0  0  0
    9.4210    1.8976   21.8680 C   0  0  0  0  0  0  0  0  0  0  0  0
    7.3907    0.5040   18.4124 N   0  0  0  0  0  0  0  0  0  0  0  0
   12.5813    6.8743   24.7589 N   0  0  0  0  0  0  0  0  0  0  0  0
    8.3745   -0.5030   23.5348 N   0  0  0  0  0  0  0  0  0  0  0  0
   10.8345    3.7229   22.5806 N   0  0  0  0  0  0  0  0  0  0  0  0
    7.9775    1.7089   21.8249 N   0  0  0  0  0  0  0  0  0  0  0  0
    7.4985   -4.7456   23.7227 N   0  0  0  0  0  0  0  0  0  0  0  0
    7.1249   -5.9874   25.6581 O   0  0  0  0  0  0  0  0  0  0  0  0
    9.0935    3.0144   23.9868 O   0  0  0  0  0  0  0  0  0  0  0  0
   13.2887   -0.9713   21.2025 F   0  0  0  0  0  0  0  0  0  0  0  0
  1  2  2  0
  1  7  1  0
  2 16  1  0
  3  8  2  0
  3 17  1  0
  4  9  1  0
  4 17  2  0
  5 12  2  0
  5 18  1  0
  6 13  1  0
  6 18  2  0
  7 25  2  0
  8 26  1  0
  9 26  2  0
 10 16  2  0
 10 25  1  0
 11 14  2  0
 11 27  1  0
 12 14  1  0
 12 15  1  0
 13 15  2  0
 13 24  1  0
 14 22  1  0
 15 27  1  0
 16 29  1  0
 17 28  1  0
 18 33  1  0
 19 21  1  0
 19 30  1  0
 19 31  2  0
 20 24  1  0
 20 28  1  0
 20 32  2  0
 22 23  1  0
 23 30  1  0
 24 29  1  0
M  END
