TAM-UNI-c140e31a-14
     RDKit          3D

 25 27  0  0  1  0  0  0  0  0999 V2000
    5.7280    1.0235   19.2816 C   0  0  0  0  0  0  0  0  0  0  0  0
    9.9807    1.5480   23.3992 C   0  0  0  0  0  0  0  0  0  0  0  0
    6.3547    0.6102   20.4520 C   0  0  0  0  0  0  0  0  0  0  0  0
   10.0114    2.9442   23.3738 C   0  0  0  0  0  0  0  0  0  0  0  0
   12.4058    2.8701   23.3560 C   0  0  0  0  0  0  0  0  0  0  0  0
    6.3902    0.8144   18.0827 C   0  0  0  0  0  0  0  0  0  0  0  0
    8.1849   -0.1549   19.1400 C   0  0  0  0  0  0  0  0  0  0  0  0
   12.3945    1.4571   23.3579 C   0  0  0  0  0  0  0  0  0  0  0  0
   11.1572    0.7620   23.4148 C   0  0  0  0  0  0  0  0  0  0  0  0
    7.6069    0.0090   20.3885 C   0  0  0  0  0  0  0  0  0  0  0  0
   11.2265    3.6070   23.3621 C   0  0  0  0  0  0  0  0  0  0  0  0
    9.5163   -1.0347   21.6569 C   0  0  0  0  0  0  0  0  0  0  0  0
   13.7569    0.7856   23.2895 C   0  0  0  0  0  0  0  0  0  0  0  0
   13.7943   -0.5195   22.4962 C   0  0  0  0  0  0  0  0  0  0  0  0
   13.2594   -1.7174   23.2769 C   0  0  0  0  0  0  0  0  0  0  0  0
   12.0950   -1.3820   24.1973 C   0  0  0  0  0  0  0  0  0  0  0  0
    9.8524   -1.3329   23.1053 C   0  0  0  0  0  0  0  0  0  0  0  0
    7.6069    0.2338   17.9813 N   0  0  0  0  0  0  0  0  0  0  0  0
   11.0688   -0.6289   23.4873 N   0  0  0  0  0  0  0  0  0  0  0  0
   11.2927    5.6992   25.0115 N   0  0  0  0  0  0  0  0  0  0  0  0
    8.2697   -0.4219   21.5623 N   0  0  0  0  0  0  0  0  0  0  0  0
   10.2820   -1.3089   20.7383 O   0  0  0  0  0  0  0  0  0  0  0  0
   12.5506    5.7647   22.7623 O   0  0  0  0  0  0  0  0  0  0  0  0
   10.0324    5.8435   22.7693 O   0  0  0  0  0  0  0  0  0  0  0  0
   11.2789    5.3502   23.3388 S   0  0  0  0  0  0  0  0  0  0  0  0
  1  3  2  0
  1  6  1  0
  2  4  2  0
  2  9  1  0
  3 10  1  0
  4 11  1  0
  5  8  1  0
  5 11  2  0
  6 18  2  0
  7 10  2  0
  7 18  1  0
  8  9  2  0
  8 13  1  0
  9 19  1  0
 10 21  1  0
 11 25  1  0
 12 17  1  0
 12 21  1  0
 12 22  2  0
 13 14  1  0
 14 15  1  0
 15 16  1  0
 16 19  1  0
 17 19  1  0
 20 25  1  0
 23 25  2  0
 24 25  2  0
M  END
