TAM-UNI-d1c3dd9f-6
     RDKit          3D

 26 28  0  0  0  0  0  0  0  0999 V2000
    9.1902   -1.6566   24.4927 C   0  0  0  0  0  0  0  0  0  0  0  0
    7.2983   -2.5449   23.2143 C   0  0  0  0  0  0  0  0  0  0  0  0
   10.4565   -1.0722   24.5271 C   0  0  0  0  0  0  0  0  0  0  0  0
    6.6995   -2.8362   21.9883 C   0  0  0  0  0  0  0  0  0  0  0  0
   10.5230   -1.0715   22.1139 C   0  0  0  0  0  0  0  0  0  0  0  0
    8.6310   -1.9597   20.8355 C   0  0  0  0  0  0  0  0  0  0  0  0
    8.5724   -1.9567   23.2677 C   0  0  0  0  0  0  0  0  0  0  0  0
    9.2488   -1.6597   22.0605 C   0  0  0  0  0  0  0  0  0  0  0  0
   11.1217   -0.7802   23.3400 C   0  0  0  0  0  0  0  0  0  0  0  0
    7.3646   -2.5442   20.8012 C   0  0  0  0  0  0  0  0  0  0  0  0
   10.3435    4.7484   24.8258 C   0  0  0  0  0  0  0  0  0  0  0  0
   11.9868    3.0125   25.4640 C   0  0  0  0  0  0  0  0  0  0  0  0
   11.7874    3.5960   23.0780 C   0  0  0  0  0  0  0  0  0  0  0  0
   11.9014    1.5304   25.1299 C   0  0  0  0  0  0  0  0  0  0  0  0
   11.7009    2.1215   22.7076 C   0  0  0  0  0  0  0  0  0  0  0  0
    6.4827   -0.1989   18.7964 C   0  0  0  0  0  0  0  0  0  0  0  0
   12.4838   -0.1525   23.3795 C   0  0  0  0  0  0  0  0  0  0  0  0
    9.6948    5.5374   23.7166 C   0  0  0  0  0  0  0  0  0  0  0  0
   11.3126    3.8203   24.4476 N   0  0  0  0  0  0  0  0  0  0  0  0
    5.7567   -1.4705   18.9256 N   0  0  0  0  0  0  0  0  0  0  0  0
   12.4496    1.3065   23.7383 N   0  0  0  0  0  0  0  0  0  0  0  0
    9.9963    4.9506   25.9923 O   0  0  0  0  0  0  0  0  0  0  0  0
    7.6563   -3.0800   18.2639 O   0  0  0  0  0  0  0  0  0  0  0  0
    5.6528   -3.9818   19.4874 O   0  0  0  0  0  0  0  0  0  0  0  0
    6.6138   -2.9091   19.2677 S   0  0  0  0  0  0  0  0  0  0  0  0
    8.3074    4.5991   23.1758 Cl  0  0  0  0  0  0  0  0  0  0  0  0
  1  3  2  0
  1  7  1  0
  2  4  1  0
  2  7  2  0
  3  9  1  0
  4 10  2  0
  5  8  1  0
  5  9  2  0
  6  8  2  0
  6 10  1  0
  7  8  1  0
  9 17  1  0
 10 25  1  0
 11 18  1  0
 11 19  1  0
 11 22  2  0
 12 14  1  0
 12 19  1  0
 13 15  1  0
 13 19  1  0
 14 21  1  0
 15 21  1  0
 16 20  1  0
 17 21  1  0
 18 26  1  0
 20 25  1  0
 23 25  2  0
 24 25  2  0
M  CHG  1  21   1
M  END
