TAM-UNI-d1c3dd9f-8
     RDKit          3D

 28 31  0  0  1  0  0  0  0  0999 V2000
   11.3186    3.8444   23.8136 C   0  0  0  0  0  0  0  0  0  0  0  0
   10.3607    3.2472   24.6279 C   0  0  0  0  0  0  0  0  0  0  0  0
   12.2617    3.0570   23.1537 C   0  0  0  0  0  0  0  0  0  0  0  0
   10.3468    1.8622   24.7860 C   0  0  0  0  0  0  0  0  0  0  0  0
    9.9444   -2.5071   23.6708 C   0  0  0  0  0  0  0  0  0  0  0  0
    8.9004   -3.1320   22.9895 C   0  0  0  0  0  0  0  0  0  0  0  0
    9.2600   -0.3764   22.7661 C   0  0  0  0  0  0  0  0  0  0  0  0
   10.1226   -1.1303   23.5612 C   0  0  0  0  0  0  0  0  0  0  0  0
    8.0197   -2.3828   22.1970 C   0  0  0  0  0  0  0  0  0  0  0  0
   12.2558    1.6614   23.2987 C   0  0  0  0  0  0  0  0  0  0  0  0
   11.2931    1.0588   24.1296 C   0  0  0  0  0  0  0  0  0  0  0  0
    8.2125   -0.9948   22.0697 C   0  0  0  0  0  0  0  0  0  0  0  0
   13.5423   -1.5297   21.7268 C   0  0  0  0  0  0  0  0  0  0  0  0
    6.9169   -3.0832   21.4428 C   0  0  0  0  0  0  0  0  0  0  0  0
   13.2942    0.8497   22.5624 C   0  0  0  0  0  0  0  0  0  0  0  0
    7.2775   -0.1550   21.2359 C   0  0  0  0  0  0  0  0  0  0  0  0
    5.8115   -2.1280   21.0040 C   0  0  0  0  0  0  0  0  0  0  0  0
   12.6190   -1.0777   23.9737 C   0  0  0  0  0  0  0  0  0  0  0  0
   11.2586   -0.4473   24.3118 C   0  0  0  0  0  0  0  0  0  0  0  0
    6.1851    0.2869   17.9822 C   0  0  0  0  0  0  0  0  0  0  0  0
   14.1925   -0.9652   20.4881 C   0  0  0  0  0  0  0  0  0  0  0  0
   13.1273   -0.6042   22.6870 N   0  0  0  0  0  0  0  0  0  0  0  0
    6.3982   -0.9427   20.3228 N   0  0  0  0  0  0  0  0  0  0  0  0
   13.4013   -2.7504   21.8331 O   0  0  0  0  0  0  0  0  0  0  0  0
    6.2895   -2.3182   18.1558 O   0  0  0  0  0  0  0  0  0  0  0  0
    8.3667   -0.9750   18.6723 O   0  0  0  0  0  0  0  0  0  0  0  0
    6.9311   -1.1475   18.7130 S   0  0  0  0  0  0  0  0  0  0  0  0
   12.9050   -0.7124   19.3153 Cl  0  0  0  0  0  0  0  0  0  0  0  0
  1  2  2  0
  1  3  1  0
  2  4  1  0
  3 10  2  0
  4 11  2  0
  5  6  2  0
  5  8  1  0
  6  9  1  0
  7  8  2  0
  7 12  1  0
  8 19  1  0
  9 12  2  0
  9 14  1  0
 10 11  1  0
 10 15  1  0
 11 19  1  0
 12 16  1  0
 13 21  1  0
 13 22  1  0
 13 24  2  0
 14 17  1  0
 15 22  1  0
 16 23  1  0
 17 23  1  0
 18 19  1  0
 18 22  1  0
 20 27  1  0
 21 28  1  0
 23 27  1  0
 25 27  2  0
 26 27  2  0
M  END
