TAM-UNI-d1c3dd9f-21
     RDKit          3D

 23 24  0  0  1  0  0  0  0  0999 V2000
    9.0942   -2.3183   20.3616 C   0  0  0  0  0  0  0  0  0  0  0  0
    8.6277   -3.4193   19.6434 C   0  0  0  0  0  0  0  0  0  0  0  0
    8.9960   -2.3006   21.7529 C   0  0  0  0  0  0  0  0  0  0  0  0
    8.0629   -4.5026   20.3166 C   0  0  0  0  0  0  0  0  0  0  0  0
    8.4312   -3.3838   22.4260 C   0  0  0  0  0  0  0  0  0  0  0  0
    7.9646   -4.4849   21.7079 C   0  0  0  0  0  0  0  0  0  0  0  0
    5.1105   -4.6600   22.7390 C   0  0  0  0  0  0  0  0  0  0  0  0
   10.6336   -3.1463   24.8443 C   0  0  0  0  0  0  0  0  0  0  0  0
   12.8884   -2.7929   25.8016 C   0  0  0  0  0  0  0  0  0  0  0  0
   11.3324   -0.8804   25.8178 C   0  0  0  0  0  0  0  0  0  0  0  0
   13.9943   -1.8250   25.4115 C   0  0  0  0  0  0  0  0  0  0  0  0
   12.5185    0.0047   25.4500 C   0  0  0  0  0  0  0  0  0  0  0  0
    6.9156   -6.7704   21.4469 C   0  0  0  0  0  0  0  0  0  0  0  0
    8.3370   -3.3432   23.9239 C   0  0  0  0  0  0  0  0  0  0  0  0
    4.0775   -4.3652   23.7964 C   0  0  0  0  0  0  0  0  0  0  0  0
    7.3554   -5.6560   22.4066 C   0  0  0  0  0  0  0  0  0  0  0  0
   11.5748   -2.2731   25.4151 N   0  0  0  0  0  0  0  0  0  0  0  0
    6.2399   -5.2662   23.2510 N   0  0  0  0  0  0  0  0  0  0  0  0
    9.4107   -2.5747   24.5129 N   0  0  0  0  0  0  0  0  0  0  0  0
    4.9221   -4.3886   21.5544 O   0  0  0  0  0  0  0  0  0  0  0  0
   10.8642   -4.3446   24.6509 O   0  0  0  0  0  0  0  0  0  0  0  0
   13.7340   -0.5357   25.9696 O   0  0  0  0  0  0  0  0  0  0  0  0
    2.5972   -5.2379   23.3696 Cl  0  0  0  0  0  0  0  0  0  0  0  0
  1  2  2  0
  1  3  1  0
  2  4  1  0
  3  5  2  0
  4  6  2  0
  5  6  1  0
  5 14  1  0
  6 16  1  0
  7 15  1  0
  7 18  1  0
  7 20  2  0
  8 17  1  0
  8 19  1  0
  8 21  2  0
  9 11  1  0
  9 17  1  0
 10 12  1  0
 10 17  1  0
 11 22  1  0
 12 22  1  0
 13 16  1  0
 14 19  1  0
 15 23  1  0
 16 18  1  0
M  END
