TOB-UNK-c2aba166-2
     RDKit          3D

 13 13  0  0  0  0  0  0  0  0999 V2000
   11.2752    0.2190   24.6082 C   0  0  0  0  0  0  0  0  0  0  0  0
   10.9561   -0.6489   23.8425 C   0  0  0  0  0  0  0  0  0  0  0  0
    5.7166    0.8065   18.7752 C   0  0  0  0  0  0  0  0  0  0  0  0
    6.2682   -0.3363   18.3615 C   0  0  0  0  0  0  0  0  0  0  0  0
    6.3463   -1.4721   19.3019 C   0  0  0  0  0  0  0  0  0  0  0  0
    7.7655   -0.0664   20.8936 C   0  0  0  0  0  0  0  0  0  0  0  0
    7.1017   -2.3726   21.4675 C   0  0  0  0  0  0  0  0  0  0  0  0
    9.1981   -0.3655   21.3190 C   0  0  0  0  0  0  0  0  0  0  0  0
    8.5274   -2.7006   21.8818 C   0  0  0  0  0  0  0  0  0  0  0  0
   10.5728   -1.7075   22.9120 C   0  0  0  0  0  0  0  0  0  0  0  0
    7.0629   -1.2899   20.4822 N   0  0  0  0  0  0  0  0  0  0  0  0
    9.1930   -1.4394   22.3802 N   0  0  0  0  0  0  0  0  0  0  0  0
    5.7674   -2.5131   18.9864 O   0  0  0  0  0  0  0  0  0  0  0  0
  1  2  3  0
  2 10  1  0
  3  4  2  0
  4  5  1  0
  5 11  1  0
  5 13  2  0
  6  8  1  0
  6 11  1  0
  7  9  1  0
  7 11  1  0
  8 12  1  0
  9 12  1  0
 10 12  1  0
M  CHG  1  12   1
M  END
