TOB-UNK-c2aba166-4
     RDKit          3D

 20 21  0  0  0  0  0  0  0  0999 V2000
    7.4629   -2.2319   25.9632 C   0  0  0  0  0  0  0  0  0  0  0  0
    7.8893   -2.3628   24.8486 C   0  0  0  0  0  0  0  0  0  0  0  0
   12.3865    5.7374   22.7259 C   0  0  0  0  0  0  0  0  0  0  0  0
   11.5481    4.9351   23.4998 C   0  0  0  0  0  0  0  0  0  0  0  0
   13.4955    5.1784   22.0907 C   0  0  0  0  0  0  0  0  0  0  0  0
   11.8187    3.5738   23.6387 C   0  0  0  0  0  0  0  0  0  0  0  0
   13.7661    3.8171   22.2297 C   0  0  0  0  0  0  0  0  0  0  0  0
   12.9278    3.0148   23.0037 C   0  0  0  0  0  0  0  0  0  0  0  0
   13.2141    1.5771   23.1501 C   0  0  0  0  0  0  0  0  0  0  0  0
   13.8410    0.8267   22.2357 C   0  0  0  0  0  0  0  0  0  0  0  0
   11.9720   -1.3771   24.2321 C   0  0  0  0  0  0  0  0  0  0  0  0
   11.4925   -0.9987   21.8397 C   0  0  0  0  0  0  0  0  0  0  0  0
   10.7262   -2.2400   24.3591 C   0  0  0  0  0  0  0  0  0  0  0  0
   10.2420   -1.8583   21.9405 C   0  0  0  0  0  0  0  0  0  0  0  0
    8.4035   -2.5251   23.4911 C   0  0  0  0  0  0  0  0  0  0  0  0
   12.4995   -1.4580   22.8393 N   0  0  0  0  0  0  0  0  0  0  0  0
    9.7014   -1.7812   23.3488 N   0  0  0  0  0  0  0  0  0  0  0  0
   14.6505   -1.4974   21.4514 O   0  0  0  0  0  0  0  0  0  0  0  0
   14.7709   -0.9198   23.8957 O   0  0  0  0  0  0  0  0  0  0  0  0
   14.0842   -0.8446   22.6185 S   0  0  0  0  0  0  0  0  0  0  0  0
  1  2  3  0
  2 15  1  0
  3  4  2  0
  3  5  1  0
  4  6  1  0
  5  7  2  0
  6  8  2  0
  7  8  1  0
  8  9  1  0
  9 10  2  0
 10 20  1  0
 11 13  1  0
 11 16  1  0
 12 14  1  0
 12 16  1  0
 13 17  1  0
 14 17  1  0
 15 17  1  0
 16 20  1  0
 18 20  2  0
 19 20  2  0
M  CHG  1  17   1
M  END
