TOB-UNK-c2aba166-5
     RDKit          3D

 26 29  0  0  0  0  0  0  0  0999 V2000
    5.9365   -2.6159   19.7825 C   0  0  0  0  0  0  0  0  0  0  0  0
    6.8948   -2.8541   20.7733 C   0  0  0  0  0  0  0  0  0  0  0  0
    8.1481   -0.8644   20.1423 C   0  0  0  0  0  0  0  0  0  0  0  0
   10.0205   -1.5337   22.2491 C   0  0  0  0  0  0  0  0  0  0  0  0
    6.0381    0.1760   17.5282 C   0  0  0  0  0  0  0  0  0  0  0  0
    7.1949   -0.6099   19.1417 C   0  0  0  0  0  0  0  0  0  0  0  0
    6.1226   -1.4841   18.9882 C   0  0  0  0  0  0  0  0  0  0  0  0
    7.9817   -1.9951   20.9518 C   0  0  0  0  0  0  0  0  0  0  0  0
   10.5855   -2.2212   23.2938 C   0  0  0  0  0  0  0  0  0  0  0  0
   11.9383    5.0341   27.6850 C   0  0  0  0  0  0  0  0  0  0  0  0
   11.8806    3.8719   27.0320 C   0  0  0  0  0  0  0  0  0  0  0  0
   12.1911    1.8555   24.6011 C   0  0  0  0  0  0  0  0  0  0  0  0
   10.5032    0.9812   26.1770 C   0  0  0  0  0  0  0  0  0  0  0  0
   12.1552    0.5520   23.8186 C   0  0  0  0  0  0  0  0  0  0  0  0
   10.4483   -0.3314   25.4110 C   0  0  0  0  0  0  0  0  0  0  0  0
   11.8346   -1.9110   24.0649 C   0  0  0  0  0  0  0  0  0  0  0  0
    7.1255    0.4151   18.2263 N   0  0  0  0  0  0  0  0  0  0  0  0
    9.8242   -3.3185   23.5870 N   0  0  0  0  0  0  0  0  0  0  0  0
    8.7937   -3.3361   22.7487 N   0  0  0  0  0  0  0  0  0  0  0  0
    5.3991   -0.9569   17.9493 N   0  0  0  0  0  0  0  0  0  0  0  0
    8.9133   -2.2653   21.9473 N   0  0  0  0  0  0  0  0  0  0  0  0
   10.8679    2.0897   25.2482 N   0  0  0  0  0  0  0  0  0  0  0  0
   11.7856   -0.5759   24.7528 N   0  0  0  0  0  0  0  0  0  0  0  0
    9.3483    3.6780   26.5609 O   0  0  0  0  0  0  0  0  0  0  0  0
   10.8574    4.6083   24.7778 O   0  0  0  0  0  0  0  0  0  0  0  0
   10.6208    3.6708   25.8610 S   0  0  0  0  0  0  0  0  0  0  0  0
  1  2  2  0
  1  7  1  0
  2  8  1  0
  3  6  1  0
  3  8  2  0
  4  9  2  0
  4 21  1  0
  5 17  2  0
  5 20  1  0
  6  7  2  0
  6 17  1  0
  7 20  1  0
  8 21  1  0
  9 16  1  0
  9 18  1  0
 10 11  2  0
 11 26  1  0
 12 14  1  0
 12 22  1  0
 13 15  1  0
 13 22  1  0
 14 23  1  0
 15 23  1  0
 16 23  1  0
 18 19  2  0
 19 21  1  0
 22 26  1  0
 24 26  2  0
 25 26  2  0
M  CHG  1  23   1
M  END
