TOM-OIS-cbf37265-3
     RDKit          3D

 23 25  0  0  0  0  0  0  0  0999 V2000
   10.3464   -0.8010   23.4901 C   0  0  0  0  0  0  0  0  0  0  0  0
   10.6902   -2.0721   23.0212 C   0  0  0  0  0  0  0  0  0  0  0  0
    8.5371   -1.7192   24.8245 C   0  0  0  0  0  0  0  0  0  0  0  0
    9.0787   -5.2041   23.8640 C   0  0  0  0  0  0  0  0  0  0  0  0
    8.8650   -3.0103   24.3653 C   0  0  0  0  0  0  0  0  0  0  0  0
    8.3366   -4.3104   24.6011 C   0  0  0  0  0  0  0  0  0  0  0  0
    9.2869   -0.6249   24.3780 C   0  0  0  0  0  0  0  0  0  0  0  0
    9.9318   -3.1567   23.4760 C   0  0  0  0  0  0  0  0  0  0  0  0
    6.4283   -5.8725   24.9417 C   0  0  0  0  0  0  0  0  0  0  0  0
    7.6614   -4.9028   26.9231 C   0  0  0  0  0  0  0  0  0  0  0  0
    5.2782   -6.2632   25.8610 C   0  0  0  0  0  0  0  0  0  0  0  0
    6.5016   -5.3006   27.8272 C   0  0  0  0  0  0  0  0  0  0  0  0
    7.1918   -4.6521   25.4810 C   0  0  0  0  0  0  0  0  0  0  0  0
    7.5336    4.2946   22.1895 C   0  0  0  0  0  0  0  0  0  0  0  0
    4.7359   -7.0266   28.1722 C   0  0  0  0  0  0  0  0  0  0  0  0
    8.9457    0.7462   24.8595 C   0  0  0  0  0  0  0  0  0  0  0  0
    9.2713    1.8488   23.8491 C   0  0  0  0  0  0  0  0  0  0  0  0
   10.0386   -4.4989   23.1890 N   0  0  0  0  0  0  0  0  0  0  0  0
    8.4815    3.2696   21.7167 N   0  0  0  0  0  0  0  0  0  0  0  0
    5.8093   -6.5129   27.2521 N   0  0  0  0  0  0  0  0  0  0  0  0
    9.0879    0.7661   21.4733 O   0  0  0  0  0  0  0  0  0  0  0  0
    6.9765    1.4278   22.6820 O   0  0  0  0  0  0  0  0  0  0  0  0
    8.3672    1.6825   22.3419 S   0  0  0  0  0  0  0  0  0  0  0  0
  1  2  2  0
  1  7  1  0
  2  8  1  0
  3  5  1  0
  3  7  2  0
  4  6  2  0
  4 18  1  0
  5  6  1  0
  5  8  2  0
  6 13  1  0
  7 16  1  0
  8 18  1  0
  9 11  1  0
  9 13  1  0
 10 12  1  0
 10 13  1  0
 11 20  1  0
 12 20  1  0
 14 19  1  0
 15 20  1  0
 16 17  1  0
 17 23  1  0
 19 23  1  0
 21 23  2  0
 22 23  2  0
M  CHG  1  20   1
M  END
