TRI-UNI-97428359-2
     RDKit          3D

 26 28  0  0  0  0  0  0  0  0999 V2000
    7.0757    4.9773   24.6420 C   0  0  0  0  0  0  0  0  0  0  0  0
    7.3608    4.8739   25.9989 C   0  0  0  0  0  0  0  0  0  0  0  0
    8.6874   -3.8478   24.5257 C   0  0  0  0  0  0  0  0  0  0  0  0
    7.9537   -3.2401   22.3054 C   0  0  0  0  0  0  0  0  0  0  0  0
    9.5903   -2.7846   24.5184 C   0  0  0  0  0  0  0  0  0  0  0  0
    8.8566   -2.1768   22.2981 C   0  0  0  0  0  0  0  0  0  0  0  0
    8.0161    5.5305   23.7799 C   0  0  0  0  0  0  0  0  0  0  0  0
    8.5908    5.3346   26.4402 C   0  0  0  0  0  0  0  0  0  0  0  0
    7.8691   -4.0756   23.4192 C   0  0  0  0  0  0  0  0  0  0  0  0
    9.6748   -1.9491   23.4046 C   0  0  0  0  0  0  0  0  0  0  0  0
    9.2166    5.9620   24.3206 C   0  0  0  0  0  0  0  0  0  0  0  0
   12.0706    4.8872   23.0770 C   0  0  0  0  0  0  0  0  0  0  0  0
   10.4273    0.1464   24.4362 C   0  0  0  0  0  0  0  0  0  0  0  0
   11.1580   -0.4304   22.1279 C   0  0  0  0  0  0  0  0  0  0  0  0
   11.7451    0.8725   24.6701 C   0  0  0  0  0  0  0  0  0  0  0  0
   12.4727    0.3018   22.3653 C   0  0  0  0  0  0  0  0  0  0  0  0
    6.9038   -5.2123   23.4259 C   0  0  0  0  0  0  0  0  0  0  0  0
   10.2551    6.5646   23.4192 C   0  0  0  0  0  0  0  0  0  0  0  0
   13.6831    3.1437   22.3262 C   0  0  0  0  0  0  0  0  0  0  0  0
   13.4865    2.2545   23.5395 C   0  0  0  0  0  0  0  0  0  0  0  0
    9.5294    5.8779   25.6331 N   0  0  0  0  0  0  0  0  0  0  0  0
   10.5794   -0.8810   23.3976 N   0  0  0  0  0  0  0  0  0  0  0  0
   10.9364    5.5620   22.6333 N   0  0  0  0  0  0  0  0  0  0  0  0
   12.4929    3.9984   22.1189 N   0  0  0  0  0  0  0  0  0  0  0  0
   12.2538    1.4142   23.3583 N   0  0  0  0  0  0  0  0  0  0  0  0
   12.6060    5.0692   24.1696 O   0  0  0  0  0  0  0  0  0  0  0  0
  1  2  2  0
  1  7  1  0
  2  8  1  0
  3  5  2  0
  3  9  1  0
  4  6  1  0
  4  9  2  0
  5 10  1  0
  6 10  2  0
  7 11  2  0
  8 21  2  0
  9 17  1  0
 10 22  1  0
 11 18  1  0
 11 21  1  0
 12 23  1  0
 12 24  1  0
 12 26  2  0
 13 15  1  0
 13 22  1  0
 14 16  1  0
 14 22  1  0
 15 25  1  0
 16 25  1  0
 18 23  1  0
 19 20  1  0
 19 24  1  0
 20 25  1  0
M  CHG  1  25   1
M  END
