TRY-UNI-714a760b-21
     RDKit          3D

 21 22  0  0  1  0  0  0  0  0999 V2000
   13.1396   -1.4841   21.7078 C   0  0  0  0  0  0  0  0  0  0  0  0
   12.2575    0.7865   24.5224 C   0  0  0  0  0  0  0  0  0  0  0  0
   12.9379    0.2308   23.4390 C   0  0  0  0  0  0  0  0  0  0  0  0
   11.0809    0.1964   24.9843 C   0  0  0  0  0  0  0  0  0  0  0  0
   11.2652   -1.5052   23.2791 C   0  0  0  0  0  0  0  0  0  0  0  0
    5.9698   -2.0672   19.3183 C   0  0  0  0  0  0  0  0  0  0  0  0
    6.4829   -2.5362   21.5080 C   0  0  0  0  0  0  0  0  0  0  0  0
   12.4417   -0.9151   22.8173 C   0  0  0  0  0  0  0  0  0  0  0  0
   10.5848   -0.9495   24.3626 C   0  0  0  0  0  0  0  0  0  0  0  0
    7.6539   -0.7855   20.4035 C   0  0  0  0  0  0  0  0  0  0  0  0
    6.9068   -1.0481   19.2606 C   0  0  0  0  0  0  0  0  0  0  0  0
    7.4442   -1.5393   21.5529 C   0  0  0  0  0  0  0  0  0  0  0  0
    8.5237   -2.2433   23.7177 C   0  0  0  0  0  0  0  0  0  0  0  0
    8.6803    0.3037   20.3969 C   0  0  0  0  0  0  0  0  0  0  0  0
    9.5954   -2.5945   25.9847 C   0  0  0  0  0  0  0  0  0  0  0  0
    9.3268   -1.5802   24.8564 C   0  0  0  0  0  0  0  0  0  0  0  0
   13.7065   -1.9462   20.8068 N   0  0  0  0  0  0  0  0  0  0  0  0
    5.7377   -2.8207   20.4165 N   0  0  0  0  0  0  0  0  0  0  0  0
    7.0822   -0.3134   18.0744 N   0  0  0  0  0  0  0  0  0  0  0  0
    8.1769   -1.3120   22.7419 N   0  0  0  0  0  0  0  0  0  0  0  0
    8.2748   -3.4455   23.7153 O   0  0  0  0  0  0  0  0  0  0  0  0
  1  8  1  0
  1 17  3  0
  2  3  2  0
  2  4  1  0
  3  8  1  0
  4  9  2  0
  5  8  2  0
  5  9  1  0
  6 11  2  0
  6 18  1  0
  7 12  1  0
  7 18  2  0
  9 16  1  0
 10 11  1  0
 10 12  2  0
 10 14  1  0
 11 19  1  0
 12 20  1  0
 13 16  1  0
 13 20  1  0
 13 21  2  0
 15 16  1  0
M  END
