TRY-UNI-714a760b-12
     RDKit          3D

 18 19  0  0  0  0  0  0  0  0999 V2000
   13.2646   -0.4107   24.8127 C   0  0  0  0  0  0  0  0  0  0  0  0
   12.0197   -0.0182   24.3212 C   0  0  0  0  0  0  0  0  0  0  0  0
   14.1976   -0.9991   23.9588 C   0  0  0  0  0  0  0  0  0  0  0  0
    5.7154    1.2675   18.9399 C   0  0  0  0  0  0  0  0  0  0  0  0
   12.6405   -0.8026   22.1220 C   0  0  0  0  0  0  0  0  0  0  0  0
    6.2301    0.7705   17.7534 C   0  0  0  0  0  0  0  0  0  0  0  0
    8.2180    0.1969   18.7521 C   0  0  0  0  0  0  0  0  0  0  0  0
    6.5198    1.2112   20.0725 C   0  0  0  0  0  0  0  0  0  0  0  0
   11.7076   -0.2142   22.9759 C   0  0  0  0  0  0  0  0  0  0  0  0
    7.7965    0.6672   19.9853 C   0  0  0  0  0  0  0  0  0  0  0  0
   13.8855   -1.1951   22.6135 C   0  0  0  0  0  0  0  0  0  0  0  0
    9.9557    0.0678   21.1675 C   0  0  0  0  0  0  0  0  0  0  0  0
    5.9903    1.7405   21.3649 C   0  0  0  0  0  0  0  0  0  0  0  0
    7.4652    0.2347   17.6299 N   0  0  0  0  0  0  0  0  0  0  0  0
   10.4616    0.1780   22.4858 N   0  0  0  0  0  0  0  0  0  0  0  0
    8.6525    0.5872   21.1090 N   0  0  0  0  0  0  0  0  0  0  0  0
   10.5714   -0.4120   20.2210 O   0  0  0  0  0  0  0  0  0  0  0  0
   15.0366   -1.9210   21.5598 Cl  0  0  0  0  0  0  0  0  0  0  0  0
  1  2  2  0
  1  3  1  0
  2  9  1  0
  3 11  2  0
  4  6  2  0
  4  8  1  0
  5  9  2  0
  5 11  1  0
  6 14  1  0
  7 10  1  0
  7 14  2  0
  8 10  2  0
  8 13  1  0
  9 15  1  0
 10 16  1  0
 11 18  1  0
 12 15  1  0
 12 16  1  0
 12 17  2  0
M  END
