TRY-UNI-714a760b-15
     RDKit          3D

 20 21  0  0  1  0  0  0  0  0999 V2000
   12.1184    0.7591   24.1440 C   0  0  0  0  0  0  0  0  0  0  0  0
   10.9114    0.2008   23.7233 C   0  0  0  0  0  0  0  0  0  0  0  0
   13.3078    0.0469   23.9895 C   0  0  0  0  0  0  0  0  0  0  0  0
   12.0831   -1.7821   22.9936 C   0  0  0  0  0  0  0  0  0  0  0  0
    6.2473    0.9136   17.7766 C   0  0  0  0  0  0  0  0  0  0  0  0
    7.9689   -0.2125   18.7993 C   0  0  0  0  0  0  0  0  0  0  0  0
   10.8938   -1.0699   23.1481 C   0  0  0  0  0  0  0  0  0  0  0  0
    6.1942    0.6331   20.1377 C   0  0  0  0  0  0  0  0  0  0  0  0
    5.5994    1.1278   18.9824 C   0  0  0  0  0  0  0  0  0  0  0  0
    7.4018   -0.0509   20.0531 C   0  0  0  0  0  0  0  0  0  0  0  0
   13.2901   -1.2237   23.4143 C   0  0  0  0  0  0  0  0  0  0  0  0
    9.2527   -1.2715   21.2496 C   0  0  0  0  0  0  0  0  0  0  0  0
    5.5380    0.8363   21.4673 C   0  0  0  0  0  0  0  0  0  0  0  0
    9.5920   -3.1996   22.8553 C   0  0  0  0  0  0  0  0  0  0  0  0
    9.6027   -1.6668   22.6996 C   0  0  0  0  0  0  0  0  0  0  0  0
    7.4210    0.2539   17.6548 N   0  0  0  0  0  0  0  0  0  0  0  0
    4.3788    1.8257   19.0167 N   0  0  0  0  0  0  0  0  0  0  0  0
    8.0479   -0.5747   21.1979 N   0  0  0  0  0  0  0  0  0  0  0  0
    9.9922   -1.5423   20.3078 O   0  0  0  0  0  0  0  0  0  0  0  0
   14.7577   -2.1024   23.2250 Cl  0  0  0  0  0  0  0  0  0  0  0  0
  1  2  2  0
  1  3  1  0
  2  7  1  0
  3 11  2  0
  4  7  2  0
  4 11  1  0
  5  9  2  0
  5 16  1  0
  6 10  1  0
  6 16  2  0
  7 15  1  0
  8  9  1  0
  8 10  2  0
  8 13  1  0
  9 17  1  0
 10 18  1  0
 11 20  1  0
 12 15  1  0
 12 18  1  0
 12 19  2  0
 14 15  1  0
M  END
