TRY-UNI-714a760b-19
     RDKit          3D

 20 21  0  0  0  0  0  0  0  0999 V2000
    8.3437   -5.8442   27.7205 C   0  0  0  0  0  0  0  0  0  0  0  0
   10.2303   -4.9038   24.6525 C   0  0  0  0  0  0  0  0  0  0  0  0
    9.6957   -5.6663   25.6909 C   0  0  0  0  0  0  0  0  0  0  0  0
    9.9599   -3.5373   24.5799 C   0  0  0  0  0  0  0  0  0  0  0  0
    8.6202   -3.6959   26.5842 C   0  0  0  0  0  0  0  0  0  0  0  0
    7.0531   -0.7706   19.2906 C   0  0  0  0  0  0  0  0  0  0  0  0
    8.2631   -0.3537   21.1986 C   0  0  0  0  0  0  0  0  0  0  0  0
    8.8906   -5.0624   26.6567 C   0  0  0  0  0  0  0  0  0  0  0  0
    9.1548   -2.9333   25.5457 C   0  0  0  0  0  0  0  0  0  0  0  0
    6.5702   -2.0232   21.2538 C   0  0  0  0  0  0  0  0  0  0  0  0
    6.3016   -1.7518   19.9169 C   0  0  0  0  0  0  0  0  0  0  0  0
    7.5681   -1.3152   21.9143 C   0  0  0  0  0  0  0  0  0  0  0  0
    8.8512   -0.9184   24.0453 C   0  0  0  0  0  0  0  0  0  0  0  0
    5.7884   -3.0729   21.9797 C   0  0  0  0  0  0  0  0  0  0  0  0
    8.8658   -1.4723   25.4678 C   0  0  0  0  0  0  0  0  0  0  0  0
    7.8997   -6.4791   28.5845 N   0  0  0  0  0  0  0  0  0  0  0  0
    8.0304   -0.0620   19.8991 N   0  0  0  0  0  0  0  0  0  0  0  0
    5.3028   -2.4410   19.2060 N   0  0  0  0  0  0  0  0  0  0  0  0
    7.8813   -1.5534   23.2738 N   0  0  0  0  0  0  0  0  0  0  0  0
    9.6201   -0.0311   23.6894 O   0  0  0  0  0  0  0  0  0  0  0  0
  1  8  1  0
  1 16  3  0
  2  3  2  0
  2  4  1  0
  3  8  1  0
  4  9  2  0
  5  8  2  0
  5  9  1  0
  6 11  2  0
  6 17  1  0
  7 12  1  0
  7 17  2  0
  9 15  1  0
 10 11  1  0
 10 12  2  0
 10 14  1  0
 11 18  1  0
 12 19  1  0
 13 15  1  0
 13 19  1  0
 13 20  2  0
M  END
