TRY-UNI-1fd04853-6
     RDKit          3D

 22 24  0  0  0  0  0  0  0  0999 V2000
   11.7765    1.1049   24.7441 C   0  0  0  0  0  0  0  0  0  0  0  0
   14.1490   -1.7293   24.3027 C   0  0  0  0  0  0  0  0  0  0  0  0
    7.4775   -1.8536   20.7006 C   0  0  0  0  0  0  0  0  0  0  0  0
   13.6094   -0.4434   24.2729 C   0  0  0  0  0  0  0  0  0  0  0  0
    8.1948   -2.7615   21.4775 C   0  0  0  0  0  0  0  0  0  0  0  0
   13.4081   -2.7845   24.8349 C   0  0  0  0  0  0  0  0  0  0  0  0
   11.5878   -1.2678   25.3077 C   0  0  0  0  0  0  0  0  0  0  0  0
    6.1981   -2.1959   20.2838 C   0  0  0  0  0  0  0  0  0  0  0  0
    6.8733   -6.0157   22.4796 C   0  0  0  0  0  0  0  0  0  0  0  0
   12.3288   -0.2127   24.7754 C   0  0  0  0  0  0  0  0  0  0  0  0
    7.5778   -3.9816   21.7976 C   0  0  0  0  0  0  0  0  0  0  0  0
   12.1275   -2.5537   25.3375 C   0  0  0  0  0  0  0  0  0  0  0  0
    7.9371   -5.1410   22.5346 C   0  0  0  0  0  0  0  0  0  0  0  0
    6.2905   -4.1948   21.3132 C   0  0  0  0  0  0  0  0  0  0  0  0
    9.5504   -4.3355   24.3026 C   0  0  0  0  0  0  0  0  0  0  0  0
    9.2150   -5.3772   23.2357 C   0  0  0  0  0  0  0  0  0  0  0  0
   11.3302   -3.6896   25.9104 C   0  0  0  0  0  0  0  0  0  0  0  0
   11.3280    2.1749   24.7185 N   0  0  0  0  0  0  0  0  0  0  0  0
    5.5552   -3.3541   20.5612 N   0  0  0  0  0  0  0  0  0  0  0  0
    5.8806   -5.4318   21.7361 N   0  0  0  0  0  0  0  0  0  0  0  0
   10.7944   -4.5477   24.8798 N   0  0  0  0  0  0  0  0  0  0  0  0
    8.7855   -3.4197   24.5943 O   0  0  0  0  0  0  0  0  0  0  0  0
  1 10  1  0
  1 18  3  0
  2  4  2  0
  2  6  1  0
  3  5  2  0
  3  8  1  0
  4 10  1  0
  5 11  1  0
  6 12  2  0
  7 10  2  0
  7 12  1  0
  8 19  2  0
  9 13  2  0
  9 20  1  0
 11 13  1  0
 11 14  2  0
 12 17  1  0
 13 16  1  0
 14 19  1  0
 14 20  1  0
 15 16  1  0
 15 21  1  0
 15 22  2  0
 17 21  1  0
M  END
