TRY-UNI-714a760b-3
     RDKit          3D

 19 20  0  0  0  0  0  0  0  0999 V2000
   12.2180    0.4757   24.2842 C   0  0  0  0  0  0  0  0  0  0  0  0
   10.9836    0.0042   23.8374 C   0  0  0  0  0  0  0  0  0  0  0  0
   13.3558   -0.3216   24.1597 C   0  0  0  0  0  0  0  0  0  0  0  0
   12.0248   -2.0620   23.1417 C   0  0  0  0  0  0  0  0  0  0  0  0
    6.4434    0.7606   17.7119 C   0  0  0  0  0  0  0  0  0  0  0  0
    8.0803   -0.4151   18.8149 C   0  0  0  0  0  0  0  0  0  0  0  0
   10.8870   -1.2646   23.2662 C   0  0  0  0  0  0  0  0  0  0  0  0
    6.3431    0.6002   20.0828 C   0  0  0  0  0  0  0  0  0  0  0  0
    5.7942    1.0722   18.8957 C   0  0  0  0  0  0  0  0  0  0  0  0
    7.5080   -0.1583   20.0503 C   0  0  0  0  0  0  0  0  0  0  0  0
   13.2592   -1.5904   23.5885 C   0  0  0  0  0  0  0  0  0  0  0  0
    9.2637   -1.4308   21.3322 C   0  0  0  0  0  0  0  0  0  0  0  0
    5.6834    0.9075   21.3905 C   0  0  0  0  0  0  0  0  0  0  0  0
    9.5666   -1.7686   22.7897 C   0  0  0  0  0  0  0  0  0  0  0  0
    7.5763    0.0265   17.6407 N   0  0  0  0  0  0  0  0  0  0  0  0
    4.6179    1.8428   18.8769 N   0  0  0  0  0  0  0  0  0  0  0  0
    8.1064   -0.6630   21.2293 N   0  0  0  0  0  0  0  0  0  0  0  0
    9.9832   -1.8164   20.4163 O   0  0  0  0  0  0  0  0  0  0  0  0
   14.6631   -2.5741   23.4361 Cl  0  0  0  0  0  0  0  0  0  0  0  0
  1  2  2  0
  1  3  1  0
  2  7  1  0
  3 11  2  0
  4  7  2  0
  4 11  1  0
  5  9  2  0
  5 15  1  0
  6 10  1  0
  6 15  2  0
  7 14  1  0
  8  9  1  0
  8 10  2  0
  8 13  1  0
  9 16  1  0
 10 17  1  0
 11 19  1  0
 12 14  1  0
 12 17  1  0
 12 18  2  0
M  END
