TRY-UNI-714a760b-2
     RDKit          3D

 18 19  0  0  0  0  0  0  0  0999 V2000
   13.7624   -0.3666   23.7489 C   0  0  0  0  0  0  0  0  0  0  0  0
   13.6271   -1.6166   23.1451 C   0  0  0  0  0  0  0  0  0  0  0  0
   12.6335    0.4149   23.9952 C   0  0  0  0  0  0  0  0  0  0  0  0
   12.3629   -2.0852   22.7873 C   0  0  0  0  0  0  0  0  0  0  0  0
   11.3693   -0.0537   23.6375 C   0  0  0  0  0  0  0  0  0  0  0  0
    6.3297    0.8657   17.9406 C   0  0  0  0  0  0  0  0  0  0  0  0
    8.0608   -0.3308   18.8625 C   0  0  0  0  0  0  0  0  0  0  0  0
   11.2340   -1.3038   23.0335 C   0  0  0  0  0  0  0  0  0  0  0  0
    6.4282    0.6239   20.3046 C   0  0  0  0  0  0  0  0  0  0  0  0
    5.7792    1.1306   19.1842 C   0  0  0  0  0  0  0  0  0  0  0  0
    7.5915   -0.1217   20.1493 C   0  0  0  0  0  0  0  0  0  0  0  0
    9.4565   -1.4200   21.2363 C   0  0  0  0  0  0  0  0  0  0  0  0
    5.8776    0.8801   21.6724 C   0  0  0  0  0  0  0  0  0  0  0  0
    9.8820   -1.8041   22.6511 C   0  0  0  0  0  0  0  0  0  0  0  0
    7.4579    0.1455   17.7502 N   0  0  0  0  0  0  0  0  0  0  0  0
    4.6002    1.8900   19.2898 N   0  0  0  0  0  0  0  0  0  0  0  0
    8.2895   -0.6604   21.2564 N   0  0  0  0  0  0  0  0  0  0  0  0
   10.1000   -1.7672   20.2511 O   0  0  0  0  0  0  0  0  0  0  0  0
  1  2  2  0
  1  3  1  0
  2  4  1  0
  3  5  2  0
  4  8  2  0
  5  8  1  0
  6 10  2  0
  6 15  1  0
  7 11  1  0
  7 15  2  0
  8 14  1  0
  9 10  1  0
  9 11  2  0
  9 13  1  0
 10 16  1  0
 11 17  1  0
 12 14  1  0
 12 17  1  0
 12 18  2  0
M  END
