TRY-UNI-1fd04853-5
     RDKit          3D

 21 23  0  0  0  0  0  0  0  0999 V2000
   12.6106    1.3741   23.8416 C   0  0  0  0  0  0  0  0  0  0  0  0
    5.3883    1.4273   18.6001 C   0  0  0  0  0  0  0  0  0  0  0  0
    5.6248    0.9296   19.8802 C   0  0  0  0  0  0  0  0  0  0  0  0
   11.4116    0.9738   24.4311 C   0  0  0  0  0  0  0  0  0  0  0  0
   13.4245    0.4345   23.2087 C   0  0  0  0  0  0  0  0  0  0  0  0
   11.8402   -1.3057   23.7550 C   0  0  0  0  0  0  0  0  0  0  0  0
    6.2782    1.1063   17.5839 C   0  0  0  0  0  0  0  0  0  0  0  0
    8.4836   -1.1891   20.7040 C   0  0  0  0  0  0  0  0  0  0  0  0
    6.7595    0.1248   20.0716 C   0  0  0  0  0  0  0  0  0  0  0  0
   11.0264   -0.3661   24.3879 C   0  0  0  0  0  0  0  0  0  0  0  0
    7.3492   -0.5586   21.1678 C   0  0  0  0  0  0  0  0  0  0  0  0
   13.0393   -0.9054   23.1654 C   0  0  0  0  0  0  0  0  0  0  0  0
    7.5671   -0.1173   18.9642 C   0  0  0  0  0  0  0  0  0  0  0  0
    7.8366   -0.0707   23.5972 C   0  0  0  0  0  0  0  0  0  0  0  0
    6.8472   -0.5935   22.5560 C   0  0  0  0  0  0  0  0  0  0  0  0
    9.7362   -0.7965   25.0237 C   0  0  0  0  0  0  0  0  0  0  0  0
    7.3849    0.3376   17.7100 N   0  0  0  0  0  0  0  0  0  0  0  0
    8.6062   -0.9144   19.3666 N   0  0  0  0  0  0  0  0  0  0  0  0
    8.7091   -1.0540   24.0417 N   0  0  0  0  0  0  0  0  0  0  0  0
    7.8386    1.0972   23.9777 O   0  0  0  0  0  0  0  0  0  0  0  0
   14.0443   -2.0643   22.3854 Cl  0  0  0  0  0  0  0  0  0  0  0  0
  1  4  2  0
  1  5  1  0
  2  3  2  0
  2  7  1  0
  3  9  1  0
  4 10  1  0
  5 12  2  0
  6 10  2  0
  6 12  1  0
  7 17  2  0
  8 11  2  0
  8 18  1  0
  9 11  1  0
  9 13  2  0
 10 16  1  0
 11 15  1  0
 12 21  1  0
 13 17  1  0
 13 18  1  0
 14 15  1  0
 14 19  1  0
 14 20  2  0
 16 19  1  0
M  END
