TRY-UNI-714a760b-24
     RDKit          3D

 19 20  0  0  0  0  0  0  0  0999 V2000
   12.2799    0.9824   24.4418 C   0  0  0  0  0  0  0  0  0  0  0  0
   13.7406   -2.1500   25.8239 C   0  0  0  0  0  0  0  0  0  0  0  0
   13.5986   -0.8146   25.4470 C   0  0  0  0  0  0  0  0  0  0  0  0
   12.7090   -3.0569   25.5806 C   0  0  0  0  0  0  0  0  0  0  0  0
    5.4493   -5.9978   22.6018 C   0  0  0  0  0  0  0  0  0  0  0  0
   11.3933   -1.2928   24.5838 C   0  0  0  0  0  0  0  0  0  0  0  0
    5.5624   -5.6290   21.2710 C   0  0  0  0  0  0  0  0  0  0  0  0
    7.6180   -4.6642   21.6203 C   0  0  0  0  0  0  0  0  0  0  0  0
   12.4249   -0.3860   24.8270 C   0  0  0  0  0  0  0  0  0  0  0  0
    6.4924   -5.6672   23.4597 C   0  0  0  0  0  0  0  0  0  0  0  0
   11.5354   -2.6283   24.9606 C   0  0  0  0  0  0  0  0  0  0  0  0
    7.6011   -4.9876   22.9675 C   0  0  0  0  0  0  0  0  0  0  0  0
    9.5478   -3.5270   23.6719 C   0  0  0  0  0  0  0  0  0  0  0  0
    6.3965   -6.0521   24.8996 C   0  0  0  0  0  0  0  0  0  0  0  0
   12.1622    2.0937   24.1288 N   0  0  0  0  0  0  0  0  0  0  0  0
    6.6237   -4.9683   20.7563 N   0  0  0  0  0  0  0  0  0  0  0  0
   10.5044   -3.5358   24.7164 N   0  0  0  0  0  0  0  0  0  0  0  0
    8.6877   -4.6294   23.8000 N   0  0  0  0  0  0  0  0  0  0  0  0
    9.4860   -2.6777   22.7887 O   0  0  0  0  0  0  0  0  0  0  0  0
  1  9  1  0
  1 15  3  0
  2  3  2  0
  2  4  1  0
  3  9  1  0
  4 11  2  0
  5  7  2  0
  5 10  1  0
  6  9  2  0
  6 11  1  0
  7 16  1  0
  8 12  1  0
  8 16  2  0
 10 12  2  0
 10 14  1  0
 11 17  1  0
 12 18  1  0
 13 17  1  0
 13 18  1  0
 13 19  2  0
M  END
