TRY-UNI-714a760b-14
     RDKit          3D

 19 20  0  0  1  0  0  0  0  0999 V2000
   14.0226   -0.7064   22.9919 C   0  0  0  0  0  0  0  0  0  0  0  0
   13.2830   -0.2044   24.0626 C   0  0  0  0  0  0  0  0  0  0  0  0
   13.3743   -1.3457   21.9351 C   0  0  0  0  0  0  0  0  0  0  0  0
   11.8950   -0.3419   24.0768 C   0  0  0  0  0  0  0  0  0  0  0  0
   11.9863   -1.4832   21.9493 C   0  0  0  0  0  0  0  0  0  0  0  0
    6.1987    0.7809   17.9528 C   0  0  0  0  0  0  0  0  0  0  0  0
    8.0391   -0.0934   19.0142 C   0  0  0  0  0  0  0  0  0  0  0  0
   11.2466   -0.9813   23.0201 C   0  0  0  0  0  0  0  0  0  0  0  0
    6.2973    0.8533   20.3280 C   0  0  0  0  0  0  0  0  0  0  0  0
    5.6094    1.1401   19.1542 C   0  0  0  0  0  0  0  0  0  0  0  0
    7.5361    0.2249   20.2654 C   0  0  0  0  0  0  0  0  0  0  0  0
    9.1665   -1.1452   21.6115 C   0  0  0  0  0  0  0  0  0  0  0  0
    5.7074    1.2196   21.6537 C   0  0  0  0  0  0  0  0  0  0  0  0
    9.3157   -2.3782   23.8179 C   0  0  0  0  0  0  0  0  0  0  0  0
    9.7625   -1.1289   23.0347 C   0  0  0  0  0  0  0  0  0  0  0  0
    7.4002    0.1694   17.8522 N   0  0  0  0  0  0  0  0  0  0  0  0
    4.3540    1.7739   19.1659 N   0  0  0  0  0  0  0  0  0  0  0  0
    8.2762   -0.0897   21.4297 N   0  0  0  0  0  0  0  0  0  0  0  0
    9.4921   -1.9901   20.7824 O   0  0  0  0  0  0  0  0  0  0  0  0
  1  2  2  0
  1  3  1  0
  2  4  1  0
  3  5  2  0
  4  8  2  0
  5  8  1  0
  6 10  2  0
  6 16  1  0
  7 11  1  0
  7 16  2  0
  8 15  1  0
  9 10  1  0
  9 11  2  0
  9 13  1  0
 10 17  1  0
 11 18  1  0
 12 15  1  0
 12 18  1  0
 12 19  2  0
 14 15  1  0
M  END
