TRY-UNI-1fd04853-10
     RDKit          3D

 22 24  0  0  0  0  0  0  0  0999 V2000
   11.6203    0.8480   24.5351 C   0  0  0  0  0  0  0  0  0  0  0  0
    7.3841   -2.4546   20.7635 C   0  0  0  0  0  0  0  0  0  0  0  0
    8.1125   -3.2916   21.6069 C   0  0  0  0  0  0  0  0  0  0  0  0
   13.4414   -0.7339   24.1480 C   0  0  0  0  0  0  0  0  0  0  0  0
   11.4590   -1.4684   25.2947 C   0  0  0  0  0  0  0  0  0  0  0  0
    6.1017   -2.8343   20.3909 C   0  0  0  0  0  0  0  0  0  0  0  0
   13.9374   -2.0192   24.2950 C   0  0  0  0  0  0  0  0  0  0  0  0
    6.8125   -6.4523   22.8954 C   0  0  0  0  0  0  0  0  0  0  0  0
   12.1778   -0.4614   24.6602 C   0  0  0  0  0  0  0  0  0  0  0  0
    7.5030   -4.4817   22.0358 C   0  0  0  0  0  0  0  0  0  0  0  0
    7.8738   -5.5735   22.8647 C   0  0  0  0  0  0  0  0  0  0  0  0
   12.0437   -2.7209   25.3902 C   0  0  0  0  0  0  0  0  0  0  0  0
    6.2114   -4.7383   21.5851 C   0  0  0  0  0  0  0  0  0  0  0  0
    9.5027   -4.6169   24.5406 C   0  0  0  0  0  0  0  0  0  0  0  0
    9.1597   -5.7463   23.5696 C   0  0  0  0  0  0  0  0  0  0  0  0
   11.2970   -3.8327   26.0689 C   0  0  0  0  0  0  0  0  0  0  0  0
   11.1675    1.9117   24.4335 N   0  0  0  0  0  0  0  0  0  0  0  0
   13.2687   -3.0234   24.9050 N   0  0  0  0  0  0  0  0  0  0  0  0
    5.4656   -3.9662   20.7723 N   0  0  0  0  0  0  0  0  0  0  0  0
    5.8101   -5.9360   22.1157 N   0  0  0  0  0  0  0  0  0  0  0  0
   10.7533   -4.7764   25.1205 N   0  0  0  0  0  0  0  0  0  0  0  0
    8.7379   -3.6816   24.7618 O   0  0  0  0  0  0  0  0  0  0  0  0
  1  9  1  0
  1 17  3  0
  2  3  2  0
  2  6  1  0
  3 10  1  0
  4  7  2  0
  4  9  1  0
  5  9  2  0
  5 12  1  0
  6 19  2  0
  7 18  1  0
  8 11  2  0
  8 20  1  0
 10 11  1  0
 10 13  2  0
 11 15  1  0
 12 16  1  0
 12 18  2  0
 13 19  1  0
 13 20  1  0
 14 15  1  0
 14 21  1  0
 14 22  2  0
 16 21  1  0
M  END
