TRY-UNI-1fd04853-12
     RDKit          3D

 22 24  0  0  0  0  0  0  0  0999 V2000
   14.2462    0.6296   23.4981 C   0  0  0  0  0  0  0  0  0  0  0  0
    7.5433   -2.2769   20.9262 C   0  0  0  0  0  0  0  0  0  0  0  0
   14.1944   -1.6952   24.2763 C   0  0  0  0  0  0  0  0  0  0  0  0
    8.2811   -3.0964   21.7785 C   0  0  0  0  0  0  0  0  0  0  0  0
   13.5340   -2.7242   24.9384 C   0  0  0  0  0  0  0  0  0  0  0  0
    6.2516   -2.6567   20.5872 C   0  0  0  0  0  0  0  0  0  0  0  0
   12.3415   -0.2780   24.7398 C   0  0  0  0  0  0  0  0  0  0  0  0
    6.9827   -6.2117   23.1747 C   0  0  0  0  0  0  0  0  0  0  0  0
   13.5936   -0.4457   24.1707 C   0  0  0  0  0  0  0  0  0  0  0  0
    7.6712   -4.2701   22.2502 C   0  0  0  0  0  0  0  0  0  0  0  0
    8.0494   -5.3420   23.1012 C   0  0  0  0  0  0  0  0  0  0  0  0
   12.2847   -2.4544   25.4733 C   0  0  0  0  0  0  0  0  0  0  0  0
    6.3698   -4.5289   21.8299 C   0  0  0  0  0  0  0  0  0  0  0  0
    9.7154   -4.3533   24.7212 C   0  0  0  0  0  0  0  0  0  0  0  0
    9.3468   -5.5056   23.7871 C   0  0  0  0  0  0  0  0  0  0  0  0
   11.5428   -3.5419   26.1951 C   0  0  0  0  0  0  0  0  0  0  0  0
   14.7772    1.5044   22.9509 N   0  0  0  0  0  0  0  0  0  0  0  0
   11.6692   -1.2536   25.3907 N   0  0  0  0  0  0  0  0  0  0  0  0
    5.6147   -3.7733   21.0103 N   0  0  0  0  0  0  0  0  0  0  0  0
    5.9699   -5.7090   22.3997 N   0  0  0  0  0  0  0  0  0  0  0  0
   10.9752   -4.5066   25.2824 N   0  0  0  0  0  0  0  0  0  0  0  0
    8.9613   -3.4066   24.9309 O   0  0  0  0  0  0  0  0  0  0  0  0
  1  9  1  0
  1 17  3  0
  2  4  2  0
  2  6  1  0
  3  5  2  0
  3  9  1  0
  4 10  1  0
  5 12  1  0
  6 19  2  0
  7  9  2  0
  7 18  1  0
  8 11  2  0
  8 20  1  0
 10 11  1  0
 10 13  2  0
 11 15  1  0
 12 16  1  0
 12 18  2  0
 13 19  1  0
 13 20  1  0
 14 15  1  0
 14 21  1  0
 14 22  2  0
 16 21  1  0
M  END
