VIC-UNI-33d4332f-1
     RDKit          3D

 25 27  0  0  1  0  0  0  0  0999 V2000
   12.4860   -1.0994   21.8713 C   0  0  0  0  0  0  0  0  0  0  0  0
   11.6849   -1.9790   22.7114 C   0  0  0  0  0  0  0  0  0  0  0  0
   10.2053    0.7338   24.5886 C   0  0  0  0  0  0  0  0  0  0  0  0
   12.7973    0.1467   22.2716 C   0  0  0  0  0  0  0  0  0  0  0  0
   11.1082   -0.1010   24.0775 C   0  0  0  0  0  0  0  0  0  0  0  0
   10.9898   -1.5120   23.7701 C   0  0  0  0  0  0  0  0  0  0  0  0
   10.8022    2.0388   24.2678 C   0  0  0  0  0  0  0  0  0  0  0  0
    5.1115   -4.4542   23.4070 C   0  0  0  0  0  0  0  0  0  0  0  0
    8.1537    2.0582   21.8701 C   0  0  0  0  0  0  0  0  0  0  0  0
    6.2956   -2.6963   24.6832 C   0  0  0  0  0  0  0  0  0  0  0  0
    7.0846   -3.2018   22.4039 C   0  0  0  0  0  0  0  0  0  0  0  0
    7.7185   -2.7792   25.2163 C   0  0  0  0  0  0  0  0  0  0  0  0
    8.5206   -3.2905   22.9027 C   0  0  0  0  0  0  0  0  0  0  0  0
   12.3386    0.6277   23.6181 C   0  0  0  0  0  0  0  0  0  0  0  0
    4.6740   -5.0774   24.7085 C   0  0  0  0  0  0  0  0  0  0  0  0
    7.0701    1.0358   21.7755 C   0  0  0  0  0  0  0  0  0  0  0  0
   10.1027   -2.3666   24.5994 C   0  0  0  0  0  0  0  0  0  0  0  0
   10.0616    3.3016   24.5772 C   0  0  0  0  0  0  0  0  0  0  0  0
    9.1939    3.7191   23.4004 C   0  0  0  0  0  0  0  0  0  0  0  0
   11.9549    2.0540   23.6526 N   0  0  0  0  0  0  0  0  0  0  0  0
    6.1368   -3.5123   23.4794 N   0  0  0  0  0  0  0  0  0  0  0  0
    8.2195    2.6973   23.0938 N   0  0  0  0  0  0  0  0  0  0  0  0
    8.6809   -2.3986   24.1135 N   0  0  0  0  0  0  0  0  0  0  0  0
    4.5559   -4.7937   22.3591 O   0  0  0  0  0  0  0  0  0  0  0  0
    8.8828    2.2569   20.9054 O   0  0  0  0  0  0  0  0  0  0  0  0
  1  2  1  0
  1  4  2  0
  2  6  2  0
  3  5  2  0
  3  7  1  0
  4 14  1  0
  5  6  1  0
  5 14  1  0
  6 17  1  0
  7 18  1  0
  7 20  2  0
  8 15  1  0
  8 21  1  0
  8 24  2  0
  9 16  1  0
  9 22  1  0
  9 25  2  0
 10 12  1  0
 10 21  1  0
 11 13  1  0
 11 21  1  0
 12 23  1  0
 13 23  1  0
 14 20  1  0
 17 23  1  0
 18 19  1  0
 19 22  1  0
M  CHG  1  23   1
M  END
