VID-DNY-1d288c6c-10
     RDKit          3D

 30 33  0  0  0  0  0  0  0  0999 V2000
    9.7960    7.3558   24.2176 C   0  0  0  0  0  0  0  0  0  0  0  0
   10.7701    6.7337   24.9985 C   0  0  0  0  0  0  0  0  0  0  0  0
    9.0495    6.6079   23.3071 C   0  0  0  0  0  0  0  0  0  0  0  0
   10.9978    5.3637   24.8688 C   0  0  0  0  0  0  0  0  0  0  0  0
    9.2772    5.2378   23.1774 C   0  0  0  0  0  0  0  0  0  0  0  0
   12.9093   -0.2902   25.0291 C   0  0  0  0  0  0  0  0  0  0  0  0
   12.4744   -0.7209   22.6919 C   0  0  0  0  0  0  0  0  0  0  0  0
    9.2329   -0.9835   24.0515 C   0  0  0  0  0  0  0  0  0  0  0  0
    8.4937   -2.1260   23.7449 C   0  0  0  0  0  0  0  0  0  0  0  0
   13.7415   -1.4084   25.0804 C   0  0  0  0  0  0  0  0  0  0  0  0
   13.3066   -1.8392   22.7432 C   0  0  0  0  0  0  0  0  0  0  0  0
    7.9766   -1.2080   21.5707 C   0  0  0  0  0  0  0  0  0  0  0  0
   11.7044    2.5316   24.0307 C   0  0  0  0  0  0  0  0  0  0  0  0
   10.2513    4.6157   23.9583 C   0  0  0  0  0  0  0  0  0  0  0  0
   12.2758    0.0536   23.8348 C   0  0  0  0  0  0  0  0  0  0  0  0
    9.3439    0.0468   23.1177 C   0  0  0  0  0  0  0  0  0  0  0  0
    7.8656   -2.2383   22.5045 C   0  0  0  0  0  0  0  0  0  0  0  0
    8.7158   -0.0655   21.8773 C   0  0  0  0  0  0  0  0  0  0  0  0
   13.9401   -2.1829   23.9374 C   0  0  0  0  0  0  0  0  0  0  0  0
   10.4856    3.2052   23.8244 C   0  0  0  0  0  0  0  0  0  0  0  0
   11.4142    1.2125   23.7813 C   0  0  0  0  0  0  0  0  0  0  0  0
    9.4949    2.3820   23.4711 N   0  0  0  0  0  0  0  0  0  0  0  0
   10.0908    1.1776   23.4533 N   0  0  0  0  0  0  0  0  0  0  0  0
    7.1137   -3.4019   22.1924 N   0  0  0  0  0  0  0  0  0  0  0  0
    8.8114    0.9685   20.9027 N   0  0  0  0  0  0  0  0  0  0  0  0
    7.0272   -4.3170   23.0464 O   0  0  0  0  0  0  0  0  0  0  0  0
    6.5563   -3.4828   21.0712 O   0  0  0  0  0  0  0  0  0  0  0  0
    8.2294    0.8180   19.8036 O   0  0  0  0  0  0  0  0  0  0  0  0
    9.4742    1.9960   21.1753 O   0  0  0  0  0  0  0  0  0  0  0  0
   14.7400   -3.2563   23.9863 F   0  0  0  0  0  0  0  0  0  0  0  0
  1  2  2  0
  1  3  1  0
  2  4  1  0
  3  5  2  0
  4 14  2  0
  5 14  1  0
  6 10  2  0
  6 15  1  0
  7 11  1  0
  7 15  2  0
  8  9  2  0
  8 16  1  0
  9 17  1  0
 10 19  1  0
 11 19  2  0
 12 17  2  0
 12 18  1  0
 13 20  1  0
 13 21  2  0
 14 20  1  0
 15 21  1  0
 16 18  2  0
 16 23  1  0
 17 24  1  0
 18 25  1  0
 19 30  1  0
 20 22  2  0
 21 23  1  0
 22 23  1  0
 24 26  1  0
 24 27  2  0
 25 28  1  0
 25 29  2  0
M  CHG  4  24   1  25   1  26  -1  28  -1
M  END
