VID-DNY-1d288c6c-8
     RDKit          3D

 31 34  0  0  0  0  0  0  0  0999 V2000
    5.1721    0.8434   20.2153 C   0  0  0  0  0  0  0  0  0  0  0  0
    4.4194    1.6950   22.3472 C   0  0  0  0  0  0  0  0  0  0  0  0
   10.5158    0.0898   24.0403 C   0  0  0  0  0  0  0  0  0  0  0  0
   10.4732   -1.6243   22.3382 C   0  0  0  0  0  0  0  0  0  0  0  0
    7.6433   -1.6307   25.8680 C   0  0  0  0  0  0  0  0  0  0  0  0
    7.7916   -2.5866   26.8730 C   0  0  0  0  0  0  0  0  0  0  0  0
    4.1177    1.5000   19.5807 C   0  0  0  0  0  0  0  0  0  0  0  0
    3.3650    2.3517   21.7126 C   0  0  0  0  0  0  0  0  0  0  0  0
   11.8764   -0.1428   24.2405 C   0  0  0  0  0  0  0  0  0  0  0  0
   11.8339   -1.8569   22.5384 C   0  0  0  0  0  0  0  0  0  0  0  0
    7.7555   -4.3396   25.2108 C   0  0  0  0  0  0  0  0  0  0  0  0
    7.7832    0.4611   22.0196 C   0  0  0  0  0  0  0  0  0  0  0  0
    5.3229    0.9408   21.5986 C   0  0  0  0  0  0  0  0  0  0  0  0
    9.8141   -0.6510   23.0892 C   0  0  0  0  0  0  0  0  0  0  0  0
    7.5510   -2.0292   24.5345 C   0  0  0  0  0  0  0  0  0  0  0  0
    7.8477   -3.9410   26.5444 C   0  0  0  0  0  0  0  0  0  0  0  0
    7.6071   -3.3837   24.2059 C   0  0  0  0  0  0  0  0  0  0  0  0
    3.2142    2.2541   20.3293 C   0  0  0  0  0  0  0  0  0  0  0  0
   12.5355   -1.1161   23.4896 C   0  0  0  0  0  0  0  0  0  0  0  0
    6.4086    0.2651   22.2520 C   0  0  0  0  0  0  0  0  0  0  0  0
    8.4046   -0.4094   22.8813 C   0  0  0  0  0  0  0  0  0  0  0  0
    6.1703   -0.6577   23.1878 N   0  0  0  0  0  0  0  0  0  0  0  0
    7.4035   -1.0493   23.5510 N   0  0  0  0  0  0  0  0  0  0  0  0
    7.9995   -4.9140   27.5676 N   0  0  0  0  0  0  0  0  0  0  0  0
    7.5169   -3.8219   22.8538 N   0  0  0  0  0  0  0  0  0  0  0  0
    8.0812   -4.5339   28.7606 O   0  0  0  0  0  0  0  0  0  0  0  0
    8.0474   -6.1271   27.2507 O   0  0  0  0  0  0  0  0  0  0  0  0
    7.5736   -5.0498   22.6120 O   0  0  0  0  0  0  0  0  0  0  0  0
    7.3832   -2.9657   21.9491 O   0  0  0  0  0  0  0  0  0  0  0  0
    1.9122    3.0637   19.5475 Cl  0  0  0  0  0  0  0  0  0  0  0  0
   14.3799   -1.4292   23.7581 Br  0  0  0  0  0  0  0  0  0  0  0  0
  1  7  2  0
  1 13  1  0
  2  8  1  0
  2 13  2  0
  3  9  2  0
  3 14  1  0
  4 10  1  0
  4 14  2  0
  5  6  2  0
  5 15  1  0
  6 16  1  0
  7 18  1  0
  8 18  2  0
  9 19  1  0
 10 19  2  0
 11 16  2  0
 11 17  1  0
 12 20  1  0
 12 21  2  0
 13 20  1  0
 14 21  1  0
 15 17  2  0
 15 23  1  0
 16 24  1  0
 17 25  1  0
 18 30  1  0
 19 31  1  0
 20 22  2  0
 21 23  1  0
 22 23  1  0
 24 26  1  0
 24 27  2  0
 25 28  1  0
 25 29  2  0
M  CHG  4  24   1  25   1  26  -1  28  -1
M  END
