VID-DNY-1d288c6c-4
     RDKit          3D

 31 34  0  0  0  0  0  0  0  0999 V2000
   10.9795    0.5710   22.7281 C   0  0  0  0  0  0  0  0  0  0  0  0
    9.3729    1.8062   24.0435 C   0  0  0  0  0  0  0  0  0  0  0  0
    9.0329   -4.2908   26.0323 C   0  0  0  0  0  0  0  0  0  0  0  0
    6.7148   -4.2199   25.3552 C   0  0  0  0  0  0  0  0  0  0  0  0
    8.1562   -0.8613   20.5989 C   0  0  0  0  0  0  0  0  0  0  0  0
    7.6757   -0.2932   19.4191 C   0  0  0  0  0  0  0  0  0  0  0  0
   11.6820    1.7500   22.4790 C   0  0  0  0  0  0  0  0  0  0  0  0
   10.0754    2.9853   23.7944 C   0  0  0  0  0  0  0  0  0  0  0  0
    8.7760   -5.4316   26.7926 C   0  0  0  0  0  0  0  0  0  0  0  0
    6.4579   -5.3608   26.1155 C   0  0  0  0  0  0  0  0  0  0  0  0
    6.0510    0.9671   20.6877 C   0  0  0  0  0  0  0  0  0  0  0  0
    9.2386   -1.5260   24.7932 C   0  0  0  0  0  0  0  0  0  0  0  0
    8.0023   -3.6848   25.3136 C   0  0  0  0  0  0  0  0  0  0  0  0
    9.8249    0.5991   23.5104 C   0  0  0  0  0  0  0  0  0  0  0  0
    7.5840   -0.5153   21.8231 C   0  0  0  0  0  0  0  0  0  0  0  0
    6.6232    0.6211   19.4635 C   0  0  0  0  0  0  0  0  0  0  0  0
    6.5315    0.3989   21.8675 C   0  0  0  0  0  0  0  0  0  0  0  0
   11.2299    2.9571   23.0121 C   0  0  0  0  0  0  0  0  0  0  0  0
    7.4885   -5.9666   26.8342 C   0  0  0  0  0  0  0  0  0  0  0  0
    8.2664   -2.5099   24.5314 C   0  0  0  0  0  0  0  0  0  0  0  0
    9.0964   -0.6218   23.7691 C   0  0  0  0  0  0  0  0  0  0  0  0
    7.5588   -2.2549   23.4276 N   0  0  0  0  0  0  0  0  0  0  0  0
    8.0868   -1.1003   22.9868 N   0  0  0  0  0  0  0  0  0  0  0  0
    6.1346    1.1999   18.2622 N   0  0  0  0  0  0  0  0  0  0  0  0
    5.9275    0.7733   23.1017 N   0  0  0  0  0  0  0  0  0  0  0  0
    6.6639    0.8753   17.1719 O   0  0  0  0  0  0  0  0  0  0  0  0
    5.1869    2.0198   18.3241 O   0  0  0  0  0  0  0  0  0  0  0  0
    4.9858    1.5994   23.0870 O   0  0  0  0  0  0  0  0  0  0  0  0
    6.3566    0.2643   24.1629 O   0  0  0  0  0  0  0  0  0  0  0  0
   12.0976    4.4117   22.7069 Cl  0  0  0  0  0  0  0  0  0  0  0  0
    7.1402   -7.5116   27.8653 Br  0  0  0  0  0  0  0  0  0  0  0  0
  1  7  2  0
  1 14  1  0
  2  8  1  0
  2 14  2  0
  3  9  2  0
  3 13  1  0
  4 10  1  0
  4 13  2  0
  5  6  2  0
  5 15  1  0
  6 16  1  0
  7 18  1  0
  8 18  2  0
  9 19  1  0
 10 19  2  0
 11 16  2  0
 11 17  1  0
 12 20  1  0
 12 21  2  0
 13 20  1  0
 14 21  1  0
 15 17  2  0
 15 23  1  0
 16 24  1  0
 17 25  1  0
 18 30  1  0
 19 31  1  0
 20 22  2  0
 21 23  1  0
 22 23  1  0
 24 26  1  0
 24 27  2  0
 25 28  1  0
 25 29  2  0
M  CHG  4  24   1  25   1  26  -1  28  -1
M  END
