VID-DNY-1d288c6c-1
     RDKit          3D

 29 32  0  0  0  0  0  0  0  0999 V2000
   10.7429    7.3606   24.4289 C   0  0  0  0  0  0  0  0  0  0  0  0
   14.5393   -2.0861   22.2878 C   0  0  0  0  0  0  0  0  0  0  0  0
   11.9981    6.7868   24.6310 C   0  0  0  0  0  0  0  0  0  0  0  0
    9.6698    6.5663   24.0249 C   0  0  0  0  0  0  0  0  0  0  0  0
   14.4838   -1.6631   23.6157 C   0  0  0  0  0  0  0  0  0  0  0  0
   13.8074   -1.4123   21.3100 C   0  0  0  0  0  0  0  0  0  0  0  0
   12.1802    5.4187   24.4290 C   0  0  0  0  0  0  0  0  0  0  0  0
    9.8519    5.1982   23.8229 C   0  0  0  0  0  0  0  0  0  0  0  0
   13.6963   -0.5664   23.9660 C   0  0  0  0  0  0  0  0  0  0  0  0
   13.0200   -0.3155   21.6602 C   0  0  0  0  0  0  0  0  0  0  0  0
   10.0388   -0.6713   25.0447 C   0  0  0  0  0  0  0  0  0  0  0  0
    9.2755   -1.8314   25.1763 C   0  0  0  0  0  0  0  0  0  0  0  0
    8.5685   -1.6272   22.8751 C   0  0  0  0  0  0  0  0  0  0  0  0
   12.4775    2.5771   23.3997 C   0  0  0  0  0  0  0  0  0  0  0  0
   11.1071    4.6244   24.0249 C   0  0  0  0  0  0  0  0  0  0  0  0
   12.9644    0.1074   22.9883 C   0  0  0  0  0  0  0  0  0  0  0  0
   10.0669    0.0108   23.8283 C   0  0  0  0  0  0  0  0  0  0  0  0
    8.5404   -2.3093   24.0915 C   0  0  0  0  0  0  0  0  0  0  0  0
    9.3318   -0.4672   22.7435 C   0  0  0  0  0  0  0  0  0  0  0  0
   11.2943    3.2159   23.8167 C   0  0  0  0  0  0  0  0  0  0  0  0
   12.1493    1.2442   23.3512 C   0  0  0  0  0  0  0  0  0  0  0  0
   10.2895    2.3593   24.0186 N   0  0  0  0  0  0  0  0  0  0  0  0
   10.8405    1.1687   23.7272 N   0  0  0  0  0  0  0  0  0  0  0  0
    7.7640   -3.4909   24.2256 N   0  0  0  0  0  0  0  0  0  0  0  0
    9.3410    0.2061   21.4886 N   0  0  0  0  0  0  0  0  0  0  0  0
    7.7532   -4.0893   25.3283 O   0  0  0  0  0  0  0  0  0  0  0  0
    7.1098   -3.9037   23.2377 O   0  0  0  0  0  0  0  0  0  0  0  0
    8.6642   -0.2651   20.5456 O   0  0  0  0  0  0  0  0  0  0  0  0
   10.0253    1.2485   21.3675 O   0  0  0  0  0  0  0  0  0  0  0  0
  1  3  2  0
  1  4  1  0
  2  5  2  0
  2  6  1  0
  3  7  1  0
  4  8  2  0
  5  9  1  0
  6 10  2  0
  7 15  2  0
  8 15  1  0
  9 16  2  0
 10 16  1  0
 11 12  2  0
 11 17  1  0
 12 18  1  0
 13 18  2  0
 13 19  1  0
 14 20  1  0
 14 21  2  0
 15 20  1  0
 16 21  1  0
 17 19  2  0
 17 23  1  0
 18 24  1  0
 19 25  1  0
 20 22  2  0
 21 23  1  0
 22 23  1  0
 24 26  1  0
 24 27  2  0
 25 28  1  0
 25 29  2  0
M  CHG  4  24   1  25   1  26  -1  28  -1
M  END
