VID-DNY-1d288c6c-11
     RDKit          3D

 31 34  0  0  0  0  0  0  0  0999 V2000
   10.5871    4.8864   24.7037 C   0  0  0  0  0  0  0  0  0  0  0  0
    8.7981    4.4841   23.1306 C   0  0  0  0  0  0  0  0  0  0  0  0
   13.1740   -0.4884   24.9489 C   0  0  0  0  0  0  0  0  0  0  0  0
   12.6583   -1.0698   22.6614 C   0  0  0  0  0  0  0  0  0  0  0  0
    9.5574   -1.6545   24.2323 C   0  0  0  0  0  0  0  0  0  0  0  0
    8.9451   -2.8888   24.0151 C   0  0  0  0  0  0  0  0  0  0  0  0
   10.2038    6.2242   24.7975 C   0  0  0  0  0  0  0  0  0  0  0  0
    8.4148    5.8219   23.2244 C   0  0  0  0  0  0  0  0  0  0  0  0
   14.1367   -1.4969   24.9883 C   0  0  0  0  0  0  0  0  0  0  0  0
   13.6211   -2.0783   22.7006 C   0  0  0  0  0  0  0  0  0  0  0  0
    8.1945   -2.1348   21.8460 C   0  0  0  0  0  0  0  0  0  0  0  0
   11.5804    2.1243   23.9265 C   0  0  0  0  0  0  0  0  0  0  0  0
    9.8843    4.0163   23.8701 C   0  0  0  0  0  0  0  0  0  0  0  0
   12.4347   -0.2749   23.7855 C   0  0  0  0  0  0  0  0  0  0  0  0
    9.4882   -0.6603   23.2563 C   0  0  0  0  0  0  0  0  0  0  0  0
    8.2637   -3.1290   22.8220 C   0  0  0  0  0  0  0  0  0  0  0  0
    8.8067   -0.9005   22.0632 C   0  0  0  0  0  0  0  0  0  0  0  0
    9.1176    6.6920   24.0580 C   0  0  0  0  0  0  0  0  0  0  0  0
   14.3603   -2.2919   23.8641 C   0  0  0  0  0  0  0  0  0  0  0  0
   10.2791    2.6391   23.7734 C   0  0  0  0  0  0  0  0  0  0  0  0
   11.4376    0.7704   23.7444 C   0  0  0  0  0  0  0  0  0  0  0  0
    9.3762    1.6897   23.5138 N   0  0  0  0  0  0  0  0  0  0  0  0
   10.1113    0.5647   23.5024 N   0  0  0  0  0  0  0  0  0  0  0  0
    7.6410   -4.3860   22.6008 N   0  0  0  0  0  0  0  0  0  0  0  0
    8.7195    0.0938   21.0473 N   0  0  0  0  0  0  0  0  0  0  0  0
    7.7158   -5.2665   23.4915 O   0  0  0  0  0  0  0  0  0  0  0  0
    7.0327   -4.5815   21.5210 O   0  0  0  0  0  0  0  0  0  0  0  0
    8.0966   -0.1726   19.9935 O   0  0  0  0  0  0  0  0  0  0  0  0
    9.2681    1.2035   21.2397 O   0  0  0  0  0  0  0  0  0  0  0  0
    8.7495    7.9768   24.1482 F   0  0  0  0  0  0  0  0  0  0  0  0
   15.2856   -3.2598   23.9014 F   0  0  0  0  0  0  0  0  0  0  0  0
  1  7  2  0
  1 13  1  0
  2  8  1  0
  2 13  2  0
  3  9  2  0
  3 14  1  0
  4 10  1  0
  4 14  2  0
  5  6  2  0
  5 15  1  0
  6 16  1  0
  7 18  1  0
  8 18  2  0
  9 19  1  0
 10 19  2  0
 11 16  2  0
 11 17  1  0
 12 20  1  0
 12 21  2  0
 13 20  1  0
 14 21  1  0
 15 17  2  0
 15 23  1  0
 16 24  1  0
 17 25  1  0
 18 30  1  0
 19 31  1  0
 20 22  2  0
 21 23  1  0
 22 23  1  0
 24 26  1  0
 24 27  2  0
 25 28  1  0
 25 29  2  0
M  CHG  4  24   1  25   1  26  -1  28  -1
M  END
