VIJ-CYC-1a381570-9
     RDKit          3D

 27 29  0  0  0  0  0  0  0  0999 V2000
    6.0662   -5.1740   20.6184 C   0  0  0  0  0  0  0  0  0  0  0  0
    5.7716   -3.1572   23.3233 C   0  0  0  0  0  0  0  0  0  0  0  0
    7.8760   -2.7856   22.1962 C   0  0  0  0  0  0  0  0  0  0  0  0
    5.8405   -1.8776   23.8740 C   0  0  0  0  0  0  0  0  0  0  0  0
    7.9449   -1.5059   22.7468 C   0  0  0  0  0  0  0  0  0  0  0  0
    9.6886   -4.4581   25.3977 C   0  0  0  0  0  0  0  0  0  0  0  0
    6.7894   -3.6113   22.4844 C   0  0  0  0  0  0  0  0  0  0  0  0
    8.5660   -3.8465   25.8999 C   0  0  0  0  0  0  0  0  0  0  0  0
    6.9272   -1.0519   23.5858 C   0  0  0  0  0  0  0  0  0  0  0  0
    7.8208   -4.8945   26.4728 C   0  0  0  0  0  0  0  0  0  0  0  0
    6.5928   -6.1436   22.8788 C   0  0  0  0  0  0  0  0  0  0  0  0
    7.8931   -5.9122   22.1820 C   0  0  0  0  0  0  0  0  0  0  0  0
    6.7165   -4.9787   21.8966 C   0  0  0  0  0  0  0  0  0  0  0  0
    9.2032   -0.2943   25.7173 C   0  0  0  0  0  0  0  0  0  0  0  0
    9.2099   -1.6240   26.4492 C   0  0  0  0  0  0  0  0  0  0  0  0
    6.5193   -4.8044   27.1572 C   0  0  0  0  0  0  0  0  0  0  0  0
    5.5450   -5.3306   19.5937 N   0  0  0  0  0  0  0  0  0  0  0  0
    8.4195   -6.0818   26.3467 N   0  0  0  0  0  0  0  0  0  0  0  0
    9.5527   -5.7836   25.6887 N   0  0  0  0  0  0  0  0  0  0  0  0
    7.8482    0.2749   25.7415 N   0  0  0  0  0  0  0  0  0  0  0  0
    7.8436    1.3857   23.4171 O   0  0  0  0  0  0  0  0  0  0  0  0
    5.6553    0.9742   24.5860 O   0  0  0  0  0  0  0  0  0  0  0  0
    8.2825   -2.5076   25.8318 O   0  0  0  0  0  0  0  0  0  0  0  0
    6.0028   -3.5337   27.2254 F   0  0  0  0  0  0  0  0  0  0  0  0
    5.5214   -5.5453   26.5731 F   0  0  0  0  0  0  0  0  0  0  0  0
    6.5590   -5.2359   28.4589 F   0  0  0  0  0  0  0  0  0  0  0  0
    7.0139    0.5497   24.2753 S   0  0  0  0  0  0  0  0  0  0  0  0
  1 13  1  0
  1 17  3  0
  2  4  2  0
  2  7  1  0
  3  5  1  0
  3  7  2  0
  4  9  1  0
  5  9  2  0
  6  8  2  0
  6 19  1  0
  7 13  1  0
  8 10  1  0
  8 23  1  0
  9 27  1  0
 10 16  1  0
 10 18  2  0
 11 12  1  0
 11 13  1  0
 12 13  1  0
 14 15  1  0
 14 20  1  0
 15 23  1  0
 16 24  1  0
 16 25  1  0
 16 26  1  0
 18 19  1  0
 20 27  1  0
 21 27  2  0
 22 27  2  0
M  END
