VIJ-CYC-1a381570-10
     RDKit          3D

 22 22  0  0  1  0  0  0  0  0999 V2000
    7.3245   -4.4182   21.7596 C   0  0  0  0  0  0  0  0  0  0  0  0
    6.6637   -3.1249   23.6904 C   0  0  0  0  0  0  0  0  0  0  0  0
    8.2784   -5.0822   22.5308 C   0  0  0  0  0  0  0  0  0  0  0  0
    7.6176   -3.7889   24.4616 C   0  0  0  0  0  0  0  0  0  0  0  0
    6.5172   -3.4394   22.3394 C   0  0  0  0  0  0  0  0  0  0  0  0
    8.4249   -4.7676   23.8819 C   0  0  0  0  0  0  0  0  0  0  0  0
    6.6401   -0.5710   17.2564 C   0  0  0  0  0  0  0  0  0  0  0  0
    6.6578   -0.6791   18.5884 C   0  0  0  0  0  0  0  0  0  0  0  0
    5.9558   -1.8043   19.2617 C   0  0  0  0  0  0  0  0  0  0  0  0
   11.0067   -3.5611   25.0101 C   0  0  0  0  0  0  0  0  0  0  0  0
    9.0408   -5.6180   26.1818 C   0  0  0  0  0  0  0  0  0  0  0  0
   12.4870   -1.7502   26.6469 C   0  0  0  0  0  0  0  0  0  0  0  0
   14.2146   -1.8062   24.8244 C   0  0  0  0  0  0  0  0  0  0  0  0
   11.9111   -0.9314   24.3377 C   0  0  0  0  0  0  0  0  0  0  0  0
    5.4972   -2.7290   21.5155 C   0  0  0  0  0  0  0  0  0  0  0  0
    9.4589   -5.4899   24.7184 C   0  0  0  0  0  0  0  0  0  0  0  0
   12.7280   -1.9356   25.1495 C   0  0  0  0  0  0  0  0  0  0  0  0
    6.0864   -1.7472   20.6408 N   0  0  0  0  0  0  0  0  0  0  0  0
   10.7535   -4.8572   24.6131 N   0  0  0  0  0  0  0  0  0  0  0  0
    5.3442   -2.6673   18.6402 O   0  0  0  0  0  0  0  0  0  0  0  0
   10.1876   -2.7874   25.4950 O   0  0  0  0  0  0  0  0  0  0  0  0
   12.3208   -3.2546   24.7836 O   0  0  0  0  0  0  0  0  0  0  0  0
  1  3  2  0
  1  5  1  0
  2  4  1  0
  2  5  2  0
  3  6  1  0
  4  6  2  0
  5 15  1  0
  6 16  1  0
  7  8  2  0
  8  9  1  0
  9 18  1  0
  9 20  2  0
 10 19  1  0
 10 21  2  0
 10 22  1  0
 11 16  1  0
 12 17  1  0
 13 17  1  0
 14 17  1  0
 15 18  1  0
 16 19  1  0
 17 22  1  0
M  END
