VIJ-CYC-1a381570-13
     RDKit          3D

 25 26  0  0  0  0  0  0  0  0999 V2000
    8.6701    4.3427   24.9095 C   0  0  0  0  0  0  0  0  0  0  0  0
    8.4297    6.0468   23.2138 C   0  0  0  0  0  0  0  0  0  0  0  0
   10.0373    4.2703   24.6429 C   0  0  0  0  0  0  0  0  0  0  0  0
    9.7969    5.9744   22.9472 C   0  0  0  0  0  0  0  0  0  0  0  0
    7.8662    5.2309   24.1949 C   0  0  0  0  0  0  0  0  0  0  0  0
   10.6007    5.0862   23.6618 C   0  0  0  0  0  0  0  0  0  0  0  0
   12.8856    0.1335   23.1742 C   0  0  0  0  0  0  0  0  0  0  0  0
   11.5491    0.4732   23.1557 C   0  0  0  0  0  0  0  0  0  0  0  0
   12.3878    2.4000   22.5282 C   0  0  0  0  0  0  0  0  0  0  0  0
   13.5220   -1.0985   23.5039 C   0  0  0  0  0  0  0  0  0  0  0  0
   10.5186   -0.9484   24.9621 C   0  0  0  0  0  0  0  0  0  0  0  0
   10.3700   -1.6706   22.5553 C   0  0  0  0  0  0  0  0  0  0  0  0
    8.9883    0.2206   23.3894 C   0  0  0  0  0  0  0  0  0  0  0  0
   14.4822   -2.3871   25.2991 C   0  0  0  0  0  0  0  0  0  0  0  0
    6.4043    5.3081   24.4792 C   0  0  0  0  0  0  0  0  0  0  0  0
   10.3738   -0.4543   23.5064 C   0  0  0  0  0  0  0  0  0  0  0  0
   11.2617    1.7726   22.7859 N   0  0  0  0  0  0  0  0  0  0  0  0
   12.4105    3.7966   22.1106 N   0  0  0  0  0  0  0  0  0  0  0  0
   13.7867   -2.0216   22.6962 O   0  0  0  0  0  0  0  0  0  0  0  0
   12.9692    4.4692   24.5194 O   0  0  0  0  0  0  0  0  0  0  0  0
   12.7516    6.2810   22.7962 O   0  0  0  0  0  0  0  0  0  0  0  0
   13.8366   -1.1933   24.8433 O   0  0  0  0  0  0  0  0  0  0  0  0
    5.7182    5.6671   23.3575 F   0  0  0  0  0  0  0  0  0  0  0  0
   13.8299    1.4877   22.7097 S   0  0  0  0  0  0  0  0  0  0  0  0
   12.3359    4.9961   23.3249 S   0  0  0  0  0  0  0  0  0  0  0  0
  1  3  2  0
  1  5  1  0
  2  4  1  0
  2  5  2  0
  3  6  1  0
  4  6  2  0
  5 15  1  0
  6 25  1  0
  7  8  2  0
  7 10  1  0
  7 24  1  0
  8 16  1  0
  8 17  1  0
  9 17  2  0
  9 18  1  0
  9 24  1  0
 10 19  2  0
 10 22  1  0
 11 16  1  0
 12 16  1  0
 13 16  1  0
 14 22  1  0
 15 23  1  0
 18 25  1  0
 20 25  2  0
 21 25  2  0
M  END
