VIJ-CYC-1a381570-11
     RDKit          3D

 21 21  0  0  1  0  0  0  0  0999 V2000
   13.8531    1.7800   22.3283 C   0  0  0  0  0  0  0  0  0  0  0  0
   12.1653    1.2867   23.9852 C   0  0  0  0  0  0  0  0  0  0  0  0
   13.4546    3.1167   22.3204 C   0  0  0  0  0  0  0  0  0  0  0  0
   11.7669    2.6234   23.9773 C   0  0  0  0  0  0  0  0  0  0  0  0
   13.2084    0.8650   23.1607 C   0  0  0  0  0  0  0  0  0  0  0  0
   12.4115    3.5384   23.1450 C   0  0  0  0  0  0  0  0  0  0  0  0
   11.3648   -1.5657   22.8688 C   0  0  0  0  0  0  0  0  0  0  0  0
   14.2097   -1.0334   21.8244 C   0  0  0  0  0  0  0  0  0  0  0  0
    8.5347   -3.8545   23.8259 C   0  0  0  0  0  0  0  0  0  0  0  0
    8.3321   -1.5052   22.9726 C   0  0  0  0  0  0  0  0  0  0  0  0
    9.3278   -3.2889   21.5181 C   0  0  0  0  0  0  0  0  0  0  0  0
   12.5087    5.7922   25.7626 C   0  0  0  0  0  0  0  0  0  0  0  0
   13.6400   -0.5857   23.1689 C   0  0  0  0  0  0  0  0  0  0  0  0
    9.1892   -2.7752   22.9559 C   0  0  0  0  0  0  0  0  0  0  0  0
   12.5583   -1.4522   23.5767 N   0  0  0  0  0  0  0  0  0  0  0  0
   10.5055   -2.4662   23.4841 N   0  0  0  0  0  0  0  0  0  0  0  0
   12.9038    5.8964   24.3506 N   0  0  0  0  0  0  0  0  0  0  0  0
   11.1072   -0.9500   21.8352 O   0  0  0  0  0  0  0  0  0  0  0  0
   12.2747    5.8023   21.8542 O   0  0  0  0  0  0  0  0  0  0  0  0
   10.5280    5.2659   23.5821 O   0  0  0  0  0  0  0  0  0  0  0  0
   11.9141    5.2119   23.1369 S   0  0  0  0  0  0  0  0  0  0  0  0
  1  3  2  0
  1  5  1  0
  2  4  1  0
  2  5  2  0
  3  6  1  0
  4  6  2  0
  5 13  1  0
  6 21  1  0
  7 15  1  0
  7 16  1  0
  7 18  2  0
  8 13  1  0
  9 14  1  0
 10 14  1  0
 11 14  1  0
 12 17  1  0
 13 15  1  0
 14 16  1  0
 17 21  1  0
 19 21  2  0
 20 21  2  0
M  END
