VIJ-CYC-1a381570-5
     RDKit          3D

 20 21  0  0  1  0  0  0  0  0999 V2000
   11.9422    1.5429   23.5106 C   0  0  0  0  0  0  0  0  0  0  0  0
   13.8169    1.9695   22.0474 C   0  0  0  0  0  0  0  0  0  0  0  0
   11.6336    2.9032   23.5118 C   0  0  0  0  0  0  0  0  0  0  0  0
   13.5082    3.3298   22.0485 C   0  0  0  0  0  0  0  0  0  0  0  0
   13.0339    1.0761   22.7784 C   0  0  0  0  0  0  0  0  0  0  0  0
   12.4165    3.7966   22.7807 C   0  0  0  0  0  0  0  0  0  0  0  0
    8.9921   -2.4962   23.2423 C   0  0  0  0  0  0  0  0  0  0  0  0
    8.3232   -2.9456   24.2817 C   0  0  0  0  0  0  0  0  0  0  0  0
   11.2745   -1.6507   23.2187 C   0  0  0  0  0  0  0  0  0  0  0  0
    8.9351   -1.7436   22.0532 C   0  0  0  0  0  0  0  0  0  0  0  0
   10.2130   -2.4690   22.5614 C   0  0  0  0  0  0  0  0  0  0  0  0
   14.6019   -0.7182   21.9333 C   0  0  0  0  0  0  0  0  0  0  0  0
   12.3897    5.9660   25.4703 C   0  0  0  0  0  0  0  0  0  0  0  0
   13.3647   -0.3782   22.7776 C   0  0  0  0  0  0  0  0  0  0  0  0
   12.2409   -1.1940   22.3496 N   0  0  0  0  0  0  0  0  0  0  0  0
   12.9318    6.0827   24.1090 N   0  0  0  0  0  0  0  0  0  0  0  0
   11.2200   -1.4473   24.4259 O   0  0  0  0  0  0  0  0  0  0  0  0
   12.5543    6.0993   21.5607 O   0  0  0  0  0  0  0  0  0  0  0  0
   10.6110    5.6323   23.0871 O   0  0  0  0  0  0  0  0  0  0  0  0
   12.0290    5.4989   22.7803 S   0  0  0  0  0  0  0  0  0  0  0  0
  1  3  2  0
  1  5  1  0
  2  4  1  0
  2  5  2  0
  3  6  1  0
  4  6  2  0
  5 14  1  0
  6 20  1  0
  7  8  2  0
  7 10  1  0
  7 11  1  0
  9 11  1  0
  9 15  1  0
  9 17  2  0
 10 11  1  0
 12 14  1  0
 13 16  1  0
 14 15  1  0
 16 20  1  0
 18 20  2  0
 19 20  2  0
M  END
