VIJ-CYC-1a381570-4
     RDKit          3D

 32 35  0  0  0  0  0  0  0  0999 V2000
    8.5984    2.3872   24.3410 C   0  0  0  0  0  0  0  0  0  0  0  0
    7.8032    2.0680   23.2404 C   0  0  0  0  0  0  0  0  0  0  0  0
   10.6382   -0.8439   24.2835 C   0  0  0  0  0  0  0  0  0  0  0  0
   10.1360   -0.9270   21.9217 C   0  0  0  0  0  0  0  0  0  0  0  0
    8.9739    3.7110   24.5697 C   0  0  0  0  0  0  0  0  0  0  0  0
   11.5446    0.1912   24.0544 C   0  0  0  0  0  0  0  0  0  0  0  0
   11.0424    0.1083   21.6926 C   0  0  0  0  0  0  0  0  0  0  0  0
    7.3835    3.0725   22.3684 C   0  0  0  0  0  0  0  0  0  0  0  0
    9.9340   -1.4031   23.2171 C   0  0  0  0  0  0  0  0  0  0  0  0
    8.5542    4.7156   23.6976 C   0  0  0  0  0  0  0  0  0  0  0  0
   11.7467    0.6674   22.7590 C   0  0  0  0  0  0  0  0  0  0  0  0
    7.7590    4.3963   22.5970 C   0  0  0  0  0  0  0  0  0  0  0  0
    9.0004   -2.4683   23.4536 C   0  0  0  0  0  0  0  0  0  0  0  0
    7.8840   -3.8858   24.4655 C   0  0  0  0  0  0  0  0  0  0  0  0
   12.8988    4.2377   22.8021 C   0  0  0  0  0  0  0  0  0  0  0  0
   12.1255    5.4296   23.2761 C   0  0  0  0  0  0  0  0  0  0  0  0
    8.7079    7.9264   25.2965 C   0  0  0  0  0  0  0  0  0  0  0  0
    7.8484    7.2761   24.1984 C   0  0  0  0  0  0  0  0  0  0  0  0
    9.4499    6.5852   25.4322 C   0  0  0  0  0  0  0  0  0  0  0  0
    8.9952    6.2311   23.9744 C   0  0  0  0  0  0  0  0  0  0  0  0
    7.2147   -4.8002   25.4003 C   0  0  0  0  0  0  0  0  0  0  0  0
    6.5314    4.9539   20.6379 C   0  0  0  0  0  0  0  0  0  0  0  0
   12.7215    1.7825   22.5137 C   0  0  0  0  0  0  0  0  0  0  0  0
   10.0064    6.6587   22.9011 C   0  0  0  0  0  0  0  0  0  0  0  0
    8.7763   -2.9589   24.7070 N   0  0  0  0  0  0  0  0  0  0  0  0
    8.2984   -3.0413   22.4714 N   0  0  0  0  0  0  0  0  0  0  0  0
   12.1935    3.0623   22.9251 N   0  0  0  0  0  0  0  0  0  0  0  0
   10.9348    5.5927   22.6057 N   0  0  0  0  0  0  0  0  0  0  0  0
   14.0203    4.4234   22.3577 O   0  0  0  0  0  0  0  0  0  0  0  0
   12.6007    6.0962   24.1814 O   0  0  0  0  0  0  0  0  0  0  0  0
    7.5422   -4.0014   23.1555 O   0  0  0  0  0  0  0  0  0  0  0  0
    7.3412    5.3667   21.7371 O   0  0  0  0  0  0  0  0  0  0  0  0
  1  2  2  0
  1  5  1  0
  2  8  1  0
  3  6  2  0
  3  9  1  0
  4  7  1  0
  4  9  2  0
  5 10  2  0
  6 11  1  0
  7 11  2  0
  8 12  2  0
  9 13  1  0
 10 12  1  0
 10 20  1  0
 11 23  1  0
 12 32  1  0
 13 25  1  0
 13 26  2  0
 14 21  1  0
 14 25  2  0
 14 31  1  0
 15 16  1  0
 15 27  1  0
 15 29  2  0
 16 28  1  0
 16 30  2  0
 17 18  1  0
 17 19  1  0
 18 20  1  0
 19 20  1  0
 20 24  1  0
 22 32  1  0
 23 27  1  0
 24 28  1  0
 26 31  1  0
M  END
