VIJ-CYC-1a381570-3
     RDKit          3D

 27 28  0  0  0  0  0  0  0  0999 V2000
    7.6882   -6.2345   26.7668 C   0  0  0  0  0  0  0  0  0  0  0  0
    5.6289   -5.2603   25.9621 C   0  0  0  0  0  0  0  0  0  0  0  0
    8.3666   -5.7085   25.6674 C   0  0  0  0  0  0  0  0  0  0  0  0
    6.3074   -4.7342   24.8628 C   0  0  0  0  0  0  0  0  0  0  0  0
   10.9106    0.5499   21.9222 C   0  0  0  0  0  0  0  0  0  0  0  0
   10.5586    1.8738   22.1847 C   0  0  0  0  0  0  0  0  0  0  0  0
   12.0185    1.8803   24.1098 C   0  0  0  0  0  0  0  0  0  0  0  0
    6.3193   -6.0105   26.9141 C   0  0  0  0  0  0  0  0  0  0  0  0
    7.6763   -4.9583   24.7154 C   0  0  0  0  0  0  0  0  0  0  0  0
   11.8165   -0.1089   22.7535 C   0  0  0  0  0  0  0  0  0  0  0  0
   11.1126    2.5390   23.2785 C   0  0  0  0  0  0  0  0  0  0  0  0
   12.3705    0.5563   23.8473 C   0  0  0  0  0  0  0  0  0  0  0  0
    5.6109   -6.5581   28.0603 C   0  0  0  0  0  0  0  0  0  0  0  0
    3.6668   -6.2819   29.6186 C   0  0  0  0  0  0  0  0  0  0  0  0
    8.4054   -4.3928   23.5358 C   0  0  0  0  0  0  0  0  0  0  0  0
   11.2525   -2.5083   23.1828 C   0  0  0  0  0  0  0  0  0  0  0  0
   12.1950   -1.5417   22.4665 C   0  0  0  0  0  0  0  0  0  0  0  0
    4.4639   -5.8765   28.4832 N   0  0  0  0  0  0  0  0  0  0  0  0
    9.8664   -2.2941   22.7295 N   0  0  0  0  0  0  0  0  0  0  0  0
    6.0345   -7.5754   28.6369 O   0  0  0  0  0  0  0  0  0  0  0  0
    7.3661   -1.9999   23.3262 O   0  0  0  0  0  0  0  0  0  0  0  0
    9.0419   -2.4493   25.1554 O   0  0  0  0  0  0  0  0  0  0  0  0
   10.7752    3.8106   23.5301 F   0  0  0  0  0  0  0  0  0  0  0  0
   13.2416   -0.0685   24.6519 F   0  0  0  0  0  0  0  0  0  0  0  0
   12.1612   -1.8215   21.1302 F   0  0  0  0  0  0  0  0  0  0  0  0
   13.4733   -1.8211   22.8577 F   0  0  0  0  0  0  0  0  0  0  0  0
    8.5785   -2.6421   23.7947 S   0  0  0  0  0  0  0  0  0  0  0  0
  1  3  2  0
  1  8  1  0
  2  4  1  0
  2  8  2  0
  3  9  1  0
  4  9  2  0
  5  6  2  0
  5 10  1  0
  6 11  1  0
  7 11  2  0
  7 12  1  0
  8 13  1  0
  9 15  1  0
 10 12  2  0
 10 17  1  0
 11 23  1  0
 12 24  1  0
 13 18  1  0
 13 20  2  0
 14 18  1  0
 15 27  1  0
 16 17  1  0
 16 19  1  0
 17 25  1  0
 17 26  1  0
 19 27  1  0
 21 27  2  0
 22 27  2  0
M  END
