VIJ-CYC-1a381570-12
     RDKit          3D

 18 18  0  0  1  0  0  0  0  0999 V2000
    8.2145    0.1153   20.7697 C   0  0  0  0  0  0  0  0  0  0  0  0
   11.3845   -1.2019   22.4825 C   0  0  0  0  0  0  0  0  0  0  0  0
   10.2521   -0.5321   24.5088 C   0  0  0  0  0  0  0  0  0  0  0  0
   10.2569   -1.9233   22.0907 C   0  0  0  0  0  0  0  0  0  0  0  0
    9.1244   -1.2534   24.1170 C   0  0  0  0  0  0  0  0  0  0  0  0
   11.3822   -0.5064   23.6916 C   0  0  0  0  0  0  0  0  0  0  0  0
    9.1268   -1.9491   22.9079 C   0  0  0  0  0  0  0  0  0  0  0  0
    6.9126   -0.0433   18.0421 C   0  0  0  0  0  0  0  0  0  0  0  0
    5.4367   -1.8461   18.9660 C   0  0  0  0  0  0  0  0  0  0  0  0
   12.5880    0.2644   24.1111 C   0  0  0  0  0  0  0  0  0  0  0  0
    7.3961   -1.0402   20.3658 C   0  0  0  0  0  0  0  0  0  0  0  0
    6.3244   -0.6485   19.3225 C   0  0  0  0  0  0  0  0  0  0  0  0
    8.8625    1.0239   21.0878 N   0  0  0  0  0  0  0  0  0  0  0  0
    6.8245   -1.6704   21.5308 N   0  0  0  0  0  0  0  0  0  0  0  0
    8.1251   -3.8986   21.4915 O   0  0  0  0  0  0  0  0  0  0  0  0
    6.9759   -3.2101   23.6199 O   0  0  0  0  0  0  0  0  0  0  0  0
   12.2830    1.5845   24.2591 F   0  0  0  0  0  0  0  0  0  0  0  0
    7.6967   -2.8614   22.4106 S   0  0  0  0  0  0  0  0  0  0  0  0
  1 11  1  0
  1 13  3  0
  2  4  2  0
  2  6  1  0
  3  5  1  0
  3  6  2  0
  4  7  1  0
  5  7  2  0
  6 10  1  0
  7 18  1  0
  8 12  1  0
  9 12  1  0
 10 17  1  0
 11 12  1  0
 11 14  1  0
 14 18  1  0
 15 18  2  0
 16 18  2  0
M  END
