VIK-SYN-bf9c9ac8-1
     RDKit          3D

 17 17  0  0  0  0  0  0  0  0999 V2000
    6.1364   -4.2461   22.1442 C   0  0  0  0  0  0  0  0  0  0  0  0
   10.9818   -3.2829   24.7192 C   0  0  0  0  0  0  0  0  0  0  0  0
    7.4112   -4.1287   24.2623 C   0  0  0  0  0  0  0  0  0  0  0  0
    8.1119   -2.6628   22.4026 C   0  0  0  0  0  0  0  0  0  0  0  0
    8.8632   -4.5349   24.4940 C   0  0  0  0  0  0  0  0  0  0  0  0
    9.5609   -3.0780   22.6344 C   0  0  0  0  0  0  0  0  0  0  0  0
   12.9277   -0.8717   26.3428 C   0  0  0  0  0  0  0  0  0  0  0  0
   13.6367   -1.1507   23.9417 C   0  0  0  0  0  0  0  0  0  0  0  0
   10.6775   -0.7729   24.6430 C   0  0  0  0  0  0  0  0  0  0  0  0
    5.7104   -5.6472   22.5031 C   0  0  0  0  0  0  0  0  0  0  0  0
   12.8857   -1.7669   25.1130 C   0  0  0  0  0  0  0  0  0  0  0  0
    7.1951   -3.7097   22.8753 N   0  0  0  0  0  0  0  0  0  0  0  0
    9.7788   -3.4918   24.0281 N   0  0  0  0  0  0  0  0  0  0  0  0
   11.4985   -1.9788   24.7246 N   0  0  0  0  0  0  0  0  0  0  0  0
    5.5435   -3.6471   21.2434 O   0  0  0  0  0  0  0  0  0  0  0  0
   11.5567   -4.2079   25.3073 O   0  0  0  0  0  0  0  0  0  0  0  0
    7.0996   -6.6872   22.2086 Cl  0  0  0  0  0  0  0  0  0  0  0  0
  1 10  1  0
  1 12  1  0
  1 15  2  0
  2 13  1  0
  2 14  1  0
  2 16  2  0
  3  5  1  0
  3 12  1  0
  4  6  1  0
  4 12  1  0
  5 13  1  0
  6 13  1  0
  7 11  1  0
  8 11  1  0
  9 14  1  0
 10 17  1  0
 11 14  1  0
M  END
