VIK-SYN-bf9c9ac8-3
     RDKit          3D

 14 14  0  0  0  0  0  0  0  0999 V2000
   12.3466    4.2621   23.4282 C   0  0  0  0  0  0  0  0  0  0  0  0
   12.7782   -1.1802   23.0015 C   0  0  0  0  0  0  0  0  0  0  0  0
   13.8886    2.4363   22.8172 C   0  0  0  0  0  0  0  0  0  0  0  0
   11.3712    2.1982   22.4442 C   0  0  0  0  0  0  0  0  0  0  0  0
   13.9025    0.9865   22.3451 C   0  0  0  0  0  0  0  0  0  0  0  0
   11.5989    0.9666   23.3157 C   0  0  0  0  0  0  0  0  0  0  0  0
   12.5786    3.1440   22.4561 C   0  0  0  0  0  0  0  0  0  0  0  0
   11.3700    6.5383   23.6465 C   0  0  0  0  0  0  0  0  0  0  0  0
   14.0255   -1.8893   22.5335 C   0  0  0  0  0  0  0  0  0  0  0  0
   12.7792    0.2115   22.8878 N   0  0  0  0  0  0  0  0  0  0  0  0
   11.6949    5.3531   22.8857 N   0  0  0  0  0  0  0  0  0  0  0  0
   12.7289    4.1447   24.5866 O   0  0  0  0  0  0  0  0  0  0  0  0
   11.8386   -1.8371   23.4561 O   0  0  0  0  0  0  0  0  0  0  0  0
   14.2445   -1.6291   21.2274 F   0  0  0  0  0  0  0  0  0  0  0  0
  1  7  1  0
  1 11  1  0
  1 12  2  0
  2  9  1  0
  2 10  1  0
  2 13  2  0
  3  5  1  0
  3  7  1  0
  4  6  1  0
  4  7  1  0
  5 10  1  0
  6 10  1  0
  8 11  1  0
  9 14  1  0
M  END
