VIR-GIT-7b3d3065-2
     RDKit          3D

 18 19  0  0  0  0  0  0  0  0999 V2000
   10.2570   -1.9161   24.3876 C   0  0  0  0  0  0  0  0  0  0  0  0
    6.2954   -4.9484   22.1297 C   0  0  0  0  0  0  0  0  0  0  0  0
   14.1312   -1.4147   25.9560 C   0  0  0  0  0  0  0  0  0  0  0  0
   13.1394   -0.2723   25.7423 C   0  0  0  0  0  0  0  0  0  0  0  0
   13.7386   -2.6402   25.1320 C   0  0  0  0  0  0  0  0  0  0  0  0
    9.1613   -4.1248   24.4650 C   0  0  0  0  0  0  0  0  0  0  0  0
    9.3247   -2.8252   22.2701 C   0  0  0  0  0  0  0  0  0  0  0  0
   11.7067   -0.7289   26.0036 C   0  0  0  0  0  0  0  0  0  0  0  0
   12.2934   -3.0523   25.4038 C   0  0  0  0  0  0  0  0  0  0  0  0
    8.3369   -5.0844   23.6139 C   0  0  0  0  0  0  0  0  0  0  0  0
    7.8109   -3.0083   22.3247 C   0  0  0  0  0  0  0  0  0  0  0  0
    9.9954   -3.1689   23.6059 C   0  0  0  0  0  0  0  0  0  0  0  0
    5.9868   -6.3673   22.5406 C   0  0  0  0  0  0  0  0  0  0  0  0
   11.3829   -1.9167   25.2104 N   0  0  0  0  0  0  0  0  0  0  0  0
    7.4443   -4.3806   22.6841 N   0  0  0  0  0  0  0  0  0  0  0  0
    9.4852   -0.9607   24.2709 O   0  0  0  0  0  0  0  0  0  0  0  0
    5.5417   -4.3631   21.3485 O   0  0  0  0  0  0  0  0  0  0  0  0
    5.0035   -6.2674   23.9969 Cl  0  0  0  0  0  0  0  0  0  0  0  0
  1 12  1  0
  1 14  1  0
  1 16  2  0
  2 13  1  0
  2 15  1  0
  2 17  2  0
  3  4  1  0
  3  5  1  0
  4  8  1  0
  5  9  1  0
  6 10  1  0
  6 12  1  0
  7 11  1  0
  7 12  1  0
  8 14  1  0
  9 14  1  0
 10 15  1  0
 11 15  1  0
 13 18  1  0
M  END
