VIT-UNK-525497ca-8
     RDKit          3D

 33 36  0  0  1  0  0  0  0  0999 V2000
    8.3310   -4.7318   25.5255 C   0  0  0  0  0  0  0  0  0  0  0  0
    6.0065   -4.1804   25.1660 C   0  0  0  0  0  0  0  0  0  0  0  0
    6.7254   -5.0493   27.3026 C   0  0  0  0  0  0  0  0  0  0  0  0
    7.3165   -4.2584   24.6935 C   0  0  0  0  0  0  0  0  0  0  0  0
    8.0355   -5.1273   26.8301 C   0  0  0  0  0  0  0  0  0  0  0  0
    5.7109   -4.5759   26.4706 C   0  0  0  0  0  0  0  0  0  0  0  0
   12.1919    5.5873   25.0292 C   0  0  0  0  0  0  0  0  0  0  0  0
   10.3700    6.9219   25.2658 C   0  0  0  0  0  0  0  0  0  0  0  0
    5.9703    0.9402   20.4757 C   0  0  0  0  0  0  0  0  0  0  0  0
    7.9373   -1.8228   21.7785 C   0  0  0  0  0  0  0  0  0  0  0  0
    4.7675    1.0225   19.5563 C   0  0  0  0  0  0  0  0  0  0  0  0
    6.7990    0.5690   18.2818 C   0  0  0  0  0  0  0  0  0  0  0  0
    9.8664   -0.7693   23.7241 C   0  0  0  0  0  0  0  0  0  0  0  0
   11.3013    5.2887   23.8321 C   0  0  0  0  0  0  0  0  0  0  0  0
    6.9309    0.0459   19.7036 C   0  0  0  0  0  0  0  0  0  0  0  0
    8.4152   -0.3623   21.6851 C   0  0  0  0  0  0  0  0  0  0  0  0
    9.8285   -0.2107   22.2987 C   0  0  0  0  0  0  0  0  0  0  0  0
    7.9968   -2.3562   23.2084 C   0  0  0  0  0  0  0  0  0  0  0  0
    7.6354   -3.8326   23.2847 C   0  0  0  0  0  0  0  0  0  0  0  0
   10.8694    3.8314   23.7978 C   0  0  0  0  0  0  0  0  0  0  0  0
    8.3553    0.1004   20.2268 C   0  0  0  0  0  0  0  0  0  0  0  0
   11.9833    2.9290   23.2651 C   0  0  0  0  0  0  0  0  0  0  0  0
   11.5316    1.4695   23.2037 C   0  0  0  0  0  0  0  0  0  0  0  0
   10.3042    1.2445   22.3202 C   0  0  0  0  0  0  0  0  0  0  0  0
   11.5775    6.5398   25.8049 N   0  0  0  0  0  0  0  0  0  0  0  0
   10.1983    6.1809   24.0957 N   0  0  0  0  0  0  0  0  0  0  0  0
    5.3532    0.9638   18.1745 N   0  0  0  0  0  0  0  0  0  0  0  0
    9.3930   -2.1840   23.7221 N   0  0  0  0  0  0  0  0  0  0  0  0
   13.2699    5.0517   25.2461 O   0  0  0  0  0  0  0  0  0  0  0  0
    9.5953    7.7535   25.7183 O   0  0  0  0  0  0  0  0  0  0  0  0
    9.0249   -5.5897   27.6427 O   0  0  0  0  0  0  0  0  0  0  0  0
    4.4321   -4.5007   26.9311 O   0  0  0  0  0  0  0  0  0  0  0  0
   10.6238    1.6248   20.9842 O   0  0  0  0  0  0  0  0  0  0  0  0
  1  4  2  0
  1  5  1  0
  2  4  1  0
  2  6  2  0
  3  5  2  0
  3  6  1  0
  4 19  1  0
  5 31  1  0
  6 32  1  0
  7 14  1  0
  7 25  1  0
  7 29  2  0
  8 25  1  0
  8 26  1  0
  8 30  2  0
  9 11  1  0
  9 15  1  0
 10 16  1  0
 10 18  1  0
 11 27  1  0
 12 15  1  0
 12 27  1  0
 13 17  1  0
 13 28  1  0
 14 20  1  0
 14 26  1  0
 15 21  1  0
 16 17  1  0
 16 21  1  0
 17 24  1  0
 18 19  1  0
 18 28  1  0
 20 22  1  0
 22 23  1  0
 23 24  1  0
 24 33  1  0
M  CHG  2  27   1  28   1
M  END
