VIT-UNK-026187e6-5
     RDKit          3D

 21 22  0  0  1  0  0  0  0  0999 V2000
    7.8927    0.5611   18.9364 C   0  0  0  0  0  0  0  0  0  0  0  0
    6.8250    0.8056   21.0897 C   0  0  0  0  0  0  0  0  0  0  0  0
    5.4935    0.8108   19.0738 C   0  0  0  0  0  0  0  0  0  0  0  0
    7.9806    0.6410   20.3261 C   0  0  0  0  0  0  0  0  0  0  0  0
    6.6491    0.6461   18.3101 C   0  0  0  0  0  0  0  0  0  0  0  0
    5.5815    0.8906   20.4636 C   0  0  0  0  0  0  0  0  0  0  0  0
    9.2929    0.5547   20.9885 C   0  0  0  0  0  0  0  0  0  0  0  0
   10.4030    0.0340   20.4431 C   0  0  0  0  0  0  0  0  0  0  0  0
   13.4547   -1.5624   22.1639 C   0  0  0  0  0  0  0  0  0  0  0  0
   12.7816    0.6347   23.1703 C   0  0  0  0  0  0  0  0  0  0  0  0
   11.7130   -0.0411   21.1571 C   0  0  0  0  0  0  0  0  0  0  0  0
   13.2915   -0.7761   23.4701 C   0  0  0  0  0  0  0  0  0  0  0  0
   12.1839   -1.4858   21.3266 C   0  0  0  0  0  0  0  0  0  0  0  0
   15.6885   -0.0256   23.4525 C   0  0  0  0  0  0  0  0  0  0  0  0
   15.0498   -2.1434   24.6420 C   0  0  0  0  0  0  0  0  0  0  0  0
   14.5982   -0.7347   24.2550 C   0  0  0  0  0  0  0  0  0  0  0  0
   11.5584    0.5822   22.4355 O   0  0  0  0  0  0  0  0  0  0  0  0
    6.5630    0.5694   16.9538 O   0  0  0  0  0  0  0  0  0  0  0  0
    4.4536    1.0506   21.2084 O   0  0  0  0  0  0  0  0  0  0  0  0
   14.3896    0.0181   25.4517 O   0  0  0  0  0  0  0  0  0  0  0  0
   11.2124   -2.1909   21.9766 F   0  0  0  0  0  0  0  0  0  0  0  0
  1  4  2  0
  1  5  1  0
  2  4  1  0
  2  6  2  0
  3  5  2  0
  3  6  1  0
  4  7  1  0
  5 18  1  0
  6 19  1  0
  7  8  2  0
  8 11  1  0
  9 12  1  0
  9 13  1  0
 10 12  1  0
 10 17  1  0
 11 13  1  0
 11 17  1  0
 12 16  1  0
 13 21  1  0
 14 16  1  0
 15 16  1  0
 16 20  1  0
M  END
