VIT-UNK-026187e6-4
     RDKit          3D

 20 21  0  0  1  0  0  0  0  0999 V2000
    6.9995   -3.0006   23.3909 C   0  0  0  0  0  0  0  0  0  0  0  0
    9.2285   -2.1595   22.9893 C   0  0  0  0  0  0  0  0  0  0  0  0
    7.5007   -3.8636   24.3653 C   0  0  0  0  0  0  0  0  0  0  0  0
    9.7297   -3.0225   23.9638 C   0  0  0  0  0  0  0  0  0  0  0  0
    6.2400    0.2927   19.3841 C   0  0  0  0  0  0  0  0  0  0  0  0
    4.3095    0.7195   20.7725 C   0  0  0  0  0  0  0  0  0  0  0  0
    4.5294    1.8262   18.6362 C   0  0  0  0  0  0  0  0  0  0  0  0
    7.8634   -2.1486   22.7028 C   0  0  0  0  0  0  0  0  0  0  0  0
    5.5232    0.0661   20.5590 C   0  0  0  0  0  0  0  0  0  0  0  0
    8.8658   -3.8746   24.6518 C   0  0  0  0  0  0  0  0  0  0  0  0
    5.7431    1.1729   18.4227 C   0  0  0  0  0  0  0  0  0  0  0  0
    3.8125    1.5996   19.8111 C   0  0  0  0  0  0  0  0  0  0  0  0
    7.3411   -1.2487   21.6865 C   0  0  0  0  0  0  0  0  0  0  0  0
    6.0483   -0.8609   21.5770 C   0  0  0  0  0  0  0  0  0  0  0  0
    8.7331   -4.5868   27.0619 C   0  0  0  0  0  0  0  0  0  0  0  0
    9.4006   -4.7959   25.6955 C   0  0  0  0  0  0  0  0  0  0  0  0
    6.4429    1.3952   17.2765 O   0  0  0  0  0  0  0  0  0  0  0  0
    2.6279    2.2367   20.0189 O   0  0  0  0  0  0  0  0  0  0  0  0
    9.1734   -6.1383   25.2503 O   0  0  0  0  0  0  0  0  0  0  0  0
    7.1303   -5.3674   27.1253 Cl  0  0  0  0  0  0  0  0  0  0  0  0
  1  3  2  0
  1  8  1  0
  2  4  1  0
  2  8  2  0
  3 10  1  0
  4 10  2  0
  5  9  2  0
  5 11  1  0
  6  9  1  0
  6 12  2  0
  7 11  2  0
  7 12  1  0
  8 13  1  0
  9 14  1  0
 10 16  1  0
 11 17  1  0
 12 18  1  0
 13 14  2  0
 15 16  1  0
 15 20  1  0
 16 19  1  0
M  END
