VIT-UNK-525497ca-2
     RDKit          3D

 26 28  0  0  1  0  0  0  0  0999 V2000
   13.5350   -0.0408   22.0268 C   0  0  0  0  0  0  0  0  0  0  0  0
   11.8146    0.2673   23.6947 C   0  0  0  0  0  0  0  0  0  0  0  0
   12.0350   -1.8567   22.5647 C   0  0  0  0  0  0  0  0  0  0  0  0
   12.8880    0.7699   22.9594 C   0  0  0  0  0  0  0  0  0  0  0  0
   13.1084   -1.3541   21.8294 C   0  0  0  0  0  0  0  0  0  0  0  0
   11.3881   -1.0461   23.4974 C   0  0  0  0  0  0  0  0  0  0  0  0
    8.0120    2.0692   25.0869 C   0  0  0  0  0  0  0  0  0  0  0  0
   11.9775    5.6098   23.2780 C   0  0  0  0  0  0  0  0  0  0  0  0
    7.4208    0.6891   25.2985 C   0  0  0  0  0  0  0  0  0  0  0  0
    7.3469    1.3075   22.9385 C   0  0  0  0  0  0  0  0  0  0  0  0
    8.4921    2.0182   23.6428 C   0  0  0  0  0  0  0  0  0  0  0  0
   10.5400    5.2413   22.8794 C   0  0  0  0  0  0  0  0  0  0  0  0
   12.9391    4.4672   22.9823 C   0  0  0  0  0  0  0  0  0  0  0  0
   10.1620    3.8835   23.5029 C   0  0  0  0  0  0  0  0  0  0  0  0
   12.4329    3.1490   23.5581 C   0  0  0  0  0  0  0  0  0  0  0  0
    8.7894    3.3881   23.0593 C   0  0  0  0  0  0  0  0  0  0  0  0
    9.1990    6.2514   24.7452 C   0  0  0  0  0  0  0  0  0  0  0  0
    9.5838    6.3654   23.2761 C   0  0  0  0  0  0  0  0  0  0  0  0
   13.3106    2.0745   23.1541 N   0  0  0  0  0  0  0  0  0  0  0  0
    6.8527    0.3204   23.9579 N   0  0  0  0  0  0  0  0  0  0  0  0
   11.1073    2.8844   23.0977 O   0  0  0  0  0  0  0  0  0  0  0  0
   13.7391   -2.1452   20.9190 O   0  0  0  0  0  0  0  0  0  0  0  0
   10.3401   -1.5362   24.2141 O   0  0  0  0  0  0  0  0  0  0  0  0
    8.4101    6.2574   22.4771 O   0  0  0  0  0  0  0  0  0  0  0  0
   13.0407    4.3437   21.6273 F   0  0  0  0  0  0  0  0  0  0  0  0
    8.6100    7.8177   25.3631 Cl  0  0  0  0  0  0  0  0  0  0  0  0
  1  4  2  0
  1  5  1  0
  2  4  1  0
  2  6  2  0
  3  5  2  0
  3  6  1  0
  4 19  1  0
  5 22  1  0
  6 23  1  0
  7  9  1  0
  7 11  1  0
  8 12  1  0
  8 13  1  0
  9 20  1  0
 10 11  1  0
 10 20  1  0
 11 16  1  0
 12 14  1  0
 12 18  1  0
 13 15  1  0
 13 25  1  0
 14 16  1  0
 14 21  1  0
 15 19  1  0
 15 21  1  0
 17 18  1  0
 17 26  1  0
 18 24  1  0
M  CHG  1  20   1
M  END
