VIT-UNK-2a0afa28-3
     RDKit          3D

 23 24  0  0  0  0  0  0  0  0999 V2000
   11.7113    0.7137   24.7801 C   0  0  0  0  0  0  0  0  0  0  0  0
   10.4675    0.1099   24.5956 C   0  0  0  0  0  0  0  0  0  0  0  0
   12.8639    0.1012   24.2882 C   0  0  0  0  0  0  0  0  0  0  0  0
   11.5290   -1.7193   23.4274 C   0  0  0  0  0  0  0  0  0  0  0  0
   10.3764   -1.1066   23.9193 C   0  0  0  0  0  0  0  0  0  0  0  0
   12.7727   -1.1153   23.6119 C   0  0  0  0  0  0  0  0  0  0  0  0
    6.5756   -5.5452   26.9250 C   0  0  0  0  0  0  0  0  0  0  0  0
    2.9421   -7.6319   24.8095 C   0  0  0  0  0  0  0  0  0  0  0  0
    8.6583   -4.2524   26.5899 C   0  0  0  0  0  0  0  0  0  0  0  0
    6.5097   -3.0911   26.2609 C   0  0  0  0  0  0  0  0  0  0  0  0
    9.1761   -3.7135   25.2644 C   0  0  0  0  0  0  0  0  0  0  0  0
    6.9962   -2.5328   24.9304 C   0  0  0  0  0  0  0  0  0  0  0  0
    9.0380   -1.7552   23.7214 C   0  0  0  0  0  0  0  0  0  0  0  0
    5.0681   -5.5568   26.8922 C   0  0  0  0  0  0  0  0  0  0  0  0
    2.4625   -6.6617   25.8711 C   0  0  0  0  0  0  0  0  0  0  0  0
    4.5383   -6.9264   27.2840 C   0  0  0  0  0  0  0  0  0  0  0  0
    3.0090   -6.9985   27.2569 C   0  0  0  0  0  0  0  0  0  0  0  0
    7.1983   -4.3450   26.5855 N   0  0  0  0  0  0  0  0  0  0  0  0
    3.0432   -7.0413   23.5680 N   0  0  0  0  0  0  0  0  0  0  0  0
    8.5014   -2.3918   24.9724 N   0  0  0  0  0  0  0  0  0  0  0  0
    7.1797   -6.5736   27.2405 O   0  0  0  0  0  0  0  0  0  0  0  0
    3.2108   -8.8095   25.0281 O   0  0  0  0  0  0  0  0  0  0  0  0
   13.8794   -1.7039   23.1398 F   0  0  0  0  0  0  0  0  0  0  0  0
  1  2  2  0
  1  3  1  0
  2  5  1  0
  3  6  2  0
  4  5  2  0
  4  6  1  0
  5 13  1  0
  6 23  1  0
  7 14  1  0
  7 18  1  0
  7 21  2  0
  8 15  1  0
  8 19  1  0
  8 22  2  0
  9 11  1  0
  9 18  1  0
 10 12  1  0
 10 18  1  0
 11 20  1  0
 12 20  1  0
 13 20  1  0
 14 16  1  0
 15 17  1  0
 16 17  1  0
M  CHG  1  20   1
M  END
