VIT-UNK-525497ca-1
     RDKit          3D

 25 27  0  0  1  0  0  0  0  0999 V2000
   14.1752   -1.1737   23.9675 C   0  0  0  0  0  0  0  0  0  0  0  0
   12.0169   -1.3033   22.8897 C   0  0  0  0  0  0  0  0  0  0  0  0
   12.6415   -2.9490   24.5445 C   0  0  0  0  0  0  0  0  0  0  0  0
   13.2476   -0.6683   23.0566 C   0  0  0  0  0  0  0  0  0  0  0  0
   13.8722   -2.3141   24.7115 C   0  0  0  0  0  0  0  0  0  0  0  0
   11.7138   -2.4436   23.6336 C   0  0  0  0  0  0  0  0  0  0  0  0
    9.0182    2.6133   25.1626 C   0  0  0  0  0  0  0  0  0  0  0  0
   11.6697    2.1586   22.7206 C   0  0  0  0  0  0  0  0  0  0  0  0
    7.8026    1.7930   25.5480 C   0  0  0  0  0  0  0  0  0  0  0  0
    7.4193    2.9681   23.4434 C   0  0  0  0  0  0  0  0  0  0  0  0
   13.6612    4.2836   23.0874 C   0  0  0  0  0  0  0  0  0  0  0  0
    8.9031    2.7046   23.6470 C   0  0  0  0  0  0  0  0  0  0  0  0
   11.2616    3.5057   23.3440 C   0  0  0  0  0  0  0  0  0  0  0  0
   12.1913    4.6401   22.8480 C   0  0  0  0  0  0  0  0  0  0  0  0
   13.1422    1.8351   22.9654 C   0  0  0  0  0  0  0  0  0  0  0  0
   13.5753    0.5621   22.2526 C   0  0  0  0  0  0  0  0  0  0  0  0
    9.7862    3.7807   23.0406 C   0  0  0  0  0  0  0  0  0  0  0  0
   11.6027    5.7860   25.0020 C   0  0  0  0  0  0  0  0  0  0  0  0
   11.8873    5.9819   23.5199 C   0  0  0  0  0  0  0  0  0  0  0  0
    6.7587    2.1827   24.5409 N   0  0  0  0  0  0  0  0  0  0  0  0
   13.9704    2.9712   22.4493 N   0  0  0  0  0  0  0  0  0  0  0  0
   14.7769   -2.8080   25.6005 O   0  0  0  0  0  0  0  0  0  0  0  0
   10.5132   -3.0637   23.4696 O   0  0  0  0  0  0  0  0  0  0  0  0
   10.7398    6.5433   22.8929 O   0  0  0  0  0  0  0  0  0  0  0  0
   11.8446    7.3132   25.8917 Cl  0  0  0  0  0  0  0  0  0  0  0  0
  1  4  2  0
  1  5  1  0
  2  4  1  0
  2  6  2  0
  3  5  2  0
  3  6  1  0
  4 16  1  0
  5 22  1  0
  6 23  1  0
  7  9  1  0
  7 12  1  0
  8 13  1  0
  8 15  1  0
  9 20  1  0
 10 12  1  0
 10 20  1  0
 11 14  1  0
 11 21  1  0
 12 17  1  0
 13 14  1  0
 13 17  1  0
 14 19  1  0
 15 16  1  0
 15 21  1  0
 18 19  1  0
 18 25  1  0
 19 24  1  0
M  CHG  2  20   1  21   1
M  END
