VIT-UNK-2a0afa28-1
     RDKit          3D

 26 28  0  0  1  0  0  0  0  0999 V2000
   12.7614    6.7328   25.3336 C   0  0  0  0  0  0  0  0  0  0  0  0
   13.1148    5.8623   24.3027 C   0  0  0  0  0  0  0  0  0  0  0  0
   11.4563    7.2175   25.4206 C   0  0  0  0  0  0  0  0  0  0  0  0
   10.8581    5.9612   23.4456 C   0  0  0  0  0  0  0  0  0  0  0  0
   12.1632    5.4765   23.3586 C   0  0  0  0  0  0  0  0  0  0  0  0
   10.5047    6.8317   24.4766 C   0  0  0  0  0  0  0  0  0  0  0  0
    7.7334   -1.1787   21.7697 C   0  0  0  0  0  0  0  0  0  0  0  0
    6.3375   -2.9351   22.1203 C   0  0  0  0  0  0  0  0  0  0  0  0
   13.2823   -0.9483   22.4105 C   0  0  0  0  0  0  0  0  0  0  0  0
   14.4534    1.2295   22.3263 C   0  0  0  0  0  0  0  0  0  0  0  0
   12.4733    1.0358   23.7805 C   0  0  0  0  0  0  0  0  0  0  0  0
   13.9106    2.5171   21.7239 C   0  0  0  0  0  0  0  0  0  0  0  0
   11.9012    2.3225   23.2010 C   0  0  0  0  0  0  0  0  0  0  0  0
    8.5766   -2.4272   21.5559 C   0  0  0  0  0  0  0  0  0  0  0  0
   12.5445    4.5400   22.2502 C   0  0  0  0  0  0  0  0  0  0  0  0
   12.1323   -1.7519   22.9630 C   0  0  0  0  0  0  0  0  0  0  0  0
    9.7431   -2.4959   22.5293 C   0  0  0  0  0  0  0  0  0  0  0  0
   10.9208   -1.6428   22.0516 C   0  0  0  0  0  0  0  0  0  0  0  0
    6.4554   -1.5640   22.0931 N   0  0  0  0  0  0  0  0  0  0  0  0
    7.5940   -3.4541   21.8051 N   0  0  0  0  0  0  0  0  0  0  0  0
   13.3682    0.3816   22.8199 N   0  0  0  0  0  0  0  0  0  0  0  0
   13.0382    3.2102   22.7465 N   0  0  0  0  0  0  0  0  0  0  0  0
    8.1483   -0.0325   21.6695 O   0  0  0  0  0  0  0  0  0  0  0  0
    5.3275   -3.5795   22.3677 O   0  0  0  0  0  0  0  0  0  0  0  0
   14.0777   -1.4873   21.6367 O   0  0  0  0  0  0  0  0  0  0  0  0
    9.2516    7.2973   24.5598 F   0  0  0  0  0  0  0  0  0  0  0  0
  1  2  2  0
  1  3  1  0
  2  5  1  0
  3  6  2  0
  4  5  2  0
  4  6  1  0
  5 15  1  0
  6 26  1  0
  7 14  1  0
  7 19  1  0
  7 23  2  0
  8 19  1  0
  8 20  1  0
  8 24  2  0
  9 16  1  0
  9 21  1  0
  9 25  2  0
 10 12  1  0
 10 21  1  0
 11 13  1  0
 11 21  1  0
 12 22  1  0
 13 22  1  0
 14 17  1  0
 14 20  1  0
 15 22  1  0
 16 18  1  0
 17 18  1  0
M  CHG  1  22   1
M  END
