VIT-UNK-cff011c0-2
     RDKit          3D

 24 25  0  0  1  0  0  0  0  0999 V2000
    8.7221   -3.0509   22.3198 C   0  0  0  0  0  0  0  0  0  0  0  0
    9.7910   -2.2854   22.7855 C   0  0  0  0  0  0  0  0  0  0  0  0
    7.6784   -3.3886   23.1815 C   0  0  0  0  0  0  0  0  0  0  0  0
    8.7728   -2.1955   24.9747 C   0  0  0  0  0  0  0  0  0  0  0  0
    9.8165   -1.8577   24.1130 C   0  0  0  0  0  0  0  0  0  0  0  0
    7.7038   -2.9609   24.5089 C   0  0  0  0  0  0  0  0  0  0  0  0
   12.0227    4.3447   23.8116 C   0  0  0  0  0  0  0  0  0  0  0  0
    7.3951    5.5249   22.8960 C   0  0  0  0  0  0  0  0  0  0  0  0
   12.6571    2.0541   23.1249 C   0  0  0  0  0  0  0  0  0  0  0  0
   10.2643    2.5423   23.4550 C   0  0  0  0  0  0  0  0  0  0  0  0
   12.5392    0.7977   23.9753 C   0  0  0  0  0  0  0  0  0  0  0  0
   10.1098    1.2914   24.3094 C   0  0  0  0  0  0  0  0  0  0  0  0
   10.9668   -1.0344   24.6127 C   0  0  0  0  0  0  0  0  0  0  0  0
    8.0795    6.4219   23.9106 C   0  0  0  0  0  0  0  0  0  0  0  0
    9.3372    7.1061   23.3761 C   0  0  0  0  0  0  0  0  0  0  0  0
   10.4306    6.0990   22.9925 C   0  0  0  0  0  0  0  0  0  0  0  0
   10.9169    5.2970   24.1911 C   0  0  0  0  0  0  0  0  0  0  0  0
   11.6434    3.0399   23.5000 N   0  0  0  0  0  0  0  0  0  0  0  0
    6.9952    6.2154   21.7719 N   0  0  0  0  0  0  0  0  0  0  0  0
   11.1284    0.2628   23.8713 N   0  0  0  0  0  0  0  0  0  0  0  0
   13.1880    4.7496   23.7956 O   0  0  0  0  0  0  0  0  0  0  0  0
    7.2346    4.3172   23.0453 O   0  0  0  0  0  0  0  0  0  0  0  0
    6.7019   -3.2855   25.3366 F   0  0  0  0  0  0  0  0  0  0  0  0
   11.6246    6.3711   25.4188 Cl  0  0  0  0  0  0  0  0  0  0  0  0
  1  2  2  0
  1  3  1  0
  2  5  1  0
  3  6  2  0
  4  5  2  0
  4  6  1  0
  5 13  1  0
  6 23  1  0
  7 17  1  0
  7 18  1  0
  7 21  2  0
  8 14  1  0
  8 19  1  0
  8 22  2  0
  9 11  1  0
  9 18  1  0
 10 12  1  0
 10 18  1  0
 11 20  1  0
 12 20  1  0
 13 20  1  0
 14 15  1  0
 15 16  1  0
 16 17  1  0
 17 24  1  0
M  CHG  1  20   1
M  END
