VIT-UNK-525497ca-4
     RDKit          3D

 20 21  0  0  1  0  0  0  0  0999 V2000
    5.0198    0.9773   21.1986 C   0  0  0  0  0  0  0  0  0  0  0  0
    5.8487   -0.3883   19.3862 C   0  0  0  0  0  0  0  0  0  0  0  0
    4.7093    1.6884   18.9106 C   0  0  0  0  0  0  0  0  0  0  0  0
    5.6759   -0.1701   20.7530 C   0  0  0  0  0  0  0  0  0  0  0  0
    4.5364    1.9066   20.2774 C   0  0  0  0  0  0  0  0  0  0  0  0
    5.3654    0.5410   18.4649 C   0  0  0  0  0  0  0  0  0  0  0  0
    9.9006   -0.5724   21.6000 C   0  0  0  0  0  0  0  0  0  0  0  0
    9.1876   -2.2742   23.2961 C   0  0  0  0  0  0  0  0  0  0  0  0
   10.1411   -1.1119   23.0145 C   0  0  0  0  0  0  0  0  0  0  0  0
    8.4222   -0.2778   21.3780 C   0  0  0  0  0  0  0  0  0  0  0  0
    7.5468   -1.4625   21.7801 C   0  0  0  0  0  0  0  0  0  0  0  0
   12.5359   -0.3656   22.9299 C   0  0  0  0  0  0  0  0  0  0  0  0
   11.5946   -1.5324   23.2038 C   0  0  0  0  0  0  0  0  0  0  0  0
    6.1543   -1.0936   21.6677 N   0  0  0  0  0  0  0  0  0  0  0  0
    7.8317   -1.8637   23.1218 O   0  0  0  0  0  0  0  0  0  0  0  0
    3.8956    3.0259   20.7119 O   0  0  0  0  0  0  0  0  0  0  0  0
    5.5331    0.3278   17.1313 O   0  0  0  0  0  0  0  0  0  0  0  0
   11.8824   -2.5852   22.2876 O   0  0  0  0  0  0  0  0  0  0  0  0
    8.0879    0.7957   22.1512 F   0  0  0  0  0  0  0  0  0  0  0  0
   14.1206   -0.6385   23.7023 Cl  0  0  0  0  0  0  0  0  0  0  0  0
  1  4  2  0
  1  5  1  0
  2  4  1  0
  2  6  2  0
  3  5  2  0
  3  6  1  0
  4 14  1  0
  5 16  1  0
  6 17  1  0
  7  9  1  0
  7 10  1  0
  8  9  1  0
  8 15  1  0
  9 13  1  0
 10 11  1  0
 10 19  1  0
 11 14  1  0
 11 15  1  0
 12 13  1  0
 12 20  1  0
 13 18  1  0
M  END
