VIT-UNK-2a0afa28-4
     RDKit          3D

 26 28  0  0  1  0  0  0  0  0999 V2000
    6.0260    1.2120   17.7943 C   0  0  0  0  0  0  0  0  0  0  0  0
    6.8609    0.4221   18.5845 C   0  0  0  0  0  0  0  0  0  0  0  0
    4.8203    1.6861   18.3110 C   0  0  0  0  0  0  0  0  0  0  0  0
    5.2842    0.5802   20.4083 C   0  0  0  0  0  0  0  0  0  0  0  0
    6.4900    0.1061   19.8915 C   0  0  0  0  0  0  0  0  0  0  0  0
    4.4494    1.3702   19.6180 C   0  0  0  0  0  0  0  0  0  0  0  0
   10.4122    6.6065   25.4825 C   0  0  0  0  0  0  0  0  0  0  0  0
    8.4467    5.5573   25.0435 C   0  0  0  0  0  0  0  0  0  0  0  0
   11.0107   -0.3548   21.9078 C   0  0  0  0  0  0  0  0  0  0  0  0
    9.6579   -1.0392   21.7445 C   0  0  0  0  0  0  0  0  0  0  0  0
    8.6770    1.2425   21.5561 C   0  0  0  0  0  0  0  0  0  0  0  0
   10.7703    5.3919   24.6387 C   0  0  0  0  0  0  0  0  0  0  0  0
   10.8739    1.0465   22.5231 C   0  0  0  0  0  0  0  0  0  0  0  0
    7.3889   -0.7436   20.7406 C   0  0  0  0  0  0  0  0  0  0  0  0
   11.7038    4.4456   25.3767 C   0  0  0  0  0  0  0  0  0  0  0  0
   11.7024    3.0522   24.7464 C   0  0  0  0  0  0  0  0  0  0  0  0
   12.1883    3.0995   23.2974 C   0  0  0  0  0  0  0  0  0  0  0  0
   12.2377    1.7264   22.6233 C   0  0  0  0  0  0  0  0  0  0  0  0
    9.0516    6.6240   25.6688 N   0  0  0  0  0  0  0  0  0  0  0  0
    9.4617    4.8200   24.4322 N   0  0  0  0  0  0  0  0  0  0  0  0
    9.9804    1.8804   21.7114 N   0  0  0  0  0  0  0  0  0  0  0  0
    8.7472   -0.1387   20.9473 N   0  0  0  0  0  0  0  0  0  0  0  0
   11.2200    7.4163   25.9156 O   0  0  0  0  0  0  0  0  0  0  0  0
    7.2504    5.3028   25.0207 O   0  0  0  0  0  0  0  0  0  0  0  0
   13.1039    0.8792   23.3763 O   0  0  0  0  0  0  0  0  0  0  0  0
    3.2914    1.8250   20.1143 F   0  0  0  0  0  0  0  0  0  0  0  0
  1  2  2  0
  1  3  1  0
  2  5  1  0
  3  6  2  0
  4  5  2  0
  4  6  1  0
  5 14  1  0
  6 26  1  0
  7 12  1  0
  7 19  1  0
  7 23  2  0
  8 19  1  0
  8 20  1  0
  8 24  2  0
  9 10  1  0
  9 13  1  0
 10 22  1  0
 11 21  1  0
 11 22  1  0
 12 15  1  0
 12 20  1  0
 13 18  1  0
 13 21  1  0
 14 22  1  0
 15 16  1  0
 16 17  1  0
 17 18  1  0
 18 25  1  0
M  CHG  1  22   1
M  END
