VOL-CHA-d666e5ae-4
     RDKit          3D

 24 25  0  0  1  0  0  0  0  0999 V2000
    9.6911   -2.8259   23.9259 C   0  0  0  0  0  0  0  0  0  0  0  0
    7.2889   -2.9845   23.7226 C   0  0  0  0  0  0  0  0  0  0  0  0
    9.6535   -3.6750   25.0319 C   0  0  0  0  0  0  0  0  0  0  0  0
    7.2513   -3.8336   24.8286 C   0  0  0  0  0  0  0  0  0  0  0  0
    8.5088   -2.4806   23.2713 C   0  0  0  0  0  0  0  0  0  0  0  0
    8.4337   -4.1789   25.4832 C   0  0  0  0  0  0  0  0  0  0  0  0
   10.0086    0.4855   24.2818 C   0  0  0  0  0  0  0  0  0  0  0  0
    8.0046    0.7428   21.2443 C   0  0  0  0  0  0  0  0  0  0  0  0
    3.5838    2.3969   22.8803 C   0  0  0  0  0  0  0  0  0  0  0  0
    2.3242    1.9930   22.1408 C   0  0  0  0  0  0  0  0  0  0  0  0
    4.6752    1.7690   22.0403 C   0  0  0  0  0  0  0  0  0  0  0  0
    2.6863    2.1626   20.6758 C   0  0  0  0  0  0  0  0  0  0  0  0
   11.3412    1.0994   24.5570 C   0  0  0  0  0  0  0  0  0  0  0  0
    6.6897    0.2273   18.2920 C   0  0  0  0  0  0  0  0  0  0  0  0
    8.5493   -1.5624   22.0742 C   0  0  0  0  0  0  0  0  0  0  0  0
    4.6564    0.9372   19.6624 C   0  0  0  0  0  0  0  0  0  0  0  0
    8.4188   -0.0836   22.4567 C   0  0  0  0  0  0  0  0  0  0  0  0
    6.1807    0.9188   19.5531 C   0  0  0  0  0  0  0  0  0  0  0  0
    9.6600    0.4648   22.9426 N   0  0  0  0  0  0  0  0  0  0  0  0
    6.7811    0.3351   20.7299 N   0  0  0  0  0  0  0  0  0  0  0  0
    4.1928    1.9849   20.6227 N   0  0  0  0  0  0  0  0  0  0  0  0
    9.3372    0.0564   25.2129 O   0  0  0  0  0  0  0  0  0  0  0  0
    8.7080    1.6314   20.7684 O   0  0  0  0  0  0  0  0  0  0  0  0
    8.3974   -5.0084   26.5617 O   0  0  0  0  0  0  0  0  0  0  0  0
  1  3  2  0
  1  5  1  0
  2  4  1  0
  2  5  2  0
  3  6  1  0
  4  6  2  0
  5 15  1  0
  6 24  1  0
  7 13  1  0
  7 19  1  0
  7 22  2  0
  8 17  1  0
  8 20  1  0
  8 23  2  0
  9 10  1  0
  9 11  1  0
 10 12  1  0
 11 21  1  0
 12 21  1  0
 14 18  1  0
 15 17  1  0
 16 18  1  0
 16 21  1  0
 17 19  1  0
 18 20  1  0
M  CHG  1  21   1
M  END
