VOL-CHA-d666e5ae-5
     RDKit          3D

 21 22  0  0  1  0  0  0  0  0999 V2000
   13.1965   -1.6607   21.7832 C   0  0  0  0  0  0  0  0  0  0  0  0
   11.9519   -1.2853   23.8196 C   0  0  0  0  0  0  0  0  0  0  0  0
   14.3812   -1.7154   22.5173 C   0  0  0  0  0  0  0  0  0  0  0  0
   13.1366   -1.3401   24.5538 C   0  0  0  0  0  0  0  0  0  0  0  0
   11.9818   -1.4456   22.4343 C   0  0  0  0  0  0  0  0  0  0  0  0
   14.3513   -1.5551   23.9026 C   0  0  0  0  0  0  0  0  0  0  0  0
    7.4939    0.0354   19.0494 C   0  0  0  0  0  0  0  0  0  0  0  0
    9.3722    0.0265   19.9915 C   0  0  0  0  0  0  0  0  0  0  0  0
    9.9863    2.2003   22.3357 C   0  0  0  0  0  0  0  0  0  0  0  0
    9.3651    2.8129   23.5470 C   0  0  0  0  0  0  0  0  0  0  0  0
    5.4065    1.3468   19.5756 C   0  0  0  0  0  0  0  0  0  0  0  0
    5.3599   -1.1730   19.6326 C   0  0  0  0  0  0  0  0  0  0  0  0
   10.7150   -1.3877   21.6496 C   0  0  0  0  0  0  0  0  0  0  0  0
    6.0277    0.0607   18.9748 C   0  0  0  0  0  0  0  0  0  0  0  0
   10.3430    0.0386   21.1599 C   0  0  0  0  0  0  0  0  0  0  0  0
    8.3807   -0.0030   18.0826 N   0  0  0  0  0  0  0  0  0  0  0  0
    9.6164   -0.0090   18.7024 N   0  0  0  0  0  0  0  0  0  0  0  0
    9.8143    0.8438   22.2693 N   0  0  0  0  0  0  0  0  0  0  0  0
   10.5721    2.9144   21.5304 O   0  0  0  0  0  0  0  0  0  0  0  0
    8.0454    0.0561   20.2936 O   0  0  0  0  0  0  0  0  0  0  0  0
   15.5073   -1.6098   24.6190 O   0  0  0  0  0  0  0  0  0  0  0  0
  1  3  2  0
  1  5  1  0
  2  4  1  0
  2  5  2  0
  3  6  1  0
  4  6  2  0
  5 13  1  0
  6 21  1  0
  7 14  1  0
  7 16  2  0
  7 20  1  0
  8 15  1  0
  8 17  2  0
  8 20  1  0
  9 10  1  0
  9 18  1  0
  9 19  2  0
 11 14  1  0
 12 14  1  0
 13 15  1  0
 15 18  1  0
 16 17  1  0
M  END
