VOL-CHA-cc800c76-2
     RDKit          3D

 38 43  0  0  1  0  0  0  0  0999 V2000
   11.1180    4.2687   24.1377 C   0  0  0  0  0  0  0  0  0  0  0  0
   10.3596    5.2891   24.6937 C   0  0  0  0  0  0  0  0  0  0  0  0
   10.5126    3.2935   23.3408 C   0  0  0  0  0  0  0  0  0  0  0  0
    8.9838    5.3579   24.4665 C   0  0  0  0  0  0  0  0  0  0  0  0
    9.1194    3.3353   23.0916 C   0  0  0  0  0  0  0  0  0  0  0  0
    8.2826    2.4618   22.3189 C   0  0  0  0  0  0  0  0  0  0  0  0
    8.3765    4.3732   23.6626 C   0  0  0  0  0  0  0  0  0  0  0  0
    6.9625    2.8452   22.3211 C   0  0  0  0  0  0  0  0  0  0  0  0
    6.4183   -5.4250   23.9592 C   0  0  0  0  0  0  0  0  0  0  0  0
    5.1295   -3.9781   25.3922 C   0  0  0  0  0  0  0  0  0  0  0  0
    8.7485    1.2757   21.5898 C   0  0  0  0  0  0  0  0  0  0  0  0
    5.5908    0.9331   21.4030 C   0  0  0  0  0  0  0  0  0  0  0  0
    2.9802   -6.6674   22.9275 C   0  0  0  0  0  0  0  0  0  0  0  0
    2.2120   -5.4776   23.4808 C   0  0  0  0  0  0  0  0  0  0  0  0
    8.7492   -5.1111   26.1550 C   0  0  0  0  0  0  0  0  0  0  0  0
    7.2377   -4.9569   26.3015 C   0  0  0  0  0  0  0  0  0  0  0  0
    9.2240   -2.2027   22.2610 C   0  0  0  0  0  0  0  0  0  0  0  0
    9.0244   -0.9432   24.4448 C   0  0  0  0  0  0  0  0  0  0  0  0
    4.4258   -6.2766   22.6702 C   0  0  0  0  0  0  0  0  0  0  0  0
    2.8987   -4.9527   24.7305 C   0  0  0  0  0  0  0  0  0  0  0  0
    9.8255   -0.9500   21.6257 C   0  0  0  0  0  0  0  0  0  0  0  0
    9.6372    0.2778   23.7616 C   0  0  0  0  0  0  0  0  0  0  0  0
    9.4106   -3.8309   25.6721 C   0  0  0  0  0  0  0  0  0  0  0  0
    7.2969   -3.1251   24.5227 C   0  0  0  0  0  0  0  0  0  0  0  0
    9.4975   -2.2294   23.7654 C   0  0  0  0  0  0  0  0  0  0  0  0
    6.5722   -4.3633   25.0533 C   0  0  0  0  0  0  0  0  0  0  0  0
    3.8234   -0.4968   20.3636 C   0  0  0  0  0  0  0  0  0  0  0  0
    5.0548   -5.6177   23.7942 N   0  0  0  0  0  0  0  0  0  0  0  0
    4.3188   -4.7349   24.5609 N   0  0  0  0  0  0  0  0  0  0  0  0
    9.3601    0.2530   22.3182 N   0  0  0  0  0  0  0  0  0  0  0  0
    5.8613    2.2968   21.7211 N   0  0  0  0  0  0  0  0  0  0  0  0
    4.3435    0.7824   20.7886 N   0  0  0  0  0  0  0  0  0  0  0  0
    8.7750   -3.4001   24.3745 N   0  0  0  0  0  0  0  0  0  0  0  0
    7.3281   -5.9584   23.3429 O   0  0  0  0  0  0  0  0  0  0  0  0
    4.7860   -3.1811   26.2524 O   0  0  0  0  0  0  0  0  0  0  0  0
    8.5510    1.2723   20.3757 O   0  0  0  0  0  0  0  0  0  0  0  0
    6.3451   -0.0095   21.6313 O   0  0  0  0  0  0  0  0  0  0  0  0
    6.7074    4.2538   23.2464 S   0  0  0  0  0  0  0  0  0  0  0  0
  1  2  2  0
  1  3  1  0
  2  4  1  0
  3  5  2  0
  4  7  2  0
  5  6  1  0
  5  7  1  0
  6  8  2  0
  6 11  1  0
  7 38  1  0
  8 31  1  0
  8 38  1  0
  9 26  1  0
  9 28  1  0
  9 34  2  0
 10 26  1  0
 10 29  1  0
 10 35  2  0
 11 30  1  0
 11 36  2  0
 12 31  1  0
 12 32  1  0
 12 37  2  0
 13 14  1  0
 13 19  1  0
 14 20  1  0
 15 16  1  0
 15 23  1  0
 16 26  1  0
 17 21  1  0
 17 25  1  0
 18 22  1  0
 18 25  1  0
 19 28  1  0
 20 29  1  0
 21 30  1  0
 22 30  1  0
 23 33  1  0
 24 26  1  0
 24 33  1  0
 25 33  1  0
 27 32  1  0
 28 29  1  0
M  CHG  1  33   1
M  END
