VOL-CHA-d666e5ae-3
     RDKit          3D

 22 23  0  0  1  0  0  0  0  0999 V2000
   12.2499   -0.2342   24.0489 C   0  0  0  0  0  0  0  0  0  0  0  0
   13.2146   -1.0910   22.0063 C   0  0  0  0  0  0  0  0  0  0  0  0
   13.3312   -0.7387   24.7713 C   0  0  0  0  0  0  0  0  0  0  0  0
   14.2960   -1.5955   22.7287 C   0  0  0  0  0  0  0  0  0  0  0  0
    6.1318    0.8485   17.3543 C   0  0  0  0  0  0  0  0  0  0  0  0
    5.5222    1.4559   18.4320 C   0  0  0  0  0  0  0  0  0  0  0  0
   12.1916   -0.4104   22.6664 C   0  0  0  0  0  0  0  0  0  0  0  0
   14.3542   -1.4193   24.1112 C   0  0  0  0  0  0  0  0  0  0  0  0
    7.5138    0.1944   18.9266 C   0  0  0  0  0  0  0  0  0  0  0  0
    8.8201   -2.5303   23.2828 C   0  0  0  0  0  0  0  0  0  0  0  0
    8.6746   -0.2118   21.0487 C   0  0  0  0  0  0  0  0  0  0  0  0
    8.4136   -2.7618   24.7003 C   0  0  0  0  0  0  0  0  0  0  0  0
    9.5819   -1.2097   18.9189 C   0  0  0  0  0  0  0  0  0  0  0  0
   11.0217    0.1361   21.8844 C   0  0  0  0  0  0  0  0  0  0  0  0
    9.8674   -0.8674   21.7595 C   0  0  0  0  0  0  0  0  0  0  0  0
    7.2742    0.1251   17.6359 N   0  0  0  0  0  0  0  0  0  0  0  0
    9.3996   -1.2964   23.0586 N   0  0  0  0  0  0  0  0  0  0  0  0
    8.5893   -0.4055   19.6480 N   0  0  0  0  0  0  0  0  0  0  0  0
    8.6258   -3.4059   22.4478 O   0  0  0  0  0  0  0  0  0  0  0  0
    7.8743    0.4511   21.7174 O   0  0  0  0  0  0  0  0  0  0  0  0
   15.4099   -1.9104   24.8161 O   0  0  0  0  0  0  0  0  0  0  0  0
    6.4055    1.1124   19.8614 S   0  0  0  0  0  0  0  0  0  0  0  0
  1  3  2  0
  1  7  1  0
  2  4  1  0
  2  7  2  0
  3  8  1  0
  4  8  2  0
  5  6  2  0
  5 16  1  0
  6 22  1  0
  7 14  1  0
  8 21  1  0
  9 16  2  0
  9 18  1  0
  9 22  1  0
 10 12  1  0
 10 17  1  0
 10 19  2  0
 11 15  1  0
 11 18  1  0
 11 20  2  0
 13 18  1  0
 14 15  1  0
 15 17  1  0
M  END
