WAL-WAB-df110a02-2
     RDKit          3D

 24 26  0  0  1  0  0  0  0  0999 V2000
    9.4697   -5.1898   26.1574 C   0  0  0  0  0  0  0  0  0  0  0  0
    8.3834   -4.7764   26.9285 C   0  0  0  0  0  0  0  0  0  0  0  0
    9.8261   -4.4743   25.0143 C   0  0  0  0  0  0  0  0  0  0  0  0
   11.5514    0.4186   24.5318 C   0  0  0  0  0  0  0  0  0  0  0  0
   10.3722   -0.3811   24.5144 C   0  0  0  0  0  0  0  0  0  0  0  0
    8.0098   -2.9319   25.4135 C   0  0  0  0  0  0  0  0  0  0  0  0
    7.6535   -3.6475   26.5566 C   0  0  0  0  0  0  0  0  0  0  0  0
    9.0962   -3.3453   24.6423 C   0  0  0  0  0  0  0  0  0  0  0  0
   12.5382   -0.0970   23.7207 C   0  0  0  0  0  0  0  0  0  0  0  0
   10.5027   -1.4773   23.6903 C   0  0  0  0  0  0  0  0  0  0  0  0
    6.0219   -1.9468   19.1162 C   0  0  0  0  0  0  0  0  0  0  0  0
    6.1640   -2.5831   21.5028 C   0  0  0  0  0  0  0  0  0  0  0  0
    7.5039   -0.6625   20.7354 C   0  0  0  0  0  0  0  0  0  0  0  0
    7.3781   -3.1770   22.2021 C   0  0  0  0  0  0  0  0  0  0  0  0
    8.7386   -1.2269   21.4251 C   0  0  0  0  0  0  0  0  0  0  0  0
    6.4930   -3.2053   27.3825 C   0  0  0  0  0  0  0  0  0  0  0  0
   13.8952    0.4353   23.4700 C   0  0  0  0  0  0  0  0  0  0  0  0
    5.8933   -0.7381   18.2240 C   0  0  0  0  0  0  0  0  0  0  0  0
    9.4842   -2.5661   23.3964 C   0  0  0  0  0  0  0  0  0  0  0  0
    6.5663   -1.7336   20.3818 N   0  0  0  0  0  0  0  0  0  0  0  0
    8.3069   -2.0566   22.6136 N   0  0  0  0  0  0  0  0  0  0  0  0
    5.6515   -3.0469   18.6982 O   0  0  0  0  0  0  0  0  0  0  0  0
   12.0419   -1.5394   22.9425 S   0  0  0  0  0  0  0  0  0  0  0  0
    4.8172    0.3845   19.0485 Cl  0  0  0  0  0  0  0  0  0  0  0  0
  1  2  2  0
  1  3  1  0
  2  7  1  0
  3  8  2  0
  4  5  1  0
  4  9  2  0
  5 10  2  0
  6  7  2  0
  6  8  1  0
  7 16  1  0
  8 19  1  0
  9 17  1  0
  9 23  1  0
 10 19  1  0
 10 23  1  0
 11 18  1  0
 11 20  1  0
 11 22  2  0
 12 14  1  0
 12 20  1  0
 13 15  1  0
 13 20  1  0
 14 21  1  0
 15 21  1  0
 18 24  1  0
 19 21  1  0
M  CHG  1  21   1
M  END
