WAR-XCH-eb7b662f-4
     RDKit          3D

 18 19  0  0  0  0  0  0  0  0999 V2000
    5.9652    0.8136   18.9454 C   0  0  0  0  0  0  0  0  0  0  0  0
    6.8170    0.8130   20.0444 C   0  0  0  0  0  0  0  0  0  0  0  0
   12.7587    0.2294   23.8044 C   0  0  0  0  0  0  0  0  0  0  0  0
   12.3278   -1.8521   22.6560 C   0  0  0  0  0  0  0  0  0  0  0  0
   14.2738   -1.6335   24.0711 C   0  0  0  0  0  0  0  0  0  0  0  0
    6.5034    0.5006   17.7076 C   0  0  0  0  0  0  0  0  0  0  0  0
    8.6017    0.2045   18.5950 C   0  0  0  0  0  0  0  0  0  0  0  0
    8.1619    0.5038   19.8744 C   0  0  0  0  0  0  0  0  0  0  0  0
   11.9665   -0.5373   22.9499 C   0  0  0  0  0  0  0  0  0  0  0  0
   13.9124   -0.3187   24.3649 C   0  0  0  0  0  0  0  0  0  0  0  0
   13.4815   -2.4002   23.2166 C   0  0  0  0  0  0  0  0  0  0  0  0
   10.2039   -0.2901   21.1466 C   0  0  0  0  0  0  0  0  0  0  0  0
    7.8043    0.1950   17.5033 N   0  0  0  0  0  0  0  0  0  0  0  0
    9.0530    0.4952   20.9734 N   0  0  0  0  0  0  0  0  0  0  0  0
   10.8121    0.0106   22.3900 N   0  0  0  0  0  0  0  0  0  0  0  0
   10.6265   -1.1164   20.3442 O   0  0  0  0  0  0  0  0  0  0  0  0
   14.6853    0.4292   25.1989 O   0  0  0  0  0  0  0  0  0  0  0  0
   13.9277   -4.0221   22.8544 Cl  0  0  0  0  0  0  0  0  0  0  0  0
  1  2  2  0
  1  6  1  0
  2  8  1  0
  3  9  2  0
  3 10  1  0
  4  9  1  0
  4 11  2  0
  5 10  2  0
  5 11  1  0
  6 13  2  0
  7  8  2  0
  7 13  1  0
  8 14  1  0
  9 15  1  0
 10 17  1  0
 11 18  1  0
 12 14  1  0
 12 15  1  0
 12 16  2  0
M  END
