WAR-XCH-b6889685-5
     RDKit          3D

 26 28  0  0  1  0  0  0  0  0999 V2000
    9.5015    2.4319   23.4466 C   0  0  0  0  0  0  0  0  0  0  0  0
   11.3176    1.0716   22.6169 C   0  0  0  0  0  0  0  0  0  0  0  0
    7.4704   -5.2143   26.2445 C   0  0  0  0  0  0  0  0  0  0  0  0
    7.6036   -5.2943   23.8335 C   0  0  0  0  0  0  0  0  0  0  0  0
    6.1642   -5.7003   26.1885 C   0  0  0  0  0  0  0  0  0  0  0  0
    6.2974   -5.7803   23.7775 C   0  0  0  0  0  0  0  0  0  0  0  0
   10.3525    3.5357   23.4999 C   0  0  0  0  0  0  0  0  0  0  0  0
   12.1687    2.1755   22.6701 C   0  0  0  0  0  0  0  0  0  0  0  0
    9.9840    1.1998   23.0052 C   0  0  0  0  0  0  0  0  0  0  0  0
    8.1901   -5.0113   25.0670 C   0  0  0  0  0  0  0  0  0  0  0  0
    5.5776   -5.9833   24.9550 C   0  0  0  0  0  0  0  0  0  0  0  0
   11.6861    3.4076   23.1116 C   0  0  0  0  0  0  0  0  0  0  0  0
    9.2006   -1.6684   24.6422 C   0  0  0  0  0  0  0  0  0  0  0  0
    9.9502   -2.0970   22.2620 C   0  0  0  0  0  0  0  0  0  0  0  0
    8.4622   -0.4261   24.1424 C   0  0  0  0  0  0  0  0  0  0  0  0
    9.1939   -0.8380   21.8247 C   0  0  0  0  0  0  0  0  0  0  0  0
    9.3282   -2.7187   23.5247 C   0  0  0  0  0  0  0  0  0  0  0  0
   10.2605   -4.6471   26.3865 C   0  0  0  0  0  0  0  0  0  0  0  0
   10.1455   -3.9182   23.9982 C   0  0  0  0  0  0  0  0  0  0  0  0
    9.1357    0.0987   22.9519 N   0  0  0  0  0  0  0  0  0  0  0  0
   12.5314    5.4464   21.6171 N   0  0  0  0  0  0  0  0  0  0  0  0
    9.5126   -4.5193   25.1238 N   0  0  0  0  0  0  0  0  0  0  0  0
   12.2284    5.7262   24.1618 O   0  0  0  0  0  0  0  0  0  0  0  0
   14.1227    4.3097   23.2942 O   0  0  0  0  0  0  0  0  0  0  0  0
    4.3232   -6.4499   24.9012 F   0  0  0  0  0  0  0  0  0  0  0  0
   12.7523    4.7885   23.1785 S   0  0  0  0  0  0  0  0  0  0  0  0
  1  7  2  0
  1  9  1  0
  2  8  1  0
  2  9  2  0
  3  5  2  0
  3 10  1  0
  4  6  1  0
  4 10  2  0
  5 11  1  0
  6 11  2  0
  7 12  1  0
  8 12  2  0
  9 20  1  0
 10 22  1  0
 11 25  1  0
 12 26  1  0
 13 15  1  0
 13 17  1  0
 14 16  1  0
 14 17  1  0
 15 20  1  0
 16 20  1  0
 17 19  1  0
 18 22  1  0
 19 22  1  0
 21 26  1  0
 23 26  2  0
 24 26  2  0
M  END
