WAR-XCH-b6889685-55
     RDKit          3D

 24 26  0  0  1  0  0  0  0  0999 V2000
    9.3558   -1.1552   24.7164 C   0  0  0  0  0  0  0  0  0  0  0  0
   10.8450   -2.3389   23.2271 C   0  0  0  0  0  0  0  0  0  0  0  0
    8.5051   -2.2602   24.7441 C   0  0  0  0  0  0  0  0  0  0  0  0
    9.9943   -3.4440   23.2548 C   0  0  0  0  0  0  0  0  0  0  0  0
   10.5257   -1.1945   23.9579 C   0  0  0  0  0  0  0  0  0  0  0  0
    8.8243   -3.4046   24.0133 C   0  0  0  0  0  0  0  0  0  0  0  0
   10.9356    7.7216   24.9052 C   0  0  0  0  0  0  0  0  0  0  0  0
   11.8624    6.5745   25.3013 C   0  0  0  0  0  0  0  0  0  0  0  0
    9.4889    7.2558   24.7570 C   0  0  0  0  0  0  0  0  0  0  0  0
   11.7487    5.3986   24.3330 C   0  0  0  0  0  0  0  0  0  0  0  0
    9.3719    6.0807   23.7882 C   0  0  0  0  0  0  0  0  0  0  0  0
   10.6685    2.0799   24.7962 C   0  0  0  0  0  0  0  0  0  0  0  0
   11.0864    1.7287   22.3197 C   0  0  0  0  0  0  0  0  0  0  0  0
   11.4722    0.8070   25.0861 C   0  0  0  0  0  0  0  0  0  0  0  0
   11.8810    0.4704   22.6742 C   0  0  0  0  0  0  0  0  0  0  0  0
   10.2988    4.9388   24.1989 C   0  0  0  0  0  0  0  0  0  0  0  0
   11.1222    2.7232   23.4832 C   0  0  0  0  0  0  0  0  0  0  0  0
    8.8148    3.4109   22.9159 C   0  0  0  0  0  0  0  0  0  0  0  0
   11.3745   -0.0927   23.9299 N   0  0  0  0  0  0  0  0  0  0  0  0
    8.3961   -5.6565   25.3736 N   0  0  0  0  0  0  0  0  0  0  0  0
   10.2273    3.8674   23.1700 N   0  0  0  0  0  0  0  0  0  0  0  0
    6.4199   -4.3287   24.3849 O   0  0  0  0  0  0  0  0  0  0  0  0
    7.9732   -5.5655   22.8340 O   0  0  0  0  0  0  0  0  0  0  0  0
    7.7598   -4.7880   24.0468 S   0  0  0  0  0  0  0  0  0  0  0  0
  1  3  2  0
  1  5  1  0
  2  4  1  0
  2  5  2  0
  3  6  1  0
  4  6  2  0
  5 19  1  0
  6 24  1  0
  7  8  1  0
  7  9  1  0
  8 10  1  0
  9 11  1  0
 10 16  1  0
 11 16  1  0
 12 14  1  0
 12 17  1  0
 13 15  1  0
 13 17  1  0
 14 19  1  0
 15 19  1  0
 16 21  1  0
 17 21  1  0
 18 21  1  0
 20 24  1  0
 22 24  2  0
 23 24  2  0
M  CHG  1  21   1
M  END
