WAR-XCH-b72a1bbc-21
     RDKit          3D

 23 25  0  0  0  0  0  0  0  0999 V2000
    8.9059   -1.4556   24.8230 C   0  0  0  0  0  0  0  0  0  0  0  0
    9.1598   -1.9086   22.4635 C   0  0  0  0  0  0  0  0  0  0  0  0
    8.1730   -2.6332   24.9703 C   0  0  0  0  0  0  0  0  0  0  0  0
    8.4269   -3.0862   22.6107 C   0  0  0  0  0  0  0  0  0  0  0  0
    9.3993   -1.0933   23.5696 C   0  0  0  0  0  0  0  0  0  0  0  0
    7.9335   -3.4485   23.8641 C   0  0  0  0  0  0  0  0  0  0  0  0
   12.0786    1.4357   24.1198 C   0  0  0  0  0  0  0  0  0  0  0  0
   10.8057    2.0206   22.0465 C   0  0  0  0  0  0  0  0  0  0  0  0
   10.9229    0.5447   24.5748 C   0  0  0  0  0  0  0  0  0  0  0  0
    9.6528    1.1263   22.5036 C   0  0  0  0  0  0  0  0  0  0  0  0
   12.2081    5.7128   23.3764 C   0  0  0  0  0  0  0  0  0  0  0  0
    9.6873    5.8087   23.3471 C   0  0  0  0  0  0  0  0  0  0  0  0
   12.3285    6.3387   24.7558 C   0  0  0  0  0  0  0  0  0  0  0  0
    9.5828    6.4434   24.7238 C   0  0  0  0  0  0  0  0  0  0  0  0
   11.6262    2.5847   23.2114 C   0  0  0  0  0  0  0  0  0  0  0  0
   10.8607    3.6611   23.9837 C   0  0  0  0  0  0  0  0  0  0  0  0
   10.1353    0.0890   23.4213 N   0  0  0  0  0  0  0  0  0  0  0  0
    5.4286   -4.3546   23.7669 N   0  0  0  0  0  0  0  0  0  0  0  0
   10.9186    4.9478   23.2050 N   0  0  0  0  0  0  0  0  0  0  0  0
    7.3864   -5.8312   22.9716 O   0  0  0  0  0  0  0  0  0  0  0  0
    7.1169   -5.3613   25.4321 O   0  0  0  0  0  0  0  0  0  0  0  0
   10.9951    7.5263   25.0788 S   0  0  0  0  0  0  0  0  0  0  0  0
    7.0156   -4.9224   24.0473 S   0  0  0  0  0  0  0  0  0  0  0  0
  1  3  2  0
  1  5  1  0
  2  4  1  0
  2  5  2  0
  3  6  1  0
  4  6  2  0
  5 17  1  0
  6 23  1  0
  7  9  1  0
  7 15  1  0
  8 10  1  0
  8 15  1  0
  9 17  1  0
 10 17  1  0
 11 13  1  0
 11 19  1  0
 12 14  1  0
 12 19  1  0
 13 22  1  0
 14 22  1  0
 15 16  1  0
 16 19  1  0
 18 23  1  0
 20 23  2  0
 21 23  2  0
M  CHG  1  19   1
M  END
