WAR-XCH-bdd24732-1
     RDKit          3D

 28 30  0  0  1  0  0  0  0  0999 V2000
   14.4739   -1.1878   22.0650 C   0  0  0  0  0  0  0  0  0  0  0  0
    6.1200    0.8295   18.0418 C   0  0  0  0  0  0  0  0  0  0  0  0
   14.7286   -0.6445   23.3242 C   0  0  0  0  0  0  0  0  0  0  0  0
   13.1687   -1.5152   21.6977 C   0  0  0  0  0  0  0  0  0  0  0  0
    5.8262    1.7394   19.0573 C   0  0  0  0  0  0  0  0  0  0  0  0
    6.9729   -0.2452   18.2935 C   0  0  0  0  0  0  0  0  0  0  0  0
   13.6781   -0.4287   24.2161 C   0  0  0  0  0  0  0  0  0  0  0  0
   12.1182   -1.2993   22.5896 C   0  0  0  0  0  0  0  0  0  0  0  0
    6.3854    1.5749   20.3245 C   0  0  0  0  0  0  0  0  0  0  0  0
    7.5321   -0.4098   19.5607 C   0  0  0  0  0  0  0  0  0  0  0  0
   12.3729   -0.7561   23.8488 C   0  0  0  0  0  0  0  0  0  0  0  0
    7.2384    0.5002   20.5762 C   0  0  0  0  0  0  0  0  0  0  0  0
    9.9268   -0.2256   24.0534 C   0  0  0  0  0  0  0  0  0  0  0  0
    9.1898    1.0656   22.0342 C   0  0  0  0  0  0  0  0  0  0  0  0
   11.8369    2.3341   22.6003 C   0  0  0  0  0  0  0  0  0  0  0  0
    9.8453    3.2808   23.8376 C   0  0  0  0  0  0  0  0  0  0  0  0
   12.6594    3.5653   22.9816 C   0  0  0  0  0  0  0  0  0  0  0  0
   10.6671    4.5133   24.2176 C   0  0  0  0  0  0  0  0  0  0  0  0
   10.7351    2.0537   23.6245 C   0  0  0  0  0  0  0  0  0  0  0  0
   11.7815    4.7963   23.2106 C   0  0  0  0  0  0  0  0  0  0  0  0
   11.0532   -1.7218   25.7583 C   0  0  0  0  0  0  0  0  0  0  0  0
    6.9676    0.7816   23.1245 C   0  0  0  0  0  0  0  0  0  0  0  0
   11.2279   -0.5214   24.8202 C   0  0  0  0  0  0  0  0  0  0  0  0
    7.8501    0.3199   21.9607 C   0  0  0  0  0  0  0  0  0  0  0  0
    9.9467    0.9149   23.2198 N   0  0  0  0  0  0  0  0  0  0  0  0
    8.9407   -0.9552   24.1820 O   0  0  0  0  0  0  0  0  0  0  0  0
    9.5601    1.7450   21.0706 O   0  0  0  0  0  0  0  0  0  0  0  0
   11.1916    5.2047   21.9782 O   0  0  0  0  0  0  0  0  0  0  0  0
  1  3  2  0
  1  4  1  0
  2  5  2  0
  2  6  1  0
  3  7  1  0
  4  8  2  0
  5  9  1  0
  6 10  2  0
  7 11  2  0
  8 11  1  0
  9 12  2  0
 10 12  1  0
 11 23  1  0
 12 24  1  0
 13 23  1  0
 13 25  1  0
 13 26  2  0
 14 24  1  0
 14 25  1  0
 14 27  2  0
 15 17  1  0
 15 19  1  0
 16 18  1  0
 16 19  1  0
 17 20  1  0
 18 20  1  0
 19 25  1  0
 20 28  1  0
 21 23  1  0
 22 24  1  0
M  END
