WAR-XCH-bdd24732-24
     RDKit          3D

 20 22  0  0  0  0  0  0  0  0999 V2000
    7.3876   -5.2291   23.0443 C   0  0  0  0  0  0  0  0  0  0  0  0
    8.5443   -4.8406   23.7202 C   0  0  0  0  0  0  0  0  0  0  0  0
    6.7445   -4.3331   22.1904 C   0  0  0  0  0  0  0  0  0  0  0  0
    8.4145   -2.6598   22.6884 C   0  0  0  0  0  0  0  0  0  0  0  0
   10.6274   -1.8993   24.6742 C   0  0  0  0  0  0  0  0  0  0  0  0
    9.0577   -3.5559   23.5423 C   0  0  0  0  0  0  0  0  0  0  0  0
   11.8955   -1.9098   25.3289 C   0  0  0  0  0  0  0  0  0  0  0  0
    7.2579   -3.0484   22.0125 C   0  0  0  0  0  0  0  0  0  0  0  0
   10.2556   -3.1538   24.2411 C   0  0  0  0  0  0  0  0  0  0  0  0
   12.4305   -3.1834   25.3689 C   0  0  0  0  0  0  0  0  0  0  0  0
    5.8740   -2.4848   20.0302 C   0  0  0  0  0  0  0  0  0  0  0  0
   12.5936   -0.7332   25.9376 C   0  0  0  0  0  0  0  0  0  0  0  0
   13.7583   -3.5400   25.9604 C   0  0  0  0  0  0  0  0  0  0  0  0
   14.0775   -1.0280   26.2074 C   0  0  0  0  0  0  0  0  0  0  0  0
   14.2712   -2.4044   26.8602 C   0  0  0  0  0  0  0  0  0  0  0  0
    5.3167   -1.2594   19.3435 C   0  0  0  0  0  0  0  0  0  0  0  0
    6.6131   -2.1521   21.1597 N   0  0  0  0  0  0  0  0  0  0  0  0
    5.6662   -3.6018   19.5641 O   0  0  0  0  0  0  0  0  0  0  0  0
   11.4293   -4.3408   24.6231 S   0  0  0  0  0  0  0  0  0  0  0  0
    6.5097   -0.7187   18.1518 Cl  0  0  0  0  0  0  0  0  0  0  0  0
  1  2  2  0
  1  3  1  0
  2  6  1  0
  3  8  2  0
  4  6  2  0
  4  8  1  0
  5  7  1  0
  5  9  2  0
  6  9  1  0
  7 10  2  0
  7 12  1  0
  8 17  1  0
  9 19  1  0
 10 13  1  0
 10 19  1  0
 11 16  1  0
 11 17  1  0
 11 18  2  0
 12 14  1  0
 13 15  1  0
 14 15  1  0
 16 20  1  0
M  END
