WAR-XCH-bdd24732-20
     RDKit          3D

 28 31  0  0  1  0  0  0  0  0999 V2000
   12.7880   -2.0524   22.4399 C   0  0  0  0  0  0  0  0  0  0  0  0
   13.2873   -0.7866   22.1122 C   0  0  0  0  0  0  0  0  0  0  0  0
   11.8471   -2.2068   23.4561 C   0  0  0  0  0  0  0  0  0  0  0  0
    8.2730   -3.5286   22.9970 C   0  0  0  0  0  0  0  0  0  0  0  0
   13.1065    1.7330   22.7625 C   0  0  0  0  0  0  0  0  0  0  0  0
    8.2981   -1.1345   23.2254 C   0  0  0  0  0  0  0  0  0  0  0  0
    7.5578   -3.3551   21.8230 C   0  0  0  0  0  0  0  0  0  0  0  0
   12.3417    2.3560   23.7216 C   0  0  0  0  0  0  0  0  0  0  0  0
   12.8270    0.3391   22.8237 C   0  0  0  0  0  0  0  0  0  0  0  0
   11.3759   -1.1048   24.1756 C   0  0  0  0  0  0  0  0  0  0  0  0
    8.6464   -2.3921   23.7056 C   0  0  0  0  0  0  0  0  0  0  0  0
   11.8838    0.1544   23.8369 C   0  0  0  0  0  0  0  0  0  0  0  0
    7.5819   -1.0682   22.0411 C   0  0  0  0  0  0  0  0  0  0  0  0
    5.8434   -0.9431   18.2223 C   0  0  0  0  0  0  0  0  0  0  0  0
    4.6226    0.2866   21.3969 C   0  0  0  0  0  0  0  0  0  0  0  0
    5.8710    0.8202   22.0950 C   0  0  0  0  0  0  0  0  0  0  0  0
    4.7072    0.4815   19.8889 C   0  0  0  0  0  0  0  0  0  0  0  0
    7.1816    0.3609   19.9441 C   0  0  0  0  0  0  0  0  0  0  0  0
    7.1814    0.2979   21.4827 C   0  0  0  0  0  0  0  0  0  0  0  0
   10.6839    1.6839   25.4409 C   0  0  0  0  0  0  0  0  0  0  0  0
   10.3569   -1.3351   25.2649 C   0  0  0  0  0  0  0  0  0  0  0  0
    9.4167   -2.5222   24.9756 C   0  0  0  0  0  0  0  0  0  0  0  0
    7.1386   -1.5221   17.7105 C   0  0  0  0  0  0  0  0  0  0  0  0
    7.2014   -2.1499   21.3251 N   0  0  0  0  0  0  0  0  0  0  0  0
   11.6078    1.3956   24.3646 N   0  0  0  0  0  0  0  0  0  0  0  0
    5.9278   -0.1084   19.3390 N   0  0  0  0  0  0  0  0  0  0  0  0
    4.7888   -1.2284   17.6490 O   0  0  0  0  0  0  0  0  0  0  0  0
    6.7259   -2.5469   16.3403 Cl  0  0  0  0  0  0  0  0  0  0  0  0
  1  2  2  0
  1  3  1  0
  2  9  1  0
  3 10  2  0
  4  7  2  0
  4 11  1  0
  5  8  2  0
  5  9  1  0
  6 11  2  0
  6 13  1  0
  7 24  1  0
  8 25  1  0
  9 12  2  0
 10 12  1  0
 10 21  1  0
 11 22  1  0
 12 25  1  0
 13 19  1  0
 13 24  2  0
 14 23  1  0
 14 26  1  0
 14 27  2  0
 15 16  1  0
 15 17  1  0
 16 19  1  0
 17 26  1  0
 18 19  1  0
 18 26  1  0
 20 25  1  0
 21 22  1  0
 23 28  1  0
M  END
