WAR-XCH-bdd24732-46
     RDKit          3D

 29 31  0  0  1  0  0  0  0  0999 V2000
    9.0231   -4.9443   26.1694 C   0  0  0  0  0  0  0  0  0  0  0  0
    9.5837   -4.1235   25.1908 C   0  0  0  0  0  0  0  0  0  0  0  0
    7.0373   -5.2003   24.8174 C   0  0  0  0  0  0  0  0  0  0  0  0
    7.7499   -5.4827   25.9828 C   0  0  0  0  0  0  0  0  0  0  0  0
    7.5978   -4.3795   23.8387 C   0  0  0  0  0  0  0  0  0  0  0  0
    8.8710   -3.8411   24.0254 C   0  0  0  0  0  0  0  0  0  0  0  0
    8.3168   -0.6265   24.0440 C   0  0  0  0  0  0  0  0  0  0  0  0
   11.2378    2.7165   22.6386 C   0  0  0  0  0  0  0  0  0  0  0  0
   12.1248    1.5359   23.0213 C   0  0  0  0  0  0  0  0  0  0  0  0
   10.2809    3.0884   23.7670 C   0  0  0  0  0  0  0  0  0  0  0  0
   11.2987    0.3340   23.4737 C   0  0  0  0  0  0  0  0  0  0  0  0
    9.4518    1.8890   24.2208 C   0  0  0  0  0  0  0  0  0  0  0  0
    6.4865   -0.5380   21.8407 C   0  0  0  0  0  0  0  0  0  0  0  0
    8.7329   -0.1981   20.7309 C   0  0  0  0  0  0  0  0  0  0  0  0
    5.7847   -0.1788   20.5306 C   0  0  0  0  0  0  0  0  0  0  0  0
    8.0312    0.1630   19.4209 C   0  0  0  0  0  0  0  0  0  0  0  0
   10.3411    0.7021   24.6151 C   0  0  0  0  0  0  0  0  0  0  0  0
    7.8756   -1.1295   21.5915 C   0  0  0  0  0  0  0  0  0  0  0  0
    6.6358    0.7411   19.6545 C   0  0  0  0  0  0  0  0  0  0  0  0
    7.1510   -6.3602   27.0297 C   0  0  0  0  0  0  0  0  0  0  0  0
    6.8087   -4.0973   22.6022 C   0  0  0  0  0  0  0  0  0  0  0  0
    8.9782   -0.3529   26.4463 C   0  0  0  0  0  0  0  0  0  0  0  0
    9.4889   -0.5015   25.0135 C   0  0  0  0  0  0  0  0  0  0  0  0
    8.5336   -1.4190   22.8427 N   0  0  0  0  0  0  0  0  0  0  0  0
    7.2535   -0.0522   24.2719 O   0  0  0  0  0  0  0  0  0  0  0  0
    9.4891   -3.4513   21.5149 O   0  0  0  0  0  0  0  0  0  0  0  0
   10.9242   -2.4477   23.3155 O   0  0  0  0  0  0  0  0  0  0  0  0
    6.7677    2.0165   20.2788 O   0  0  0  0  0  0  0  0  0  0  0  0
    9.6127   -2.7965   22.8040 S   0  0  0  0  0  0  0  0  0  0  0  0
  1  2  2  0
  1  4  1  0
  2  6  1  0
  3  4  2  0
  3  5  1  0
  4 20  1  0
  5  6  2  0
  5 21  1  0
  6 29  1  0
  7 23  1  0
  7 24  1  0
  7 25  2  0
  8  9  1  0
  8 10  1  0
  9 11  1  0
 10 12  1  0
 11 17  1  0
 12 17  1  0
 13 15  1  0
 13 18  1  0
 14 16  1  0
 14 18  1  0
 15 19  1  0
 16 19  1  0
 17 23  1  0
 18 24  1  0
 19 28  1  0
 22 23  1  0
 24 29  1  0
 26 29  2  0
 27 29  2  0
M  END
