WAR-XCH-b72a1bbc-34
     RDKit          3D

 26 28  0  0  0  0  0  0  0  0999 V2000
   11.2264   -6.2368   26.0689 C   0  0  0  0  0  0  0  0  0  0  0  0
   10.3431   -5.1006   24.0918 C   0  0  0  0  0  0  0  0  0  0  0  0
    9.1759   -4.9102   26.1985 C   0  0  0  0  0  0  0  0  0  0  0  0
    2.5744   -8.4381   24.9749 C   0  0  0  0  0  0  0  0  0  0  0  0
    1.9641   -8.4739   22.6375 C   0  0  0  0  0  0  0  0  0  0  0  0
    9.3807   -4.2933   23.4856 C   0  0  0  0  0  0  0  0  0  0  0  0
    8.2135   -4.1028   25.5924 C   0  0  0  0  0  0  0  0  0  0  0  0
    1.5875   -9.3855   25.2471 C   0  0  0  0  0  0  0  0  0  0  0  0
    0.9772   -9.4213   22.9097 C   0  0  0  0  0  0  0  0  0  0  0  0
   10.2407   -5.4092   25.4483 C   0  0  0  0  0  0  0  0  0  0  0  0
    2.7627   -7.9823   23.6701 C   0  0  0  0  0  0  0  0  0  0  0  0
    8.3159   -3.7943   24.2358 C   0  0  0  0  0  0  0  0  0  0  0  0
    0.7889   -9.8771   24.2145 C   0  0  0  0  0  0  0  0  0  0  0  0
    4.7384   -4.8100   23.7927 C   0  0  0  0  0  0  0  0  0  0  0  0
    5.4236   -6.1666   21.8057 C   0  0  0  0  0  0  0  0  0  0  0  0
    4.1219   -6.0563   24.4278 C   0  0  0  0  0  0  0  0  0  0  0  0
    4.8104   -7.4093   22.4489 C   0  0  0  0  0  0  0  0  0  0  0  0
    5.9025   -5.1665   22.8631 C   0  0  0  0  0  0  0  0  0  0  0  0
    6.4777   -3.9141   22.2062 C   0  0  0  0  0  0  0  0  0  0  0  0
   12.0269   -6.9090   26.5730 N   0  0  0  0  0  0  0  0  0  0  0  0
    3.7531   -7.0314   23.3964 N   0  0  0  0  0  0  0  0  0  0  0  0
    0.4290  -12.5148   24.3481 N   0  0  0  0  0  0  0  0  0  0  0  0
   -0.8295  -10.9392   25.9541 O   0  0  0  0  0  0  0  0  0  0  0  0
   -1.4654  -10.9797   23.5165 O   0  0  0  0  0  0  0  0  0  0  0  0
    7.0962   -2.7722   23.4671 S   0  0  0  0  0  0  0  0  0  0  0  0
   -0.4471  -11.0625   24.5544 S   0  0  0  0  0  0  0  0  0  0  0  0
  1 10  1  0
  1 20  3  0
  2  6  2  0
  2 10  1  0
  3  7  1  0
  3 10  2  0
  4  8  2  0
  4 11  1  0
  5  9  1  0
  5 11  2  0
  6 12  1  0
  7 12  2  0
  8 13  1  0
  9 13  2  0
 11 21  1  0
 12 25  1  0
 13 26  1  0
 14 16  1  0
 14 18  1  0
 15 17  1  0
 15 18  1  0
 16 21  1  0
 17 21  1  0
 18 19  1  0
 19 25  1  0
 22 26  1  0
 23 26  2  0
 24 26  2  0
M  END
