WAR-XCH-b72a1bbc-40
     RDKit          3D

 24 26  0  0  0  0  0  0  0  0999 V2000
   12.9800    1.7770   22.8615 C   0  0  0  0  0  0  0  0  0  0  0  0
   10.9982    1.7224   24.2423 C   0  0  0  0  0  0  0  0  0  0  0  0
   12.9670    3.1712   22.8979 C   0  0  0  0  0  0  0  0  0  0  0  0
   10.9852    3.1167   24.2788 C   0  0  0  0  0  0  0  0  0  0  0  0
    5.5346   -3.6651   24.0608 C   0  0  0  0  0  0  0  0  0  0  0  0
    4.2733   -4.1997   23.6691 C   0  0  0  0  0  0  0  0  0  0  0  0
   11.9956    1.0525   23.5337 C   0  0  0  0  0  0  0  0  0  0  0  0
   11.9697    3.8411   23.6065 C   0  0  0  0  0  0  0  0  0  0  0  0
    6.5583   -4.5692   23.8809 C   0  0  0  0  0  0  0  0  0  0  0  0
    4.3811   -5.4922   23.2044 C   0  0  0  0  0  0  0  0  0  0  0  0
   10.4830   -1.6098   22.0691 C   0  0  0  0  0  0  0  0  0  0  0  0
   10.2638   -1.6503   24.5912 C   0  0  0  0  0  0  0  0  0  0  0  0
   11.9096   -1.0873   22.2426 C   0  0  0  0  0  0  0  0  0  0  0  0
   11.6980   -1.1214   24.6984 C   0  0  0  0  0  0  0  0  0  0  0  0
   10.0503   -2.4419   23.2891 C   0  0  0  0  0  0  0  0  0  0  0  0
    8.5952   -2.8847   23.1554 C   0  0  0  0  0  0  0  0  0  0  0  0
   12.0081   -0.3380   23.4977 N   0  0  0  0  0  0  0  0  0  0  0  0
   10.9893    5.9382   22.2852 N   0  0  0  0  0  0  0  0  0  0  0  0
   11.2392    6.0076   24.8500 O   0  0  0  0  0  0  0  0  0  0  0  0
   13.3043    6.0691   23.4080 O   0  0  0  0  0  0  0  0  0  0  0  0
    5.9976   -6.0557   23.2419 S   0  0  0  0  0  0  0  0  0  0  0  0
    8.2652   -4.2917   24.2452 S   0  0  0  0  0  0  0  0  0  0  0  0
   11.9522    5.5864   23.6521 S   0  0  0  0  0  0  0  0  0  0  0  0
    3.1272   -6.5112   22.6333 Cl  0  0  0  0  0  0  0  0  0  0  0  0
  1  3  2  0
  1  7  1  0
  2  4  1  0
  2  7  2  0
  3  8  1  0
  4  8  2  0
  5  6  1  0
  5  9  2  0
  6 10  2  0
  7 17  1  0
  8 23  1  0
  9 21  1  0
  9 22  1  0
 10 21  1  0
 10 24  1  0
 11 13  1  0
 11 15  1  0
 12 14  1  0
 12 15  1  0
 13 17  1  0
 14 17  1  0
 15 16  1  0
 16 22  1  0
 18 23  1  0
 19 23  2  0
 20 23  2  0
M  END
