WAR-XCH-bdd24732-47
     RDKit          3D

 27 29  0  0  1  0  0  0  0  0999 V2000
    5.3177    1.0457   19.1613 C   0  0  0  0  0  0  0  0  0  0  0  0
    6.0912   -0.1149   19.1514 C   0  0  0  0  0  0  0  0  0  0  0  0
    4.7148    1.4720   20.3447 C   0  0  0  0  0  0  0  0  0  0  0  0
    6.2618   -0.8494   20.3249 C   0  0  0  0  0  0  0  0  0  0  0  0
   12.0002   -0.7448   24.3114 C   0  0  0  0  0  0  0  0  0  0  0  0
   10.6624   -0.3686   24.4312 C   0  0  0  0  0  0  0  0  0  0  0  0
   11.6811   -1.1271   21.9473 C   0  0  0  0  0  0  0  0  0  0  0  0
   12.5096   -1.1240   23.0694 C   0  0  0  0  0  0  0  0  0  0  0  0
    4.8854    0.7375   21.5182 C   0  0  0  0  0  0  0  0  0  0  0  0
    5.6589   -0.4232   21.5083 C   0  0  0  0  0  0  0  0  0  0  0  0
   10.3432   -0.7509   22.0671 C   0  0  0  0  0  0  0  0  0  0  0  0
    9.8339   -0.3716   23.3091 C   0  0  0  0  0  0  0  0  0  0  0  0
    6.6226   -2.5085   25.1682 C   0  0  0  0  0  0  0  0  0  0  0  0
    7.4074   -3.7860   23.1321 C   0  0  0  0  0  0  0  0  0  0  0  0
    6.8430   -3.7504   26.0326 C   0  0  0  0  0  0  0  0  0  0  0  0
    7.6262   -5.0288   23.9960 C   0  0  0  0  0  0  0  0  0  0  0  0
    7.5479   -2.4994   23.9494 C   0  0  0  0  0  0  0  0  0  0  0  0
    6.7186   -5.0434   25.2257 C   0  0  0  0  0  0  0  0  0  0  0  0
   13.9403   -1.5263   22.9419 C   0  0  0  0  0  0  0  0  0  0  0  0
    4.2313    1.2136   22.7738 C   0  0  0  0  0  0  0  0  0  0  0  0
    9.4830   -0.7643   20.8459 C   0  0  0  0  0  0  0  0  0  0  0  0
    5.8563   -1.2306   22.7586 C   0  0  0  0  0  0  0  0  0  0  0  0
    7.2903   -1.3414   23.1280 N   0  0  0  0  0  0  0  0  0  0  0  0
    7.9410    0.4470   24.8951 O   0  0  0  0  0  0  0  0  0  0  0  0
    7.8620    1.1078   22.4783 O   0  0  0  0  0  0  0  0  0  0  0  0
    5.3698   -5.2171   24.7968 O   0  0  0  0  0  0  0  0  0  0  0  0
    8.1408    0.1125   23.4970 S   0  0  0  0  0  0  0  0  0  0  0  0
  1  2  2  0
  1  3  1  0
  2  4  1  0
  3  9  2  0
  4 10  2  0
  5  6  2  0
  5  8  1  0
  6 12  1  0
  7  8  2  0
  7 11  1  0
  8 19  1  0
  9 10  1  0
  9 20  1  0
 10 22  1  0
 11 12  2  0
 11 21  1  0
 12 27  1  0
 13 15  1  0
 13 17  1  0
 14 16  1  0
 14 17  1  0
 15 18  1  0
 16 18  1  0
 17 23  1  0
 18 26  1  0
 22 23  1  0
 23 27  1  0
 24 27  2  0
 25 27  2  0
M  END
