WAR-XCH-79d12f6e-2
     RDKit          3D

 21 22  0  0  0  0  0  0  0  0999 V2000
    6.3555   -3.0912   21.5949 C   0  0  0  0  0  0  0  0  0  0  0  0
    6.3176   -6.6989   22.4851 C   0  0  0  0  0  0  0  0  0  0  0  0
    7.6714   -6.9412   22.7179 C   0  0  0  0  0  0  0  0  0  0  0  0
    5.8910   -5.4237   22.1143 C   0  0  0  0  0  0  0  0  0  0  0  0
    8.5986   -5.9083   22.5799 C   0  0  0  0  0  0  0  0  0  0  0  0
   12.7802   -3.1312   25.8516 C   0  0  0  0  0  0  0  0  0  0  0  0
   11.4384   -3.3607   25.5479 C   0  0  0  0  0  0  0  0  0  0  0  0
   12.5499   -0.8356   25.1345 C   0  0  0  0  0  0  0  0  0  0  0  0
    6.8182   -4.3908   21.9763 C   0  0  0  0  0  0  0  0  0  0  0  0
   13.3360   -1.8686   25.6449 C   0  0  0  0  0  0  0  0  0  0  0  0
    8.1720   -4.6330   22.2091 C   0  0  0  0  0  0  0  0  0  0  0  0
   11.2080   -1.0651   24.8307 C   0  0  0  0  0  0  0  0  0  0  0  0
   10.6522   -2.3277   25.0375 C   0  0  0  0  0  0  0  0  0  0  0  0
   14.7711   -1.6237   25.9698 C   0  0  0  0  0  0  0  0  0  0  0  0
   10.3935    0.0625   24.2864 C   0  0  0  0  0  0  0  0  0  0  0  0
    9.1942   -3.5507   22.0709 C   0  0  0  0  0  0  0  0  0  0  0  0
    5.9803   -2.0375   21.2855 N   0  0  0  0  0  0  0  0  0  0  0  0
    8.9392   -2.4452   22.9569 N   0  0  0  0  0  0  0  0  0  0  0  0
    8.6907   -4.0474   24.9648 O   0  0  0  0  0  0  0  0  0  0  0  0
    8.1747   -1.6090   25.2997 O   0  0  0  0  0  0  0  0  0  0  0  0
    8.9553   -2.6533   24.6643 S   0  0  0  0  0  0  0  0  0  0  0  0
  1  9  1  0
  1 17  3  0
  2  3  2  0
  2  4  1  0
  3  5  1  0
  4  9  2  0
  5 11  2  0
  6  7  2  0
  6 10  1  0
  7 13  1  0
  8 10  2  0
  8 12  1  0
  9 11  1  0
 10 14  1  0
 11 16  1  0
 12 13  2  0
 12 15  1  0
 13 21  1  0
 16 18  1  0
 18 21  1  0
 19 21  2  0
 20 21  2  0
M  END
