WAR-XCH-b6889685-25
     RDKit          3D

 24 26  0  0  0  0  0  0  0  0999 V2000
   12.7792   -0.0669   24.1447 C   0  0  0  0  0  0  0  0  0  0  0  0
   13.5919   -2.0878   23.0994 C   0  0  0  0  0  0  0  0  0  0  0  0
    7.4692   -4.0231   26.5749 C   0  0  0  0  0  0  0  0  0  0  0  0
    6.3863   -5.4830   24.9833 C   0  0  0  0  0  0  0  0  0  0  0  0
   11.5978   -0.1616   23.4093 C   0  0  0  0  0  0  0  0  0  0  0  0
   12.4104   -2.1825   22.3640 C   0  0  0  0  0  0  0  0  0  0  0  0
    6.9669   -4.7936   27.6234 C   0  0  0  0  0  0  0  0  0  0  0  0
    5.8840   -6.2536   26.0319 C   0  0  0  0  0  0  0  0  0  0  0  0
   13.7763   -1.0299   23.9897 C   0  0  0  0  0  0  0  0  0  0  0  0
    7.1788   -4.3677   25.2548 C   0  0  0  0  0  0  0  0  0  0  0  0
   11.4133   -1.2194   22.5190 C   0  0  0  0  0  0  0  0  0  0  0  0
    6.1743   -5.9089   27.3520 C   0  0  0  0  0  0  0  0  0  0  0  0
    8.5428   -1.4097   23.5469 C   0  0  0  0  0  0  0  0  0  0  0  0
    9.3868   -3.5089   22.4616 C   0  0  0  0  0  0  0  0  0  0  0  0
    7.3422   -2.1849   24.0908 C   0  0  0  0  0  0  0  0  0  0  0  0
    8.1686   -4.2559   22.9984 C   0  0  0  0  0  0  0  0  0  0  0  0
    9.0752   -2.0256   22.2523 C   0  0  0  0  0  0  0  0  0  0  0  0
   15.0400   -0.9293   24.7752 C   0  0  0  0  0  0  0  0  0  0  0  0
    7.6744   -3.6074   24.2193 N   0  0  0  0  0  0  0  0  0  0  0  0
    6.7995   -8.0167   28.8589 N   0  0  0  0  0  0  0  0  0  0  0  0
   10.2422   -1.3146   21.7916 N   0  0  0  0  0  0  0  0  0  0  0  0
    5.4785   -6.0405   29.8563 O   0  0  0  0  0  0  0  0  0  0  0  0
    4.3508   -7.5654   28.1978 O   0  0  0  0  0  0  0  0  0  0  0  0
    5.5446   -6.8736   28.6638 S   0  0  0  0  0  0  0  0  0  0  0  0
  1  5  2  0
  1  9  1  0
  2  6  1  0
  2  9  2  0
  3  7  2  0
  3 10  1  0
  4  8  1  0
  4 10  2  0
  5 11  1  0
  6 11  2  0
  7 12  1  0
  8 12  2  0
  9 18  1  0
 10 19  1  0
 11 21  1  0
 12 24  1  0
 13 15  1  0
 13 17  1  0
 14 16  1  0
 14 17  1  0
 15 19  1  0
 16 19  1  0
 17 21  1  0
 20 24  1  0
 22 24  2  0
 23 24  2  0
M  END
