WAR-XCH-b72a1bbc-43
     RDKit          3D

 25 27  0  0  0  0  0  0  0  0999 V2000
    7.0891   -5.4419   24.1663 C   0  0  0  0  0  0  0  0  0  0  0  0
    6.0409   -3.2698   24.3082 C   0  0  0  0  0  0  0  0  0  0  0  0
   12.8536    2.4636   22.5279 C   0  0  0  0  0  0  0  0  0  0  0  0
   11.4429    1.7047   24.3364 C   0  0  0  0  0  0  0  0  0  0  0  0
    8.3319   -4.8313   23.9993 C   0  0  0  0  0  0  0  0  0  0  0  0
    7.2838   -2.6591   24.1413 C   0  0  0  0  0  0  0  0  0  0  0  0
   12.2931    3.7372   22.6250 C   0  0  0  0  0  0  0  0  0  0  0  0
   10.8824    2.9783   24.4336 C   0  0  0  0  0  0  0  0  0  0  0  0
    5.9435   -4.6612   24.3206 C   0  0  0  0  0  0  0  0  0  0  0  0
   12.4285    1.4473   23.3835 C   0  0  0  0  0  0  0  0  0  0  0  0
    8.4293   -3.4399   23.9869 C   0  0  0  0  0  0  0  0  0  0  0  0
   11.3075    3.9945   23.5779 C   0  0  0  0  0  0  0  0  0  0  0  0
   11.8095   -1.6766   22.2094 C   0  0  0  0  0  0  0  0  0  0  0  0
   12.2224   -1.6556   24.7073 C   0  0  0  0  0  0  0  0  0  0  0  0
   12.9054   -0.6205   22.0608 C   0  0  0  0  0  0  0  0  0  0  0  0
   13.3069   -0.5943   24.4929 C   0  0  0  0  0  0  0  0  0  0  0  0
   12.0446   -2.5403   23.4610 C   0  0  0  0  0  0  0  0  0  0  0  0
    4.6141   -5.3132   24.4987 C   0  0  0  0  0  0  0  0  0  0  0  0
   10.9010   -3.5325   23.6583 C   0  0  0  0  0  0  0  0  0  0  0  0
   12.9871    0.1771   23.2870 N   0  0  0  0  0  0  0  0  0  0  0  0
    9.2907    5.4484   22.6169 N   0  0  0  0  0  0  0  0  0  0  0  0
    9.6739   -2.8281   23.8217 N   0  0  0  0  0  0  0  0  0  0  0  0
   10.0854    5.7592   25.0495 O   0  0  0  0  0  0  0  0  0  0  0  0
   11.5528    6.5541   23.1621 O   0  0  0  0  0  0  0  0  0  0  0  0
   10.6049    5.5882   23.6999 S   0  0  0  0  0  0  0  0  0  0  0  0
  1  5  2  0
  1  9  1  0
  2  6  1  0
  2  9  2  0
  3  7  2  0
  3 10  1  0
  4  8  1  0
  4 10  2  0
  5 11  1  0
  6 11  2  0
  7 12  1  0
  8 12  2  0
  9 18  1  0
 10 20  1  0
 11 22  1  0
 12 25  1  0
 13 15  1  0
 13 17  1  0
 14 16  1  0
 14 17  1  0
 15 20  1  0
 16 20  1  0
 17 19  1  0
 19 22  1  0
 21 25  1  0
 23 25  2  0
 24 25  2  0
M  END
