WAR-XCH-b6889685-19
     RDKit          3D

 23 25  0  0  0  0  0  0  0  0999 V2000
   13.1149    2.3436   22.5929 C   0  0  0  0  0  0  0  0  0  0  0  0
   11.6759    1.6900   24.4202 C   0  0  0  0  0  0  0  0  0  0  0  0
   12.5766    3.6299   22.6290 C   0  0  0  0  0  0  0  0  0  0  0  0
   11.1376    2.9763   24.4564 C   0  0  0  0  0  0  0  0  0  0  0  0
    8.5886   -4.9215   24.4160 C   0  0  0  0  0  0  0  0  0  0  0  0
    7.2910   -5.3304   24.6316 C   0  0  0  0  0  0  0  0  0  0  0  0
    7.4691   -2.8847   24.4397 C   0  0  0  0  0  0  0  0  0  0  0  0
   12.6645    1.3736   23.4885 C   0  0  0  0  0  0  0  0  0  0  0  0
    8.6920   -3.5047   24.3050 C   0  0  0  0  0  0  0  0  0  0  0  0
   11.5880    3.9463   23.5608 C   0  0  0  0  0  0  0  0  0  0  0  0
   11.9990   -1.7876   22.4471 C   0  0  0  0  0  0  0  0  0  0  0  0
   12.3918   -1.6638   24.9453 C   0  0  0  0  0  0  0  0  0  0  0  0
   13.1150   -0.7586   22.2622 C   0  0  0  0  0  0  0  0  0  0  0  0
   13.4969   -0.6323   24.6942 C   0  0  0  0  0  0  0  0  0  0  0  0
   12.2083   -2.5994   23.7375 C   0  0  0  0  0  0  0  0  0  0  0  0
   11.0454   -3.5615   23.9679 C   0  0  0  0  0  0  0  0  0  0  0  0
   13.2009    0.0907   23.4528 N   0  0  0  0  0  0  0  0  0  0  0  0
    9.6056    5.3917   22.5188 N   0  0  0  0  0  0  0  0  0  0  0  0
   10.3857    5.7953   24.9424 O   0  0  0  0  0  0  0  0  0  0  0  0
   11.8827    6.4803   23.0351 O   0  0  0  0  0  0  0  0  0  0  0  0
    9.8544   -2.8063   24.0893 O   0  0  0  0  0  0  0  0  0  0  0  0
    6.2038   -4.0090   24.6992 S   0  0  0  0  0  0  0  0  0  0  0  0
   10.9132    5.5559   23.6063 S   0  0  0  0  0  0  0  0  0  0  0  0
  1  3  2  0
  1  8  1  0
  2  4  1  0
  2  8  2  0
  3 10  1  0
  4 10  2  0
  5  6  2  0
  5  9  1  0
  6 22  1  0
  7  9  2  0
  7 22  1  0
  8 17  1  0
  9 21  1  0
 10 23  1  0
 11 13  1  0
 11 15  1  0
 12 14  1  0
 12 15  1  0
 13 17  1  0
 14 17  1  0
 15 16  1  0
 16 21  1  0
 18 23  1  0
 19 23  2  0
 20 23  2  0
M  END
