WAR-XCH-79d12f6e-11
     RDKit          3D

 21 22  0  0  0  0  0  0  0  0999 V2000
    9.6434   -1.9313   25.0478 C   0  0  0  0  0  0  0  0  0  0  0  0
   12.2121    0.6793   24.4188 C   0  0  0  0  0  0  0  0  0  0  0  0
   12.6039    0.3743   23.1153 C   0  0  0  0  0  0  0  0  0  0  0  0
   11.2330   -0.0877   25.0503 C   0  0  0  0  0  0  0  0  0  0  0  0
   12.0166   -0.6976   22.4432 C   0  0  0  0  0  0  0  0  0  0  0  0
    6.5883   -6.0372   23.1880 C   0  0  0  0  0  0  0  0  0  0  0  0
    6.9638   -5.8653   21.8557 C   0  0  0  0  0  0  0  0  0  0  0  0
    6.9804   -3.6893   23.6015 C   0  0  0  0  0  0  0  0  0  0  0  0
   10.6457   -1.1596   24.3783 C   0  0  0  0  0  0  0  0  0  0  0  0
    6.5966   -4.9492   24.0609 C   0  0  0  0  0  0  0  0  0  0  0  0
   11.0374   -1.4646   23.0747 C   0  0  0  0  0  0  0  0  0  0  0  0
    7.3477   -4.6055   21.3963 C   0  0  0  0  0  0  0  0  0  0  0  0
    7.3559   -3.5175   22.2691 C   0  0  0  0  0  0  0  0  0  0  0  0
    6.1936   -5.1333   25.4850 C   0  0  0  0  0  0  0  0  0  0  0  0
    7.7441   -4.4556   19.9639 C   0  0  0  0  0  0  0  0  0  0  0  0
   10.4302   -2.6057   22.3234 C   0  0  0  0  0  0  0  0  0  0  0  0
    8.8307   -2.5570   25.5907 N   0  0  0  0  0  0  0  0  0  0  0  0
    9.4900   -2.1626   21.3275 N   0  0  0  0  0  0  0  0  0  0  0  0
    7.1077   -1.6162   20.4990 O   0  0  0  0  0  0  0  0  0  0  0  0
    7.7261   -1.0207   22.8627 O   0  0  0  0  0  0  0  0  0  0  0  0
    7.8349   -1.9070   21.7198 S   0  0  0  0  0  0  0  0  0  0  0  0
  1  9  1  0
  1 17  3  0
  2  3  2  0
  2  4  1  0
  3  5  1  0
  4  9  2  0
  5 11  2  0
  6  7  2  0
  6 10  1  0
  7 12  1  0
  8 10  2  0
  8 13  1  0
  9 11  1  0
 10 14  1  0
 11 16  1  0
 12 13  2  0
 12 15  1  0
 13 21  1  0
 16 18  1  0
 18 21  1  0
 19 21  2  0
 20 21  2  0
M  END
