WAR-XCH-b6889685-17
     RDKit          3D

 25 27  0  0  0  0  0  0  0  0999 V2000
    7.7596   -5.2958   26.3174 C   0  0  0  0  0  0  0  0  0  0  0  0
   13.3023    2.3859   22.7402 C   0  0  0  0  0  0  0  0  0  0  0  0
   11.4716    1.6978   24.1587 C   0  0  0  0  0  0  0  0  0  0  0  0
    9.0272   -4.9141   25.8779 C   0  0  0  0  0  0  0  0  0  0  0  0
   12.8677    3.7089   22.8211 C   0  0  0  0  0  0  0  0  0  0  0  0
   11.0370    3.0208   24.2396 C   0  0  0  0  0  0  0  0  0  0  0  0
    6.7069   -5.3958   25.4077 C   0  0  0  0  0  0  0  0  0  0  0  0
    8.1892   -4.7321   23.6192 C   0  0  0  0  0  0  0  0  0  0  0  0
   12.6042    1.3804   23.4090 C   0  0  0  0  0  0  0  0  0  0  0  0
    9.2420   -4.6322   24.5288 C   0  0  0  0  0  0  0  0  0  0  0  0
   11.7351    4.0263   23.5708 C   0  0  0  0  0  0  0  0  0  0  0  0
    6.9217   -5.1139   24.0587 C   0  0  0  0  0  0  0  0  0  0  0  0
   11.9293   -1.5799   21.8919 C   0  0  0  0  0  0  0  0  0  0  0  0
   11.8062   -1.7458   24.4154 C   0  0  0  0  0  0  0  0  0  0  0  0
   13.1344   -0.6525   22.0528 C   0  0  0  0  0  0  0  0  0  0  0  0
   13.0146   -0.8083   24.5100 C   0  0  0  0  0  0  0  0  0  0  0  0
   11.8053   -2.5333   23.0935 C   0  0  0  0  0  0  0  0  0  0  0  0
   10.5501   -3.3945   22.9755 C   0  0  0  0  0  0  0  0  0  0  0  0
   13.0372    0.0609   23.3287 N   0  0  0  0  0  0  0  0  0  0  0  0
   10.1264    5.7567   22.3369 N   0  0  0  0  0  0  0  0  0  0  0  0
   10.4179    5.8373   24.8970 O   0  0  0  0  0  0  0  0  0  0  0  0
   12.3240    6.5588   23.4158 O   0  0  0  0  0  0  0  0  0  0  0  0
   10.4902   -4.2575   24.0959 O   0  0  0  0  0  0  0  0  0  0  0  0
   11.1900    5.6819   23.6721 S   0  0  0  0  0  0  0  0  0  0  0  0
    5.6222   -5.2378   22.9376 Cl  0  0  0  0  0  0  0  0  0  0  0  0
  1  4  2  0
  1  7  1  0
  2  5  2  0
  2  9  1  0
  3  6  1  0
  3  9  2  0
  4 10  1  0
  5 11  1  0
  6 11  2  0
  7 12  2  0
  8 10  2  0
  8 12  1  0
  9 19  1  0
 10 23  1  0
 11 24  1  0
 12 25  1  0
 13 15  1  0
 13 17  1  0
 14 16  1  0
 14 17  1  0
 15 19  1  0
 16 19  1  0
 17 18  1  0
 18 23  1  0
 20 24  1  0
 21 24  2  0
 22 24  2  0
M  END
