WAR-XCH-b6889685-12
     RDKit          3D

 28 31  0  0  0  0  0  0  0  0999 V2000
   12.2795    2.1841   23.3386 C   0  0  0  0  0  0  0  0  0  0  0  0
    9.9858    2.1216   24.0953 C   0  0  0  0  0  0  0  0  0  0  0  0
   12.2643    3.5771   23.4076 C   0  0  0  0  0  0  0  0  0  0  0  0
    9.9707    3.5146   24.1643 C   0  0  0  0  0  0  0  0  0  0  0  0
    3.8621   -7.0282   25.2727 C   0  0  0  0  0  0  0  0  0  0  0  0
    3.4943   -7.6051   26.4683 C   0  0  0  0  0  0  0  0  0  0  0  0
    5.5525   -6.2748   26.6789 C   0  0  0  0  0  0  0  0  0  0  0  0
    5.0544   -6.2577   25.3945 C   0  0  0  0  0  0  0  0  0  0  0  0
   11.1402    1.4563   23.6824 C   0  0  0  0  0  0  0  0  0  0  0  0
   11.1099    4.2424   23.8205 C   0  0  0  0  0  0  0  0  0  0  0  0
   10.0936   -1.1495   21.7757 C   0  0  0  0  0  0  0  0  0  0  0  0
    9.1638   -1.2488   24.1287 C   0  0  0  0  0  0  0  0  0  0  0  0
    5.1045   -4.1045   24.1460 C   0  0  0  0  0  0  0  0  0  0  0  0
    7.2112   -5.4710   24.4313 C   0  0  0  0  0  0  0  0  0  0  0  0
   11.4143   -0.6500   22.3628 C   0  0  0  0  0  0  0  0  0  0  0  0
   10.5108   -0.7414   24.6545 C   0  0  0  0  0  0  0  0  0  0  0  0
    5.7752   -3.3227   23.0237 C   0  0  0  0  0  0  0  0  0  0  0  0
    7.8656   -4.6790   23.3065 C   0  0  0  0  0  0  0  0  0  0  0  0
    5.6834   -5.5232   24.2692 C   0  0  0  0  0  0  0  0  0  0  0  0
    9.3263   -2.0055   22.7987 C   0  0  0  0  0  0  0  0  0  0  0  0
    7.9674   -2.4259   22.2439 C   0  0  0  0  0  0  0  0  0  0  0  0
   11.1548    0.0670   23.6137 N   0  0  0  0  0  0  0  0  0  0  0  0
   10.5589    6.3837   22.3320 N   0  0  0  0  0  0  0  0  0  0  0  0
    7.2671   -3.2937   23.2533 N   0  0  0  0  0  0  0  0  0  0  0  0
   10.0671    6.3872   24.8625 O   0  0  0  0  0  0  0  0  0  0  0  0
   12.4580    6.4570   24.0711 O   0  0  0  0  0  0  0  0  0  0  0  0
    4.5843   -7.2172   27.7309 S   0  0  0  0  0  0  0  0  0  0  0  0
   11.0898    5.9861   23.9066 S   0  0  0  0  0  0  0  0  0  0  0  0
  1  3  2  0
  1  9  1  0
  2  4  1  0
  2  9  2  0
  3 10  1  0
  4 10  2  0
  5  6  2  0
  5  8  1  0
  6 27  1  0
  7  8  2  0
  7 27  1  0
  8 19  1  0
  9 22  1  0
 10 28  1  0
 11 15  1  0
 11 20  1  0
 12 16  1  0
 12 20  1  0
 13 17  1  0
 13 19  1  0
 14 18  1  0
 14 19  1  0
 15 22  1  0
 16 22  1  0
 17 24  1  0
 18 24  1  0
 20 21  1  0
 21 24  1  0
 23 28  1  0
 25 28  2  0
 26 28  2  0
M  CHG  1  24   1
M  END
