WAR-XCH-bdd24732-36
     RDKit          3D

 27 29  0  0  0  0  0  0  0  0999 V2000
   14.1299   -1.5477   23.6594 C   0  0  0  0  0  0  0  0  0  0  0  0
   13.4441   -2.2401   22.6615 C   0  0  0  0  0  0  0  0  0  0  0  0
   13.4463   -0.6541   24.4840 C   0  0  0  0  0  0  0  0  0  0  0  0
   12.0747   -2.0389   22.4881 C   0  0  0  0  0  0  0  0  0  0  0  0
   12.0769   -0.4529   24.3107 C   0  0  0  0  0  0  0  0  0  0  0  0
   11.3911   -1.1453   23.3127 C   0  0  0  0  0  0  0  0  0  0  0  0
   10.3650    1.2833   21.3772 C   0  0  0  0  0  0  0  0  0  0  0  0
    4.9956    0.9263   19.4768 C   0  0  0  0  0  0  0  0  0  0  0  0
   12.5423    5.4118   24.1081 C   0  0  0  0  0  0  0  0  0  0  0  0
    5.9375    0.5758   18.3291 C   0  0  0  0  0  0  0  0  0  0  0  0
    5.7473    1.5478   20.6497 C   0  0  0  0  0  0  0  0  0  0  0  0
   11.0612    5.5777   23.7798 C   0  0  0  0  0  0  0  0  0  0  0  0
   13.2484    4.5206   23.0902 C   0  0  0  0  0  0  0  0  0  0  0  0
    7.0851   -0.3173   18.7950 C   0  0  0  0  0  0  0  0  0  0  0  0
    6.8948    0.6564   21.1194 C   0  0  0  0  0  0  0  0  0  0  0  0
   10.3613    4.2275   23.6353 C   0  0  0  0  0  0  0  0  0  0  0  0
   12.5513    3.1689   22.9456 C   0  0  0  0  0  0  0  0  0  0  0  0
    7.8495    0.3088   19.9693 C   0  0  0  0  0  0  0  0  0  0  0  0
   11.0671    3.3402   22.6040 C   0  0  0  0  0  0  0  0  0  0  0  0
    8.9572   -0.6260   20.4515 C   0  0  0  0  0  0  0  0  0  0  0  0
   10.4166    2.0325   22.5457 N   0  0  0  0  0  0  0  0  0  0  0  0
    9.6570   -0.0244   21.5361 N   0  0  0  0  0  0  0  0  0  0  0  0
   10.8641    1.6779   20.3241 O   0  0  0  0  0  0  0  0  0  0  0  0
    9.0613   -2.2152   23.0009 O   0  0  0  0  0  0  0  0  0  0  0  0
    9.1977    0.0350   24.1057 O   0  0  0  0  0  0  0  0  0  0  0  0
   11.4309    0.4086   25.1088 F   0  0  0  0  0  0  0  0  0  0  0  0
    9.6535   -0.8941   23.0884 S   0  0  0  0  0  0  0  0  0  0  0  0
  1  2  2  0
  1  3  1  0
  2  4  1  0
  3  5  2  0
  4  6  2  0
  5  6  1  0
  5 26  1  0
  6 27  1  0
  7 21  1  0
  7 22  1  0
  7 23  2  0
  8 10  1  0
  8 11  1  0
  9 12  1  0
  9 13  1  0
 10 14  1  0
 11 15  1  0
 12 16  1  0
 13 17  1  0
 14 18  1  0
 15 18  1  0
 16 19  1  0
 17 19  1  0
 18 20  1  0
 19 21  1  0
 20 22  1  0
 22 27  1  0
 24 27  2  0
 25 27  2  0
M  END
