WAR-XCH-bdd24732-37
     RDKit          3D

 26 28  0  0  0  0  0  0  0  0999 V2000
    5.5908    0.8247   19.5300 C   0  0  0  0  0  0  0  0  0  0  0  0
    5.7935    1.4991   20.7340 C   0  0  0  0  0  0  0  0  0  0  0  0
    6.6637    0.2071   18.8872 C   0  0  0  0  0  0  0  0  0  0  0  0
   14.3543   -1.6404   22.7879 C   0  0  0  0  0  0  0  0  0  0  0  0
   13.9463   -0.6458   21.8992 C   0  0  0  0  0  0  0  0  0  0  0  0
    7.0692    1.5560   21.2953 C   0  0  0  0  0  0  0  0  0  0  0  0
    7.9394    0.2640   19.4485 C   0  0  0  0  0  0  0  0  0  0  0  0
   13.6674   -1.8286   23.9873 C   0  0  0  0  0  0  0  0  0  0  0  0
   12.8514    0.1607   22.2099 C   0  0  0  0  0  0  0  0  0  0  0  0
    8.1421    0.9385   20.6525 C   0  0  0  0  0  0  0  0  0  0  0  0
   12.5726   -1.0221   24.2980 C   0  0  0  0  0  0  0  0  0  0  0  0
   12.1646   -0.0274   23.4093 C   0  0  0  0  0  0  0  0  0  0  0  0
    9.4885    0.9986   21.2450 C   0  0  0  0  0  0  0  0  0  0  0  0
    8.8971   -4.4038   23.6714 C   0  0  0  0  0  0  0  0  0  0  0  0
   10.1104   -3.4815   23.7361 C   0  0  0  0  0  0  0  0  0  0  0  0
    7.6197   -3.6399   23.3368 C   0  0  0  0  0  0  0  0  0  0  0  0
   10.2638   -2.6604   22.4570 C   0  0  0  0  0  0  0  0  0  0  0  0
    7.7722   -2.8191   22.0574 C   0  0  0  0  0  0  0  0  0  0  0  0
    8.9917   -1.8858   22.0825 C   0  0  0  0  0  0  0  0  0  0  0  0
    8.7669   -0.6870   23.0083 C   0  0  0  0  0  0  0  0  0  0  0  0
    9.5983    0.3962   22.6044 N   0  0  0  0  0  0  0  0  0  0  0  0
   10.3884    1.5246   20.6000 O   0  0  0  0  0  0  0  0  0  0  0  0
   11.2005    2.3607   23.5375 O   0  0  0  0  0  0  0  0  0  0  0  0
   10.2921    0.6250   25.1140 O   0  0  0  0  0  0  0  0  0  0  0  0
   11.9207   -1.2120   25.4537 F   0  0  0  0  0  0  0  0  0  0  0  0
   10.7761    0.9986   23.7982 S   0  0  0  0  0  0  0  0  0  0  0  0
  1  2  2  0
  1  3  1  0
  2  6  1  0
  3  7  2  0
  4  5  2  0
  4  8  1  0
  5  9  1  0
  6 10  2  0
  7 10  1  0
  8 11  2  0
  9 12  2  0
 10 13  1  0
 11 12  1  0
 11 25  1  0
 12 26  1  0
 13 21  1  0
 13 22  2  0
 14 15  1  0
 14 16  1  0
 15 17  1  0
 16 18  1  0
 17 19  1  0
 18 19  1  0
 19 20  1  0
 20 21  1  0
 21 26  1  0
 23 26  2  0
 24 26  2  0
M  END
