WAR-XCH-bdd24732-27
     RDKit          3D

 29 32  0  0  0  0  0  0  0  0999 V2000
    7.0705   -3.1372   21.2031 C   0  0  0  0  0  0  0  0  0  0  0  0
    6.8083   -2.0417   20.3269 C   0  0  0  0  0  0  0  0  0  0  0  0
    7.8045   -1.0867   20.4033 C   0  0  0  0  0  0  0  0  0  0  0  0
    8.2428   -2.9695   21.9085 C   0  0  0  0  0  0  0  0  0  0  0  0
   10.2860   -3.8306   23.0465 C   0  0  0  0  0  0  0  0  0  0  0  0
   13.0284   -0.8856   26.1876 C   0  0  0  0  0  0  0  0  0  0  0  0
    5.6390   -1.9008   19.4022 C   0  0  0  0  0  0  0  0  0  0  0  0
    7.8236    0.1987   19.6370 C   0  0  0  0  0  0  0  0  0  0  0  0
    5.4772   -0.4563   18.9035 C   0  0  0  0  0  0  0  0  0  0  0  0
    6.8216    0.1481   18.4727 C   0  0  0  0  0  0  0  0  0  0  0  0
    6.7237   -3.7896   24.0317 C   0  0  0  0  0  0  0  0  0  0  0  0
    7.7240   -5.9512   23.1830 C   0  0  0  0  0  0  0  0  0  0  0  0
    5.7625   -4.5822   24.9183 C   0  0  0  0  0  0  0  0  0  0  0  0
    6.7615   -6.7443   24.0682 C   0  0  0  0  0  0  0  0  0  0  0  0
   12.3331   -3.9947   24.4758 C   0  0  0  0  0  0  0  0  0  0  0  0
   10.2140   -2.8976   25.3521 C   0  0  0  0  0  0  0  0  0  0  0  0
   12.9429   -2.6017   24.3132 C   0  0  0  0  0  0  0  0  0  0  0  0
   10.8822   -1.5394   25.1453 C   0  0  0  0  0  0  0  0  0  0  0  0
   10.8013   -3.9858   24.4478 C   0  0  0  0  0  0  0  0  0  0  0  0
    8.0151   -4.5663   23.7664 C   0  0  0  0  0  0  0  0  0  0  0  0
    5.4730   -5.9736   24.3539 C   0  0  0  0  0  0  0  0  0  0  0  0
   14.5264   -1.0540   26.2241 C   0  0  0  0  0  0  0  0  0  0  0  0
   12.3360   -1.6548   25.2535 N   0  0  0  0  0  0  0  0  0  0  0  0
    8.8855   -3.8166   22.8931 N   0  0  0  0  0  0  0  0  0  0  0  0
   11.1120   -3.6952   22.1403 O   0  0  0  0  0  0  0  0  0  0  0  0
   12.4916   -0.0952   26.9681 O   0  0  0  0  0  0  0  0  0  0  0  0
    4.7305   -5.8583   23.1419 O   0  0  0  0  0  0  0  0  0  0  0  0
    9.0261   -1.4983   21.5152 S   0  0  0  0  0  0  0  0  0  0  0  0
   14.8342   -2.7372   26.6359 Cl  0  0  0  0  0  0  0  0  0  0  0  0
  1  2  1  0
  1  4  2  0
  2  3  2  0
  2  7  1  0
  3  8  1  0
  3 28  1  0
  4 24  1  0
  4 28  1  0
  5 19  1  0
  5 24  1  0
  5 25  2  0
  6 22  1  0
  6 23  1  0
  6 26  2  0
  7  9  1  0
  8 10  1  0
  9 10  1  0
 11 13  1  0
 11 20  1  0
 12 14  1  0
 12 20  1  0
 13 21  1  0
 14 21  1  0
 15 17  1  0
 15 19  1  0
 16 18  1  0
 16 19  1  0
 17 23  1  0
 18 23  1  0
 20 24  1  0
 21 27  1  0
 22 29  1  0
M  END
