WAR-XCH-bdd24732-19
     RDKit          3D

 26 28  0  0  1  0  0  0  0  0999 V2000
    9.5427    0.0558   26.8970 C   0  0  0  0  0  0  0  0  0  0  0  0
    9.2582    3.3151   25.1216 C   0  0  0  0  0  0  0  0  0  0  0  0
    8.9420    2.2141   25.9174 C   0  0  0  0  0  0  0  0  0  0  0  0
   10.5000    3.3857   24.4902 C   0  0  0  0  0  0  0  0  0  0  0  0
   13.3417   -0.6291   22.6819 C   0  0  0  0  0  0  0  0  0  0  0  0
   11.1095    1.2543   25.4507 C   0  0  0  0  0  0  0  0  0  0  0  0
   11.0411    0.0078   22.3888 C   0  0  0  0  0  0  0  0  0  0  0  0
   12.9231   -1.9497   22.6566 C   0  0  0  0  0  0  0  0  0  0  0  0
    9.8677    1.1837   26.0820 C   0  0  0  0  0  0  0  0  0  0  0  0
   11.4257    2.3554   24.6548 C   0  0  0  0  0  0  0  0  0  0  0  0
   12.3765    0.3623   22.5449 C   0  0  0  0  0  0  0  0  0  0  0  0
   10.7255   -1.3413   22.3764 C   0  0  0  0  0  0  0  0  0  0  0  0
    6.4909   -1.6331   19.8894 C   0  0  0  0  0  0  0  0  0  0  0  0
    7.5067   -3.4815   22.7684 C   0  0  0  0  0  0  0  0  0  0  0  0
    8.9659   -3.0686   22.9689 C   0  0  0  0  0  0  0  0  0  0  0  0
    7.1547   -3.5651   21.2858 C   0  0  0  0  0  0  0  0  0  0  0  0
    8.8810   -1.8898   20.7259 C   0  0  0  0  0  0  0  0  0  0  0  0
    9.2758   -1.7661   22.2079 C   0  0  0  0  0  0  0  0  0  0  0  0
   12.7694    2.4321   23.9717 C   0  0  0  0  0  0  0  0  0  0  0  0
   12.7727    1.7995   22.5657 C   0  0  0  0  0  0  0  0  0  0  0  0
    6.9050   -0.3488   19.2165 C   0  0  0  0  0  0  0  0  0  0  0  0
    9.2788   -0.8601   27.5589 N   0  0  0  0  0  0  0  0  0  0  0  0
   11.6353   -2.3327   22.5069 N   0  0  0  0  0  0  0  0  0  0  0  0
    7.4787   -2.3118   20.6019 N   0  0  0  0  0  0  0  0  0  0  0  0
    5.3235   -2.0185   19.7858 O   0  0  0  0  0  0  0  0  0  0  0  0
    5.4841    0.2602   18.3749 Cl  0  0  0  0  0  0  0  0  0  0  0  0
  1  9  1  0
  1 22  3  0
  2  3  2  0
  2  4  1  0
  3  9  1  0
  4 10  2  0
  5  8  2  0
  5 11  1  0
  6  9  2  0
  6 10  1  0
  7 11  2  0
  7 12  1  0
  8 23  1  0
 10 19  1  0
 11 20  1  0
 12 18  1  0
 12 23  2  0
 13 21  1  0
 13 24  1  0
 13 25  2  0
 14 15  1  0
 14 16  1  0
 15 18  1  0
 16 24  1  0
 17 18  1  0
 17 24  1  0
 19 20  1  0
 21 26  1  0
M  END
