WAR-XCH-e55cba98-5
     RDKit          3D

 30 33  0  0  1  0  0  0  0  0999 V2000
    7.9126   -0.8502   22.1242 C   0  0  0  0  0  0  0  0  0  0  0  0
    8.8884   -1.1156   22.7718 C   0  0  0  0  0  0  0  0  0  0  0  0
   13.1357    1.6024   22.7881 C   0  0  0  0  0  0  0  0  0  0  0  0
   12.3922   -0.7092   22.7602 C   0  0  0  0  0  0  0  0  0  0  0  0
   10.0628    2.9795   24.2098 C   0  0  0  0  0  0  0  0  0  0  0  0
   11.8961    1.9856   23.3375 C   0  0  0  0  0  0  0  0  0  0  0  0
   11.1552   -0.3528   23.3049 C   0  0  0  0  0  0  0  0  0  0  0  0
   11.3311    3.2287   23.7382 C   0  0  0  0  0  0  0  0  0  0  0  0
   10.9364    1.0012   23.5828 C   0  0  0  0  0  0  0  0  0  0  0  0
   13.3686    0.2516   22.5050 C   0  0  0  0  0  0  0  0  0  0  0  0
    8.7023    6.2584   23.1063 C   0  0  0  0  0  0  0  0  0  0  0  0
    9.3030   -3.9469   25.0739 C   0  0  0  0  0  0  0  0  0  0  0  0
    9.6002   -3.9862   23.5821 C   0  0  0  0  0  0  0  0  0  0  0  0
    8.7826   -2.5811   25.4967 C   0  0  0  0  0  0  0  0  0  0  0  0
    5.3454    0.6562   23.1324 C   0  0  0  0  0  0  0  0  0  0  0  0
    5.4506   -0.5521   22.2001 C   0  0  0  0  0  0  0  0  0  0  0  0
   10.5693   -2.8728   23.1750 C   0  0  0  0  0  0  0  0  0  0  0  0
    9.7333   -1.4522   25.0875 C   0  0  0  0  0  0  0  0  0  0  0  0
    5.4985    1.9661   22.3776 C   0  0  0  0  0  0  0  0  0  0  0  0
    6.8718    0.8212   20.6189 C   0  0  0  0  0  0  0  0  0  0  0  0
    6.7134   -0.5238   21.3282 C   0  0  0  0  0  0  0  0  0  0  0  0
   10.0977   -1.4438   23.5741 C   0  0  0  0  0  0  0  0  0  0  0  0
    7.7776    6.1703   21.9378 C   0  0  0  0  0  0  0  0  0  0  0  0
   11.9802    4.5533   23.6657 C   0  0  0  0  0  0  0  0  0  0  0  0
   11.0145    5.7368   23.8577 C   0  0  0  0  0  0  0  0  0  0  0  0
    9.8339    1.6332   24.1123 N   0  0  0  0  0  0  0  0  0  0  0  0
    9.9692    5.7494   22.8697 N   0  0  0  0  0  0  0  0  0  0  0  0
    6.7745    1.9429   21.6042 N   0  0  0  0  0  0  0  0  0  0  0  0
    8.3055    6.7532   24.1548 O   0  0  0  0  0  0  0  0  0  0  0  0
   14.5452   -0.1208   21.9825 F   0  0  0  0  0  0  0  0  0  0  0  0
  1  2  3  0
  1 21  1  0
  2 22  1  0
  3  6  2  0
  3 10  1  0
  4  7  1  0
  4 10  2  0
  5  8  2  0
  5 26  1  0
  6  8  1  0
  6  9  1  0
  7  9  2  0
  7 22  1  0
  8 24  1  0
  9 26  1  0
 10 30  1  0
 11 23  1  0
 11 27  1  0
 11 29  2  0
 12 13  1  0
 12 14  1  0
 13 17  1  0
 14 18  1  0
 15 16  1  0
 15 19  1  0
 16 21  1  0
 17 22  1  0
 18 22  1  0
 19 28  1  0
 20 21  1  0
 20 28  1  0
 24 25  1  0
 25 27  1  0
M  CHG  1  28   1
M  END
