WAR-XCH-b6889685-15
     RDKit          3D

 25 27  0  0  0  0  0  0  0  0999 V2000
    6.9571   -5.5358   24.0991 C   0  0  0  0  0  0  0  0  0  0  0  0
    6.0177   -3.3672   23.5976 C   0  0  0  0  0  0  0  0  0  0  0  0
   12.6856    2.1069   22.5539 C   0  0  0  0  0  0  0  0  0  0  0  0
   11.4713    1.4947   24.5508 C   0  0  0  0  0  0  0  0  0  0  0  0
    8.1915   -4.9410   24.3594 C   0  0  0  0  0  0  0  0  0  0  0  0
    7.2522   -2.7722   23.8580 C   0  0  0  0  0  0  0  0  0  0  0  0
   12.1757    3.4023   22.6409 C   0  0  0  0  0  0  0  0  0  0  0  0
   10.9613    2.7901   24.6378 C   0  0  0  0  0  0  0  0  0  0  0  0
    5.8701   -4.7490   23.7181 C   0  0  0  0  0  0  0  0  0  0  0  0
   12.3334    1.1531   23.5089 C   0  0  0  0  0  0  0  0  0  0  0  0
    8.3391   -3.5592   24.2389 C   0  0  0  0  0  0  0  0  0  0  0  0
   11.3135    3.7439   23.6828 C   0  0  0  0  0  0  0  0  0  0  0  0
   11.4970   -2.0063   22.5929 C   0  0  0  0  0  0  0  0  0  0  0  0
   12.1945   -1.8654   25.0228 C   0  0  0  0  0  0  0  0  0  0  0  0
   12.5976   -0.9978   22.2612 C   0  0  0  0  0  0  0  0  0  0  0  0
   13.2763   -0.8549   24.6267 C   0  0  0  0  0  0  0  0  0  0  0  0
   11.8502   -2.8092   23.8573 C   0  0  0  0  0  0  0  0  0  0  0  0
    4.5501   -5.3847   23.4404 C   0  0  0  0  0  0  0  0  0  0  0  0
   10.7097   -3.7497   24.2390 C   0  0  0  0  0  0  0  0  0  0  0  0
   12.8417   -0.1388   23.4226 N   0  0  0  0  0  0  0  0  0  0  0  0
    9.2409    5.2121   22.8745 N   0  0  0  0  0  0  0  0  0  0  0  0
   10.3180    5.6257   25.1798 O   0  0  0  0  0  0  0  0  0  0  0  0
   11.5805    6.2676   23.0962 O   0  0  0  0  0  0  0  0  0  0  0  0
    9.5542   -2.9736   24.4965 O   0  0  0  0  0  0  0  0  0  0  0  0
   10.6742    5.3648   23.7921 S   0  0  0  0  0  0  0  0  0  0  0  0
  1  5  2  0
  1  9  1  0
  2  6  1  0
  2  9  2  0
  3  7  2  0
  3 10  1  0
  4  8  1  0
  4 10  2  0
  5 11  1  0
  6 11  2  0
  7 12  1  0
  8 12  2  0
  9 18  1  0
 10 20  1  0
 11 24  1  0
 12 25  1  0
 13 15  1  0
 13 17  1  0
 14 16  1  0
 14 17  1  0
 15 20  1  0
 16 20  1  0
 17 19  1  0
 19 24  1  0
 21 25  1  0
 22 25  2  0
 23 25  2  0
M  END
