WAR-XCH-bdd24732-11
     RDKit          3D

 26 29  0  0  0  0  0  0  0  0999 V2000
    8.5365   -0.6084   25.1517 C   0  0  0  0  0  0  0  0  0  0  0  0
    5.0873    0.6875   19.2364 C   0  0  0  0  0  0  0  0  0  0  0  0
    8.3708    4.1957   23.7777 C   0  0  0  0  0  0  0  0  0  0  0  0
   10.7345    3.7859   24.0640 C   0  0  0  0  0  0  0  0  0  0  0  0
    9.9573    5.9852   23.4345 C   0  0  0  0  0  0  0  0  0  0  0  0
    9.6570    0.9115   23.6622 C   0  0  0  0  0  0  0  0  0  0  0  0
    8.0683    0.4981   25.8419 C   0  0  0  0  0  0  0  0  0  0  0  0
    5.8614    0.4385   18.1074 C   0  0  0  0  0  0  0  0  0  0  0  0
    9.4177    3.3260   24.0829 C   0  0  0  0  0  0  0  0  0  0  0  0
    9.3454   -0.3892   24.0423 C   0  0  0  0  0  0  0  0  0  0  0  0
    5.6338    0.4469   20.4973 C   0  0  0  0  0  0  0  0  0  0  0  0
    8.6406    5.5253   23.4534 C   0  0  0  0  0  0  0  0  0  0  0  0
    6.9472   -0.0375   20.5447 C   0  0  0  0  0  0  0  0  0  0  0  0
   11.0043    5.1155   23.7398 C   0  0  0  0  0  0  0  0  0  0  0  0
    9.1386    1.9500   24.4189 C   0  0  0  0  0  0  0  0  0  0  0  0
    7.6052   -0.2417   19.3398 C   0  0  0  0  0  0  0  0  0  0  0  0
    8.8873   -0.7670   21.0508 C   0  0  0  0  0  0  0  0  0  0  0  0
    4.8176    0.7082   21.7183 C   0  0  0  0  0  0  0  0  0  0  0  0
    7.5218    6.4556   23.1275 C   0  0  0  0  0  0  0  0  0  0  0  0
    9.8828   -1.5591   23.2544 C   0  0  0  0  0  0  0  0  0  0  0  0
   10.0962   -1.2316   21.7562 C   0  0  0  0  0  0  0  0  0  0  0  0
    8.3495    1.7762   25.5028 N   0  0  0  0  0  0  0  0  0  0  0  0
    7.1335   -0.0291   18.1002 N   0  0  0  0  0  0  0  0  0  0  0  0
    7.7597   -0.3696   21.6015 N   0  0  0  0  0  0  0  0  0  0  0  0
    8.8427   -0.7075   19.6837 N   0  0  0  0  0  0  0  0  0  0  0  0
   12.2685    5.5575   23.7213 F   0  0  0  0  0  0  0  0  0  0  0  0
  1  7  2  0
  1 10  1  0
  2  8  2  0
  2 11  1  0
  3  9  2  0
  3 12  1  0
  4  9  1  0
  4 14  2  0
  5 12  2  0
  5 14  1  0
  6 10  2  0
  6 15  1  0
  7 22  1  0
  8 23  1  0
  9 15  1  0
 10 20  1  0
 11 13  2  0
 11 18  1  0
 12 19  1  0
 13 16  1  0
 13 24  1  0
 14 26  1  0
 15 22  2  0
 16 23  2  0
 16 25  1  0
 17 21  1  0
 17 24  2  0
 17 25  1  0
 20 21  1  0
M  END
