WAR-XCH-72a8c209-6
     RDKit          3D

 27 29  0  0  1  0  0  0  0  0999 V2000
   10.8207    1.0919   25.0842 C   0  0  0  0  0  0  0  0  0  0  0  0
   12.9444    0.4290   22.1076 C   0  0  0  0  0  0  0  0  0  0  0  0
   12.5743   -0.8774   21.7884 C   0  0  0  0  0  0  0  0  0  0  0  0
   12.3601    1.0727   23.1985 C   0  0  0  0  0  0  0  0  0  0  0  0
   11.6199   -1.5402   22.5601 C   0  0  0  0  0  0  0  0  0  0  0  0
   11.4056    0.4099   23.9701 C   0  0  0  0  0  0  0  0  0  0  0  0
   11.0355   -0.8965   23.6509 C   0  0  0  0  0  0  0  0  0  0  0  0
    6.5490   -2.1616   18.9461 C   0  0  0  0  0  0  0  0  0  0  0  0
    9.8202   -4.6816   24.8788 C   0  0  0  0  0  0  0  0  0  0  0  0
    8.0285   -3.1064   25.7285 C   0  0  0  0  0  0  0  0  0  0  0  0
    9.3297   -5.7612   25.8460 C   0  0  0  0  0  0  0  0  0  0  0  0
    7.5358   -4.1867   26.6933 C   0  0  0  0  0  0  0  0  0  0  0  0
    7.1983   -3.0712   22.3467 C   0  0  0  0  0  0  0  0  0  0  0  0
    8.8618   -1.3194   21.6135 C   0  0  0  0  0  0  0  0  0  0  0  0
    6.1832   -2.4749   21.3735 C   0  0  0  0  0  0  0  0  0  0  0  0
    7.8124   -0.7605   20.6530 C   0  0  0  0  0  0  0  0  0  0  0  0
    8.6875   -3.7303   24.5007 C   0  0  0  0  0  0  0  0  0  0  0  0
    8.1923   -2.0043   22.8049 C   0  0  0  0  0  0  0  0  0  0  0  0
    8.6474   -5.1653   27.0783 C   0  0  0  0  0  0  0  0  0  0  0  0
   10.0127   -1.6407   24.4578 C   0  0  0  0  0  0  0  0  0  0  0  0
    7.2891   -1.4297   17.8551 C   0  0  0  0  0  0  0  0  0  0  0  0
   10.3465    1.6448   25.9876 N   0  0  0  0  0  0  0  0  0  0  0  0
    6.8590   -1.8064   20.2584 N   0  0  0  0  0  0  0  0  0  0  0  0
    9.2369   -2.6444   23.6459 N   0  0  0  0  0  0  0  0  0  0  0  0
    5.7220   -3.0242   18.6392 O   0  0  0  0  0  0  0  0  0  0  0  0
    9.6300   -4.4939   27.8643 O   0  0  0  0  0  0  0  0  0  0  0  0
    6.8776    0.2735   18.0222 Cl  0  0  0  0  0  0  0  0  0  0  0  0
  1  6  1  0
  1 22  3  0
  2  3  2  0
  2  4  1  0
  3  5  1  0
  4  6  2  0
  5  7  2  0
  6  7  1  0
  7 20  1  0
  8 21  1  0
  8 23  1  0
  8 25  2  0
  9 11  1  0
  9 17  1  0
 10 12  1  0
 10 17  1  0
 11 19  1  0
 12 19  1  0
 13 15  1  0
 13 18  1  0
 14 16  1  0
 14 18  1  0
 15 23  1  0
 16 23  1  0
 17 24  1  0
 18 24  1  0
 19 26  1  0
 20 24  1  0
 21 27  1  0
M  CHG  1  24   1
M  END
