WAR-XCH-bdd24732-26
     RDKit          3D

 27 30  0  0  0  0  0  0  0  0999 V2000
    7.4242   -3.9696   25.7426 C   0  0  0  0  0  0  0  0  0  0  0  0
   10.5564   -0.5887   24.7758 C   0  0  0  0  0  0  0  0  0  0  0  0
    7.9596   -5.0501   26.4251 C   0  0  0  0  0  0  0  0  0  0  0  0
   10.0353   -4.7224   25.4965 C   0  0  0  0  0  0  0  0  0  0  0  0
   11.1947    0.6512   24.4727 C   0  0  0  0  0  0  0  0  0  0  0  0
    8.2652   -3.2496   24.9014 C   0  0  0  0  0  0  0  0  0  0  0  0
    9.5971   -3.6268   24.7703 C   0  0  0  0  0  0  0  0  0  0  0  0
   12.0247    0.5344   23.3738 C   0  0  0  0  0  0  0  0  0  0  0  0
   10.9283   -1.5911   23.9057 C   0  0  0  0  0  0  0  0  0  0  0  0
    6.2063   -1.8313   18.8239 C   0  0  0  0  0  0  0  0  0  0  0  0
   11.0091    1.9488   25.1965 C   0  0  0  0  0  0  0  0  0  0  0  0
   12.8625    1.6381   22.8081 C   0  0  0  0  0  0  0  0  0  0  0  0
   12.1156    2.9577   24.8510 C   0  0  0  0  0  0  0  0  0  0  0  0
   12.3916    3.0007   23.3409 C   0  0  0  0  0  0  0  0  0  0  0  0
    8.0073   -1.1007   20.4641 C   0  0  0  0  0  0  0  0  0  0  0  0
    6.9950   -3.3425   20.6171 C   0  0  0  0  0  0  0  0  0  0  0  0
    7.7960   -0.8852   21.9565 C   0  0  0  0  0  0  0  0  0  0  0  0
    6.7671   -3.1600   22.1105 C   0  0  0  0  0  0  0  0  0  0  0  0
    7.7125   -2.0741   24.1507 C   0  0  0  0  0  0  0  0  0  0  0  0
    6.3461   -0.4978   18.1341 C   0  0  0  0  0  0  0  0  0  0  0  0
    9.2481   -5.4464   26.3234 N   0  0  0  0  0  0  0  0  0  0  0  0
    7.0276   -2.0521   19.9286 N   0  0  0  0  0  0  0  0  0  0  0  0
   10.4843   -2.9306   23.9305 N   0  0  0  0  0  0  0  0  0  0  0  0
    7.8208   -2.2241   22.6592 N   0  0  0  0  0  0  0  0  0  0  0  0
    5.3896   -2.6498   18.3938 O   0  0  0  0  0  0  0  0  0  0  0  0
   12.0410   -1.0400   22.7264 S   0  0  0  0  0  0  0  0  0  0  0  0
    5.2292   -0.5146   16.7740 Cl  0  0  0  0  0  0  0  0  0  0  0  0
  1  3  2  0
  1  6  1  0
  2  5  1  0
  2  9  2  0
  3 21  1  0
  4  7  1  0
  4 21  2  0
  5  8  2  0
  5 11  1  0
  6  7  2  0
  6 19  1  0
  7 23  1  0
  8 12  1  0
  8 26  1  0
  9 23  1  0
  9 26  1  0
 10 20  1  0
 10 22  1  0
 10 25  2  0
 11 13  1  0
 12 14  1  0
 13 14  1  0
 15 17  1  0
 15 22  1  0
 16 18  1  0
 16 22  1  0
 17 24  1  0
 18 24  1  0
 19 24  1  0
 20 27  1  0
M  CHG  1  24   1
M  END
