WAR-XCH-b72a1bbc-28
     RDKit          3D

 29 32  0  0  1  0  0  0  0  0999 V2000
    8.2779    8.3172   24.0988 C   0  0  0  0  0  0  0  0  0  0  0  0
    9.1161    8.1584   25.2024 C   0  0  0  0  0  0  0  0  0  0  0  0
    8.3647    7.4324   23.0240 C   0  0  0  0  0  0  0  0  0  0  0  0
   10.0411    7.1148   25.2311 C   0  0  0  0  0  0  0  0  0  0  0  0
    9.2897    6.3888   23.0527 C   0  0  0  0  0  0  0  0  0  0  0  0
    8.9713   -3.5439   25.2650 C   0  0  0  0  0  0  0  0  0  0  0  0
    7.9629   -3.0821   23.1187 C   0  0  0  0  0  0  0  0  0  0  0  0
    8.0191   -4.5360   25.4990 C   0  0  0  0  0  0  0  0  0  0  0  0
    7.0107   -4.0742   23.3526 C   0  0  0  0  0  0  0  0  0  0  0  0
   10.1280    6.2300   24.1563 C   0  0  0  0  0  0  0  0  0  0  0  0
    8.9432   -2.8169   24.0749 C   0  0  0  0  0  0  0  0  0  0  0  0
    7.0389   -4.8011   24.5427 C   0  0  0  0  0  0  0  0  0  0  0  0
   13.4503    4.4192   23.5035 C   0  0  0  0  0  0  0  0  0  0  0  0
   12.4517    5.5713   23.5733 C   0  0  0  0  0  0  0  0  0  0  0  0
   11.3402   -0.0527   24.7749 C   0  0  0  0  0  0  0  0  0  0  0  0
   11.7054   -0.8908   22.4457 C   0  0  0  0  0  0  0  0  0  0  0  0
    9.9556   -0.7000   24.7879 C   0  0  0  0  0  0  0  0  0  0  0  0
   10.3208   -1.5393   22.4634 C   0  0  0  0  0  0  0  0  0  0  0  0
   12.8761    3.2196   22.7646 C   0  0  0  0  0  0  0  0  0  0  0  0
   10.5553    3.8993   23.4345 C   0  0  0  0  0  0  0  0  0  0  0  0
   11.1195    5.1112   24.1863 C   0  0  0  0  0  0  0  0  0  0  0  0
   11.8083    0.3301   23.3661 C   0  0  0  0  0  0  0  0  0  0  0  0
   11.0410    1.5323   22.8121 C   0  0  0  0  0  0  0  0  0  0  0  0
    9.8990   -1.8207   23.8395 N   0  0  0  0  0  0  0  0  0  0  0  0
    4.6179   -5.1386   25.6058 N   0  0  0  0  0  0  0  0  0  0  0  0
   11.5866    2.7930   23.4242 N   0  0  0  0  0  0  0  0  0  0  0  0
    5.3476   -6.5121   23.5499 O   0  0  0  0  0  0  0  0  0  0  0  0
    6.3945   -6.9951   25.7901 O   0  0  0  0  0  0  0  0  0  0  0  0
    5.8462   -6.0423   24.8349 S   0  0  0  0  0  0  0  0  0  0  0  0
  1  2  2  0
  1  3  1  0
  2  4  1  0
  3  5  2  0
  4 10  2  0
  5 10  1  0
  6  8  2  0
  6 11  1  0
  7  9  1  0
  7 11  2  0
  8 12  1  0
  9 12  2  0
 10 21  1  0
 11 24  1  0
 12 29  1  0
 13 14  1  0
 13 19  1  0
 14 21  1  0
 15 17  1  0
 15 22  1  0
 16 18  1  0
 16 22  1  0
 17 24  1  0
 18 24  1  0
 19 26  1  0
 20 21  1  0
 20 26  1  0
 22 23  1  0
 23 26  1  0
 25 29  1  0
 27 29  2  0
 28 29  2  0
M  CHG  1  26   1
M  END
