WAR-XCH-bdd24732-29
     RDKit          3D

 26 29  0  0  0  0  0  0  0  0999 V2000
    8.9381   -1.2249   24.5573 C   0  0  0  0  0  0  0  0  0  0  0  0
    8.3268   -2.4449   24.9751 C   0  0  0  0  0  0  0  0  0  0  0  0
    8.5802   -3.4669   24.0800 C   0  0  0  0  0  0  0  0  0  0  0  0
    9.6308   -1.3690   23.3744 C   0  0  0  0  0  0  0  0  0  0  0  0
    9.7255    0.3523   21.5828 C   0  0  0  0  0  0  0  0  0  0  0  0
    7.4865   -2.6472   26.1979 C   0  0  0  0  0  0  0  0  0  0  0  0
    8.1084   -4.8793   24.2314 C   0  0  0  0  0  0  0  0  0  0  0  0
    7.3177   -4.1375   26.5331 C   0  0  0  0  0  0  0  0  0  0  0  0
    6.9897   -4.9652   25.2819 C   0  0  0  0  0  0  0  0  0  0  0  0
    5.1078    0.7529   18.7796 C   0  0  0  0  0  0  0  0  0  0  0  0
    6.5149    0.6268   18.2023 C   0  0  0  0  0  0  0  0  0  0  0  0
    5.1099    1.4995   20.1105 C   0  0  0  0  0  0  0  0  0  0  0  0
    7.4790   -0.0105   19.2015 C   0  0  0  0  0  0  0  0  0  0  0  0
    6.0719    0.8626   21.1120 C   0  0  0  0  0  0  0  0  0  0  0  0
   12.0963   -0.4825   24.3460 C   0  0  0  0  0  0  0  0  0  0  0  0
   12.6297   -1.1636   21.9701 C   0  0  0  0  0  0  0  0  0  0  0  0
   13.5903   -0.3541   24.6449 C   0  0  0  0  0  0  0  0  0  0  0  0
   14.1242   -1.0371   22.2692 C   0  0  0  0  0  0  0  0  0  0  0  0
    7.4862    0.7491   20.5327 C   0  0  0  0  0  0  0  0  0  0  0  0
   11.7958   -0.2432   22.8648 C   0  0  0  0  0  0  0  0  0  0  0  0
   14.4369   -1.2588   23.7488 C   0  0  0  0  0  0  0  0  0  0  0  0
    8.3610    0.0705   21.4870 N   0  0  0  0  0  0  0  0  0  0  0  0
   10.3873   -0.4130   22.6009 N   0  0  0  0  0  0  0  0  0  0  0  0
   10.2615    1.1958   20.8589 O   0  0  0  0  0  0  0  0  0  0  0  0
   14.1875   -2.6258   24.0692 O   0  0  0  0  0  0  0  0  0  0  0  0
    9.5440   -2.9683   22.7683 S   0  0  0  0  0  0  0  0  0  0  0  0
  1  2  1  0
  1  4  2  0
  2  3  2  0
  2  6  1  0
  3  7  1  0
  3 26  1  0
  4 23  1  0
  4 26  1  0
  5 22  1  0
  5 23  1  0
  5 24  2  0
  6  8  1  0
  7  9  1  0
  8  9  1  0
 10 11  1  0
 10 12  1  0
 11 13  1  0
 12 14  1  0
 13 19  1  0
 14 19  1  0
 15 17  1  0
 15 20  1  0
 16 18  1  0
 16 20  1  0
 17 21  1  0
 18 21  1  0
 19 22  1  0
 20 23  1  0
 21 25  1  0
M  END
