WAR-XCH-b6889685-21
     RDKit          3D

 24 26  0  0  0  0  0  0  0  0999 V2000
   12.8769    2.5935   22.6391 C   0  0  0  0  0  0  0  0  0  0  0  0
   11.4464    1.7843   24.4099 C   0  0  0  0  0  0  0  0  0  0  0  0
   12.2851    3.8528   22.7365 C   0  0  0  0  0  0  0  0  0  0  0  0
   10.8546    3.0437   24.5074 C   0  0  0  0  0  0  0  0  0  0  0  0
    8.5819   -4.8880   24.0195 C   0  0  0  0  0  0  0  0  0  0  0  0
    7.2368   -5.3205   24.2036 C   0  0  0  0  0  0  0  0  0  0  0  0
   12.4575    1.5592   23.4758 C   0  0  0  0  0  0  0  0  0  0  0  0
   11.2740    4.0779   23.6706 C   0  0  0  0  0  0  0  0  0  0  0  0
    8.6830   -3.5148   23.9792 C   0  0  0  0  0  0  0  0  0  0  0  0
    6.3610   -4.2611   24.2972 C   0  0  0  0  0  0  0  0  0  0  0  0
   11.9359   -1.5661   22.2591 C   0  0  0  0  0  0  0  0  0  0  0  0
   12.2956   -1.5607   24.7653 C   0  0  0  0  0  0  0  0  0  0  0  0
   13.0099   -0.4838   22.1439 C   0  0  0  0  0  0  0  0  0  0  0  0
   13.3595   -0.4727   24.5841 C   0  0  0  0  0  0  0  0  0  0  0  0
   12.1646   -2.4368   23.5072 C   0  0  0  0  0  0  0  0  0  0  0  0
   11.0404   -3.4568   23.6706 C   0  0  0  0  0  0  0  0  0  0  0  0
   13.0473    0.3032   23.3791 N   0  0  0  0  0  0  0  0  0  0  0  0
    9.2447    5.4946   22.6808 N   0  0  0  0  0  0  0  0  0  0  0  0
    9.9806    5.7993   25.1326 O   0  0  0  0  0  0  0  0  0  0  0  0
   11.4686    6.6465   23.2844 O   0  0  0  0  0  0  0  0  0  0  0  0
    9.8176   -2.7587   23.8162 O   0  0  0  0  0  0  0  0  0  0  0  0
    7.1605   -2.7528   24.1629 S   0  0  0  0  0  0  0  0  0  0  0  0
   10.5322    5.6537   23.7928 S   0  0  0  0  0  0  0  0  0  0  0  0
    4.4860   -4.4353   24.5455 Br  0  0  0  0  0  0  0  0  0  0  0  0
  1  3  2  0
  1  7  1  0
  2  4  1  0
  2  7  2  0
  3  8  1  0
  4  8  2  0
  5  6  1  0
  5  9  2  0
  6 10  2  0
  7 17  1  0
  8 23  1  0
  9 21  1  0
  9 22  1  0
 10 22  1  0
 10 24  1  0
 11 13  1  0
 11 15  1  0
 12 14  1  0
 12 15  1  0
 13 17  1  0
 14 17  1  0
 15 16  1  0
 16 21  1  0
 18 23  1  0
 19 23  2  0
 20 23  2  0
M  END
