WAR-XCH-b6889685-23
     RDKit          3D

 20 21  0  0  0  0  0  0  0  0999 V2000
   10.1202   -2.9794   23.5236 C   0  0  0  0  0  0  0  0  0  0  0  0
    9.2571   -1.2175   24.9334 C   0  0  0  0  0  0  0  0  0  0  0  0
    9.6091   -3.9337   24.4032 C   0  0  0  0  0  0  0  0  0  0  0  0
    8.7459   -2.1717   25.8130 C   0  0  0  0  0  0  0  0  0  0  0  0
    9.9443   -1.6213   23.7887 C   0  0  0  0  0  0  0  0  0  0  0  0
    8.9219   -3.5298   25.5479 C   0  0  0  0  0  0  0  0  0  0  0  0
   12.5032    0.5604   23.4189 C   0  0  0  0  0  0  0  0  0  0  0  0
   10.2557    1.7324   23.3432 C   0  0  0  0  0  0  0  0  0  0  0  0
   11.8935   -0.6044   22.6306 C   0  0  0  0  0  0  0  0  0  0  0  0
    9.7074    0.5415   22.5548 C   0  0  0  0  0  0  0  0  0  0  0  0
   11.7642    1.8671   23.1189 C   0  0  0  0  0  0  0  0  0  0  0  0
   13.1128    4.6058   22.4271 C   0  0  0  0  0  0  0  0  0  0  0  0
   12.1567    5.2815   24.6640 C   0  0  0  0  0  0  0  0  0  0  0  0
   12.0704    4.3140   23.4945 C   0  0  0  0  0  0  0  0  0  0  0  0
   10.4539   -0.6692   22.9118 N   0  0  0  0  0  0  0  0  0  0  0  0
    7.5637   -3.7223   27.8333 N   0  0  0  0  0  0  0  0  0  0  0  0
   12.2921    2.9365   24.0053 N   0  0  0  0  0  0  0  0  0  0  0  0
    7.2344   -5.4669   25.9643 O   0  0  0  0  0  0  0  0  0  0  0  0
    9.3972   -5.4377   27.2563 O   0  0  0  0  0  0  0  0  0  0  0  0
    8.2823   -4.7235   26.6498 S   0  0  0  0  0  0  0  0  0  0  0  0
  1  3  2  0
  1  5  1  0
  2  4  1  0
  2  5  2  0
  3  6  1  0
  4  6  2  0
  5 15  1  0
  6 20  1  0
  7  9  1  0
  7 11  1  0
  8 10  1  0
  8 11  1  0
  9 15  1  0
 10 15  1  0
 11 17  1  0
 12 14  1  0
 13 14  1  0
 14 17  1  0
 16 20  1  0
 18 20  2  0
 19 20  2  0
M  CHG  1  17   1
M  END
