WAR-XCH-b6889685-11
     RDKit          3D

 30 33  0  0  0  0  0  0  0  0999 V2000
    9.6743    5.4790   25.0787 C   0  0  0  0  0  0  0  0  0  0  0  0
   10.3887    6.5933   24.6389 C   0  0  0  0  0  0  0  0  0  0  0  0
   10.0593    4.2002   24.6761 C   0  0  0  0  0  0  0  0  0  0  0  0
   11.4882    6.4288   23.7965 C   0  0  0  0  0  0  0  0  0  0  0  0
    6.7987   -5.8528   25.0417 C   0  0  0  0  0  0  0  0  0  0  0  0
    7.6451   -3.9758   26.3056 C   0  0  0  0  0  0  0  0  0  0  0  0
    6.4420   -6.4916   26.2292 C   0  0  0  0  0  0  0  0  0  0  0  0
    7.2883   -4.6146   27.4932 C   0  0  0  0  0  0  0  0  0  0  0  0
   11.1588    4.0357   23.8337 C   0  0  0  0  0  0  0  0  0  0  0  0
   11.8733    5.1500   23.3938 C   0  0  0  0  0  0  0  0  0  0  0  0
    7.4004   -4.5949   25.0799 C   0  0  0  0  0  0  0  0  0  0  0  0
    6.6867   -5.8725   27.4549 C   0  0  0  0  0  0  0  0  0  0  0  0
   10.0729   -3.8789   23.1137 C   0  0  0  0  0  0  0  0  0  0  0  0
    8.8826   -1.7913   23.9112 C   0  0  0  0  0  0  0  0  0  0  0  0
   11.9281    1.8145   24.6471 C   0  0  0  0  0  0  0  0  0  0  0  0
   10.4110    1.9894   22.6335 C   0  0  0  0  0  0  0  0  0  0  0  0
    8.7064   -4.5450   22.9480 C   0  0  0  0  0  0  0  0  0  0  0  0
    7.5447   -2.5156   23.7283 C   0  0  0  0  0  0  0  0  0  0  0  0
   12.2562    0.3774   24.2630 C   0  0  0  0  0  0  0  0  0  0  0  0
   10.7510    0.5510   22.2646 C   0  0  0  0  0  0  0  0  0  0  0  0
   11.5538    2.6559   23.4162 C   0  0  0  0  0  0  0  0  0  0  0  0
    9.9610   -2.3512   22.9671 C   0  0  0  0  0  0  0  0  0  0  0  0
   13.0534    4.9989   22.4910 C   0  0  0  0  0  0  0  0  0  0  0  0
   11.3086   -1.6812   23.2243 C   0  0  0  0  0  0  0  0  0  0  0  0
    7.7564   -3.9574   23.8959 N   0  0  0  0  0  0  0  0  0  0  0  0
    4.6463   -6.0966   29.1553 N   0  0  0  0  0  0  0  0  0  0  0  0
   11.0887   -0.2224   23.5167 N   0  0  0  0  0  0  0  0  0  0  0  0
    6.1943   -8.1062   28.6964 O   0  0  0  0  0  0  0  0  0  0  0  0
    7.0740   -6.1485   30.0158 O   0  0  0  0  0  0  0  0  0  0  0  0
    6.2411   -6.6716   28.9419 S   0  0  0  0  0  0  0  0  0  0  0  0
  1  2  2  0
  1  3  1  0
  2  4  1  0
  3  9  2  0
  4 10  2  0
  5  7  2  0
  5 11  1  0
  6  8  1  0
  6 11  2  0
  7 12  1  0
  8 12  2  0
  9 10  1  0
  9 21  1  0
 10 23  1  0
 11 25  1  0
 12 30  1  0
 13 17  1  0
 13 22  1  0
 14 18  1  0
 14 22  1  0
 15 19  1  0
 15 21  1  0
 16 20  1  0
 16 21  1  0
 17 25  1  0
 18 25  1  0
 19 27  1  0
 20 27  1  0
 22 24  1  0
 24 27  1  0
 26 30  1  0
 28 30  2  0
 29 30  2  0
M  CHG  1  27   1
M  END
