WAR-XCH-b0339bbe-2
     RDKit          3D

 23 26  0  0  0  0  0  0  0  0999 V2000
    5.9748    1.1558   19.6747 C   0  0  0  0  0  0  0  0  0  0  0  0
    6.5199    0.6639   18.4927 C   0  0  0  0  0  0  0  0  0  0  0  0
    8.9499   -0.7533   24.5056 C   0  0  0  0  0  0  0  0  0  0  0  0
    6.7290    1.0883   20.8464 C   0  0  0  0  0  0  0  0  0  0  0  0
    8.0062    0.5204   20.7546 C   0  0  0  0  0  0  0  0  0  0  0  0
    9.9151   -1.3236   23.7024 C   0  0  0  0  0  0  0  0  0  0  0  0
    8.4254    0.0687   19.5109 C   0  0  0  0  0  0  0  0  0  0  0  0
    9.9709   -0.2594   21.0442 C   0  0  0  0  0  0  0  0  0  0  0  0
    8.0273   -2.7238   24.2299 C   0  0  0  0  0  0  0  0  0  0  0  0
   13.9013    0.4562   23.9631 C   0  0  0  0  0  0  0  0  0  0  0  0
   12.7857    1.3448   23.4252 C   0  0  0  0  0  0  0  0  0  0  0  0
   13.8171   -0.9624   23.4118 C   0  0  0  0  0  0  0  0  0  0  0  0
   11.4047    0.7384   23.6814 C   0  0  0  0  0  0  0  0  0  0  0  0
   12.4452   -1.5894   23.6674 C   0  0  0  0  0  0  0  0  0  0  0  0
   11.2523   -0.7231   23.1656 C   0  0  0  0  0  0  0  0  0  0  0  0
    6.1599    1.6108   22.1225 C   0  0  0  0  0  0  0  0  0  0  0  0
    7.0679   -3.8456   24.3280 C   0  0  0  0  0  0  0  0  0  0  0  0
   11.2885   -0.6978   21.6144 C   0  0  0  0  0  0  0  0  0  0  0  0
    7.7473    0.1066   18.3520 N   0  0  0  0  0  0  0  0  0  0  0  0
    7.8664   -1.5545   24.8088 N   0  0  0  0  0  0  0  0  0  0  0  0
    8.9807    0.3086   21.6994 N   0  0  0  0  0  0  0  0  0  0  0  0
    9.6824   -0.4257   19.7162 N   0  0  0  0  0  0  0  0  0  0  0  0
    9.4590   -2.9287   23.3062 S   0  0  0  0  0  0  0  0  0  0  0  0
  1  2  2  0
  1  4  1  0
  2 19  1  0
  3  6  2  0
  3 20  1  0
  4  5  2  0
  4 16  1  0
  5  7  1  0
  5 21  1  0
  6 15  1  0
  6 23  1  0
  7 19  2  0
  7 22  1  0
  8 18  1  0
  8 21  2  0
  8 22  1  0
  9 17  1  0
  9 20  2  0
  9 23  1  0
 10 11  1  0
 10 12  1  0
 11 13  1  0
 12 14  1  0
 13 15  1  0
 14 15  1  0
 15 18  1  0
M  END
