WAR-XCH-b72a1bbc-3
     RDKit          3D

 15 16  0  0  0  0  0  0  0  0999 V2000
    9.7156   -2.3627   23.2184 C   0  0  0  0  0  0  0  0  0  0  0  0
   10.1484   -4.3231   24.5624 C   0  0  0  0  0  0  0  0  0  0  0  0
    8.6115   -2.9968   22.6489 C   0  0  0  0  0  0  0  0  0  0  0  0
    9.0442   -4.9573   23.9929 C   0  0  0  0  0  0  0  0  0  0  0  0
   11.7940   -0.9750   24.9764 C   0  0  0  0  0  0  0  0  0  0  0  0
   13.0073   -0.6878   25.5618 C   0  0  0  0  0  0  0  0  0  0  0  0
   12.7091   -3.1008   25.1906 C   0  0  0  0  0  0  0  0  0  0  0  0
   10.4841   -3.0259   24.1751 C   0  0  0  0  0  0  0  0  0  0  0  0
   11.6210   -2.3729   24.7614 C   0  0  0  0  0  0  0  0  0  0  0  0
    8.2758   -4.2941   23.0361 C   0  0  0  0  0  0  0  0  0  0  0  0
    6.3373   -3.8745   21.2554 N   0  0  0  0  0  0  0  0  0  0  0  0
    7.3689   -6.2199   21.5387 O   0  0  0  0  0  0  0  0  0  0  0  0
    5.8925   -5.2944   23.3584 O   0  0  0  0  0  0  0  0  0  0  0  0
   13.9322   -2.0999   25.8498 S   0  0  0  0  0  0  0  0  0  0  0  0
    6.8943   -5.0876   22.3219 S   0  0  0  0  0  0  0  0  0  0  0  0
  1  3  2  0
  1  8  1  0
  2  4  1  0
  2  8  2  0
  3 10  1  0
  4 10  2  0
  5  6  2  0
  5  9  1  0
  6 14  1  0
  7  9  2  0
  7 14  1  0
  8  9  1  0
 10 15  1  0
 11 15  1  0
 12 15  2  0
 13 15  2  0
M  END
