WAR-XCH-b6889685-43
     RDKit          3D

 24 26  0  0  0  0  0  0  0  0999 V2000
   10.7653    2.5371   23.8196 C   0  0  0  0  0  0  0  0  0  0  0  0
   12.9711    3.2769   23.1682 C   0  0  0  0  0  0  0  0  0  0  0  0
   10.3284    3.8615   23.8443 C   0  0  0  0  0  0  0  0  0  0  0  0
   12.5341    4.6013   23.1929 C   0  0  0  0  0  0  0  0  0  0  0  0
   12.0867    2.2448   23.4816 C   0  0  0  0  0  0  0  0  0  0  0  0
   11.2127    4.8936   23.5309 C   0  0  0  0  0  0  0  0  0  0  0  0
    7.9893   -5.1456   25.4571 C   0  0  0  0  0  0  0  0  0  0  0  0
    9.1740   -6.1043   25.5240 C   0  0  0  0  0  0  0  0  0  0  0  0
    8.1459   -4.1385   24.3220 C   0  0  0  0  0  0  0  0  0  0  0  0
   10.5008   -5.3546   25.6199 C   0  0  0  0  0  0  0  0  0  0  0  0
    9.4711   -3.3856   24.4157 C   0  0  0  0  0  0  0  0  0  0  0  0
   13.4264   -1.0049   22.1995 C   0  0  0  0  0  0  0  0  0  0  0  0
   13.4562   -0.9932   24.7123 C   0  0  0  0  0  0  0  0  0  0  0  0
   12.4171    0.1453   22.2126 C   0  0  0  0  0  0  0  0  0  0  0  0
   12.4449    0.1541   24.7113 C   0  0  0  0  0  0  0  0  0  0  0  0
   10.6660   -4.3467   24.4744 C   0  0  0  0  0  0  0  0  0  0  0  0
   13.3742   -1.8626   23.4604 C   0  0  0  0  0  0  0  0  0  0  0  0
   11.9744   -3.5723   24.6217 C   0  0  0  0  0  0  0  0  0  0  0  0
   12.5259    0.9151   23.4567 N   0  0  0  0  0  0  0  0  0  0  0  0
   10.1260    6.7468   21.9532 N   0  0  0  0  0  0  0  0  0  0  0  0
   12.1086   -2.6475   23.4781 N   0  0  0  0  0  0  0  0  0  0  0  0
    9.5215    6.6416   24.4570 O   0  0  0  0  0  0  0  0  0  0  0  0
   11.8205    7.4146   23.7751 O   0  0  0  0  0  0  0  0  0  0  0  0
   10.6669    6.5517   23.5622 S   0  0  0  0  0  0  0  0  0  0  0  0
  1  3  2  0
  1  5  1  0
  2  4  1  0
  2  5  2  0
  3  6  1  0
  4  6  2  0
  5 19  1  0
  6 24  1  0
  7  8  1  0
  7  9  1  0
  8 10  1  0
  9 11  1  0
 10 16  1  0
 11 16  1  0
 12 14  1  0
 12 17  1  0
 13 15  1  0
 13 17  1  0
 14 19  1  0
 15 19  1  0
 16 18  1  0
 17 21  1  0
 18 21  1  0
 20 24  1  0
 22 24  2  0
 23 24  2  0
M  CHG  1  21   1
M  END
