WAR-XCH-6eb0722e-5
     RDKit          3D

 24 25  0  0  0  0  0  0  0  0999 V2000
    5.5046    1.1875   18.8287 C   0  0  0  0  0  0  0  0  0  0  0  0
   14.1323   -1.0890   23.5676 C   0  0  0  0  0  0  0  0  0  0  0  0
   13.2159   -0.5506   24.4709 C   0  0  0  0  0  0  0  0  0  0  0  0
    6.3425    1.1026   19.9351 C   0  0  0  0  0  0  0  0  0  0  0  0
   12.5167   -0.8519   21.7870 C   0  0  0  0  0  0  0  0  0  0  0  0
    5.9927    0.7445   17.6100 C   0  0  0  0  0  0  0  0  0  0  0  0
    8.0179    0.1685   18.5291 C   0  0  0  0  0  0  0  0  0  0  0  0
   13.7828   -1.2396   22.2257 C   0  0  0  0  0  0  0  0  0  0  0  0
   11.9498   -0.1629   24.0323 C   0  0  0  0  0  0  0  0  0  0  0  0
    7.6248    0.5847   19.7909 C   0  0  0  0  0  0  0  0  0  0  0  0
   11.6002   -0.3135   22.6903 C   0  0  0  0  0  0  0  0  0  0  0  0
    9.8141   -0.0090   20.9194 C   0  0  0  0  0  0  0  0  0  0  0  0
   14.7634   -1.8152   21.2605 C   0  0  0  0  0  0  0  0  0  0  0  0
    7.7809   -3.2552   25.0920 C   0  0  0  0  0  0  0  0  0  0  0  0
   10.9787    0.4156   25.0319 C   0  0  0  0  0  0  0  0  0  0  0  0
    9.8938   -0.5741   25.4497 C   0  0  0  0  0  0  0  0  0  0  0  0
    7.2322    0.2354   17.4310 N   0  0  0  0  0  0  0  0  0  0  0  0
    8.5003    0.4859   20.8980 N   0  0  0  0  0  0  0  0  0  0  0  0
   10.3372    0.0697   22.2318 N   0  0  0  0  0  0  0  0  0  0  0  0
    9.0959   -1.0542   24.3071 N   0  0  0  0  0  0  0  0  0  0  0  0
   10.4235   -0.4459   19.9484 O   0  0  0  0  0  0  0  0  0  0  0  0
   10.2971   -3.3448   24.3770 O   0  0  0  0  0  0  0  0  0  0  0  0
    8.5415   -2.9084   22.6209 O   0  0  0  0  0  0  0  0  0  0  0  0
    9.0518   -2.7264   23.9662 S   0  0  0  0  0  0  0  0  0  0  0  0
  1  4  2  0
  1  6  1  0
  2  3  2  0
  2  8  1  0
  3  9  1  0
  4 10  1  0
  5  8  2  0
  5 11  1  0
  6 17  2  0
  7 10  2  0
  7 17  1  0
  8 13  1  0
  9 11  2  0
  9 15  1  0
 10 18  1  0
 11 19  1  0
 12 18  1  0
 12 19  1  0
 12 21  2  0
 14 24  1  0
 15 16  1  0
 16 20  1  0
 20 24  1  0
 22 24  2  0
 23 24  2  0
M  END
