WAR-XCH-72a8c209-10
     RDKit          3D

 27 29  0  0  1  0  0  0  0  0999 V2000
   11.0637    0.7854   25.2442 C   0  0  0  0  0  0  0  0  0  0  0  0
   12.8764    0.1147   22.0703 C   0  0  0  0  0  0  0  0  0  0  0  0
   12.3236   -1.1076   21.6883 C   0  0  0  0  0  0  0  0  0  0  0  0
   12.4545    0.7337   23.2470 C   0  0  0  0  0  0  0  0  0  0  0  0
   11.3489   -1.7109   22.4829 C   0  0  0  0  0  0  0  0  0  0  0  0
   11.4798    0.1303   24.0416 C   0  0  0  0  0  0  0  0  0  0  0  0
   10.9269   -1.0920   23.6596 C   0  0  0  0  0  0  0  0  0  0  0  0
    5.7776    1.0864   18.6821 C   0  0  0  0  0  0  0  0  0  0  0  0
    6.3468   -0.0785   18.3656 C   0  0  0  0  0  0  0  0  0  0  0  0
    6.0720   -1.2590   19.2089 C   0  0  0  0  0  0  0  0  0  0  0  0
    9.3346   -4.7898   24.7046 C   0  0  0  0  0  0  0  0  0  0  0  0
    7.8168   -3.0859   25.8030 C   0  0  0  0  0  0  0  0  0  0  0  0
    8.7813   -5.8777   25.6276 C   0  0  0  0  0  0  0  0  0  0  0  0
    7.2610   -4.1741   26.7237 C   0  0  0  0  0  0  0  0  0  0  0  0
    6.7663   -2.6764   22.5088 C   0  0  0  0  0  0  0  0  0  0  0  0
    8.5774   -1.0916   21.7707 C   0  0  0  0  0  0  0  0  0  0  0  0
    5.7592   -1.8938   21.6642 C   0  0  0  0  0  0  0  0  0  0  0  0
    7.5389   -0.3254   20.9560 C   0  0  0  0  0  0  0  0  0  0  0  0
    8.3062   -3.6829   24.4857 C   0  0  0  0  0  0  0  0  0  0  0  0
    7.9146   -1.7784   22.9624 C   0  0  0  0  0  0  0  0  0  0  0  0
    8.2656   -5.3061   26.9491 C   0  0  0  0  0  0  0  0  0  0  0  0
    9.8767   -1.7706   24.4888 C   0  0  0  0  0  0  0  0  0  0  0  0
   10.7263    1.3165   26.2193 N   0  0  0  0  0  0  0  0  0  0  0  0
    6.4264   -1.1932   20.5546 N   0  0  0  0  0  0  0  0  0  0  0  0
    8.9263   -2.6048   23.6703 N   0  0  0  0  0  0  0  0  0  0  0  0
    5.5485   -2.2349   18.6682 O   0  0  0  0  0  0  0  0  0  0  0  0
    9.3764   -4.8222   27.7015 O   0  0  0  0  0  0  0  0  0  0  0  0
  1  6  1  0
  1 23  3  0
  2  3  2  0
  2  4  1  0
  3  5  1  0
  4  6  2  0
  5  7  2  0
  6  7  1  0
  7 22  1  0
  8  9  2  0
  9 10  1  0
 10 24  1  0
 10 26  2  0
 11 13  1  0
 11 19  1  0
 12 14  1  0
 12 19  1  0
 13 21  1  0
 14 21  1  0
 15 17  1  0
 15 20  1  0
 16 18  1  0
 16 20  1  0
 17 24  1  0
 18 24  1  0
 19 25  1  0
 20 25  1  0
 21 27  1  0
 22 25  1  0
M  CHG  1  25   1
M  END
