WAR-XCH-e55cba98-2
     RDKit          3D

 29 32  0  0  0  0  0  0  0  0999 V2000
    7.8980   -1.3082   21.8710 C   0  0  0  0  0  0  0  0  0  0  0  0
    8.7147   -1.2979   22.7517 C   0  0  0  0  0  0  0  0  0  0  0  0
    6.0279   -0.5036   18.7754 C   0  0  0  0  0  0  0  0  0  0  0  0
    5.0085   -1.4429   18.8842 C   0  0  0  0  0  0  0  0  0  0  0  0
    7.0092   -0.4338   19.7580 C   0  0  0  0  0  0  0  0  0  0  0  0
   13.1332    1.1040   22.5565 C   0  0  0  0  0  0  0  0  0  0  0  0
   11.9747   -1.0241   22.7189 C   0  0  0  0  0  0  0  0  0  0  0  0
    5.0156   -2.2829   19.9861 C   0  0  0  0  0  0  0  0  0  0  0  0
   10.5836    3.0652   24.2925 C   0  0  0  0  0  0  0  0  0  0  0  0
    6.9266   -1.3189   20.8209 C   0  0  0  0  0  0  0  0  0  0  0  0
   12.0694    1.7256   23.2402 C   0  0  0  0  0  0  0  0  0  0  0  0
   10.9079   -0.4294   23.3987 C   0  0  0  0  0  0  0  0  0  0  0  0
   11.8033    3.0603   23.6559 C   0  0  0  0  0  0  0  0  0  0  0  0
   10.9835    0.9461   23.6447 C   0  0  0  0  0  0  0  0  0  0  0  0
   13.0712   -0.2712   22.3034 C   0  0  0  0  0  0  0  0  0  0  0  0
    9.7255    6.5231   23.2313 C   0  0  0  0  0  0  0  0  0  0  0  0
    8.2988   -2.0199   25.6934 C   0  0  0  0  0  0  0  0  0  0  0  0
    8.9680   -3.2513   25.0946 C   0  0  0  0  0  0  0  0  0  0  0  0
    9.0725   -0.8158   25.1588 C   0  0  0  0  0  0  0  0  0  0  0  0
   10.1084   -2.7314   24.2206 C   0  0  0  0  0  0  0  0  0  0  0  0
    9.7238   -1.2846   23.8385 C   0  0  0  0  0  0  0  0  0  0  0  0
    8.6558    6.5921   22.1924 C   0  0  0  0  0  0  0  0  0  0  0  0
   12.6727    4.2358   23.4471 C   0  0  0  0  0  0  0  0  0  0  0  0
   11.9780    5.5845   23.7086 C   0  0  0  0  0  0  0  0  0  0  0  0
    5.9517   -2.2449   20.9607 N   0  0  0  0  0  0  0  0  0  0  0  0
   10.0971    1.7855   24.2810 N   0  0  0  0  0  0  0  0  0  0  0  0
   10.8333    5.7783   22.8596 N   0  0  0  0  0  0  0  0  0  0  0  0
    9.5685    7.1027   24.2996 O   0  0  0  0  0  0  0  0  0  0  0  0
   14.0791   -0.8697   21.6539 F   0  0  0  0  0  0  0  0  0  0  0  0
  1  2  3  0
  1 10  1  0
  2 21  1  0
  3  4  2  0
  3  5  1  0
  4  8  1  0
  5 10  2  0
  6 11  2  0
  6 15  1  0
  7 12  1  0
  7 15  2  0
  8 25  2  0
  9 13  2  0
  9 26  1  0
 10 25  1  0
 11 13  1  0
 11 14  1  0
 12 14  2  0
 12 21  1  0
 13 23  1  0
 14 26  1  0
 15 29  1  0
 16 22  1  0
 16 27  1  0
 16 28  2  0
 17 18  1  0
 17 19  1  0
 18 20  1  0
 19 21  1  0
 20 21  1  0
 23 24  1  0
 24 27  1  0
M  END
