WAR-XCH-b72a1bbc-42
     RDKit          3D

 23 25  0  0  0  0  0  0  0  0999 V2000
    8.5230    7.0246   24.1092 C   0  0  0  0  0  0  0  0  0  0  0  0
    9.3058   -1.0901   25.4562 C   0  0  0  0  0  0  0  0  0  0  0  0
   10.0379   -1.8080   23.2685 C   0  0  0  0  0  0  0  0  0  0  0  0
    8.7137   -2.3353   25.6667 C   0  0  0  0  0  0  0  0  0  0  0  0
    9.4459   -3.0533   23.4791 C   0  0  0  0  0  0  0  0  0  0  0  0
    9.7870    6.8463   24.7207 C   0  0  0  0  0  0  0  0  0  0  0  0
    8.6220    6.4642   22.8570 C   0  0  0  0  0  0  0  0  0  0  0  0
    9.9679   -0.8263   24.2571 C   0  0  0  0  0  0  0  0  0  0  0  0
    8.7837   -3.3169   24.6782 C   0  0  0  0  0  0  0  0  0  0  0  0
   10.5681    6.1893   23.7986 C   0  0  0  0  0  0  0  0  0  0  0  0
   10.3738    2.8748   23.9124 C   0  0  0  0  0  0  0  0  0  0  0  0
   12.3976    1.7068   23.0188 C   0  0  0  0  0  0  0  0  0  0  0  0
    9.9892    1.6126   24.6840 C   0  0  0  0  0  0  0  0  0  0  0  0
   12.0102    0.4506   23.7972 C   0  0  0  0  0  0  0  0  0  0  0  0
   11.8892    2.9750   23.7122 C   0  0  0  0  0  0  0  0  0  0  0  0
   12.2504    4.2189   22.9040 C   0  0  0  0  0  0  0  0  0  0  0  0
   10.5624    0.4234   24.0452 N   0  0  0  0  0  0  0  0  0  0  0  0
    6.4733   -4.5980   24.3236 N   0  0  0  0  0  0  0  0  0  0  0  0
    8.7139   -5.8522   24.0943 O   0  0  0  0  0  0  0  0  0  0  0  0
    7.9462   -5.1066   26.3752 O   0  0  0  0  0  0  0  0  0  0  0  0
    9.8654    5.9526   22.6598 O   0  0  0  0  0  0  0  0  0  0  0  0
   12.2520    5.6813   23.9706 S   0  0  0  0  0  0  0  0  0  0  0  0
    8.0424   -4.8757   24.9405 S   0  0  0  0  0  0  0  0  0  0  0  0
  1  6  1  0
  1  7  2  0
  2  4  2  0
  2  8  1  0
  3  5  1  0
  3  8  2  0
  4  9  1  0
  5  9  2  0
  6 10  2  0
  7 21  1  0
  8 17  1  0
  9 23  1  0
 10 21  1  0
 10 22  1  0
 11 13  1  0
 11 15  1  0
 12 14  1  0
 12 15  1  0
 13 17  1  0
 14 17  1  0
 15 16  1  0
 16 22  1  0
 18 23  1  0
 19 23  2  0
 20 23  2  0
M  END
