WAR-XCH-e55cba98-12
     RDKit          3D

 23 25  0  0  0  0  0  0  0  0999 V2000
   10.1715   -1.9442   23.9250 C   0  0  0  0  0  0  0  0  0  0  0  0
   11.1303   -1.3601   23.4982 C   0  0  0  0  0  0  0  0  0  0  0  0
    6.7472   -3.3027   24.3195 C   0  0  0  0  0  0  0  0  0  0  0  0
   10.8506    2.7583   23.9301 C   0  0  0  0  0  0  0  0  0  0  0  0
    6.9258   -4.0079   25.5044 C   0  0  0  0  0  0  0  0  0  0  0  0
    7.8135   -2.6029   23.7659 C   0  0  0  0  0  0  0  0  0  0  0  0
   10.9996    1.3821   23.7586 C   0  0  0  0  0  0  0  0  0  0  0  0
   11.8538    3.6273   23.5009 C   0  0  0  0  0  0  0  0  0  0  0  0
   13.1551    1.7438   22.7289 C   0  0  0  0  0  0  0  0  0  0  0  0
    8.1805   -3.9818   26.0918 C   0  0  0  0  0  0  0  0  0  0  0  0
    9.0283   -2.6395   24.4313 C   0  0  0  0  0  0  0  0  0  0  0  0
   12.1518    0.8748   23.1580 C   0  0  0  0  0  0  0  0  0  0  0  0
   13.0060    3.1200   22.9003 C   0  0  0  0  0  0  0  0  0  0  0  0
   14.3905   -1.9527   22.7350 C   0  0  0  0  0  0  0  0  0  0  0  0
   14.0355   -1.3617   21.3839 C   0  0  0  0  0  0  0  0  0  0  0  0
   13.5997   -1.0972   23.7209 C   0  0  0  0  0  0  0  0  0  0  0  0
   12.5363   -1.1306   21.5100 C   0  0  0  0  0  0  0  0  0  0  0  0
   12.3148   -0.6379   22.9699 C   0  0  0  0  0  0  0  0  0  0  0  0
    9.2401   -3.3134   25.5839 N   0  0  0  0  0  0  0  0  0  0  0  0
   13.5925    5.7183   22.8017 N   0  0  0  0  0  0  0  0  0  0  0  0
   15.4508    3.9703   23.1712 O   0  0  0  0  0  0  0  0  0  0  0  0
   14.3469    4.1375   20.9126 O   0  0  0  0  0  0  0  0  0  0  0  0
   14.2618    4.2081   22.3647 S   0  0  0  0  0  0  0  0  0  0  0  0
  1  2  3  0
  1 11  1  0
  2 18  1  0
  3  5  2  0
  3  6  1  0
  4  7  2  0
  4  8  1  0
  5 10  1  0
  6 11  2  0
  7 12  1  0
  8 13  2  0
  9 12  2  0
  9 13  1  0
 10 19  2  0
 11 19  1  0
 12 18  1  0
 13 23  1  0
 14 15  1  0
 14 16  1  0
 15 17  1  0
 16 18  1  0
 17 18  1  0
 20 23  1  0
 21 23  2  0
 22 23  2  0
M  END
