WAR-XCH-b6889685-6
     RDKit          3D

 26 28  0  0  1  0  0  0  0  0999 V2000
    8.2984   -5.0677   27.1994 C   0  0  0  0  0  0  0  0  0  0  0  0
    6.9498   -5.4115   27.2920 C   0  0  0  0  0  0  0  0  0  0  0  0
    9.1154    2.5163   23.8154 C   0  0  0  0  0  0  0  0  0  0  0  0
   11.4876    2.2229   23.4635 C   0  0  0  0  0  0  0  0  0  0  0  0
    8.8786   -4.8506   25.9496 C   0  0  0  0  0  0  0  0  0  0  0  0
    9.3021    3.8942   23.9253 C   0  0  0  0  0  0  0  0  0  0  0  0
   11.6743    3.6008   23.5733 C   0  0  0  0  0  0  0  0  0  0  0  0
    6.7614   -5.3212   24.8851 C   0  0  0  0  0  0  0  0  0  0  0  0
    6.1813   -5.5383   26.1349 C   0  0  0  0  0  0  0  0  0  0  0  0
   10.2082    1.6806   23.5846 C   0  0  0  0  0  0  0  0  0  0  0  0
    8.1101   -4.9773   24.7924 C   0  0  0  0  0  0  0  0  0  0  0  0
   10.5816    4.4365   23.8042 C   0  0  0  0  0  0  0  0  0  0  0  0
    9.2233   -1.8255   24.4329 C   0  0  0  0  0  0  0  0  0  0  0  0
   10.7297   -1.8210   22.4357 C   0  0  0  0  0  0  0  0  0  0  0  0
    8.9249   -0.3432   24.2080 C   0  0  0  0  0  0  0  0  0  0  0  0
   10.4226   -0.3410   22.2135 C   0  0  0  0  0  0  0  0  0  0  0  0
    9.5623   -2.5391   23.1206 C   0  0  0  0  0  0  0  0  0  0  0  0
    4.7397   -5.9065   26.2343 C   0  0  0  0  0  0  0  0  0  0  0  0
    8.0345   -5.3118   22.3343 C   0  0  0  0  0  0  0  0  0  0  0  0
    9.8981   -4.0073   23.3704 C   0  0  0  0  0  0  0  0  0  0  0  0
   10.0213    0.2975   23.4743 N   0  0  0  0  0  0  0  0  0  0  0  0
   10.6345    6.6457   22.3138 N   0  0  0  0  0  0  0  0  0  0  0  0
    8.6974   -4.7571   23.5272 N   0  0  0  0  0  0  0  0  0  0  0  0
    9.7177    6.7134   24.7222 O   0  0  0  0  0  0  0  0  0  0  0  0
   12.1913    6.4094   24.3528 O   0  0  0  0  0  0  0  0  0  0  0  0
   10.8163    6.1611   23.9422 S   0  0  0  0  0  0  0  0  0  0  0  0
  1  2  2  0
  1  5  1  0
  2  9  1  0
  3  6  2  0
  3 10  1  0
  4  7  1  0
  4 10  2  0
  5 11  2  0
  6 12  1  0
  7 12  2  0
  8  9  2  0
  8 11  1  0
  9 18  1  0
 10 21  1  0
 11 23  1  0
 12 26  1  0
 13 15  1  0
 13 17  1  0
 14 16  1  0
 14 17  1  0
 15 21  1  0
 16 21  1  0
 17 20  1  0
 19 23  1  0
 20 23  1  0
 22 26  1  0
 24 26  2  0
 25 26  2  0
M  END
