WAR-XCH-b72a1bbc-47
     RDKit          3D

 25 27  0  0  0  0  0  0  0  0999 V2000
    6.0621   -5.1861   24.1159 C   0  0  0  0  0  0  0  0  0  0  0  0
   12.8042    1.8016   22.3712 C   0  0  0  0  0  0  0  0  0  0  0  0
   11.6777    1.4114   24.4725 C   0  0  0  0  0  0  0  0  0  0  0  0
    7.3947   -4.8009   24.2619 C   0  0  0  0  0  0  0  0  0  0  0  0
    5.6087   -5.6796   22.8926 C   0  0  0  0  0  0  0  0  0  0  0  0
   12.5109    3.1619   22.4665 C   0  0  0  0  0  0  0  0  0  0  0  0
   11.3844    2.7717   24.5679 C   0  0  0  0  0  0  0  0  0  0  0  0
    7.8207   -5.4026   21.9611 C   0  0  0  0  0  0  0  0  0  0  0  0
   12.3876    0.9263   23.3741 C   0  0  0  0  0  0  0  0  0  0  0  0
    8.2740   -4.9092   23.1845 C   0  0  0  0  0  0  0  0  0  0  0  0
    6.4880   -5.7878   21.8152 C   0  0  0  0  0  0  0  0  0  0  0  0
   11.8010    3.6470   23.5649 C   0  0  0  0  0  0  0  0  0  0  0  0
   10.9973   -2.0731   22.6050 C   0  0  0  0  0  0  0  0  0  0  0  0
   11.9055   -2.0149   24.9678 C   0  0  0  0  0  0  0  0  0  0  0  0
   12.2104   -1.2539   22.1625 C   0  0  0  0  0  0  0  0  0  0  0  0
   13.0951   -1.1916   24.4625 C   0  0  0  0  0  0  0  0  0  0  0  0
   11.3240   -2.9065   23.8567 C   0  0  0  0  0  0  0  0  0  0  0  0
   10.0862   -3.6516   24.3507 C   0  0  0  0  0  0  0  0  0  0  0  0
   12.6798   -0.4303   23.2795 N   0  0  0  0  0  0  0  0  0  0  0  0
    9.9228    5.4130   22.8878 N   0  0  0  0  0  0  0  0  0  0  0  0
    9.6082   -4.5227   23.3303 N   0  0  0  0  0  0  0  0  0  0  0  0
   11.2369    5.6793   25.0896 O   0  0  0  0  0  0  0  0  0  0  0  0
   12.4084    6.0903   22.8973 O   0  0  0  0  0  0  0  0  0  0  0  0
    6.0529   -6.2633   20.6408 F   0  0  0  0  0  0  0  0  0  0  0  0
   11.4329    5.3494   23.6848 S   0  0  0  0  0  0  0  0  0  0  0  0
  1  4  2  0
  1  5  1  0
  2  6  2  0
  2  9  1  0
  3  7  1  0
  3  9  2  0
  4 10  1  0
  5 11  2  0
  6 12  1  0
  7 12  2  0
  8 10  2  0
  8 11  1  0
  9 19  1  0
 10 21  1  0
 11 24  1  0
 12 25  1  0
 13 15  1  0
 13 17  1  0
 14 16  1  0
 14 17  1  0
 15 19  1  0
 16 19  1  0
 17 18  1  0
 18 21  1  0
 20 25  1  0
 22 25  2  0
 23 25  2  0
M  END
