WAR-XCH-eb7b662f-6
     RDKit          3D

 17 18  0  0  0  0  0  0  0  0999 V2000
   14.0274   -1.3916   22.3217 C   0  0  0  0  0  0  0  0  0  0  0  0
    5.6602    1.2360   19.2568 C   0  0  0  0  0  0  0  0  0  0  0  0
   14.3811   -1.3483   23.6702 C   0  0  0  0  0  0  0  0  0  0  0  0
   12.7548   -0.9845   21.9210 C   0  0  0  0  0  0  0  0  0  0  0  0
    6.5180    1.0629   20.3373 C   0  0  0  0  0  0  0  0  0  0  0  0
   12.1897   -0.4909   24.2175 C   0  0  0  0  0  0  0  0  0  0  0  0
    6.1307    0.9069   17.9959 C   0  0  0  0  0  0  0  0  0  0  0  0
    8.1768    0.2733   18.8269 C   0  0  0  0  0  0  0  0  0  0  0  0
   13.4623   -0.8979   24.6181 C   0  0  0  0  0  0  0  0  0  0  0  0
   11.8359   -0.5342   22.8690 C   0  0  0  0  0  0  0  0  0  0  0  0
    7.8021    0.5730   20.1267 C   0  0  0  0  0  0  0  0  0  0  0  0
   10.0164   -0.0940   21.1618 C   0  0  0  0  0  0  0  0  0  0  0  0
   13.8410   -0.8518   26.0597 C   0  0  0  0  0  0  0  0  0  0  0  0
    7.3714    0.4283   17.7522 N   0  0  0  0  0  0  0  0  0  0  0  0
   10.5634   -0.1264   22.4678 N   0  0  0  0  0  0  0  0  0  0  0  0
    8.6978    0.3864   21.2061 N   0  0  0  0  0  0  0  0  0  0  0  0
   10.6129   -0.4368   20.1460 O   0  0  0  0  0  0  0  0  0  0  0  0
  1  3  2  0
  1  4  1  0
  2  5  2  0
  2  7  1  0
  3  9  1  0
  4 10  2  0
  5 11  1  0
  6  9  2  0
  6 10  1  0
  7 14  2  0
  8 11  2  0
  8 14  1  0
  9 13  1  0
 10 15  1  0
 11 16  1  0
 12 15  1  0
 12 16  1  0
 12 17  2  0
M  END
