WAR-XCH-bdd24732-17
     RDKit          3D

 24 27  0  0  0  0  0  0  0  0999 V2000
   12.3951    0.1921   24.3441 C   0  0  0  0  0  0  0  0  0  0  0  0
   12.5118    1.2195   23.4145 C   0  0  0  0  0  0  0  0  0  0  0  0
    5.2610    0.4188   19.5941 C   0  0  0  0  0  0  0  0  0  0  0  0
   11.3104   -0.6764   24.2747 C   0  0  0  0  0  0  0  0  0  0  0  0
    6.1863    0.2446   20.6172 C   0  0  0  0  0  0  0  0  0  0  0  0
   11.5442    1.3762   22.4177 C   0  0  0  0  0  0  0  0  0  0  0  0
    9.4766   -3.7243   23.7350 C   0  0  0  0  0  0  0  0  0  0  0  0
    8.2148   -2.2648   25.1892 C   0  0  0  0  0  0  0  0  0  0  0  0
    8.4676   -4.6019   25.7472 C   0  0  0  0  0  0  0  0  0  0  0  0
    5.7157    0.3377   18.2878 C   0  0  0  0  0  0  0  0  0  0  0  0
    7.8727   -0.0643   18.9689 C   0  0  0  0  0  0  0  0  0  0  0  0
   10.3417   -0.5123   23.2693 C   0  0  0  0  0  0  0  0  0  0  0  0
    7.5191   -0.0019   20.3072 C   0  0  0  0  0  0  0  0  0  0  0  0
    8.9717   -2.4588   24.0337 C   0  0  0  0  0  0  0  0  0  0  0  0
    9.2245   -4.7959   24.5917 C   0  0  0  0  0  0  0  0  0  0  0  0
   10.4486    0.5214   22.3246 C   0  0  0  0  0  0  0  0  0  0  0  0
    7.9627   -3.3363   26.0459 C   0  0  0  0  0  0  0  0  0  0  0  0
    9.2338   -1.3458   23.1441 C   0  0  0  0  0  0  0  0  0  0  0  0
    8.5008   -0.1861   21.3441 C   0  0  0  0  0  0  0  0  0  0  0  0
    9.7643   -6.1489   24.2732 C   0  0  0  0  0  0  0  0  0  0  0  0
    7.0023    0.0998   17.9476 N   0  0  0  0  0  0  0  0  0  0  0  0
    9.5280    0.6874   21.3588 N   0  0  0  0  0  0  0  0  0  0  0  0
    8.2938   -1.2080   22.1901 N   0  0  0  0  0  0  0  0  0  0  0  0
    7.2358   -3.1506   27.1555 F   0  0  0  0  0  0  0  0  0  0  0  0
  1  2  2  0
  1  4  1  0
  2  6  1  0
  3  5  2  0
  3 10  1  0
  4 12  2  0
  5 13  1  0
  6 16  2  0
  7 14  2  0
  7 15  1  0
  8 14  1  0
  8 17  2  0
  9 15  2  0
  9 17  1  0
 10 21  2  0
 11 13  2  0
 11 21  1  0
 12 16  1  0
 12 18  1  0
 13 19  1  0
 14 18  1  0
 15 20  1  0
 16 22  1  0
 17 24  1  0
 18 23  2  0
 19 22  2  0
 19 23  1  0
M  END
