WAR-XCH-b6889685-34
     RDKit          3D

 29 32  0  0  0  0  0  0  0  0999 V2000
   13.0194    4.1551   23.3040 C   0  0  0  0  0  0  0  0  0  0  0  0
   12.1257    5.1939   23.5644 C   0  0  0  0  0  0  0  0  0  0  0  0
    9.2905   -4.1807   24.6976 C   0  0  0  0  0  0  0  0  0  0  0  0
    7.9895   -2.6361   26.0238 C   0  0  0  0  0  0  0  0  0  0  0  0
   12.5442    2.8577   23.1130 C   0  0  0  0  0  0  0  0  0  0  0  0
    8.6023   -5.2510   25.2690 C   0  0  0  0  0  0  0  0  0  0  0  0
    7.3012   -3.7064   26.5952 C   0  0  0  0  0  0  0  0  0  0  0  0
    9.7619    6.8392   25.0003 C   0  0  0  0  0  0  0  0  0  0  0  0
    8.7004    7.7833   24.8903 C   0  0  0  0  0  0  0  0  0  0  0  0
   10.2815    3.6378   23.4427 C   0  0  0  0  0  0  0  0  0  0  0  0
   10.7568    4.9353   23.6337 C   0  0  0  0  0  0  0  0  0  0  0  0
    8.9841   -2.8733   25.0750 C   0  0  0  0  0  0  0  0  0  0  0  0
   11.1753    2.5990   23.1823 C   0  0  0  0  0  0  0  0  0  0  0  0
    7.6077   -5.0139   26.2178 C   0  0  0  0  0  0  0  0  0  0  0  0
    9.8327    6.0099   23.9027 C   0  0  0  0  0  0  0  0  0  0  0  0
    8.0005    7.6397   23.7123 C   0  0  0  0  0  0  0  0  0  0  0  0
   10.9689   -1.0947   22.5556 C   0  0  0  0  0  0  0  0  0  0  0  0
   11.4260   -0.1359   24.8370 C   0  0  0  0  0  0  0  0  0  0  0  0
    9.6174   -1.6012   23.0601 C   0  0  0  0  0  0  0  0  0  0  0  0
   10.0671   -0.6566   25.3117 C   0  0  0  0  0  0  0  0  0  0  0  0
   11.4617    0.1304   23.3308 C   0  0  0  0  0  0  0  0  0  0  0  0
    9.6632   -1.8164   24.5112 N   0  0  0  0  0  0  0  0  0  0  0  0
    7.7314   -6.6861   28.2897 N   0  0  0  0  0  0  0  0  0  0  0  0
   10.7050    1.3134   22.9930 N   0  0  0  0  0  0  0  0  0  0  0  0
    5.4533   -5.8711   27.3998 O   0  0  0  0  0  0  0  0  0  0  0  0
    6.8097   -7.4854   26.0207 O   0  0  0  0  0  0  0  0  0  0  0  0
    8.6230    6.3708   22.7457 S   0  0  0  0  0  0  0  0  0  0  0  0
    6.7462   -6.3529   26.9340 S   0  0  0  0  0  0  0  0  0  0  0  0
    6.5183    8.7138   23.2052 Br  0  0  0  0  0  0  0  0  0  0  0  0
  1  2  2  0
  1  5  1  0
  2 11  1  0
  3  6  2  0
  3 12  1  0
  4  7  1  0
  4 12  2  0
  5 13  2  0
  6 14  1  0
  7 14  2  0
  8  9  1  0
  8 15  2  0
  9 16  2  0
 10 11  2  0
 10 13  1  0
 11 15  1  0
 12 22  1  0
 13 24  1  0
 14 28  1  0
 15 27  1  0
 16 27  1  0
 16 29  1  0
 17 19  1  0
 17 21  1  0
 18 20  1  0
 18 21  1  0
 19 22  1  0
 20 22  1  0
 21 24  1  0
 23 28  1  0
 25 28  2  0
 26 28  2  0
M  END
