WAR-XCH-b6889685-52
     RDKit          3D

 33 37  0  0  0  0  0  0  0  0999 V2000
    8.1876    7.8972   24.1349 C   0  0  0  0  0  0  0  0  0  0  0  0
    8.3414    7.0867   23.0141 C   0  0  0  0  0  0  0  0  0  0  0  0
   12.4716    6.3480   25.8434 C   0  0  0  0  0  0  0  0  0  0  0  0
    9.1738    7.9195   25.1215 C   0  0  0  0  0  0  0  0  0  0  0  0
    9.4820    6.2953   22.8756 C   0  0  0  0  0  0  0  0  0  0  0  0
   11.3311    7.1394   25.9818 C   0  0  0  0  0  0  0  0  0  0  0  0
    7.5110   -4.7944   25.3325 C   0  0  0  0  0  0  0  0  0  0  0  0
    7.7045   -3.7955   23.1412 C   0  0  0  0  0  0  0  0  0  0  0  0
   12.6255    5.5374   24.7226 C   0  0  0  0  0  0  0  0  0  0  0  0
    6.2325   -5.2507   25.0116 C   0  0  0  0  0  0  0  0  0  0  0  0
    6.4261   -4.2518   22.8203 C   0  0  0  0  0  0  0  0  0  0  0  0
   10.3283    7.1295   24.9986 C   0  0  0  0  0  0  0  0  0  0  0  0
   10.4848    6.3052   23.8588 C   0  0  0  0  0  0  0  0  0  0  0  0
    8.2470   -4.0668   24.3973 C   0  0  0  0  0  0  0  0  0  0  0  0
   11.6393    5.5151   23.7359 C   0  0  0  0  0  0  0  0  0  0  0  0
    5.6901   -4.9794   23.7555 C   0  0  0  0  0  0  0  0  0  0  0  0
    9.9282   -1.2764   25.3093 C   0  0  0  0  0  0  0  0  0  0  0  0
   10.8476   -2.2632   23.1618 C   0  0  0  0  0  0  0  0  0  0  0  0
   12.4019    1.7289   22.2692 C   0  0  0  0  0  0  0  0  0  0  0  0
   10.7784    2.5686   24.0068 C   0  0  0  0  0  0  0  0  0  0  0  0
    9.7297   -2.6981   25.8474 C   0  0  0  0  0  0  0  0  0  0  0  0
   10.6296   -3.6557   23.7567 C   0  0  0  0  0  0  0  0  0  0  0  0
   12.4376    0.3746   22.9675 C   0  0  0  0  0  0  0  0  0  0  0  0
   10.8232    1.2095   24.6951 C   0  0  0  0  0  0  0  0  0  0  0  0
   11.0592   -1.2373   24.2783 C   0  0  0  0  0  0  0  0  0  0  0  0
   12.0813    2.8528   23.2564 C   0  0  0  0  0  0  0  0  0  0  0  0
    9.5221   -3.6115   24.7168 N   0  0  0  0  0  0  0  0  0  0  0  0
    4.4477   -7.0816   22.6867 N   0  0  0  0  0  0  0  0  0  0  0  0
   11.1242    0.1385   23.6741 N   0  0  0  0  0  0  0  0  0  0  0  0
    3.3445   -5.7378   24.5901 O   0  0  0  0  0  0  0  0  0  0  0  0
    3.5458   -4.6990   22.3036 O   0  0  0  0  0  0  0  0  0  0  0  0
   11.9632    4.4434   22.3715 S   0  0  0  0  0  0  0  0  0  0  0  0
    4.0897   -5.5495   23.3532 S   0  0  0  0  0  0  0  0  0  0  0  0
  1  2  2  0
  1  4  1  0
  2  5  1  0
  3  6  2  0
  3  9  1  0
  4 12  2  0
  5 13  2  0
  6 12  1  0
  7 10  2  0
  7 14  1  0
  8 11  1  0
  8 14  2  0
  9 15  2  0
 10 16  1  0
 11 16  2  0
 12 13  1  0
 13 15  1  0
 14 27  1  0
 15 32  1  0
 16 33  1  0
 17 21  1  0
 17 25  1  0
 18 22  1  0
 18 25  1  0
 19 23  1  0
 19 26  1  0
 20 24  1  0
 20 26  1  0
 21 27  1  0
 22 27  1  0
 23 29  1  0
 24 29  1  0
 25 29  1  0
 26 32  1  0
 28 33  1  0
 30 33  2  0
 31 33  2  0
M  CHG  1  29   1
M  END
