WAR-XCH-b72a1bbc-17
     RDKit          3D

 23 25  0  0  0  0  0  0  0  0999 V2000
   10.9144   -0.4930   24.7662 C   0  0  0  0  0  0  0  0  0  0  0  0
   11.0549   -1.4504   22.5525 C   0  0  0  0  0  0  0  0  0  0  0  0
   12.2980   -0.6050   24.9026 C   0  0  0  0  0  0  0  0  0  0  0  0
   12.4386   -1.5623   22.6888 C   0  0  0  0  0  0  0  0  0  0  0  0
    5.4420    1.5013   18.2897 C   0  0  0  0  0  0  0  0  0  0  0  0
    6.3595    1.1078   17.3289 C   0  0  0  0  0  0  0  0  0  0  0  0
    7.6559    0.0211   18.8835 C   0  0  0  0  0  0  0  0  0  0  0  0
    6.7993    0.3639   19.9172 C   0  0  0  0  0  0  0  0  0  0  0  0
    5.6734    1.1182   19.6061 C   0  0  0  0  0  0  0  0  0  0  0  0
   10.2928   -0.9158   23.5912 C   0  0  0  0  0  0  0  0  0  0  0  0
   13.0601   -1.1396   23.8638 C   0  0  0  0  0  0  0  0  0  0  0  0
    7.9036    0.9790   22.1163 C   0  0  0  0  0  0  0  0  0  0  0  0
    7.8120   -1.4502   21.3729 C   0  0  0  0  0  0  0  0  0  0  0  0
    8.2235    0.4868   23.5293 C   0  0  0  0  0  0  0  0  0  0  0  0
    8.1360   -1.8699   22.8114 C   0  0  0  0  0  0  0  0  0  0  0  0
    7.0994   -0.0820   21.3358 C   0  0  0  0  0  0  0  0  0  0  0  0
    4.7028    1.5254   20.6647 C   0  0  0  0  0  0  0  0  0  0  0  0
    7.4645    0.3749   17.5928 N   0  0  0  0  0  0  0  0  0  0  0  0
    8.9127   -0.8043   23.4548 N   0  0  0  0  0  0  0  0  0  0  0  0
   15.2117   -1.9713   22.5283 N   0  0  0  0  0  0  0  0  0  0  0  0
   15.3570    0.0593   24.1098 O   0  0  0  0  0  0  0  0  0  0  0  0
   15.0764   -2.2463   25.0862 O   0  0  0  0  0  0  0  0  0  0  0  0
   14.7920   -1.2808   24.0338 S   0  0  0  0  0  0  0  0  0  0  0  0
  1  3  2  0
  1 10  1  0
  2  4  1  0
  2 10  2  0
  3 11  1  0
  4 11  2  0
  5  6  2  0
  5  9  1  0
  6 18  1  0
  7  8  1  0
  7 18  2  0
  8  9  2  0
  8 16  1  0
  9 17  1  0
 10 19  1  0
 11 23  1  0
 12 14  1  0
 12 16  1  0
 13 15  1  0
 13 16  1  0
 14 19  1  0
 15 19  1  0
 20 23  1  0
 21 23  2  0
 22 23  2  0
M  END
