WAR-XCH-bdd24732-43
     RDKit          3D

 31 34  0  0  0  0  0  0  0  0999 V2000
    8.7997   -1.6890   23.4789 C   0  0  0  0  0  0  0  0  0  0  0  0
    9.2978   -0.6234   23.2356 C   0  0  0  0  0  0  0  0  0  0  0  0
   12.0793    6.6047   25.0796 C   0  0  0  0  0  0  0  0  0  0  0  0
   12.8140    5.9072   24.1209 C   0  0  0  0  0  0  0  0  0  0  0  0
   10.7474    6.2667   25.3196 C   0  0  0  0  0  0  0  0  0  0  0  0
    6.5674   -4.3239   24.8212 C   0  0  0  0  0  0  0  0  0  0  0  0
    7.1669   -5.4362   24.2409 C   0  0  0  0  0  0  0  0  0  0  0  0
    7.0898   -3.0571   24.5852 C   0  0  0  0  0  0  0  0  0  0  0  0
   12.2169    4.8717   23.4020 C   0  0  0  0  0  0  0  0  0  0  0  0
   10.1503    5.2312   24.6007 C   0  0  0  0  0  0  0  0  0  0  0  0
    8.2778   -5.2298   23.4389 C   0  0  0  0  0  0  0  0  0  0  0  0
    8.2043   -2.9573   23.7680 C   0  0  0  0  0  0  0  0  0  0  0  0
   10.8850    4.5336   23.6419 C   0  0  0  0  0  0  0  0  0  0  0  0
    8.9670    3.0130   23.0210 C   0  0  0  0  0  0  0  0  0  0  0  0
   12.8737    0.3091   23.0237 C   0  0  0  0  0  0  0  0  0  0  0  0
   12.0517    0.3532   24.3069 C   0  0  0  0  0  0  0  0  0  0  0  0
   12.0527   -0.2095   21.8486 C   0  0  0  0  0  0  0  0  0  0  0  0
    6.4526    1.2809   23.1632 C   0  0  0  0  0  0  0  0  0  0  0  0
    7.2914    1.7107   20.8169 C   0  0  0  0  0  0  0  0  0  0  0  0
    5.1350    0.7522   22.5956 C   0  0  0  0  0  0  0  0  0  0  0  0
    5.9729    1.1837   20.2489 C   0  0  0  0  0  0  0  0  0  0  0  0
   10.7660    1.1622   24.1266 C   0  0  0  0  0  0  0  0  0  0  0  0
   10.7670    0.5973   21.6580 C   0  0  0  0  0  0  0  0  0  0  0  0
    7.6079    1.0872   22.1786 C   0  0  0  0  0  0  0  0  0  0  0  0
    4.8127    1.3571   21.2286 C   0  0  0  0  0  0  0  0  0  0  0  0
    9.9095    0.6876   22.9358 C   0  0  0  0  0  0  0  0  0  0  0  0
    8.8139   -4.0146   23.1866 N   0  0  0  0  0  0  0  0  0  0  0  0
   10.2787    3.4815   22.9115 N   0  0  0  0  0  0  0  0  0  0  0  0
    8.8295    1.6329   22.7190 N   0  0  0  0  0  0  0  0  0  0  0  0
    8.0080    3.7073   23.3652 O   0  0  0  0  0  0  0  0  0  0  0  0
    4.5369    2.7491   21.3693 O   0  0  0  0  0  0  0  0  0  0  0  0
  1  2  3  0
  1 12  1  0
  2 26  1  0
  3  4  2  0
  3  5  1  0
  4  9  1  0
  5 10  2  0
  6  7  2  0
  6  8  1  0
  7 11  1  0
  8 12  2  0
  9 13  2  0
 10 13  1  0
 11 27  2  0
 12 27  1  0
 13 28  1  0
 14 28  1  0
 14 29  1  0
 14 30  2  0
 15 16  1  0
 15 17  1  0
 16 22  1  0
 17 23  1  0
 18 20  1  0
 18 24  1  0
 19 21  1  0
 19 24  1  0
 20 25  1  0
 21 25  1  0
 22 26  1  0
 23 26  1  0
 24 29  1  0
 25 31  1  0
 26 29  1  0
M  END
