WAR-XCH-b0339bbe-4
     RDKit          3D

 26 29  0  0  0  0  0  0  0  0999 V2000
   14.2660   -1.3684   25.4515 C   0  0  0  0  0  0  0  0  0  0  0  0
   13.9051   -2.4705   26.2208 C   0  0  0  0  0  0  0  0  0  0  0  0
    5.7776   -1.1072   22.9952 C   0  0  0  0  0  0  0  0  0  0  0  0
   13.4434   -0.9463   24.4067 C   0  0  0  0  0  0  0  0  0  0  0  0
   12.7202   -3.1548   25.9484 C   0  0  0  0  0  0  0  0  0  0  0  0
   11.4070   -1.2121   23.0706 C   0  0  0  0  0  0  0  0  0  0  0  0
    6.6820   -2.0284   23.5232 C   0  0  0  0  0  0  0  0  0  0  0  0
   10.2221   -1.8964   22.7982 C   0  0  0  0  0  0  0  0  0  0  0  0
    5.7241   -0.8931   21.6178 C   0  0  0  0  0  0  0  0  0  0  0  0
   10.6838   -3.4207   24.6123 C   0  0  0  0  0  0  0  0  0  0  0  0
    7.4797   -2.5215   21.2966 C   0  0  0  0  0  0  0  0  0  0  0  0
   12.2471   -1.6231   24.1183 C   0  0  0  0  0  0  0  0  0  0  0  0
   11.8801   -2.7439   24.9007 C   0  0  0  0  0  0  0  0  0  0  0  0
    9.8612   -2.9985   23.5675 C   0  0  0  0  0  0  0  0  0  0  0  0
    7.5331   -2.7356   22.6739 C   0  0  0  0  0  0  0  0  0  0  0  0
    6.5752   -1.6002   20.7686 C   0  0  0  0  0  0  0  0  0  0  0  0
    7.1393   -6.4789   23.3186 C   0  0  0  0  0  0  0  0  0  0  0  0
    7.7487   -5.9363   22.0359 C   0  0  0  0  0  0  0  0  0  0  0  0
    6.7415   -5.3514   24.2577 C   0  0  0  0  0  0  0  0  0  0  0  0
    8.8960   -4.9549   22.3050 C   0  0  0  0  0  0  0  0  0  0  0  0
    7.9308   -4.4330   24.5449 C   0  0  0  0  0  0  0  0  0  0  0  0
    8.5390   -3.7603   23.2622 C   0  0  0  0  0  0  0  0  0  0  0  0
    5.3452   -2.4918   18.5784 N   0  0  0  0  0  0  0  0  0  0  0  0
    5.9659   -0.0003   18.8083 O   0  0  0  0  0  0  0  0  0  0  0  0
    7.7943   -1.7002   18.4690 O   0  0  0  0  0  0  0  0  0  0  0  0
    6.5088   -1.3308   19.0450 S   0  0  0  0  0  0  0  0  0  0  0  0
  1  2  2  0
  1  4  1  0
  2  5  1  0
  3  7  2  0
  3  9  1  0
  4 12  2  0
  5 13  2  0
  6  8  2  0
  6 12  1  0
  7 15  1  0
  8 14  1  0
  9 16  2  0
 10 13  1  0
 10 14  2  0
 11 15  2  0
 11 16  1  0
 12 13  1  0
 14 22  1  0
 15 22  1  0
 16 26  1  0
 17 18  1  0
 17 19  1  0
 18 20  1  0
 19 21  1  0
 20 22  1  0
 21 22  1  0
 23 26  1  0
 24 26  2  0
 25 26  2  0
M  END
