WAR-XCH-b0339bbe-18
     RDKit          3D

 20 21  0  0  0  0  0  0  0  0999 V2000
   12.6226    0.9973   23.8044 C   0  0  0  0  0  0  0  0  0  0  0  0
    5.8399   -1.8728   19.0245 C   0  0  0  0  0  0  0  0  0  0  0  0
    9.4531   -0.6214   24.1877 C   0  0  0  0  0  0  0  0  0  0  0  0
   10.5947   -1.4912   22.1108 C   0  0  0  0  0  0  0  0  0  0  0  0
   10.8276   -0.3791   24.8083 C   0  0  0  0  0  0  0  0  0  0  0  0
   11.9466   -1.2284   22.7738 C   0  0  0  0  0  0  0  0  0  0  0  0
    6.7566   -3.1602   20.9280 C   0  0  0  0  0  0  0  0  0  0  0  0
    6.3706   -0.7466   21.2422 C   0  0  0  0  0  0  0  0  0  0  0  0
    8.1586   -3.0321   21.5054 C   0  0  0  0  0  0  0  0  0  0  0  0
    7.7671   -0.5824   21.8265 C   0  0  0  0  0  0  0  0  0  0  0  0
    9.5193   -1.7550   23.1646 C   0  0  0  0  0  0  0  0  0  0  0  0
   11.9967    2.2242   24.4181 C   0  0  0  0  0  0  0  0  0  0  0  0
    5.4078   -0.5312   18.4885 C   0  0  0  0  0  0  0  0  0  0  0  0
   11.8371   -0.1543   23.7702 N   0  0  0  0  0  0  0  0  0  0  0  0
    6.3148   -1.8979   20.3350 N   0  0  0  0  0  0  0  0  0  0  0  0
    8.1854   -1.8788   22.4834 N   0  0  0  0  0  0  0  0  0  0  0  0
   13.7758    1.0620   23.3708 O   0  0  0  0  0  0  0  0  0  0  0  0
    5.7594   -2.8666   18.2980 O   0  0  0  0  0  0  0  0  0  0  0  0
   12.7398    3.6143   23.6350 Cl  0  0  0  0  0  0  0  0  0  0  0  0
    6.8371    0.2120   17.7796 Cl  0  0  0  0  0  0  0  0  0  0  0  0
  1 12  1  0
  1 14  1  0
  1 17  2  0
  2 13  1  0
  2 15  1  0
  2 18  2  0
  3  5  1  0
  3 11  1  0
  4  6  1  0
  4 11  1  0
  5 14  1  0
  6 14  1  0
  7  9  1  0
  7 15  1  0
  8 10  1  0
  8 15  1  0
  9 16  1  0
 10 16  1  0
 11 16  1  0
 12 19  1  0
 13 20  1  0
M  CHG  1  16   1
M  END
