WAR-XCH-79d12f6e-1
     RDKit          3D

 21 22  0  0  0  0  0  0  0  0999 V2000
    3.5567    1.7093   20.2639 C   0  0  0  0  0  0  0  0  0  0  0  0
    3.8706    1.3218   21.5666 C   0  0  0  0  0  0  0  0  0  0  0  0
    4.4830    1.5213   19.2380 C   0  0  0  0  0  0  0  0  0  0  0  0
   13.3606   -1.9135   23.5062 C   0  0  0  0  0  0  0  0  0  0  0  0
    5.1108    0.7466   21.8434 C   0  0  0  0  0  0  0  0  0  0  0  0
    5.7232    0.9461   19.5149 C   0  0  0  0  0  0  0  0  0  0  0  0
   12.0022   -2.0849   23.2400 C   0  0  0  0  0  0  0  0  0  0  0  0
   13.1591    0.4438   23.0165 C   0  0  0  0  0  0  0  0  0  0  0  0
   13.9391   -0.6491   23.3945 C   0  0  0  0  0  0  0  0  0  0  0  0
   11.8007    0.2723   22.7502 C   0  0  0  0  0  0  0  0  0  0  0  0
    6.0371    0.5587   20.8176 C   0  0  0  0  0  0  0  0  0  0  0  0
   11.2222   -0.9920   22.8620 C   0  0  0  0  0  0  0  0  0  0  0  0
    8.3092   -0.2760   20.2059 C   0  0  0  0  0  0  0  0  0  0  0  0
   15.3919   -0.4663   23.6793 C   0  0  0  0  0  0  0  0  0  0  0  0
   10.9934    1.4632   22.3485 C   0  0  0  0  0  0  0  0  0  0  0  0
    7.2812   -0.0186   21.0955 N   0  0  0  0  0  0  0  0  0  0  0  0
    9.4332   -0.8775   20.8644 N   0  0  0  0  0  0  0  0  0  0  0  0
    8.3188   -0.0462   19.0028 O   0  0  0  0  0  0  0  0  0  0  0  0
    8.7511   -0.2534   23.2763 O   0  0  0  0  0  0  0  0  0  0  0  0
    9.2448   -2.6592   22.7222 O   0  0  0  0  0  0  0  0  0  0  0  0
    9.5212   -1.2425   22.5361 S   0  0  0  0  0  0  0  0  0  0  0  0
  1  2  2  0
  1  3  1  0
  2  5  1  0
  3  6  2  0
  4  7  2  0
  4  9  1  0
  5 11  2  0
  6 11  1  0
  7 12  1  0
  8  9  2  0
  8 10  1  0
  9 14  1  0
 10 12  2  0
 10 15  1  0
 11 16  1  0
 12 21  1  0
 13 16  1  0
 13 17  1  0
 13 18  2  0
 17 21  1  0
 19 21  2  0
 20 21  2  0
M  END
