WAR-XCH-bdd24732-16
     RDKit          3D

 26 29  0  0  1  0  0  0  0  0999 V2000
   12.0647    0.2821   24.3955 C   0  0  0  0  0  0  0  0  0  0  0  0
   12.1885    1.2843   23.4398 C   0  0  0  0  0  0  0  0  0  0  0  0
    6.4173    0.8378   18.2860 C   0  0  0  0  0  0  0  0  0  0  0  0
   11.0586   -0.6701   24.2653 C   0  0  0  0  0  0  0  0  0  0  0  0
    7.2849    0.7981   19.3719 C   0  0  0  0  0  0  0  0  0  0  0  0
   11.3066    1.3323   22.3561 C   0  0  0  0  0  0  0  0  0  0  0  0
    5.8988   -0.3619   17.8260 C   0  0  0  0  0  0  0  0  0  0  0  0
    7.0312   -1.5661   19.4216 C   0  0  0  0  0  0  0  0  0  0  0  0
   10.1758   -0.6150   23.1728 C   0  0  0  0  0  0  0  0  0  0  0  0
    7.6029   -0.4228   19.9563 C   0  0  0  0  0  0  0  0  0  0  0  0
   10.2907    0.3923   22.2009 C   0  0  0  0  0  0  0  0  0  0  0  0
    9.1491   -1.5359   22.9836 C   0  0  0  0  0  0  0  0  0  0  0  0
    8.4984   -0.4966   21.0813 C   0  0  0  0  0  0  0  0  0  0  0  0
    5.7122   -3.8900   22.4665 C   0  0  0  0  0  0  0  0  0  0  0  0
    9.2013   -4.8320   22.6079 C   0  0  0  0  0  0  0  0  0  0  0  0
    9.7950   -3.9052   23.6657 C   0  0  0  0  0  0  0  0  0  0  0  0
    7.7580   -5.1911   22.9355 C   0  0  0  0  0  0  0  0  0  0  0  0
    7.4286   -3.0518   24.1420 C   0  0  0  0  0  0  0  0  0  0  0  0
    8.9133   -2.6821   23.9680 C   0  0  0  0  0  0  0  0  0  0  0  0
    4.6390   -3.0833   23.1536 C   0  0  0  0  0  0  0  0  0  0  0  0
    6.1844   -1.5671   18.3677 N   0  0  0  0  0  0  0  0  0  0  0  0
    9.4520    0.4542   21.1519 N   0  0  0  0  0  0  0  0  0  0  0  0
    8.2922   -1.5031   21.9458 N   0  0  0  0  0  0  0  0  0  0  0  0
    6.9377   -3.9951   23.1283 N   0  0  0  0  0  0  0  0  0  0  0  0
    5.4691   -4.4067   21.3729 O   0  0  0  0  0  0  0  0  0  0  0  0
    4.3110   -3.8831   24.6868 Cl  0  0  0  0  0  0  0  0  0  0  0  0
  1  2  2  0
  1  4  1  0
  2  6  1  0
  3  5  2  0
  3  7  1  0
  4  9  2  0
  5 10  1  0
  6 11  2  0
  7 21  2  0
  8 10  2  0
  8 21  1  0
  9 11  1  0
  9 12  1  0
 10 13  1  0
 11 22  1  0
 12 19  1  0
 12 23  2  0
 13 22  2  0
 13 23  1  0
 14 20  1  0
 14 24  1  0
 14 25  2  0
 15 16  1  0
 15 17  1  0
 16 19  1  0
 17 24  1  0
 18 19  1  0
 18 24  1  0
 20 26  1  0
M  END
