WAR-XCH-b0339bbe-3
     RDKit          3D

 21 23  0  0  0  0  0  0  0  0999 V2000
   13.2941    0.1434   22.4928 C   0  0  0  0  0  0  0  0  0  0  0  0
   13.3918   -1.0946   21.8654 C   0  0  0  0  0  0  0  0  0  0  0  0
   12.2065    0.3930   23.3301 C   0  0  0  0  0  0  0  0  0  0  0  0
   11.2689   -0.6358   23.4866 C   0  0  0  0  0  0  0  0  0  0  0  0
   11.4896   -1.8220   22.8005 C   0  0  0  0  0  0  0  0  0  0  0  0
    9.6386   -1.9173   23.9889 C   0  0  0  0  0  0  0  0  0  0  0  0
    6.2162   -1.4309   19.5923 C   0  0  0  0  0  0  0  0  0  0  0  0
    7.6271   -3.3791   22.3109 C   0  0  0  0  0  0  0  0  0  0  0  0
    6.8959   -1.0975   23.0916 C   0  0  0  0  0  0  0  0  0  0  0  0
    6.5333   -3.3379   21.2449 C   0  0  0  0  0  0  0  0  0  0  0  0
    5.8165   -1.1038   22.0117 C   0  0  0  0  0  0  0  0  0  0  0  0
    7.2496   -2.5262   23.5316 C   0  0  0  0  0  0  0  0  0  0  0  0
   12.0860    1.7151   24.0105 C   0  0  0  0  0  0  0  0  0  0  0  0
    8.3806   -2.5148   24.5571 C   0  0  0  0  0  0  0  0  0  0  0  0
    5.8465    0.0238   19.4482 C   0  0  0  0  0  0  0  0  0  0  0  0
   12.5135   -2.1200   21.9838 N   0  0  0  0  0  0  0  0  0  0  0  0
   10.1113   -0.7112   24.2225 N   0  0  0  0  0  0  0  0  0  0  0  0
   10.4380   -2.6279   23.1341 N   0  0  0  0  0  0  0  0  0  0  0  0
    6.2091   -1.9524   20.8855 N   0  0  0  0  0  0  0  0  0  0  0  0
    6.5002   -2.0832   18.5843 O   0  0  0  0  0  0  0  0  0  0  0  0
    5.9749    0.4091   17.7356 Cl  0  0  0  0  0  0  0  0  0  0  0  0
  1  2  2  0
  1  3  1  0
  2 16  1  0
  3  4  2  0
  3 13  1  0
  4  5  1  0
  4 17  1  0
  5 16  2  0
  5 18  1  0
  6 14  1  0
  6 17  2  0
  6 18  1  0
  7 15  1  0
  7 19  1  0
  7 20  2  0
  8 10  1  0
  8 12  1  0
  9 11  1  0
  9 12  1  0
 10 19  1  0
 11 19  1  0
 12 14  1  0
 15 21  1  0
M  END
