WAR-XCH-b0339bbe-1
     RDKit          3D

 23 26  0  0  0  0  0  0  0  0999 V2000
   13.9507   -2.5319   22.9676 C   0  0  0  0  0  0  0  0  0  0  0  0
   12.6648   -2.1705   22.5815 C   0  0  0  0  0  0  0  0  0  0  0  0
    5.4463    0.8346   18.7957 C   0  0  0  0  0  0  0  0  0  0  0  0
   14.6329   -1.6837   23.8249 C   0  0  0  0  0  0  0  0  0  0  0  0
    6.1663    0.2512   17.7578 C   0  0  0  0  0  0  0  0  0  0  0  0
   12.8728   -0.2097   23.9113 C   0  0  0  0  0  0  0  0  0  0  0  0
   12.1082   -0.9886   23.0578 C   0  0  0  0  0  0  0  0  0  0  0  0
    6.0940    1.0989   20.0027 C   0  0  0  0  0  0  0  0  0  0  0  0
    7.4486    0.7539   20.0921 C   0  0  0  0  0  0  0  0  0  0  0  0
    8.0440    0.1771   18.9788 C   0  0  0  0  0  0  0  0  0  0  0  0
    9.4791    0.3872   20.6352 C   0  0  0  0  0  0  0  0  0  0  0  0
    8.7342   -1.6711   24.6807 C   0  0  0  0  0  0  0  0  0  0  0  0
    9.3290   -2.5546   23.5906 C   0  0  0  0  0  0  0  0  0  0  0  0
    9.6346   -0.4839   25.0006 C   0  0  0  0  0  0  0  0  0  0  0  0
    9.7102   -1.7449   22.3473 C   0  0  0  0  0  0  0  0  0  0  0  0
    9.9768    0.3099   23.7387 C   0  0  0  0  0  0  0  0  0  0  0  0
   10.6704   -0.5556   22.6452 C   0  0  0  0  0  0  0  0  0  0  0  0
    5.3370    1.7239   21.1259 C   0  0  0  0  0  0  0  0  0  0  0  0
   10.7944    0.2872   21.3534 C   0  0  0  0  0  0  0  0  0  0  0  0
   14.1253   -0.5278   24.3084 N   0  0  0  0  0  0  0  0  0  0  0  0
    7.4747   -0.1006   17.7943 N   0  0  0  0  0  0  0  0  0  0  0  0
    8.3562    0.8779   21.1158 N   0  0  0  0  0  0  0  0  0  0  0  0
    9.3406   -0.0497   19.3451 N   0  0  0  0  0  0  0  0  0  0  0  0
  1  2  2  0
  1  4  1  0
  2  7  1  0
  3  5  2  0
  3  8  1  0
  4 20  2  0
  5 21  1  0
  6  7  2  0
  6 20  1  0
  7 17  1  0
  8  9  2  0
  8 18  1  0
  9 10  1  0
  9 22  1  0
 10 21  2  0
 10 23  1  0
 11 19  1  0
 11 22  2  0
 11 23  1  0
 12 13  1  0
 12 14  1  0
 13 15  1  0
 14 16  1  0
 15 17  1  0
 16 17  1  0
 17 19  1  0
M  END
