WAR-XCH-b6889685-29
     RDKit          3D

 23 25  0  0  0  0  0  0  0  0999 V2000
   13.4187   -0.6772   24.5369 C   0  0  0  0  0  0  0  0  0  0  0  0
   12.3655    0.2373   24.5294 C   0  0  0  0  0  0  0  0  0  0  0  0
   13.3924   -1.7784   23.6811 C   0  0  0  0  0  0  0  0  0  0  0  0
    6.9911   -3.8885   26.4973 C   0  0  0  0  0  0  0  0  0  0  0  0
    6.1769   -5.4659   24.8584 C   0  0  0  0  0  0  0  0  0  0  0  0
   11.2859    0.0506   23.6661 C   0  0  0  0  0  0  0  0  0  0  0  0
   12.3128   -1.9651   22.8178 C   0  0  0  0  0  0  0  0  0  0  0  0
    6.4027   -4.6409   27.5138 C   0  0  0  0  0  0  0  0  0  0  0  0
    5.5886   -6.2184   25.8749 C   0  0  0  0  0  0  0  0  0  0  0  0
    6.8781   -4.3009   25.1696 C   0  0  0  0  0  0  0  0  0  0  0  0
   11.2595   -1.0506   22.8103 C   0  0  0  0  0  0  0  0  0  0  0  0
    5.7015   -5.8058   27.2026 C   0  0  0  0  0  0  0  0  0  0  0  0
    8.2982   -1.3477   23.4995 C   0  0  0  0  0  0  0  0  0  0  0  0
    9.3637   -3.4427   22.6201 C   0  0  0  0  0  0  0  0  0  0  0  0
    7.0784   -2.1616   23.9330 C   0  0  0  0  0  0  0  0  0  0  0  0
    8.1259   -4.2295   23.0433 C   0  0  0  0  0  0  0  0  0  0  0  0
    9.0107   -1.9872   22.3069 C   0  0  0  0  0  0  0  0  0  0  0  0
    7.4587   -3.5585   24.1658 N   0  0  0  0  0  0  0  0  0  0  0  0
    6.2385   -7.8156   28.8692 N   0  0  0  0  0  0  0  0  0  0  0  0
   10.1902   -1.2359   21.9548 N   0  0  0  0  0  0  0  0  0  0  0  0
    4.7162   -5.8717   29.6106 O   0  0  0  0  0  0  0  0  0  0  0  0
    3.8688   -7.5190   27.9030 O   0  0  0  0  0  0  0  0  0  0  0  0
    4.9642   -6.7480   28.4743 S   0  0  0  0  0  0  0  0  0  0  0  0
  1  2  2  0
  1  3  1  0
  2  6  1  0
  3  7  2  0
  4  8  2  0
  4 10  1  0
  5  9  1  0
  5 10  2  0
  6 11  2  0
  7 11  1  0
  8 12  1  0
  9 12  2  0
 10 18  1  0
 11 20  1  0
 12 23  1  0
 13 15  1  0
 13 17  1  0
 14 16  1  0
 14 17  1  0
 15 18  1  0
 16 18  1  0
 17 20  1  0
 19 23  1  0
 21 23  2  0
 22 23  2  0
M  END
