WAR-XCH-b0339bbe-15
     RDKit          3D

 25 28  0  0  0  0  0  0  0  0999 V2000
    4.6491   -5.5412   25.7486 C   0  0  0  0  0  0  0  0  0  0  0  0
    5.0486   -6.1215   24.5484 C   0  0  0  0  0  0  0  0  0  0  0  0
    5.3781   -4.4814   26.2889 C   0  0  0  0  0  0  0  0  0  0  0  0
    6.1787   -5.6443   23.8839 C   0  0  0  0  0  0  0  0  0  0  0  0
    7.2638   -2.9223   26.1628 C   0  0  0  0  0  0  0  0  0  0  0  0
    8.3939   -2.4452   25.4983 C   0  0  0  0  0  0  0  0  0  0  0  0
    5.3424    0.7273   19.4643 C   0  0  0  0  0  0  0  0  0  0  0  0
   10.5496   -0.1080   23.0841 C   0  0  0  0  0  0  0  0  0  0  0  0
    8.0645   -4.0853   23.7578 C   0  0  0  0  0  0  0  0  0  0  0  0
    8.7677   -1.1607   21.8589 C   0  0  0  0  0  0  0  0  0  0  0  0
    5.7359    0.4175   18.1724 C   0  0  0  0  0  0  0  0  0  0  0  0
   10.2956    1.0443   22.3579 C   0  0  0  0  0  0  0  0  0  0  0  0
    7.8682   -0.1029   18.8511 C   0  0  0  0  0  0  0  0  0  0  0  0
    6.5181   -3.9883   25.6336 C   0  0  0  0  0  0  0  0  0  0  0  0
    6.9244   -4.5784   24.4131 C   0  0  0  0  0  0  0  0  0  0  0  0
    7.5747    0.1828   20.1747 C   0  0  0  0  0  0  0  0  0  0  0  0
    8.7935   -3.0255   24.2981 C   0  0  0  0  0  0  0  0  0  0  0  0
    9.7666   -1.2272   22.8238 C   0  0  0  0  0  0  0  0  0  0  0  0
    6.2854    0.6051   20.4788 C   0  0  0  0  0  0  0  0  0  0  0  0
    8.5933    0.0389   21.1877 C   0  0  0  0  0  0  0  0  0  0  0  0
   10.0019   -2.5138   23.5889 C   0  0  0  0  0  0  0  0  0  0  0  0
    5.8800    0.9361   21.8785 C   0  0  0  0  0  0  0  0  0  0  0  0
    6.9790    0.0040   17.8384 N   0  0  0  0  0  0  0  0  0  0  0  0
    9.3343    1.1470   21.4130 N   0  0  0  0  0  0  0  0  0  0  0  0
    5.7956    2.3477   22.0214 O   0  0  0  0  0  0  0  0  0  0  0  0
  1  2  2  0
  1  3  1  0
  2  4  1  0
  3 14  2  0
  4 15  2  0
  5  6  2  0
  5 14  1  0
  6 17  1  0
  7 11  2  0
  7 19  1  0
  8 12  2  0
  8 18  1  0
  9 15  1  0
  9 17  2  0
 10 18  2  0
 10 20  1  0
 11 23  1  0
 12 24  1  0
 13 16  1  0
 13 23  2  0
 14 15  1  0
 16 19  2  0
 16 20  1  0
 17 21  1  0
 18 21  1  0
 19 22  1  0
 20 24  2  0
 22 25  1  0
M  END
