WAR-XCH-bdd24732-45
     RDKit          3D

 30 33  0  0  0  0  0  0  0  0999 V2000
   10.2242   -2.2446   23.1580 C   0  0  0  0  0  0  0  0  0  0  0  0
   11.1667   -1.5327   22.9397 C   0  0  0  0  0  0  0  0  0  0  0  0
    7.0497   -3.5907   24.5137 C   0  0  0  0  0  0  0  0  0  0  0  0
    7.0098   -4.7968   23.8230 C   0  0  0  0  0  0  0  0  0  0  0  0
    8.1114   -2.7156   24.3128 C   0  0  0  0  0  0  0  0  0  0  0  0
    5.6458   -0.1843   18.9459 C   0  0  0  0  0  0  0  0  0  0  0  0
    8.7097    2.1993   23.8510 C   0  0  0  0  0  0  0  0  0  0  0  0
    8.0478   -5.0785   22.9495 C   0  0  0  0  0  0  0  0  0  0  0  0
    6.5121   -0.3250   17.8738 C   0  0  0  0  0  0  0  0  0  0  0  0
    9.0170    2.1811   25.2019 C   0  0  0  0  0  0  0  0  0  0  0  0
    8.2140    0.7358   18.9946 C   0  0  0  0  0  0  0  0  0  0  0  0
   11.0751    1.2373   24.8125 C   0  0  0  0  0  0  0  0  0  0  0  0
    9.1002   -3.0907   23.4175 C   0  0  0  0  0  0  0  0  0  0  0  0
    6.1199    0.4545   20.0863 C   0  0  0  0  0  0  0  0  0  0  0  0
    9.6563    1.7032   22.9615 C   0  0  0  0  0  0  0  0  0  0  0  0
    7.4274    0.9263   20.1192 C   0  0  0  0  0  0  0  0  0  0  0  0
   10.8642    1.2111   23.4433 C   0  0  0  0  0  0  0  0  0  0  0  0
   14.7333   -2.4197   22.4982 C   0  0  0  0  0  0  0  0  0  0  0  0
   14.0897   -2.1029   23.8434 C   0  0  0  0  0  0  0  0  0  0  0  0
   13.7162   -2.3701   21.3637 C   0  0  0  0  0  0  0  0  0  0  0  0
   13.3526   -0.7628   23.8154 C   0  0  0  0  0  0  0  0  0  0  0  0
   12.9777   -1.0309   21.3253 C   0  0  0  0  0  0  0  0  0  0  0  0
   12.3254   -0.6562   22.6708 C   0  0  0  0  0  0  0  0  0  0  0  0
    5.2081    0.6190   21.2576 C   0  0  0  0  0  0  0  0  0  0  0  0
    9.3521    1.7115   21.4994 C   0  0  0  0  0  0  0  0  0  0  0  0
    7.7885    0.1202   17.8687 N   0  0  0  0  0  0  0  0  0  0  0  0
   10.1794    1.7113   25.7074 N   0  0  0  0  0  0  0  0  0  0  0  0
    9.0957   -4.2536   22.7282 N   0  0  0  0  0  0  0  0  0  0  0  0
   11.8326    0.7072   22.5983 N   0  0  0  0  0  0  0  0  0  0  0  0
    7.9435    1.5714   21.2343 N   0  0  0  0  0  0  0  0  0  0  0  0
  1  2  3  0
  1 13  1  0
  2 23  1  0
  3  4  2  0
  3  5  1  0
  4  8  1  0
  5 13  2  0
  6  9  2  0
  6 14  1  0
  7 10  2  0
  7 15  1  0
  8 28  2  0
  9 26  1  0
 10 27  1  0
 11 16  1  0
 11 26  2  0
 12 17  1  0
 12 27  2  0
 13 28  1  0
 14 16  2  0
 14 24  1  0
 15 17  2  0
 15 25  1  0
 16 30  1  0
 17 29  1  0
 18 19  1  0
 18 20  1  0
 19 21  1  0
 20 22  1  0
 21 23  1  0
 22 23  1  0
 23 29  1  0
 25 30  1  0
M  END
