WAR-XCH-b0339bbe-10
     RDKit          3D

 24 26  0  0  0  0  0  0  0  0999 V2000
    7.6508   -3.9182   23.2054 C   0  0  0  0  0  0  0  0  0  0  0  0
    7.8307   -2.7695   22.9054 C   0  0  0  0  0  0  0  0  0  0  0  0
    5.5365    1.0989   19.3875 C   0  0  0  0  0  0  0  0  0  0  0  0
    5.6270    1.0705   20.7592 C   0  0  0  0  0  0  0  0  0  0  0  0
    3.6836    1.8266   20.3328 C   0  0  0  0  0  0  0  0  0  0  0  0
    6.5854    0.6836   18.3648 C   0  0  0  0  0  0  0  0  0  0  0  0
   10.6441   -0.5562   23.7997 C   0  0  0  0  0  0  0  0  0  0  0  0
    6.2399   -5.3794   25.6681 C   0  0  0  0  0  0  0  0  0  0  0  0
    5.3551   -6.0781   24.6506 C   0  0  0  0  0  0  0  0  0  0  0  0
    9.3805   -0.7160   24.6374 C   0  0  0  0  0  0  0  0  0  0  0  0
   10.6179   -1.4519   22.5663 C   0  0  0  0  0  0  0  0  0  0  0  0
    7.6318   -5.5416   25.0757 C   0  0  0  0  0  0  0  0  0  0  0  0
    5.9785   -5.7492   23.2945 C   0  0  0  0  0  0  0  0  0  0  0  0
    8.1175   -0.4790   23.8064 C   0  0  0  0  0  0  0  0  0  0  0  0
    9.3611   -1.2188   21.7248 C   0  0  0  0  0  0  0  0  0  0  0  0
    7.4301   -5.3272   23.5733 C   0  0  0  0  0  0  0  0  0  0  0  0
    8.0531   -1.3521   22.5345 C   0  0  0  0  0  0  0  0  0  0  0  0
    6.7847    0.6230   21.6155 C   0  0  0  0  0  0  0  0  0  0  0  0
    6.8682   -0.8976   21.6651 C   0  0  0  0  0  0  0  0  0  0  0  0
    4.4703    1.5244   21.3417 N   0  0  0  0  0  0  0  0  0  0  0  0
    4.2858    1.5851   19.1294 N   0  0  0  0  0  0  0  0  0  0  0  0
    6.2694    0.8005   17.1463 O   0  0  0  0  0  0  0  0  0  0  0  0
    7.6850    0.2560   18.8190 O   0  0  0  0  0  0  0  0  0  0  0  0
    2.1078    2.4420   20.3758 Cl  0  0  0  0  0  0  0  0  0  0  0  0
  1  2  3  0
  1 16  1  0
  2 17  1  0
  3  4  2  0
  3  6  1  0
  3 21  1  0
  4 18  1  0
  4 20  1  0
  5 20  2  0
  5 21  1  0
  5 24  1  0
  6 22  1  0
  6 23  2  0
  7 10  1  0
  7 11  1  0
  8  9  1  0
  8 12  1  0
  9 13  1  0
 10 14  1  0
 11 15  1  0
 12 16  1  0
 13 16  1  0
 14 17  1  0
 15 17  1  0
 17 19  1  0
 18 19  1  0
M  CHG  1  22  -1
M  END
