WAR-XCH-b6889685-14
     RDKit          3D

 29 32  0  0  0  0  0  0  0  0999 V2000
    5.8015   -5.6843   25.2611 C   0  0  0  0  0  0  0  0  0  0  0  0
    7.1129   -4.2322   26.6783 C   0  0  0  0  0  0  0  0  0  0  0  0
    5.4370   -6.4416   26.3743 C   0  0  0  0  0  0  0  0  0  0  0  0
    6.7484   -4.9894   27.7915 C   0  0  0  0  0  0  0  0  0  0  0  0
   12.9517    4.4075   22.7139 C   0  0  0  0  0  0  0  0  0  0  0  0
   12.5854    5.7290   23.1006 C   0  0  0  0  0  0  0  0  0  0  0  0
    6.6395   -4.5796   25.4131 C   0  0  0  0  0  0  0  0  0  0  0  0
    5.9104   -6.0942   27.6395 C   0  0  0  0  0  0  0  0  0  0  0  0
   12.0917    3.4613   23.2265 C   0  0  0  0  0  0  0  0  0  0  0  0
   11.4591    5.7425   23.8938 C   0  0  0  0  0  0  0  0  0  0  0  0
    9.2080   -4.0297   23.2635 C   0  0  0  0  0  0  0  0  0  0  0  0
    8.5299   -1.9295   24.5043 C   0  0  0  0  0  0  0  0  0  0  0  0
   12.3050    1.2921   24.4147 C   0  0  0  0  0  0  0  0  0  0  0  0
   10.8552    1.4931   22.3546 C   0  0  0  0  0  0  0  0  0  0  0  0
    7.7280   -4.4023   23.1688 C   0  0  0  0  0  0  0  0  0  0  0  0
    7.0646   -2.3606   24.3805 C   0  0  0  0  0  0  0  0  0  0  0  0
   12.2773   -0.2245   24.2745 C   0  0  0  0  0  0  0  0  0  0  0  0
   10.8388   -0.0251   22.2299 C   0  0  0  0  0  0  0  0  0  0  0  0
   12.1311    1.9875   23.0549 C   0  0  0  0  0  0  0  0  0  0  0  0
    9.3855   -2.5043   23.3619 C   0  0  0  0  0  0  0  0  0  0  0  0
   10.8564   -2.1402   23.5492 C   0  0  0  0  0  0  0  0  0  0  0  0
    7.0033   -3.8241   24.3032 N   0  0  0  0  0  0  0  0  0  0  0  0
    6.7095   -8.2017   29.0623 N   0  0  0  0  0  0  0  0  0  0  0  0
   10.9937   -0.6433   23.5987 N   0  0  0  0  0  0  0  0  0  0  0  0
    5.5659   -6.2006   30.2170 O   0  0  0  0  0  0  0  0  0  0  0  0
    4.1992   -7.7190   28.7424 O   0  0  0  0  0  0  0  0  0  0  0  0
   10.8486    4.1666   24.1696 S   0  0  0  0  0  0  0  0  0  0  0  0
    5.4552   -7.0418   29.0335 S   0  0  0  0  0  0  0  0  0  0  0  0
   10.6730    7.1025   24.5792 Cl  0  0  0  0  0  0  0  0  0  0  0  0
  1  3  2  0
  1  7  1  0
  2  4  1  0
  2  7  2  0
  3  8  1  0
  4  8  2  0
  5  6  1  0
  5  9  2  0
  6 10  2  0
  7 22  1  0
  8 28  1  0
  9 19  1  0
  9 27  1  0
 10 27  1  0
 10 29  1  0
 11 15  1  0
 11 20  1  0
 12 16  1  0
 12 20  1  0
 13 17  1  0
 13 19  1  0
 14 18  1  0
 14 19  1  0
 15 22  1  0
 16 22  1  0
 17 24  1  0
 18 24  1  0
 20 21  1  0
 21 24  1  0
 23 28  1  0
 25 28  2  0
 26 28  2  0
M  CHG  1  24   1
M  END
