WAR-XCH-b6889685-59
     RDKit          3D

 25 27  0  0  1  0  0  0  0  0999 V2000
    8.9185    7.2976   24.1462 C   0  0  0  0  0  0  0  0  0  0  0  0
    8.8694    6.4889   23.0107 C   0  0  0  0  0  0  0  0  0  0  0  0
   10.0416    7.2714   24.9731 C   0  0  0  0  0  0  0  0  0  0  0  0
   11.1220   -1.6212   23.6343 C   0  0  0  0  0  0  0  0  0  0  0  0
    9.0900   -0.4781   24.2677 C   0  0  0  0  0  0  0  0  0  0  0  0
    9.9433    5.6540   22.7022 C   0  0  0  0  0  0  0  0  0  0  0  0
   10.4418   -2.8388   23.6495 C   0  0  0  0  0  0  0  0  0  0  0  0
    8.4098   -1.6957   24.2828 C   0  0  0  0  0  0  0  0  0  0  0  0
   11.1155    6.4364   24.6645 C   0  0  0  0  0  0  0  0  0  0  0  0
   10.4462   -0.4408   23.9434 C   0  0  0  0  0  0  0  0  0  0  0  0
   11.0664    5.6277   23.5291 C   0  0  0  0  0  0  0  0  0  0  0  0
    9.0857   -2.8761   23.9737 C   0  0  0  0  0  0  0  0  0  0  0  0
   12.2559    2.4357   22.5370 C   0  0  0  0  0  0  0  0  0  0  0  0
   10.9901    3.1226   24.5920 C   0  0  0  0  0  0  0  0  0  0  0  0
   12.2548    0.9887   23.0317 C   0  0  0  0  0  0  0  0  0  0  0  0
   11.0206    1.6745   25.0741 C   0  0  0  0  0  0  0  0  0  0  0  0
   12.1921    3.4305   23.6968 C   0  0  0  0  0  0  0  0  0  0  0  0
   12.3057    6.4285   25.5678 C   0  0  0  0  0  0  0  0  0  0  0  0
   13.2138    5.2556   22.3415 C   0  0  0  0  0  0  0  0  0  0  0  0
   11.1172    0.7614   23.9286 N   0  0  0  0  0  0  0  0  0  0  0  0
    6.6642   -3.8895   24.4367 N   0  0  0  0  0  0  0  0  0  0  0  0
   12.1336    4.7846   23.2043 N   0  0  0  0  0  0  0  0  0  0  0  0
    8.1919   -4.9208   22.6344 O   0  0  0  0  0  0  0  0  0  0  0  0
    8.7782   -5.2205   25.0663 O   0  0  0  0  0  0  0  0  0  0  0  0
    8.2335   -4.3998   23.9936 S   0  0  0  0  0  0  0  0  0  0  0  0
  1  2  2  0
  1  3  1  0
  2  6  1  0
  3  9  2  0
  4  7  2  0
  4 10  1  0
  5  8  1  0
  5 10  2  0
  6 11  2  0
  7 12  1  0
  8 12  2  0
  9 11  1  0
  9 18  1  0
 10 20  1  0
 11 22  1  0
 12 25  1  0
 13 15  1  0
 13 17  1  0
 14 16  1  0
 14 17  1  0
 15 20  1  0
 16 20  1  0
 17 22  1  0
 19 22  1  0
 21 25  1  0
 23 25  2  0
 24 25  2  0
M  END
