WAR-XCH-b72a1bbc-39
     RDKit          3D

 20 21  0  0  0  0  0  0  0  0999 V2000
   12.9343    2.1353   22.8541 C   0  0  0  0  0  0  0  0  0  0  0  0
   11.4266    1.3839   24.5860 C   0  0  0  0  0  0  0  0  0  0  0  0
   12.2793    3.3663   22.8180 C   0  0  0  0  0  0  0  0  0  0  0  0
   10.7717    2.6149   24.5500 C   0  0  0  0  0  0  0  0  0  0  0  0
   12.5079    1.1440   23.7381 C   0  0  0  0  0  0  0  0  0  0  0  0
   11.1981    3.6061   23.6660 C   0  0  0  0  0  0  0  0  0  0  0  0
   12.2156   -2.0838   22.7301 C   0  0  0  0  0  0  0  0  0  0  0  0
   12.4046   -1.8786   25.2466 C   0  0  0  0  0  0  0  0  0  0  0  0
   13.2434   -0.9588   22.6024 C   0  0  0  0  0  0  0  0  0  0  0  0
   13.4265   -0.7534   25.0521 C   0  0  0  0  0  0  0  0  0  0  0  0
   12.3998   -2.8490   24.0525 C   0  0  0  0  0  0  0  0  0  0  0  0
    7.2033   -4.2867   24.4667 C   0  0  0  0  0  0  0  0  0  0  0  0
   11.3157   -3.9109   24.2204 C   0  0  0  0  0  0  0  0  0  0  0  0
    8.6795   -4.6336   24.4298 C   0  0  0  0  0  0  0  0  0  0  0  0
   13.1607   -0.0837   23.7744 N   0  0  0  0  0  0  0  0  0  0  0  0
    9.1765    4.8413   22.4443 N   0  0  0  0  0  0  0  0  0  0  0  0
    9.7302    5.3599   24.9081 O   0  0  0  0  0  0  0  0  0  0  0  0
   11.2986    6.1466   23.1000 O   0  0  0  0  0  0  0  0  0  0  0  0
    9.6778   -3.1406   24.2201 S   0  0  0  0  0  0  0  0  0  0  0  0
   10.3772    5.1464   23.6211 S   0  0  0  0  0  0  0  0  0  0  0  0
  1  3  2  0
  1  5  1  0
  2  4  1  0
  2  5  2  0
  3  6  1  0
  4  6  2  0
  5 15  1  0
  6 20  1  0
  7  9  1  0
  7 11  1  0
  8 10  1  0
  8 11  1  0
  9 15  1  0
 10 15  1  0
 11 13  1  0
 12 14  1  0
 13 19  1  0
 14 19  1  0
 16 20  1  0
 17 20  2  0
 18 20  2  0
M  END
