WAR-XCH-b0339bbe-9
     RDKit          3D

 29 32  0  0  0  0  0  0  0  0999 V2000
    8.4012    3.8508   22.2649 C   0  0  0  0  0  0  0  0  0  0  0  0
    7.7457    2.8673   22.0527 C   0  0  0  0  0  0  0  0  0  0  0  0
   14.4489   -1.8281   24.1566 C   0  0  0  0  0  0  0  0  0  0  0  0
   14.3016   -0.4595   24.3816 C   0  0  0  0  0  0  0  0  0  0  0  0
   13.5856   -2.4881   23.2820 C   0  0  0  0  0  0  0  0  0  0  0  0
   13.2909    0.2493   23.7321 C   0  0  0  0  0  0  0  0  0  0  0  0
   12.5749   -1.7793   22.6325 C   0  0  0  0  0  0  0  0  0  0  0  0
    6.2060    1.1067   19.4282 C   0  0  0  0  0  0  0  0  0  0  0  0
    6.5093    0.6790   18.1457 C   0  0  0  0  0  0  0  0  0  0  0  0
    8.7301    0.4042   18.6662 C   0  0  0  0  0  0  0  0  0  0  0  0
    7.2417    1.1754   20.3533 C   0  0  0  0  0  0  0  0  0  0  0  0
   12.4276   -0.4106   22.8575 C   0  0  0  0  0  0  0  0  0  0  0  0
    8.5309    0.8193   19.9730 C   0  0  0  0  0  0  0  0  0  0  0  0
   10.4484   -0.1813   21.2926 C   0  0  0  0  0  0  0  0  0  0  0  0
    5.4721    1.1863   24.3964 C   0  0  0  0  0  0  0  0  0  0  0  0
    9.0557    5.5674   24.8755 C   0  0  0  0  0  0  0  0  0  0  0  0
   10.5245    5.3201   24.5794 C   0  0  0  0  0  0  0  0  0  0  0  0
    5.0795    2.3259   23.4675 C   0  0  0  0  0  0  0  0  0  0  0  0
    6.9466    0.8403   24.2519 C   0  0  0  0  0  0  0  0  0  0  0  0
    8.5016    5.9830   23.5209 C   0  0  0  0  0  0  0  0  0  0  0  0
   10.5455    4.6951   23.1849 C   0  0  0  0  0  0  0  0  0  0  0  0
    5.4353    2.0094   22.0122 C   0  0  0  0  0  0  0  0  0  0  0  0
    7.3250    0.5320   22.8002 C   0  0  0  0  0  0  0  0  0  0  0  0
    9.2052    5.0572   22.5250 C   0  0  0  0  0  0  0  0  0  0  0  0
    6.9333    1.6490   21.7892 C   0  0  0  0  0  0  0  0  0  0  0  0
    7.7491    0.3247   17.7394 N   0  0  0  0  0  0  0  0  0  0  0  0
   11.4025    0.3085   22.1987 N   0  0  0  0  0  0  0  0  0  0  0  0
    9.6021    0.8711   20.8645 N   0  0  0  0  0  0  0  0  0  0  0  0
   10.3550   -1.3470   20.9216 O   0  0  0  0  0  0  0  0  0  0  0  0
  1  2  3  0
  1 24  1  0
  2 25  1  0
  3  4  2  0
  3  5  1  0
  4  6  1  0
  5  7  2  0
  6 12  2  0
  7 12  1  0
  8  9  2  0
  8 11  1  0
  9 26  1  0
 10 13  1  0
 10 26  2  0
 11 13  2  0
 11 25  1  0
 12 27  1  0
 13 28  1  0
 14 27  1  0
 14 28  1  0
 14 29  2  0
 15 18  1  0
 15 19  1  0
 16 17  1  0
 16 20  1  0
 17 21  1  0
 18 22  1  0
 19 23  1  0
 20 24  1  0
 21 24  1  0
 22 25  1  0
 23 25  1  0
M  END
