WAR-XCH-b6889685-40
     RDKit          3D

 29 32  0  0  0  0  0  0  0  0999 V2000
   13.9158   -0.6699   24.3607 C   0  0  0  0  0  0  0  0  0  0  0  0
   14.0958   -1.7226   23.4636 C   0  0  0  0  0  0  0  0  0  0  0  0
   12.7791    0.1340   24.2737 C   0  0  0  0  0  0  0  0  0  0  0  0
   13.1394   -1.9714   22.4792 C   0  0  0  0  0  0  0  0  0  0  0  0
    6.4884   -3.4995   26.7093 C   0  0  0  0  0  0  0  0  0  0  0  0
    8.0241   -5.2022   25.9480 C   0  0  0  0  0  0  0  0  0  0  0  0
    6.0136   -4.3673   27.6927 C   0  0  0  0  0  0  0  0  0  0  0  0
    7.5493   -6.0701   26.9314 C   0  0  0  0  0  0  0  0  0  0  0  0
   11.8227   -0.1147   23.2893 C   0  0  0  0  0  0  0  0  0  0  0  0
   12.0028   -1.1674   22.3920 C   0  0  0  0  0  0  0  0  0  0  0  0
    7.4936   -3.9169   25.8369 C   0  0  0  0  0  0  0  0  0  0  0  0
    6.5441   -5.6526   27.8038 C   0  0  0  0  0  0  0  0  0  0  0  0
   11.4668    2.9797   23.7108 C   0  0  0  0  0  0  0  0  0  0  0  0
   11.3134    2.8689   22.1939 C   0  0  0  0  0  0  0  0  0  0  0  0
   10.5892    1.8749   24.2986 C   0  0  0  0  0  0  0  0  0  0  0  0
   10.4219    1.6497   21.9519 C   0  0  0  0  0  0  0  0  0  0  0  0
    7.4662   -0.6554   24.8502 C   0  0  0  0  0  0  0  0  0  0  0  0
    9.8219   -1.5152   25.2684 C   0  0  0  0  0  0  0  0  0  0  0  0
    7.1212   -2.0209   24.2502 C   0  0  0  0  0  0  0  0  0  0  0  0
    9.4080   -2.8603   24.6575 C   0  0  0  0  0  0  0  0  0  0  0  0
    8.9655   -0.3447   24.7723 C   0  0  0  0  0  0  0  0  0  0  0  0
   10.5848    0.7787   23.2140 C   0  0  0  0  0  0  0  0  0  0  0  0
   10.9929   -1.4526   21.3293 C   0  0  0  0  0  0  0  0  0  0  0  0
    7.9674   -3.0520   24.8563 N   0  0  0  0  0  0  0  0  0  0  0  0
    7.0009   -6.3709   30.3296 N   0  0  0  0  0  0  0  0  0  0  0  0
    9.3310   -0.0348   23.3599 N   0  0  0  0  0  0  0  0  0  0  0  0
    4.5991   -6.3321   29.3940 O   0  0  0  0  0  0  0  0  0  0  0  0
    6.2018   -8.1079   28.6030 O   0  0  0  0  0  0  0  0  0  0  0  0
    5.9500   -6.7398   29.0339 S   0  0  0  0  0  0  0  0  0  0  0  0
  1  2  2  0
  1  3  1  0
  2  4  1  0
  3  9  2  0
  4 10  2  0
  5  7  2  0
  5 11  1  0
  6  8  1  0
  6 11  2  0
  7 12  1  0
  8 12  2  0
  9 10  1  0
  9 22  1  0
 10 23  1  0
 11 24  1  0
 12 29  1  0
 13 14  1  0
 13 15  1  0
 14 16  1  0
 15 22  1  0
 16 22  1  0
 17 19  1  0
 17 21  1  0
 18 20  1  0
 18 21  1  0
 19 24  1  0
 20 24  1  0
 21 26  1  0
 22 26  1  0
 25 29  1  0
 27 29  2  0
 28 29  2  0
M  CHG  1  26   1
M  END
