WAR-XCH-72a8c209-7
     RDKit          3D

 26 28  0  0  0  0  0  0  0  0999 V2000
   13.7172   -0.4610   22.2136 C   0  0  0  0  0  0  0  0  0  0  0  0
   13.5653    0.7855   22.8208 C   0  0  0  0  0  0  0  0  0  0  0  0
   12.6389   -1.0521   21.5551 C   0  0  0  0  0  0  0  0  0  0  0  0
   12.3351    1.4409   22.7696 C   0  0  0  0  0  0  0  0  0  0  0  0
   11.4087   -0.3966   21.5039 C   0  0  0  0  0  0  0  0  0  0  0  0
    9.7693   -1.7857   23.9292 C   0  0  0  0  0  0  0  0  0  0  0  0
    7.5367   -0.8624   23.9248 C   0  0  0  0  0  0  0  0  0  0  0  0
    9.2675   -3.0014   23.4645 C   0  0  0  0  0  0  0  0  0  0  0  0
    7.0349   -2.0781   23.4601 C   0  0  0  0  0  0  0  0  0  0  0  0
   11.2567    0.8499   22.1112 C   0  0  0  0  0  0  0  0  0  0  0  0
    8.9039   -0.7162   24.1594 C   0  0  0  0  0  0  0  0  0  0  0  0
    7.9003   -3.1476   23.2300 C   0  0  0  0  0  0  0  0  0  0  0  0
    9.9584    1.5417   22.0573 C   0  0  0  0  0  0  0  0  0  0  0  0
    9.2542    4.2802   23.2952 C   0  0  0  0  0  0  0  0  0  0  0  0
    7.2431    2.9071   22.6141 C   0  0  0  0  0  0  0  0  0  0  0  0
    8.3617    5.5123   23.4476 C   0  0  0  0  0  0  0  0  0  0  0  0
    6.3504    4.1397   22.7646 C   0  0  0  0  0  0  0  0  0  0  0  0
    8.4710    2.9857   23.5247 C   0  0  0  0  0  0  0  0  0  0  0  0
    7.1236    5.4410   22.5528 C   0  0  0  0  0  0  0  0  0  0  0  0
    9.3242    1.8380   23.3324 N   0  0  0  0  0  0  0  0  0  0  0  0
    9.4959    1.8329   20.9601 O   0  0  0  0  0  0  0  0  0  0  0  0
   10.9472    0.6000   25.0205 O   0  0  0  0  0  0  0  0  0  0  0  0
    8.6630    1.3055   25.8002 O   0  0  0  0  0  0  0  0  0  0  0  0
    7.5120    5.5246   21.1833 O   0  0  0  0  0  0  0  0  0  0  0  0
    9.5406    0.8261   24.7489 S   0  0  0  0  0  0  0  0  0  0  0  0
    7.2812   -4.6474   22.6567 Cl  0  0  0  0  0  0  0  0  0  0  0  0
  1  2  2  0
  1  3  1  0
  2  4  1  0
  3  5  2  0
  4 10  2  0
  5 10  1  0
  6  8  2  0
  6 11  1  0
  7  9  1  0
  7 11  2  0
  8 12  1  0
  9 12  2  0
 10 13  1  0
 11 25  1  0
 12 26  1  0
 13 20  1  0
 13 21  2  0
 14 16  1  0
 14 18  1  0
 15 17  1  0
 15 18  1  0
 16 19  1  0
 17 19  1  0
 18 20  1  0
 19 24  1  0
 20 25  1  0
 22 25  2  0
 23 25  2  0
M  END
