WAR-XCH-b72a1bbc-45
     RDKit          3D

 25 27  0  0  0  0  0  0  0  0999 V2000
   12.3277    5.6045   22.9635 C   0  0  0  0  0  0  0  0  0  0  0  0
   10.9769    5.8305   23.2282 C   0  0  0  0  0  0  0  0  0  0  0  0
   11.5547   -4.1267   24.7284 C   0  0  0  0  0  0  0  0  0  0  0  0
   10.5475   -2.5715   23.1780 C   0  0  0  0  0  0  0  0  0  0  0  0
   12.8286    4.3027   22.9552 C   0  0  0  0  0  0  0  0  0  0  0  0
   10.2975   -4.6626   25.0077 C   0  0  0  0  0  0  0  0  0  0  0  0
    9.2903   -3.1073   23.4573 C   0  0  0  0  0  0  0  0  0  0  0  0
   10.6280    3.4527   23.4766 C   0  0  0  0  0  0  0  0  0  0  0  0
   10.1271    4.7546   23.4848 C   0  0  0  0  0  0  0  0  0  0  0  0
   11.6797   -3.0812   23.8136 C   0  0  0  0  0  0  0  0  0  0  0  0
   11.9787    3.2268   23.2119 C   0  0  0  0  0  0  0  0  0  0  0  0
    9.1653   -4.1529   24.3722 C   0  0  0  0  0  0  0  0  0  0  0  0
   13.6686   -0.4118   24.4763 C   0  0  0  0  0  0  0  0  0  0  0  0
   13.1963   -0.6646   22.0017 C   0  0  0  0  0  0  0  0  0  0  0  0
   13.7690   -1.9348   24.5709 C   0  0  0  0  0  0  0  0  0  0  0  0
   13.3050   -2.1847   22.1628 C   0  0  0  0  0  0  0  0  0  0  0  0
   14.0296    0.0760   23.0622 C   0  0  0  0  0  0  0  0  0  0  0  0
    8.6832    4.9966   23.7685 C   0  0  0  0  0  0  0  0  0  0  0  0
   13.8396    1.5864   22.9443 C   0  0  0  0  0  0  0  0  0  0  0  0
   12.9331   -2.5464   23.5348 N   0  0  0  0  0  0  0  0  0  0  0  0
    7.1007   -3.8367   26.0282 N   0  0  0  0  0  0  0  0  0  0  0  0
   12.4802    1.9233   23.2032 N   0  0  0  0  0  0  0  0  0  0  0  0
    6.7191   -4.5637   23.5845 O   0  0  0  0  0  0  0  0  0  0  0  0
    7.7651   -6.1855   25.2042 O   0  0  0  0  0  0  0  0  0  0  0  0
    7.5912   -4.8225   24.7216 S   0  0  0  0  0  0  0  0  0  0  0  0
  1  2  2  0
  1  5  1  0
  2  9  1  0
  3  6  2  0
  3 10  1  0
  4  7  1  0
  4 10  2  0
  5 11  2  0
  6 12  1  0
  7 12  2  0
  8  9  2  0
  8 11  1  0
  9 18  1  0
 10 20  1  0
 11 22  1  0
 12 25  1  0
 13 15  1  0
 13 17  1  0
 14 16  1  0
 14 17  1  0
 15 20  1  0
 16 20  1  0
 17 19  1  0
 19 22  1  0
 21 25  1  0
 23 25  2  0
 24 25  2  0
M  END
