WAR-XCH-b6889685-49
     RDKit          3D

 26 28  0  0  1  0  0  0  0  0999 V2000
   11.3925    6.4194   25.4884 C   0  0  0  0  0  0  0  0  0  0  0  0
   10.1417    6.7254   24.9521 C   0  0  0  0  0  0  0  0  0  0  0  0
   12.3129    5.6875   24.7383 C   0  0  0  0  0  0  0  0  0  0  0  0
    9.8973   -2.4017   23.2579 C   0  0  0  0  0  0  0  0  0  0  0  0
    9.3266   -1.3333   25.3483 C   0  0  0  0  0  0  0  0  0  0  0  0
    9.1138   -3.5018   23.6062 C   0  0  0  0  0  0  0  0  0  0  0  0
    8.5430   -2.4334   25.6966 C   0  0  0  0  0  0  0  0  0  0  0  0
   10.7317    5.5672   22.9155 C   0  0  0  0  0  0  0  0  0  0  0  0
    9.8113    6.2993   23.6657 C   0  0  0  0  0  0  0  0  0  0  0  0
   11.9825    5.2613   23.4518 C   0  0  0  0  0  0  0  0  0  0  0  0
   10.0038   -1.3174   24.1289 C   0  0  0  0  0  0  0  0  0  0  0  0
    8.4366   -3.5177   24.8256 C   0  0  0  0  0  0  0  0  0  0  0  0
   12.9722    0.7251   23.1222 C   0  0  0  0  0  0  0  0  0  0  0  0
   11.1232    2.2269   23.9011 C   0  0  0  0  0  0  0  0  0  0  0  0
   11.9640   -0.4065   22.9194 C   0  0  0  0  0  0  0  0  0  0  0  0
   10.1203    1.0933   23.6899 C   0  0  0  0  0  0  0  0  0  0  0  0
   12.3071    2.0859   22.9509 C   0  0  0  0  0  0  0  0  0  0  0  0
    8.4743    6.6280   23.0925 C   0  0  0  0  0  0  0  0  0  0  0  0
   14.2903    5.2189   22.4198 C   0  0  0  0  0  0  0  0  0  0  0  0
   12.9795    4.4677   22.6394 C   0  0  0  0  0  0  0  0  0  0  0  0
   10.7902   -0.2128   23.7797 N   0  0  0  0  0  0  0  0  0  0  0  0
    7.6694   -5.8941   23.8934 N   0  0  0  0  0  0  0  0  0  0  0  0
   13.2986    3.1514   23.2503 N   0  0  0  0  0  0  0  0  0  0  0  0
    8.0631   -5.5430   26.4167 O   0  0  0  0  0  0  0  0  0  0  0  0
    6.0639   -4.4715   25.3201 O   0  0  0  0  0  0  0  0  0  0  0  0
    7.4562   -4.8946   25.2627 S   0  0  0  0  0  0  0  0  0  0  0  0
  1  2  2  0
  1  3  1  0
  2  9  1  0
  3 10  2  0
  4  6  2  0
  4 11  1  0
  5  7  1  0
  5 11  2  0
  6 12  1  0
  7 12  2  0
  8  9  2  0
  8 10  1  0
  9 18  1  0
 10 20  1  0
 11 21  1  0
 12 26  1  0
 13 15  1  0
 13 17  1  0
 14 16  1  0
 14 17  1  0
 15 21  1  0
 16 21  1  0
 17 23  1  0
 19 20  1  0
 20 23  1  0
 22 26  1  0
 24 26  2  0
 25 26  2  0
M  CHG  1  23   1
M  END
