WAR-XCH-b6889685-22
     RDKit          3D

 23 25  0  0  0  0  0  0  0  0999 V2000
    7.1760   -5.2426   24.6732 C   0  0  0  0  0  0  0  0  0  0  0  0
   13.1157    2.3344   22.6244 C   0  0  0  0  0  0  0  0  0  0  0  0
   11.6767    1.6810   24.4518 C   0  0  0  0  0  0  0  0  0  0  0  0
   12.5775    3.6208   22.6605 C   0  0  0  0  0  0  0  0  0  0  0  0
   11.1385    2.9674   24.4880 C   0  0  0  0  0  0  0  0  0  0  0  0
    8.5353   -4.8772   24.4517 C   0  0  0  0  0  0  0  0  0  0  0  0
    6.3458   -4.1443   24.7192 C   0  0  0  0  0  0  0  0  0  0  0  0
   12.6652    1.3645   23.5200 C   0  0  0  0  0  0  0  0  0  0  0  0
   11.5890    3.9373   23.5923 C   0  0  0  0  0  0  0  0  0  0  0  0
    8.6922   -3.5134   24.3366 C   0  0  0  0  0  0  0  0  0  0  0  0
   11.9994   -1.7966   22.4786 C   0  0  0  0  0  0  0  0  0  0  0  0
   12.3922   -1.6729   24.9768 C   0  0  0  0  0  0  0  0  0  0  0  0
   13.1154   -0.7677   22.2937 C   0  0  0  0  0  0  0  0  0  0  0  0
   13.4974   -0.6415   24.7257 C   0  0  0  0  0  0  0  0  0  0  0  0
   12.2086   -2.6084   23.7690 C   0  0  0  0  0  0  0  0  0  0  0  0
   11.0456   -3.5705   23.9994 C   0  0  0  0  0  0  0  0  0  0  0  0
   13.2015    0.0816   23.4843 N   0  0  0  0  0  0  0  0  0  0  0  0
    9.6067    5.3829   22.5504 N   0  0  0  0  0  0  0  0  0  0  0  0
   10.3870    5.7865   24.9740 O   0  0  0  0  0  0  0  0  0  0  0  0
   11.8839    6.4713   23.0667 O   0  0  0  0  0  0  0  0  0  0  0  0
    9.8547   -2.8151   24.1208 O   0  0  0  0  0  0  0  0  0  0  0  0
    7.2048   -2.6799   24.4957 S   0  0  0  0  0  0  0  0  0  0  0  0
   10.9143    5.5470   23.6379 S   0  0  0  0  0  0  0  0  0  0  0  0
  1  6  1  0
  1  7  2  0
  2  4  2  0
  2  8  1  0
  3  5  1  0
  3  8  2  0
  4  9  1  0
  5  9  2  0
  6 10  2  0
  7 22  1  0
  8 17  1  0
  9 23  1  0
 10 21  1  0
 10 22  1  0
 11 13  1  0
 11 15  1  0
 12 14  1  0
 12 15  1  0
 13 17  1  0
 14 17  1  0
 15 16  1  0
 16 21  1  0
 18 23  1  0
 19 23  2  0
 20 23  2  0
M  END
