WAR-XCH-bdd24732-13
     RDKit          3D

 27 30  0  0  0  0  0  0  0  0999 V2000
   12.7255   -1.3639   21.8571 C   0  0  0  0  0  0  0  0  0  0  0  0
   12.8579    0.4374   23.4618 C   0  0  0  0  0  0  0  0  0  0  0  0
   13.6500   -2.0957   22.6023 C   0  0  0  0  0  0  0  0  0  0  0  0
   13.7824   -0.2944   24.2070 C   0  0  0  0  0  0  0  0  0  0  0  0
    5.3002    1.1837   18.2702 C   0  0  0  0  0  0  0  0  0  0  0  0
    6.2566    0.7427   17.3615 C   0  0  0  0  0  0  0  0  0  0  0  0
   12.3294   -0.0973   22.2868 C   0  0  0  0  0  0  0  0  0  0  0  0
   14.1784   -1.5610   23.7772 C   0  0  0  0  0  0  0  0  0  0  0  0
    5.6497    1.3232   19.6107 C   0  0  0  0  0  0  0  0  0  0  0  0
    6.9648    0.9976   19.9244 C   0  0  0  0  0  0  0  0  0  0  0  0
    7.8659    0.5627   18.9591 C   0  0  0  0  0  0  0  0  0  0  0  0
    8.9527    0.5750   20.7889 C   0  0  0  0  0  0  0  0  0  0  0  0
   11.3568    0.6731   21.5042 C   0  0  0  0  0  0  0  0  0  0  0  0
    8.5538   -3.9620   24.1709 C   0  0  0  0  0  0  0  0  0  0  0  0
    9.0870   -3.6629   22.7732 C   0  0  0  0  0  0  0  0  0  0  0  0
    7.6275   -2.8559   24.6665 C   0  0  0  0  0  0  0  0  0  0  0  0
    9.7635   -2.2955   22.7090 C   0  0  0  0  0  0  0  0  0  0  0  0
    8.3014   -1.4870   24.6054 C   0  0  0  0  0  0  0  0  0  0  0  0
    8.8315   -1.1788   23.1986 C   0  0  0  0  0  0  0  0  0  0  0  0
   15.1662   -2.3444   24.5743 C   0  0  0  0  0  0  0  0  0  0  0  0
    4.6540    1.7927   20.6128 C   0  0  0  0  0  0  0  0  0  0  0  0
    9.5475    0.1703   23.1755 C   0  0  0  0  0  0  0  0  0  0  0  0
    7.5400    0.4221   17.6500 N   0  0  0  0  0  0  0  0  0  0  0  0
    9.0959    0.3042   19.5098 N   0  0  0  0  0  0  0  0  0  0  0  0
    7.6851    0.9973   21.0877 N   0  0  0  0  0  0  0  0  0  0  0  0
    9.9689    0.4694   21.8486 N   0  0  0  0  0  0  0  0  0  0  0  0
   11.7472    1.4086   20.5956 O   0  0  0  0  0  0  0  0  0  0  0  0
  1  3  2  0
  1  7  1  0
  2  4  1  0
  2  7  2  0
  3  8  1  0
  4  8  2  0
  5  6  2  0
  5  9  1  0
  6 23  1  0
  7 13  1  0
  8 20  1  0
  9 10  2  0
  9 21  1  0
 10 11  1  0
 10 25  1  0
 11 23  2  0
 11 24  1  0
 12 24  2  0
 12 25  1  0
 12 26  1  0
 13 26  1  0
 13 27  2  0
 14 15  1  0
 14 16  1  0
 15 17  1  0
 16 18  1  0
 17 19  1  0
 18 19  1  0
 19 22  1  0
 22 26  1  0
M  END
