WAR-XCH-6eb0722e-6
     RDKit          3D

 25 26  0  0  0  0  0  0  0  0999 V2000
    5.6813    1.0319   18.9123 C   0  0  0  0  0  0  0  0  0  0  0  0
   14.2735   -1.1633   23.7531 C   0  0  0  0  0  0  0  0  0  0  0  0
   13.3266   -0.6746   24.6532 C   0  0  0  0  0  0  0  0  0  0  0  0
    6.5000    0.9361   20.0321 C   0  0  0  0  0  0  0  0  0  0  0  0
   12.6863   -0.9153   21.9486 C   0  0  0  0  0  0  0  0  0  0  0  0
    6.2037    0.6369   17.6913 C   0  0  0  0  0  0  0  0  0  0  0  0
    8.2253    0.0856   18.6333 C   0  0  0  0  0  0  0  0  0  0  0  0
   13.9534   -1.2836   22.4008 C   0  0  0  0  0  0  0  0  0  0  0  0
   12.0595   -0.3063   24.2009 C   0  0  0  0  0  0  0  0  0  0  0  0
    7.7977    0.4550   19.8984 C   0  0  0  0  0  0  0  0  0  0  0  0
   11.7393   -0.4266   22.8486 C   0  0  0  0  0  0  0  0  0  0  0  0
    9.9798   -0.1159   21.0523 C   0  0  0  0  0  0  0  0  0  0  0  0
   14.9666   -1.8061   21.4391 C   0  0  0  0  0  0  0  0  0  0  0  0
    5.6141   -2.5053   26.7757 C   0  0  0  0  0  0  0  0  0  0  0  0
   11.0558    0.2179   25.1967 C   0  0  0  0  0  0  0  0  0  0  0  0
   10.0156   -0.8212   25.6358 C   0  0  0  0  0  0  0  0  0  0  0  0
    8.9697   -0.2942   26.6165 C   0  0  0  0  0  0  0  0  0  0  0  0
    7.4590    0.1646   17.5223 N   0  0  0  0  0  0  0  0  0  0  0  0
    8.6544    0.3462   21.0193 N   0  0  0  0  0  0  0  0  0  0  0  0
   10.4758   -0.0622   22.3765 N   0  0  0  0  0  0  0  0  0  0  0  0
    8.0023   -1.2916   26.9824 N   0  0  0  0  0  0  0  0  0  0  0  0
   10.6186   -0.5090   20.0814 O   0  0  0  0  0  0  0  0  0  0  0  0
    7.6461   -3.2209   25.2894 O   0  0  0  0  0  0  0  0  0  0  0  0
    6.5363   -0.9990   24.8557 O   0  0  0  0  0  0  0  0  0  0  0  0
    7.0024   -2.0171   25.7776 S   0  0  0  0  0  0  0  0  0  0  0  0
  1  4  2  0
  1  6  1  0
  2  3  2  0
  2  8  1  0
  3  9  1  0
  4 10  1  0
  5  8  2  0
  5 11  1  0
  6 18  2  0
  7 10  2  0
  7 18  1  0
  8 13  1  0
  9 11  2  0
  9 15  1  0
 10 19  1  0
 11 20  1  0
 12 19  1  0
 12 20  1  0
 12 22  2  0
 14 25  1  0
 15 16  1  0
 16 17  1  0
 17 21  1  0
 21 25  1  0
 23 25  2  0
 24 25  2  0
M  END
