WAR-XCH-b0339bbe-14
     RDKit          3D

 24 26  0  0  0  0  0  0  0  0999 V2000
    7.7528   -2.5128   21.9339 C   0  0  0  0  0  0  0  0  0  0  0  0
    8.1530   -3.4476   22.5731 C   0  0  0  0  0  0  0  0  0  0  0  0
   10.9698   -0.2547   25.0353 C   0  0  0  0  0  0  0  0  0  0  0  0
   14.1082   -2.0795   25.8290 C   0  0  0  0  0  0  0  0  0  0  0  0
   13.7143   -3.4040   25.6392 C   0  0  0  0  0  0  0  0  0  0  0  0
    6.3387   -0.4714   19.1601 C   0  0  0  0  0  0  0  0  0  0  0  0
    6.7969   -1.5714   19.8766 C   0  0  0  0  0  0  0  0  0  0  0  0
   13.1950   -1.0446   25.6274 C   0  0  0  0  0  0  0  0  0  0  0  0
   12.4072   -3.6937   25.2477 C   0  0  0  0  0  0  0  0  0  0  0  0
    6.3797    0.7680   19.7782 C   0  0  0  0  0  0  0  0  0  0  0  0
    7.2745   -0.1198   21.6989 C   0  0  0  0  0  0  0  0  0  0  0  0
    7.2753   -1.4008   21.1710 C   0  0  0  0  0  0  0  0  0  0  0  0
   11.8879   -1.3342   25.2359 C   0  0  0  0  0  0  0  0  0  0  0  0
   11.4940   -2.6587   25.0460 C   0  0  0  0  0  0  0  0  0  0  0  0
    6.5361   -6.6861   23.4099 C   0  0  0  0  0  0  0  0  0  0  0  0
    6.4081   -5.4229   24.2565 C   0  0  0  0  0  0  0  0  0  0  0  0
    7.3702   -6.4465   22.1548 C   0  0  0  0  0  0  0  0  0  0  0  0
    7.7779   -4.8337   24.6030 C   0  0  0  0  0  0  0  0  0  0  0  0
    8.7439   -5.8614   22.4925 C   0  0  0  0  0  0  0  0  0  0  0  0
    8.6437   -4.5956   23.3569 C   0  0  0  0  0  0  0  0  0  0  0  0
   10.0970   -3.0083   24.6253 C   0  0  0  0  0  0  0  0  0  0  0  0
   10.2253    0.6205   24.8728 N   0  0  0  0  0  0  0  0  0  0  0  0
    6.8374    0.9729   21.0336 N   0  0  0  0  0  0  0  0  0  0  0  0
   10.0263   -4.2525   23.8226 N   0  0  0  0  0  0  0  0  0  0  0  0
  1  2  3  0
  1 12  1  0
  2 20  1  0
  3 13  1  0
  3 22  3  0
  4  5  2  0
  4  8  1  0
  5  9  1  0
  6  7  2  0
  6 10  1  0
  7 12  1  0
  8 13  2  0
  9 14  2  0
 10 23  2  0
 11 12  2  0
 11 23  1  0
 13 14  1  0
 14 21  1  0
 15 16  1  0
 15 17  1  0
 16 18  1  0
 17 19  1  0
 18 20  1  0
 19 20  1  0
 20 24  1  0
 21 24  1  0
M  CHG  1  24   1
M  END
