WAR-XCH-b6889685-28
     RDKit          3D

 27 30  0  0  0  0  0  0  0  0999 V2000
   13.9382   -0.7686   23.9894 C   0  0  0  0  0  0  0  0  0  0  0  0
   13.4675   -1.7685   23.1435 C   0  0  0  0  0  0  0  0  0  0  0  0
    9.5335    1.2979   23.9977 C   0  0  0  0  0  0  0  0  0  0  0  0
   13.0811    0.2462   24.4160 C   0  0  0  0  0  0  0  0  0  0  0  0
   12.1379   -1.7575   22.7210 C   0  0  0  0  0  0  0  0  0  0  0  0
   10.8630    1.2868   24.4202 C   0  0  0  0  0  0  0  0  0  0  0  0
    5.4569   -5.6991   25.1372 C   0  0  0  0  0  0  0  0  0  0  0  0
    7.0786   -4.7961   26.6837 C   0  0  0  0  0  0  0  0  0  0  0  0
    9.0628    0.2980   23.1518 C   0  0  0  0  0  0  0  0  0  0  0  0
    4.7542   -6.2618   26.2026 C   0  0  0  0  0  0  0  0  0  0  0  0
    6.3759   -5.3588   27.7491 C   0  0  0  0  0  0  0  0  0  0  0  0
   11.7398    0.2731   24.0007 C   0  0  0  0  0  0  0  0  0  0  0  0
   11.2611   -0.7437   23.1405 C   0  0  0  0  0  0  0  0  0  0  0  0
    6.6192   -4.9662   25.3777 C   0  0  0  0  0  0  0  0  0  0  0  0
    9.9198   -0.7168   22.7251 C   0  0  0  0  0  0  0  0  0  0  0  0
    5.2137   -6.0917   27.5085 C   0  0  0  0  0  0  0  0  0  0  0  0
    7.2875   -2.7240   22.5399 C   0  0  0  0  0  0  0  0  0  0  0  0
    9.4347   -3.3600   23.6725 C   0  0  0  0  0  0  0  0  0  0  0  0
    6.6292   -3.9849   23.1011 C   0  0  0  0  0  0  0  0  0  0  0  0
    8.7607   -4.6227   24.2034 C   0  0  0  0  0  0  0  0  0  0  0  0
    8.7953   -2.9052   22.3589 C   0  0  0  0  0  0  0  0  0  0  0  0
    7.3132   -4.4105   24.3263 N   0  0  0  0  0  0  0  0  0  0  0  0
    5.0839   -8.3281   28.9529 N   0  0  0  0  0  0  0  0  0  0  0  0
    9.4023   -1.6855   21.8863 N   0  0  0  0  0  0  0  0  0  0  0  0
    4.6408   -6.0362   30.0467 O   0  0  0  0  0  0  0  0  0  0  0  0
    2.9488   -6.9820   28.4371 O   0  0  0  0  0  0  0  0  0  0  0  0
    4.3351   -6.7962   28.8427 S   0  0  0  0  0  0  0  0  0  0  0  0
  1  2  2  0
  1  4  1  0
  2  5  1  0
  3  6  2  0
  3  9  1  0
  4 12  2  0
  5 13  2  0
  6 12  1  0
  7 10  2  0
  7 14  1  0
  8 11  1  0
  8 14  2  0
  9 15  2  0
 10 16  1  0
 11 16  2  0
 12 13  1  0
 13 15  1  0
 14 22  1  0
 15 24  1  0
 16 27  1  0
 17 19  1  0
 17 21  1  0
 18 20  1  0
 18 21  1  0
 19 22  1  0
 20 22  1  0
 21 24  1  0
 23 27  1  0
 25 27  2  0
 26 27  2  0
M  END
