WAR-XCH-79d12f6e-8
     RDKit          3D

 22 24  0  0  0  0  0  0  0  0999 V2000
    9.5159   -0.4666   25.9431 C   0  0  0  0  0  0  0  0  0  0  0  0
   10.2522   -0.6886   24.7847 C   0  0  0  0  0  0  0  0  0  0  0  0
    8.6227    0.5927   25.9507 C   0  0  0  0  0  0  0  0  0  0  0  0
    9.1571    1.1754   23.7936 C   0  0  0  0  0  0  0  0  0  0  0  0
   10.0754    0.1436   23.6850 C   0  0  0  0  0  0  0  0  0  0  0  0
    6.7874   -3.4578   20.7907 C   0  0  0  0  0  0  0  0  0  0  0  0
   13.3869    1.5764   22.4076 C   0  0  0  0  0  0  0  0  0  0  0  0
   13.2989    0.2679   23.1861 C   0  0  0  0  0  0  0  0  0  0  0  0
   12.0146    2.2083   22.1999 C   0  0  0  0  0  0  0  0  0  0  0  0
   12.2862   -0.6995   22.5633 C   0  0  0  0  0  0  0  0  0  0  0  0
   11.0432    1.2209   21.5503 C   0  0  0  0  0  0  0  0  0  0  0  0
    8.1058   -1.4649   20.1493 C   0  0  0  0  0  0  0  0  0  0  0  0
    9.2950   -3.3500   21.2007 C   0  0  0  0  0  0  0  0  0  0  0  0
    8.7724   -0.4851   21.1038 C   0  0  0  0  0  0  0  0  0  0  0  0
    9.9815   -2.3976   22.1705 C   0  0  0  0  0  0  0  0  0  0  0  0
   10.8734   -0.0756   22.3896 C   0  0  0  0  0  0  0  0  0  0  0  0
    6.5750   -4.4082   21.9419 C   0  0  0  0  0  0  0  0  0  0  0  0
    8.4236    1.4224   24.9021 N   0  0  0  0  0  0  0  0  0  0  0  0
    8.0149   -2.7986   20.7436 N   0  0  0  0  0  0  0  0  0  0  0  0
   10.1169   -1.0393   21.5194 N   0  0  0  0  0  0  0  0  0  0  0  0
    5.8873   -3.3052   19.9609 O   0  0  0  0  0  0  0  0  0  0  0  0
    6.7560   -3.4629   23.4155 Cl  0  0  0  0  0  0  0  0  0  0  0  0
  1  2  2  0
  1  3  1  0
  2  5  1  0
  3 18  2  0
  4  5  2  0
  4 18  1  0
  5 16  1  0
  6 17  1  0
  6 19  1  0
  6 21  2  0
  7  8  1  0
  7  9  1  0
  8 10  1  0
  9 11  1  0
 10 16  1  0
 11 16  1  0
 12 14  1  0
 12 19  1  0
 13 15  1  0
 13 19  1  0
 14 20  1  0
 15 20  1  0
 16 20  1  0
 17 22  1  0
M  CHG  1  20   1
M  END
