WAR-XCH-b6889685-48
     RDKit          3D

 26 28  0  0  1  0  0  0  0  0999 V2000
    9.8753    4.8320   24.6810 C   0  0  0  0  0  0  0  0  0  0  0  0
   10.3628    6.6319   23.1449 C   0  0  0  0  0  0  0  0  0  0  0  0
   10.7134   -1.9336   23.5593 C   0  0  0  0  0  0  0  0  0  0  0  0
    9.1861   -0.5864   24.8592 C   0  0  0  0  0  0  0  0  0  0  0  0
    8.5275    5.1911   24.6740 C   0  0  0  0  0  0  0  0  0  0  0  0
    9.0150    6.9910   23.1379 C   0  0  0  0  0  0  0  0  0  0  0  0
   10.0375   -3.0862   23.9597 C   0  0  0  0  0  0  0  0  0  0  0  0
    8.5102   -1.7390   25.2596 C   0  0  0  0  0  0  0  0  0  0  0  0
   10.7930    5.5524   23.9165 C   0  0  0  0  0  0  0  0  0  0  0  0
   10.2877   -0.6837   24.0091 C   0  0  0  0  0  0  0  0  0  0  0  0
    8.0973    6.2706   23.9024 C   0  0  0  0  0  0  0  0  0  0  0  0
    8.9359   -2.9889   24.8098 C   0  0  0  0  0  0  0  0  0  0  0  0
   13.0657    1.5948   22.9651 C   0  0  0  0  0  0  0  0  0  0  0  0
   10.8457    2.6860   22.5230 C   0  0  0  0  0  0  0  0  0  0  0  0
   12.3882    0.6239   23.9347 C   0  0  0  0  0  0  0  0  0  0  0  0
   10.1815    1.7117   23.4970 C   0  0  0  0  0  0  0  0  0  0  0  0
   12.3229    2.9205   22.8273 C   0  0  0  0  0  0  0  0  0  0  0  0
   13.0479    5.8790   25.0125 C   0  0  0  0  0  0  0  0  0  0  0  0
   12.2533    5.1634   23.9230 C   0  0  0  0  0  0  0  0  0  0  0  0
   10.9660    0.4739   23.6073 N   0  0  0  0  0  0  0  0  0  0  0  0
    6.9176   -4.5679   24.0764 N   0  0  0  0  0  0  0  0  0  0  0  0
   12.4564    3.7010   24.0887 N   0  0  0  0  0  0  0  0  0  0  0  0
    9.0065   -5.5585   25.2169 O   0  0  0  0  0  0  0  0  0  0  0  0
    7.4115   -4.1548   26.5708 O   0  0  0  0  0  0  0  0  0  0  0  0
    6.8026    6.6138   23.8935 F   0  0  0  0  0  0  0  0  0  0  0  0
    8.0897   -4.4311   25.3121 S   0  0  0  0  0  0  0  0  0  0  0  0
  1  5  2  0
  1  9  1  0
  2  6  1  0
  2  9  2  0
  3  7  2  0
  3 10  1  0
  4  8  1  0
  4 10  2  0
  5 11  1  0
  6 11  2  0
  7 12  1  0
  8 12  2  0
  9 19  1  0
 10 20  1  0
 11 25  1  0
 12 26  1  0
 13 15  1  0
 13 17  1  0
 14 16  1  0
 14 17  1  0
 15 20  1  0
 16 20  1  0
 17 22  1  0
 18 19  1  0
 19 22  1  0
 21 26  1  0
 23 26  2  0
 24 26  2  0
M  CHG  1  22   1
M  END
