WAR-XCH-b72a1bbc-18
     RDKit          3D

 21 23  0  0  1  0  0  0  0  0999 V2000
   12.5662    2.7161   22.7904 C   0  0  0  0  0  0  0  0  0  0  0  0
   11.0617    1.7271   24.4015 C   0  0  0  0  0  0  0  0  0  0  0  0
   11.8731    3.9229   22.8839 C   0  0  0  0  0  0  0  0  0  0  0  0
   10.3686    2.9340   24.4951 C   0  0  0  0  0  0  0  0  0  0  0  0
   12.1605    1.6181   23.5491 C   0  0  0  0  0  0  0  0  0  0  0  0
   10.7744    4.0319   23.7362 C   0  0  0  0  0  0  0  0  0  0  0  0
    9.0054   -4.1342   24.1814 C   0  0  0  0  0  0  0  0  0  0  0  0
    9.7066   -2.9652   23.5364 C   0  0  0  0  0  0  0  0  0  0  0  0
   11.9831   -1.4811   22.1767 C   0  0  0  0  0  0  0  0  0  0  0  0
   12.1342   -1.5585   24.7029 C   0  0  0  0  0  0  0  0  0  0  0  0
   12.9763   -0.3185   22.1939 C   0  0  0  0  0  0  0  0  0  0  0  0
   13.1224   -0.3883   24.6537 C   0  0  0  0  0  0  0  0  0  0  0  0
   10.0529   -4.6281   25.1567 C   0  0  0  0  0  0  0  0  0  0  0  0
   12.1750   -2.3861   23.4063 C   0  0  0  0  0  0  0  0  0  0  0  0
   11.1303   -3.4848   23.4351 C   0  0  0  0  0  0  0  0  0  0  0  0
   12.8513    0.4144   23.4562 N   0  0  0  0  0  0  0  0  0  0  0  0
    8.7301    5.3370   22.6307 N   0  0  0  0  0  0  0  0  0  0  0  0
    9.2364    5.5878   25.1459 O   0  0  0  0  0  0  0  0  0  0  0  0
   10.8014    6.6222   23.4641 O   0  0  0  0  0  0  0  0  0  0  0  0
   11.3339   -4.3222   24.5859 O   0  0  0  0  0  0  0  0  0  0  0  0
    9.9058    5.5419   23.8535 S   0  0  0  0  0  0  0  0  0  0  0  0
  1  3  2  0
  1  5  1  0
  2  4  1  0
  2  5  2  0
  3  6  1  0
  4  6  2  0
  5 16  1  0
  6 21  1  0
  7  8  1  0
  7 13  1  0
  8 15  1  0
  9 11  1  0
  9 14  1  0
 10 12  1  0
 10 14  1  0
 11 16  1  0
 12 16  1  0
 13 20  1  0
 14 15  1  0
 15 20  1  0
 17 21  1  0
 18 21  2  0
 19 21  2  0
M  END
