WAR-XCH-72a8c209-8
     RDKit          3D

 28 31  0  0  0  0  0  0  0  0999 V2000
   13.0546   -1.6320   21.9578 C   0  0  0  0  0  0  0  0  0  0  0  0
    6.3889    0.1563   22.7068 C   0  0  0  0  0  0  0  0  0  0  0  0
   13.6884   -0.4120   22.2201 C   0  0  0  0  0  0  0  0  0  0  0  0
   11.7580   -1.8734   22.4076 C   0  0  0  0  0  0  0  0  0  0  0  0
    7.5703   -0.0947   23.4046 C   0  0  0  0  0  0  0  0  0  0  0  0
    6.1761   -0.4332   21.4607 C   0  0  0  0  0  0  0  0  0  0  0  0
    8.3730   -4.0400   23.5985 C   0  0  0  0  0  0  0  0  0  0  0  0
    7.1802   -4.8050   23.7476 C   0  0  0  0  0  0  0  0  0  0  0  0
   13.3226    1.8930   23.3853 C   0  0  0  0  0  0  0  0  0  0  0  0
    8.3264   -1.5246   21.6099 C   0  0  0  0  0  0  0  0  0  0  0  0
   12.2346    2.3872   24.0672 C   0  0  0  0  0  0  0  0  0  0  0  0
   12.9991    0.5779   22.9485 C   0  0  0  0  0  0  0  0  0  0  0  0
   11.7008    0.3083   23.3867 C   0  0  0  0  0  0  0  0  0  0  0  0
    8.5391   -0.9351   22.8561 C   0  0  0  0  0  0  0  0  0  0  0  0
   11.0547   -0.9066   23.1319 C   0  0  0  0  0  0  0  0  0  0  0  0
    7.1449   -1.2736   20.9122 C   0  0  0  0  0  0  0  0  0  0  0  0
    8.4838   -3.0614   24.5617 C   0  0  0  0  0  0  0  0  0  0  0  0
    6.4249   -4.3820   24.8193 C   0  0  0  0  0  0  0  0  0  0  0  0
    9.9686    1.5945   24.6912 C   0  0  0  0  0  0  0  0  0  0  0  0
    9.5822   -2.0552   24.7495 C   0  0  0  0  0  0  0  0  0  0  0  0
   11.2616    1.4241   24.0629 N   0  0  0  0  0  0  0  0  0  0  0  0
    6.1089   -3.4696   19.8127 N   0  0  0  0  0  0  0  0  0  0  0  0
    9.7456   -1.1907   23.5683 N   0  0  0  0  0  0  0  0  0  0  0  0
    5.9283   -1.1951   18.6128 O   0  0  0  0  0  0  0  0  0  0  0  0
    8.1705   -2.3339   18.7655 O   0  0  0  0  0  0  0  0  0  0  0  0
    7.1536   -3.0676   25.6400 S   0  0  0  0  0  0  0  0  0  0  0  0
    6.8773   -2.0142   19.3537 S   0  0  0  0  0  0  0  0  0  0  0  0
    4.9267   -5.0124   25.3626 Cl  0  0  0  0  0  0  0  0  0  0  0  0
  1  3  2  0
  1  4  1  0
  2  5  2  0
  2  6  1  0
  3 12  1  0
  4 15  2  0
  5 14  1  0
  6 16  2  0
  7  8  1  0
  7 17  2  0
  8 18  2  0
  9 11  2  0
  9 12  1  0
 10 14  2  0
 10 16  1  0
 11 21  1  0
 12 13  2  0
 13 15  1  0
 13 21  1  0
 14 23  1  0
 15 23  1  0
 16 27  1  0
 17 20  1  0
 17 26  1  0
 18 26  1  0
 18 28  1  0
 19 21  1  0
 20 23  1  0
 22 27  1  0
 24 27  2  0
 25 27  2  0
M  END
