WAR-XCH-bdd24732-33
     RDKit          3D

 24 27  0  0  0  0  0  0  0  0999 V2000
   14.0956   -1.7889   22.2418 C   0  0  0  0  0  0  0  0  0  0  0  0
   14.5317   -0.4822   22.4398 C   0  0  0  0  0  0  0  0  0  0  0  0
   12.8039   -2.1587   22.6174 C   0  0  0  0  0  0  0  0  0  0  0  0
   13.6778    0.4597   23.0143 C   0  0  0  0  0  0  0  0  0  0  0  0
   10.6274   -1.5785   23.5812 C   0  0  0  0  0  0  0  0  0  0  0  0
    9.7735   -0.6367   24.1558 C   0  0  0  0  0  0  0  0  0  0  0  0
    8.6213    5.0872   22.5356 C   0  0  0  0  0  0  0  0  0  0  0  0
   11.5013    1.0399   23.9783 C   0  0  0  0  0  0  0  0  0  0  0  0
    9.7497    4.0731   24.4019 C   0  0  0  0  0  0  0  0  0  0  0  0
    7.9888    3.8722   22.3271 C   0  0  0  0  0  0  0  0  0  0  0  0
   12.6035    5.4446   22.2212 C   0  0  0  0  0  0  0  0  0  0  0  0
   13.6158    4.7128   24.0309 C   0  0  0  0  0  0  0  0  0  0  0  0
   11.9309   -1.2238   23.1971 C   0  0  0  0  0  0  0  0  0  0  0  0
   12.3744    0.1050   23.3986 C   0  0  0  0  0  0  0  0  0  0  0  0
   10.2096    0.6700   24.3539 C   0  0  0  0  0  0  0  0  0  0  0  0
    9.5171    5.1813   23.5949 C   0  0  0  0  0  0  0  0  0  0  0  0
   12.5763    5.5145   23.6270 C   0  0  0  0  0  0  0  0  0  0  0  0
    9.0665    2.9036   24.1100 C   0  0  0  0  0  0  0  0  0  0  0  0
    9.2951    1.6757   24.9681 C   0  0  0  0  0  0  0  0  0  0  0  0
   10.2253    6.4656   23.8634 C   0  0  0  0  0  0  0  0  0  0  0  0
   11.6203    6.2937   24.4970 C   0  0  0  0  0  0  0  0  0  0  0  0
    8.1891    2.7740   23.0897 N   0  0  0  0  0  0  0  0  0  0  0  0
   13.5828    4.6605   21.7629 N   0  0  0  0  0  0  0  0  0  0  0  0
   14.1807    4.2304   22.8870 N   0  0  0  0  0  0  0  0  0  0  0  0
  1  2  2  0
  1  3  1  0
  2  4  1  0
  3 13  2  0
  4 14  2  0
  5  6  2  0
  5 13  1  0
  6 15  1  0
  7 10  2  0
  7 16  1  0
  8 14  1  0
  8 15  2  0
  9 16  2  0
  9 18  1  0
 10 22  1  0
 11 17  1  0
 11 23  2  0
 12 17  2  0
 12 24  1  0
 13 14  1  0
 15 19  1  0
 16 20  1  0
 17 21  1  0
 18 19  1  0
 18 22  2  0
 20 21  1  0
 23 24  1  0
M  END
