WES-WAB-2b40d25a-1
     RDKit          3D

 29 31  0  0  1  0  0  0  0  0999 V2000
   10.2084   -0.0061   25.0651 C   0  0  0  0  0  0  0  0  0  0  0  0
    5.8534   -5.4905   26.4215 C   0  0  0  0  0  0  0  0  0  0  0  0
    9.0540    0.2364   25.8095 C   0  0  0  0  0  0  0  0  0  0  0  0
   10.2519    0.3370   23.7137 C   0  0  0  0  0  0  0  0  0  0  0  0
    6.6308   -4.3324   26.4052 C   0  0  0  0  0  0  0  0  0  0  0  0
    5.5181   -6.1223   25.2239 C   0  0  0  0  0  0  0  0  0  0  0  0
    7.9430    0.8220   25.2025 C   0  0  0  0  0  0  0  0  0  0  0  0
    9.1408    0.9225   23.1068 C   0  0  0  0  0  0  0  0  0  0  0  0
    7.0727   -3.8061   25.1915 C   0  0  0  0  0  0  0  0  0  0  0  0
    5.9601   -5.5959   24.0102 C   0  0  0  0  0  0  0  0  0  0  0  0
    5.2641   -0.1337   20.1149 C   0  0  0  0  0  0  0  0  0  0  0  0
    6.0420    0.9464   18.1439 C   0  0  0  0  0  0  0  0  0  0  0  0
    6.8731   -1.1289   18.6737 C   0  0  0  0  0  0  0  0  0  0  0  0
    5.2291    0.9668   19.2657 C   0  0  0  0  0  0  0  0  0  0  0  0
    7.9864    1.1650   23.8512 C   0  0  0  0  0  0  0  0  0  0  0  0
    6.7374   -4.4378   23.9939 C   0  0  0  0  0  0  0  0  0  0  0  0
    6.0992   -1.2057   19.8205 C   0  0  0  0  0  0  0  0  0  0  0  0
    6.7230    2.1643   21.9054 C   0  0  0  0  0  0  0  0  0  0  0  0
    7.7691   -5.7249   21.2780 C   0  0  0  0  0  0  0  0  0  0  0  0
    4.3474    2.1294   19.5534 C   0  0  0  0  0  0  0  0  0  0  0  0
    5.0155    3.2134   20.4112 C   0  0  0  0  0  0  0  0  0  0  0  0
    6.9999   -3.4598   20.3977 C   0  0  0  0  0  0  0  0  0  0  0  0
    6.8744   -4.5101   21.5036 C   0  0  0  0  0  0  0  0  0  0  0  0
    6.8661   -0.0767   17.8249 N   0  0  0  0  0  0  0  0  0  0  0  0
    6.8597    1.7589   23.2360 N   0  0  0  0  0  0  0  0  0  0  0  0
    6.1541   -2.3150   20.6478 N   0  0  0  0  0  0  0  0  0  0  0  0
    7.1755   -3.9163   22.7902 N   0  0  0  0  0  0  0  0  0  0  0  0
    5.4498    2.7090   21.6863 N   0  0  0  0  0  0  0  0  0  0  0  0
    7.5716    2.0742   21.0214 O   0  0  0  0  0  0  0  0  0  0  0  0
  1  3  2  0
  1  4  1  0
  2  5  2  0
  2  6  1  0
  3  7  1  0
  4  8  2  0
  5  9  1  0
  6 10  2  0
  7 15  2  0
  8 15  1  0
  9 16  2  0
 10 16  1  0
 11 14  2  0
 11 17  1  0
 12 14  1  0
 12 24  2  0
 13 17  2  0
 13 24  1  0
 14 20  1  0
 15 25  1  0
 16 27  1  0
 17 26  1  0
 18 25  1  0
 18 28  1  0
 18 29  2  0
 19 23  1  0
 20 21  1  0
 21 28  1  0
 22 23  1  0
 22 26  1  0
 23 27  1  0
M  END
