WES-WAB-adc860f2-1
     RDKit          3D

 21 23  0  0  1  0  0  0  0  0999 V2000
   14.1907   -2.1928   22.4879 C   0  0  0  0  0  0  0  0  0  0  0  0
   14.3449   -1.6100   23.7948 C   0  0  0  0  0  0  0  0  0  0  0  0
   13.8376   -1.2427   21.6109 C   0  0  0  0  0  0  0  0  0  0  0  0
   14.0881   -0.2957   23.7340 C   0  0  0  0  0  0  0  0  0  0  0  0
    9.9118   -2.1427   22.4412 C   0  0  0  0  0  0  0  0  0  0  0  0
   10.2193   -1.1037   24.7159 C   0  0  0  0  0  0  0  0  0  0  0  0
   10.7783   -1.2260   21.9794 C   0  0  0  0  0  0  0  0  0  0  0  0
   11.0694   -0.2420   24.1332 C   0  0  0  0  0  0  0  0  0  0  0  0
   10.7921    3.4660   21.6380 C   0  0  0  0  0  0  0  0  0  0  0  0
   10.8213    2.5897   22.8895 C   0  0  0  0  0  0  0  0  0  0  0  0
   12.2417    3.6360   21.1845 C   0  0  0  0  0  0  0  0  0  0  0  0
   13.7337    0.0847   22.3187 C   0  0  0  0  0  0  0  0  0  0  0  0
    9.5354   -2.1795   23.9053 C   0  0  0  0  0  0  0  0  0  0  0  0
   12.2370    2.0137   22.9684 C   0  0  0  0  0  0  0  0  0  0  0  0
   13.1082    3.1072   22.3302 C   0  0  0  0  0  0  0  0  0  0  0  0
   12.3393    0.6862   22.2150 C   0  0  0  0  0  0  0  0  0  0  0  0
   13.4536    4.2182   23.3236 C   0  0  0  0  0  0  0  0  0  0  0  0
   11.3560   -0.2674   22.7848 N   0  0  0  0  0  0  0  0  0  0  0  0
   14.6402    4.9500   22.8075 N   0  0  0  0  0  0  0  0  0  0  0  0
    8.1238   -2.0240   24.0075 O   0  0  0  0  0  0  0  0  0  0  0  0
   12.2966    5.0179   23.5277 O   0  0  0  0  0  0  0  0  0  0  0  0
  1  2  1  0
  1  3  2  0
  2  4  2  0
  3 12  1  0
  4 12  1  0
  5  7  2  0
  5 13  1  0
  6  8  2  0
  6 13  1  0
  7 18  1  0
  8 18  1  0
  9 10  1  0
  9 11  1  0
 10 14  1  0
 11 15  1  0
 12 16  1  0
 13 20  1  0
 14 15  1  0
 14 16  1  0
 15 17  1  0
 16 18  1  0
 17 19  1  0
 17 21  1  0
M  CHG  1  19   1
M  END
