WIL-LEE-23e8b574-4
     RDKit          3D

 22 23  0  0  0  0  0  0  0  0999 V2000
   11.0064    0.1379   24.5400 C   0  0  0  0  0  0  0  0  0  0  0  0
   12.6962   -0.5998   22.9788 C   0  0  0  0  0  0  0  0  0  0  0  0
   10.2079   -0.9511   24.1903 C   0  0  0  0  0  0  0  0  0  0  0  0
   11.8978   -1.6888   22.6291 C   0  0  0  0  0  0  0  0  0  0  0  0
   12.2505    0.3136   23.9342 C   0  0  0  0  0  0  0  0  0  0  0  0
   10.6536   -1.8644   23.2349 C   0  0  0  0  0  0  0  0  0  0  0  0
    5.8983   -2.0456   19.0493 C   0  0  0  0  0  0  0  0  0  0  0  0
    6.4138   -3.3271   21.1019 C   0  0  0  0  0  0  0  0  0  0  0  0
    7.1724   -0.9856   20.9783 C   0  0  0  0  0  0  0  0  0  0  0  0
    7.7956   -3.7722   21.5581 C   0  0  0  0  0  0  0  0  0  0  0  0
    8.5661   -1.3955   21.4348 C   0  0  0  0  0  0  0  0  0  0  0  0
    6.0276   -0.7450   18.2973 C   0  0  0  0  0  0  0  0  0  0  0  0
   13.1048    1.4775   24.3074 C   0  0  0  0  0  0  0  0  0  0  0  0
    9.7949   -3.0364   22.8606 C   0  0  0  0  0  0  0  0  0  0  0  0
   12.8562    2.7215   23.4500 C   0  0  0  0  0  0  0  0  0  0  0  0
    6.4919   -2.0997   20.3096 N   0  0  0  0  0  0  0  0  0  0  0  0
   11.4368    4.9288   23.0446 N   0  0  0  0  0  0  0  0  0  0  0  0
    8.4611   -2.6332   22.2977 N   0  0  0  0  0  0  0  0  0  0  0  0
    5.2900   -2.9846   18.5296 O   0  0  0  0  0  0  0  0  0  0  0  0
   10.3740    2.6215   22.6402 O   0  0  0  0  0  0  0  0  0  0  0  0
   10.8585    3.3675   25.0054 O   0  0  0  0  0  0  0  0  0  0  0  0
   11.2061    3.3320   23.5955 S   0  0  0  0  0  0  0  0  0  0  0  0
  1  3  2  0
  1  5  1  0
  2  4  1  0
  2  5  2  0
  3  6  1  0
  4  6  2  0
  5 13  1  0
  6 14  1  0
  7 12  1  0
  7 16  1  0
  7 19  2  0
  8 10  1  0
  8 16  1  0
  9 11  1  0
  9 16  1  0
 10 18  1  0
 11 18  1  0
 13 15  1  0
 14 18  1  0
 15 22  1  0
 17 22  1  0
 20 22  2  0
 21 22  2  0
M  CHG  1  18   1
M  END
