WIL-WAB-1289c0dd-1
     RDKit          3D

 36 40  0  0  1  0  0  0  0  0999 V2000
   11.4144    7.5233   27.5324 C   0  0  0  0  0  0  0  0  0  0  0  0
    9.4655    7.4615   26.1058 C   0  0  0  0  0  0  0  0  0  0  0  0
   12.1954    7.0312   26.4868 C   0  0  0  0  0  0  0  0  0  0  0  0
   10.2465    6.9693   25.0602 C   0  0  0  0  0  0  0  0  0  0  0  0
   10.0494    7.7384   27.3420 C   0  0  0  0  0  0  0  0  0  0  0  0
   11.6115    6.7542   25.2506 C   0  0  0  0  0  0  0  0  0  0  0  0
    1.1652   -7.8437   23.4987 C   0  0  0  0  0  0  0  0  0  0  0  0
    2.1588   -6.9472   23.4950 C   0  0  0  0  0  0  0  0  0  0  0  0
    0.9306   -8.5609   24.7727 C   0  0  0  0  0  0  0  0  0  0  0  0
    2.8580   -7.8413   25.6634 C   0  0  0  0  0  0  0  0  0  0  0  0
   13.7673    4.4784   23.4755 C   0  0  0  0  0  0  0  0  0  0  0  0
   11.4358    3.5454   23.8623 C   0  0  0  0  0  0  0  0  0  0  0  0
   12.8629    2.6653   22.0588 C   0  0  0  0  0  0  0  0  0  0  0  0
   11.0326    2.1106   24.2073 C   0  0  0  0  0  0  0  0  0  0  0  0
   12.4377    1.2482   22.4418 C   0  0  0  0  0  0  0  0  0  0  0  0
    8.7671   -2.4638   22.6543 C   0  0  0  0  0  0  0  0  0  0  0  0
    7.4193   -1.5855   24.4596 C   0  0  0  0  0  0  0  0  0  0  0  0
    5.0483   -7.1386   25.8510 C   0  0  0  0  0  0  0  0  0  0  0  0
    8.3835   -3.8946   23.0170 C   0  0  0  0  0  0  0  0  0  0  0  0
    6.9965   -2.9907   24.8747 C   0  0  0  0  0  0  0  0  0  0  0  0
    2.9876   -6.6826   24.7113 C   0  0  0  0  0  0  0  0  0  0  0  0
    4.5103   -6.6484   24.5036 C   0  0  0  0  0  0  0  0  0  0  0  0
    9.2143    8.2652   28.4596 C   0  0  0  0  0  0  0  0  0  0  0  0
   13.5025    5.4841   24.5674 C   0  0  0  0  0  0  0  0  0  0  0  0
    5.0362   -5.2718   24.1306 C   0  0  0  0  0  0  0  0  0  0  0  0
   10.6692   -0.1134   23.3517 C   0  0  0  0  0  0  0  0  0  0  0  0
    9.1605   -0.2361   23.4836 C   0  0  0  0  0  0  0  0  0  0  0  0
    6.5499   -5.2811   23.9890 C   0  0  0  0  0  0  0  0  0  0  0  0
    1.7163   -8.5704   25.8025 N   0  0  0  0  0  0  0  0  0  0  0  0
   12.7387    3.5812   23.1916 N   0  0  0  0  0  0  0  0  0  0  0  0
   11.0850    1.2481   23.0177 N   0  0  0  0  0  0  0  0  0  0  0  0
    8.7501   -1.5944   23.8380 N   0  0  0  0  0  0  0  0  0  0  0  0
    3.9579   -8.0248   26.2886 N   0  0  0  0  0  0  0  0  0  0  0  0
    7.0224   -3.8921   23.6660 N   0  0  0  0  0  0  0  0  0  0  0  0
   14.8564    4.4886   22.8963 O   0  0  0  0  0  0  0  0  0  0  0  0
   12.3816    6.2705   24.2200 O   0  0  0  0  0  0  0  0  0  0  0  0
  1  3  2  0
  1  5  1  0
  2  4  1  0
  2  5  2  0
  3  6  1  0
  4  6  2  0
  5 23  1  0
  6 36  1  0
  7  8  2  0
  7  9  1  0
  8 21  1  0
  9 29  2  0
 10 21  1  0
 10 29  1  0
 10 33  2  0
 11 24  1  0
 11 30  1  0
 11 35  2  0
 12 14  1  0
 12 30  1  0
 13 15  1  0
 13 30  1  0
 14 31  1  0
 15 31  1  0
 16 19  1  0
 16 32  1  0
 17 20  1  0
 17 32  1  0
 18 22  1  0
 18 33  1  0
 19 34  1  0
 20 34  1  0
 21 22  1  0
 22 25  1  0
 24 36  1  0
 25 28  1  0
 26 27  1  0
 26 31  1  0
 27 32  1  0
 28 34  1  0
M  CHG  2  33   1  34   1
M  END
