WIL-NOV-649f4ed0-2
     RDKit          3D

 22 23  0  0  0  0  0  0  0  0999 V2000
    5.7339   -1.6391   19.6675 C   0  0  0  0  0  0  0  0  0  0  0  0
   10.1521   -3.9909   24.6414 C   0  0  0  0  0  0  0  0  0  0  0  0
    9.0189   -4.6109   24.1153 C   0  0  0  0  0  0  0  0  0  0  0  0
    9.9917   -2.2674   22.9560 C   0  0  0  0  0  0  0  0  0  0  0  0
    8.8584   -2.8874   22.4298 C   0  0  0  0  0  0  0  0  0  0  0  0
   10.6385   -2.8191   24.0618 C   0  0  0  0  0  0  0  0  0  0  0  0
    8.3720   -4.0592   23.0095 C   0  0  0  0  0  0  0  0  0  0  0  0
    8.2101   -2.2815   21.2740 C   0  0  0  0  0  0  0  0  0  0  0  0
   12.7886   -3.0405   25.2380 C   0  0  0  0  0  0  0  0  0  0  0  0
   11.6893   -0.8230   25.0943 C   0  0  0  0  0  0  0  0  0  0  0  0
   14.1224   -2.3033   25.2785 C   0  0  0  0  0  0  0  0  0  0  0  0
   13.0819   -0.2041   25.1430 C   0  0  0  0  0  0  0  0  0  0  0  0
    6.4558   -0.6732   20.4937 C   0  0  0  0  0  0  0  0  0  0  0  0
    5.1592   -2.4032   19.0099 N   0  0  0  0  0  0  0  0  0  0  0  0
   11.7752   -2.1974   24.5889 N   0  0  0  0  0  0  0  0  0  0  0  0
    7.6645   -5.9233   21.2405 N   0  0  0  0  0  0  0  0  0  0  0  0
    7.2062   -1.3426   21.5318 N   0  0  0  0  0  0  0  0  0  0  0  0
    8.5372   -2.6156   20.1230 O   0  0  0  0  0  0  0  0  0  0  0  0
    6.3632   -5.6543   23.4495 O   0  0  0  0  0  0  0  0  0  0  0  0
    6.1462   -3.8864   21.6677 O   0  0  0  0  0  0  0  0  0  0  0  0
   13.9688   -1.0274   25.8997 O   0  0  0  0  0  0  0  0  0  0  0  0
    6.9527   -4.8669   22.3778 S   0  0  0  0  0  0  0  0  0  0  0  0
  1 13  1  0
  1 14  3  0
  2  3  2  0
  2  6  1  0
  3  7  1  0
  4  5  1  0
  4  6  2  0
  5  7  2  0
  5  8  1  0
  6 15  1  0
  7 22  1  0
  8 17  1  0
  8 18  2  0
  9 11  1  0
  9 15  1  0
 10 12  1  0
 10 15  1  0
 11 21  1  0
 12 21  1  0
 13 17  1  0
 16 22  1  0
 19 22  2  0
 20 22  2  0
M  END
