WIL-NOV-649f4ed0-3
     RDKit          3D

 18 19  0  0  0  0  0  0  0  0999 V2000
   12.5106   -1.0204   22.2818 C   0  0  0  0  0  0  0  0  0  0  0  0
    7.1294    0.0249   18.8244 C   0  0  0  0  0  0  0  0  0  0  0  0
    6.2426   -1.0236   18.5793 C   0  0  0  0  0  0  0  0  0  0  0  0
    7.9592   -0.0110   19.9450 C   0  0  0  0  0  0  0  0  0  0  0  0
    6.1856   -2.1079   19.4549 C   0  0  0  0  0  0  0  0  0  0  0  0
    7.9022   -1.0953   20.8206 C   0  0  0  0  0  0  0  0  0  0  0  0
    7.0155   -2.1438   20.5756 C   0  0  0  0  0  0  0  0  0  0  0  0
    8.8012   -1.0971   22.0034 C   0  0  0  0  0  0  0  0  0  0  0  0
   10.8752   -0.3861   24.0909 C   0  0  0  0  0  0  0  0  0  0  0  0
   10.9109   -1.8817   24.0280 C   0  0  0  0  0  0  0  0  0  0  0  0
   11.1600   -1.0733   22.7727 C   0  0  0  0  0  0  0  0  0  0  0  0
   13.6003   -0.9778   21.8857 N   0  0  0  0  0  0  0  0  0  0  0  0
    5.7184   -2.9878   22.7459 N   0  0  0  0  0  0  0  0  0  0  0  0
   10.1724   -1.0535   21.7441 N   0  0  0  0  0  0  0  0  0  0  0  0
    8.3123   -1.1563   23.1285 O   0  0  0  0  0  0  0  0  0  0  0  0
    6.3947   -4.6508   20.8959 O   0  0  0  0  0  0  0  0  0  0  0  0
    8.1800   -3.6421   22.3597 O   0  0  0  0  0  0  0  0  0  0  0  0
    6.9153   -3.5218   21.6511 S   0  0  0  0  0  0  0  0  0  0  0  0
  1 11  1  0
  1 12  3  0
  2  3  2  0
  2  4  1  0
  3  5  1  0
  4  6  2  0
  5  7  2  0
  6  7  1  0
  6  8  1  0
  7 18  1  0
  8 14  1  0
  8 15  2  0
  9 10  1  0
  9 11  1  0
 10 11  1  0
 11 14  1  0
 13 18  1  0
 16 18  2  0
 17 18  2  0
M  END
