WIL-LEE-364b6ea8-30
     RDKit          3D

 20 20  0  0  0  0  0  0  0  0999 V2000
   11.4119   -1.3366   24.1434 C   0  0  0  0  0  0  0  0  0  0  0  0
   12.6292   -3.4089   24.2274 C   0  0  0  0  0  0  0  0  0  0  0  0
   11.4574   -2.7708   24.1299 C   0  0  0  0  0  0  0  0  0  0  0  0
   12.5605   -0.6605   24.2551 C   0  0  0  0  0  0  0  0  0  0  0  0
   10.2394   -3.5723   24.0106 C   0  0  0  0  0  0  0  0  0  0  0  0
   11.6077    4.6647   23.8609 C   0  0  0  0  0  0  0  0  0  0  0  0
    7.4795    4.9802   22.9270 C   0  0  0  0  0  0  0  0  0  0  0  0
   12.7195    2.7875   23.1751 C   0  0  0  0  0  0  0  0  0  0  0  0
   12.6978    1.2754   23.0442 C   0  0  0  0  0  0  0  0  0  0  0  0
   13.8873   -1.3630   24.3661 C   0  0  0  0  0  0  0  0  0  0  0  0
   10.4329    5.3665   24.4739 C   0  0  0  0  0  0  0  0  0  0  0  0
    8.7944    5.3197   22.2763 C   0  0  0  0  0  0  0  0  0  0  0  0
   11.6095    3.3787   23.7402 N   0  0  0  0  0  0  0  0  0  0  0  0
    9.1245   -3.0712   23.9175 O   0  0  0  0  0  0  0  0  0  0  0  0
    7.0730    5.4179   23.9981 O   0  0  0  0  0  0  0  0  0  0  0  0
   13.7259    3.3591   22.7672 O   0  0  0  0  0  0  0  0  0  0  0  0
   12.7887    0.7455   21.9515 O   0  0  0  0  0  0  0  0  0  0  0  0
   13.8532   -2.8035   24.3450 O   0  0  0  0  0  0  0  0  0  0  0  0
   12.5788    0.7197   24.2729 O   0  0  0  0  0  0  0  0  0  0  0  0
    9.7468    6.5080   23.2520 S   0  0  0  0  0  0  0  0  0  0  0  0
  1  3  1  0
  1  4  2  0
  2  3  2  0
  2 18  1  0
  3  5  1  0
  4 10  1  0
  4 19  1  0
  5 14  2  0
  6 11  1  0
  6 13  2  0
  7 12  1  0
  7 15  2  0
  8  9  1  0
  8 13  1  0
  8 16  2  0
  9 17  2  0
  9 19  1  0
 10 18  1  0
 11 20  1  0
 12 20  1  0
M  END
