WIL-LEE-364b6ea8-24
     RDKit          3D

 29 29  0  0  0  0  0  0  0  0999 V2000
   10.0395    4.4818   23.2535 C   0  0  0  0  0  0  0  0  0  0  0  0
   10.4502    6.8139   23.7755 C   0  0  0  0  0  0  0  0  0  0  0  0
    9.6206    5.8710   23.2956 C   0  0  0  0  0  0  0  0  0  0  0  0
   11.1667    4.0812   23.8588 C   0  0  0  0  0  0  0  0  0  0  0  0
    9.3646   -2.9676   25.0859 C   0  0  0  0  0  0  0  0  0  0  0  0
    6.2160   -5.3835   25.6744 C   0  0  0  0  0  0  0  0  0  0  0  0
   11.5216    2.6625   23.7821 C   0  0  0  0  0  0  0  0  0  0  0  0
    9.7276   -1.9452   24.2928 C   0  0  0  0  0  0  0  0  0  0  0  0
   10.5394    1.6941   24.3597 C   0  0  0  0  0  0  0  0  0  0  0  0
   10.7953    0.3696   24.3268 C   0  0  0  0  0  0  0  0  0  0  0  0
    8.8532   -5.3748   25.6354 C   0  0  0  0  0  0  0  0  0  0  0  0
    9.2734   -4.3694   24.6130 C   0  0  0  0  0  0  0  0  0  0  0  0
    7.5427   -5.3279   26.3657 C   0  0  0  0  0  0  0  0  0  0  0  0
    9.7955   -0.5819   24.9123 C   0  0  0  0  0  0  0  0  0  0  0  0
    7.1683    6.1264   23.7967 C   0  0  0  0  0  0  0  0  0  0  0  0
   11.8231    6.5017   24.3023 C   0  0  0  0  0  0  0  0  0  0  0  0
   12.0728    5.0140   24.6054 C   0  0  0  0  0  0  0  0  0  0  0  0
    5.8021    5.7325   23.2999 C   0  0  0  0  0  0  0  0  0  0  0  0
    8.2587    6.1857   22.7567 C   0  0  0  0  0  0  0  0  0  0  0  0
    9.6923   -6.3230   25.8931 N   0  0  0  0  0  0  0  0  0  0  0  0
    6.1711   -5.4621   24.4596 O   0  0  0  0  0  0  0  0  0  0  0  0
   12.5825    2.3151   23.2751 O   0  0  0  0  0  0  0  0  0  0  0  0
    9.5151   -4.7702   23.4875 O   0  0  0  0  0  0  0  0  0  0  0  0
    7.5474   -5.2494   27.5843 O   0  0  0  0  0  0  0  0  0  0  0  0
    9.0649   -0.2536   25.8429 O   0  0  0  0  0  0  0  0  0  0  0  0
    7.3638    6.3846   24.9834 O   0  0  0  0  0  0  0  0  0  0  0  0
   10.0705   -2.0650   22.9640 O   0  0  0  0  0  0  0  0  0  0  0  0
    9.3749    2.1911   24.9176 O   0  0  0  0  0  0  0  0  0  0  0  0
   11.9232   -0.1989   23.7703 O   0  0  0  0  0  0  0  0  0  0  0  0
  1  3  1  0
  1  4  2  0
  2  3  2  0
  2 16  1  0
  3 19  1  0
  4  7  1  0
  4 17  1  0
  5  8  2  0
  5 12  1  0
  6 13  1  0
  6 21  2  0
  7  9  1  0
  7 22  2  0
  8 14  1  0
  8 27  1  0
  9 10  2  0
  9 28  1  0
 10 14  1  0
 10 29  1  0
 11 12  1  0
 11 13  1  0
 11 20  2  0
 12 23  2  0
 13 24  2  0
 14 25  2  0
 15 18  1  0
 15 19  1  0
 15 26  2  0
 16 17  1  0
M  END
