WIL-LEE-364b6ea8-36
     RDKit          3D

 33 34  0  0  0  0  0  0  0  0999 V2000
    4.5339   -6.9603   28.4762 C   0  0  0  0  0  0  0  0  0  0  0  0
    4.2850   -6.2888   27.2554 C   0  0  0  0  0  0  0  0  0  0  0  0
    4.9444    1.2072   19.0663 C   0  0  0  0  0  0  0  0  0  0  0  0
    5.8989   -6.9505   28.6461 C   0  0  0  0  0  0  0  0  0  0  0  0
    5.3743    0.3516   18.0789 C   0  0  0  0  0  0  0  0  0  0  0  0
    6.5640   -0.1151   19.8442 C   0  0  0  0  0  0  0  0  0  0  0  0
    5.7172    0.9043   20.2127 C   0  0  0  0  0  0  0  0  0  0  0  0
    5.5155   -5.9164   26.7664 C   0  0  0  0  0  0  0  0  0  0  0  0
    7.6842   -3.8342   24.5979 C   0  0  0  0  0  0  0  0  0  0  0  0
   10.1029   -1.4820   23.7115 C   0  0  0  0  0  0  0  0  0  0  0  0
    5.9045   -5.1918   25.5375 C   0  0  0  0  0  0  0  0  0  0  0  0
    7.3588   -4.9391   25.2914 C   0  0  0  0  0  0  0  0  0  0  0  0
    9.5088    0.9817   23.6044 C   0  0  0  0  0  0  0  0  0  0  0  0
    9.4857    2.1729   22.9735 C   0  0  0  0  0  0  0  0  0  0  0  0
   10.1213   -0.2046   22.9405 C   0  0  0  0  0  0  0  0  0  0  0  0
    8.8567    3.3589   23.6363 C   0  0  0  0  0  0  0  0  0  0  0  0
    9.0872   -3.4334   24.2859 C   0  0  0  0  0  0  0  0  0  0  0  0
    5.9445    2.8564   21.4459 C   0  0  0  0  0  0  0  0  0  0  0  0
    8.2322    4.4068   22.7322 C   0  0  0  0  0  0  0  0  0  0  0  0
    5.8702    3.4129   22.8470 C   0  0  0  0  0  0  0  0  0  0  0  0
    6.7533    4.6449   23.0441 C   0  0  0  0  0  0  0  0  0  0  0  0
    9.0897   -2.2607   23.5659 N   0  0  0  0  0  0  0  0  0  0  0  0
    5.0257   -4.8025   24.7752 O   0  0  0  0  0  0  0  0  0  0  0  0
   10.6374   -0.2311   21.8351 O   0  0  0  0  0  0  0  0  0  0  0  0
    8.8583    3.4712   24.8608 O   0  0  0  0  0  0  0  0  0  0  0  0
   10.0591   -4.0894   24.6424 O   0  0  0  0  0  0  0  0  0  0  0  0
    6.2143    3.5296   20.4590 O   0  0  0  0  0  0  0  0  0  0  0  0
    6.3612   -0.4578   18.5449 O   0  0  0  0  0  0  0  0  0  0  0  0
    6.5046   -6.3160   27.6083 O   0  0  0  0  0  0  0  0  0  0  0  0
    8.2607   -5.8364   25.8183 O   0  0  0  0  0  0  0  0  0  0  0  0
    8.9726    0.7562   24.8573 O   0  0  0  0  0  0  0  0  0  0  0  0
    9.9948    2.3507   21.7030 O   0  0  0  0  0  0  0  0  0  0  0  0
    5.6677    1.4946   21.4773 O   0  0  0  0  0  0  0  0  0  0  0  0
  1  2  1  0
  1  4  2  0
  2  8  2  0
  3  5  2  0
  3  7  1  0
  4 29  1  0
  5 28  1  0
  6  7  2  0
  6 28  1  0
  7 33  1  0
  8 11  1  0
  8 29  1  0
  9 12  2  0
  9 17  1  0
 10 15  1  0
 10 22  2  0
 11 12  1  0
 11 23  2  0
 12 30  1  0
 13 14  2  0
 13 15  1  0
 13 31  1  0
 14 16  1  0
 14 32  1  0
 15 24  2  0
 16 19  1  0
 16 25  2  0
 17 22  1  0
 17 26  2  0
 18 20  1  0
 18 27  2  0
 18 33  1  0
 19 21  1  0
 20 21  1  0
M  END
