WIL-LEE-364b6ea8-34
     RDKit          3D

 22 22  0  0  1  0  0  0  0  0999 V2000
   12.4022    2.3114   23.5204 C   0  0  0  0  0  0  0  0  0  0  0  0
   11.1175    2.5993   23.7351 C   0  0  0  0  0  0  0  0  0  0  0  0
   12.4298    0.8791   23.2079 C   0  0  0  0  0  0  0  0  0  0  0  0
    7.4060   -0.1146   19.5482 C   0  0  0  0  0  0  0  0  0  0  0  0
    8.1629    0.5066   20.4693 C   0  0  0  0  0  0  0  0  0  0  0  0
    6.6138    0.6077   18.5127 C   0  0  0  0  0  0  0  0  0  0  0  0
    8.9047   -0.3434   21.4461 C   0  0  0  0  0  0  0  0  0  0  0  0
   10.1724    1.4456   23.6098 C   0  0  0  0  0  0  0  0  0  0  0  0
   11.0515    0.2864   23.1496 C   0  0  0  0  0  0  0  0  0  0  0  0
   14.9711   -1.6835   24.8524 C   0  0  0  0  0  0  0  0  0  0  0  0
   14.8907   -1.9758   23.3708 C   0  0  0  0  0  0  0  0  0  0  0  0
   13.5102    0.2032   23.0117 N   0  0  0  0  0  0  0  0  0  0  0  0
    5.6778    1.4540   19.0626 N   0  0  0  0  0  0  0  0  0  0  0  0
    6.7802    0.4611   17.3073 O   0  0  0  0  0  0  0  0  0  0  0  0
    8.3685   -1.1220   22.2221 O   0  0  0  0  0  0  0  0  0  0  0  0
   11.1421   -1.5921   21.3251 O   0  0  0  0  0  0  0  0  0  0  0  0
   11.0161    0.8343   20.5878 O   0  0  0  0  0  0  0  0  0  0  0  0
   12.2938   -1.9729   23.4494 O   0  0  0  0  0  0  0  0  0  0  0  0
   13.4517   -1.6036   21.2402 O   0  0  0  0  0  0  0  0  0  0  0  0
    8.3097    1.8697   20.5855 O   0  0  0  0  0  0  0  0  0  0  0  0
   10.6673   -0.2350   21.5002 S   0  0  0  0  0  0  0  0  0  0  0  0
   13.3704   -1.3856   22.6729 S   0  0  0  0  0  0  0  0  0  0  0  0
  1  2  2  0
  1  3  1  0
  2  8  1  0
  3  9  1  0
  3 12  2  0
  4  5  2  0
  4  6  1  0
  5  7  1  0
  5 20  1  0
  6 13  1  0
  6 14  2  0
  7 15  2  0
  7 21  1  0
  8  9  1  0
  9 21  1  0
 10 11  1  0
 11 22  1  0
 12 22  1  0
 16 21  2  0
 17 21  2  0
 18 22  2  0
 19 22  2  0
M  END
