WIL-LEE-23e8b574-1
     RDKit          3D

 19 20  0  0  0  0  0  0  0  0999 V2000
   14.0878   -1.9215   22.5754 C   0  0  0  0  0  0  0  0  0  0  0  0
   14.5120   -0.6943   23.0848 C   0  0  0  0  0  0  0  0  0  0  0  0
   12.7516   -2.3029   22.6971 C   0  0  0  0  0  0  0  0  0  0  0  0
   13.6000    0.1516   23.7160 C   0  0  0  0  0  0  0  0  0  0  0  0
   11.8396   -1.4571   23.3283 C   0  0  0  0  0  0  0  0  0  0  0  0
   12.2638   -0.2298   23.8378 C   0  0  0  0  0  0  0  0  0  0  0  0
    7.2744    0.6198   19.1214 C   0  0  0  0  0  0  0  0  0  0  0  0
    7.4836    0.9341   21.6372 C   0  0  0  0  0  0  0  0  0  0  0  0
    9.3384   -0.0222   20.3268 C   0  0  0  0  0  0  0  0  0  0  0  0
    8.4587    1.8803   22.3312 C   0  0  0  0  0  0  0  0  0  0  0  0
   10.3187    0.9222   21.0134 C   0  0  0  0  0  0  0  0  0  0  0  0
    5.8657    1.1500   19.2106 C   0  0  0  0  0  0  0  0  0  0  0  0
   11.2841    0.6778   24.5156 C   0  0  0  0  0  0  0  0  0  0  0  0
    7.9893    0.5450   20.3156 N   0  0  0  0  0  0  0  0  0  0  0  0
    9.8136    1.2519   22.3804 N   0  0  0  0  0  0  0  0  0  0  0  0
    7.7250    0.2853   18.0228 O   0  0  0  0  0  0  0  0  0  0  0  0
   10.2573    3.0542   24.1613 O   0  0  0  0  0  0  0  0  0  0  0  0
   12.1450    2.3025   22.6590 O   0  0  0  0  0  0  0  0  0  0  0  0
   10.9425    2.0243   23.4124 S   0  0  0  0  0  0  0  0  0  0  0  0
  1  2  2  0
  1  3  1  0
  2  4  1  0
  3  5  2  0
  4  6  2  0
  5  6  1  0
  6 13  1  0
  7 12  1  0
  7 14  1  0
  7 16  2  0
  8 10  1  0
  8 14  1  0
  9 11  1  0
  9 14  1  0
 10 15  1  0
 11 15  1  0
 13 19  1  0
 15 19  1  0
 17 19  2  0
 18 19  2  0
M  END
