WIL-LEE-364b6ea8-17
     RDKit          3D

 16 16  0  0  1  0  0  0  0  0999 V2000
   11.9157    3.7256   23.6530 C   0  0  0  0  0  0  0  0  0  0  0  0
   12.2252    2.6586   22.6632 C   0  0  0  0  0  0  0  0  0  0  0  0
   11.4628    1.3727   22.5006 C   0  0  0  0  0  0  0  0  0  0  0  0
   10.2035   -1.5106   23.5102 C   0  0  0  0  0  0  0  0  0  0  0  0
   10.7610   -0.2847   24.2195 C   0  0  0  0  0  0  0  0  0  0  0  0
   11.4441   -2.1608   22.9243 C   0  0  0  0  0  0  0  0  0  0  0  0
   11.9052    0.2019   23.3255 C   0  0  0  0  0  0  0  0  0  0  0  0
   12.2609   -0.9788   22.4112 C   0  0  0  0  0  0  0  0  0  0  0  0
   15.8334    0.5419   22.2965 C   0  0  0  0  0  0  0  0  0  0  0  0
   11.6473    4.9120   23.2410 N   0  0  0  0  0  0  0  0  0  0  0  0
   13.1771    2.8576   21.9214 O   0  0  0  0  0  0  0  0  0  0  0  0
   10.5164    1.3564   21.7273 O   0  0  0  0  0  0  0  0  0  0  0  0
   14.3891   -1.6241   23.7756 O   0  0  0  0  0  0  0  0  0  0  0  0
   14.2690   -2.2368   21.3191 O   0  0  0  0  0  0  0  0  0  0  0  0
   14.4922    0.1729   22.0150 O   0  0  0  0  0  0  0  0  0  0  0  0
   13.9899   -1.3297   22.4142 S   0  0  0  0  0  0  0  0  0  0  0  0
  1  2  1  0
  1 10  2  0
  2  3  1  0
  2 11  2  0
  3  7  1  0
  3 12  2  0
  4  5  1  0
  4  6  1  0
  5  7  1  0
  6  8  1  0
  7  8  1  0
  8 16  1  0
  9 15  1  0
 13 16  2  0
 14 16  2  0
 15 16  1  0
M  END
