WIL-LEE-1f71e281-6
     RDKit          3D

 22 23  0  0  0  0  0  0  0  0999 V2000
   10.4412    3.0229   24.3180 C   0  0  0  0  0  0  0  0  0  0  0  0
   11.0237    0.7794   23.5939 C   0  0  0  0  0  0  0  0  0  0  0  0
   13.4657    4.6361   23.0487 C   0  0  0  0  0  0  0  0  0  0  0  0
   11.6515    3.5021   23.7786 C   0  0  0  0  0  0  0  0  0  0  0  0
   12.2300    1.2317   23.0515 C   0  0  0  0  0  0  0  0  0  0  0  0
   12.2635    4.7845   23.7013 C   0  0  0  0  0  0  0  0  0  0  0  0
   12.5163    2.5973   23.1591 C   0  0  0  0  0  0  0  0  0  0  0  0
   10.1416    1.6594   24.2177 C   0  0  0  0  0  0  0  0  0  0  0  0
    8.7169    6.4668   22.8300 C   0  0  0  0  0  0  0  0  0  0  0  0
   13.3751   -1.8077   23.7581 C   0  0  0  0  0  0  0  0  0  0  0  0
    7.7517    5.7485   21.9464 C   0  0  0  0  0  0  0  0  0  0  0  0
   14.2267   -2.5473   24.7594 C   0  0  0  0  0  0  0  0  0  0  0  0
   15.1192   -0.0014   23.8523 C   0  0  0  0  0  0  0  0  0  0  0  0
   11.7158    6.0528   24.2235 C   0  0  0  0  0  0  0  0  0  0  0  0
   13.1511    0.2615   22.3906 C   0  0  0  0  0  0  0  0  0  0  0  0
   11.1306    6.9769   23.1402 C   0  0  0  0  0  0  0  0  0  0  0  0
   13.6091    3.3134   22.7255 N   0  0  0  0  0  0  0  0  0  0  0  0
   10.0402    6.3606   22.4330 N   0  0  0  0  0  0  0  0  0  0  0  0
   13.8609   -0.5544   23.3424 N   0  0  0  0  0  0  0  0  0  0  0  0
    8.3012    7.0797   23.8063 O   0  0  0  0  0  0  0  0  0  0  0  0
   12.3252   -2.3225   23.3642 O   0  0  0  0  0  0  0  0  0  0  0  0
    8.9924    1.1960   24.7280 F   0  0  0  0  0  0  0  0  0  0  0  0
  1  4  2  0
  1  8  1  0
  2  5  1  0
  2  8  2  0
  3  6  2  0
  3 17  1  0
  4  6  1  0
  4  7  1  0
  5  7  2  0
  5 15  1  0
  6 14  1  0
  7 17  1  0
  8 22  1  0
  9 11  1  0
  9 18  1  0
  9 20  2  0
 10 12  1  0
 10 19  1  0
 10 21  2  0
 13 19  1  0
 14 16  1  0
 15 19  1  0
 16 18  1  0
M  END
