WIL-NOV-649f4ed0-5
     RDKit          3D

 24 25  0  0  0  0  0  0  0  0999 V2000
    5.9085   -2.1935   19.3031 C   0  0  0  0  0  0  0  0  0  0  0  0
   10.3673   -4.0559   24.4345 C   0  0  0  0  0  0  0  0  0  0  0  0
    9.3917   -4.9056   23.9131 C   0  0  0  0  0  0  0  0  0  0  0  0
    9.3373   -2.1826   23.3090 C   0  0  0  0  0  0  0  0  0  0  0  0
    8.3617   -3.0323   22.7876 C   0  0  0  0  0  0  0  0  0  0  0  0
   10.3401   -2.6944   24.1325 C   0  0  0  0  0  0  0  0  0  0  0  0
    8.3889   -4.3938   23.0896 C   0  0  0  0  0  0  0  0  0  0  0  0
    7.3305   -2.4609   21.9311 C   0  0  0  0  0  0  0  0  0  0  0  0
   12.3563   -2.4241   25.5171 C   0  0  0  0  0  0  0  0  0  0  0  0
   10.9954   -0.4375   24.9274 C   0  0  0  0  0  0  0  0  0  0  0  0
   13.5677   -1.4997   25.5603 C   0  0  0  0  0  0  0  0  0  0  0  0
   12.2795    0.3811   25.0026 C   0  0  0  0  0  0  0  0  0  0  0  0
    7.6910   -0.6150   18.6734 C   0  0  0  0  0  0  0  0  0  0  0  0
    6.1015   -0.0784   20.5436 C   0  0  0  0  0  0  0  0  0  0  0  0
    6.8616   -1.1946   19.8217 C   0  0  0  0  0  0  0  0  0  0  0  0
    5.1580   -2.9787   18.8942 N   0  0  0  0  0  0  0  0  0  0  0  0
   11.3185   -1.8423   24.6548 N   0  0  0  0  0  0  0  0  0  0  0  0
    7.7040   -6.9694   23.1338 N   0  0  0  0  0  0  0  0  0  0  0  0
    7.7597   -1.8287   20.7599 N   0  0  0  0  0  0  0  0  0  0  0  0
    6.1339   -2.5270   22.2585 O   0  0  0  0  0  0  0  0  0  0  0  0
    5.8950   -5.1357   23.0303 O   0  0  0  0  0  0  0  0  0  0  0  0
    7.3392   -5.5583   21.0096 O   0  0  0  0  0  0  0  0  0  0  0  0
   13.1781   -0.1847   25.9562 O   0  0  0  0  0  0  0  0  0  0  0  0
    7.1823   -5.4921   22.4543 S   0  0  0  0  0  0  0  0  0  0  0  0
  1 15  1  0
  1 16  3  0
  2  3  2  0
  2  6  1  0
  3  7  1  0
  4  5  1  0
  4  6  2  0
  5  7  2  0
  5  8  1  0
  6 17  1  0
  7 24  1  0
  8 19  1  0
  8 20  2  0
  9 11  1  0
  9 17  1  0
 10 12  1  0
 10 17  1  0
 11 23  1  0
 12 23  1  0
 13 15  1  0
 14 15  1  0
 15 19  1  0
 18 24  1  0
 21 24  2  0
 22 24  2  0
M  END
