WIL-LEE-23e8b574-7
     RDKit          3D

 22 23  0  0  0  0  0  0  0  0999 V2000
   11.1816    0.2124   24.6522 C   0  0  0  0  0  0  0  0  0  0  0  0
   11.7269   -0.4466   22.3928 C   0  0  0  0  0  0  0  0  0  0  0  0
   10.2346   -0.8093   24.7217 C   0  0  0  0  0  0  0  0  0  0  0  0
   10.7800   -1.4684   22.4622 C   0  0  0  0  0  0  0  0  0  0  0  0
   11.9277    0.3938   23.4877 C   0  0  0  0  0  0  0  0  0  0  0  0
   10.0338   -1.6498   23.6267 C   0  0  0  0  0  0  0  0  0  0  0  0
    9.7353    7.9527   25.5902 C   0  0  0  0  0  0  0  0  0  0  0  0
   11.5175    6.4563   24.7534 C   0  0  0  0  0  0  0  0  0  0  0  0
    9.2122    5.5784   24.8465 C   0  0  0  0  0  0  0  0  0  0  0  0
   11.6826    5.9259   23.3367 C   0  0  0  0  0  0  0  0  0  0  0  0
    9.3469    5.0332   23.4309 C   0  0  0  0  0  0  0  0  0  0  0  0
    8.3493    8.4399   25.2501 C   0  0  0  0  0  0  0  0  0  0  0  0
   12.9510    1.4987   23.4121 C   0  0  0  0  0  0  0  0  0  0  0  0
   12.3917    2.8285   22.8894 C   0  0  0  0  0  0  0  0  0  0  0  0
   11.3003    3.4619   23.7468 C   0  0  0  0  0  0  0  0  0  0  0  0
   10.1111    6.7178   25.0616 N   0  0  0  0  0  0  0  0  0  0  0  0
    9.8029   -4.2139   24.3173 N   0  0  0  0  0  0  0  0  0  0  0  0
   10.7914    4.7267   23.1112 N   0  0  0  0  0  0  0  0  0  0  0  0
   10.4614    8.6511   26.3021 O   0  0  0  0  0  0  0  0  0  0  0  0
    7.8574   -2.5704   24.7171 O   0  0  0  0  0  0  0  0  0  0  0  0
    8.4244   -3.2599   22.3611 O   0  0  0  0  0  0  0  0  0  0  0  0
    8.8501   -2.9301   23.7142 S   0  0  0  0  0  0  0  0  0  0  0  0
  1  3  2  0
  1  5  1  0
  2  4  1  0
  2  5  2  0
  3  6  1  0
  4  6  2  0
  5 13  1  0
  6 22  1  0
  7 12  1  0
  7 16  1  0
  7 19  2  0
  8 10  1  0
  8 16  1  0
  9 11  1  0
  9 16  1  0
 10 18  1  0
 11 18  1  0
 13 14  1  0
 14 15  1  0
 15 18  1  0
 17 22  1  0
 20 22  2  0
 21 22  2  0
M  CHG  1  18   1
M  END
