WIL-LEE-364b6ea8-33
     RDKit          3D

 21 21  0  0  0  0  0  0  0  0999 V2000
   13.2811   -0.8309   25.1684 C   0  0  0  0  0  0  0  0  0  0  0  0
   13.3682   -1.9453   25.9085 C   0  0  0  0  0  0  0  0  0  0  0  0
   11.0423   -1.5823   24.2988 C   0  0  0  0  0  0  0  0  0  0  0  0
   11.1283   -2.6976   25.0386 C   0  0  0  0  0  0  0  0  0  0  0  0
    7.7720   -4.8684   23.9114 C   0  0  0  0  0  0  0  0  0  0  0  0
    7.1178   -1.2105   19.5383 C   0  0  0  0  0  0  0  0  0  0  0  0
    5.9989   -2.6919   20.8112 C   0  0  0  0  0  0  0  0  0  0  0  0
   12.1088   -0.5253   24.2822 C   0  0  0  0  0  0  0  0  0  0  0  0
   12.3025   -3.0035   25.9278 C   0  0  0  0  0  0  0  0  0  0  0  0
    8.2952   -0.2639   19.5677 C   0  0  0  0  0  0  0  0  0  0  0  0
    9.1134   -5.5631   24.1043 C   0  0  0  0  0  0  0  0  0  0  0  0
    7.5795   -4.1971   22.5708 C   0  0  0  0  0  0  0  0  0  0  0  0
   10.2969   -4.6109   24.0260 C   0  0  0  0  0  0  0  0  0  0  0  0
    7.0062   -1.8288   20.7174 N   0  0  0  0  0  0  0  0  0  0  0  0
    6.9081   -4.8565   24.7866 O   0  0  0  0  0  0  0  0  0  0  0  0
    6.4313   -1.3159   18.5230 O   0  0  0  0  0  0  0  0  0  0  0  0
    5.1286   -3.0526   20.0312 O   0  0  0  0  0  0  0  0  0  0  0  0
    4.9764   -4.4165   22.4227 O   0  0  0  0  0  0  0  0  0  0  0  0
    5.9821   -2.2768   23.3500 O   0  0  0  0  0  0  0  0  0  0  0  0
   10.1550   -3.5989   25.0144 O   0  0  0  0  0  0  0  0  0  0  0  0
    6.0156   -3.4012   22.4305 S   0  0  0  0  0  0  0  0  0  0  0  0
  1  2  2  0
  1  8  1  0
  2  9  1  0
  3  4  2  0
  3  8  1  0
  4  9  1  0
  4 20  1  0
  5 11  1  0
  5 12  1  0
  5 15  2  0
  6 10  1  0
  6 14  1  0
  6 16  2  0
  7 14  1  0
  7 17  2  0
  7 21  1  0
 11 13  1  0
 12 21  1  0
 13 20  1  0
 18 21  2  0
 19 21  2  0
M  CHG  1  14  -1
M  END
