WIL-LEE-1f71e281-2
     RDKit          3D

 18 19  0  0  1  0  0  0  0  0999 V2000
   10.1759   -2.8081   22.8747 C   0  0  0  0  0  0  0  0  0  0  0  0
    8.1954   -1.9427   21.7006 C   0  0  0  0  0  0  0  0  0  0  0  0
   10.4652   -1.6857   22.1303 C   0  0  0  0  0  0  0  0  0  0  0  0
    9.3179   -1.1842   21.4502 C   0  0  0  0  0  0  0  0  0  0  0  0
   12.4043    0.8680   23.5475 C   0  0  0  0  0  0  0  0  0  0  0  0
    7.4542    0.5204   19.0098 C   0  0  0  0  0  0  0  0  0  0  0  0
   14.2058   -1.4835   22.0203 C   0  0  0  0  0  0  0  0  0  0  0  0
   12.8980   -2.0127   21.4571 C   0  0  0  0  0  0  0  0  0  0  0  0
   13.8546   -1.1664   23.4668 C   0  0  0  0  0  0  0  0  0  0  0  0
   11.8436   -1.0674   22.0522 C   0  0  0  0  0  0  0  0  0  0  0  0
   12.4192   -0.6284   23.4203 C   0  0  0  0  0  0  0  0  0  0  0  0
    6.0613    1.0532   18.9451 C   0  0  0  0  0  0  0  0  0  0  0  0
    9.3192    0.0119   20.5737 C   0  0  0  0  0  0  0  0  0  0  0  0
   12.9797    1.3317   24.7069 N   0  0  0  0  0  0  0  0  0  0  0  0
    7.9880    0.4913   20.2848 N   0  0  0  0  0  0  0  0  0  0  0  0
   11.9315    1.5926   22.6753 O   0  0  0  0  0  0  0  0  0  0  0  0
    8.0109    0.1580   17.9801 O   0  0  0  0  0  0  0  0  0  0  0  0
    8.5269   -3.2531   22.7520 S   0  0  0  0  0  0  0  0  0  0  0  0
  1  3  2  0
  1 18  1  0
  2  4  2  0
  2 18  1  0
  3  4  1  0
  3 10  1  0
  4 13  1  0
  5 11  1  0
  5 14  1  0
  5 16  2  0
  6 12  1  0
  6 15  1  0
  6 17  2  0
  7  8  1  0
  7  9  1  0
  8 10  1  0
  9 11  1  0
 10 11  1  0
 13 15  1  0
M  END
