WIL-LEE-364b6ea8-3
     RDKit          3D

 30 30  0  0  1  0  0  0  0  0999 V2000
    5.8421   -5.7272   23.3388 C   0  0  0  0  0  0  0  0  0  0  0  0
   10.9426   -2.3632   22.8594 C   0  0  0  0  0  0  0  0  0  0  0  0
   11.8114   -1.4703   23.3473 C   0  0  0  0  0  0  0  0  0  0  0  0
   11.7017    2.1310   23.4597 C   0  0  0  0  0  0  0  0  0  0  0  0
   10.3615    1.8509   24.0648 C   0  0  0  0  0  0  0  0  0  0  0  0
   12.7594    1.0941   23.2610 C   0  0  0  0  0  0  0  0  0  0  0  0
    9.2977    2.8821   24.2498 C   0  0  0  0  0  0  0  0  0  0  0  0
    8.7892   -3.3124   23.6851 C   0  0  0  0  0  0  0  0  0  0  0  0
    8.0453    1.8065   21.9706 C   0  0  0  0  0  0  0  0  0  0  0  0
    5.1052   -6.3921   24.4653 C   0  0  0  0  0  0  0  0  0  0  0  0
    5.6151   -5.6087   25.6675 C   0  0  0  0  0  0  0  0  0  0  0  0
    5.9095   -4.2130   25.1226 C   0  0  0  0  0  0  0  0  0  0  0  0
    6.5237   -4.4442   23.7381 C   0  0  0  0  0  0  0  0  0  0  0  0
    7.4622    0.4727   21.5695 C   0  0  0  0  0  0  0  0  0  0  0  0
    6.6519   -5.3885   21.2010 C   0  0  0  0  0  0  0  0  0  0  0  0
   10.3079   -3.4324   23.6932 C   0  0  0  0  0  0  0  0  0  0  0  0
    8.0333   -4.6283   23.7815 C   0  0  0  0  0  0  0  0  0  0  0  0
    5.8787   -6.1933   22.1365 N   0  0  0  0  0  0  0  0  0  0  0  0
   11.9446    3.2722   23.0989 O   0  0  0  0  0  0  0  0  0  0  0  0
   10.1181    0.7097   24.4257 O   0  0  0  0  0  0  0  0  0  0  0  0
   13.8458    1.2334   23.7979 O   0  0  0  0  0  0  0  0  0  0  0  0
    9.5222    3.8570   24.9474 O   0  0  0  0  0  0  0  0  0  0  0  0
    8.2089   -2.2296   23.6195 O   0  0  0  0  0  0  0  0  0  0  0  0
    8.8282    2.3685   21.2037 O   0  0  0  0  0  0  0  0  0  0  0  0
   11.4218    0.1098   21.3221 O   0  0  0  0  0  0  0  0  0  0  0  0
   13.7658   -0.7195   21.7965 O   0  0  0  0  0  0  0  0  0  0  0  0
    6.9474    1.8666   24.3419 O   0  0  0  0  0  0  0  0  0  0  0  0
    7.3378    4.0391   23.0659 O   0  0  0  0  0  0  0  0  0  0  0  0
   12.4543   -0.3042   22.2509 S   0  0  0  0  0  0  0  0  0  0  0  0
    7.7434    2.7147   23.4828 S   0  0  0  0  0  0  0  0  0  0  0  0
  1 10  1  0
  1 13  1  0
  1 18  2  0
  2  3  2  0
  2 16  1  0
  3 29  1  0
  4  5  1  0
  4  6  1  0
  4 19  2  0
  5  7  1  0
  5 20  2  0
  6 21  2  0
  6 29  1  0
  7 22  2  0
  7 30  1  0
  8 16  1  0
  8 17  1  0
  8 23  2  0
  9 14  1  0
  9 24  2  0
  9 30  1  0
 10 11  1  0
 11 12  1  0
 12 13  1  0
 13 17  1  0
 15 18  1  0
 25 29  2  0
 26 29  2  0
 27 30  2  0
 28 30  2  0
M  END
