WIL-LEE-364b6ea8-28
     RDKit          3D

 23 24  0  0  0  0  0  0  0  0999 V2000
    7.4176   -3.6156   23.1292 C   0  0  0  0  0  0  0  0  0  0  0  0
    8.5817   -3.6275   23.7899 C   0  0  0  0  0  0  0  0  0  0  0  0
    4.8868    1.2863   18.1815 C   0  0  0  0  0  0  0  0  0  0  0  0
    8.1730   -1.5822   21.8265 C   0  0  0  0  0  0  0  0  0  0  0  0
    9.3441   -1.5940   22.4914 C   0  0  0  0  0  0  0  0  0  0  0  0
    5.8749    0.6981   20.0981 C   0  0  0  0  0  0  0  0  0  0  0  0
    4.6624    1.5200   20.3242 C   0  0  0  0  0  0  0  0  0  0  0  0
    6.6330    0.2288   21.0935 C   0  0  0  0  0  0  0  0  0  0  0  0
   12.1528    1.1779   24.2883 C   0  0  0  0  0  0  0  0  0  0  0  0
    7.8330   -0.5875   20.7941 C   0  0  0  0  0  0  0  0  0  0  0  0
   10.4202   -0.6140   22.2625 C   0  0  0  0  0  0  0  0  0  0  0  0
    7.0845   -2.5989   22.0798 C   0  0  0  0  0  0  0  0  0  0  0  0
    9.6690   -2.6251   23.5468 C   0  0  0  0  0  0  0  0  0  0  0  0
    6.0748    0.5074   18.6396 C   0  0  0  0  0  0  0  0  0  0  0  0
   11.6075    1.8002   23.0364 C   0  0  0  0  0  0  0  0  0  0  0  0
    4.1401    1.8224   19.0898 N   0  0  0  0  0  0  0  0  0  0  0  0
    4.2267    1.8543   21.4142 O   0  0  0  0  0  0  0  0  0  0  0  0
   13.2330    0.6041   24.3763 O   0  0  0  0  0  0  0  0  0  0  0  0
    8.5079   -0.4688   19.7800 O   0  0  0  0  0  0  0  0  0  0  0  0
   11.5363   -0.9388   21.8932 O   0  0  0  0  0  0  0  0  0  0  0  0
    9.7124    1.6157   21.2339 O   0  0  0  0  0  0  0  0  0  0  0  0
    9.1551    1.1143   23.6581 O   0  0  0  0  0  0  0  0  0  0  0  0
   10.0671    1.0837   22.5334 S   0  0  0  0  0  0  0  0  0  0  0  0
  1  2  2  0
  1 12  1  0
  2 13  1  0
  3 14  1  0
  3 16  2  0
  4  5  2  0
  4 10  1  0
  4 12  1  0
  5 11  1  0
  5 13  1  0
  6  7  1  0
  6  8  2  0
  6 14  1  0
  7 16  1  0
  7 17  2  0
  8 10  1  0
  9 15  1  0
  9 18  2  0
 10 19  2  0
 11 20  2  0
 11 23  1  0
 15 23  1  0
 21 23  2  0
 22 23  2  0
M  END
