WIL-LEE-364b6ea8-16
     RDKit          3D

 21 21  0  0  0  0  0  0  0  0999 V2000
   12.7100   -0.6010   24.5931 C   0  0  0  0  0  0  0  0  0  0  0  0
   11.3414   -0.7328   24.3582 C   0  0  0  0  0  0  0  0  0  0  0  0
   13.4464   -1.6915   25.0560 C   0  0  0  0  0  0  0  0  0  0  0  0
   10.7091   -1.9549   24.5865 C   0  0  0  0  0  0  0  0  0  0  0  0
   12.8141   -2.9137   25.2843 C   0  0  0  0  0  0  0  0  0  0  0  0
   11.4454   -3.0454   25.0495 C   0  0  0  0  0  0  0  0  0  0  0  0
   10.7734   -4.3442   25.2921 C   0  0  0  0  0  0  0  0  0  0  0  0
    9.3025   -4.4986   25.0436 C   0  0  0  0  0  0  0  0  0  0  0  0
    7.7871   -5.0970   23.4855 C   0  0  0  0  0  0  0  0  0  0  0  0
    5.9423   -2.4654   19.8815 C   0  0  0  0  0  0  0  0  0  0  0  0
    6.5620   -1.1309   19.5411 C   0  0  0  0  0  0  0  0  0  0  0  0
    7.6596   -5.5880   22.0484 C   0  0  0  0  0  0  0  0  0  0  0  0
    7.5486   -4.4302   21.0687 C   0  0  0  0  0  0  0  0  0  0  0  0
    9.0740   -4.9278   23.8040 N   0  0  0  0  0  0  0  0  0  0  0  0
   11.3632   -5.3274   25.7176 O   0  0  0  0  0  0  0  0  0  0  0  0
    8.5608   -4.2341   25.9818 O   0  0  0  0  0  0  0  0  0  0  0  0
    6.7789   -4.9095   24.1664 O   0  0  0  0  0  0  0  0  0  0  0  0
    5.2191   -3.0249   19.0569 O   0  0  0  0  0  0  0  0  0  0  0  0
    4.9568   -4.2312   21.4973 O   0  0  0  0  0  0  0  0  0  0  0  0
    6.4949   -2.4291   22.4087 O   0  0  0  0  0  0  0  0  0  0  0  0
    6.1462   -3.4083   21.3982 S   0  0  0  0  0  0  0  0  0  0  0  0
  1  2  2  0
  1  3  1  0
  2  4  1  0
  3  5  2  0
  4  6  2  0
  5  6  1  0
  6  7  1  0
  7  8  1  0
  7 15  2  0
  8 14  1  0
  8 16  2  0
  9 12  1  0
  9 14  1  0
  9 17  2  0
 10 11  1  0
 10 18  2  0
 10 21  1  0
 12 13  1  0
 13 21  1  0
 19 21  2  0
 20 21  2  0
M  CHG  1  14  -1
M  END
