WIL-LEE-364b6ea8-4
     RDKit          3D

 21 21  0  0  1  0  0  0  0  0999 V2000
    8.0891    7.4633   23.6870 C   0  0  0  0  0  0  0  0  0  0  0  0
    8.0024    6.6013   22.6646 C   0  0  0  0  0  0  0  0  0  0  0  0
   13.7930    0.7633   22.4288 C   0  0  0  0  0  0  0  0  0  0  0  0
   11.6040    3.3737   23.5168 C   0  0  0  0  0  0  0  0  0  0  0  0
   11.2107    4.5849   23.0681 C   0  0  0  0  0  0  0  0  0  0  0  0
   12.8514    2.7800   22.9174 C   0  0  0  0  0  0  0  0  0  0  0  0
   13.7603   -0.7282   22.4020 C   0  0  0  0  0  0  0  0  0  0  0  0
    9.2466    7.4919   24.6399 C   0  0  0  0  0  0  0  0  0  0  0  0
    9.0366    5.5509   22.3859 C   0  0  0  0  0  0  0  0  0  0  0  0
   10.4515    6.6878   24.1449 C   0  0  0  0  0  0  0  0  0  0  0  0
   10.0155    5.3483   23.5496 C   0  0  0  0  0  0  0  0  0  0  0  0
   11.8582   -1.8727   24.1043 C   0  0  0  0  0  0  0  0  0  0  0  0
   10.8982    2.5451   24.5585 C   0  0  0  0  0  0  0  0  0  0  0  0
   12.7900    1.4055   22.9146 N   0  0  0  0  0  0  0  0  0  0  0  0
   13.7601    3.4826   22.4856 O   0  0  0  0  0  0  0  0  0  0  0  0
   13.8408   -1.2970   21.3255 O   0  0  0  0  0  0  0  0  0  0  0  0
   14.1856   -2.9547   23.5695 O   0  0  0  0  0  0  0  0  0  0  0  0
   14.1094   -0.8125   24.9275 O   0  0  0  0  0  0  0  0  0  0  0  0
   11.9468    5.2586   22.1042 O   0  0  0  0  0  0  0  0  0  0  0  0
    9.9342    1.7074   23.9274 O   0  0  0  0  0  0  0  0  0  0  0  0
   13.6020   -1.6644   23.8719 S   0  0  0  0  0  0  0  0  0  0  0  0
  1  2  2  0
  1  8  1  0
  2  9  1  0
  3  7  1  0
  3 14  2  0
  4  5  2  0
  4  6  1  0
  4 13  1  0
  5 11  1  0
  5 19  1  0
  6 14  1  0
  6 15  2  0
  7 16  2  0
  7 21  1  0
  8 10  1  0
  9 11  1  0
 10 11  1  0
 12 21  1  0
 13 20  1  0
 17 21  2  0
 18 21  2  0
M  END
