WIL-LEE-364b6ea8-13
     RDKit          3D

 22 23  0  0  0  0  0  0  0  0999 V2000
    9.7449   -1.9491   24.9022 C   0  0  0  0  0  0  0  0  0  0  0  0
   11.9444   -3.7286   24.9923 C   0  0  0  0  0  0  0  0  0  0  0  0
    8.8148   -5.4452   24.3799 C   0  0  0  0  0  0  0  0  0  0  0  0
    9.5393   -3.3308   24.7175 C   0  0  0  0  0  0  0  0  0  0  0  0
    8.3937   -4.1387   24.4730 C   0  0  0  0  0  0  0  0  0  0  0  0
   10.6416   -4.1869   24.7667 C   0  0  0  0  0  0  0  0  0  0  0  0
   11.0426   -1.4763   25.1288 C   0  0  0  0  0  0  0  0  0  0  0  0
   12.1240   -2.3541   25.1727 C   0  0  0  0  0  0  0  0  0  0  0  0
    6.6735   -3.6400   20.5591 C   0  0  0  0  0  0  0  0  0  0  0  0
    7.5638   -2.9705   19.5654 C   0  0  0  0  0  0  0  0  0  0  0  0
   11.4934    0.6388   24.1395 C   0  0  0  0  0  0  0  0  0  0  0  0
    6.9994   -3.6699   24.3406 C   0  0  0  0  0  0  0  0  0  0  0  0
    6.3435   -4.0239   22.9935 C   0  0  0  0  0  0  0  0  0  0  0  0
   10.1720   -5.4642   24.5587 N   0  0  0  0  0  0  0  0  0  0  0  0
    7.0603   -3.4659   21.8783 N   0  0  0  0  0  0  0  0  0  0  0  0
   13.3995   -2.3806   27.7850 O   0  0  0  0  0  0  0  0  0  0  0  0
    5.6993   -4.2722   20.1681 O   0  0  0  0  0  0  0  0  0  0  0  0
   15.3182   -1.2385   26.7790 O   0  0  0  0  0  0  0  0  0  0  0  0
   14.8883   -3.6152   26.2829 O   0  0  0  0  0  0  0  0  0  0  0  0
   11.2356   -0.1375   25.3067 O   0  0  0  0  0  0  0  0  0  0  0  0
   13.3839   -1.8788   25.3948 O   0  0  0  0  0  0  0  0  0  0  0  0
   14.3356   -2.3156   26.6628 S   0  0  0  0  0  0  0  0  0  0  0  0
  1  4  2  0
  1  7  1  0
  2  6  2  0
  2  8  1  0
  3  5  2  0
  3 14  1  0
  4  5  1  0
  4  6  1  0
  5 12  1  0
  6 14  1  0
  7  8  2  0
  7 20  1  0
  8 21  1  0
  9 10  1  0
  9 15  1  0
  9 17  2  0
 11 20  1  0
 12 13  1  0
 13 15  1  0
 16 22  1  0
 18 22  2  0
 19 22  2  0
 21 22  1  0
M  CHG  1  16  -1
M  END
