WIL-LEE-23e8b574-5
     RDKit          3D

 23 25  0  0  1  0  0  0  0  0999 V2000
   12.8171    0.6453   23.6642 C   0  0  0  0  0  0  0  0  0  0  0  0
   12.8877   -0.6224   23.0868 C   0  0  0  0  0  0  0  0  0  0  0  0
   11.5795    1.1819   24.0196 C   0  0  0  0  0  0  0  0  0  0  0  0
   11.7207   -1.3536   22.8646 C   0  0  0  0  0  0  0  0  0  0  0  0
   10.4126    0.4508   23.7974 C   0  0  0  0  0  0  0  0  0  0  0  0
   10.4832   -0.8169   23.2199 C   0  0  0  0  0  0  0  0  0  0  0  0
    6.1739   -1.3864   18.9694 C   0  0  0  0  0  0  0  0  0  0  0  0
    8.3351   -2.9163   26.4617 C   0  0  0  0  0  0  0  0  0  0  0  0
    9.6638   -4.6643   25.2337 C   0  0  0  0  0  0  0  0  0  0  0  0
    8.1589   -0.6155   20.2217 C   0  0  0  0  0  0  0  0  0  0  0  0
    6.6572   -2.2470   21.3090 C   0  0  0  0  0  0  0  0  0  0  0  0
    8.2779    0.1257   21.5541 C   0  0  0  0  0  0  0  0  0  0  0  0
    6.8135   -1.4717   22.6197 C   0  0  0  0  0  0  0  0  0  0  0  0
    8.7148   -1.8898   25.4059 C   0  0  0  0  0  0  0  0  0  0  0  0
   10.0404   -3.6338   24.1806 C   0  0  0  0  0  0  0  0  0  0  0  0
    9.3872   -4.0142   26.5870 C   0  0  0  0  0  0  0  0  0  0  0  0
    6.2520   -0.1393   18.1251 C   0  0  0  0  0  0  0  0  0  0  0  0
    9.2157   -1.6101   22.9787 C   0  0  0  0  0  0  0  0  0  0  0  0
    6.9202   -1.3901   20.1481 N   0  0  0  0  0  0  0  0  0  0  0  0
    8.0764   -0.7300   22.7308 N   0  0  0  0  0  0  0  0  0  0  0  0
    8.9515   -2.5904   24.0884 N   0  0  0  0  0  0  0  0  0  0  0  0
    5.4739   -2.3289   18.5904 O   0  0  0  0  0  0  0  0  0  0  0  0
    8.9171   -4.9950   27.5046 O   0  0  0  0  0  0  0  0  0  0  0  0
  1  2  2  0
  1  3  1  0
  2  4  1  0
  3  5  2  0
  4  6  2  0
  5  6  1  0
  6 18  1  0
  7 17  1  0
  7 19  1  0
  7 22  2  0
  8 14  1  0
  8 16  1  0
  9 15  1  0
  9 16  1  0
 10 12  1  0
 10 19  1  0
 11 13  1  0
 11 19  1  0
 12 20  1  0
 13 20  1  0
 14 21  1  0
 15 21  1  0
 16 23  1  0
 18 20  1  0
 18 21  1  0
M  CHG  1  21   1
M  END
