WIL-LEE-364b6ea8-26
     RDKit          3D

 24 24  0  0  0  0  0  0  0  0999 V2000
    9.2250    3.9178   23.3963 C   0  0  0  0  0  0  0  0  0  0  0  0
    8.4607    3.0779   23.0064 C   0  0  0  0  0  0  0  0  0  0  0  0
    9.5313   -2.8036   22.6229 C   0  0  0  0  0  0  0  0  0  0  0  0
   10.9106   -2.5040   22.3599 C   0  0  0  0  0  0  0  0  0  0  0  0
    8.7925   -1.9593   23.3509 C   0  0  0  0  0  0  0  0  0  0  0  0
   11.4220   -1.3737   22.8587 C   0  0  0  0  0  0  0  0  0  0  0  0
   13.2857    1.3964   22.2905 C   0  0  0  0  0  0  0  0  0  0  0  0
   13.7428    2.5710   22.7373 C   0  0  0  0  0  0  0  0  0  0  0  0
   10.1442    4.9292   23.8681 C   0  0  0  0  0  0  0  0  0  0  0  0
   12.8314   -1.0659   22.5916 C   0  0  0  0  0  0  0  0  0  0  0  0
   13.3640    0.2071   23.1671 C   0  0  0  0  0  0  0  0  0  0  0  0
   13.6645    3.7602   21.8605 C   0  0  0  0  0  0  0  0  0  0  0  0
   14.1955    5.0453   22.4253 C   0  0  0  0  0  0  0  0  0  0  0  0
   10.6066   -0.4156   23.6778 C   0  0  0  0  0  0  0  0  0  0  0  0
   13.5144    5.5599   23.6669 C   0  0  0  0  0  0  0  0  0  0  0  0
   10.9768    5.4421   22.8933 N   0  0  0  0  0  0  0  0  0  0  0  0
   10.1136    5.2394   25.0528 O   0  0  0  0  0  0  0  0  0  0  0  0
   13.5828   -1.7854   21.9560 O   0  0  0  0  0  0  0  0  0  0  0  0
   13.8345    0.1743   24.2920 O   0  0  0  0  0  0  0  0  0  0  0  0
   13.2405    3.7741   20.7162 O   0  0  0  0  0  0  0  0  0  0  0  0
   15.1399    5.5545   21.8398 O   0  0  0  0  0  0  0  0  0  0  0  0
    9.2300   -0.7834   23.8989 O   0  0  0  0  0  0  0  0  0  0  0  0
    7.6173    2.1472   22.5752 O   0  0  0  0  0  0  0  0  0  0  0  0
   12.1236    6.6361   23.2461 S   0  0  0  0  0  0  0  0  0  0  0  0
  1  2  3  0
  1  9  1  0
  2 23  1  0
  3  4  1  0
  3  5  2  0
  4  6  2  0
  5 22  1  0
  6 10  1  0
  6 14  1  0
  7  8  2  0
  7 11  1  0
  8 12  1  0
  9 16  1  0
  9 17  2  0
 10 11  1  0
 10 18  2  0
 11 19  2  0
 12 13  1  0
 12 20  2  0
 13 15  1  0
 13 21  2  0
 14 22  1  0
 15 24  1  0
 16 24  1  0
M  END
