WIL-LEE-364b6ea8-29
     RDKit          3D

 21 20  0  0  0  0  0  0  0  0999 V2000
    7.6479   -3.7935   23.4069 C   0  0  0  0  0  0  0  0  0  0  0  0
    6.4175   -3.8943   23.8087 C   0  0  0  0  0  0  0  0  0  0  0  0
    8.8790   -3.6961   23.0029 C   0  0  0  0  0  0  0  0  0  0  0  0
   10.7111    5.9463   23.5152 C   0  0  0  0  0  0  0  0  0  0  0  0
   13.7005    3.3781   21.6133 C   0  0  0  0  0  0  0  0  0  0  0  0
   13.8958    2.4007   22.5069 C   0  0  0  0  0  0  0  0  0  0  0  0
   10.1059    5.8252   24.7009 C   0  0  0  0  0  0  0  0  0  0  0  0
    9.7002   -2.5014   23.3286 C   0  0  0  0  0  0  0  0  0  0  0  0
   13.6556    0.1034   23.2206 C   0  0  0  0  0  0  0  0  0  0  0  0
   13.0754   -1.2151   22.7488 C   0  0  0  0  0  0  0  0  0  0  0  0
   12.1745    5.7264   23.4206 C   0  0  0  0  0  0  0  0  0  0  0  0
   14.1817    4.7812   21.8086 C   0  0  0  0  0  0  0  0  0  0  0  0
   11.1177   -2.5122   22.7987 C   0  0  0  0  0  0  0  0  0  0  0  0
   13.4629    1.1228   22.3101 N   0  0  0  0  0  0  0  0  0  0  0  0
    9.2459   -1.5697   23.9877 O   0  0  0  0  0  0  0  0  0  0  0  0
   14.2165    0.1585   24.3047 O   0  0  0  0  0  0  0  0  0  0  0  0
   13.7214   -2.0123   22.0956 O   0  0  0  0  0  0  0  0  0  0  0  0
   12.8841    5.4352   24.3734 O   0  0  0  0  0  0  0  0  0  0  0  0
    8.7638    6.0035   24.9090 O   0  0  0  0  0  0  0  0  0  0  0  0
   11.7984   -1.3101   23.1717 O   0  0  0  0  0  0  0  0  0  0  0  0
   12.7811    5.9316   21.7822 S   0  0  0  0  0  0  0  0  0  0  0  0
  1  2  2  0
  1  3  2  0
  3  8  1  0
  4  7  2  0
  4 11  1  0
  5  6  2  0
  5 12  1  0
  6 14  1  0
  7 19  1  0
  8 13  1  0
  8 15  2  0
  9 10  1  0
  9 14  1  0
  9 16  2  0
 10 17  2  0
 10 20  1  0
 11 18  2  0
 11 21  1  0
 12 21  1  0
 13 20  1  0
M  END
