YIA-UNI-71f25a82-1
     RDKit          3D

 40 44  0  0  1  0  0  0  0  0999 V2000
   12.1062    3.0746   23.7741 C   0  0  0  0  0  0  0  0  0  0  0  0
    6.8259   -4.4491   27.2938 C   0  0  0  0  0  0  0  0  0  0  0  0
    7.7396    3.6411   24.7967 C   0  0  0  0  0  0  0  0  0  0  0  0
   11.2697    3.3124   22.6835 C   0  0  0  0  0  0  0  0  0  0  0  0
   12.5140    1.7739   24.0698 C   0  0  0  0  0  0  0  0  0  0  0  0
    5.4874   -4.7705   27.0773 C   0  0  0  0  0  0  0  0  0  0  0  0
    7.8591    4.7825   24.0063 C   0  0  0  0  0  0  0  0  0  0  0  0
    7.7810   -4.6446   26.2896 C   0  0  0  0  0  0  0  0  0  0  0  0
    7.0488    2.5165   24.3310 C   0  0  0  0  0  0  0  0  0  0  0  0
   10.8410    2.2494   21.8886 C   0  0  0  0  0  0  0  0  0  0  0  0
   12.0852    0.7109   23.2749 C   0  0  0  0  0  0  0  0  0  0  0  0
    5.0610   -5.2959   25.8541 C   0  0  0  0  0  0  0  0  0  0  0  0
    7.2941    4.8371   22.7290 C   0  0  0  0  0  0  0  0  0  0  0  0
    7.1186   -5.9872   22.9551 C   0  0  0  0  0  0  0  0  0  0  0  0
    5.4209    2.2176   21.0720 C   0  0  0  0  0  0  0  0  0  0  0  0
    7.3748   -5.1732   25.0482 C   0  0  0  0  0  0  0  0  0  0  0  0
    6.4706    2.5482   23.0464 C   0  0  0  0  0  0  0  0  0  0  0  0
   11.2487    0.9486   22.1843 C   0  0  0  0  0  0  0  0  0  0  0  0
    8.0514   -5.4945   23.8383 C   0  0  0  0  0  0  0  0  0  0  0  0
    5.7206    1.6181   22.2735 C   0  0  0  0  0  0  0  0  0  0  0  0
    6.0269   -5.4860   24.8595 C   0  0  0  0  0  0  0  0  0  0  0  0
    6.6063    3.7055   22.2766 C   0  0  0  0  0  0  0  0  0  0  0  0
    9.7989   -3.0345   22.5313 C   0  0  0  0  0  0  0  0  0  0  0  0
    5.2162   -2.2412   21.8630 C   0  0  0  0  0  0  0  0  0  0  0  0
    8.2723   -0.3832   21.3929 C   0  0  0  0  0  0  0  0  0  0  0  0
    9.5272   -5.3304   23.5620 C   0  0  0  0  0  0  0  0  0  0  0  0
    5.3206    0.2299   22.6851 C   0  0  0  0  0  0  0  0  0  0  0  0
   10.7874   -0.1960   21.3293 C   0  0  0  0  0  0  0  0  0  0  0  0
   10.0095   -3.8908   23.7698 C   0  0  0  0  0  0  0  0  0  0  0  0
    5.8417   -0.8458   21.7307 C   0  0  0  0  0  0  0  0  0  0  0  0
    5.9005   -5.9780   23.5800 N   0  0  0  0  0  0  0  0  0  0  0  0
    5.9595    3.4762   21.0831 N   0  0  0  0  0  0  0  0  0  0  0  0
    9.7185   -1.6854   22.8315 N   0  0  0  0  0  0  0  0  0  0  0  0
    7.2394   -1.0818   22.0096 N   0  0  0  0  0  0  0  0  0  0  0  0
    9.5450   -0.7669   21.8111 N   0  0  0  0  0  0  0  0  0  0  0  0
   11.4723   -3.9331   24.0674 N   0  0  0  0  0  0  0  0  0  0  0  0
    5.2520   -2.7240   23.0317 O   0  0  0  0  0  0  0  0  0  0  0  0
    9.7287   -3.5173   21.4027 O   0  0  0  0  0  0  0  0  0  0  0  0
    4.7384   -2.7410   20.8065 O   0  0  0  0  0  0  0  0  0  0  0  0
    8.0805    0.4995   20.5533 O   0  0  0  0  0  0  0  0  0  0  0  0
  1  4  2  0
  1  5  1  0
  2  6  2  0
  2  8  1  0
  3  7  2  0
  3  9  1  0
  4 10  1  0
  5 11  2  0
  6 12  1  0
  7 13  1  0
  8 16  2  0
  9 17  2  0
 10 18  2  0
 11 18  1  0
 12 21  2  0
 13 22  2  0
 14 19  2  0
 14 31  1  0
 15 20  2  0
 15 32  1  0
 16 19  1  0
 16 21  1  0
 17 20  1  0
 17 22  1  0
 18 28  1  0
 19 26  1  0
 20 27  1  0
 21 31  1  0
 22 32  1  0
 23 29  1  0
 23 33  1  0
 23 38  2  0
 24 30  1  0
 24 37  1  0
 24 39  2  0
 25 34  1  0
 25 35  1  0
 25 40  2  0
 26 29  1  0
 27 30  1  0
 28 35  1  0
 29 36  1  0
 30 34  1  0
 33 35  1  0
M  CHG  2  36   1  37  -1
M  END
