YUN-WES-58b0dbae-1
     RDKit          3D

 41 43  0  0  1  0  0  0  0  0999 V2000
    8.9404    6.9181   24.1490 C   0  0  0  0  0  0  0  0  0  0  0  0
    9.1772    6.2128   25.3289 C   0  0  0  0  0  0  0  0  0  0  0  0
    8.8446    6.2360   22.9360 C   0  0  0  0  0  0  0  0  0  0  0  0
    9.3183    4.8255   25.2958 C   0  0  0  0  0  0  0  0  0  0  0  0
    8.9857    4.8487   22.9029 C   0  0  0  0  0  0  0  0  0  0  0  0
    9.2226    4.1434   24.0828 C   0  0  0  0  0  0  0  0  0  0  0  0
    7.0747    1.0577   19.2131 C   0  0  0  0  0  0  0  0  0  0  0  0
    8.2209   -3.4248   21.1716 C   0  0  0  0  0  0  0  0  0  0  0  0
    7.0527   -4.1481   21.7247 C   0  0  0  0  0  0  0  0  0  0  0  0
    7.1940   -5.4463   27.0798 C   0  0  0  0  0  0  0  0  0  0  0  0
   10.1544   -1.0621   22.7734 C   0  0  0  0  0  0  0  0  0  0  0  0
    6.8072    0.8099   21.5612 C   0  0  0  0  0  0  0  0  0  0  0  0
    6.4703    2.2332   21.1619 C   0  0  0  0  0  0  0  0  0  0  0  0
    8.4267   -4.5750   23.8072 C   0  0  0  0  0  0  0  0  0  0  0  0
    6.1363   -5.4802   23.5875 C   0  0  0  0  0  0  0  0  0  0  0  0
    8.0937   -4.0889   25.2151 C   0  0  0  0  0  0  0  0  0  0  0  0
    5.8066   -4.9922   24.9955 C   0  0  0  0  0  0  0  0  0  0  0  0
    7.6664    0.3123   20.3960 C   0  0  0  0  0  0  0  0  0  0  0  0
    6.0492   -6.2680   27.6164 C   0  0  0  0  0  0  0  0  0  0  0  0
   14.4729   -1.4148   21.7554 C   0  0  0  0  0  0  0  0  0  0  0  0
   14.7757   -2.8604   23.7752 C   0  0  0  0  0  0  0  0  0  0  0  0
    9.3746    2.6502   24.0464 C   0  0  0  0  0  0  0  0  0  0  0  0
    7.6296   -1.1936   20.2239 C   0  0  0  0  0  0  0  0  0  0  0  0
   12.4766   -1.9138   23.1980 C   0  0  0  0  0  0  0  0  0  0  0  0
    8.2622   -1.9313   21.4024 C   0  0  0  0  0  0  0  0  0  0  0  0
   11.6419   -0.7394   22.6714 C   0  0  0  0  0  0  0  0  0  0  0  0
   14.0011   -1.6798   23.1878 C   0  0  0  0  0  0  0  0  0  0  0  0
    6.4077    2.1666   19.7280 N   0  0  0  0  0  0  0  0  0  0  0  0
    7.2089   -4.6815   22.9950 N   0  0  0  0  0  0  0  0  0  0  0  0
    7.0260   -4.8976   25.8097 N   0  0  0  0  0  0  0  0  0  0  0  0
    9.6531   -1.5866   21.5901 N   0  0  0  0  0  0  0  0  0  0  0  0
    9.9416    2.1838   22.7661 N   0  0  0  0  0  0  0  0  0  0  0  0
   11.8660    0.4686   23.4223 N   0  0  0  0  0  0  0  0  0  0  0  0
    7.2020    0.7564   18.0366 O   0  0  0  0  0  0  0  0  0  0  0  0
    9.0303   -4.0790   20.5310 O   0  0  0  0  0  0  0  0  0  0  0  0
    6.0699   -4.2001   20.9971 O   0  0  0  0  0  0  0  0  0  0  0  0
    8.2070   -5.3001   27.7686 O   0  0  0  0  0  0  0  0  0  0  0  0
    9.4875   -0.8337   23.7805 O   0  0  0  0  0  0  0  0  0  0  0  0
   12.0078    1.8887   21.2474 O   0  0  0  0  0  0  0  0  0  0  0  0
   12.2648    3.0221   23.4764 O   0  0  0  0  0  0  0  0  0  0  0  0
   11.6450    2.0045   22.6478 S   0  0  0  0  0  0  0  0  0  0  0  0
  1  2  2  0
  1  3  1  0
  2  4  1  0
  3  5  2  0
  4  6  2  0
  5  6  1  0
  6 22  1  0
  7 18  1  0
  7 28  1  0
  7 34  2  0
  8  9  1  0
  8 25  1  0
  8 35  2  0
  9 29  1  0
  9 36  2  0
 10 19  1  0
 10 30  1  0
 10 37  2  0
 11 26  1  0
 11 31  1  0
 11 38  2  0
 12 13  1  0
 12 18  1  0
 13 28  1  0
 14 16  1  0
 14 29  1  0
 15 17  1  0
 15 29  1  0
 16 30  1  0
 17 30  1  0
 18 23  1  0
 20 27  1  0
 21 27  1  0
 22 32  1  0
 23 25  1  0
 24 26  1  0
 24 27  1  0
 25 31  1  0
 26 33  1  0
 32 41  1  0
 33 41  1  0
 39 41  2  0
 40 41  2  0
M  END
