YUN-WES-58b0dbae-10
     RDKit          3D

 42 44  0  0  1  0  0  0  0  0999 V2000
    7.7204    7.2365   22.4666 C   0  0  0  0  0  0  0  0  0  0  0  0
    8.7209    6.2942   22.2291 C   0  0  0  0  0  0  0  0  0  0  0  0
    7.7818    8.0488   23.5990 C   0  0  0  0  0  0  0  0  0  0  0  0
    8.0662   -5.8042   26.3123 C   0  0  0  0  0  0  0  0  0  0  0  0
    8.9208   -5.1453   25.4285 C   0  0  0  0  0  0  0  0  0  0  0  0
    9.8444    6.9762   24.2564 C   0  0  0  0  0  0  0  0  0  0  0  0
    9.7830    6.1640   23.1240 C   0  0  0  0  0  0  0  0  0  0  0  0
    8.3299   -3.0296   26.4346 C   0  0  0  0  0  0  0  0  0  0  0  0
    8.8438    7.9186   24.4939 C   0  0  0  0  0  0  0  0  0  0  0  0
    7.3435   -5.0759   27.2572 C   0  0  0  0  0  0  0  0  0  0  0  0
    9.0527   -3.7580   25.4896 C   0  0  0  0  0  0  0  0  0  0  0  0
    7.4753   -3.6886   27.3184 C   0  0  0  0  0  0  0  0  0  0  0  0
   13.0650   -0.9219   21.4834 C   0  0  0  0  0  0  0  0  0  0  0  0
   12.7592    3.8692   23.0864 C   0  0  0  0  0  0  0  0  0  0  0  0
   11.9034    4.9598   23.6654 C   0  0  0  0  0  0  0  0  0  0  0  0
   10.5966    1.8585   25.0122 C   0  0  0  0  0  0  0  0  0  0  0  0
    8.7542   -0.7415   25.4523 C   0  0  0  0  0  0  0  0  0  0  0  0
   13.3263   -0.5253   23.8116 C   0  0  0  0  0  0  0  0  0  0  0  0
   13.4435   -2.0116   23.5361 C   0  0  0  0  0  0  0  0  0  0  0  0
   12.5763    0.0011   22.5852 C   0  0  0  0  0  0  0  0  0  0  0  0
    6.2621    2.6623   24.3982 C   0  0  0  0  0  0  0  0  0  0  0  0
    6.3349    4.2402   26.3388 C   0  0  0  0  0  0  0  0  0  0  0  0
   10.0171    8.5249   26.4716 C   0  0  0  0  0  0  0  0  0  0  0  0
   12.8512    1.4637   22.2961 C   0  0  0  0  0  0  0  0  0  0  0  0
    8.4411    2.9996   25.6040 C   0  0  0  0  0  0  0  0  0  0  0  0
   12.4209    2.4237   23.4096 C   0  0  0  0  0  0  0  0  0  0  0  0
    9.0799    1.7084   25.0767 C   0  0  0  0  0  0  0  0  0  0  0  0
    6.9073    2.9467   25.7575 C   0  0  0  0  0  0  0  0  0  0  0  0
   13.5411   -2.0742   22.1040 N   0  0  0  0  0  0  0  0  0  0  0  0
   10.7970    5.2089   22.8828 N   0  0  0  0  0  0  0  0  0  0  0  0
    8.4640   -1.6230   26.4974 N   0  0  0  0  0  0  0  0  0  0  0  0
   11.0273    2.2559   23.7539 N   0  0  0  0  0  0  0  0  0  0  0  0
    8.8016    0.5774   25.9233 N   0  0  0  0  0  0  0  0  0  0  0  0
   13.0072   -0.7028   20.2834 O   0  0  0  0  0  0  0  0  0  0  0  0
   13.6527    4.2186   22.3256 O   0  0  0  0  0  0  0  0  0  0  0  0
   12.2741    5.4469   24.7201 O   0  0  0  0  0  0  0  0  0  0  0  0
   11.3350    1.6077   25.9625 O   0  0  0  0  0  0  0  0  0  0  0  0
    8.9467   -1.0384   24.2757 O   0  0  0  0  0  0  0  0  0  0  0  0
    6.5103   -5.7204   28.1190 O   0  0  0  0  0  0  0  0  0  0  0  0
    8.9038    8.7110   25.5990 O   0  0  0  0  0  0  0  0  0  0  0  0
    9.8767   -3.1351   24.6352 F   0  0  0  0  0  0  0  0  0  0  0  0
    6.7786   -2.9930   28.2295 F   0  0  0  0  0  0  0  0  0  0  0  0
  1  2  2  0
  1  3  1  0
  2  7  1  0
  3  9  2  0
  4  5  2  0
  4 10  1  0
  5 11  1  0
  6  7  2  0
  6  9  1  0
  7 30  1  0
  8 11  2  0
  8 12  1  0
  8 31  1  0
  9 40  1  0
 10 12  2  0
 10 39  1  0
 11 41  1  0
 12 42  1  0
 13 20  1  0
 13 29  1  0
 13 34  2  0
 14 15  1  0
 14 26  1  0
 14 35  2  0
 15 30  1  0
 15 36  2  0
 16 27  1  0
 16 32  1  0
 16 37  2  0
 17 31  1  0
 17 33  1  0
 17 38  2  0
 18 19  1  0
 18 20  1  0
 19 29  1  0
 20 24  1  0
 21 28  1  0
 22 28  1  0
 23 40  1  0
 24 26  1  0
 25 27  1  0
 25 28  1  0
 26 32  1  0
 27 33  1  0
M  END
