YUN-WES-64c64eb2-4
     RDKit          3D

 48 51  0  0  1  0  0  0  0  0999 V2000
    7.2518   -4.5359   27.9390 C   0  0  0  0  0  0  0  0  0  0  0  0
    8.2813   -4.9547   27.0962 C   0  0  0  0  0  0  0  0  0  0  0  0
    6.2191   -3.7432   27.4380 C   0  0  0  0  0  0  0  0  0  0  0  0
    8.2782   -4.5808   25.7524 C   0  0  0  0  0  0  0  0  0  0  0  0
    6.2160   -3.3693   26.0942 C   0  0  0  0  0  0  0  0  0  0  0  0
   10.9815    5.4466   23.4587 C   0  0  0  0  0  0  0  0  0  0  0  0
    9.3399    6.5418   24.8525 C   0  0  0  0  0  0  0  0  0  0  0  0
   11.6570    6.4824   25.5343 C   0  0  0  0  0  0  0  0  0  0  0  0
    7.2455   -3.7881   25.2513 C   0  0  0  0  0  0  0  0  0  0  0  0
    9.6620    5.8314   23.6961 C   0  0  0  0  0  0  0  0  0  0  0  0
   11.9790    5.7721   24.3779 C   0  0  0  0  0  0  0  0  0  0  0  0
   10.3374    6.8673   25.7716 C   0  0  0  0  0  0  0  0  0  0  0  0
    3.7934    1.5380   19.6739 C   0  0  0  0  0  0  0  0  0  0  0  0
    6.5429    5.2891   21.6706 C   0  0  0  0  0  0  0  0  0  0  0  0
    7.3106    5.8069   22.8537 C   0  0  0  0  0  0  0  0  0  0  0  0
    7.7036    2.2041   22.9208 C   0  0  0  0  0  0  0  0  0  0  0  0
    7.2974   -0.8795   23.6858 C   0  0  0  0  0  0  0  0  0  0  0  0
   11.1404   -1.6198   21.6274 C   0  0  0  0  0  0  0  0  0  0  0  0
   11.9227   -1.0503   22.8062 C   0  0  0  0  0  0  0  0  0  0  0  0
    9.6413   -1.5896   21.9132 C   0  0  0  0  0  0  0  0  0  0  0  0
    6.1587    1.3593   19.5334 C   0  0  0  0  0  0  0  0  0  0  0  0
    5.5211    0.1438   18.8892 C   0  0  0  0  0  0  0  0  0  0  0  0
   11.4963   -1.7152   24.1085 C   0  0  0  0  0  0  0  0  0  0  0  0
    5.0515    1.8950   20.4449 C   0  0  0  0  0  0  0  0  0  0  0  0
    9.3435   -2.2330   23.2655 C   0  0  0  0  0  0  0  0  0  0  0  0
    6.9638    1.5535   27.2614 C   0  0  0  0  0  0  0  0  0  0  0  0
    9.2438    2.4702   27.7324 C   0  0  0  0  0  0  0  0  0  0  0  0
   13.5265    4.6735   22.9446 C   0  0  0  0  0  0  0  0  0  0  0  0
    8.6546    7.9213   27.0805 C   0  0  0  0  0  0  0  0  0  0  0  0
    7.2417   -3.3851   23.8051 C   0  0  0  0  0  0  0  0  0  0  0  0
    5.1714    3.3801   20.7251 C   0  0  0  0  0  0  0  0  0  0  0  0
    8.3901    2.3030   25.3328 C   0  0  0  0  0  0  0  0  0  0  0  0
    6.4551    3.7877   21.4550 C   0  0  0  0  0  0  0  0  0  0  0  0
    7.6029    1.5149   24.2780 C   0  0  0  0  0  0  0  0  0  0  0  0
    8.3986    1.6710   26.7396 C   0  0  0  0  0  0  0  0  0  0  0  0
    4.1340    0.5077   18.8009 N   0  0  0  0  0  0  0  0  0  0  0  0
    8.6512    5.5012   22.7645 N   0  0  0  0  0  0  0  0  0  0  0  0
    6.6293    3.0511   22.6861 N   0  0  0  0  0  0  0  0  0  0  0  0
    8.1048    0.1756   24.1116 N   0  0  0  0  0  0  0  0  0  0  0  0
    7.9462   -2.1241   23.5871 N   0  0  0  0  0  0  0  0  0  0  0  0
    2.6894    2.0366   19.8285 O   0  0  0  0  0  0  0  0  0  0  0  0
    5.9732    6.1234   20.9786 O   0  0  0  0  0  0  0  0  0  0  0  0
    6.6758    6.4231   23.6929 O   0  0  0  0  0  0  0  0  0  0  0  0
    8.6147    1.9853   22.1251 O   0  0  0  0  0  0  0  0  0  0  0  0
    6.1005   -0.7209   23.4268 O   0  0  0  0  0  0  0  0  0  0  0  0
   10.0871   -1.5923   24.3016 O   0  0  0  0  0  0  0  0  0  0  0  0
   13.2669    5.3970   24.1466 O   0  0  0  0  0  0  0  0  0  0  0  0
   10.0231    7.5599   26.9004 O   0  0  0  0  0  0  0  0  0  0  0  0
  1  2  2  0
  1  3  1  0
  2  4  1  0
  3  5  2  0
  4  9  2  0
  5  9  1  0
  6 10  2  0
  6 11  1  0
  7 10  1  0
  7 12  2  0
  8 11  2  0
  8 12  1  0
  9 30  1  0
 10 37  1  0
 11 47  1  0
 12 48  1  0
 13 24  1  0
 13 36  1  0
 13 41  2  0
 14 15  1  0
 14 33  1  0
 14 42  2  0
 15 37  1  0
 15 43  2  0
 16 34  1  0
 16 38  1  0
 16 44  2  0
 17 39  1  0
 17 40  1  0
 17 45  2  0
 18 19  1  0
 18 20  1  0
 19 23  1  0
 20 25  1  0
 21 22  1  0
 21 24  1  0
 22 36  1  0
 23 46  1  0
 24 31  1  0
 25 40  1  0
 25 46  1  0
 26 35  1  0
 27 35  1  0
 28 47  1  0
 29 48  1  0
 30 40  1  0
 31 33  1  0
 32 34  1  0
 32 35  1  0
 33 38  1  0
 34 39  1  0
M  END
