YUN-WES-58b0dbae-2
     RDKit          3D

 45 48  0  0  1  0  0  0  0  0999 V2000
    5.5544   -6.9746   25.6135 C   0  0  0  0  0  0  0  0  0  0  0  0
    6.5624   -6.8457   24.6581 C   0  0  0  0  0  0  0  0  0  0  0  0
    4.2576   -6.5526   25.3205 C   0  0  0  0  0  0  0  0  0  0  0  0
   12.6948    7.6942   27.0925 C   0  0  0  0  0  0  0  0  0  0  0  0
    6.2737   -6.2946   23.4097 C   0  0  0  0  0  0  0  0  0  0  0  0
    3.9688   -6.0016   24.0720 C   0  0  0  0  0  0  0  0  0  0  0  0
   12.9717    7.2457   25.7687 C   0  0  0  0  0  0  0  0  0  0  0  0
   11.3809    7.4808   27.4470 C   0  0  0  0  0  0  0  0  0  0  0  0
    4.9769   -5.8726   23.1166 C   0  0  0  0  0  0  0  0  0  0  0  0
   11.8587    6.7062   25.1619 C   0  0  0  0  0  0  0  0  0  0  0  0
    9.8547   -4.9452   25.0842 C   0  0  0  0  0  0  0  0  0  0  0  0
   11.2332   -0.5699   23.0799 C   0  0  0  0  0  0  0  0  0  0  0  0
   11.9109    0.2243   24.1306 C   0  0  0  0  0  0  0  0  0  0  0  0
    7.8415   -0.7932   22.5032 C   0  0  0  0  0  0  0  0  0  0  0  0
    6.0498   -3.2308   21.4342 C   0  0  0  0  0  0  0  0  0  0  0  0
    9.2785   -2.8900   26.1286 C   0  0  0  0  0  0  0  0  0  0  0  0
    8.7841   -4.0445   26.9782 C   0  0  0  0  0  0  0  0  0  0  0  0
   12.0879    2.3901   25.2965 C   0  0  0  0  0  0  0  0  0  0  0  0
   10.3739    2.1448   23.5367 C   0  0  0  0  0  0  0  0  0  0  0  0
   12.5225    3.7209   24.6934 C   0  0  0  0  0  0  0  0  0  0  0  0
   10.8038    3.4777   22.9321 C   0  0  0  0  0  0  0  0  0  0  0  0
    9.4515   -3.5214   24.7447 C   0  0  0  0  0  0  0  0  0  0  0  0
    6.5247   -0.2831   18.2822 C   0  0  0  0  0  0  0  0  0  0  0  0
    5.2346    1.7420   18.9859 C   0  0  0  0  0  0  0  0  0  0  0  0
    4.6655   -5.2792   21.7731 C   0  0  0  0  0  0  0  0  0  0  0  0
   10.4743   -2.8071   23.8832 C   0  0  0  0  0  0  0  0  0  0  0  0
    6.5771    0.4073   20.6980 C   0  0  0  0  0  0  0  0  0  0  0  0
   10.0401   -1.3892   23.5163 C   0  0  0  0  0  0  0  0  0  0  0  0
    7.0476   -0.9596   21.2112 C   0  0  0  0  0  0  0  0  0  0  0  0
    5.7200    0.3573   19.4167 C   0  0  0  0  0  0  0  0  0  0  0  0
    9.4251   -5.1863   26.3868 N   0  0  0  0  0  0  0  0  0  0  0  0
   11.4783    1.5329   24.2823 N   0  0  0  0  0  0  0  0  0  0  0  0
   11.3577    4.3571   24.0063 N   0  0  0  0  0  0  0  0  0  0  0  0
    9.1039   -1.3635   22.4156 N   0  0  0  0  0  0  0  0  0  0  0  0
    4.8440   -3.8456   21.7607 N   0  0  0  0  0  0  0  0  0  0  0  0
    5.9468   -1.8414   21.5007 N   0  0  0  0  0  0  0  0  0  0  0  0
   10.4110   -5.7330   24.3351 O   0  0  0  0  0  0  0  0  0  0  0  0
   11.7189   -0.5422   21.9589 O   0  0  0  0  0  0  0  0  0  0  0  0
   12.7831   -0.3627   24.7572 O   0  0  0  0  0  0  0  0  0  0  0  0
    7.3806   -0.2538   23.5071 O   0  0  0  0  0  0  0  0  0  0  0  0
    7.0770   -3.8332   21.1251 O   0  0  0  0  0  0  0  0  0  0  0  0
   10.3191    6.5235   23.0716 O   0  0  0  0  0  0  0  0  0  0  0  0
   12.7920    6.1251   22.8007 O   0  0  0  0  0  0  0  0  0  0  0  0
   10.4873    6.7422   26.1867 S   0  0  0  0  0  0  0  0  0  0  0  0
   11.5727    6.0000   23.5696 S   0  0  0  0  0  0  0  0  0  0  0  0
  1  2  2  0
  1  3  1  0
  2  5  1  0
  3  6  2  0
  4  7  1  0
  4  8  2  0
  5  9  2  0
  6  9  1  0
  7 10  2  0
  8 44  1  0
  9 25  1  0
 10 44  1  0
 10 45  1  0
 11 22  1  0
 11 31  1  0
 11 37  2  0
 12 13  1  0
 12 28  1  0
 12 38  2  0
 13 32  1  0
 13 39  2  0
 14 29  1  0
 14 34  1  0
 14 40  2  0
 15 35  1  0
 15 36  1  0
 15 41  2  0
 16 17  1  0
 16 22  1  0
 17 31  1  0
 18 20  1  0
 18 32  1  0
 19 21  1  0
 19 32  1  0
 20 33  1  0
 21 33  1  0
 22 26  1  0
 23 30  1  0
 24 30  1  0
 25 35  1  0
 26 28  1  0
 27 29  1  0
 27 30  1  0
 28 34  1  0
 29 36  1  0
 33 45  1  0
 42 45  2  0
 43 45  2  0
M  END
