YUN-WES-58b0dbae-4
     RDKit          3D

 47 50  0  0  1  0  0  0  0  0999 V2000
   12.7891    7.2376   25.2849 C   0  0  0  0  0  0  0  0  0  0  0  0
   11.5263    7.4442   25.8401 C   0  0  0  0  0  0  0  0  0  0  0  0
   12.9249    6.4732   24.1260 C   0  0  0  0  0  0  0  0  0  0  0  0
   10.3993    6.8864   25.2365 C   0  0  0  0  0  0  0  0  0  0  0  0
   11.7979    5.9154   23.5224 C   0  0  0  0  0  0  0  0  0  0  0  0
    7.8561   -5.2398   23.5106 C   0  0  0  0  0  0  0  0  0  0  0  0
    7.5993   -3.5664   25.2341 C   0  0  0  0  0  0  0  0  0  0  0  0
    8.9665   -4.5575   23.0135 C   0  0  0  0  0  0  0  0  0  0  0  0
    8.7097   -2.8841   24.7371 C   0  0  0  0  0  0  0  0  0  0  0  0
    7.1724   -4.7442   24.6208 C   0  0  0  0  0  0  0  0  0  0  0  0
   10.5351    6.1220   24.0776 C   0  0  0  0  0  0  0  0  0  0  0  0
    9.3934   -3.3797   23.6268 C   0  0  0  0  0  0  0  0  0  0  0  0
   11.9570   -0.9992   24.1085 C   0  0  0  0  0  0  0  0  0  0  0  0
   13.2268   -0.5972   23.9932 C   0  0  0  0  0  0  0  0  0  0  0  0
    6.1692    0.4891   18.2983 C   0  0  0  0  0  0  0  0  0  0  0  0
    9.2649   -2.4231   21.0129 C   0  0  0  0  0  0  0  0  0  0  0  0
   10.5275   -2.1969   21.7901 C   0  0  0  0  0  0  0  0  0  0  0  0
    7.4982    0.2988   22.8135 C   0  0  0  0  0  0  0  0  0  0  0  0
    5.2817   -1.0714   19.8551 C   0  0  0  0  0  0  0  0  0  0  0  0
    4.1443   -0.3680   19.1408 C   0  0  0  0  0  0  0  0  0  0  0  0
   12.9475   -3.1055   23.3821 C   0  0  0  0  0  0  0  0  0  0  0  0
   11.6873   -2.4682   23.9635 C   0  0  0  0  0  0  0  0  0  0  0  0
    6.4630   -0.1176   19.6586 C   0  0  0  0  0  0  0  0  0  0  0  0
    5.9851   -5.4738   25.1521 C   0  0  0  0  0  0  0  0  0  0  0  0
    9.7826    2.3483   26.0372 C   0  0  0  0  0  0  0  0  0  0  0  0
    7.8327    2.0003   27.5661 C   0  0  0  0  0  0  0  0  0  0  0  0
    9.3224    5.5211   23.4275 C   0  0  0  0  0  0  0  0  0  0  0  0
    7.8100   -0.8110   19.7178 C   0  0  0  0  0  0  0  0  0  0  0  0
    7.7456    1.1712   25.1537 C   0  0  0  0  0  0  0  0  0  0  0  0
    8.1590   -1.3824   21.0952 C   0  0  0  0  0  0  0  0  0  0  0  0
    8.0923    1.4065   23.6780 C   0  0  0  0  0  0  0  0  0  0  0  0
    8.2561    2.2597   26.1197 C   0  0  0  0  0  0  0  0  0  0  0  0
    4.8059    0.3217   18.0680 N   0  0  0  0  0  0  0  0  0  0  0  0
    8.4628   -0.3312   22.0393 N   0  0  0  0  0  0  0  0  0  0  0  0
    9.6382    4.2603   22.7285 N   0  0  0  0  0  0  0  0  0  0  0  0
    7.5677    2.6545   23.1872 N   0  0  0  0  0  0  0  0  0  0  0  0
   10.5476   -2.6705   23.1107 N   0  0  0  0  0  0  0  0  0  0  0  0
    6.9743    1.0516   17.5727 O   0  0  0  0  0  0  0  0  0  0  0  0
    9.2028   -3.4503   20.3492 O   0  0  0  0  0  0  0  0  0  0  0  0
   11.3859   -1.5824   21.1679 O   0  0  0  0  0  0  0  0  0  0  0  0
    6.2964    0.0418   22.7877 O   0  0  0  0  0  0  0  0  0  0  0  0
   15.0116   -1.7347   22.4701 O   0  0  0  0  0  0  0  0  0  0  0  0
   14.9333   -2.3214   24.9322 O   0  0  0  0  0  0  0  0  0  0  0  0
    7.4876    4.4585   21.3148 O   0  0  0  0  0  0  0  0  0  0  0  0
    8.9742    2.4517   21.0278 O   0  0  0  0  0  0  0  0  0  0  0  0
   14.2732   -1.9410   23.6993 S   0  0  0  0  0  0  0  0  0  0  0  0
    8.3762    3.4611   21.8820 S   0  0  0  0  0  0  0  0  0  0  0  0
  1  2  2  0
  1  3  1  0
  2  4  1  0
  3  5  2  0
  4 11  2  0
  5 11  1  0
  6  8  2  0
  6 10  1  0
  7  9  1  0
  7 10  2  0
  8 12  1  0
  9 12  2  0
 10 24  1  0
 11 27  1  0
 12 37  1  0
 13 14  2  0
 13 22  1  0
 14 46  1  0
 15 23  1  0
 15 33  1  0
 15 38  2  0
 16 17  1  0
 16 30  1  0
 16 39  2  0
 17 37  1  0
 17 40  2  0
 18 31  1  0
 18 34  1  0
 18 41  2  0
 19 20  1  0
 19 23  1  0
 20 33  1  0
 21 22  1  0
 21 46  1  0
 22 37  1  0
 23 28  1  0
 25 32  1  0
 26 32  1  0
 27 35  1  0
 28 30  1  0
 29 31  1  0
 29 32  1  0
 30 34  1  0
 31 36  1  0
 35 47  1  0
 36 47  1  0
 42 46  2  0
 43 46  2  0
 44 47  2  0
 45 47  2  0
M  END
