YUN-WES-64c64eb2-6
     RDKit          3D

 41 43  0  0  1  0  0  0  0  0999 V2000
    9.2946    7.0463   26.0922 C   0  0  0  0  0  0  0  0  0  0  0  0
    8.3123    6.0572   26.0462 C   0  0  0  0  0  0  0  0  0  0  0  0
    9.6633    7.7178   24.9265 C   0  0  0  0  0  0  0  0  0  0  0  0
    7.6987    5.7394   24.8345 C   0  0  0  0  0  0  0  0  0  0  0  0
    9.0498    7.4000   23.7148 C   0  0  0  0  0  0  0  0  0  0  0  0
    8.9462   -3.2918   24.7491 C   0  0  0  0  0  0  0  0  0  0  0  0
    9.1331   -1.2897   26.0882 C   0  0  0  0  0  0  0  0  0  0  0  0
    7.4547   -2.9448   26.6178 C   0  0  0  0  0  0  0  0  0  0  0  0
    8.0674    6.4108   23.6688 C   0  0  0  0  0  0  0  0  0  0  0  0
    9.5679   -2.0728   25.0189 C   0  0  0  0  0  0  0  0  0  0  0  0
    7.8895   -3.7279   25.5485 C   0  0  0  0  0  0  0  0  0  0  0  0
    8.0765   -1.7257   26.8877 C   0  0  0  0  0  0  0  0  0  0  0  0
   14.2291    3.5800   22.8925 C   0  0  0  0  0  0  0  0  0  0  0  0
   12.4163   -0.3305   23.2935 C   0  0  0  0  0  0  0  0  0  0  0  0
   11.3499   -0.4576   24.3442 C   0  0  0  0  0  0  0  0  0  0  0  0
    9.9914    0.9137   20.7846 C   0  0  0  0  0  0  0  0  0  0  0  0
    7.8305    3.6688   21.8287 C   0  0  0  0  0  0  0  0  0  0  0  0
   11.8606    3.6685   22.7226 C   0  0  0  0  0  0  0  0  0  0  0  0
   12.3624    4.9073   23.4385 C   0  0  0  0  0  0  0  0  0  0  0  0
   13.0113    2.6735   22.8943 C   0  0  0  0  0  0  0  0  0  0  0  0
    6.5291   -0.9949   18.7257 C   0  0  0  0  0  0  0  0  0  0  0  0
    6.9810   -1.1939   21.1786 C   0  0  0  0  0  0  0  0  0  0  0  0
    6.2087   -5.3022   26.1419 C   0  0  0  0  0  0  0  0  0  0  0  0
    7.4076    6.0691   22.3642 C   0  0  0  0  0  0  0  0  0  0  0  0
   13.0587    1.6180   21.8070 C   0  0  0  0  0  0  0  0  0  0  0  0
    7.6382    0.9227   19.9124 C   0  0  0  0  0  0  0  0  0  0  0  0
   12.1032    0.4402   22.0221 C   0  0  0  0  0  0  0  0  0  0  0  0
    8.5767    1.4375   21.0112 C   0  0  0  0  0  0  0  0  0  0  0  0
    7.4859   -0.6111   19.8579 C   0  0  0  0  0  0  0  0  0  0  0  0
   13.7829    4.8555   23.2295 N   0  0  0  0  0  0  0  0  0  0  0  0
   10.6378   -1.6295   24.2081 N   0  0  0  0  0  0  0  0  0  0  0  0
   10.7197    0.8542   21.9647 N   0  0  0  0  0  0  0  0  0  0  0  0
    8.1114    5.0221   21.6603 N   0  0  0  0  0  0  0  0  0  0  0  0
    8.6551    2.8751   21.0315 N   0  0  0  0  0  0  0  0  0  0  0  0
   15.3810    3.2365   22.6770 O   0  0  0  0  0  0  0  0  0  0  0  0
   13.5103   -0.8107   23.5615 O   0  0  0  0  0  0  0  0  0  0  0  0
   11.2718    0.4461   25.1591 O   0  0  0  0  0  0  0  0  0  0  0  0
   10.4287    0.6271   19.6720 O   0  0  0  0  0  0  0  0  0  0  0  0
    6.9655    3.2260   22.5832 O   0  0  0  0  0  0  0  0  0  0  0  0
    7.2824   -4.9173   25.2849 O   0  0  0  0  0  0  0  0  0  0  0  0
    7.6575   -0.9728   27.9133 F   0  0  0  0  0  0  0  0  0  0  0  0
  1  2  2  0
  1  3  1  0
  2  4  1  0
  3  5  2  0
  4  9  2  0
  5  9  1  0
  6 10  2  0
  6 11  1  0
  7 10  1  0
  7 12  2  0
  8 11  2  0
  8 12  1  0
  9 24  1  0
 10 31  1  0
 11 40  1  0
 12 41  1  0
 13 20  1  0
 13 30  1  0
 13 35  2  0
 14 15  1  0
 14 27  1  0
 14 36  2  0
 15 31  1  0
 15 37  2  0
 16 28  1  0
 16 32  1  0
 16 38  2  0
 17 33  1  0
 17 34  1  0
 17 39  2  0
 18 19  1  0
 18 20  1  0
 19 30  1  0
 20 25  1  0
 21 29  1  0
 22 29  1  0
 23 40  1  0
 24 33  1  0
 25 27  1  0
 26 28  1  0
 26 29  1  0
 27 32  1  0
 28 34  1  0
M  END
