x0072-x0107
     RDKit          3D

 23 24  0  0  0  0  0  0  0  0999 V2000
    6.7090   -5.0880   26.2290 C   0  0  0  0  0  0  0  0  0  0  0  0
    8.2400   -4.3220   25.8080 S   0  0  0  0  0  0  0  0  0  0  0  0
    9.0240   -5.4710   25.4440 O   0  0  0  0  0  0  0  0  0  0  0  0
    8.6170   -3.4790   26.9010 O   0  0  0  0  0  0  0  0  0  0  0  0
    7.8590   -3.4140   24.4240 N   0  0  0  0  0  0  0  0  0  0  0  0
    8.8410   -2.9240   23.4260 C   0  0  0  0  0  0  0  0  0  0  0  0
    8.9830   -1.3950   23.2520 C   0  0  2  0  0  0  0  0  0  0  0  0
    8.5570   -0.6560   21.9660 C   0  0  0  0  0  0  0  0  0  0  0  0
    9.2120    0.3170   21.5690 O   0  0  0  0  0  0  0  0  0  0  0  0
    7.4300   -1.0860   21.2900 N   0  0  0  0  0  0  0  0  0  0  0  0
    5.2630    0.6290   22.0740 C   0  0  0  0  0  0  0  0  0  0  0  0
   10.4500   -1.0130   23.2210 C   0  0  0  0  0  0  0  0  0  0  0  0
   11.3840   -1.7590   22.4470 C   0  0  0  0  0  0  0  0  0  0  0  0
   12.7150   -1.3680   22.3990 C   0  0  0  0  0  0  0  0  0  0  0  0
   13.1070   -0.2560   23.1040 C   0  0  0  0  0  0  0  0  0  0  0  0
   12.2190    0.4700   23.8650 C   0  0  0  0  0  0  0  0  0  0  0  0
   10.8730    0.0970   23.9380 C   0  0  0  0  0  0  0  0  0  0  0  0
    6.7430   -0.3590   20.2710 C   0  0  0  0  0  0  0  0  0  0  0  0
    5.6860    0.4770   20.6420 C   0  0  0  0  0  0  0  0  0  0  0  0
    4.9930    1.1980   19.6630 C   0  0  0  0  0  0  0  0  0  0  0  0
    5.3370    1.1030   18.3400 C   0  0  0  0  0  0  0  0  0  0  0  0
    6.4340    0.2480   17.9080 N   0  0  0  0  0  0  0  0  0  0  0  0
    7.0670   -0.4310   18.9070 C   0  0  0  0  0  0  0  0  0  0  0  0
  1  2  1  0
  2  3  2  0
  2  4  2  0
  2  5  1  0
  5  6  1  0
  7  6  1  6
  7  8  1  0
  8  9  2  0
  8 10  1  0
  7 12  1  0
 12 13  2  0
 13 14  1  0
 14 15  2  0
 15 16  1  0
 12 17  1  0
 16 17  2  0
 10 18  1  0
 11 19  1  0
 18 19  2  0
 19 20  1  0
 20 21  2  0
 21 22  1  0
 18 23  1  0
 22 23  2  0
M  END
