x0072-x0305
     RDKit          3D

 18 18  0  0  0  0  0  0  0  0999 V2000
    6.5370   -5.4090   26.4830 C   0  0  0  0  0  0  0  0  0  0  0  0
    8.0830   -4.5560   26.2490 S   0  0  0  0  0  0  0  0  0  0  0  0
    9.1180   -5.5360   26.0230 O   0  0  0  0  0  0  0  0  0  0  0  0
    8.1760   -3.5560   27.2810 O   0  0  0  0  0  0  0  0  0  0  0  0
    7.8510   -3.7730   24.7840 N   0  0  0  0  0  0  0  0  0  0  0  0
    8.9470   -3.4170   24.0240 C   0  0  0  0  0  0  0  0  0  0  0  0
    8.8880   -1.9280   23.6400 C   0  0  0  0  0  0  0  0  0  0  0  0
    9.1370    0.0880   26.9470 C   0  0  0  0  0  0  0  0  0  0  0  0
    8.5600   -0.5890   25.7610 C   0  0  0  0  0  0  0  0  0  0  0  0
    9.7600    0.1140   25.4540 N   0  0  0  0  0  0  0  0  0  0  0  0
   13.2330   -1.4850   21.3380 C   0  0  0  0  0  0  0  0  0  0  0  0
   13.9070   -1.6860   20.5080 N   0  0  0  0  0  0  0  0  0  0  0  0
   10.2190   -1.2860   23.5120 C   0  0  0  0  0  0  0  0  0  0  0  0
   11.0950   -1.6690   22.5120 C   0  0  0  0  0  0  0  0  0  0  0  0
   12.3010   -1.0880   22.3960 C   0  0  0  0  0  0  0  0  0  0  0  0
   12.6570   -0.1160   23.2540 C   0  0  0  0  0  0  0  0  0  0  0  0
   11.8700    0.2880   24.2190 C   0  0  0  0  0  0  0  0  0  0  0  0
   10.5930   -0.2980   24.4030 C   0  0  0  0  0  0  0  0  0  0  0  0
  1  2  1  0
  2  3  2  0
  2  4  2  0
  2  5  1  0
  5  6  1  0
  6  7  1  0
  8  9  1  0
  9 10  1  0
 11 12  3  0
  7 13  1  0
 13 14  2  0
 11 15  1  0
 14 15  1  0
 15 16  2  0
 16 17  1  0
 10 18  1  0
 13 18  1  0
 17 18  2  0
M  END
