x0072-x0981
     RDKit          3D

 30 30  0  0  0  0  0  0  0  0999 V2000
    1.2340   -8.7860   21.2460 C   0  0  0  0  0  0  0  0  0  0  0  0
    2.4870   -7.2380   22.6310 N   0  0  0  0  0  0  0  0  0  0  0  0
    0.2570   -6.7820   22.1090 O   0  0  0  0  0  0  0  0  0  0  0  0
    1.2550   -7.4910   22.0480 C   0  0  0  0  0  0  0  0  0  0  0  0
    2.2760   -8.1470   26.3360 N   0  0  0  0  0  0  0  0  0  0  0  0
    3.8370   -8.1960   24.6060 O   0  0  0  0  0  0  0  0  0  0  0  0
    2.7350   -6.0620   23.3230 C   0  0  1  0  0  0  0  0  0  0  0  0
    5.2000   -5.6830   22.2260 N   0  0  0  0  0  0  0  0  0  0  0  0
    4.3590   -4.7740   24.4840 N   0  0  0  0  0  0  0  0  0  0  0  0
    2.4150   -6.3320   24.7550 C   0  0  0  0  0  0  0  0  0  0  0  0
    2.9260   -7.6480   25.2070 C   0  0  0  0  0  0  0  0  0  0  0  0
    4.1570   -5.5160   23.2630 C   0  0  0  0  0  0  0  0  0  0  0  0
    6.0720   -4.7300   21.7840 C   0  0  0  0  0  0  0  0  0  0  0  0
    6.3520   -4.9750   20.3120 C   0  0  0  0  0  0  0  0  0  0  0  0
    5.7090   -6.2250   19.8600 C   0  0  0  0  0  0  0  0  0  0  0  0
    6.9300   -4.9010   26.7060 C   0  0  0  0  0  0  0  0  0  0  0  0
    8.6110   -4.4450   26.4360 S   0  0  0  0  0  0  0  0  0  0  0  0
    9.2790   -5.5620   25.8090 O   0  0  0  0  0  0  0  0  0  0  0  0
    9.1060   -3.8630   27.6430 O   0  0  0  0  0  0  0  0  0  0  0  0
    8.4370   -3.2500   25.2700 N   0  0  0  0  0  0  0  0  0  0  0  0
    9.3030   -3.1770   24.2350 C   0  0  0  0  0  0  0  0  0  0  0  0
    9.2910   -2.0950   23.3370 C   0  0  0  0  0  0  0  0  0  0  0  0
    5.5340   -4.2620   24.7700 C   0  0  0  0  0  0  0  0  0  0  0  0
    6.3040   -5.3250   25.4080 C   0  0  0  0  0  0  0  0  0  0  0  0
   10.6150   -1.3790   23.2360 C   0  0  0  0  0  0  0  0  0  0  0  0
   11.6050   -1.8640   22.3790 C   0  0  0  0  0  0  0  0  0  0  0  0
   12.8320   -1.2030   22.2720 C   0  0  0  0  0  0  0  0  0  0  0  0
   13.0590   -0.0460   23.0310 C   0  0  0  0  0  0  0  0  0  0  0  0
   12.0960    0.4230   23.8670 C   0  0  0  0  0  0  0  0  0  0  0  0
   10.8870   -0.2250   23.9810 C   0  0  0  0  0  0  0  0  0  0  0  0
  1  4  1  0
  2  4  1  0
  3  4  2  0
  2  7  1  0
  7 10  1  1
  5 11  1  0
  6 11  2  0
 10 11  1  0
  7 12  1  0
  8 12  1  0
  9 12  2  3
  8 13  1  0
 13 14  1  0
 14 15  2  3
 16 17  1  0
 17 18  2  0
 17 19  2  0
 17 20  1  0
 20 21  1  0
 21 22  1  0
  9 23  1  0
 16 24  1  0
 23 24  1  0
 22 25  1  0
 25 26  2  0
 26 27  1  0
 27 28  2  0
 28 29  1  0
 25 30  1  0
 29 30  2  0
M  END
