x0072-x1493
     RDKit          3D

 24 26  0  0  0  0  0  0  0  0999 V2000
    6.8190   -5.3160   26.6520 C   0  0  0  0  0  0  0  0  0  0  0  0
    8.4380   -4.6730   26.3430 S   0  0  0  0  0  0  0  0  0  0  0  0
    9.3280   -5.7850   26.1460 O   0  0  0  0  0  0  0  0  0  0  0  0
    8.6960   -3.6760   27.3320 O   0  0  0  0  0  0  0  0  0  0  0  0
    8.3070   -3.9260   24.8240 N   0  0  0  0  0  0  0  0  0  0  0  0
    9.5090   -3.3950   24.3410 C   0  0  0  0  0  0  0  0  0  0  0  0
    9.3260   -2.1650   23.4210 C   0  0  0  0  0  0  0  0  0  0  0  0
    4.6730   -5.8520   25.2690 C   0  0  0  0  0  0  0  0  0  0  0  0
    6.0510   -5.4080   25.6020 C   0  0  0  0  0  0  0  0  0  0  0  0
    5.2510   -4.5470   19.8920 O   0  0  0  0  0  0  0  0  0  0  0  0
    6.3600   -4.2580   20.3750 C   0  0  0  0  0  0  0  0  0  0  0  0
    7.2340   -3.3040   19.6420 C   0  0  0  0  0  0  0  0  0  0  0  0
   10.6260   -1.3440   23.3980 C   0  0  0  0  0  0  0  0  0  0  0  0
   11.4990   -1.8860   22.4970 C   0  0  0  0  0  0  0  0  0  0  0  0
   12.7090   -1.3560   22.2830 C   0  0  0  0  0  0  0  0  0  0  0  0
   12.9890   -0.2880   22.9910 C   0  0  0  0  0  0  0  0  0  0  0  0
   12.1040    0.2910   23.9270 C   0  0  0  0  0  0  0  0  0  0  0  0
   10.7750   -0.1220   24.3070 C   0  0  0  0  0  0  0  0  0  0  0  0
    6.1940   -5.1130   24.2370 N   0  0  0  0  0  0  0  0  0  0  0  0
    7.5940   -4.7380   23.8080 C   0  0  1  0  0  0  0  0  0  0  0  0
    7.5430   -4.0340   22.5270 C   0  0  0  0  0  0  0  0  0  0  0  0
    6.7570   -4.8370   21.5750 N   0  0  0  0  0  0  0  0  0  0  0  0
    6.2860   -6.0030   22.0420 C   0  0  0  0  0  0  0  0  0  0  0  0
    5.4330   -5.7710   23.1230 C   0  0  0  0  0  0  0  0  0  0  0  0
  2  1  1  0
  2  3  2  0
  2  4  2  0
  2  5  1  0
  5  6  1  0
  6  7  1  0
  1  9  2  0
  8  9  1  0
 10 11  2  0
 11 12  1  0
  7 13  1  0
 13 14  2  0
 14 15  1  0
 15 16  2  0
 16 17  1  0
 13 18  1  0
 17 18  2  0
  9 19  1  0
  5 20  1  0
 19 20  1  0
 20 21  1  6
 11 22  1  0
 21 22  1  0
 22 23  1  0
 19 24  1  0
 23 24  1  0
M  END
