x0072-x2052
     RDKit          3D

 34 38  0  0  0  0  0  0  0  0999 V2000
    5.7650   -1.5700   25.1580 C   0  0  0  0  0  0  0  0  0  0  0  0
    4.5860   -1.7540   25.4320 O   0  0  0  0  0  0  0  0  0  0  0  0
    6.7350   -0.8080   26.0020 N   0  0  0  0  0  0  0  0  0  0  0  0
    5.4360   -4.5310   19.9280 O   0  0  0  0  0  0  0  0  0  0  0  0
    5.5460    2.2380   30.5570 O   0  0  0  0  0  0  0  0  0  0  0  0
    6.3160   -3.6570   20.1570 C   0  0  0  0  0  0  0  0  0  0  0  0
    7.1440   -3.1360   19.0560 C   0  0  0  0  0  0  0  0  0  0  0  0
    6.1110    3.3280   30.5510 C   0  0  0  0  0  0  0  0  0  0  0  0
    6.4340   -5.2680   26.0730 C   0  0  0  0  0  0  0  0  0  0  0  0
    8.0760   -4.5700   26.0260 S   0  0  0  0  0  0  0  0  0  0  0  0
    9.0590   -5.6180   26.1700 O   0  0  0  0  0  0  0  0  0  0  0  0
    8.2350   -3.6520   27.1290 O   0  0  0  0  0  0  0  0  0  0  0  0
    8.3190   -3.7680   24.5360 N   0  0  0  0  0  0  0  0  0  0  0  0
    9.3860   -2.9940   24.4260 C   0  0  0  0  0  0  0  0  0  0  0  0
    9.3880   -2.1020   23.1850 C   0  0  0  0  0  0  0  0  0  0  0  0
    7.3810   -3.3310   23.6860 C   0  0  1  0  0  0  0  0  0  0  0  0
    6.5790   -3.1440   21.4200 N   0  0  0  0  0  0  0  0  0  0  0  0
    6.8830   -1.8030   21.6850 C   0  0  0  0  0  0  0  0  0  0  0  0
    6.3200   -1.2440   22.8400 C   0  0  0  0  0  0  0  0  0  0  0  0
    6.2510   -2.1430   23.8520 C   0  0  2  0  0  0  0  0  0  0  0  0
    6.0670   -3.4600   23.6960 C   0  0  1  0  0  0  0  0  0  0  0  0
    6.7000   -3.9030   22.5240 C   0  0  2  0  0  0  0  0  0  0  0  0
    6.6030    2.0410   28.5050 N   0  0  0  0  0  0  0  0  0  0  0  0
    6.8700    1.2760   27.4200 C   0  0  0  0  0  0  0  0  0  0  0  0
    6.4040   -0.0850   27.1720 C   0  0  0  0  0  0  0  0  0  0  0  0
    5.6050   -0.6200   28.1790 C   0  0  0  0  0  0  0  0  0  0  0  0
    5.3160    0.1540   29.3130 C   0  0  0  0  0  0  0  0  0  0  0  0
    5.8180    1.4700   29.4570 C   0  0  0  0  0  0  0  0  0  0  0  0
   10.6790   -1.3350   23.0980 C   0  0  0  0  0  0  0  0  0  0  0  0
   11.7010   -1.8220   22.2930 C   0  0  0  0  0  0  0  0  0  0  0  0
   12.8900   -1.1210   22.2240 C   0  0  0  0  0  0  0  0  0  0  0  0
   13.0680    0.0570   22.9410 C   0  0  0  0  0  0  0  0  0  0  0  0
   12.0580    0.5480   23.7430 C   0  0  0  0  0  0  0  0  0  0  0  0
   10.8530   -0.1460   23.8290 C   0  0  0  0  0  0  0  0  0  0  0  0
  1  2  2  0
  1  3  1  0
  4  6  2  0
  6  7  1  0
  5  8  1  0
  9 10  1  0
 10 11  2  0
 10 12  2  0
 10 13  1  0
 13 14  1  0
 14 15  1  0
 16 13  1  1
  6 17  1  0
 17 18  1  0
 18 19  1  0
 20  1  1  1
 16 20  1  0
 19 20  1  0
 16 21  1  0
 20 21  1  0
 16 22  1  0
 22 17  1  6
 21 22  1  6
 23 24  2  0
  3 25  1  0
 24 25  1  0
 25 26  2  0
 26 27  1  0
  5 28  1  0
 23 28  1  0
 27 28  2  0
 15 29  1  0
 29 30  2  0
 30 31  1  0
 31 32  2  0
 32 33  1  0
 29 34  1  0
 33 34  2  0
M  END
