x0072-x0387
     RDKit          3D

 16 20  0  0  0  0  0  0  0  0999 V2000
    6.3010   -5.1570   26.6230 C   0  0  0  0  0  0  0  0  0  0  0  0
    8.9620   -5.3230   26.3720 O   0  0  0  0  0  0  0  0  0  0  0  0
    7.7490   -3.6290   24.5400 N   0  0  0  0  0  0  0  0  0  0  0  0
    9.2030   -2.1370   23.2930 C   0  0  0  0  0  0  0  0  0  0  0  0
   10.5450   -1.3940   23.2330 C   0  0  0  0  0  0  0  0  0  0  0  0
   11.5420   -1.9640   22.2950 C   0  0  0  0  0  0  0  0  0  0  0  0
   12.8780   -1.3520   22.1180 C   0  0  0  0  0  0  0  0  0  0  0  0
   13.0680   -0.1110   22.9890 C   0  0  0  0  0  0  0  0  0  0  0  0
   12.0460    0.4600   23.9430 C   0  0  0  0  0  0  0  0  0  0  0  0
   10.8090   -0.1510   24.0820 C   0  0  0  0  0  0  0  0  0  0  0  0
    9.4210   -4.2760   26.7330 C   0  0  2  0  0  0  0  0  0  0  0  0
    7.7660   -4.3420   26.0280 S   0  0  0  0  0  0  0  0  0  0  0  0
    8.6100   -2.8320   25.4440 C   0  0  1  0  0  0  0  0  0  0  0  0
    9.1050   -3.1620   24.3580 C   0  0  1  0  0  0  0  0  0  0  0  0
   10.1920   -3.9830   24.5990 C   0  0  0  0  0  0  0  0  0  0  0  0
   10.4590   -3.7180   25.9370 C   0  0  0  0  0  0  0  0  0  0  0  0
  4  5  1  0
  5  6  2  0
  6  7  1  0
  7  8  2  0
  8  9  1  0
  5 10  1  0
  9 10  2  0
  2 11  1  0
  1 12  1  0
  2 12  1  0
  3 12  1  0
 11 12  1  0
  3 13  1  0
 13 12  1  1
  3 14  1  0
 14  4  1  6
 13 14  1  0
 14 15  1  0
 11 16  1  6
 15 16  1  0
M  END
