x0072-x2572
     RDKit          3D

 25 26  0  0  0  0  0  0  0  0999 V2000
    4.9130    1.1120   21.7760 C   0  0  0  0  0  0  0  0  0  0  0  0
    8.9570    0.6270   21.4770 O   0  0  0  0  0  0  0  0  0  0  0  0
    7.1030   -0.7310   21.3170 N   0  0  0  0  0  0  0  0  0  0  0  0
   13.6830   -3.0310   20.5900 N   0  0  0  0  0  0  0  0  0  0  0  0
    8.2730   -0.2960   21.9200 C   0  0  0  0  0  0  0  0  0  0  0  0
    8.7470   -0.9840   23.2500 C   0  0  1  0  0  0  0  0  0  0  0  0
   13.1110   -1.9890   21.4340 C   0  0  0  0  0  0  0  0  0  0  0  0
    6.7150   -5.0650   26.1020 C   0  0  0  0  0  0  0  0  0  0  0  0
    8.1420   -4.0460   25.7330 S   0  0  0  0  0  0  0  0  0  0  0  0
    9.2140   -4.9950   25.5630 O   0  0  0  0  0  0  0  0  0  0  0  0
    8.1970   -3.0160   26.7470 O   0  0  0  0  0  0  0  0  0  0  0  0
    7.7510   -3.3350   24.2380 N   0  0  0  0  0  0  0  0  0  0  0  0
    8.6980   -2.5390   23.3920 C   0  0  0  0  0  0  0  0  0  0  0  0
    6.3110    0.3760   17.7860 N   0  0  0  0  0  0  0  0  0  0  0  0
    6.9730   -0.3370   18.9200 C   0  0  0  0  0  0  0  0  0  0  0  0
    6.4690   -0.0500   20.1720 C   0  0  0  0  0  0  0  0  0  0  0  0
    5.4310    0.8210   20.4040 C   0  0  0  0  0  0  0  0  0  0  0  0
    4.8240    1.4760   19.3240 C   0  0  0  0  0  0  0  0  0  0  0  0
    5.2940    1.2200   18.0790 C   0  0  0  0  0  0  0  0  0  0  0  0
   10.6730    0.5020   23.8800 C   0  0  0  0  0  0  0  0  0  0  0  0
   12.0060    0.8570   23.7950 C   0  0  0  0  0  0  0  0  0  0  0  0
   12.9740    0.1070   22.9950 C   0  0  0  0  0  0  0  0  0  0  0  0
   12.3890   -1.0360   22.3130 C   0  0  0  0  0  0  0  0  0  0  0  0
   11.0560   -1.3490   22.4210 C   0  0  0  0  0  0  0  0  0  0  0  0
   10.1910   -0.6020   23.1900 C   0  0  0  0  0  0  0  0  0  0  0  0
  2  5  2  0
  3  5  1  0
  5  6  1  0
  4  7  3  0
  8  9  1  0
  9 10  2  0
  9 11  2  0
  9 12  1  0
  6 13  1  6
 12 13  1  0
 14 15  2  0
  3 16  1  0
 15 16  1  0
  1 17  1  0
 16 17  2  0
 17 18  1  0
 14 19  1  0
 18 19  2  0
 20 21  2  0
 21 22  1  0
  7 23  1  0
 22 23  2  0
 23 24  1  0
  6 25  1  0
 20 25  1  0
 24 25  2  0
M  END
