x0072-x0769
     RDKit          3D

 31 33  0  0  0  0  0  0  0  0999 V2000
    6.4290   -4.5260   26.7650 N   0  0  0  0  0  0  0  0  0  0  0  0
    4.4520   -6.3330   25.9000 O   0  0  0  0  0  0  0  0  0  0  0  0
    5.2890   -4.6770   19.9380 O   0  0  0  0  0  0  0  0  0  0  0  0
    6.3840   -4.4240   20.4710 C   0  0  0  0  0  0  0  0  0  0  0  0
    7.2870   -3.4170   19.8300 C   0  0  0  0  0  0  0  0  0  0  0  0
    5.5920   -2.0800   26.2060 F   0  0  0  0  0  0  0  0  0  0  0  0
    5.1750   -5.0900   25.7540 S   0  0  1  0  0  0  0  0  0  0  0  0
    7.9460   -4.6050   26.3730 S   0  0  0  0  0  0  0  0  0  0  0  0
    8.4600   -5.7670   25.6740 O   0  0  0  0  0  0  0  0  0  0  0  0
    8.9020   -4.0620   27.3200 O   0  0  0  0  0  0  0  0  0  0  0  0
    8.0310   -3.4260   25.1400 N   0  0  0  0  0  0  0  0  0  0  0  0
    9.2410   -3.1920   24.5500 C   0  0  0  0  0  0  0  0  0  0  0  0
    9.2250   -2.1630   23.4630 C   0  0  0  0  0  0  0  0  0  0  0  0
    4.3030   -2.4010   26.0590 C   0  0  0  0  0  0  0  0  0  0  0  0
    3.9020   -3.8750   25.8210 C   0  0  0  0  0  0  0  0  0  0  0  0
    2.4130   -4.1510   25.6630 C   0  0  0  0  0  0  0  0  0  0  0  0
    1.5710   -3.0540   25.7540 C   0  0  0  0  0  0  0  0  0  0  0  0
    1.9770   -1.7640   25.9700 C   0  0  0  0  0  0  0  0  0  0  0  0
    3.3120   -1.3980   26.1240 C   0  0  0  0  0  0  0  0  0  0  0  0
    6.7180   -5.0900   21.6480 N   0  0  0  0  0  0  0  0  0  0  0  0
    5.9070   -6.1210   22.0250 C   0  0  0  0  0  0  0  0  0  0  0  0
    5.0470   -5.9080   23.1330 C   0  0  0  0  0  0  0  0  0  0  0  0
    5.8170   -5.2360   24.2000 N   0  0  0  0  0  0  0  0  0  0  0  0
    6.5010   -4.2140   23.6880 C   0  0  0  0  0  0  0  0  0  0  0  0
    7.4670   -4.5760   22.6500 C   0  0  0  0  0  0  0  0  0  0  0  0
   10.5640   -1.4380   23.3280 C   0  0  0  0  0  0  0  0  0  0  0  0
   11.5170   -1.9240   22.4350 C   0  0  0  0  0  0  0  0  0  0  0  0
   12.7440   -1.2810   22.2850 C   0  0  0  0  0  0  0  0  0  0  0  0
   13.0350   -0.1340   23.0280 C   0  0  0  0  0  0  0  0  0  0  0  0
   12.1020    0.3430   23.9050 C   0  0  0  0  0  0  0  0  0  0  0  0
   10.8750   -0.2870   24.0700 C   0  0  0  0  0  0  0  0  0  0  0  0
  3  4  2  0
  4  5  1  0
  1  7  2  0
  2  7  2  0
  8  1  1  0
  8  9  2  0
  8 10  2  0
  8 11  1  0
 11 12  1  0
 12 13  1  0
  6 14  1  0
  7 15  1  6
 14 15  2  0
 15 16  1  0
 16 17  2  0
 17 18  1  0
 14 19  1  0
 18 19  2  0
  4 20  1  0
 20 21  1  0
 21 22  1  0
  7 23  1  0
 22 23  1  0
 23 24  1  0
 20 25  1  0
 24 25  1  0
 13 26  1  0
 26 27  2  0
 27 28  1  0
 28 29  2  0
 29 30  1  0
 26 31  1  0
 30 31  2  0
M  END
