x0072-x0540
     RDKit          3D

 13 13  0  0  0  0  0  0  0  0999 V2000
    6.6730   -5.2440   26.5430 C   0  0  0  0  0  0  0  0  0  0  0  0
    8.2490   -4.5070   26.2580 S   0  0  0  0  0  0  0  0  0  0  0  0
    9.0420   -5.6490   25.8810 O   0  0  0  0  0  0  0  0  0  0  0  0
    8.5860   -3.6720   27.3750 O   0  0  0  0  0  0  0  0  0  0  0  0
    8.0300   -3.5700   24.8870 N   0  0  0  0  0  0  0  0  0  0  0  0
    9.1790   -3.2010   24.0700 C   0  0  0  0  0  0  0  0  0  0  0  0
    9.1530   -1.8300   23.4190 C   0  0  0  0  0  0  0  0  0  0  0  0
   10.5060   -1.1890   23.3250 C   0  0  0  0  0  0  0  0  0  0  0  0
   11.5340   -1.8120   22.3760 C   0  0  0  0  0  0  0  0  0  0  0  0
   12.8280   -1.2340   22.2520 C   0  0  0  0  0  0  0  0  0  0  0  0
   13.0540   -0.0860   23.0420 C   0  0  0  0  0  0  0  0  0  0  0  0
   12.1140    0.4740   23.9070 C   0  0  0  0  0  0  0  0  0  0  0  0
   10.8400   -0.0510   24.0730 C   0  0  0  0  0  0  0  0  0  0  0  0
  1  2  1  0
  2  3  2  0
  2  4  2  0
  2  5  1  0
  5  6  1  0
  6  7  1  0
  7  8  1  0
  8  9  2  0
  9 10  1  0
 10 11  2  0
 11 12  1  0
  8 13  1  0
 12 13  2  0
M  END
