x0072-x1478
     RDKit          3D

 25 26  0  0  0  0  0  0  0  0999 V2000
    6.6550   -4.9900   26.2240 C   0  0  0  0  0  0  0  0  0  0  0  0
    8.3200   -4.3430   26.2200 S   0  0  0  0  0  0  0  0  0  0  0  0
    9.1960   -5.4160   25.8070 O   0  0  0  0  0  0  0  0  0  0  0  0
    8.5260   -3.6740   27.4700 O   0  0  0  0  0  0  0  0  0  0  0  0
    8.3150   -3.2010   24.9690 N   0  0  0  0  0  0  0  0  0  0  0  0
    8.9850   -3.5520   23.8050 C   0  0  0  0  0  0  0  0  0  0  0  0
    9.2300   -2.4730   22.7040 C   0  0  1  0  0  0  0  0  0  0  0  0
    6.9670   -2.6190   21.6140 N   0  0  0  0  0  0  0  0  0  0  0  0
    8.0330   -3.5290   19.6390 C   0  0  0  0  0  0  0  0  0  0  0  0
    5.7860   -3.4660   19.5950 O   0  0  0  0  0  0  0  0  0  0  0  0
    6.1460   -5.8650   22.0840 Cl  0  0  0  0  0  0  0  0  0  0  0  0
    6.8480   -3.1660   20.3020 C   0  0  0  0  0  0  0  0  0  0  0  0
    7.9780   -1.8100   22.0700 C   0  0  0  0  0  0  0  0  0  0  0  0
   10.4660   -1.6050   22.9250 C   0  0  0  0  0  0  0  0  0  0  0  0
   11.6370   -1.8600   22.2050 C   0  0  0  0  0  0  0  0  0  0  0  0
   12.7840   -1.1470   22.3320 C   0  0  0  0  0  0  0  0  0  0  0  0
   12.8280   -0.1020   23.2110 C   0  0  0  0  0  0  0  0  0  0  0  0
   11.7250    0.1880   23.9320 C   0  0  0  0  0  0  0  0  0  0  0  0
   10.4980   -0.5490   23.8240 C   0  0  0  0  0  0  0  0  0  0  0  0
    4.6010   -4.7820   23.8010 N   0  0  0  0  0  0  0  0  0  0  0  0
    5.5290   -4.4700   22.8830 C   0  0  0  0  0  0  0  0  0  0  0  0
    5.9840   -3.1050   22.5780 C   0  0  0  0  0  0  0  0  0  0  0  0
    5.3510   -2.0530   23.3630 C   0  0  0  0  0  0  0  0  0  0  0  0
    4.3990   -2.4050   24.3010 C   0  0  0  0  0  0  0  0  0  0  0  0
    4.0580   -3.7460   24.4860 C   0  0  0  0  0  0  0  0  0  0  0  0
  1  2  1  0
  2  3  2  0
  2  4  2  0
  2  5  1  0
  5  6  1  0
  7  6  1  1
  8 12  1  0
  9 12  1  0
 10 12  2  0
  7 13  1  0
  8 13  1  0
  7 14  1  0
 14 15  2  0
 15 16  1  0
 16 17  2  0
 17 18  1  0
 14 19  1  0
 18 19  2  0
 11 21  1  0
 20 21  2  0
  8 22  1  0
 21 22  1  0
 22 23  2  0
 23 24  1  0
 20 25  1  0
 24 25  2  0
M  END
