x0072-x2563
     RDKit          3D

 26 28  0  0  0  0  0  0  0  0999 V2000
    6.6480   -4.9900   25.8950 C   0  0  0  0  0  0  0  0  0  0  0  0
    8.2880   -4.3090   25.7440 S   0  0  0  0  0  0  0  0  0  0  0  0
    9.1960   -5.4270   25.6740 O   0  0  0  0  0  0  0  0  0  0  0  0
    8.4240   -3.3320   26.7780 O   0  0  0  0  0  0  0  0  0  0  0  0
    8.3020   -3.5510   24.2180 N   0  0  0  0  0  0  0  0  0  0  0  0
    8.4260   -2.1520   24.0410 C   0  0  0  0  0  0  0  0  0  0  0  0
    9.0870   -1.7310   22.6740 C   0  0  1  0  0  0  0  0  0  0  0  0
    8.3430   -0.6960   21.8020 C   0  0  0  0  0  0  0  0  0  0  0  0
    8.4790    0.5330   21.8970 O   0  0  0  0  0  0  0  0  0  0  0  0
    7.4390   -1.2000   20.7200 C   0  0  0  0  0  0  0  0  0  0  0  0
   10.4940   -1.2070   22.8780 C   0  0  0  0  0  0  0  0  0  0  0  0
   11.6220   -1.8500   22.0970 C   0  0  0  0  0  0  0  0  0  0  0  0
   12.8610   -1.3030   22.3220 C   0  0  0  0  0  0  0  0  0  0  0  0
   13.0230   -0.2660   23.1830 C   0  0  0  0  0  0  0  0  0  0  0  0
   12.0140    0.3360   23.9130 C   0  0  0  0  0  0  0  0  0  0  0  0
   10.7480   -0.1370   23.7620 C   0  0  0  0  0  0  0  0  0  0  0  0
    6.2120    0.8020   17.7140 N   0  0  0  0  0  0  0  0  0  0  0  0
    5.1580    1.5050   18.2000 C   0  0  0  0  0  0  0  0  0  0  0  0
    4.7500    1.4280   19.5020 C   0  0  0  0  0  0  0  0  0  0  0  0
    5.4490    0.5550   20.4770 C   0  0  0  0  0  0  0  0  0  0  0  0
    6.5840   -0.2100   19.9260 C   0  0  0  0  0  0  0  0  0  0  0  0
    6.9110   -0.0540   18.5880 C   0  0  0  0  0  0  0  0  0  0  0  0
    3.6560    2.1860   19.9220 C   0  0  0  0  0  0  0  0  0  0  0  0
    3.2380    2.1190   21.2550 C   0  0  0  0  0  0  0  0  0  0  0  0
    3.8920    1.3150   22.1500 C   0  0  0  0  0  0  0  0  0  0  0  0
    4.9800    0.5330   21.7950 C   0  0  0  0  0  0  0  0  0  0  0  0
  1  2  1  0
  2  3  2  0
  2  4  2  0
  2  5  1  0
  5  6  1  0
  7  6  1  1
  7  8  1  0
  8  9  2  0
  8 10  1  0
  7 11  1  0
 11 12  2  0
 12 13  1  0
 13 14  2  0
 14 15  1  0
 11 16  1  0
 15 16  2  0
 17 18  2  0
 18 19  1  0
 19 20  2  0
 10 21  1  0
 20 21  1  0
 17 22  1  0
 21 22  2  0
 19 23  1  0
 23 24  2  0
 24 25  1  0
 20 26  1  0
 25 26  2  0
M  END
