x0072-x1358
     RDKit          3D

 33 36  0  0  0  0  0  0  0  0999 V2000
    6.8120   -2.3370   25.9980 N   0  0  0  0  0  0  0  0  0  0  0  0
    5.2360    0.0520   25.5520 O   0  0  0  0  0  0  0  0  0  0  0  0
    4.7380   -3.2580   25.4230 O   0  0  0  0  0  0  0  0  0  0  0  0
    5.1950   -4.2400   19.7060 O   0  0  0  0  0  0  0  0  0  0  0  0
    5.9180   -3.0370   25.2130 C   0  0  0  0  0  0  0  0  0  0  0  0
    6.3040   -3.7730   20.0250 C   0  0  0  0  0  0  0  0  0  0  0  0
    7.2590   -3.1660   19.0480 C   0  0  0  0  0  0  0  0  0  0  0  0
    6.5890   -5.4890   26.3810 C   0  0  0  0  0  0  0  0  0  0  0  0
    8.1870   -4.7540   26.1130 S   0  0  0  0  0  0  0  0  0  0  0  0
    9.1980   -5.7620   25.9190 O   0  0  0  0  0  0  0  0  0  0  0  0
    8.4620   -4.0570   27.3450 O   0  0  0  0  0  0  0  0  0  0  0  0
    8.1240   -3.5400   24.6760 C   0  0  2  0  0  0  0  0  0  0  0  0
    9.3600   -3.5640   23.7670 C   0  0  0  0  0  0  0  0  0  0  0  0
    9.4960   -2.3350   22.8450 C   0  0  0  0  0  0  0  0  0  0  0  0
    8.0650   -2.2970   25.3120 C   0  0  0  0  0  0  0  0  0  0  0  0
    5.8410   -0.1780   26.6530 C   0  0  0  0  0  0  0  0  0  0  0  0
    6.6120   -1.2590   27.0040 C   0  0  0  0  0  0  0  0  0  0  0  0
    7.2330   -1.4470   28.1870 C   0  0  0  0  0  0  0  0  0  0  0  0
    7.1320   -0.4940   29.2160 C   0  0  0  0  0  0  0  0  0  0  0  0
    6.3590    0.6410   28.9310 C   0  0  0  0  0  0  0  0  0  0  0  0
    5.6920    0.8160   27.6200 C   0  0  0  0  0  0  0  0  0  0  0  0
    6.6450   -3.8570   21.3760 N   0  0  0  0  0  0  0  0  0  0  0  0
    7.3330   -2.8010   21.9430 C   0  0  0  0  0  0  0  0  0  0  0  0
    6.6420   -2.4640   23.0820 C   0  0  0  0  0  0  0  0  0  0  0  0
    6.7020   -3.5280   23.9720 C   0  0  0  0  0  0  0  0  0  0  0  0
    6.2190   -4.7810   23.4930 C   0  0  0  0  0  0  0  0  0  0  0  0
    6.5860   -5.0750   22.1860 C   0  0  0  0  0  0  0  0  0  0  0  0
   10.7230   -1.4130   22.9980 C   0  0  0  0  0  0  0  0  0  0  0  0
   11.7900   -1.8200   22.2380 C   0  0  0  0  0  0  0  0  0  0  0  0
   12.9590   -1.0980   22.2620 C   0  0  0  0  0  0  0  0  0  0  0  0
   13.0290    0.0310   23.0570 C   0  0  0  0  0  0  0  0  0  0  0  0
   11.9290    0.4280   23.8250 C   0  0  0  0  0  0  0  0  0  0  0  0
   10.7260   -0.3090   23.8070 C   0  0  0  0  0  0  0  0  0  0  0  0
  1  5  1  0
  3  5  2  0
  4  6  2  0
  6  7  1  0
  9  8  1  0
  9 10  2  0
  9 11  2  0
  9 12  1  0
 12 13  1  6
 13 14  1  0
  1 15  1  0
 12 15  1  0
  2 16  1  0
  1 17  1  0
 16 17  2  0
 17 18  1  0
 18 19  2  0
 19 20  1  0
 16 21  1  0
 20 21  2  0
  6 22  1  0
 22 23  1  0
 23 24  1  0
 25  5  1  0
 12 25  1  0
 24 25  1  0
 25 26  1  0
 22 27  1  0
 26 27  1  0
 14 28  1  0
 28 29  2  0
 29 30  1  0
 30 31  2  0
 31 32  1  0
 28 33  1  0
 32 33  2  0
M  END
