x0072-x0426
     RDKit          3D

 35 37  0  0  0  0  0  0  0  0999 V2000
    6.6150   -5.1660   26.4170 C   0  0  0  0  0  0  0  0  0  0  0  0
    8.2920   -4.6100   26.1840 S   0  0  0  0  0  0  0  0  0  0  0  0
    9.1030   -5.7590   25.8730 O   0  0  0  0  0  0  0  0  0  0  0  0
    8.6230   -3.7380   27.2740 O   0  0  0  0  0  0  0  0  0  0  0  0
    8.2070   -3.6990   24.7750 N   0  0  0  0  0  0  0  0  0  0  0  0
    8.9290   -2.5150   24.7090 C   0  0  0  0  0  0  0  0  0  0  0  0
    9.1650   -2.0410   23.2610 C   0  0  1  0  0  0  0  0  0  0  0  0
    2.5900    1.7890   23.6550 C   0  0  0  0  0  0  0  0  0  0  0  0
    2.4360    0.5780   23.4600 O   0  0  0  0  0  0  0  0  0  0  0  0
    3.7220    2.5550   23.2590 N   0  0  0  0  0  0  0  0  0  0  0  0
    4.0180    1.2950   22.6670 C   0  0  1  0  0  0  0  0  0  0  0  0
    3.5370    1.2610   21.1880 C   0  0  0  0  0  0  0  0  0  0  0  0
    2.9610    4.2880   25.1380 F   0  0  0  0  0  0  0  0  0  0  0  0
    8.0220   -1.2760   22.6220 C   0  0  0  0  0  0  0  0  0  0  0  0
    7.3650   -0.1700   23.2020 C   0  0  0  0  0  0  0  0  0  0  0  0
    5.9730   -0.1370   23.1000 C   0  0  0  0  0  0  0  0  0  0  0  0
    5.4330    1.1330   22.8000 C   0  0  0  0  0  0  0  0  0  0  0  0
   10.5250   -1.3610   23.1730 C   0  0  0  0  0  0  0  0  0  0  0  0
   11.5260   -1.8750   22.3210 C   0  0  0  0  0  0  0  0  0  0  0  0
   12.7640   -1.2340   22.2520 C   0  0  0  0  0  0  0  0  0  0  0  0
   13.0730   -0.0290   23.0370 C   0  0  0  0  0  0  0  0  0  0  0  0
   11.9790    0.4170   23.8840 C   0  0  0  0  0  0  0  0  0  0  0  0
   10.7570   -0.2240   23.9510 C   0  0  0  0  0  0  0  0  0  0  0  0
    1.7470    3.7220   25.0790 C   0  0  0  0  0  0  0  0  0  0  0  0
    1.4940    2.5190   24.3830 C   0  0  0  0  0  0  0  0  0  0  0  0
    0.2100    2.0090   24.3780 C   0  0  0  0  0  0  0  0  0  0  0  0
   -0.8570    2.6280   25.0320 C   0  0  0  0  0  0  0  0  0  0  0  0
   -0.5970    3.8050   25.7080 C   0  0  0  0  0  0  0  0  0  0  0  0
    0.6930    4.3360   25.7260 C   0  0  0  0  0  0  0  0  0  0  0  0
    5.6010    0.0000   20.2620 C   0  0  0  0  0  0  0  0  0  0  0  0
    6.5060   -0.2320   19.2140 C   0  0  0  0  0  0  0  0  0  0  0  0
    6.4490    0.4090   18.0320 N   0  0  0  0  0  0  0  0  0  0  0  0
    5.4640    1.3110   17.8870 C   0  0  0  0  0  0  0  0  0  0  0  0
    4.5270    1.6030   18.8740 C   0  0  0  0  0  0  0  0  0  0  0  0
    4.5700    0.9460   20.1070 C   0  0  0  0  0  0  0  0  0  0  0  0
  1  2  1  0
  2  3  2  0
  2  4  2  0
  2  5  1  0
  5  6  1  0
  7  6  1  1
  8  9  2  0
  8 10  1  0
 10 11  1  0
 11 12  1  6
  7 14  1  0
 14 15  1  0
 15 16  1  0
 11 17  1  0
 16 17  1  0
  7 18  1  0
 18 19  2  0
 19 20  1  0
 20 21  2  0
 21 22  1  0
 18 23  1  0
 22 23  2  0
 13 24  1  0
  8 25  1  0
 24 25  2  0
 25 26  1  0
 26 27  2  0
 27 28  1  0
 24 29  1  0
 28 29  2  0
 30 31  2  0
 31 32  1  0
 32 33  2  0
 33 34  1  0
 12 35  1  0
 30 35  1  0
 34 35  2  0
M  END
