x0072-x2649
     RDKit          3D

 25 26  0  0  0  0  0  0  0  0999 V2000
    7.0540   -0.9540   21.1740 N   0  0  0  0  0  0  0  0  0  0  0  0
    7.9840   -0.6390   24.2790 C   0  0  0  0  0  0  0  0  0  0  0  0
    8.9470    0.3300   21.3870 O   0  0  0  0  0  0  0  0  0  0  0  0
   13.2750   -2.0720   21.1130 Cl  0  0  0  0  0  0  0  0  0  0  0  0
    8.6160   -1.3700   23.1090 C   0  0  2  0  0  0  0  0  0  0  0  0
    8.2340   -0.5800   21.7950 C   0  0  0  0  0  0  0  0  0  0  0  0
    4.9310    1.0400   21.8250 C   0  0  0  0  0  0  0  0  0  0  0  0
    6.6520   -5.0630   26.1600 C   0  0  0  0  0  0  0  0  0  0  0  0
    8.1840   -4.2720   25.6750 S   0  0  0  0  0  0  0  0  0  0  0  0
    9.0250   -5.3720   25.2940 O   0  0  0  0  0  0  0  0  0  0  0  0
    8.5730   -3.4350   26.7740 O   0  0  0  0  0  0  0  0  0  0  0  0
    7.7240   -3.2200   24.3760 N   0  0  0  0  0  0  0  0  0  0  0  0
    8.5300   -2.8960   23.3270 C   0  0  0  0  0  0  0  0  0  0  0  0
    6.2710    0.3850   17.7620 N   0  0  0  0  0  0  0  0  0  0  0  0
    5.3080    1.2760   18.0710 C   0  0  0  0  0  0  0  0  0  0  0  0
    4.8590    1.5030   19.3730 C   0  0  0  0  0  0  0  0  0  0  0  0
    5.4040    0.7930   20.4250 C   0  0  0  0  0  0  0  0  0  0  0  0
    6.3890   -0.1220   20.0810 C   0  0  0  0  0  0  0  0  0  0  0  0
    6.7830   -0.2960   18.8120 C   0  0  0  0  0  0  0  0  0  0  0  0
   10.5710    0.0400   23.9600 C   0  0  0  0  0  0  0  0  0  0  0  0
   11.8990    0.4100   23.9330 C   0  0  0  0  0  0  0  0  0  0  0  0
   12.9100   -0.1810   23.0660 C   0  0  0  0  0  0  0  0  0  0  0  0
   12.3330   -1.2250   22.2230 C   0  0  0  0  0  0  0  0  0  0  0  0
   11.0010   -1.5670   22.2740 C   0  0  0  0  0  0  0  0  0  0  0  0
   10.0950   -0.9590   23.1220 C   0  0  0  0  0  0  0  0  0  0  0  0
  5  2  1  1
  1  6  1  0
  3  6  2  0
  5  6  1  0
  8  9  1  0
  9 10  2  0
  9 11  2  0
  9 12  1  0
  5 13  1  0
 12 13  1  0
 14 15  2  0
 15 16  1  0
  7 17  1  0
 16 17  2  0
  1 18  1  0
 17 18  1  0
 14 19  1  0
 18 19  2  0
 20 21  2  0
 21 22  1  0
  4 23  1  0
 22 23  2  0
 23 24  1  0
  5 25  1  0
 20 25  1  0
 24 25  2  0
M  END
