x0072-x0354
     RDKit          3D

 23 24  0  0  0  0  0  0  0  0999 V2000
    6.5960   -4.8580   25.8980 C   0  0  0  0  0  0  0  0  0  0  0  0
    8.2640   -4.3690   26.2630 S   0  0  0  0  0  0  0  0  0  0  0  0
    9.1410   -5.4340   25.8280 O   0  0  0  0  0  0  0  0  0  0  0  0
    8.2510   -3.9190   27.6290 O   0  0  0  0  0  0  0  0  0  0  0  0
    8.7530   -2.8500   25.2760 C   0  0  0  0  0  0  0  0  0  0  0  0
    9.1260   -3.1720   23.8140 C   0  0  0  0  0  0  0  0  0  0  0  0
    9.2870   -1.8440   23.1360 C   0  0  0  0  0  0  0  0  0  0  0  0
    7.2440   -0.4830   27.2450 O   0  0  0  0  0  0  0  0  0  0  0  0
    8.8750   -1.4100   25.7210 C   0  0  0  0  0  0  0  0  0  0  0  0
    8.6240   -0.8310   27.1350 C   0  0  0  0  0  0  0  0  0  0  0  0
    5.8300    3.6580   30.9390 C   0  0  0  0  0  0  0  0  0  0  0  0
   10.5640   -1.2350   23.1430 C   0  0  0  0  0  0  0  0  0  0  0  0
   11.5130   -1.8100   22.2990 C   0  0  0  0  0  0  0  0  0  0  0  0
   12.7730   -1.3030   22.2200 C   0  0  0  0  0  0  0  0  0  0  0  0
   12.9650   -0.2700   22.9910 C   0  0  0  0  0  0  0  0  0  0  0  0
   12.0500    0.3190   23.8360 C   0  0  0  0  0  0  0  0  0  0  0  0
   10.7000   -0.0220   24.0900 C   0  0  0  0  0  0  0  0  0  0  0  0
    7.6500    1.6050   28.2180 C   0  0  0  0  0  0  0  0  0  0  0  0
    7.3260    2.6950   29.1540 C   0  0  0  0  0  0  0  0  0  0  0  0
    6.2060    2.5720   29.9730 C   0  0  0  0  0  0  0  0  0  0  0  0
    5.4390    1.4110   29.8750 C   0  0  0  0  0  0  0  0  0  0  0  0
    5.7520    0.3690   28.9830 C   0  0  0  0  0  0  0  0  0  0  0  0
    6.8430    0.4620   28.1580 C   0  0  0  0  0  0  0  0  0  0  0  0
  1  2  1  0
  2  3  2  0
  2  4  2  0
  2  5  1  0
  5  6  1  0
  6  7  1  0
  5  9  2  3
  8 10  1  0
  9 10  1  0
  7 12  1  0
 12 13  2  0
 13 14  1  0
 14 15  2  0
 15 16  1  0
 12 17  1  0
 16 17  2  0
 18 19  2  0
 11 20  1  0
 19 20  1  0
 20 21  2  0
 21 22  1  0
  8 23  1  0
 18 23  1  0
 22 23  2  0
M  END
