x0072-x2908
     RDKit          3D

 24 25  0  0  0  0  0  0  0  0999 V2000
    6.6430   -5.0550   26.2360 C   0  0  0  0  0  0  0  0  0  0  0  0
    8.1970   -4.2980   25.8040 S   0  0  0  0  0  0  0  0  0  0  0  0
    9.0300   -5.3310   25.2570 O   0  0  0  0  0  0  0  0  0  0  0  0
    8.6230   -3.5670   26.9610 O   0  0  0  0  0  0  0  0  0  0  0  0
    7.7610   -3.2150   24.5660 N   0  0  0  0  0  0  0  0  0  0  0  0
    8.5370   -2.9010   23.4240 C   0  0  0  0  0  0  0  0  0  0  0  0
    8.7210   -1.3500   23.2290 C   0  0  2  0  0  0  0  0  0  0  0  0
   13.3540   -1.9500   21.0940 Cl  0  0  0  0  0  0  0  0  0  0  0  0
    4.9450    1.0070   21.8780 C   0  0  0  0  0  0  0  0  0  0  0  0
    9.0120    0.3050   21.4980 O   0  0  0  0  0  0  0  0  0  0  0  0
    7.1360   -0.9700   21.1780 N   0  0  0  0  0  0  0  0  0  0  0  0
    8.2920   -0.6230   21.8940 C   0  0  0  0  0  0  0  0  0  0  0  0
   10.1900   -1.0450   23.3200 C   0  0  0  0  0  0  0  0  0  0  0  0
   11.0540   -1.6210   22.2310 C   0  0  0  0  0  0  0  0  0  0  0  0
   12.3840   -1.3250   22.3070 C   0  0  0  0  0  0  0  0  0  0  0  0
   12.8810   -0.5610   23.3110 C   0  0  0  0  0  0  0  0  0  0  0  0
   12.0890   -0.0440   24.3050 C   0  0  0  0  0  0  0  0  0  0  0  0
   10.7590   -0.2650   24.3380 C   0  0  0  0  0  0  0  0  0  0  0  0
    6.3420    0.3550   17.7610 N   0  0  0  0  0  0  0  0  0  0  0  0
    6.8920   -0.3490   18.8510 C   0  0  0  0  0  0  0  0  0  0  0  0
    6.4860   -0.1830   20.1670 C   0  0  0  0  0  0  0  0  0  0  0  0
    5.4040    0.7950   20.4560 C   0  0  0  0  0  0  0  0  0  0  0  0
    4.8680    1.4910   19.2650 C   0  0  0  0  0  0  0  0  0  0  0  0
    5.3720    1.2250   18.0070 C   0  0  0  0  0  0  0  0  0  0  0  0
  1  2  1  0
  2  3  2  0
  2  4  2  0
  2  5  1  0
  5  6  1  0
  7  6  1  6
  7 12  1  0
 10 12  2  0
 11 12  1  0
  7 13  1  0
 13 14  2  0
  8 15  1  0
 14 15  1  0
 15 16  2  0
 16 17  1  0
 13 18  1  0
 17 18  2  0
 19 20  2  0
 11 21  1  0
 20 21  1  0
  9 22  1  0
 21 22  2  0
 22 23  1  0
 19 24  1  0
 23 24  2  0
M  END
