x0072-x1402
     RDKit          3D

 30 33  0  0  0  0  0  0  0  0999 V2000
    7.2610   -3.4470   19.7770 C   0  0  0  0  0  0  0  0  0  0  0  0
    5.2270   -4.6600   19.9210 O   0  0  0  0  0  0  0  0  0  0  0  0
    0.7000   -1.4750   26.1500 Cl  0  0  0  0  0  0  0  0  0  0  0  0
    6.3350   -4.4290   20.4370 C   0  0  0  0  0  0  0  0  0  0  0  0
    4.5140   -6.2390   25.8880 O   0  0  0  0  0  0  0  0  0  0  0  0
    6.5720   -4.9320   26.8320 N   0  0  0  0  0  0  0  0  0  0  0  0
    5.3330   -5.0540   25.6940 S   0  0  1  0  0  0  0  0  0  0  0  0
    8.0430   -4.6980   26.3780 S   0  0  0  0  0  0  0  0  0  0  0  0
    8.8430   -5.8560   26.0260 O   0  0  0  0  0  0  0  0  0  0  0  0
    8.8100   -3.7100   27.1010 O   0  0  0  0  0  0  0  0  0  0  0  0
    7.8950   -3.9760   24.8390 N   0  0  0  0  0  0  0  0  0  0  0  0
    9.0570   -3.3390   24.4290 C   0  0  0  0  0  0  0  0  0  0  0  0
    9.0230   -2.0800   23.6060 C   0  0  0  0  0  0  0  0  0  0  0  0
    6.6990   -5.1150   21.5840 N   0  0  0  0  0  0  0  0  0  0  0  0
    7.6250   -4.4430   22.4930 C   0  0  0  0  0  0  0  0  0  0  0  0
    7.4280   -4.8610   23.9460 C   0  0  2  0  0  0  0  0  0  0  0  0
    5.9360   -4.9790   24.1350 N   0  0  0  0  0  0  0  0  0  0  0  0
    5.1740   -5.8670   23.1800 C   0  0  0  0  0  0  0  0  0  0  0  0
    5.9980   -6.2780   22.1370 C   0  0  0  0  0  0  0  0  0  0  0  0
    2.5440   -3.8770   25.7850 S   0  0  0  0  0  0  0  0  0  0  0  0
    4.2680   -3.6490   25.9070 C   0  0  0  0  0  0  0  0  0  0  0  0
    4.5320   -2.3150   26.1630 C   0  0  0  0  0  0  0  0  0  0  0  0
    3.4580   -1.5400   26.2550 C   0  0  0  0  0  0  0  0  0  0  0  0
    2.2530   -2.2100   26.0790 C   0  0  0  0  0  0  0  0  0  0  0  0
   10.4260   -1.4580   23.4150 C   0  0  0  0  0  0  0  0  0  0  0  0
   11.3560   -2.0620   22.4350 C   0  0  0  0  0  0  0  0  0  0  0  0
   12.6630   -1.3950   22.3180 C   0  0  0  0  0  0  0  0  0  0  0  0
   12.9680   -0.2790   23.0850 C   0  0  0  0  0  0  0  0  0  0  0  0
   12.0590    0.2470   23.9910 C   0  0  0  0  0  0  0  0  0  0  0  0
   10.7920   -0.3300   24.1670 C   0  0  0  0  0  0  0  0  0  0  0  0
  1  4  1  0
  2  4  2  0
  5  7  2  0
  6  7  2  0
  8  6  1  0
  8  9  2  0
  8 10  2  0
  8 11  1  0
 11 12  1  0
 12 13  1  0
  4 14  1  0
 14 15  1  0
 11 16  1  0
 16 15  1  6
  7 17  1  0
 16 17  1  0
 17 18  1  0
 14 19  1  0
 18 19  1  0
  7 21  1  1
 20 21  1  0
 21 22  2  0
 22 23  1  0
  3 24  1  0
 20 24  1  0
 23 24  2  0
 13 25  1  0
 25 26  2  0
 26 27  1  0
 27 28  2  0
 28 29  1  0
 25 30  1  0
 29 30  2  0
M  END
