x0104-x1374
     RDKit          3D

 16 17  0  0  0  0  0  0  0  0999 V2000
    9.0370    6.5240   22.6320 C   0  0  0  0  0  0  0  0  0  0  0  0
   10.2940    6.1920   23.3950 C   0  0  0  0  0  0  0  0  0  0  0  0
   10.3840    6.3450   24.6070 O   0  0  0  0  0  0  0  0  0  0  0  0
   11.3020    5.7060   22.5920 N   0  0  0  0  0  0  0  0  0  0  0  0
   12.4740    5.0550   23.1790 C   0  0  0  0  0  0  0  0  0  0  0  0
   12.6990    3.6530   22.6060 C   0  0  0  0  0  0  0  0  0  0  0  0
   13.5730   -1.9480   22.2180 F   0  0  0  0  0  0  0  0  0  0  0  0
   11.7820    2.5870   23.1420 C   0  0  0  0  0  0  0  0  0  0  0  0
   10.5900    2.8270   23.7820 C   0  0  0  0  0  0  0  0  0  0  0  0
   10.0160    1.6330   24.1220 N   0  0  0  0  0  0  0  0  0  0  0  0
   10.8040    0.5930   23.7120 C   0  0  0  0  0  0  0  0  0  0  0  0
   11.9280    1.1500   23.1000 C   0  0  0  0  0  0  0  0  0  0  0  0
   10.5880   -0.7870   23.8440 C   0  0  0  0  0  0  0  0  0  0  0  0
   11.5540   -1.6400   23.3210 C   0  0  0  0  0  0  0  0  0  0  0  0
   12.6760   -1.1120   22.7130 C   0  0  0  0  0  0  0  0  0  0  0  0
   12.8920    0.2520   22.6020 C   0  0  0  0  0  0  0  0  0  0  0  0
  1  2  1  0
  2  3  2  0
  2  4  1  0
  4  5  1  0
  5  6  1  0
  6  8  1  0
  8  9  2  0
  9 10  1  0
 10 11  1  0
  8 12  1  0
 11 12  2  0
 11 13  1  0
 13 14  2  0
  7 15  1  0
 14 15  1  0
 12 16  1  0
 15 16  2  0
M  END
