x0107-x2649
     RDKit          3D

 19 21  0  0  0  0  0  0  0  0999 V2000
    7.1820   -0.7860   20.7350 N   0  0  0  0  0  0  0  0  0  0  0  0
    7.9450   -1.4840   24.0610 C   0  0  0  0  0  0  0  0  0  0  0  0
    8.1920    0.7570   22.8860 N   0  0  0  0  0  0  0  0  0  0  0  0
   13.1460   -2.4590   21.1560 Cl  0  0  0  0  0  0  0  0  0  0  0  0
    8.6050   -0.6330   22.9970 C   0  0  2  0  0  0  0  0  0  0  0  0
    7.7580   -0.1210   21.8780 C   0  0  0  0  0  0  0  0  0  0  0  0
    4.9470    1.0320   21.7500 C   0  0  0  0  0  0  0  0  0  0  0  0
    6.2420    0.6280   17.4860 N   0  0  0  0  0  0  0  0  0  0  0  0
    5.1660    1.5430   17.8090 C   0  0  0  0  0  0  0  0  0  0  0  0
    4.6780    1.7200   19.2250 C   0  0  0  0  0  0  0  0  0  0  0  0
    5.3810    0.8940   20.2840 C   0  0  0  0  0  0  0  0  0  0  0  0
    6.4130    0.0450   19.8360 C   0  0  0  0  0  0  0  0  0  0  0  0
    6.8550   -0.1250   18.5640 C   0  0  0  0  0  0  0  0  0  0  0  0
   10.8080    0.2810   23.8290 C   0  0  0  0  0  0  0  0  0  0  0  0
   12.1340    0.2860   23.7940 C   0  0  0  0  0  0  0  0  0  0  0  0
   12.9550   -0.5140   23.0080 C   0  0  0  0  0  0  0  0  0  0  0  0
   12.2910   -1.4180   22.1750 C   0  0  0  0  0  0  0  0  0  0  0  0
   10.8380   -1.5210   22.1210 C   0  0  0  0  0  0  0  0  0  0  0  0
   10.0790   -0.6390   22.9740 C   0  0  0  0  0  0  0  0  0  0  0  0
  5  2  1  1
  3  5  1  0
  1  6  1  0
  3  6  2  0
  5  6  1  0
  8  9  2  0
  9 10  1  0
  7 11  1  0
 10 11  2  0
  1 12  1  0
 11 12  1  0
  8 13  1  0
 12 13  2  0
 14 15  2  0
 15 16  1  0
  4 17  1  0
 16 17  2  0
 17 18  1  0
  5 19  1  0
 14 19  1  0
 18 19  2  0
M  END
