x0107-x0749
     RDKit          3D

 30 33  0  0  0  0  0  0  0  0999 V2000
    7.9280   -3.4370   20.0870 C   0  0  0  0  0  0  0  0  0  0  0  0
    5.6290   -4.3150   19.8250 O   0  0  0  0  0  0  0  0  0  0  0  0
    6.6460   -4.1000   20.5390 C   0  0  0  0  0  0  0  0  0  0  0  0
    9.6960   -1.2440   21.9100 C   0  0  0  0  0  0  0  0  0  0  0  0
    8.7150   -0.3060   21.3220 C   0  0  0  0  0  0  0  0  0  0  0  0
    8.8940    0.9200   21.3750 O   0  0  0  0  0  0  0  0  0  0  0  0
    7.5290   -0.8970   20.6810 N   0  0  0  0  0  0  0  0  0  0  0  0
    5.2530    0.6720   22.0900 C   0  0  0  0  0  0  0  0  0  0  0  0
    7.5200   -2.0120   19.7100 C   0  0  0  0  0  0  0  0  0  0  0  0
    6.6580   -4.4430   21.8650 N   0  0  0  0  0  0  0  0  0  0  0  0
    7.8120   -3.8260   22.5270 C   0  0  0  0  0  0  0  0  0  0  0  0
    8.0060   -4.3030   23.8010 C   0  0  1  0  0  0  0  0  0  0  0  0
    7.9250   -5.6530   23.9190 C   0  0  0  0  0  0  0  0  0  0  0  0
    7.4580   -6.2510   22.7490 C   0  0  0  0  0  0  0  0  0  0  0  0
    6.3390   -5.7090   22.2340 C   0  0  0  0  0  0  0  0  0  0  0  0
    9.8450   -2.6400   23.6890 N   0  0  0  0  0  0  0  0  0  0  0  0
    9.3490   -3.7840   24.2010 C   0  0  0  0  0  0  0  0  0  0  0  0
   10.3790   -4.6070   25.3370 S   0  0  0  0  0  0  0  0  0  0  0  0
   11.5120   -3.5340   25.1640 C   0  0  0  0  0  0  0  0  0  0  0  0
   11.0200   -2.5560   24.2390 C   0  0  0  0  0  0  0  0  0  0  0  0
   11.8930   -1.4430   23.9150 C   0  0  0  0  0  0  0  0  0  0  0  0
   13.1410   -1.3510   24.4740 C   0  0  0  0  0  0  0  0  0  0  0  0
   13.6110   -2.3230   25.3750 C   0  0  0  0  0  0  0  0  0  0  0  0
   12.7880   -3.3950   25.7030 C   0  0  0  0  0  0  0  0  0  0  0  0
    6.6610   -0.0420   20.0060 C   0  0  0  0  0  0  0  0  0  0  0  0
    5.6250    0.6810   20.5600 C   0  0  0  0  0  0  0  0  0  0  0  0
    4.9190    1.4280   19.6340 C   0  0  0  0  0  0  0  0  0  0  0  0
    5.1820    1.4830   18.2760 C   0  0  0  0  0  0  0  0  0  0  0  0
    6.1720    0.8060   17.6940 N   0  0  0  0  0  0  0  0  0  0  0  0
    6.9140    0.0240   18.6510 C   0  0  0  0  0  0  0  0  0  0  0  0
  1  3  1  0
  2  3  2  0
  4  5  1  0
  5  6  2  0
  5  7  1  0
  1  9  1  0
  7  9  1  0
  3 10  1  0
 10 11  1  0
 11 12  1  0
 12 13  1  0
 13 14  1  0
 10 15  1  0
 14 15  1  0
 12 17  1  6
 16 17  2  0
 17 18  1  0
 18 19  1  0
 16 20  1  0
 19 20  2  0
 20 21  1  0
 21 22  2  0
 22 23  1  0
 19 24  1  0
 23 24  2  0
  7 25  1  0
  8 26  1  0
 25 26  2  0
 26 27  1  0
 27 28  2  0
 28 29  1  0
 25 30  1  0
 29 30  2  0
M  END
