x0107-x1402
     RDKit          3D

 30 32  0  0  0  0  0  0  0  0999 V2000
    7.8280   -3.8130   20.6600 C   0  0  0  0  0  0  0  0  0  0  0  0
    5.6250   -4.5940   19.9830 O   0  0  0  0  0  0  0  0  0  0  0  0
    0.7390   -1.2800   26.0240 Cl  0  0  0  0  0  0  0  0  0  0  0  0
    6.6190   -4.6750   20.7740 C   0  0  0  0  0  0  0  0  0  0  0  0
    3.9650   -6.4340   26.0710 O   0  0  0  0  0  0  0  0  0  0  0  0
    6.0200   -5.2470   26.8450 O   0  0  0  0  0  0  0  0  0  0  0  0
    4.9300   -5.3760   25.9050 S   0  0  0  0  0  0  0  0  0  0  0  0
    9.7790   -1.1140   22.3240 C   0  0  0  0  0  0  0  0  0  0  0  0
    8.9060   -0.3120   21.4190 C   0  0  0  0  0  0  0  0  0  0  0  0
    9.0640    1.1140   21.2550 O   0  0  0  0  0  0  0  0  0  0  0  0
    7.9550   -1.0760   20.7280 N   0  0  0  0  0  0  0  0  0  0  0  0
    5.5950    0.3920   22.0260 C   0  0  0  0  0  0  0  0  0  0  0  0
    7.4900   -2.3900   21.2660 C   0  0  0  0  0  0  0  0  0  0  0  0
    6.6740   -5.5730   21.8230 N   0  0  0  0  0  0  0  0  0  0  0  0
    7.4370   -5.1000   22.9720 C   0  0  0  0  0  0  0  0  0  0  0  0
    6.5930   -4.5120   23.9070 C   0  0  0  0  0  0  0  0  0  0  0  0
    5.5840   -5.5090   24.3480 N   0  0  0  0  0  0  0  0  0  0  0  0
    4.7270   -5.9760   23.2470 C   0  0  0  0  0  0  0  0  0  0  0  0
    5.5400   -6.4000   22.2020 C   0  0  0  0  0  0  0  0  0  0  0  0
    2.2780   -3.8380   25.8890 S   0  0  0  0  0  0  0  0  0  0  0  0
    4.0110   -3.8680   25.9640 C   0  0  0  0  0  0  0  0  0  0  0  0
    4.5450   -2.5840   26.0760 C   0  0  0  0  0  0  0  0  0  0  0  0
    3.5910   -1.6100   26.1060 C   0  0  0  0  0  0  0  0  0  0  0  0
    2.2280   -2.1320   26.0140 C   0  0  0  0  0  0  0  0  0  0  0  0
    6.9770   -0.3140   19.9800 C   0  0  0  0  0  0  0  0  0  0  0  0
    5.8920    0.3670   20.5560 C   0  0  0  0  0  0  0  0  0  0  0  0
    4.9990    1.0850   19.7400 C   0  0  0  0  0  0  0  0  0  0  0  0
    5.2010    1.1150   18.3510 C   0  0  0  0  0  0  0  0  0  0  0  0
    6.3280    0.4000   17.7770 N   0  0  0  0  0  0  0  0  0  0  0  0
    7.1320   -0.2620   18.6260 C   0  0  0  0  0  0  0  0  0  0  0  0
  1  4  1  0
  2  4  2  0
  5  7  2  0
  6  7  2  0
  8  9  1  0
  9 10  2  0
  9 11  1  0
  1 13  1  0
 11 13  1  0
  4 14  1  0
 14 15  1  0
 15 16  1  0
  7 17  1  0
 16 17  1  0
 17 18  1  0
 14 19  1  0
 18 19  1  0
  7 21  1  0
 20 21  1  0
 21 22  2  0
 22 23  1  0
  3 24  1  0
 20 24  1  0
 23 24  2  0
 11 25  1  0
 12 26  1  0
 25 26  2  0
 26 27  1  0
 27 28  2  0
 28 29  1  0
 25 30  1  0
 29 30  2  0
M  END
