x0104-x0991
     RDKit          3D

 25 27  0  0  0  0  0  0  0  0999 V2000
    9.6050    7.0910   22.2950 C   0  0  0  0  0  0  0  0  0  0  0  0
   10.8900    6.8900   22.8470 C   0  0  0  0  0  0  0  0  0  0  0  0
   11.3060    7.5650   23.7760 O   0  0  0  0  0  0  0  0  0  0  0  0
   11.5780    5.8790   22.2350 N   0  0  0  0  0  0  0  0  0  0  0  0
   12.5430    5.4130   22.7080 C   0  0  0  0  0  0  0  0  0  0  0  0
   12.7790    4.0240   22.2120 C   0  0  0  0  0  0  0  0  0  0  0  0
   13.2110   -1.7350   22.1330 N   0  0  0  0  0  0  0  0  0  0  0  0
    6.8030   -5.0600   22.2630 N   0  0  0  0  0  0  0  0  0  0  0  0
    8.6180   -1.8780   21.4090 C   0  0  0  0  0  0  0  0  0  0  0  0
    7.3410   -2.6110   21.8960 C   0  0  0  0  0  0  0  0  0  0  0  0
    8.0960   -4.0260   23.8820 N   0  0  0  0  0  0  0  0  0  0  0  0
    7.4250   -3.9310   22.6990 C   0  0  0  0  0  0  0  0  0  0  0  0
   12.3600   -2.8190   22.7000 C   0  0  0  0  0  0  0  0  0  0  0  0
   11.2820   -3.2190   23.4590 C   0  0  0  0  0  0  0  0  0  0  0  0
   10.0750   -3.2250   22.7820 C   0  0  0  0  0  0  0  0  0  0  0  0
    9.9560   -2.6170   21.5870 C   0  0  0  0  0  0  0  0  0  0  0  0
   11.9650    2.9830   22.9380 C   0  0  0  0  0  0  0  0  0  0  0  0
   10.8880    3.2040   23.7730 C   0  0  0  0  0  0  0  0  0  0  0  0
   10.3680    2.0140   24.2400 N   0  0  0  0  0  0  0  0  0  0  0  0
   11.0600    0.9440   23.7100 C   0  0  0  0  0  0  0  0  0  0  0  0
   12.0830    1.5400   22.9350 C   0  0  0  0  0  0  0  0  0  0  0  0
   10.8960   -0.4330   23.8450 C   0  0  0  0  0  0  0  0  0  0  0  0
   11.5910   -1.5650   23.3020 C   0  0  0  0  0  0  0  0  0  0  0  0
   12.5470   -0.7110   22.6540 C   0  0  0  0  0  0  0  0  0  0  0  0
   12.8780    0.6040   22.4210 C   0  0  0  0  0  0  0  0  0  0  0  0
  1  2  1  0
  2  3  2  0
  2  4  1  0
  4  5  1  0
  5  6  1  0
  9 10  1  0
  8 12  2  3
 10 12  1  0
 11 12  1  0
  7 13  1  0
 13 14  1  0
 14 15  1  0
  9 16  1  0
 15 16  1  0
  6 17  1  0
 17 18  2  0
 18 19  1  0
 19 20  1  0
 17 21  1  0
 20 21  1  0
 20 22  2  0
 13 23  2  0
 22 23  1  0
  7 24  2  0
 23 24  1  0
 21 25  2  0
 24 25  1  0
M  END
