x0107-x1358
     RDKit          3D

 32 34  0  0  0  0  0  0  0  0999 V2000
    6.8770   -2.4910   25.8660 N   0  0  0  0  0  0  0  0  0  0  0  0
    5.3790   -0.2670   25.4270 O   0  0  0  0  0  0  0  0  0  0  0  0
    4.7520   -3.4190   25.8210 O   0  0  0  0  0  0  0  0  0  0  0  0
    5.2080   -4.4500   19.8070 O   0  0  0  0  0  0  0  0  0  0  0  0
    5.8130   -3.1410   25.2760 C   0  0  0  0  0  0  0  0  0  0  0  0
    6.3110   -4.0460   20.1550 C   0  0  0  0  0  0  0  0  0  0  0  0
    7.1620   -3.3260   19.1030 C   0  0  0  0  0  0  0  0  0  0  0  0
    9.9190   -0.3630   22.3610 C   0  0  0  0  0  0  0  0  0  0  0  0
    8.9070    0.4140   21.5430 C   0  0  0  0  0  0  0  0  0  0  0  0
    9.1270    1.6010   21.2670 O   0  0  0  0  0  0  0  0  0  0  0  0
    7.7850   -0.2950   21.1120 N   0  0  0  0  0  0  0  0  0  0  0  0
    5.3290    1.1590   21.9950 C   0  0  0  0  0  0  0  0  0  0  0  0
    7.3450   -1.8960   19.4390 C   0  0  0  0  0  0  0  0  0  0  0  0
    7.8820   -1.6880   20.8370 C   0  0  0  0  0  0  0  0  0  0  0  0
    6.0640   -0.3560   26.6150 C   0  0  0  0  0  0  0  0  0  0  0  0
    6.8480   -1.4970   26.8690 C   0  0  0  0  0  0  0  0  0  0  0  0
    7.5420   -1.5840   28.0750 C   0  0  0  0  0  0  0  0  0  0  0  0
    7.4550   -0.5490   29.0140 C   0  0  0  0  0  0  0  0  0  0  0  0
    6.6710    0.5780   28.7500 C   0  0  0  0  0  0  0  0  0  0  0  0
    5.9730    0.6790   27.5490 C   0  0  0  0  0  0  0  0  0  0  0  0
    6.7520   -4.2880   21.4440 N   0  0  0  0  0  0  0  0  0  0  0  0
    7.9120   -3.7400   22.1500 C   0  0  0  0  0  0  0  0  0  0  0  0
    7.4530   -3.0160   23.3910 C   0  0  0  0  0  0  0  0  0  0  0  0
    6.0620   -3.5130   23.8170 C   0  0  0  0  0  0  0  0  0  0  0  0
    5.8800   -5.0290   23.5710 C   0  0  0  0  0  0  0  0  0  0  0  0
    6.1960   -5.4330   22.1340 C   0  0  0  0  0  0  0  0  0  0  0  0
    6.8650    0.2650   20.1780 C   0  0  0  0  0  0  0  0  0  0  0  0
    5.7140    0.9460   20.5650 C   0  0  0  0  0  0  0  0  0  0  0  0
    4.8690    1.4540   19.5630 C   0  0  0  0  0  0  0  0  0  0  0  0
    5.1940    1.2650   18.2360 C   0  0  0  0  0  0  0  0  0  0  0  0
    6.2860    0.6090   17.8350 N   0  0  0  0  0  0  0  0  0  0  0  0
    7.0810    0.1300   18.8030 C   0  0  0  0  0  0  0  0  0  0  0  0
  1  5  1  0
  3  5  2  0
  4  6  2  0
  6  7  1  0
  8  9  1  0
  9 10  2  0
  9 11  1  0
  7 13  1  0
 11 14  1  0
 13 14  1  0
  2 15  1  0
  1 16  1  0
 15 16  2  0
 16 17  1  0
 17 18  2  0
 18 19  1  0
 15 20  1  0
 19 20  2  0
  6 21  1  0
 21 22  1  0
 22 23  1  0
  5 24  1  0
 23 24  1  0
 24 25  1  0
 21 26  1  0
 25 26  1  0
 11 27  1  0
 12 28  1  0
 27 28  2  0
 28 29  1  0
 29 30  2  0
 30 31  1  0
 27 32  1  0
 31 32  2  0
M  END
