x0104-x0831
     RDKit          3D

 27 29  0  0  0  0  0  0  0  0999 V2000
    9.0170    6.5250   22.6080 C   0  0  0  0  0  0  0  0  0  0  0  0
   10.2550    6.2000   23.4020 C   0  0  0  0  0  0  0  0  0  0  0  0
   10.3190    6.3700   24.6160 O   0  0  0  0  0  0  0  0  0  0  0  0
   11.2800    5.6990   22.6380 N   0  0  0  0  0  0  0  0  0  0  0  0
   12.4220    5.0500   23.2770 C   0  0  0  0  0  0  0  0  0  0  0  0
   12.6820    3.6530   22.7080 C   0  0  0  0  0  0  0  0  0  0  0  0
   13.6420   -1.8700   22.0380 F   0  0  0  0  0  0  0  0  0  0  0  0
    5.4070   -4.3110   19.7700 O   0  0  0  0  0  0  0  0  0  0  0  0
    9.4100   -1.6260   24.1670 C   0  0  0  0  0  0  0  0  0  0  0  0
    5.7950   -3.1600   19.9960 C   0  0  0  0  0  0  0  0  0  0  0  0
    5.9920   -2.1830   18.8560 C   0  0  0  0  0  0  0  0  0  0  0  0
   11.7560    2.5610   23.1810 C   0  0  0  0  0  0  0  0  0  0  0  0
   10.5420    2.7430   23.8110 C   0  0  0  0  0  0  0  0  0  0  0  0
    9.9840    1.5180   24.0550 N   0  0  0  0  0  0  0  0  0  0  0  0
   10.8000    0.5110   23.5980 C   0  0  0  0  0  0  0  0  0  0  0  0
   11.9270    1.1290   23.0610 C   0  0  0  0  0  0  0  0  0  0  0  0
   10.6070   -0.8970   23.6220 C   0  0  0  0  0  0  0  0  0  0  0  0
   11.6170   -1.6670   23.0730 C   0  0  0  0  0  0  0  0  0  0  0  0
   12.7300   -1.0800   22.5530 C   0  0  0  0  0  0  0  0  0  0  0  0
   12.9230    0.2870   22.5410 C   0  0  0  0  0  0  0  0  0  0  0  0
    6.0890   -2.6840   21.2680 N   0  0  0  0  0  0  0  0  0  0  0  0
    6.2360   -1.2510   21.4420 C   0  0  0  0  0  0  0  0  0  0  0  0
    7.6080   -0.7050   21.0690 C   0  0  0  0  0  0  0  0  0  0  0  0
    8.7040   -1.4180   21.8470 C   0  0  0  0  0  0  0  0  0  0  0  0
    8.2620   -1.6590   23.2330 N   0  0  0  0  0  0  0  0  0  0  0  0
    7.4650   -2.9060   23.4180 C   0  0  0  0  0  0  0  0  0  0  0  0
    6.8980   -3.5700   22.1350 C   0  0  0  0  0  0  0  0  0  0  0  0
  1  2  1  0
  2  3  2  0
  2  4  1  0
  4  5  1  0
  5  6  1  0
  8 10  2  0
 10 11  1  0
  6 12  1  0
 12 13  2  0
 13 14  1  0
 14 15  1  0
 12 16  1  0
 15 16  2  0
  9 17  1  0
 15 17  1  0
 17 18  2  0
  7 19  1  0
 18 19  1  0
 16 20  1  0
 19 20  2  0
 10 21  1  0
 21 22  1  0
 22 23  1  0
 23 24  1  0
  9 25  1  0
 24 25  1  0
 25 26  1  0
 21 27  1  0
 26 27  1  0
M  END
