x0104-x0387
     RDKit          3D

 24 26  0  0  0  0  0  0  0  0999 V2000
    9.2760    6.4620   22.7090 C   0  0  0  0  0  0  0  0  0  0  0  0
   10.4110    6.0550   23.4530 C   0  0  0  0  0  0  0  0  0  0  0  0
   10.5040    6.2580   24.6580 O   0  0  0  0  0  0  0  0  0  0  0  0
   11.3580    5.4240   22.6750 N   0  0  0  0  0  0  0  0  0  0  0  0
   12.3680    5.0280   23.1320 C   0  0  0  0  0  0  0  0  0  0  0  0
   12.6860    3.6510   22.6330 C   0  0  0  0  0  0  0  0  0  0  0  0
   13.5500   -2.0270   22.0070 F   0  0  0  0  0  0  0  0  0  0  0  0
    9.1310   -4.2770   27.7010 O   0  0  0  0  0  0  0  0  0  0  0  0
    9.5050   -1.5830   24.3360 C   0  0  0  0  0  0  0  0  0  0  0  0
   11.7770    2.5750   23.1630 C   0  0  0  0  0  0  0  0  0  0  0  0
   10.4900    2.8310   23.9110 C   0  0  0  0  0  0  0  0  0  0  0  0
    9.9340    1.6250   24.2050 N   0  0  0  0  0  0  0  0  0  0  0  0
   10.7710    0.5260   23.6970 C   0  0  0  0  0  0  0  0  0  0  0  0
   11.8990    1.0280   23.0730 C   0  0  0  0  0  0  0  0  0  0  0  0
   10.5910   -1.0080   23.7440 C   0  0  0  0  0  0  0  0  0  0  0  0
   11.5370   -1.7670   23.1720 C   0  0  0  0  0  0  0  0  0  0  0  0
   12.6630   -1.2270   22.5580 C   0  0  0  0  0  0  0  0  0  0  0  0
   12.8470    0.1500   22.5210 C   0  0  0  0  0  0  0  0  0  0  0  0
    9.2860   -4.9430   26.4580 C   0  0  0  0  0  0  0  0  0  0  0  0
    8.1770   -4.5510   25.5950 C   0  0  0  0  0  0  0  0  0  0  0  0
    8.2320   -3.2590   25.0740 C   0  0  0  0  0  0  0  0  0  0  0  0
    9.5440   -2.8650   24.5290 N   0  0  0  0  0  0  0  0  0  0  0  0
   10.5480   -3.1890   25.3830 C   0  0  0  0  0  0  0  0  0  0  0  0
   10.5000   -4.5310   25.8620 C   0  0  0  0  0  0  0  0  0  0  0  0
  1  2  1  0
  2  3  2  0
  2  4  1  0
  4  5  1  0
  5  6  1  0
  6 10  1  0
 10 11  2  0
 11 12  1  0
 12 13  1  0
 10 14  1  0
 13 14  2  0
  9 15  1  0
 13 15  1  0
 15 16  2  0
  7 17  1  0
 16 17  1  0
 14 18  1  0
 17 18  2  0
  8 19  1  0
 19 20  1  0
 20 21  1  0
  9 22  1  0
 21 22  1  0
 22 23  1  0
 19 24  1  0
 23 24  1  0
M  END
