x0104-x1119
     RDKit          3D

 39 42  0  0  0  0  0  0  0  0999 V2000
    9.7540    6.3280   22.6700 C   0  0  0  0  0  0  0  0  0  0  0  0
   10.9330    5.9130   23.3450 C   0  0  0  0  0  0  0  0  0  0  0  0
   11.0070    6.0390   24.5620 O   0  0  0  0  0  0  0  0  0  0  0  0
   11.9460    5.3750   22.5340 N   0  0  0  0  0  0  0  0  0  0  0  0
   12.7540    4.6450   23.0090 C   0  0  1  0  0  0  0  0  0  0  0  0
   12.7330    3.3460   22.3850 C   0  0  0  0  0  0  0  0  0  0  0  0
   13.4760   -2.1970   22.1800 F   0  0  0  0  0  0  0  0  0  0  0  0
   20.9530    7.4090   23.1440 N   0  0  0  0  0  0  0  0  0  0  0  0
   22.6360    1.7850   25.6120 O   0  0  0  0  0  0  0  0  0  0  0  0
   24.0210    3.2670   27.0610 N   0  0  0  0  0  0  0  0  0  0  0  0
   24.9170    2.5260   24.8350 O   0  0  0  0  0  0  0  0  0  0  0  0
   23.6670    2.7910   25.5030 S   0  0  0  0  0  0  0  0  0  0  0  0
   14.2120    5.1510   22.9870 C   0  0  0  0  0  0  0  0  0  0  0  0
   15.6280    4.5610   22.5450 C   0  0  0  0  0  0  0  0  0  0  0  0
   16.8930    4.5540   23.5740 C   0  0  0  0  0  0  0  0  0  0  0  0
   17.9610    5.4970   23.4050 C   0  0  0  0  0  0  0  0  0  0  0  0
   19.2610    5.8690   23.7720 C   0  0  0  0  0  0  0  0  0  0  0  0
   19.6370    7.2260   23.5780 C   0  0  0  0  0  0  0  0  0  0  0  0
   11.8220    2.3780   23.0590 C   0  0  0  0  0  0  0  0  0  0  0  0
   10.6670    2.6350   23.8020 C   0  0  0  0  0  0  0  0  0  0  0  0
   10.0670    1.4940   24.2490 N   0  0  0  0  0  0  0  0  0  0  0  0
   10.8060    0.4160   23.8220 C   0  0  0  0  0  0  0  0  0  0  0  0
   11.9390    0.9520   23.0660 C   0  0  0  0  0  0  0  0  0  0  0  0
   10.6130   -0.9520   24.0060 C   0  0  0  0  0  0  0  0  0  0  0  0
   11.5340   -1.8480   23.4390 C   0  0  0  0  0  0  0  0  0  0  0  0
   12.6190   -1.3420   22.7180 C   0  0  0  0  0  0  0  0  0  0  0  0
   12.8400    0.0220   22.5340 C   0  0  0  0  0  0  0  0  0  0  0  0
   21.6920    6.3470   23.6200 C   0  0  0  0  0  0  0  0  0  0  0  0
   22.7100    5.7560   22.8930 C   0  0  0  0  0  0  0  0  0  0  0  0
   23.3440    4.6640   23.4710 C   0  0  0  0  0  0  0  0  0  0  0  0
   22.9470    4.2000   24.7320 C   0  0  0  0  0  0  0  0  0  0  0  0
   21.9480    4.8210   25.4320 C   0  0  0  0  0  0  0  0  0  0  0  0
   21.3180    5.9000   24.8770 C   0  0  0  0  0  0  0  0  0  0  0  0
   25.0280    4.6900   28.6160 N   0  0  0  0  0  0  0  0  0  0  0  0
   25.8670    5.7180   28.8820 C   0  0  0  0  0  0  0  0  0  0  0  0
   26.5930    6.4250   27.9120 C   0  0  0  0  0  0  0  0  0  0  0  0
   26.4780    6.0850   26.5590 C   0  0  0  0  0  0  0  0  0  0  0  0
   25.6320    5.0360   26.2080 C   0  0  0  0  0  0  0  0  0  0  0  0
   24.8900    4.3330   27.3310 C   0  0  0  0  0  0  0  0  0  0  0  0
  1  2  1  0
  2  3  2  0
  2  4  1  0
  4  5  1  0
  5  6  1  6
  9 12  2  0
 12 10  1  0
 11 12  2  0
  5 13  1  0
 13 14  1  0
 14 15  1  0
 15 16  1  0
 16 17  1  0
  8 18  1  0
 17 18  1  0
  6 19  1  0
 19 20  2  0
 20 21  1  0
 21 22  1  0
 19 23  1  0
 22 23  2  0
 22 24  1  0
 24 25  2  0
  7 26  1  0
 25 26  1  0
 23 27  1  0
 26 27  2  0
  8 28  1  0
 28 29  2  0
 29 30  1  0
 12 31  1  0
 30 31  2  0
 31 32  1  0
 28 33  1  0
 32 33  2  0
 34 35  2  0
 35 36  1  0
 36 37  2  0
 37 38  1  0
 10 39  1  0
 34 39  1  0
 38 39  2  0
M  END
