x0107-x0734
     RDKit          3D

 31 33  0  0  0  0  0  0  0  0999 V2000
    5.0800   -4.8310   26.4290 N   0  0  0  0  0  0  0  0  0  0  0  0
    4.4020   -5.5940   25.7250 O   0  0  0  0  0  0  0  0  0  0  0  0
    4.7030   -3.7210   26.8190 O   0  0  0  0  0  0  0  0  0  0  0  0
    5.0700   -4.3820   19.7590 O   0  0  0  0  0  0  0  0  0  0  0  0
    6.1800   -3.9980   20.0770 C   0  0  0  0  0  0  0  0  0  0  0  0
    7.0350   -3.2730   19.0660 C   0  0  0  0  0  0  0  0  0  0  0  0
    9.8770   -0.3610   22.4350 C   0  0  0  0  0  0  0  0  0  0  0  0
    8.9040    0.3820   21.5740 C   0  0  0  0  0  0  0  0  0  0  0  0
    9.1440    1.5630   21.2810 O   0  0  0  0  0  0  0  0  0  0  0  0
    7.7850   -0.3290   21.1200 N   0  0  0  0  0  0  0  0  0  0  0  0
    5.2850    1.1100   22.0740 C   0  0  0  0  0  0  0  0  0  0  0  0
    7.3050   -1.8660   19.5230 C   0  0  0  0  0  0  0  0  0  0  0  0
    7.8640   -1.7330   20.7950 C   0  0  0  0  0  0  0  0  0  0  0  0
    6.5030   -5.0560   26.4150 C   0  0  0  0  0  0  0  0  0  0  0  0
    7.2460   -4.8200   25.2680 C   0  0  0  0  0  0  0  0  0  0  0  0
    8.6230   -5.0340   25.2140 C   0  0  0  0  0  0  0  0  0  0  0  0
    9.3590   -5.4970   26.2760 C   0  0  0  0  0  0  0  0  0  0  0  0
    8.5910   -5.7590   27.5500 C   0  0  0  0  0  0  0  0  0  0  0  0
    7.0970   -5.5200   27.5940 C   0  0  0  0  0  0  0  0  0  0  0  0
    6.6970   -4.2620   21.3250 N   0  0  0  0  0  0  0  0  0  0  0  0
    6.4500   -5.4400   21.8760 C   0  0  0  0  0  0  0  0  0  0  0  0
    5.9120   -5.3470   23.2940 C   0  0  0  0  0  0  0  0  0  0  0  0
    6.7010   -4.3590   24.0770 N   0  0  0  0  0  0  0  0  0  0  0  0
    7.3570   -3.3750   23.4320 C   0  0  0  0  0  0  0  0  0  0  0  0
    7.6190   -3.4000   22.0870 C   0  0  0  0  0  0  0  0  0  0  0  0
    6.8680    0.2400   20.1260 C   0  0  0  0  0  0  0  0  0  0  0  0
    5.6210    0.9560   20.6200 C   0  0  0  0  0  0  0  0  0  0  0  0
    4.7420    1.4930   19.6780 C   0  0  0  0  0  0  0  0  0  0  0  0
    5.1840    1.2700   18.2140 C   0  0  0  0  0  0  0  0  0  0  0  0
    6.2850    0.6290   17.8190 N   0  0  0  0  0  0  0  0  0  0  0  0
    7.0810    0.1390   18.7640 C   0  0  0  0  0  0  0  0  0  0  0  0
  1  2  2  0
  1  3  1  0
  4  5  2  0
  5  6  1  0
  7  8  1  0
  8  9  2  0
  8 10  1  0
  6 12  1  0
 10 13  1  0
 12 13  1  0
  1 14  1  0
 14 15  2  0
 15 16  1  0
 16 17  2  0
 17 18  1  0
 14 19  1  0
 18 19  2  0
  5 20  1  0
 20 21  1  0
 21 22  1  0
 15 23  1  0
 22 23  1  0
 23 24  1  0
 20 25  1  0
 24 25  1  0
 10 26  1  0
 11 27  1  0
 26 27  2  0
 27 28  1  0
 28 29  2  0
 29 30  1  0
 26 31  1  0
 30 31  2  0
M  CHG  2   1   1   3  -1
M  END
