x0104-x0995
     RDKit          3D

 28 30  0  0  0  0  0  0  0  0999 V2000
    8.8360    6.3170   23.2470 C   0  0  0  0  0  0  0  0  0  0  0  0
   10.1300    5.9060   23.7120 C   0  0  0  0  0  0  0  0  0  0  0  0
   10.4430    6.1230   24.8740 O   0  0  0  0  0  0  0  0  0  0  0  0
   10.9840    5.2830   22.8110 N   0  0  0  0  0  0  0  0  0  0  0  0
   12.1080    5.0630   23.1100 C   0  0  0  0  0  0  0  0  0  0  0  0
   12.5820    3.7170   22.6460 C   0  0  0  0  0  0  0  0  0  0  0  0
   13.5200   -2.1450   22.1230 F   0  0  0  0  0  0  0  0  0  0  0  0
    3.7030    2.0820   19.9560 N   0  0  0  0  0  0  0  0  0  0  0  0
    8.1970    5.3690   22.2680 C   0  0  0  0  0  0  0  0  0  0  0  0
    6.8550    4.6710   22.6090 C   0  0  0  0  0  0  0  0  0  0  0  0
    6.1550    4.0460   21.4040 C   0  0  0  0  0  0  0  0  0  0  0  0
    4.9330    3.4060   21.5910 C   0  0  0  0  0  0  0  0  0  0  0  0
    4.1430    3.2730   20.4500 C   0  0  0  0  0  0  0  0  0  0  0  0
   11.7200    2.6060   23.1940 C   0  0  0  0  0  0  0  0  0  0  0  0
   10.5620    2.7650   23.8850 C   0  0  0  0  0  0  0  0  0  0  0  0
    9.9790    1.5810   24.2480 N   0  0  0  0  0  0  0  0  0  0  0  0
   10.8100    0.5710   23.7610 C   0  0  0  0  0  0  0  0  0  0  0  0
   11.9220    1.0630   23.0990 C   0  0  0  0  0  0  0  0  0  0  0  0
   10.5850   -0.8010   23.8990 C   0  0  0  0  0  0  0  0  0  0  0  0
   11.5630   -1.6940   23.3070 C   0  0  0  0  0  0  0  0  0  0  0  0
   12.6910   -1.2570   22.6370 C   0  0  0  0  0  0  0  0  0  0  0  0
   12.9530    0.1090   22.5010 C   0  0  0  0  0  0  0  0  0  0  0  0
    4.6580    1.2110   19.4440 C   0  0  0  0  0  0  0  0  0  0  0  0
    5.2820    1.3040   18.2270 C   0  0  0  0  0  0  0  0  0  0  0  0
    6.2180    0.4380   17.7790 N   0  0  0  0  0  0  0  0  0  0  0  0
    6.5290   -0.5860   18.6190 C   0  0  0  0  0  0  0  0  0  0  0  0
    5.9930   -0.7900   19.8210 N   0  0  0  0  0  0  0  0  0  0  0  0
    5.0730    0.1210   20.1920 C   0  0  0  0  0  0  0  0  0  0  0  0
  1  2  1  0
  2  3  2  0
  2  4  1  0
  4  5  1  0
  5  6  1  0
  1  9  1  0
  9 10  1  0
 10 11  1  0
 11 12  1  0
  8 13  1  0
 12 13  1  0
  6 14  1  0
 14 15  2  0
 15 16  1  0
 16 17  1  0
 14 18  1  0
 17 18  2  0
 17 19  1  0
 19 20  2  0
  7 21  1  0
 20 21  1  0
 18 22  1  0
 21 22  2  0
  8 23  1  0
 23 24  2  0
 24 25  1  0
 25 26  2  0
 26 27  1  0
 23 28  1  0
 27 28  2  0
M  END
