x0107-x3108
     RDKit          3D

 21 22  0  0  0  0  0  0  0  0999 V2000
    6.0130    1.7390   22.0360 C   0  0  0  0  0  0  0  0  0  0  0  0
    9.3430    1.7280   21.4320 O   0  0  0  0  0  0  0  0  0  0  0  0
    8.1670   -0.2110   21.2940 N   0  0  0  0  0  0  0  0  0  0  0  0
    8.2540    0.2970   25.2270 O   0  0  0  0  0  0  0  0  0  0  0  0
    9.3390   -1.1570   23.5620 N   0  0  0  0  0  0  0  0  0  0  0  0
    9.1480    0.5780   21.8400 C   0  0  0  0  0  0  0  0  0  0  0  0
   10.0230   -0.0050   22.9760 C   0  0  0  0  0  0  0  0  0  0  0  0
    8.3740   -0.9320   24.5320 C   0  0  0  0  0  0  0  0  0  0  0  0
    7.4460   -2.0680   24.7910 C   0  0  0  0  0  0  0  0  0  0  0  0
    6.2370    0.1250   17.8900 N   0  0  0  0  0  0  0  0  0  0  0  0
    7.1670   -0.2780   18.8680 C   0  0  0  0  0  0  0  0  0  0  0  0
    7.1740    0.2200   20.3030 C   0  0  0  0  0  0  0  0  0  0  0  0
    6.1560    1.1250   20.5950 C   0  0  0  0  0  0  0  0  0  0  0  0
    5.2530    1.5030   19.6340 C   0  0  0  0  0  0  0  0  0  0  0  0
    5.3220    1.0030   18.3430 C   0  0  0  0  0  0  0  0  0  0  0  0
    9.7450   -5.1680   24.7690 N   0  0  0  0  0  0  0  0  0  0  0  0
    9.0640   -3.9560   24.3690 C   0  0  0  0  0  0  0  0  0  0  0  0
    8.1530   -3.3210   25.2200 C   0  0  0  0  0  0  0  0  0  0  0  0
    7.9210   -3.8950   26.4760 C   0  0  0  0  0  0  0  0  0  0  0  0
    8.5640   -5.1260   26.9760 C   0  0  0  0  0  0  0  0  0  0  0  0
    9.5130   -5.7820   26.0730 C   0  0  0  0  0  0  0  0  0  0  0  0
  2  6  2  0
  3  6  1  0
  5  7  1  0
  6  7  1  0
  4  8  2  0
  5  8  1  0
  8  9  1  0
 10 11  2  0
  3 12  1  0
 11 12  1  0
  1 13  1  0
 12 13  2  0
 13 14  1  0
 10 15  1  0
 14 15  2  0
 16 17  2  0
  9 18  1  0
 17 18  1  0
 18 19  2  0
 19 20  1  0
 16 21  1  0
 20 21  2  0
M  END
