x0107-x0434
     RDKit          3D

 16 17  0  0  0  0  0  0  0  0999 V2000
    9.0420    0.2730   21.6040 C   0  0  0  0  0  0  0  0  0  0  0  0
    8.9610    1.4630   21.2710 O   0  0  0  0  0  0  0  0  0  0  0  0
    7.9500   -0.6740   21.2480 N   0  0  0  0  0  0  0  0  0  0  0  0
    5.4120    0.7710   22.2080 C   0  0  0  0  0  0  0  0  0  0  0  0
    6.9410   -0.1740   20.3140 C   0  0  0  0  0  0  0  0  0  0  0  0
    5.7260    0.5350   20.7640 C   0  0  0  0  0  0  0  0  0  0  0  0
    4.7780    1.0400   19.7320 C   0  0  0  0  0  0  0  0  0  0  0  0
    5.0540    0.8290   18.2270 C   0  0  0  0  0  0  0  0  0  0  0  0
    6.2600    0.1110   17.8190 N   0  0  0  0  0  0  0  0  0  0  0  0
    7.1730   -0.3780   18.8320 C   0  0  0  0  0  0  0  0  0  0  0  0
   10.9900    0.6810   23.5280 C   0  0  0  0  0  0  0  0  0  0  0  0
   12.1880    0.3040   24.0880 C   0  0  0  0  0  0  0  0  0  0  0  0
   12.8760   -0.7350   23.6510 C   0  0  0  0  0  0  0  0  0  0  0  0
   12.4290   -1.4210   22.6850 C   0  0  0  0  0  0  0  0  0  0  0  0
   11.2490   -1.1490   22.0440 C   0  0  0  0  0  0  0  0  0  0  0  0
   10.3450   -0.0700   22.3380 C   0  0  0  0  0  0  0  0  0  0  0  0
  1  2  2  0
  1  3  1  0
  3  5  1  0
  4  6  1  0
  5  6  2  0
  6  7  1  0
  7  8  2  0
  8  9  1  0
  5 10  1  0
  9 10  2  0
 11 12  2  0
 12 13  1  0
 13 14  2  0
 14 15  1  0
  1 16  1  0
 11 16  1  0
 15 16  2  0
M  END
