x0107-x2754
     RDKit          3D

 31 33  0  0  0  0  0  0  0  0999 V2000
    4.7510   -3.2340   25.3410 C   0  0  0  0  0  0  0  0  0  0  0  0
    3.6380   -2.9230   24.9440 O   0  0  0  0  0  0  0  0  0  0  0  0
    5.2270   -3.0940   26.6340 N   0  0  0  0  0  0  0  0  0  0  0  0
    5.6190   -4.5270   19.9120 O   0  0  0  0  0  0  0  0  0  0  0  0
    6.6190   -4.2110   20.5830 C   0  0  0  0  0  0  0  0  0  0  0  0
    7.8340   -3.4270   20.1050 C   0  0  0  0  0  0  0  0  0  0  0  0
    4.6500   -2.1310   27.5780 C   0  0  0  0  0  0  0  0  0  0  0  0
    9.6290   -1.3450   22.0110 C   0  0  0  0  0  0  0  0  0  0  0  0
    8.7390   -0.4250   21.4040 C   0  0  0  0  0  0  0  0  0  0  0  0
    9.0320    0.7820   21.4310 O   0  0  0  0  0  0  0  0  0  0  0  0
    7.5310   -0.8640   20.7900 N   0  0  0  0  0  0  0  0  0  0  0  0
    5.2320    0.9120   21.9940 C   0  0  0  0  0  0  0  0  0  0  0  0
    7.5200   -1.9680   19.8150 C   0  0  0  0  0  0  0  0  0  0  0  0
    6.6970   -4.5190   21.9090 N   0  0  0  0  0  0  0  0  0  0  0  0
    7.2650   -3.5660   22.6880 C   0  0  0  0  0  0  0  0  0  0  0  0
    6.2860   -2.9500   23.4600 C   0  0  0  0  0  0  0  0  0  0  0  0
    5.7360   -3.8540   24.3380 C   0  0  0  0  0  0  0  0  0  0  0  0
    5.0690   -4.9600   23.5250 C   0  0  0  0  0  0  0  0  0  0  0  0
    6.0440   -5.5530   22.5030 C   0  0  0  0  0  0  0  0  0  0  0  0
    6.6640   -4.9470   27.3330 C   0  0  0  0  0  0  0  0  0  0  0  0
    8.0790   -5.4580   27.6380 C   0  0  0  0  0  0  0  0  0  0  0  0
    9.1530   -4.5990   27.5100 C   0  0  0  0  0  0  0  0  0  0  0  0
    8.9520   -3.2930   27.1120 C   0  0  0  0  0  0  0  0  0  0  0  0
    7.7150   -2.7580   26.8210 C   0  0  0  0  0  0  0  0  0  0  0  0
    6.4740   -3.6220   26.9310 C   0  0  0  0  0  0  0  0  0  0  0  0
    6.7240   -0.0250   20.0360 C   0  0  0  0  0  0  0  0  0  0  0  0
    5.5980    0.8430   20.5450 C   0  0  0  0  0  0  0  0  0  0  0  0
    4.8490    1.6230   19.6120 C   0  0  0  0  0  0  0  0  0  0  0  0
    5.2440    1.4960   18.3120 C   0  0  0  0  0  0  0  0  0  0  0  0
    6.2490    0.7280   17.8280 N   0  0  0  0  0  0  0  0  0  0  0  0
    6.9500    0.0020   18.6910 C   0  0  0  0  0  0  0  0  0  0  0  0
  1  2  2  0
  1  3  1  0
  4  5  2  0
  5  6  1  0
  3  7  1  0
  8  9  1  0
  9 10  2  0
  9 11  1  0
  6 13  1  0
 11 13  1  0
  5 14  1  0
 14 15  1  0
 15 16  1  0
  1 17  1  0
 16 17  1  0
 17 18  1  0
 14 19  1  0
 18 19  1  0
 20 21  2  0
 21 22  1  0
 22 23  2  0
 23 24  1  0
  3 25  1  0
 20 25  1  0
 24 25  2  0
 11 26  1  0
 12 27  1  0
 26 27  2  0
 27 28  1  0
 28 29  2  0
 29 30  1  0
 26 31  1  0
 30 31  2  0
M  END
