x0107-x2600
     RDKit          3D

 19 20  0  0  0  0  0  0  0  0999 V2000
   13.5760   -3.2620   20.6220 N   0  0  0  0  0  0  0  0  0  0  0  0
    8.2880    0.3110   21.7400 C   0  0  0  0  0  0  0  0  0  0  0  0
    8.8350    1.3480   21.3070 O   0  0  0  0  0  0  0  0  0  0  0  0
    8.7030   -0.2780   23.0470 C   0  0  0  0  0  0  0  0  0  0  0  0
    7.2430   -0.4420   21.0840 N   0  0  0  0  0  0  0  0  0  0  0  0
   13.0250   -2.2110   21.4460 C   0  0  0  0  0  0  0  0  0  0  0  0
    4.9340    1.2380   21.7680 C   0  0  0  0  0  0  0  0  0  0  0  0
    6.2230    0.6530   17.5420 N   0  0  0  0  0  0  0  0  0  0  0  0
    6.9210    0.0010   18.6070 C   0  0  0  0  0  0  0  0  0  0  0  0
    6.5230    0.1810   20.0240 C   0  0  0  0  0  0  0  0  0  0  0  0
    5.3400    1.0660   20.2950 C   0  0  0  0  0  0  0  0  0  0  0  0
    4.7090    1.6660   19.1920 C   0  0  0  0  0  0  0  0  0  0  0  0
    5.0890    1.5130   17.8620 C   0  0  0  0  0  0  0  0  0  0  0  0
   10.9310    0.6820   23.8090 C   0  0  0  0  0  0  0  0  0  0  0  0
   12.2490    0.6440   23.7520 C   0  0  0  0  0  0  0  0  0  0  0  0
   13.0240   -0.2470   23.0210 C   0  0  0  0  0  0  0  0  0  0  0  0
   12.3420   -1.1940   22.2800 C   0  0  0  0  0  0  0  0  0  0  0  0
   10.8890   -1.2600   22.2540 C   0  0  0  0  0  0  0  0  0  0  0  0
   10.1740   -0.2770   23.0500 C   0  0  0  0  0  0  0  0  0  0  0  0
  2  3  2  0
  2  4  1  0
  2  5  1  0
  1  6  3  0
  8  9  2  0
  5 10  1  0
  9 10  1  0
  7 11  1  0
 10 11  2  0
 11 12  1  0
  8 13  1  0
 12 13  2  0
 14 15  2  0
 15 16  1  0
  6 17  1  0
 16 17  2  0
 17 18  1  0
  4 19  1  0
 14 19  1  0
 18 19  2  0
M  END
