x0104-x0195
     RDKit          3D

 17 18  0  0  0  0  0  0  0  0999 V2000
    9.2870    6.4610   22.7320 C   0  0  0  0  0  0  0  0  0  0  0  0
   10.4520    6.0820   23.4440 C   0  0  0  0  0  0  0  0  0  0  0  0
   10.5500    6.2530   24.6560 O   0  0  0  0  0  0  0  0  0  0  0  0
   11.4150    5.5190   22.6390 N   0  0  0  0  0  0  0  0  0  0  0  0
   12.4460    5.1410   23.0670 C   0  0  0  0  0  0  0  0  0  0  0  0
   12.7610    3.7640   22.5640 C   0  0  0  0  0  0  0  0  0  0  0  0
   13.5770   -1.9760   22.2130 F   0  0  0  0  0  0  0  0  0  0  0  0
    9.4960   -1.3010   24.3690 C   0  0  0  0  0  0  0  0  0  0  0  0
   11.8300    2.7100   23.0920 C   0  0  0  0  0  0  0  0  0  0  0  0
   10.5170    3.0130   23.7770 C   0  0  0  0  0  0  0  0  0  0  0  0
    9.9380    1.8340   24.1070 N   0  0  0  0  0  0  0  0  0  0  0  0
   10.7870    0.7150   23.6760 C   0  0  0  0  0  0  0  0  0  0  0  0
   11.9400    1.1630   23.0700 C   0  0  0  0  0  0  0  0  0  0  0  0
   10.5930   -0.7900   23.7900 C   0  0  0  0  0  0  0  0  0  0  0  0
   11.5350   -1.6070   23.2950 C   0  0  0  0  0  0  0  0  0  0  0  0
   12.6910   -1.1250   22.6890 C   0  0  0  0  0  0  0  0  0  0  0  0
   12.8930    0.2460   22.5910 C   0  0  0  0  0  0  0  0  0  0  0  0
  1  2  1  0
  2  3  2  0
  2  4  1  0
  4  5  1  0
  5  6  1  0
  6  9  1  0
  9 10  2  0
 10 11  1  0
 11 12  1  0
  9 13  1  0
 12 13  2  0
  8 14  1  0
 12 14  1  0
 14 15  2  0
  7 16  1  0
 15 16  1  0
 13 17  1  0
 16 17  2  0
M  END
