x0107-x2572
     RDKit          3D

 19 20  0  0  0  0  0  0  0  0999 V2000
    4.7070    1.4660   21.6740 C   0  0  0  0  0  0  0  0  0  0  0  0
    8.8490    1.3390   21.3180 O   0  0  0  0  0  0  0  0  0  0  0  0
    7.1740   -0.2890   21.2440 N   0  0  0  0  0  0  0  0  0  0  0  0
   13.4910   -2.9900   20.7490 N   0  0  0  0  0  0  0  0  0  0  0  0
    8.2730    0.3410   21.8220 C   0  0  0  0  0  0  0  0  0  0  0  0
    8.7520   -0.2590   23.1260 C   0  0  0  0  0  0  0  0  0  0  0  0
   13.0250   -2.1830   21.4030 C   0  0  0  0  0  0  0  0  0  0  0  0
    6.2610    0.6150   17.5040 N   0  0  0  0  0  0  0  0  0  0  0  0
    6.9170    0.0450   18.6620 C   0  0  0  0  0  0  0  0  0  0  0  0
    6.4880    0.2690   20.0990 C   0  0  0  0  0  0  0  0  0  0  0  0
    5.2620    1.1550   20.2840 C   0  0  0  0  0  0  0  0  0  0  0  0
    4.6880    1.6640   19.1290 C   0  0  0  0  0  0  0  0  0  0  0  0
    5.1320    1.4320   17.8730 C   0  0  0  0  0  0  0  0  0  0  0  0
   10.9110    0.6760   23.7670 C   0  0  0  0  0  0  0  0  0  0  0  0
   12.2310    0.6630   23.6840 C   0  0  0  0  0  0  0  0  0  0  0  0
   12.9760   -0.2310   22.9410 C   0  0  0  0  0  0  0  0  0  0  0  0
   12.3010   -1.1990   22.2210 C   0  0  0  0  0  0  0  0  0  0  0  0
   10.8440   -1.2810   22.2370 C   0  0  0  0  0  0  0  0  0  0  0  0
   10.1910   -0.2690   23.0630 C   0  0  0  0  0  0  0  0  0  0  0  0
  2  5  2  0
  3  5  1  0
  5  6  1  0
  4  7  3  0
  8  9  2  0
  3 10  1  0
  9 10  1  0
  1 11  1  0
 10 11  2  0
 11 12  1  0
  8 13  1  0
 12 13  2  0
 14 15  2  0
 15 16  1  0
  7 17  1  0
 16 17  2  0
 17 18  1  0
  6 19  1  0
 14 19  1  0
 18 19  2  0
M  END
