x0104-x0830
     RDKit          3D

 26 28  0  0  0  0  0  0  0  0999 V2000
    9.2430    6.4960   22.6910 C   0  0  0  0  0  0  0  0  0  0  0  0
   10.3450    6.0680   23.4720 C   0  0  0  0  0  0  0  0  0  0  0  0
   10.3930    6.2550   24.6830 O   0  0  0  0  0  0  0  0  0  0  0  0
   11.3160    5.4400   22.7280 N   0  0  0  0  0  0  0  0  0  0  0  0
   12.3120    5.0440   23.2130 C   0  0  0  0  0  0  0  0  0  0  0  0
   12.6450    3.6710   22.7260 C   0  0  0  0  0  0  0  0  0  0  0  0
   13.6450   -2.0180   21.8860 F   0  0  0  0  0  0  0  0  0  0  0  0
    7.7270   -3.6240   19.6140 C   0  0  0  0  0  0  0  0  0  0  0  0
    5.4870   -3.1680   19.1280 O   0  0  0  0  0  0  0  0  0  0  0  0
    6.5020   -2.9260   19.8600 C   0  0  0  0  0  0  0  0  0  0  0  0
    9.4430   -1.7640   23.8830 C   0  0  0  0  0  0  0  0  0  0  0  0
   11.7020    2.5660   23.1540 C   0  0  0  0  0  0  0  0  0  0  0  0
   10.4830    2.6910   23.7600 C   0  0  0  0  0  0  0  0  0  0  0  0
    9.8530    1.5110   23.9930 N   0  0  0  0  0  0  0  0  0  0  0  0
   10.6790    0.5060   23.5170 C   0  0  0  0  0  0  0  0  0  0  0  0
   11.8460    1.0130   23.0030 C   0  0  0  0  0  0  0  0  0  0  0  0
   10.5170   -1.0470   23.4570 C   0  0  0  0  0  0  0  0  0  0  0  0
   11.5130   -1.8200   22.9180 C   0  0  0  0  0  0  0  0  0  0  0  0
   12.7280   -1.2570   22.4010 C   0  0  0  0  0  0  0  0  0  0  0  0
   12.8350    0.1790   22.4850 C   0  0  0  0  0  0  0  0  0  0  0  0
    6.5880   -2.0770   20.9690 N   0  0  0  0  0  0  0  0  0  0  0  0
    6.3700   -2.5850   22.2130 C   0  0  0  0  0  0  0  0  0  0  0  0
    7.5540   -2.7650   22.9510 C   0  0  0  0  0  0  0  0  0  0  0  0
    8.4050   -1.7400   22.9820 N   0  0  0  0  0  0  0  0  0  0  0  0
    8.6920   -1.2870   21.7460 C   0  0  0  0  0  0  0  0  0  0  0  0
    7.6690   -1.0610   20.8430 C   0  0  0  0  0  0  0  0  0  0  0  0
  1  2  1  0
  2  3  2  0
  2  4  1  0
  4  5  1  0
  5  6  1  0
  8 10  1  0
  9 10  2  0
  6 12  1  0
 12 13  2  0
 13 14  1  0
 14 15  1  0
 12 16  1  0
 15 16  2  0
 11 17  1  0
 15 17  1  0
 17 18  2  0
  7 19  1  0
 18 19  1  0
 16 20  1  0
 19 20  2  0
 10 21  1  0
 21 22  1  0
 22 23  1  0
 11 24  1  0
 23 24  1  0
 24 25  1  0
 21 26  1  0
 25 26  1  0
M  END
