x0107-x2646
     RDKit          3D

 18 19  0  0  0  0  0  0  0  0999 V2000
    4.7420    1.2780   21.7190 C   0  0  0  0  0  0  0  0  0  0  0  0
    8.5910    0.8570   21.3660 O   0  0  0  0  0  0  0  0  0  0  0  0
   13.2530   -2.1590   21.1490 Cl  0  0  0  0  0  0  0  0  0  0  0  0
    6.9840   -0.7260   21.1340 N   0  0  0  0  0  0  0  0  0  0  0  0
    8.0450   -0.1670   21.7740 C   0  0  0  0  0  0  0  0  0  0  0  0
    8.5570   -0.8510   23.0470 C   0  0  0  0  0  0  0  0  0  0  0  0
    6.2670    0.5790   17.5820 N   0  0  0  0  0  0  0  0  0  0  0  0
    6.8280   -0.1350   18.6200 C   0  0  0  0  0  0  0  0  0  0  0  0
    6.3930    0.0220   20.0220 C   0  0  0  0  0  0  0  0  0  0  0  0
    5.2630    1.0250   20.3390 C   0  0  0  0  0  0  0  0  0  0  0  0
    4.6850    1.7750   19.1530 C   0  0  0  0  0  0  0  0  0  0  0  0
    5.1950    1.5230   17.9070 C   0  0  0  0  0  0  0  0  0  0  0  0
   10.7010    0.2700   23.9480 C   0  0  0  0  0  0  0  0  0  0  0  0
   12.0730    0.4280   23.9340 C   0  0  0  0  0  0  0  0  0  0  0  0
   12.8190   -0.2950   23.1070 C   0  0  0  0  0  0  0  0  0  0  0  0
   12.2850   -1.2260   22.2350 C   0  0  0  0  0  0  0  0  0  0  0  0
   10.9380   -1.4350   22.1930 C   0  0  0  0  0  0  0  0  0  0  0  0
   10.0240   -0.6890   23.0580 C   0  0  0  0  0  0  0  0  0  0  0  0
  2  5  2  0
  4  5  1  0
  5  6  1  0
  7  8  2  0
  4  9  1  0
  8  9  1  0
  1 10  1  0
  9 10  2  0
 10 11  1  0
  7 12  1  0
 11 12  2  0
 13 14  2  0
 14 15  1  0
  3 16  1  0
 15 16  2  0
 16 17  1  0
  6 18  1  0
 13 18  1  0
 17 18  2  0
M  END
