x0107-x1348
     RDKit          3D

 27 29  0  0  0  0  0  0  0  0999 V2000
    7.1130   -4.0570   21.5390 N   0  0  0  0  0  0  0  0  0  0  0  0
    7.5800   -5.4870   27.6350 C   0  0  0  0  0  0  0  0  0  0  0  0
    7.1890   -4.9850   26.5740 O   0  0  0  0  0  0  0  0  0  0  0  0
    5.4350   -4.3340   19.8580 O   0  0  0  0  0  0  0  0  0  0  0  0
    6.5370   -3.8800   20.2820 C   0  0  0  0  0  0  0  0  0  0  0  0
    7.4390   -3.0750   19.4740 C   0  0  0  0  0  0  0  0  0  0  0  0
    9.8690   -0.8870   22.3130 C   0  0  0  0  0  0  0  0  0  0  0  0
    9.0200   -0.0290   21.4440 C   0  0  0  0  0  0  0  0  0  0  0  0
    9.2350    1.2000   21.3510 O   0  0  0  0  0  0  0  0  0  0  0  0
    7.9680   -0.7410   20.7060 N   0  0  0  0  0  0  0  0  0  0  0  0
    5.2670    0.7010   21.9300 C   0  0  0  0  0  0  0  0  0  0  0  0
    7.9750   -2.2200   20.6790 C   0  0  0  0  0  0  0  0  0  0  0  0
    6.0800   -5.6590   25.9990 C   0  0  0  0  0  0  0  0  0  0  0  0
    5.9890   -5.4630   24.6100 C   0  0  0  0  0  0  0  0  0  0  0  0
    5.0080   -6.0270   23.8490 C   0  0  0  0  0  0  0  0  0  0  0  0
    4.1760   -6.7460   24.5060 C   0  0  0  0  0  0  0  0  0  0  0  0
    4.1920   -6.9840   25.8570 C   0  0  0  0  0  0  0  0  0  0  0  0
    5.0990   -6.5160   26.8400 C   0  0  0  0  0  0  0  0  0  0  0  0
    6.8430   -4.7080   23.8750 N   0  0  0  0  0  0  0  0  0  0  0  0
    6.4580   -4.7410   22.5930 C   0  0  0  0  0  0  0  0  0  0  0  0
    5.1100   -5.6450   22.1730 S   0  0  0  0  0  0  0  0  0  0  0  0
    6.8860   -0.1240   20.2350 C   0  0  0  0  0  0  0  0  0  0  0  0
    5.6870    0.5370   20.4970 C   0  0  0  0  0  0  0  0  0  0  0  0
    4.8170    1.0800   19.5490 C   0  0  0  0  0  0  0  0  0  0  0  0
    5.0720    1.0160   18.1840 C   0  0  0  0  0  0  0  0  0  0  0  0
    6.2830    0.3450   17.7600 N   0  0  0  0  0  0  0  0  0  0  0  0
    7.0830   -0.1710   18.8570 C   0  0  0  0  0  0  0  0  0  0  0  0
  2  3  1  0
  1  5  1  0
  4  5  2  0
  5  6  1  0
  7  8  1  0
  8  9  2  0
  8 10  1  0
  6 12  1  0
 10 12  1  0
  3 13  1  0
 13 14  2  0
 14 15  1  0
 15 16  2  0
 16 17  1  0
 13 18  1  0
 17 18  2  0
 14 19  1  0
  1 20  1  0
 19 20  2  0
 15 21  1  0
 20 21  1  0
 10 22  1  0
 11 23  1  0
 22 23  2  0
 23 24  1  0
 24 25  2  0
 25 26  1  0
 22 27  1  0
 26 27  2  0
M  END
