x0107-x0072
     RDKit          3D

 23 24  0  0  0  0  0  0  0  0999 V2000
    6.7270   -5.0540   26.1570 C   0  0  0  0  0  0  0  0  0  0  0  0
    8.3350   -4.4130   25.7250 S   0  0  0  0  0  0  0  0  0  0  0  0
    9.2040   -5.5560   25.6150 O   0  0  0  0  0  0  0  0  0  0  0  0
    8.6260   -3.4880   26.7800 O   0  0  0  0  0  0  0  0  0  0  0  0
    7.9350   -3.3680   24.4290 N   0  0  0  0  0  0  0  0  0  0  0  0
    8.8640   -2.9710   23.4500 C   0  0  0  0  0  0  0  0  0  0  0  0
    9.0770   -1.4380   23.2070 C   0  0  2  0  0  0  0  0  0  0  0  0
    8.7120   -0.6890   21.9330 C   0  0  0  0  0  0  0  0  0  0  0  0
    9.3910    0.2650   21.5430 O   0  0  0  0  0  0  0  0  0  0  0  0
    7.4920   -1.1370   21.2080 N   0  0  0  0  0  0  0  0  0  0  0  0
    5.3130    0.5780   22.0670 C   0  0  0  0  0  0  0  0  0  0  0  0
   10.5440   -1.0910   23.3640 C   0  0  0  0  0  0  0  0  0  0  0  0
   11.3280   -1.7720   22.2630 C   0  0  0  0  0  0  0  0  0  0  0  0
   12.6480   -1.5080   22.2920 C   0  0  0  0  0  0  0  0  0  0  0  0
   13.0130   -0.6900   23.2900 C   0  0  0  0  0  0  0  0  0  0  0  0
   12.1950   -0.1180   24.2640 C   0  0  0  0  0  0  0  0  0  0  0  0
   10.8390   -0.1870   24.5110 C   0  0  0  0  0  0  0  0  0  0  0  0
    6.7780   -0.3880   20.2620 C   0  0  0  0  0  0  0  0  0  0  0  0
    5.7200    0.4500   20.6280 C   0  0  0  0  0  0  0  0  0  0  0  0
    4.9560    1.2400   19.6370 C   0  0  0  0  0  0  0  0  0  0  0  0
    5.4470    1.0360   18.2810 C   0  0  0  0  0  0  0  0  0  0  0  0
    6.4610    0.2400   17.9300 N   0  0  0  0  0  0  0  0  0  0  0  0
    7.0870   -0.4400   18.9070 C   0  0  0  0  0  0  0  0  0  0  0  0
  1  2  1  0
  2  3  2  0
  2  4  2  0
  2  5  1  0
  5  6  1  0
  7  6  1  6
  7  8  1  0
  8  9  2  0
  8 10  1  0
  7 12  1  0
 12 13  2  0
 13 14  1  0
 14 15  2  0
 15 16  1  0
 12 17  1  0
 16 17  2  0
 10 18  1  0
 11 19  1  0
 18 19  2  0
 19 20  1  0
 20 21  2  0
 21 22  1  0
 18 23  1  0
 22 23  2  0
M  END
