x0107-x1374
     RDKit          3D

 30 32  0  0  0  0  0  0  0  0999 V2000
   10.6660   -4.2310   25.8660 C   0  0  0  0  0  0  0  0  0  0  0  0
    6.2410   -4.5730   22.0500 N   0  0  0  0  0  0  0  0  0  0  0  0
    6.2840   -4.2640   20.6630 C   0  0  0  0  0  0  0  0  0  0  0  0
    5.3970   -4.7460   19.9600 O   0  0  0  0  0  0  0  0  0  0  0  0
    7.3210   -3.3270   20.0080 C   0  0  0  0  0  0  0  0  0  0  0  0
    2.3150   -6.8060   23.4820 O   0  0  0  0  0  0  0  0  0  0  0  0
    4.2000   -7.9130   24.9540 O   0  0  0  0  0  0  0  0  0  0  0  0
   10.2000   -1.2070   22.1580 C   0  0  0  0  0  0  0  0  0  0  0  0
    9.0880   -0.3090   21.5670 C   0  0  0  0  0  0  0  0  0  0  0  0
    9.2250    0.9270   21.6200 O   0  0  0  0  0  0  0  0  0  0  0  0
    7.9660   -0.9310   20.9940 N   0  0  0  0  0  0  0  0  0  0  0  0
    5.5110    0.6080   22.1250 C   0  0  0  0  0  0  0  0  0  0  0  0
    7.9080   -2.4180   21.1380 C   0  0  0  0  0  0  0  0  0  0  0  0
    9.5590   -4.3500   24.8850 C   0  0  0  0  0  0  0  0  0  0  0  0
    8.9700   -3.2080   24.3650 C   0  0  0  0  0  0  0  0  0  0  0  0
    7.9200   -3.3030   23.4580 C   0  0  0  0  0  0  0  0  0  0  0  0
    7.3530   -4.4650   22.9750 C   0  0  0  0  0  0  0  0  0  0  0  0
    7.9760   -5.7400   23.5100 C   0  0  0  0  0  0  0  0  0  0  0  0
    9.1200   -5.6120   24.5030 C   0  0  0  0  0  0  0  0  0  0  0  0
    4.7510   -4.4520   24.0520 C   0  0  0  0  0  0  0  0  0  0  0  0
    5.0280   -5.0810   22.6910 C   0  0  2  0  0  0  0  0  0  0  0  0
    4.9500   -6.4620   22.7320 C   0  0  0  0  0  0  0  0  0  0  0  0
    3.7910   -6.6550   24.0710 S   0  0  0  0  0  0  0  0  0  0  0  0
    4.0720   -5.2170   24.9060 C   0  0  0  0  0  0  0  0  0  0  0  0
    7.0020   -0.2760   20.0790 C   0  0  0  0  0  0  0  0  0  0  0  0
    5.7970    0.4860   20.6590 C   0  0  0  0  0  0  0  0  0  0  0  0
    4.9000    1.1090   19.7870 C   0  0  0  0  0  0  0  0  0  0  0  0
    5.2610    0.9380   18.2990 C   0  0  0  0  0  0  0  0  0  0  0  0
    6.3210    0.2610   17.8340 N   0  0  0  0  0  0  0  0  0  0  0  0
    7.1480   -0.3210   18.7160 C   0  0  0  0  0  0  0  0  0  0  0  0
  2  3  1  0
  3  4  2  0
  3  5  1  0
  8  9  1  0
  9 10  2  0
  9 11  1  0
  5 13  1  0
 11 13  1  0
  1 14  1  0
 14 15  2  0
 15 16  1  0
  2 17  1  0
 16 17  2  0
 17 18  1  0
 14 19  1  0
 18 19  2  0
 21  2  1  1
 20 21  1  0
 21 22  1  0
 23  6  1  0
  7 23  1  0
 22 23  1  0
 20 24  2  0
 23 24  1  0
 11 25  1  0
 12 26  1  0
 25 26  2  0
 26 27  1  0
 27 28  2  0
 28 29  1  0
 25 30  1  0
 29 30  2  0
M  END
