x0104-x1493
     RDKit          3D

 32 34  0  0  0  0  0  0  0  0999 V2000
    9.2660    6.4610   22.7140 C   0  0  0  0  0  0  0  0  0  0  0  0
   10.4440    6.1040   23.4170 C   0  0  0  0  0  0  0  0  0  0  0  0
   10.5520    6.2720   24.6260 O   0  0  0  0  0  0  0  0  0  0  0  0
   11.4130    5.5650   22.6000 N   0  0  0  0  0  0  0  0  0  0  0  0
   12.4180    5.1260   23.0310 C   0  0  0  0  0  0  0  0  0  0  0  0
   12.6190    3.7200   22.5740 C   0  0  0  0  0  0  0  0  0  0  0  0
   12.8960   -1.8350   22.2670 O   0  0  0  0  0  0  0  0  0  0  0  0
    4.4570   -6.4720   25.8300 C   0  0  0  0  0  0  0  0  0  0  0  0
    6.4500   -5.3790   26.5870 O   0  0  0  0  0  0  0  0  0  0  0  0
    5.7380   -5.6440   25.6260 C   0  0  0  0  0  0  0  0  0  0  0  0
    5.7350   -4.2830   19.8830 O   0  0  0  0  0  0  0  0  0  0  0  0
    6.8290   -4.2090   20.5410 C   0  0  0  0  0  0  0  0  0  0  0  0
    8.0050   -3.4250   20.0290 C   0  0  0  0  0  0  0  0  0  0  0  0
   11.6960   -2.4080   21.7210 C   0  0  0  0  0  0  0  0  0  0  0  0
   10.6000   -1.5000   21.8590 C   0  0  0  0  0  0  0  0  0  0  0  0
    9.2900   -1.8400   21.5700 C   0  0  0  0  0  0  0  0  0  0  0  0
    9.0440   -3.1380   21.1730 C   0  0  0  0  0  0  0  0  0  0  0  0
   11.7040    2.7380   23.2480 C   0  0  0  0  0  0  0  0  0  0  0  0
   10.5700    3.1640   24.0330 C   0  0  0  0  0  0  0  0  0  0  0  0
    9.9840    2.0240   24.4660 N   0  0  0  0  0  0  0  0  0  0  0  0
   10.6960    0.9600   23.9850 C   0  0  0  0  0  0  0  0  0  0  0  0
   11.7780    1.4550   23.2160 C   0  0  0  0  0  0  0  0  0  0  0  0
   10.4420   -0.3890   24.1820 C   0  0  0  0  0  0  0  0  0  0  0  0
   11.2970   -1.2670   23.5480 C   0  0  0  0  0  0  0  0  0  0  0  0
   12.3240   -0.8010   22.7960 C   0  0  0  0  0  0  0  0  0  0  0  0
   12.6210    0.5080   22.6270 C   0  0  0  0  0  0  0  0  0  0  0  0
    6.0340   -5.2140   24.2260 N   0  0  0  0  0  0  0  0  0  0  0  0
    6.7630   -4.0400   23.8720 C   0  0  0  0  0  0  0  0  0  0  0  0
    7.6990   -4.4190   22.9250 C   0  0  0  0  0  0  0  0  0  0  0  0
    6.9900   -4.9150   21.7430 N   0  0  0  0  0  0  0  0  0  0  0  0
    6.0940   -6.0520   22.0070 C   0  0  0  0  0  0  0  0  0  0  0  0
    5.2700   -5.8140   23.1200 C   0  0  0  0  0  0  0  0  0  0  0  0
  1  2  1  0
  2  3  2  0
  2  4  1  0
  4  5  1  0
  5  6  1  0
  8 10  1  0
  9 10  2  0
 11 12  2  0
 12 13  1  0
  7 14  1  0
 14 15  1  0
 15 16  1  0
 13 17  1  0
 16 17  1  0
  6 18  1  0
 18 19  2  0
 19 20  1  0
 20 21  1  0
 18 22  1  0
 21 22  2  0
 21 23  1  0
 23 24  2  0
  7 25  1  0
 24 25  1  0
 22 26  1  0
 25 26  2  0
 10 27  1  0
 27 28  1  0
 28 29  1  0
 12 30  1  0
 29 30  1  0
 30 31  1  0
 27 32  1  0
 31 32  1  0
M  END
