x0104-x0161
     RDKit          3D

 19 21  0  0  0  0  0  0  0  0999 V2000
    9.4340    6.4880   22.6510 C   0  0  0  0  0  0  0  0  0  0  0  0
   10.4880    6.0560   23.4950 C   0  0  0  0  0  0  0  0  0  0  0  0
   10.4620    6.2900   24.6980 O   0  0  0  0  0  0  0  0  0  0  0  0
   11.5090    5.3680   22.8560 N   0  0  0  0  0  0  0  0  0  0  0  0
   12.2960    4.7720   23.4860 C   0  0  0  0  0  0  0  0  0  0  0  0
   12.5890    3.4220   22.8880 C   0  0  0  0  0  0  0  0  0  0  0  0
   12.3080   -2.2940   22.8000 N   0  0  0  0  0  0  0  0  0  0  0  0
   13.7990   -2.2940   24.7430 C   0  0  0  0  0  0  0  0  0  0  0  0
   14.0020   -1.1340   23.9050 O   0  0  0  0  0  0  0  0  0  0  0  0
   12.9100   -1.0780   23.3330 C   0  0  0  0  0  0  0  0  0  0  0  0
   11.4200    2.4870   22.8360 C   0  0  0  0  0  0  0  0  0  0  0  0
   10.1760    3.0770   22.7150 C   0  0  0  0  0  0  0  0  0  0  0  0
    9.2220    2.1500   22.6120 N   0  0  0  0  0  0  0  0  0  0  0  0
    9.8610    0.8230   22.6610 C   0  0  0  0  0  0  0  0  0  0  0  0
   11.2470    1.0040   22.8710 C   0  0  0  0  0  0  0  0  0  0  0  0
    9.2210   -0.5780   22.4740 C   0  0  0  0  0  0  0  0  0  0  0  0
   10.0620   -1.6600   22.3920 C   0  0  0  0  0  0  0  0  0  0  0  0
   11.3340   -1.4380   22.6320 C   0  0  0  0  0  0  0  0  0  0  0  0
   11.9770   -0.2160   23.0180 C   0  0  0  0  0  0  0  0  0  0  0  0
  1  2  1  0
  2  3  2  0
  2  4  1  0
  4  5  1  0
  5  6  1  0
  8  9  1  0
  7 10  1  0
  9 10  1  0
  6 11  1  0
 11 12  2  0
 12 13  1  0
 13 14  1  0
 11 15  1  0
 14 15  2  0
 14 16  1  0
 16 17  2  0
  7 18  2  0
 17 18  1  0
 10 19  2  0
 15 19  1  0
 18 19  1  0
M  END
