x0107-x2912
     RDKit          3D

 20 21  0  0  0  0  0  0  0  0999 V2000
    6.9930   -0.8280   21.0640 N   0  0  0  0  0  0  0  0  0  0  0  0
    8.1510   -0.9480   24.1130 C   0  0  0  0  0  0  0  0  0  0  0  0
    8.7220    0.9780   21.3300 O   0  0  0  0  0  0  0  0  0  0  0  0
    8.8470   -1.1640   22.7680 C   0  0  1  0  0  0  0  0  0  0  0  0
    8.1770   -0.3120   21.6940 C   0  0  0  0  0  0  0  0  0  0  0  0
   13.4670   -3.1420   20.6860 N   0  0  0  0  0  0  0  0  0  0  0  0
    4.9220    1.1380   21.6650 C   0  0  0  0  0  0  0  0  0  0  0  0
   13.0740   -2.0800   21.4630 C   0  0  0  0  0  0  0  0  0  0  0  0
    6.2540    0.4880   17.6880 N   0  0  0  0  0  0  0  0  0  0  0  0
    5.2110    1.4760   17.9220 C   0  0  0  0  0  0  0  0  0  0  0  0
    4.7770    1.6620   19.3490 C   0  0  0  0  0  0  0  0  0  0  0  0
    5.3590    0.9200   20.3620 C   0  0  0  0  0  0  0  0  0  0  0  0
    6.3360    0.0040   20.0510 C   0  0  0  0  0  0  0  0  0  0  0  0
    6.7690   -0.2010   18.7410 C   0  0  0  0  0  0  0  0  0  0  0  0
   10.6250    0.3870   23.6180 C   0  0  0  0  0  0  0  0  0  0  0  0
   11.9380    0.8600   23.7400 C   0  0  0  0  0  0  0  0  0  0  0  0
   12.9390    0.1990   23.1030 C   0  0  0  0  0  0  0  0  0  0  0  0
   12.6000   -0.9600   22.3370 C   0  0  0  0  0  0  0  0  0  0  0  0
   11.2700   -1.5090   22.1630 C   0  0  0  0  0  0  0  0  0  0  0  0
   10.2960   -0.7620   22.8480 C   0  0  0  0  0  0  0  0  0  0  0  0
  4  2  1  1
  1  5  1  0
  3  5  2  0
  4  5  1  0
  6  8  3  0
  9 10  2  0
 10 11  1  0
  7 12  1  0
 11 12  2  0
  1 13  1  0
 12 13  1  0
  9 14  1  0
 13 14  2  0
 15 16  2  0
 16 17  1  0
  8 18  1  0
 17 18  2  0
 18 19  1  0
  4 20  1  0
 15 20  1  0
 19 20  2  0
M  END
