x0107-x2705-x0691-x2649
     RDKit          3D

 51 56  0  0  0  0  0  0  0  0999 V2000
    6.8720   -1.4440   21.9540 N   0  0  0  0  0  0  0  0  0  0  0  0
    6.7040   -4.5660   20.3270 C   0  0  2  0  0  0  0  0  0  0  0  0
    4.7400   -2.9350   21.3220 O   0  0  0  0  0  0  0  0  0  0  0  0
    6.8540   -3.7790   21.4870 C   0  0  1  0  0  0  0  0  0  0  0  0
    7.3940    2.0490   22.7940 N   0  0  0  0  0  0  0  0  0  0  0  0
    8.8140    0.8660   21.4430 O   0  0  0  0  0  0  0  0  0  0  0  0
    6.0290   -2.6410   21.5880 C   0  0  0  0  0  0  0  0  0  0  0  0
    6.5410   -0.0210   21.5900 C   0  0  1  0  0  0  0  0  0  0  0  0
    7.6870    0.9930   21.9440 C   0  0  0  0  0  0  0  0  0  0  0  0
   10.1180    2.0240   23.9520 C   0  0  0  0  0  0  0  0  0  0  0  0
    9.2540    1.2580   24.9520 C   0  0  0  0  0  0  0  0  0  0  0  0
    6.1570    4.4710   21.8800 C   0  0  0  0  0  0  0  0  0  0  0  0
   11.9480   -1.5420   23.2520 C   0  0  0  0  0  0  0  0  0  0  0  0
   12.4440   -0.1260   23.6500 C   0  0  0  0  0  0  0  0  0  0  0  0
   12.5090   -2.5580   24.3120 C   0  0  0  0  0  0  0  0  0  0  0  0
   12.5980   -1.8660   21.8890 C   0  0  0  0  0  0  0  0  0  0  0  0
    5.4830   -4.4270   19.6130 O   0  0  0  0  0  0  0  0  0  0  0  0
    4.0350   -6.8500   25.8120 O   0  0  0  0  0  0  0  0  0  0  0  0
    5.7080   -5.2610   26.7820 O   0  0  0  0  0  0  0  0  0  0  0  0
    3.2340   -0.6550   25.9880 F   0  0  0  0  0  0  0  0  0  0  0  0
    4.7340   -5.5850   25.7670 S   0  0  0  0  0  0  0  0  0  0  0  0
    4.2270    1.6230   21.3060 C   0  0  0  0  0  0  0  0  0  0  0  0
    6.3690    0.3070   17.7840 N   0  0  0  0  0  0  0  0  0  0  0  0
    5.2480    1.1240   17.7600 C   0  0  0  0  0  0  0  0  0  0  0  0
    4.5910    1.5190   18.8660 C   0  0  0  0  0  0  0  0  0  0  0  0
    4.9960    1.1430   20.1120 C   0  0  0  0  0  0  0  0  0  0  0  0
    6.1100    0.3380   20.2000 C   0  0  0  0  0  0  0  0  0  0  0  0
    6.7620   -0.0600   19.0250 C   0  0  0  0  0  0  0  0  0  0  0  0
    9.7050   -1.5710   24.3400 N   0  0  0  0  0  0  0  0  0  0  0  0
    8.3740   -1.5530   24.0650 N   0  0  0  0  0  0  0  0  0  0  0  0
    8.1870   -1.5000   22.6160 C   0  0  0  0  0  0  0  0  0  0  0  0
    9.4970   -1.4950   22.0760 C   0  0  0  0  0  0  0  0  0  0  0  0
   10.3980   -1.5360   23.1830 C   0  0  0  0  0  0  0  0  0  0  0  0
    9.4400    3.2950   23.4830 C   0  0  0  0  0  0  0  0  0  0  0  0
   10.1830    4.5210   23.6280 C   0  0  0  0  0  0  0  0  0  0  0  0
    9.5070    5.6960   23.1660 C   0  0  0  0  0  0  0  0  0  0  0  0
    8.2180    5.6400   22.6120 C   0  0  0  0  0  0  0  0  0  0  0  0
    7.5360    4.4390   22.4910 C   0  0  0  0  0  0  0  0  0  0  0  0
    8.1340    3.2650   22.9260 C   0  0  0  0  0  0  0  0  0  0  0  0
    2.8880   -1.9440   25.8690 C   0  0  0  0  0  0  0  0  0  0  0  0
    3.8910   -2.9420   25.8760 C   0  0  0  0  0  0  0  0  0  0  0  0
    3.5050   -4.3010   25.7540 C   0  0  0  0  0  0  0  0  0  0  0  0
    2.1430   -4.6390   25.6230 C   0  0  0  0  0  0  0  0  0  0  0  0
    1.1480   -3.6420   25.6160 C   0  0  0  0  0  0  0  0  0  0  0  0
    1.5410   -2.3010   25.7430 C   0  0  0  0  0  0  0  0  0  0  0  0
    6.5440   -5.2390   21.7120 C   0  0  0  0  0  0  0  0  0  0  0  0
    5.2550   -5.6900   21.9330 C   0  0  0  0  0  0  0  0  0  0  0  0
    4.9770   -6.2870   23.1590 C   0  0  0  0  0  0  0  0  0  0  0  0
    5.4800   -5.4340   24.2420 N   0  0  0  0  0  0  0  0  0  0  0  0
    6.9480   -5.2580   24.1550 C   0  0  0  0  0  0  0  0  0  0  0  0
    7.5000   -5.6610   22.7880 C   0  0  0  0  0  0  0  0  0  0  0  0
  2  4  1  0
  1  7  1  0
  3  7  2  0
  4  7  1  6
  1  8  1  0
  5  9  1  0
  6  9  2  0
  8  9  1  6
 10 11  1  0
 13 14  1  0
 13 15  1  0
 13 16  1  0
  2 17  1  6
 18 21  2  0
 19 21  2  0
 23 24  2  0
 24 25  1  0
 22 26  1  0
 25 26  2  0
  8 27  1  0
 26 27  1  0
 23 28  1  0
 27 28  2  0
 29 30  1  0
  1 31  1  0
 30 31  1  0
 31 32  2  0
 13 33  1  0
 29 33  2  0
 32 33  1  0
 10 34  1  0
 34 35  2  0
 35 36  1  0
 36 37  2  0
 12 38  1  0
 37 38  1  0
  5 39  1  0
 34 39  1  0
 38 39  2  0
 20 40  1  0
 40 41  2  0
 21 42  1  0
 41 42  1  0
 42 43  2  0
 43 44  1  0
 40 45  1  0
 44 45  2  0
  2 46  1  0
  4 46  1  0
 46 47  1  0
 47 48  1  0
 21 49  1  0
 48 49  1  0
 49 50  1  0
 46 51  1  0
 50 51  1  0
M  END
