x0107-x1458
     RDKit          3D

 29 30  0  0  0  0  0  0  0  0999 V2000
    6.6300   -3.8360   26.7120 N   0  0  0  0  0  0  0  0  0  0  0  0
    8.9420   -4.4930   27.4850 C   0  0  0  0  0  0  0  0  0  0  0  0
    4.6310   -3.5010   25.4250 O   0  0  0  0  0  0  0  0  0  0  0  0
    7.5300   -4.8860   27.0350 C   0  0  0  0  0  0  0  0  0  0  0  0
    5.3600   -5.1950   20.0230 O   0  0  0  0  0  0  0  0  0  0  0  0
    6.9670   -5.8800   28.0430 C   0  0  0  0  0  0  0  0  0  0  0  0
    7.1580   -2.4960   26.8940 C   0  0  0  0  0  0  0  0  0  0  0  0
    5.9400   -3.8970   25.5100 C   0  0  0  0  0  0  0  0  0  0  0  0
    6.3990   -4.6280   20.4030 C   0  0  0  0  0  0  0  0  0  0  0  0
    7.0100   -3.6110   19.5560 C   0  0  0  0  0  0  0  0  0  0  0  0
    9.8180   -0.3310   22.4260 C   0  0  0  0  0  0  0  0  0  0  0  0
    8.9480    0.3310   21.5870 C   0  0  0  0  0  0  0  0  0  0  0  0
    9.1830    1.5160   21.2960 O   0  0  0  0  0  0  0  0  0  0  0  0
    7.7840   -0.3540   21.0210 N   0  0  0  0  0  0  0  0  0  0  0  0
    4.8390    1.5590   21.4820 C   0  0  0  0  0  0  0  0  0  0  0  0
    6.8720   -2.3370   20.3680 C   0  0  0  0  0  0  0  0  0  0  0  0
    8.0070   -1.5710   20.4870 C   0  0  0  0  0  0  0  0  0  0  0  0
    7.0310   -4.9650   21.6010 N   0  0  0  0  0  0  0  0  0  0  0  0
    7.7910   -3.9570   22.3320 C   0  0  0  0  0  0  0  0  0  0  0  0
    7.0410   -3.2830   23.3850 C   0  0  0  0  0  0  0  0  0  0  0  0
    6.6380   -4.3760   24.2790 C   0  0  0  0  0  0  0  0  0  0  0  0
    5.7710   -5.2170   23.5480 C   0  0  0  0  0  0  0  0  0  0  0  0
    6.3230   -5.8950   22.4550 C   0  0  0  0  0  0  0  0  0  0  0  0
    6.8370    0.2250   20.3520 C   0  0  0  0  0  0  0  0  0  0  0  0
    5.7230    0.9450   20.4340 C   0  0  0  0  0  0  0  0  0  0  0  0
    4.8640    1.4520   19.5130 C   0  0  0  0  0  0  0  0  0  0  0  0
    5.1770    1.1860   18.2150 C   0  0  0  0  0  0  0  0  0  0  0  0
    6.2760    0.4540   17.9230 N   0  0  0  0  0  0  0  0  0  0  0  0
    7.0500    0.0040   18.9570 C   0  0  0  0  0  0  0  0  0  0  0  0
  1  4  1  0
  2  4  1  0
  4  6  1  0
  1  7  1  0
  1  8  1  0
  3  8  2  0
  5  9  2  0
  9 10  1  0
 11 12  1  0
 12 13  2  0
 12 14  1  0
 10 16  1  0
 14 17  1  0
 16 17  1  0
  9 18  1  0
 18 19  1  0
 19 20  1  0
  8 21  1  0
 20 21  1  0
 21 22  1  0
 18 23  1  0
 22 23  1  0
 14 24  1  0
 15 25  1  0
 24 25  2  0
 25 26  1  0
 26 27  2  0
 27 28  1  0
 24 29  1  0
 28 29  2  0
M  END
