x0161-x1351
     RDKit          3D

 36 38  0  0  0  0  0  0  0  0999 V2000
   13.3760   -2.5920   23.4650 C   0  0  0  0  0  0  0  0  0  0  0  0
   13.0250   -1.2620   23.9990 N   0  0  0  0  0  0  0  0  0  0  0  0
   13.0320   -0.2330   23.0790 C   0  0  0  0  0  0  0  0  0  0  0  0
   13.6200   -0.3100   22.0270 O   0  0  0  0  0  0  0  0  0  0  0  0
   10.3300    5.2610   23.6960 S   0  0  0  0  0  0  0  0  0  0  0  0
   11.2510    6.2620   23.2070 O   0  0  0  0  0  0  0  0  0  0  0  0
    9.8280    5.5760   25.0180 O   0  0  0  0  0  0  0  0  0  0  0  0
    8.9130    5.2330   22.7120 N   0  0  0  0  0  0  0  0  0  0  0  0
    7.0230   -3.2540   19.2770 C   0  0  0  0  0  0  0  0  0  0  0  0
    5.1840   -4.6370   19.8840 O   0  0  0  0  0  0  0  0  0  0  0  0
    6.2060   -4.0360   20.2520 C   0  0  0  0  0  0  0  0  0  0  0  0
    5.7680   -3.0600   25.3560 N   0  0  0  0  0  0  0  0  0  0  0  0
    8.1610   -2.1060   25.5330 N   0  0  0  0  0  0  0  0  0  0  0  0
    6.7540   -2.0820   25.8290 C   0  0  0  0  0  0  0  0  0  0  0  0
   12.2110   -1.3700   25.0990 C   0  0  0  0  0  0  0  0  0  0  0  0
   10.7410   -1.7260   24.8990 C   0  0  0  0  0  0  0  0  0  0  0  0
   10.0770   -0.7560   25.6370 C   0  0  0  0  0  0  0  0  0  0  0  0
    8.8180   -0.9430   26.0980 C   0  0  0  0  0  0  0  0  0  0  0  0
   12.2680    1.0840   23.2860 C   0  0  0  0  0  0  0  0  0  0  0  0
   12.8050    2.2500   22.9260 C   0  0  0  0  0  0  0  0  0  0  0  0
   12.2330    3.5260   23.0350 C   0  0  0  0  0  0  0  0  0  0  0  0
   10.9560    3.6220   23.5910 C   0  0  0  0  0  0  0  0  0  0  0  0
   10.2810    2.3740   24.0270 C   0  0  0  0  0  0  0  0  0  0  0  0
   11.0040    1.1070   23.8420 C   0  0  0  0  0  0  0  0  0  0  0  0
    6.6280   -4.1040   21.5720 N   0  0  0  0  0  0  0  0  0  0  0  0
    7.3760   -3.1430   22.1570 C   0  0  0  0  0  0  0  0  0  0  0  0
    7.1160   -2.8550   23.4870 C   0  0  0  0  0  0  0  0  0  0  0  0
    5.9170   -3.3530   24.0430 C   0  0  0  0  0  0  0  0  0  0  0  0
    5.5940   -4.6260   23.6380 C   0  0  0  0  0  0  0  0  0  0  0  0
    6.0780   -5.0290   22.3890 C   0  0  0  0  0  0  0  0  0  0  0  0
    6.8220   -0.7620   27.9200 C   0  0  0  0  0  0  0  0  0  0  0  0
    6.4350    0.3170   28.7150 C   0  0  0  0  0  0  0  0  0  0  0  0
    5.5030    1.2190   28.2010 C   0  0  0  0  0  0  0  0  0  0  0  0
    4.9660    1.0450   26.9170 C   0  0  0  0  0  0  0  0  0  0  0  0
    5.3720   -0.0470   26.1380 C   0  0  0  0  0  0  0  0  0  0  0  0
    6.3050   -0.9590   26.6280 C   0  0  0  0  0  0  0  0  0  0  0  0
  1  2  1  0
  2  3  1  0
  3  4  2  0
  5  6  2  0
  5  7  2  0
  5  8  1  0
  9 11  1  0
 10 11  2  0
 12 14  1  0
 13 14  2  3
  2 15  1  0
 15 16  1  0
 16 17  1  0
 13 18  1  0
 17 18  1  0
  3 19  1  0
 19 20  2  0
 20 21  1  0
  5 22  1  0
 21 22  2  0
 22 23  1  0
 19 24  1  0
 23 24  2  0
 11 25  1  0
 25 26  1  0
 26 27  1  0
 12 28  1  0
 27 28  1  0
 28 29  1  0
 25 30  1  0
 29 30  1  0
 31 32  2  0
 32 33  1  0
 33 34  2  0
 34 35  1  0
 14 36  1  0
 31 36  1  0
 35 36  2  0
M  END
