x0161-x0705
     RDKit          3D

 36 38  0  0  0  0  0  0  0  0999 V2000
   13.5710   -2.4540   24.3960 C   0  0  0  0  0  0  0  0  0  0  0  0
   12.7050   -1.2420   24.3030 N   0  0  0  0  0  0  0  0  0  0  0  0
   12.9070   -0.3030   23.3110 C   0  0  0  0  0  0  0  0  0  0  0  0
   13.5850   -0.5310   22.3230 O   0  0  0  0  0  0  0  0  0  0  0  0
   10.2940    5.2800   23.6570 S   0  0  0  0  0  0  0  0  0  0  0  0
   11.1540    6.2540   23.0250 O   0  0  0  0  0  0  0  0  0  0  0  0
    9.7590    5.5000   24.9820 O   0  0  0  0  0  0  0  0  0  0  0  0
    8.9260    5.1610   22.6890 N   0  0  0  0  0  0  0  0  0  0  0  0
    1.3210   -2.8510   28.1010 C   0  0  0  0  0  0  0  0  0  0  0  0
    7.3850   -1.2820   26.1550 N   0  0  0  0  0  0  0  0  0  0  0  0
    5.4060   -3.4850   19.4650 O   0  0  0  0  0  0  0  0  0  0  0  0
    6.4150   -1.8830   25.4590 C   0  0  0  0  0  0  0  0  0  0  0  0
    6.4200   -3.3460   20.2170 C   0  0  0  0  0  0  0  0  0  0  0  0
    7.6540   -3.7890   19.7050 C   0  0  0  0  0  0  0  0  0  0  0  0
   11.3220   -1.5870   24.5380 C   0  0  0  0  0  0  0  0  0  0  0  0
   10.6780   -0.4630   25.0130 C   0  0  0  0  0  0  0  0  0  0  0  0
    9.3300   -0.3100   24.8650 C   0  0  0  0  0  0  0  0  0  0  0  0
    8.7790   -1.2150   25.7000 C   0  0  0  0  0  0  0  0  0  0  0  0
   12.2540    1.0380   23.3920 C   0  0  0  0  0  0  0  0  0  0  0  0
   12.9460    2.1520   22.9170 C   0  0  0  0  0  0  0  0  0  0  0  0
   12.3640    3.4220   22.9830 C   0  0  0  0  0  0  0  0  0  0  0  0
   11.0270    3.6600   23.5480 C   0  0  0  0  0  0  0  0  0  0  0  0
   10.3690    2.4370   24.0170 C   0  0  0  0  0  0  0  0  0  0  0  0
   10.9800    1.1860   23.9290 C   0  0  0  0  0  0  0  0  0  0  0  0
    2.3120   -2.2530   27.1720 C   0  0  0  0  0  0  0  0  0  0  0  0
    2.6980   -1.3590   26.1400 C   0  0  0  0  0  0  0  0  0  0  0  0
    3.9420   -1.2410   25.6160 C   0  0  0  0  0  0  0  0  0  0  0  0
    5.0160   -1.9670   26.0060 C   0  0  0  0  0  0  0  0  0  0  0  0
    4.7440   -2.8600   27.0040 C   0  0  0  0  0  0  0  0  0  0  0  0
    3.4550   -2.9750   27.5370 C   0  0  0  0  0  0  0  0  0  0  0  0
    6.4280   -2.9240   21.5350 N   0  0  0  0  0  0  0  0  0  0  0  0
    5.6520   -3.6900   22.4850 C   0  0  0  0  0  0  0  0  0  0  0  0
    5.3410   -2.8360   23.5180 C   0  0  0  0  0  0  0  0  0  0  0  0
    6.5910   -2.4750   24.2150 N   0  0  0  0  0  0  0  0  0  0  0  0
    7.6520   -1.9420   23.3060 C   0  0  0  0  0  0  0  0  0  0  0  0
    7.7630   -2.6730   22.1190 C   0  0  0  0  0  0  0  0  0  0  0  0
  1  2  1  0
  2  3  1  0
  3  4  2  0
  5  6  2  0
  5  7  2  0
  5  8  1  0
 10 12  2  3
 11 13  2  0
 13 14  1  0
  2 15  1  0
 15 16  1  0
 16 17  1  0
 10 18  1  0
 17 18  1  0
  3 19  1  0
 19 20  2  0
 20 21  1  0
  5 22  1  0
 21 22  2  0
 22 23  1  0
 19 24  1  0
 23 24  2  0
  9 25  1  0
 25 26  2  0
 26 27  1  0
 12 28  1  0
 27 28  2  0
 28 29  1  0
 25 30  1  0
 29 30  2  0
 13 31  1  0
 31 32  1  0
 32 33  1  0
 12 34  1  0
 33 34  1  0
 34 35  1  0
 31 36  1  0
 35 36  1  0
M  END
