x0161-x0734
     RDKit          3D

 37 41  0  0  0  0  0  0  0  0999 V2000
   13.5660   -2.1390   24.3740 C   0  0  0  0  0  0  0  0  0  0  0  0
   13.2770   -0.7670   24.4500 O   0  0  0  0  0  0  0  0  0  0  0  0
   13.0140   -0.2050   23.3960 C   0  0  0  0  0  0  0  0  0  0  0  0
   13.3910   -0.6770   22.3300 O   0  0  0  0  0  0  0  0  0  0  0  0
   10.2320    5.2480   23.6250 S   0  0  0  0  0  0  0  0  0  0  0  0
   11.1240    6.2270   23.0410 O   0  0  0  0  0  0  0  0  0  0  0  0
    9.8190    5.5740   24.9720 O   0  0  0  0  0  0  0  0  0  0  0  0
    8.8700    5.1310   22.6460 N   0  0  0  0  0  0  0  0  0  0  0  0
    5.2730   -4.7330   26.0450 N   0  0  0  0  0  0  0  0  0  0  0  0
    4.5570   -5.5490   25.4450 O   0  0  0  0  0  0  0  0  0  0  0  0
    4.8370   -3.7880   26.7190 O   0  0  0  0  0  0  0  0  0  0  0  0
    4.9490   -3.8000   19.3040 O   0  0  0  0  0  0  0  0  0  0  0  0
    6.1010   -3.6720   19.7510 C   0  0  0  0  0  0  0  0  0  0  0  0
    7.2360   -3.1110   18.9590 C   0  0  0  0  0  0  0  0  0  0  0  0
   12.3780   -2.9760   24.4550 C   0  0  0  0  0  0  0  0  0  0  0  0
   11.0120   -2.3290   24.4090 C   0  0  0  0  0  0  0  0  0  0  0  0
    9.8730   -3.3070   24.3040 C   0  0  0  0  0  0  0  0  0  0  0  0
    9.3420   -3.1520   23.0490 C   0  0  0  0  0  0  0  0  0  0  0  0
    8.1900   -3.8300   22.7850 C   0  0  2  0  0  0  0  0  0  0  0  0
   12.2470    1.1020   23.4490 C   0  0  0  0  0  0  0  0  0  0  0  0
   12.7870    2.2370   22.9810 C   0  0  0  0  0  0  0  0  0  0  0  0
   12.1630    3.5000   23.0220 C   0  0  0  0  0  0  0  0  0  0  0  0
   10.8930    3.6230   23.5870 C   0  0  0  0  0  0  0  0  0  0  0  0
   10.2580    2.3930   24.0950 C   0  0  0  0  0  0  0  0  0  0  0  0
   10.9840    1.1310   24.0050 C   0  0  0  0  0  0  0  0  0  0  0  0
    6.6400   -5.0390   26.1850 C   0  0  0  0  0  0  0  0  0  0  0  0
    7.5350   -4.9590   25.1060 C   0  0  0  0  0  0  0  0  0  0  0  0
    8.8630   -5.2890   25.3390 C   0  0  0  0  0  0  0  0  0  0  0  0
    9.2710   -5.6690   26.5710 C   0  0  0  0  0  0  0  0  0  0  0  0
    8.4090   -5.7550   27.6510 C   0  0  0  0  0  0  0  0  0  0  0  0
    7.0720   -5.4390   27.4680 C   0  0  0  0  0  0  0  0  0  0  0  0
    6.4350   -4.0650   21.1450 N   0  0  0  0  0  0  0  0  0  0  0  0
    6.3790   -5.3280   21.6620 C   0  0  0  0  0  0  0  0  0  0  0  0
    6.3050   -5.4560   23.0590 C   0  0  0  0  0  0  0  0  0  0  0  0
    7.1740   -4.5500   23.6890 C   0  0  2  0  0  0  0  0  0  0  0  0
    6.9670   -3.2190   23.3320 C   0  0  2  0  0  0  0  0  0  0  0  0
    7.1580   -3.1670   21.9580 C   0  0  1  0  0  0  0  0  0  0  0  0
  1  2  1  0
  2  3  1  0
  3  4  2  0
  5  6  2  0
  5  7  2  0
  5  8  1  0
  9 10  2  0
  9 11  1  0
 12 13  2  0
 13 14  1  0
  1 15  1  0
 15 16  1  0
 16 17  1  0
 17 18  1  0
 19 18  1  1
  3 20  1  0
 20 21  2  0
 21 22  1  0
  5 23  1  0
 22 23  2  0
 23 24  1  0
 20 25  1  0
 24 25  2  0
  9 26  1  0
 26 27  2  0
 27 28  1  0
 28 29  2  0
 29 30  1  0
 26 31  1  0
 30 31  2  0
 13 32  1  0
 32 33  1  0
 33 34  1  0
 19 35  1  0
 35 27  1  1
 34 35  1  0
 19 36  1  0
 35 36  1  0
 19 37  1  0
 37 32  1  6
 36 37  1  6
M  CHG  2   9   1  11  -1
M  END
