x0161-x1493
     RDKit          3D

 31 32  0  0  0  0  0  0  0  0999 V2000
   13.1260   -2.2630   24.4600 C   0  0  0  0  0  0  0  0  0  0  0  0
   13.0980   -0.8390   24.5590 O   0  0  0  0  0  0  0  0  0  0  0  0
   13.0330   -0.2170   23.4860 C   0  0  0  0  0  0  0  0  0  0  0  0
   13.6150   -0.7420   22.5450 O   0  0  0  0  0  0  0  0  0  0  0  0
   10.1380    5.1280   23.6420 S   0  0  0  0  0  0  0  0  0  0  0  0
   11.0020    6.1580   23.0980 O   0  0  0  0  0  0  0  0  0  0  0  0
    9.6740    5.4220   24.9740 O   0  0  0  0  0  0  0  0  0  0  0  0
    8.8160    4.9700   22.6130 N   0  0  0  0  0  0  0  0  0  0  0  0
    4.8140   -6.1050   26.2890 C   0  0  0  0  0  0  0  0  0  0  0  0
    7.1450   -5.6370   26.4520 O   0  0  0  0  0  0  0  0  0  0  0  0
    6.1170   -5.5830   25.7930 C   0  0  0  0  0  0  0  0  0  0  0  0
    5.9120   -4.3820   19.9410 O   0  0  0  0  0  0  0  0  0  0  0  0
    6.8860   -4.6740   20.7320 C   0  0  0  0  0  0  0  0  0  0  0  0
    8.3130   -4.2770   20.5940 C   0  0  0  0  0  0  0  0  0  0  0  0
   11.8690   -2.6230   23.7290 C   0  0  0  0  0  0  0  0  0  0  0  0
   11.8140   -2.0620   22.4750 C   0  0  0  0  0  0  0  0  0  0  0  0
   10.8020   -2.4240   21.6490 C   0  0  0  0  0  0  0  0  0  0  0  0
    9.7320   -3.1080   22.1700 C   0  0  0  0  0  0  0  0  0  0  0  0
    8.6500   -2.9590   21.3380 C   0  0  0  0  0  0  0  0  0  0  0  0
   12.3070    1.0830   23.4970 C   0  0  0  0  0  0  0  0  0  0  0  0
   12.9010    2.2040   22.9630 C   0  0  0  0  0  0  0  0  0  0  0  0
   12.2360    3.5030   22.9790 C   0  0  0  0  0  0  0  0  0  0  0  0
   10.9140    3.6390   23.5730 C   0  0  0  0  0  0  0  0  0  0  0  0
   10.3870    2.4500   24.0710 C   0  0  0  0  0  0  0  0  0  0  0  0
   11.0310    1.1950   24.0500 C   0  0  0  0  0  0  0  0  0  0  0  0
    6.0670   -5.0350   24.4590 N   0  0  0  0  0  0  0  0  0  0  0  0
    7.1910   -4.4430   23.8700 C   0  0  0  0  0  0  0  0  0  0  0  0
    7.7730   -5.2820   22.9790 C   0  0  0  0  0  0  0  0  0  0  0  0
    6.7850   -5.5390   21.9400 N   0  0  0  0  0  0  0  0  0  0  0  0
    5.7070   -6.2010   22.3500 C   0  0  0  0  0  0  0  0  0  0  0  0
    5.1890   -5.6130   23.4940 C   0  0  0  0  0  0  0  0  0  0  0  0
  1  2  1  0
  2  3  1  0
  3  4  2  0
  5  6  2  0
  5  7  2  0
  5  8  1  0
  9 11  1  0
 10 11  2  0
 12 13  2  0
 13 14  1  0
  1 15  1  0
 15 16  1  0
 16 17  1  0
 17 18  1  0
 14 19  1  0
 18 19  1  0
  3 20  1  0
 20 21  2  0
 21 22  1  0
  5 23  1  0
 22 23  2  0
 23 24  1  0
 20 25  1  0
 24 25  2  0
 11 26  1  0
 26 27  1  0
 27 28  1  0
 13 29  1  0
 28 29  1  0
 29 30  1  0
 26 31  1  0
 30 31  1  0
M  END
