x0165-x1385
     RDKit          3D

 16 17  0  0  0  0  0  0  0  0999 V2000
    6.5370   -1.9320   18.7240 C   0  0  0  0  0  0  0  0  0  0  0  0
    5.4750   -4.0190   19.7200 O   0  0  0  0  0  0  0  0  0  0  0  0
    6.2220   -2.8750   19.9030 C   0  0  0  0  0  0  0  0  0  0  0  0
    9.6380   -3.0730   24.0580 C   0  0  0  0  0  0  0  0  0  0  0  0
    7.1160   -5.7680   28.4730 Br  0  0  0  0  0  0  0  0  0  0  0  0
    6.8030   -2.4920   21.1930 N   0  0  0  0  0  0  0  0  0  0  0  0
    6.4860   -3.3340   22.3500 C   0  0  0  0  0  0  0  0  0  0  0  0
    7.6570   -3.8130   22.9670 C   0  0  0  0  0  0  0  0  0  0  0  0
    8.5200   -2.6670   23.3230 N   0  0  0  0  0  0  0  0  0  0  0  0
    8.9640   -1.9650   22.1070 C   0  0  0  0  0  0  0  0  0  0  0  0
    7.8780   -1.5020   21.3500 C   0  0  0  0  0  0  0  0  0  0  0  0
    9.8520   -5.3060   25.3950 C   0  0  0  0  0  0  0  0  0  0  0  0
    9.2770   -4.0730   25.1230 C   0  0  0  0  0  0  0  0  0  0  0  0
    7.9900   -3.7570   26.2150 S   0  0  0  0  0  0  0  0  0  0  0  0
    8.2060   -5.2280   27.0100 C   0  0  0  0  0  0  0  0  0  0  0  0
    9.2420   -5.9790   26.4770 C   0  0  0  0  0  0  0  0  0  0  0  0
  1  3  1  0
  2  3  2  0
  3  6  1  0
  6  7  1  0
  7  8  1  0
  4  9  1  0
  8  9  1  0
  9 10  1  0
  6 11  1  0
 10 11  1  0
  4 13  1  0
 12 13  2  0
 13 14  1  0
  5 15  1  0
 14 15  1  0
 12 16  1  0
 15 16  2  0
M  END
