x0161-x1385
     RDKit          3D

 32 34  0  0  0  0  0  0  0  0999 V2000
   13.6500   -2.4630   24.2040 C   0  0  0  0  0  0  0  0  0  0  0  0
   12.7390   -1.2930   24.1700 N   0  0  0  0  0  0  0  0  0  0  0  0
   12.9600   -0.2870   23.2280 C   0  0  0  0  0  0  0  0  0  0  0  0
   13.6760   -0.4400   22.2570 O   0  0  0  0  0  0  0  0  0  0  0  0
   10.3610    5.1370   23.7170 S   0  0  0  0  0  0  0  0  0  0  0  0
   11.2030    6.1250   23.0810 O   0  0  0  0  0  0  0  0  0  0  0  0
    9.7830    5.5430   24.9820 O   0  0  0  0  0  0  0  0  0  0  0  0
    9.0470    4.6430   22.7110 N   0  0  0  0  0  0  0  0  0  0  0  0
    7.3800   -2.9850   18.7650 C   0  0  0  0  0  0  0  0  0  0  0  0
    5.3850   -4.0070   19.6490 O   0  0  0  0  0  0  0  0  0  0  0  0
    6.3670   -3.2380   19.8290 C   0  0  0  0  0  0  0  0  0  0  0  0
    9.3820   -2.9200   24.1580 C   0  0  1  0  0  0  0  0  0  0  0  0
    7.1620   -5.9190   28.4560 Br  0  0  0  0  0  0  0  0  0  0  0  0
   11.4720   -1.6990   24.5040 C   0  0  0  0  0  0  0  0  0  0  0  0
   10.8570   -2.8530   23.7640 C   0  0  0  0  0  0  0  0  0  0  0  0
   12.2640    1.0320   23.3630 C   0  0  0  0  0  0  0  0  0  0  0  0
   12.8710    2.1810   22.9370 C   0  0  0  0  0  0  0  0  0  0  0  0
   12.2650    3.4280   23.0430 C   0  0  0  0  0  0  0  0  0  0  0  0
   11.0420    3.5200   23.5890 C   0  0  0  0  0  0  0  0  0  0  0  0
   10.3630    2.3700   24.0430 C   0  0  0  0  0  0  0  0  0  0  0  0
   10.9770    1.1130   23.9280 C   0  0  0  0  0  0  0  0  0  0  0  0
    6.6200   -2.5540   21.1370 N   0  0  0  0  0  0  0  0  0  0  0  0
    6.3880   -3.4010   22.2290 C   0  0  0  0  0  0  0  0  0  0  0  0
    7.5510   -3.8930   22.9420 C   0  0  0  0  0  0  0  0  0  0  0  0
    8.5250   -2.8270   23.1370 N   0  0  0  0  0  0  0  0  0  0  0  0
    8.8160   -2.0930   22.0320 C   0  0  0  0  0  0  0  0  0  0  0  0
    7.6560   -1.7130   21.3370 C   0  0  0  0  0  0  0  0  0  0  0  0
    9.7380   -5.2340   25.3800 C   0  0  0  0  0  0  0  0  0  0  0  0
    9.1210   -4.0110   25.1640 C   0  0  0  0  0  0  0  0  0  0  0  0
    7.8300   -3.7530   26.2860 S   0  0  0  0  0  0  0  0  0  0  0  0
    8.2080   -5.3160   26.9860 C   0  0  0  0  0  0  0  0  0  0  0  0
    9.2290   -6.0240   26.4430 C   0  0  0  0  0  0  0  0  0  0  0  0
  1  2  1  0
  2  3  1  0
  3  4  2  0
  5  6  2  0
  5  7  2  0
  5  8  1  0
  9 11  1  0
 10 11  2  0
  2 14  1  0
 12 15  1  6
 14 15  1  0
  3 16  1  0
 16 17  2  0
 17 18  1  0
  5 19  1  0
 18 19  2  0
 19 20  1  0
 16 21  1  0
 20 21  2  0
 11 22  1  0
 22 23  1  0
 23 24  1  0
 12 25  1  0
 24 25  1  0
 25 26  1  0
 22 27  1  0
 26 27  1  0
 12 29  1  0
 28 29  2  0
 29 30  1  0
 13 31  1  0
 30 31  1  0
 28 32  1  0
 31 32  2  0
M  END
