x0161-x3077
     RDKit          3D

 29 33  0  0  0  0  0  0  0  0999 V2000
   13.3690   -1.9570   25.1860 C   0  0  0  0  0  0  0  0  0  0  0  0
   13.1730   -0.7370   25.0050 O   0  0  0  0  0  0  0  0  0  0  0  0
   13.5340   -1.2600   22.4930 N   0  0  0  0  0  0  0  0  0  0  0  0
   10.2370    5.0700   23.7220 S   0  0  0  0  0  0  0  0  0  0  0  0
   11.2870    5.9600   23.2760 O   0  0  0  0  0  0  0  0  0  0  0  0
    9.6210    5.2520   25.0140 O   0  0  0  0  0  0  0  0  0  0  0  0
    8.9450    5.4000   22.7000 N   0  0  0  0  0  0  0  0  0  0  0  0
    6.9130   -3.2990   19.3950 C   0  0  0  0  0  0  0  0  0  0  0  0
    5.4370   -5.0360   20.0090 O   0  0  0  0  0  0  0  0  0  0  0  0
    6.1980   -4.1340   20.4150 C   0  0  0  0  0  0  0  0  0  0  0  0
    9.2850   -1.8310   21.8830 C   0  0  0  0  0  0  0  0  0  0  0  0
   11.8960    0.6600   23.4340 C   0  0  1  0  0  0  0  0  0  0  0  0
   12.6280    1.8900   22.8900 C   0  0  0  0  0  0  0  0  0  0  0  0
   11.9630    3.2640   22.8330 C   0  0  0  0  0  0  0  0  0  0  0  0
   10.6470    3.3020   23.3010 C   0  0  1  0  0  0  0  0  0  0  0  0
   10.2550    2.4090   24.2910 C   0  0  0  0  0  0  0  0  0  0  0  0
   10.8470    1.1360   24.3840 C   0  0  0  0  0  0  0  0  0  0  0  0
    6.3970   -3.9370   21.7810 N   0  0  0  0  0  0  0  0  0  0  0  0
    7.5940   -4.2010   22.3420 C   0  0  0  0  0  0  0  0  0  0  0  0
    7.8570   -3.3150   23.3690 C   0  0  2  0  0  0  0  0  0  0  0  0
    6.5860   -2.9550   23.7420 C   0  0  0  0  0  0  0  0  0  0  0  0
    6.0150   -2.6500   22.4280 C   0  0  1  0  0  0  0  0  0  0  0  0
    8.1710   -1.9470   22.8070 N   0  0  0  0  0  0  0  0  0  0  0  0
    6.9430   -1.5840   22.0730 C   0  0  0  0  0  0  0  0  0  0  0  0
   10.7570    0.1040   22.6640 C   0  0  0  0  0  0  0  0  0  0  0  0
   12.7750   -0.4640   23.6360 C   0  0  2  0  0  0  0  0  0  0  0  0
   12.5910   -1.6580   23.1740 C   0  0  1  0  0  0  0  0  0  0  0  0
   11.3460   -2.0990   23.1560 C   0  0  0  0  0  0  0  0  0  0  0  0
   10.4780   -1.2800   22.5720 C   0  0  0  0  0  0  0  0  0  0  0  0
  1  2  1  0
  4  5  2  0
  4  6  2  0
  4  7  1  0
  8 10  1  0
  9 10  2  0
 12 13  1  6
 13 14  2  0
 15  4  1  1
 14 15  1  0
 15 16  1  0
 12 17  1  0
 16 17  2  0
 10 18  1  0
 18 19  1  0
 20 19  1  6
 20 21  1  0
 18 22  1  0
 21 22  1  0
 11 23  1  0
 20 23  1  0
 22 24  1  6
 23 24  1  0
 12 25  1  0
 26  2  1  1
  3 26  1  0
 12 26  1  0
  3 27  1  0
 26 27  1  0
 27 28  1  6
 11 29  1  0
 25 29  2  0
 28 29  1  0
M  END
