x0161-x1358
     RDKit          3D

 37 39  0  0  0  0  0  0  0  0999 V2000
    6.9480   -2.1410   25.7300 N   0  0  0  0  0  0  0  0  0  0  0  0
    5.3370   -0.0370   25.3910 O   0  0  0  0  0  0  0  0  0  0  0  0
    5.1860   -3.5990   25.8360 O   0  0  0  0  0  0  0  0  0  0  0  0
    5.2280   -4.1790   19.7080 O   0  0  0  0  0  0  0  0  0  0  0  0
    6.0710   -3.0420   25.1780 C   0  0  0  0  0  0  0  0  0  0  0  0
    6.3840   -3.8390   20.0370 C   0  0  0  0  0  0  0  0  0  0  0  0
    7.3320   -3.1930   19.0870 C   0  0  0  0  0  0  0  0  0  0  0  0
   13.5160   -2.3830   24.1650 C   0  0  0  0  0  0  0  0  0  0  0  0
   12.5760   -1.2460   24.1760 N   0  0  0  0  0  0  0  0  0  0  0  0
   12.8770   -0.2000   23.3160 C   0  0  0  0  0  0  0  0  0  0  0  0
   13.6960   -0.3500   22.4180 O   0  0  0  0  0  0  0  0  0  0  0  0
   10.2680    5.2660   23.6750 S   0  0  0  0  0  0  0  0  0  0  0  0
   11.1320    6.2480   23.0530 O   0  0  0  0  0  0  0  0  0  0  0  0
    9.7360    5.4920   24.9980 O   0  0  0  0  0  0  0  0  0  0  0  0
    8.9190    5.1230   22.6730 N   0  0  0  0  0  0  0  0  0  0  0  0
    8.3420   -2.2020   25.4170 C   0  0  0  0  0  0  0  0  0  0  0  0
    9.0680   -0.9710   24.9100 C   0  0  0  0  0  0  0  0  0  0  0  0
   10.4170   -1.2190   25.1120 C   0  0  0  0  0  0  0  0  0  0  0  0
   11.1920   -1.6900   24.0870 C   0  0  0  0  0  0  0  0  0  0  0  0
    5.9130   -0.1970   26.6260 C   0  0  0  0  0  0  0  0  0  0  0  0
    6.7340   -1.2490   26.8680 C   0  0  0  0  0  0  0  0  0  0  0  0
    7.3790   -1.5080   28.1050 C   0  0  0  0  0  0  0  0  0  0  0  0
    7.1270   -0.5880   29.1170 C   0  0  0  0  0  0  0  0  0  0  0  0
    6.2600    0.5840   28.9680 C   0  0  0  0  0  0  0  0  0  0  0  0
    5.6560    0.7310   27.6450 C   0  0  0  0  0  0  0  0  0  0  0  0
    6.8510   -4.1060   21.3180 N   0  0  0  0  0  0  0  0  0  0  0  0
    7.8210   -3.1790   21.9210 C   0  0  0  0  0  0  0  0  0  0  0  0
    7.3650   -2.7360   23.1640 C   0  0  0  0  0  0  0  0  0  0  0  0
    6.1970   -3.3420   23.6670 C   0  0  0  0  0  0  0  0  0  0  0  0
    6.0010   -4.6900   23.4730 C   0  0  0  0  0  0  0  0  0  0  0  0
    6.3280   -5.1320   22.2040 C   0  0  0  0  0  0  0  0  0  0  0  0
   12.2200    1.0700   23.4130 C   0  0  0  0  0  0  0  0  0  0  0  0
   12.8330    2.2220   22.9540 C   0  0  0  0  0  0  0  0  0  0  0  0
   12.2870    3.5070   23.0000 C   0  0  0  0  0  0  0  0  0  0  0  0
   11.0170    3.6540   23.5610 C   0  0  0  0  0  0  0  0  0  0  0  0
   10.3820    2.4940   24.0250 C   0  0  0  0  0  0  0  0  0  0  0  0
   10.9450    1.2160   23.9640 C   0  0  0  0  0  0  0  0  0  0  0  0
  1  5  1  0
  3  5  2  0
  4  6  2  0
  6  7  1  0
  8  9  1  0
  9 10  1  0
 10 11  2  0
 12 13  2  0
 12 14  2  0
 12 15  1  0
  1 16  1  0
 16 17  1  0
 17 18  1  0
  9 19  1  0
 18 19  1  0
  2 20  1  0
  1 21  1  0
 20 21  2  0
 21 22  1  0
 22 23  2  0
 23 24  1  0
 20 25  1  0
 24 25  2  0
  6 26  1  0
 26 27  1  0
 27 28  1  0
  5 29  1  0
 28 29  1  0
 29 30  1  0
 26 31  1  0
 30 31  1  0
 10 32  1  0
 32 33  2  0
 33 34  1  0
 12 35  1  0
 34 35  2  0
 35 36  1  0
 32 37  1  0
 36 37  2  0
M  END
