x0165-x0755
     RDKit          3D

 20 21  0  0  0  0  0  0  0  0999 V2000
    4.3550   -6.3150   26.2420 O   0  0  0  0  0  0  0  0  0  0  0  0
    6.0870   -4.6370   26.9220 O   0  0  0  0  0  0  0  0  0  0  0  0
    5.5270   -4.7470   19.8830 O   0  0  0  0  0  0  0  0  0  0  0  0
    6.3080   -4.3590   20.7600 C   0  0  0  0  0  0  0  0  0  0  0  0
    7.0460   -3.0080   20.6340 C   0  0  0  0  0  0  0  0  0  0  0  0
    1.9730   -5.3990   25.7160 F   0  0  0  0  0  0  0  0  0  0  0  0
    5.5180   -2.0500   26.1570 F   0  0  0  0  0  0  0  0  0  0  0  0
    5.0570   -5.0720   26.0120 S   0  0  0  0  0  0  0  0  0  0  0  0
    2.3840   -4.1270   25.8000 C   0  0  0  0  0  0  0  0  0  0  0  0
    3.8660   -3.7810   25.9460 C   0  0  0  0  0  0  0  0  0  0  0  0
    4.2460   -2.4400   26.0300 C   0  0  0  0  0  0  0  0  0  0  0  0
    3.1460   -1.3780   25.9730 C   0  0  0  0  0  0  0  0  0  0  0  0
    1.8050   -1.7620   25.8420 C   0  0  0  0  0  0  0  0  0  0  0  0
    1.4310   -3.1090   25.7540 C   0  0  0  0  0  0  0  0  0  0  0  0
    6.5720   -5.1120   21.8830 N   0  0  0  0  0  0  0  0  0  0  0  0
    7.4270   -4.6500   22.9880 C   0  0  0  0  0  0  0  0  0  0  0  0
    6.6370   -4.1020   23.9780 C   0  0  0  0  0  0  0  0  0  0  0  0
    5.6920   -5.1560   24.4400 N   0  0  0  0  0  0  0  0  0  0  0  0
    4.8090   -5.6530   23.3300 C   0  0  0  0  0  0  0  0  0  0  0  0
    5.6010   -6.1390   22.2790 C   0  0  0  0  0  0  0  0  0  0  0  0
  3  4  2  0
  4  5  1  0
  1  8  2  0
  2  8  2  0
  6  9  1  0
  8 10  1  0
  9 10  2  0
  7 11  1  0
 10 11  1  0
 11 12  2  0
 12 13  1  0
  9 14  1  0
 13 14  2  0
  4 15  1  0
 15 16  1  0
 16 17  1  0
  8 18  1  0
 17 18  1  0
 18 19  1  0
 15 20  1  0
 19 20  1  0
M  END
