x0161-x1375
     RDKit          3D

 34 36  0  0  0  0  0  0  0  0999 V2000
    5.5840   -5.2100   20.0980 O   0  0  0  0  0  0  0  0  0  0  0  0
    6.4510   -4.5870   20.7950 C   0  0  0  0  0  0  0  0  0  0  0  0
    7.2420   -3.5140   20.0860 C   0  0  0  0  0  0  0  0  0  0  0  0
    6.5990   -4.8790   22.2370 N   0  0  0  0  0  0  0  0  0  0  0  0
    1.9630   -6.8090   23.7720 O   0  0  0  0  0  0  0  0  0  0  0  0
    4.4660   -7.8090   24.8590 O   0  0  0  0  0  0  0  0  0  0  0  0
   10.7160   -3.5960   25.6720 O   0  0  0  0  0  0  0  0  0  0  0  0
   13.2280   -2.0250   23.9390 C   0  0  0  0  0  0  0  0  0  0  0  0
   13.3570   -0.6600   24.0180 O   0  0  0  0  0  0  0  0  0  0  0  0
   13.1090   -0.0930   23.0000 C   0  0  0  0  0  0  0  0  0  0  0  0
   13.4460   -0.5080   21.9200 O   0  0  0  0  0  0  0  0  0  0  0  0
   10.1840    5.2210   23.7360 S   0  0  0  0  0  0  0  0  0  0  0  0
   11.1710    6.2370   23.2170 O   0  0  0  0  0  0  0  0  0  0  0  0
    9.6480    5.3580   25.0640 O   0  0  0  0  0  0  0  0  0  0  0  0
    8.8270    5.3220   22.6800 N   0  0  0  0  0  0  0  0  0  0  0  0
   11.7960   -3.6420   25.2130 C   0  0  0  0  0  0  0  0  0  0  0  0
   12.5570   -2.3590   25.2240 C   0  0  0  0  0  0  0  0  0  0  0  0
    8.0360   -3.2340   23.3450 C   0  0  0  0  0  0  0  0  0  0  0  0
    9.0680   -3.0320   24.2250 C   0  0  0  0  0  0  0  0  0  0  0  0
    9.7420   -4.0310   24.8480 C   0  0  0  0  0  0  0  0  0  0  0  0
    9.3620   -5.3400   24.5690 C   0  0  0  0  0  0  0  0  0  0  0  0
    8.3440   -5.5330   23.7000 C   0  0  0  0  0  0  0  0  0  0  0  0
    7.6400   -4.4900   23.0600 C   0  0  0  0  0  0  0  0  0  0  0  0
    5.1900   -4.7470   24.1380 C   0  0  0  0  0  0  0  0  0  0  0  0
    5.6570   -5.6430   23.0490 C   0  0  1  0  0  0  0  0  0  0  0  0
    4.4530   -6.0180   22.4070 C   0  0  0  0  0  0  0  0  0  0  0  0
    3.4200   -6.5210   23.8890 S   0  0  0  0  0  0  0  0  0  0  0  0
    4.0900   -4.9530   24.7510 C   0  0  0  0  0  0  0  0  0  0  0  0
   12.3520    1.1700   23.2170 C   0  0  0  0  0  0  0  0  0  0  0  0
   12.8490    2.4140   22.8750 C   0  0  0  0  0  0  0  0  0  0  0  0
   12.2300    3.6010   23.0190 C   0  0  0  0  0  0  0  0  0  0  0  0
   10.9700    3.6600   23.5640 C   0  0  0  0  0  0  0  0  0  0  0  0
   10.4060    2.4320   23.9430 C   0  0  0  0  0  0  0  0  0  0  0  0
   11.0920    1.2050   23.7690 C   0  0  0  0  0  0  0  0  0  0  0  0
  1  2  2  0
  2  3  1  0
  2  4  1  0
  8  9  1  0
  9 10  1  0
 10 11  2  0
 12 13  2  0
 12 14  2  0
 12 15  1  0
  7 16  1  0
  8 17  1  0
 16 17  1  0
 18 19  2  0
  7 20  1  0
 19 20  1  0
 20 21  2  0
 21 22  1  0
  4 23  1  0
 18 23  1  0
 22 23  2  0
 25  4  1  6
 24 25  1  0
 25 26  1  0
 27  5  1  0
  6 27  1  0
 26 27  1  0
 24 28  2  0
 27 28  1  0
 10 29  1  0
 29 30  2  0
 30 31  1  0
 12 32  1  0
 31 32  2  0
 32 33  1  0
 29 34  1  0
 33 34  2  0
M  END
