x0161-x1119
     RDKit          3D

 38 40  0  0  0  0  0  0  0  0999 V2000
   13.0330   -1.0390   22.5770 C   0  0  0  0  0  0  0  0  0  0  0  0
   13.0260   -0.1560   23.4350 O   0  0  0  0  0  0  0  0  0  0  0  0
   12.8320    1.0290   23.0730 C   0  0  0  0  0  0  0  0  0  0  0  0
   13.5100    2.0550   22.4550 N   0  0  0  0  0  0  0  0  0  0  0  0
    9.2310    5.3940   23.8800 S   0  0  0  0  0  0  0  0  0  0  0  0
   10.1040    6.4880   23.4990 O   0  0  0  0  0  0  0  0  0  0  0  0
    8.5090    5.4060   25.1350 O   0  0  0  0  0  0  0  0  0  0  0  0
    8.1210    5.2750   22.6200 N   0  0  0  0  0  0  0  0  0  0  0  0
   21.8510    7.9490   22.0890 N   0  0  0  0  0  0  0  0  0  0  0  0
   21.5220    3.2140   26.1530 N   0  0  0  0  0  0  0  0  0  0  0  0
   23.5520    3.9240   27.3400 N   0  0  0  0  0  0  0  0  0  0  0  0
   23.9020    2.5150   25.2630 O   0  0  0  0  0  0  0  0  0  0  0  0
   22.9880    3.4880   25.8350 S   0  0  1  0  0  0  0  0  0  0  0  0
   14.8090    2.2740   21.9300 C   0  0  0  0  0  0  0  0  0  0  0  0
   15.4600    3.6650   22.1540 C   0  0  0  0  0  0  0  0  0  0  0  0
   16.5860    4.2810   23.0880 C   0  0  0  0  0  0  0  0  0  0  0  0
   17.8960    3.5570   23.4410 C   0  0  0  0  0  0  0  0  0  0  0  0
   18.6880    3.4380   24.7360 C   0  0  0  0  0  0  0  0  0  0  0  0
   19.9230    4.0060   24.9860 C   0  0  0  0  0  0  0  0  0  0  0  0
   20.9030    3.0630   24.9890 C   0  0  0  0  0  0  0  0  0  0  0  0
   11.6620    1.7980   23.3980 C   0  0  0  0  0  0  0  0  0  0  0  0
   12.0730    3.0240   23.0620 C   0  0  0  0  0  0  0  0  0  0  0  0
   11.3390    4.1410   23.1980 C   0  0  0  0  0  0  0  0  0  0  0  0
   10.0990    3.9660   23.7130 C   0  0  0  0  0  0  0  0  0  0  0  0
    9.4980    2.6440   24.1240 C   0  0  0  0  0  0  0  0  0  0  0  0
   10.4180    1.4960   23.9220 C   0  0  0  0  0  0  0  0  0  0  0  0
   22.1070    6.8760   23.0570 C   0  0  0  0  0  0  0  0  0  0  0  0
   23.0610    5.9430   22.6580 C   0  0  0  0  0  0  0  0  0  0  0  0
   23.3580    4.8830   23.5260 C   0  0  0  0  0  0  0  0  0  0  0  0
   22.6940    4.8160   24.7220 C   0  0  0  0  0  0  0  0  0  0  0  0
   21.7470    5.7490   25.1280 C   0  0  0  0  0  0  0  0  0  0  0  0
   21.4420    6.7990   24.2870 C   0  0  0  0  0  0  0  0  0  0  0  0
   25.1540    5.0750   28.7840 N   0  0  0  0  0  0  0  0  0  0  0  0
   26.2490    5.8500   28.9230 C   0  0  0  0  0  0  0  0  0  0  0  0
   26.9750    6.3470   27.8450 C   0  0  0  0  0  0  0  0  0  0  0  0
   26.5590    6.0310   26.5500 C   0  0  0  0  0  0  0  0  0  0  0  0
   25.4240    5.2250   26.4010 C   0  0  0  0  0  0  0  0  0  0  0  0
   24.7440    4.7640   27.5360 C   0  0  0  0  0  0  0  0  0  0  0  0
  1  2  1  0
  2  3  1  0
  3  4  2  3
  5  6  2  0
  5  7  2  0
  5  8  1  0
 10 13  2  0
 13 11  1  1
 12 13  2  0
  4 14  1  0
 14 15  1  0
 15 16  1  0
 16 17  1  0
 17 18  1  0
 18 19  1  0
 10 20  1  0
 19 20  1  0
  3 21  1  0
 21 22  2  0
 22 23  1  0
  5 24  1  0
 23 24  2  0
 24 25  1  0
 21 26  1  0
 25 26  2  0
  9 27  1  0
 27 28  2  0
 28 29  1  0
 13 30  1  0
 29 30  2  0
 30 31  1  0
 27 32  1  0
 31 32  2  0
 33 34  2  0
 34 35  1  0
 35 36  2  0
 36 37  1  0
 11 38  1  0
 33 38  1  0
 37 38  2  0
M  END
