x0165-x1402
     RDKit          3D

 18 19  0  0  0  0  0  0  0  0999 V2000
    7.2860   -3.0840   20.8500 C   0  0  0  0  0  0  0  0  0  0  0  0
    5.4160   -4.5140   19.9080 O   0  0  0  0  0  0  0  0  0  0  0  0
    0.7600   -1.2190   26.1470 Cl  0  0  0  0  0  0  0  0  0  0  0  0
    6.4490   -4.3800   20.8030 C   0  0  0  0  0  0  0  0  0  0  0  0
    4.0110   -6.3980   25.9910 O   0  0  0  0  0  0  0  0  0  0  0  0
    6.0120   -5.1880   26.8550 O   0  0  0  0  0  0  0  0  0  0  0  0
    4.9510   -5.3080   25.8890 S   0  0  0  0  0  0  0  0  0  0  0  0
    6.8620   -5.4450   21.7280 N   0  0  0  0  0  0  0  0  0  0  0  0
    7.5670   -4.9010   22.9000 C   0  0  0  0  0  0  0  0  0  0  0  0
    6.6020   -4.2970   23.9160 C   0  0  0  0  0  0  0  0  0  0  0  0
    5.6750   -5.3610   24.3590 N   0  0  0  0  0  0  0  0  0  0  0  0
    4.8600   -5.8220   23.2000 C   0  0  0  0  0  0  0  0  0  0  0  0
    5.7870   -6.3820   22.1050 C   0  0  0  0  0  0  0  0  0  0  0  0
    2.3010   -3.7850   25.9700 S   0  0  0  0  0  0  0  0  0  0  0  0
    4.0230   -3.7970   25.9640 C   0  0  0  0  0  0  0  0  0  0  0  0
    4.5350   -2.5120   26.0270 C   0  0  0  0  0  0  0  0  0  0  0  0
    3.5420   -1.5670   26.0870 C   0  0  0  0  0  0  0  0  0  0  0  0
    2.2490   -2.0660   26.0730 C   0  0  0  0  0  0  0  0  0  0  0  0
  1  4  1  0
  2  4  2  0
  5  7  2  0
  6  7  2  0
  4  8  1  0
  8  9  1  0
  9 10  1  0
  7 11  1  0
 10 11  1  0
 11 12  1  0
  8 13  1  0
 12 13  1  0
  7 15  1  0
 14 15  1  0
 15 16  2  0
 16 17  1  0
  3 18  1  0
 14 18  1  0
 17 18  2  0
M  END
