x0161-x1334
     RDKit          3D

 32 34  0  0  0  0  0  0  0  0999 V2000
   13.2610   -2.2320   24.7990 C   0  0  0  0  0  0  0  0  0  0  0  0
   12.3260   -1.2080   24.2270 N   0  0  0  0  0  0  0  0  0  0  0  0
   12.8280   -0.2920   23.3380 C   0  0  0  0  0  0  0  0  0  0  0  0
   13.6980   -0.4880   22.5100 O   0  0  0  0  0  0  0  0  0  0  0  0
   10.3280    5.2270   23.6790 S   0  0  0  0  0  0  0  0  0  0  0  0
   11.2150    6.1600   23.0260 O   0  0  0  0  0  0  0  0  0  0  0  0
    9.8050    5.4940   25.0000 O   0  0  0  0  0  0  0  0  0  0  0  0
    8.9540    5.1340   22.7130 N   0  0  0  0  0  0  0  0  0  0  0  0
    7.3540   -3.0120   18.7740 C   0  0  0  0  0  0  0  0  0  0  0  0
    5.4360   -4.0710   19.7010 O   0  0  0  0  0  0  0  0  0  0  0  0
    7.6800   -5.9850   28.1830 Cl  0  0  0  0  0  0  0  0  0  0  0  0
    6.4110   -3.2890   19.8910 C   0  0  0  0  0  0  0  0  0  0  0  0
    9.5100   -2.7280   24.1100 C   0  0  1  0  0  0  0  0  0  0  0  0
   11.0620   -1.7730   23.7940 C   0  0  0  0  0  0  0  0  0  0  0  0
   11.0380   -3.2580   23.5600 C   0  0  0  0  0  0  0  0  0  0  0  0
   12.1400    1.0620   23.4410 C   0  0  0  0  0  0  0  0  0  0  0  0
   12.7930    2.1610   22.9810 C   0  0  0  0  0  0  0  0  0  0  0  0
   12.2000    3.4050   23.0630 C   0  0  0  0  0  0  0  0  0  0  0  0
   10.9750    3.5580   23.6010 C   0  0  0  0  0  0  0  0  0  0  0  0
   10.2550    2.4350   24.0860 C   0  0  0  0  0  0  0  0  0  0  0  0
   10.8630    1.1740   23.9950 C   0  0  0  0  0  0  0  0  0  0  0  0
    6.6660   -2.7030   21.1200 N   0  0  0  0  0  0  0  0  0  0  0  0
    7.6280   -1.5720   21.1580 C   0  0  0  0  0  0  0  0  0  0  0  0
    8.8520   -1.9020   21.9090 C   0  0  0  0  0  0  0  0  0  0  0  0
    8.5080   -2.6020   23.1580 N   0  0  0  0  0  0  0  0  0  0  0  0
    7.7060   -3.8120   22.9490 C   0  0  0  0  0  0  0  0  0  0  0  0
    6.4860   -3.4490   22.3740 C   0  0  0  0  0  0  0  0  0  0  0  0
    9.8380   -4.5940   25.1020 C   0  0  0  0  0  0  0  0  0  0  0  0
    8.9540   -3.5940   25.2500 C   0  0  0  0  0  0  0  0  0  0  0  0
    7.7600   -3.6680   26.4400 S   0  0  0  0  0  0  0  0  0  0  0  0
    8.4270   -5.1740   26.8760 C   0  0  0  0  0  0  0  0  0  0  0  0
    9.5340   -5.5860   26.0950 C   0  0  0  0  0  0  0  0  0  0  0  0
  1  2  1  0
  2  3  1  0
  3  4  2  0
  5  6  2  0
  5  7  2  0
  5  8  1  0
  9 12  1  0
 10 12  2  0
  2 14  1  0
 13 15  1  6
 14 15  1  0
  3 16  1  0
 16 17  2  0
 17 18  1  0
  5 19  1  0
 18 19  2  0
 19 20  1  0
 16 21  1  0
 20 21  2  0
 12 22  1  0
 22 23  1  0
 23 24  1  0
 13 25  1  0
 24 25  1  0
 25 26  1  0
 22 27  1  0
 26 27  1  0
 13 29  1  0
 28 29  2  0
 29 30  1  0
 11 31  1  0
 30 31  1  0
 28 32  1  0
 31 32  2  0
M  END
