x0165-x1187
     RDKit          3D

 15 16  0  0  0  0  0  0  0  0999 V2000
    7.7270   -0.8570   -5.2430 C   0  0  0  0  0  0  0  0  0  0  0  0
    4.3440   -1.6960   -8.5890 C   0  0  0  0  0  0  0  0  0  0  0  0
    3.9510   -0.6070   -8.8500 O   0  0  0  0  0  0  0  0  0  0  0  0
    3.9970   -2.8320   -9.4530 N   0  0  0  0  0  0  0  0  0  0  0  0
    3.3370   -2.2110  -10.6230 C   0  0  0  0  0  0  0  0  0  0  0  0
    6.7040   -1.5110   -5.8640 N   0  0  0  0  0  0  0  0  0  0  0  0
    6.1050   -2.6600   -5.4380 C   0  0  0  0  0  0  0  0  0  0  0  0
    5.1510   -2.9400   -6.3540 C   0  0  0  0  0  0  0  0  0  0  0  0
    5.1710   -1.8820   -7.4050 C   0  0  0  0  0  0  0  0  0  0  0  0
    6.1720   -1.0160   -7.0370 N   0  0  0  0  0  0  0  0  0  0  0  0
    3.0910   -2.3600  -13.0020 C   0  0  0  0  0  0  0  0  0  0  0  0
    3.2580   -3.0070  -11.7630 C   0  0  1  0  0  0  0  0  0  0  0  0
    4.3880   -3.8520  -11.9220 O   0  0  0  0  0  0  0  0  0  0  0  0
    4.2980   -4.3010  -13.2680 C   0  0  0  0  0  0  0  0  0  0  0  0
    3.8300   -3.2250  -14.0180 C   0  0  0  0  0  0  0  0  0  0  0  0
  2  3  2  0
  2  4  1  0
  4  5  1  0
  1  6  1  0
  6  7  1  0
  7  8  2  0
  2  9  1  0
  8  9  1  0
  6 10  1  0
  9 10  2  0
 12  5  1  1
 11 12  1  0
 12 13  1  0
 13 14  1  0
 11 15  1  0
 14 15  1  0
M  END
