x0161-x3115
     RDKit          3D

 39 41  0  0  0  0  0  0  0  0999 V2000
    6.8970   -1.6900   21.7500 N   0  0  0  0  0  0  0  0  0  0  0  0
    6.7860   -4.9740   20.4870 C   0  0  0  0  0  0  0  0  0  0  0  0
    4.7880   -2.9860   21.2390 O   0  0  0  0  0  0  0  0  0  0  0  0
    6.7230   -4.1490   21.7240 C   0  0  0  0  0  0  0  0  0  0  0  0
    7.2750    1.6030   23.0740 N   0  0  0  0  0  0  0  0  0  0  0  0
    8.6640    0.6640   21.4720 O   0  0  0  0  0  0  0  0  0  0  0  0
    6.0320   -2.8630   21.5510 C   0  0  0  0  0  0  0  0  0  0  0  0
    8.5760    5.0970   22.9090 N   0  0  0  0  0  0  0  0  0  0  0  0
    6.4440   -0.2530   21.7370 C   0  0  1  0  0  0  0  0  0  0  0  0
    7.5860    0.6830   22.0660 C   0  0  0  0  0  0  0  0  0  0  0  0
    8.1650    2.7120   23.4410 C   0  0  0  0  0  0  0  0  0  0  0  0
    8.1510    3.7920   22.3520 C   0  0  0  0  0  0  0  0  0  0  0  0
    8.1390    6.2970   22.1370 C   0  0  0  0  0  0  0  0  0  0  0  0
   12.2050   -2.2050   24.0880 C   0  0  0  0  0  0  0  0  0  0  0  0
   13.1970   -2.5960   23.2010 C   0  0  0  0  0  0  0  0  0  0  0  0
   12.0740   -3.1370   25.2890 C   0  0  0  0  0  0  0  0  0  0  0  0
   12.6690   -0.8500   24.5280 C   0  0  0  0  0  0  0  0  0  0  0  0
   13.1380    0.2400   24.4020 O   0  0  0  0  0  0  0  0  0  0  0  0
   10.0450    5.2320   23.7580 S   0  0  0  0  0  0  0  0  0  0  0  0
   10.8610    6.2960   23.2090 O   0  0  0  0  0  0  0  0  0  0  0  0
    9.7850    5.5570   25.1430 O   0  0  0  0  0  0  0  0  0  0  0  0
    6.3840    0.2820   18.0010 N   0  0  0  0  0  0  0  0  0  0  0  0
    5.2740    1.0240   17.8380 C   0  0  0  0  0  0  0  0  0  0  0  0
    4.3670    1.4390   18.8970 C   0  0  0  0  0  0  0  0  0  0  0  0
    4.7890    0.9740   20.2110 C   0  0  0  0  0  0  0  0  0  0  0  0
    5.9450    0.2140   20.3870 C   0  0  0  0  0  0  0  0  0  0  0  0
    6.6980   -0.1050   19.2480 C   0  0  0  0  0  0  0  0  0  0  0  0
    9.3280   -1.5110   21.6630 C   0  0  0  0  0  0  0  0  0  0  0  0
   10.5680   -1.6250   22.1830 C   0  0  0  0  0  0  0  0  0  0  0  0
   10.8480   -2.0620   23.4460 C   0  0  0  0  0  0  0  0  0  0  0  0
    9.7140   -2.3960   24.1880 C   0  0  0  0  0  0  0  0  0  0  0  0
    8.3930   -2.2960   23.6820 C   0  0  0  0  0  0  0  0  0  0  0  0
    8.1950   -1.8380   22.3700 C   0  0  0  0  0  0  0  0  0  0  0  0
   12.4220    1.2980   23.2360 C   0  0  0  0  0  0  0  0  0  0  0  0
   12.8860    2.5430   22.8290 C   0  0  0  0  0  0  0  0  0  0  0  0
   12.1600    3.7090   22.9890 C   0  0  0  0  0  0  0  0  0  0  0  0
   10.9140    3.6850   23.5870 C   0  0  0  0  0  0  0  0  0  0  0  0
   10.3740    2.4670   24.0370 C   0  0  0  0  0  0  0  0  0  0  0  0
   11.1740    1.1850   23.8490 C   0  0  0  0  0  0  0  0  0  0  0  0
  2  4  1  0
  1  7  1  0
  3  7  2  0
  4  7  1  0
  1  9  1  0
  5 10  1  0
  6 10  2  0
  9 10  1  6
  5 11  1  0
  8 12  1  0
 11 12  1  0
  8 13  1  0
 14 15  1  0
 14 16  1  0
 14 17  1  0
 17 18  2  0
 19  8  1  0
 19 20  2  0
 19 21  2  0
 22 23  2  0
 23 24  1  0
 24 25  2  0
  9 26  1  0
 25 26  1  0
 22 27  1  0
 26 27  2  0
 28 29  2  0
 14 30  1  0
 29 30  1  0
 30 31  2  0
 31 32  1  0
  1 33  1  0
 28 33  1  0
 32 33  2  0
 34 35  2  0
 35 36  1  0
 19 37  1  0
 36 37  2  0
 37 38  1  0
 34 39  1  0
 38 39  2  0
M  END
