x0165-x1235
     RDKit          3D

 26 28  0  0  0  0  0  0  0  0999 V2000
   22.8940  -22.5470   20.0240 N   0  0  0  0  0  0  0  0  0  0  0  0
   25.3250  -20.3150   19.5350 C   0  0  0  0  0  0  0  0  0  0  0  0
   24.3750  -20.8760   20.0750 O   0  0  0  0  0  0  0  0  0  0  0  0
   23.8910  -21.8100   19.4430 C   0  0  0  0  0  0  0  0  0  0  0  0
   24.2960  -22.0840   18.3230 O   0  0  0  0  0  0  0  0  0  0  0  0
   21.1630  -27.3170   18.6570 C   0  0  0  0  0  0  0  0  0  0  0  0
   22.9440  -17.8240   23.9760 C   0  0  0  0  0  0  0  0  0  0  0  0
   22.4500  -22.4450   21.4680 C   0  0  0  0  0  0  0  0  0  0  0  0
   21.4240  -23.0430   21.8040 O   0  0  0  0  0  0  0  0  0  0  0  0
   21.2990  -24.9020   17.7270 N   0  0  0  0  0  0  0  0  0  0  0  0
   21.5560  -25.8980   18.7860 C   0  0  0  0  0  0  0  0  0  0  0  0
   22.3510  -25.2860   20.2020 S   0  0  0  0  0  0  0  0  0  0  0  0
   22.3120  -23.7360   19.3610 C   0  0  0  0  0  0  0  0  0  0  0  0
   21.7390  -23.6280   18.0870 C   0  0  0  0  0  0  0  0  0  0  0  0
   20.8220  -21.3750   17.3890 C   0  0  0  0  0  0  0  0  0  0  0  0
   20.5650  -20.4010   16.4010 C   0  0  0  0  0  0  0  0  0  0  0  0
   20.9690  -20.6250   15.0870 C   0  0  0  0  0  0  0  0  0  0  0  0
   21.6240  -21.8000   14.7690 C   0  0  0  0  0  0  0  0  0  0  0  0
   21.8730  -22.7510   15.7500 C   0  0  0  0  0  0  0  0  0  0  0  0
   21.4820  -22.5760   17.0840 C   0  0  0  0  0  0  0  0  0  0  0  0
   23.4510  -19.2010   23.8740 N   0  0  0  0  0  0  0  0  0  0  0  0
   24.0770  -19.4760   22.5510 C   0  0  0  0  0  0  0  0  0  0  0  0
   24.3110  -20.8500   22.2910 C   0  0  0  0  0  0  0  0  0  0  0  0
   23.0990  -21.6620   22.4900 N   0  0  0  0  0  0  0  0  0  0  0  0
   22.5170  -21.3820   23.6710 C   0  0  0  0  0  0  0  0  0  0  0  0
   22.4340  -20.0500   24.0740 C   0  0  0  0  0  0  0  0  0  0  0  0
  2  3  1  0
  1  4  1  0
  3  4  1  0
  4  5  2  0
  1  8  1  0
  8  9  2  0
  6 11  1  0
 10 11  2  0
 11 12  1  0
  1 13  1  0
 12 13  1  0
 10 14  1  0
 13 14  2  0
 15 16  2  0
 16 17  1  0
 17 18  2  0
 18 19  1  0
 14 20  1  0
 15 20  1  0
 19 20  2  0
  7 21  1  0
 21 22  1  0
 22 23  1  0
  8 24  1  0
 23 24  1  0
 24 25  1  0
 21 26  1  0
 25 26  1  0
M  END
