x0161-x0397
     RDKit          3D

 33 35  0  0  0  0  0  0  0  0999 V2000
   13.2610   -2.1110   24.4050 C   0  0  0  0  0  0  0  0  0  0  0  0
   12.7370   -0.9820   24.4360 O   0  0  0  0  0  0  0  0  0  0  0  0
   12.7710   -0.3500   23.3740 C   0  0  1  0  0  0  0  0  0  0  0  0
   13.7760   -0.3920   22.6950 O   0  0  0  0  0  0  0  0  0  0  0  0
   10.2590    5.2600   23.6910 S   0  0  0  0  0  0  0  0  0  0  0  0
   11.1640    6.1880   23.0470 O   0  0  0  0  0  0  0  0  0  0  0  0
    9.7580    5.4970   25.0260 O   0  0  0  0  0  0  0  0  0  0  0  0
    8.9340    5.1260   22.6790 N   0  0  0  0  0  0  0  0  0  0  0  0
    7.6510   -1.1550   21.1840 C   0  0  0  0  0  0  0  0  0  0  0  0
    6.9820   -1.9490   20.2310 N   0  0  0  0  0  0  0  0  0  0  0  0
    6.9860   -1.5430   18.8360 C   0  0  0  0  0  0  0  0  0  0  0  0
    3.5500    2.3520   19.3790 C   0  0  0  0  0  0  0  0  0  0  0  0
    6.1810   -3.1180   20.6320 C   0  0  0  0  0  0  0  0  0  0  0  0
    5.4990   -3.7770   19.8360 O   0  0  0  0  0  0  0  0  0  0  0  0
    6.2640   -3.4860   22.0200 N   0  0  0  0  0  0  0  0  0  0  0  0
   11.8490   -0.9630   22.5450 C   0  0  0  0  0  0  0  0  0  0  0  0
   10.8500   -1.7480   23.0910 C   0  0  0  0  0  0  0  0  0  0  0  0
    9.5590   -1.3770   22.7850 C   0  0  0  0  0  0  0  0  0  0  0  0
    9.1270   -1.5030   21.4740 C   0  0  0  0  0  0  0  0  0  0  0  0
   12.1380    0.9810   23.4720 C   0  0  0  0  0  0  0  0  0  0  0  0
   12.8350    2.0770   22.9610 C   0  0  0  0  0  0  0  0  0  0  0  0
   12.2850    3.3560   23.0120 C   0  0  0  0  0  0  0  0  0  0  0  0
   10.9620    3.6220   23.6050 C   0  0  0  0  0  0  0  0  0  0  0  0
   10.2940    2.4100   24.1180 C   0  0  0  0  0  0  0  0  0  0  0  0
   10.8760    1.1420   24.0460 C   0  0  0  0  0  0  0  0  0  0  0  0
    5.0830    0.1950   19.5100 C   0  0  0  0  0  0  0  0  0  0  0  0
    6.0850   -0.1270   18.6310 C   0  0  0  0  0  0  0  0  0  0  0  0
    6.3090    0.7020   17.6330 N   0  0  0  0  0  0  0  0  0  0  0  0
    5.3630    1.6790   17.8670 O   0  0  0  0  0  0  0  0  0  0  0  0
    4.6290    1.3750   18.9900 C   0  0  0  0  0  0  0  0  0  0  0  0
    6.5230   -5.4300   23.3010 C   0  0  0  0  0  0  0  0  0  0  0  0
    5.7740   -4.7470   22.4910 C   0  0  0  0  0  0  0  0  0  0  0  0
    6.0320   -5.8130   21.7820 C   0  0  0  0  0  0  0  0  0  0  0  0
  1  2  1  0
  3  2  1  0
  3  4  1  6
  5  6  2  0
  5  7  2  0
  5  8  1  0
  9 10  1  0
 10 11  1  0
 10 13  1  0
 13 14  2  0
 13 15  1  0
  3 16  1  0
 16 17  1  0
 17 18  1  0
  9 19  1  0
 18 19  1  0
  3 20  1  0
 20 21  2  0
 21 22  1  0
  5 23  1  0
 22 23  2  0
 23 24  1  0
 20 25  1  0
 24 25  2  0
 11 27  1  0
 26 27  1  0
 27 28  2  0
 28 29  1  0
 12 30  1  0
 26 30  2  0
 29 30  1  0
 15 32  1  0
 31 32  1  0
 31 33  1  0
 32 33  1  0
M  END
