x0165-x0104
     RDKit          3D

 16 17  0  0  0  0  0  0  0  0999 V2000
    8.9710    6.5210   22.6490 C   0  0  0  0  0  0  0  0  0  0  0  0
   10.3020    6.1970   23.3620 C   0  0  0  0  0  0  0  0  0  0  0  0
   10.4090    6.3030   24.5830 O   0  0  0  0  0  0  0  0  0  0  0  0
   11.3980    5.7700   22.4780 N   0  0  0  0  0  0  0  0  0  0  0  0
   12.4420    5.0320   23.2140 C   0  0  0  0  0  0  0  0  0  0  0  0
   12.6990    3.6220   22.6580 C   0  0  0  0  0  0  0  0  0  0  0  0
   13.5510   -2.0440   22.2290 F   0  0  0  0  0  0  0  0  0  0  0  0
   11.8710    2.5680   23.1070 C   0  0  0  0  0  0  0  0  0  0  0  0
   10.5240    2.8320   23.7990 C   0  0  0  0  0  0  0  0  0  0  0  0
   10.0010    1.6060   24.0850 N   0  0  0  0  0  0  0  0  0  0  0  0
   10.8220    0.6280   23.6660 C   0  0  0  0  0  0  0  0  0  0  0  0
   11.9950    1.1080   23.0610 C   0  0  0  0  0  0  0  0  0  0  0  0
   10.5830   -0.7490   23.7910 C   0  0  0  0  0  0  0  0  0  0  0  0
   11.5230   -1.6400   23.2940 C   0  0  0  0  0  0  0  0  0  0  0  0
   12.6810   -1.1700   22.6990 C   0  0  0  0  0  0  0  0  0  0  0  0
   12.9400    0.1870   22.5840 C   0  0  0  0  0  0  0  0  0  0  0  0
  1  2  1  0
  2  3  2  0
  2  4  1  0
  4  5  1  0
  5  6  1  0
  6  8  1  0
  8  9  2  0
  9 10  1  0
 10 11  1  0
  8 12  1  0
 11 12  2  0
 11 13  1  0
 13 14  2  0
  7 15  1  0
 14 15  1  0
 12 16  1  0
 15 16  2  0
M  END
