x0165-x0107
     RDKit          3D

 16 17  0  0  0  0  0  0  0  0999 V2000
   23.1930  -17.4900   24.2210 C   0  0  0  0  0  0  0  0  0  0  0  0
   22.4880  -22.2860   21.8900 C   0  0  0  0  0  0  0  0  0  0  0  0
   21.4690  -22.8880   22.2180 O   0  0  0  0  0  0  0  0  0  0  0  0
   22.9710  -22.3090   20.5040 N   0  0  0  0  0  0  0  0  0  0  0  0
   23.5410  -18.8090   24.0970 N   0  0  0  0  0  0  0  0  0  0  0  0
   24.1570  -19.0990   22.7900 C   0  0  0  0  0  0  0  0  0  0  0  0
   24.3270  -20.5810   22.3920 C   0  0  0  0  0  0  0  0  0  0  0  0
   23.2330  -21.4880   22.7830 N   0  0  0  0  0  0  0  0  0  0  0  0
   22.6110  -21.1660   24.0630 C   0  0  0  0  0  0  0  0  0  0  0  0
   22.3610  -19.6620   24.2550 C   0  0  0  0  0  0  0  0  0  0  0  0
   22.3000  -24.5790   19.7490 C   0  0  0  0  0  0  0  0  0  0  0  0
   21.9440  -25.4260   18.7080 C   0  0  0  0  0  0  0  0  0  0  0  0
   21.8670  -24.9300   17.4130 C   0  0  0  0  0  0  0  0  0  0  0  0
   22.1270  -23.5840   17.1340 C   0  0  0  0  0  0  0  0  0  0  0  0
   22.4850  -22.7270   18.1740 C   0  0  0  0  0  0  0  0  0  0  0  0
   22.5710  -23.2470   19.4600 C   0  0  0  0  0  0  0  0  0  0  0  0
  2  3  2  0
  2  4  1  0
  1  5  1  0
  5  6  1  0
  6  7  1  0
  2  8  1  0
  7  8  1  0
  8  9  1  0
  5 10  1  0
  9 10  1  0
 11 12  2  0
 12 13  1  0
 13 14  2  0
 14 15  1  0
  4 16  1  0
 11 16  1  0
 15 16  2  0
M  END
