x0161-x1402
     RDKit          3D

 37 39  0  0  0  0  0  0  0  0999 V2000
    8.0660   -4.0430   20.6200 C   0  0  0  0  0  0  0  0  0  0  0  0
    5.7310   -4.4670   19.9390 O   0  0  0  0  0  0  0  0  0  0  0  0
    0.8350   -1.3740   26.2660 Cl  0  0  0  0  0  0  0  0  0  0  0  0
    6.6950   -4.6290   20.7580 C   0  0  0  0  0  0  0  0  0  0  0  0
    4.0460   -6.5200   25.9660 O   0  0  0  0  0  0  0  0  0  0  0  0
    6.0760   -5.3050   26.8000 O   0  0  0  0  0  0  0  0  0  0  0  0
    4.9860   -5.4220   25.8600 S   0  0  0  0  0  0  0  0  0  0  0  0
   13.2080   -1.9530   24.6850 C   0  0  0  0  0  0  0  0  0  0  0  0
   13.1260   -0.7440   24.6140 O   0  0  0  0  0  0  0  0  0  0  0  0
   13.0740   -0.2080   23.3640 C   0  0  0  0  0  0  0  0  0  0  0  0
   13.5420   -0.6660   22.3390 O   0  0  0  0  0  0  0  0  0  0  0  0
   10.1590    5.3200   23.6790 S   0  0  0  0  0  0  0  0  0  0  0  0
   11.0390    6.2840   23.0580 O   0  0  0  0  0  0  0  0  0  0  0  0
    9.6580    5.5110   25.0190 O   0  0  0  0  0  0  0  0  0  0  0  0
    8.8400    5.1300   22.6550 N   0  0  0  0  0  0  0  0  0  0  0  0
    8.2320   -2.6610   21.2380 C   0  0  0  0  0  0  0  0  0  0  0  0
    9.3010   -2.7960   22.3400 C   0  0  0  0  0  0  0  0  0  0  0  0
   10.7330   -2.3460   22.1390 C   0  0  0  0  0  0  0  0  0  0  0  0
   11.4360   -2.6690   23.2980 C   0  0  0  0  0  0  0  0  0  0  0  0
   12.7930   -2.5300   23.3670 C   0  0  0  0  0  0  0  0  0  0  0  0
    6.5920   -5.3810   21.9050 N   0  0  0  0  0  0  0  0  0  0  0  0
    7.3520   -5.1070   23.1350 C   0  0  0  0  0  0  0  0  0  0  0  0
    6.4450   -4.5490   23.9580 C   0  0  0  0  0  0  0  0  0  0  0  0
    5.6460   -5.5050   24.3150 N   0  0  0  0  0  0  0  0  0  0  0  0
    4.7320   -5.8550   23.2080 C   0  0  0  0  0  0  0  0  0  0  0  0
    5.4770   -6.2940   22.1090 C   0  0  0  0  0  0  0  0  0  0  0  0
    2.3540   -3.8980   26.0490 S   0  0  0  0  0  0  0  0  0  0  0  0
    4.0660   -3.9120   25.9570 C   0  0  0  0  0  0  0  0  0  0  0  0
    4.6210   -2.5670   25.9740 C   0  0  0  0  0  0  0  0  0  0  0  0
    3.6100   -1.6310   26.0680 C   0  0  0  0  0  0  0  0  0  0  0  0
    2.3290   -2.1960   26.1240 C   0  0  0  0  0  0  0  0  0  0  0  0
   12.2530    1.2770   23.4290 C   0  0  0  0  0  0  0  0  0  0  0  0
   12.7840    2.4220   22.9620 C   0  0  0  0  0  0  0  0  0  0  0  0
   12.1790    3.6360   23.0120 C   0  0  0  0  0  0  0  0  0  0  0  0
   10.9360    3.7280   23.5790 C   0  0  0  0  0  0  0  0  0  0  0  0
   10.3070    2.5650   24.0790 C   0  0  0  0  0  0  0  0  0  0  0  0
   10.9800    1.3260   23.9990 C   0  0  0  0  0  0  0  0  0  0  0  0
  1  4  1  0
  2  4  2  0
  5  7  2  0
  6  7  2  0
  8  9  1  0
  9 10  1  0
 10 11  2  0
 12 13  2  0
 12 14  2  0
 12 15  1  0
  1 16  1  0
 16 17  1  0
 17 18  1  0
 18 19  1  0
  8 20  1  0
 19 20  1  0
  4 21  1  0
 21 22  1  0
 22 23  1  0
  7 24  1  0
 23 24  1  0
 24 25  1  0
 21 26  1  0
 25 26  1  0
  7 28  1  0
 27 28  1  0
 28 29  2  0
 29 30  1  0
  3 31  1  0
 27 31  1  0
 30 31  2  0
 10 32  1  0
 32 33  2  0
 33 34  1  0
 12 35  1  0
 34 35  2  0
 35 36  1  0
 32 37  1  0
 36 37  2  0
M  END
