x0165-x0731
     RDKit          3D

 19 20  0  0  0  0  0  0  0  0999 V2000
    0.7240   -1.4740   25.8270 C   0  0  0  0  0  0  0  0  0  0  0  0
    6.4490   -4.7800   26.6150 O   0  0  0  0  0  0  0  0  0  0  0  0
    4.6840   -6.4650   26.0360 O   0  0  0  0  0  0  0  0  0  0  0  0
    5.3300   -4.6590   19.8470 O   0  0  0  0  0  0  0  0  0  0  0  0
    6.2100   -4.2520   20.6070 C   0  0  0  0  0  0  0  0  0  0  0  0
    6.7160   -2.8390   20.4860 C   0  0  0  0  0  0  0  0  0  0  0  0
    5.3240   -5.1900   25.8080 S   0  0  0  0  0  0  0  0  0  0  0  0
    2.1260   -1.9190   26.0450 C   0  0  0  0  0  0  0  0  0  0  0  0
    1.6750   -3.1160   25.5140 C   0  0  0  0  0  0  0  0  0  0  0  0
    2.7640   -4.1930   25.4410 C   0  0  0  0  0  0  0  0  0  0  0  0
    4.0780   -3.9150   25.8930 C   0  0  0  0  0  0  0  0  0  0  0  0
    4.3500   -2.6180   26.4030 C   0  0  0  0  0  0  0  0  0  0  0  0
    3.3850   -1.6090   26.4840 C   0  0  0  0  0  0  0  0  0  0  0  0
    6.8280   -5.1100   21.6240 N   0  0  0  0  0  0  0  0  0  0  0  0
    7.6050   -4.5670   22.7510 C   0  0  0  0  0  0  0  0  0  0  0  0
    6.7780   -4.2240   23.8260 C   0  0  0  0  0  0  0  0  0  0  0  0
    5.8050   -5.0940   24.1910 N   0  0  0  0  0  0  0  0  0  0  0  0
    5.2900   -6.0590   23.2310 C   0  0  0  0  0  0  0  0  0  0  0  0
    6.0820   -6.3220   21.9630 C   0  0  0  0  0  0  0  0  0  0  0  0
  4  5  2  0
  5  6  1  0
  2  7  2  0
  3  7  2  0
  1  8  1  0
  8  9  2  0
  9 10  1  0
  7 11  1  0
 10 11  2  0
 11 12  1  0
  8 13  1  0
 12 13  2  0
  5 14  1  0
 14 15  1  0
 15 16  1  0
  7 17  1  0
 16 17  1  0
 17 18  1  0
 14 19  1  0
 18 19  1  0
M  END
