x0165-x0774
     RDKit          3D

 20 21  0  0  0  0  0  0  0  0999 V2000
    6.2640   -2.1960   18.9970 C   0  0  0  0  0  0  0  0  0  0  0  0
    5.3600   -4.4580   19.6900 O   0  0  0  0  0  0  0  0  0  0  0  0
    6.0390   -3.3240   20.0310 C   0  0  0  0  0  0  0  0  0  0  0  0
    8.0520   -0.7360   25.3430 O   0  0  0  0  0  0  0  0  0  0  0  0
   10.8930   -2.5350   23.8250 N   0  0  0  0  0  0  0  0  0  0  0  0
    5.7230   -1.6330   25.7050 O   0  0  0  0  0  0  0  0  0  0  0  0
   10.0140   -3.1640   24.8110 C   0  0  0  0  0  0  0  0  0  0  0  0
    7.0930   -1.8180   25.2840 S   0  0  0  0  0  0  0  0  0  0  0  0
    6.5710   -3.1780   21.2920 N   0  0  0  0  0  0  0  0  0  0  0  0
    6.2280   -4.0870   22.2510 C   0  0  0  0  0  0  0  0  0  0  0  0
    6.0990   -3.3360   23.4240 C   0  0  0  0  0  0  0  0  0  0  0  0
    7.0560   -2.4330   23.7050 N   0  0  0  0  0  0  0  0  0  0  0  0
    7.6090   -1.7490   22.6830 C   0  0  0  0  0  0  0  0  0  0  0  0
    7.7320   -2.4490   21.4780 C   0  0  0  0  0  0  0  0  0  0  0  0
    7.0440   -3.8050   27.2010 C   0  0  0  0  0  0  0  0  0  0  0  0
    7.5980   -4.8740   27.8930 C   0  0  0  0  0  0  0  0  0  0  0  0
    8.8630   -5.3680   27.6020 C   0  0  0  0  0  0  0  0  0  0  0  0
    9.6400   -4.8020   26.5900 C   0  0  0  0  0  0  0  0  0  0  0  0
    9.1810   -3.7170   25.8330 C   0  0  0  0  0  0  0  0  0  0  0  0
    7.7780   -3.1940   26.1760 C   0  0  0  0  0  0  0  0  0  0  0  0
  1  3  1  0
  2  3  2  0
  5  7  3  0
  4  8  2  0
  6  8  2  0
  3  9  1  0
  9 10  1  0
 10 11  1  0
  8 12  1  0
 11 12  1  0
 12 13  1  0
  9 14  1  0
 13 14  1  0
 15 16  2  0
 16 17  1  0
 17 18  2  0
  7 19  1  0
 18 19  1  0
  8 20  1  0
 15 20  1  0
 19 20  2  0
M  END
