x0165-x1249
     RDKit          3D

 18 19  0  0  0  0  0  0  0  0999 V2000
    8.0440    0.5370   24.8910 N   0  0  0  0  0  0  0  0  0  0  0  0
    7.3950    1.4080   24.0460 C   0  0  0  0  0  0  0  0  0  0  0  0
    8.0620    2.5480   23.5020 O   0  0  0  0  0  0  0  0  0  0  0  0
    9.3890    0.8550   25.3480 C   0  0  0  0  0  0  0  0  0  0  0  0
   13.7890   -1.8630   20.6250 N   0  0  0  0  0  0  0  0  0  0  0  0
   13.0140   -1.3750   21.6920 C   0  0  0  0  0  0  0  0  0  0  0  0
    3.4270    1.0160   23.6000 O   0  0  0  0  0  0  0  0  0  0  0  0
    4.0850    1.0240   22.5580 C   0  0  0  0  0  0  0  0  0  0  0  0
    5.4470    1.3470   22.6440 C   0  0  0  0  0  0  0  0  0  0  0  0
    6.0790    1.0710   23.7970 N   0  0  0  0  0  0  0  0  0  0  0  0
    5.2810    0.7870   24.8490 C   0  0  0  0  0  0  0  0  0  0  0  0
    4.0130    0.2460   24.5660 C   0  0  0  0  0  0  0  0  0  0  0  0
   11.4590    1.0480   23.9400 C   0  0  0  0  0  0  0  0  0  0  0  0
   12.3340    0.4690   23.0480 C   0  0  0  0  0  0  0  0  0  0  0  0
   12.1460   -0.8350   22.6030 C   0  0  0  0  0  0  0  0  0  0  0  0
   11.1010   -1.6320   23.0200 C   0  0  0  0  0  0  0  0  0  0  0  0
   10.1920   -1.1300   23.9080 C   0  0  0  0  0  0  0  0  0  0  0  0
   10.3700    0.2960   24.4000 C   0  0  0  0  0  0  0  0  0  0  0  0
  1  2  1  0
  2  3  2  0
  1  4  1  0
  5  6  3  0
  7  8  1  0
  8  9  1  0
  2 10  1  0
  9 10  1  0
 10 11  1  0
  7 12  1  0
 11 12  1  0
 13 14  2  0
  6 15  1  0
 14 15  1  0
 15 16  2  0
 16 17  1  0
  4 18  1  0
 13 18  1  0
 17 18  2  0
M  END
