x0161-x0820
     RDKit          3D

 14 14  0  0  0  0  0  0  0  0999 V2000
   13.2900   -2.2490   24.4830 C   0  0  0  0  0  0  0  0  0  0  0  0
   12.7190   -0.9290   24.4840 O   0  0  0  0  0  0  0  0  0  0  0  0
   12.8490   -0.3130   23.4210 C   0  0  0  0  0  0  0  0  0  0  0  0
   13.4490   -0.7110   22.4390 O   0  0  0  0  0  0  0  0  0  0  0  0
   10.1020    5.2570   23.6740 S   0  0  0  0  0  0  0  0  0  0  0  0
   10.9220    6.2880   23.0760 O   0  0  0  0  0  0  0  0  0  0  0  0
    9.5860    5.4070   25.0130 O   0  0  0  0  0  0  0  0  0  0  0  0
    8.7980    5.0280   22.6420 N   0  0  0  0  0  0  0  0  0  0  0  0
   12.1840    1.0290   23.4670 C   0  0  0  0  0  0  0  0  0  0  0  0
   12.8720    2.3170   22.9460 C   0  0  0  0  0  0  0  0  0  0  0  0
   12.2520    3.5890   22.9930 C   0  0  0  0  0  0  0  0  0  0  0  0
   10.9850    3.7160   23.5280 C   0  0  0  0  0  0  0  0  0  0  0  0
   10.5860    2.3820   23.9260 C   0  0  0  0  0  0  0  0  0  0  0  0
   10.8900    1.2310   23.9880 C   0  0  0  0  0  0  0  0  0  0  0  0
  1  2  1  0
  2  3  1  0
  3  4  2  0
  5  6  2  0
  5  7  2  0
  5  8  1  0
  3  9  1  0
  9 10  2  0
 10 11  1  0
  5 12  1  0
 11 12  2  0
 12 13  1  0
  9 14  1  0
 13 14  2  0
M  END
