x0161-x0786
     RDKit          3D

 37 39  0  0  0  0  0  0  0  0999 V2000
   13.2490   -2.0900   24.1820 C   0  0  0  0  0  0  0  0  0  0  0  0
   13.1470   -0.8750   24.3340 O   0  0  0  0  0  0  0  0  0  0  0  0
   12.9920   -0.2560   23.2890 C   0  0  0  0  0  0  0  0  0  0  0  0
   13.4200   -0.6420   22.2100 O   0  0  0  0  0  0  0  0  0  0  0  0
   10.1580    5.2500   23.6970 S   0  0  0  0  0  0  0  0  0  0  0  0
   11.0580    6.2020   23.0810 O   0  0  0  0  0  0  0  0  0  0  0  0
    9.6460    5.4520   25.0340 O   0  0  0  0  0  0  0  0  0  0  0  0
    8.8520    5.0980   22.6630 N   0  0  0  0  0  0  0  0  0  0  0  0
    6.5690   -3.7370   22.0920 N   0  0  0  0  0  0  0  0  0  0  0  0
    8.1450   -4.5370   20.6980 C   0  0  0  0  0  0  0  0  0  0  0  0
    5.7810   -4.4640   19.9580 O   0  0  0  0  0  0  0  0  0  0  0  0
    6.6880   -4.2530   20.8430 C   0  0  0  0  0  0  0  0  0  0  0  0
    3.9610   -7.8630   24.5460 O   0  0  0  0  0  0  0  0  0  0  0  0
    3.4120   -6.8160   24.1900 C   0  0  0  0  0  0  0  0  0  0  0  0
   11.9120   -2.6960   24.5680 C   0  0  0  0  0  0  0  0  0  0  0  0
   11.0410   -3.1470   23.4070 C   0  0  0  0  0  0  0  0  0  0  0  0
    9.7610   -2.6270   23.4120 C   0  0  0  0  0  0  0  0  0  0  0  0
    8.6890   -3.4580   23.1560 C   0  0  0  0  0  0  0  0  0  0  0  0
    7.6060   -2.7880   22.5780 C   0  0  0  0  0  0  0  0  0  0  0  0
   12.2600    1.0280   23.4050 C   0  0  0  0  0  0  0  0  0  0  0  0
   12.8930    2.1800   22.9310 C   0  0  0  0  0  0  0  0  0  0  0  0
   12.2350    3.4020   23.0280 C   0  0  0  0  0  0  0  0  0  0  0  0
   10.9090    3.6370   23.5970 C   0  0  0  0  0  0  0  0  0  0  0  0
   10.3350    2.3650   24.0600 C   0  0  0  0  0  0  0  0  0  0  0  0
   10.9790    1.1220   23.9670 C   0  0  0  0  0  0  0  0  0  0  0  0
    5.7220   -4.2540   23.1130 C   0  0  0  0  0  0  0  0  0  0  0  0
    4.9320   -5.4400   23.0420 C   0  0  0  0  0  0  0  0  0  0  0  0
    4.2860   -5.5590   24.2050 C   0  0  0  0  0  0  0  0  0  0  0  0
    4.0770   -5.0200   25.4100 C   0  0  0  0  0  0  0  0  0  0  0  0
    4.8490   -3.8800   25.4610 C   0  0  0  0  0  0  0  0  0  0  0  0
    5.6420   -3.5290   24.3270 C   0  0  0  0  0  0  0  0  0  0  0  0
    1.6330   -5.5010   23.4590 C   0  0  0  0  0  0  0  0  0  0  0  0
    0.6290   -5.1030   24.3520 C   0  0  0  0  0  0  0  0  0  0  0  0
   -0.7220   -6.3070   24.3770 S   0  0  0  0  0  0  0  0  0  0  0  0
    0.3060   -7.7440   24.8470 C   0  0  0  0  0  0  0  0  0  0  0  0
    1.4210   -7.9350   24.0030 C   0  0  0  0  0  0  0  0  0  0  0  0
    2.2830   -6.7450   23.8750 N   0  0  0  0  0  0  0  0  0  0  0  0
  1  2  1  0
  2  3  1  0
  3  4  2  0
  5  6  2  0
  5  7  2  0
  5  8  1  0
  9 12  1  0
 10 12  1  0
 11 12  2  0
 13 14  2  0
  1 15  1  0
 15 16  1  0
 16 17  1  0
 17 18  1  0
  9 19  1  0
 18 19  1  0
  3 20  1  0
 20 21  2  0
 21 22  1  0
  5 23  1  0
 22 23  2  0
 23 24  1  0
 20 25  1  0
 24 25  2  0
  9 26  1  0
 26 27  2  0
 14 28  1  0
 27 28  1  0
 28 29  2  0
 29 30  1  0
 26 31  1  0
 30 31  2  0
 32 33  1  0
 33 34  1  0
 34 35  1  0
 35 36  1  0
 14 37  1  0
 32 37  1  0
 36 37  1  0
M  END
