x0165-x0967
     RDKit          3D

 20 20  0  0  0  0  0  0  0  0999 V2000
    7.5060    5.0260   22.3670 C   0  0  0  0  0  0  0  0  0  0  0  0
    8.0820    2.5410   22.3610 N   0  0  0  0  0  0  0  0  0  0  0  0
    6.1580    3.3830   23.7330 O   0  0  0  0  0  0  0  0  0  0  0  0
    7.1960    3.6020   22.8690 C   0  0  0  0  0  0  0  0  0  0  0  0
    8.9360   -1.0700   22.9780 N   0  0  0  0  0  0  0  0  0  0  0  0
    5.6420    0.7410   17.0640 O   0  0  0  0  0  0  0  0  0  0  0  0
    7.8320    1.2470   23.0050 C   0  0  1  0  0  0  0  0  0  0  0  0
   10.0190    0.8560   22.0580 O   0  0  0  0  0  0  0  0  0  0  0  0
    6.5320    0.5700   22.5590 C   0  0  0  0  0  0  0  0  0  0  0  0
    9.0440    0.3730   22.6170 C   0  0  0  0  0  0  0  0  0  0  0  0
    9.7760   -1.9360   22.1220 C   0  0  0  0  0  0  0  0  0  0  0  0
   11.0920   -1.4770   22.0100 C   0  0  0  0  0  0  0  0  0  0  0  0
   12.0350   -1.7970   22.9760 C   0  0  0  0  0  0  0  0  0  0  0  0
   13.2620   -2.2690   24.3420 Br  0  0  0  0  0  0  0  0  0  0  0  0
    6.2620    0.6470   21.2100 C   0  0  0  0  0  0  0  0  0  0  0  0
    6.9470   -0.1840   20.3290 C   0  0  0  0  0  0  0  0  0  0  0  0
    6.7000   -0.1110   18.9800 C   0  0  0  0  0  0  0  0  0  0  0  0
    5.7930    0.7500   18.3780 C   0  0  0  0  0  0  0  0  0  0  0  0
    5.0000    1.6880   19.2800 C   0  0  0  0  0  0  0  0  0  0  0  0
    5.3070    1.5700   20.7550 C   0  0  0  0  0  0  0  0  0  0  0  0
  1  4  1  0
  2  4  1  0
  3  4  2  0
  2  7  1  0
  7  9  1  6
  5 10  1  0
  7 10  1  0
  8 10  2  0
  5 11  1  0
 11 12  1  0
 12 13  3  0
 13 14  1  0
  9 15  1  0
 15 16  2  0
 16 17  1  0
  6 18  1  0
 17 18  2  0
 18 19  1  0
 15 20  1  0
 19 20  2  0
M  END
