x0165-x0177
     RDKit          3D

 18 19  0  0  0  0  0  0  0  0999 V2000
   23.5140  -16.8180   25.4650 N   0  0  0  0  0  0  0  0  0  0  0  0
   24.5840  -17.8210   25.2670 C   0  0  0  0  0  0  0  0  0  0  0  0
   25.6950  -17.6350   25.7560 O   0  0  0  0  0  0  0  0  0  0  0  0
   22.7540  -22.0720   22.0060 C   0  0  0  0  0  0  0  0  0  0  0  0
   21.6580  -22.5400   22.3210 O   0  0  0  0  0  0  0  0  0  0  0  0
   23.3860  -22.4200   20.8230 N   0  0  0  0  0  0  0  0  0  0  0  0
   24.2680  -19.0840   24.4640 C   0  0  0  0  0  0  0  0  0  0  0  0
   22.7750  -19.3180   24.3290 C   0  0  0  0  0  0  0  0  0  0  0  0
   22.4780  -20.6000   23.8590 C   0  0  0  0  0  0  0  0  0  0  0  0
   23.3910  -21.1180   22.8400 N   0  0  0  0  0  0  0  0  0  0  0  0
   24.2630  -20.1960   22.2950 C   0  0  0  0  0  0  0  0  0  0  0  0
   24.8020  -19.1080   23.0250 C   0  0  0  0  0  0  0  0  0  0  0  0
   22.4870  -23.1450   18.6420 C   0  0  0  0  0  0  0  0  0  0  0  0
   21.8630  -24.1010   17.8350 C   0  0  0  0  0  0  0  0  0  0  0  0
   21.4670  -25.3370   18.3340 C   0  0  0  0  0  0  0  0  0  0  0  0
   21.7020  -25.6110   19.6780 C   0  0  0  0  0  0  0  0  0  0  0  0
   22.3200  -24.6810   20.5100 C   0  0  0  0  0  0  0  0  0  0  0  0
   22.7230  -23.4400   20.0010 C   0  0  0  0  0  0  0  0  0  0  0  0
  1  2  1  0
  2  3  2  0
  4  5  2  0
  4  6  1  0
  2  7  1  0
  7  8  1  0
  8  9  1  0
  4 10  1  0
  9 10  1  0
 10 11  1  0
  7 12  1  0
 11 12  1  0
 13 14  2  0
 14 15  1  0
 15 16  2  0
 16 17  1  0
  6 18  1  0
 13 18  1  0
 17 18  2  0
M  END
