x0165-x0831
     RDKit          3D

 18 19  0  0  0  0  0  0  0  0999 V2000
   12.7190   -2.0460   22.1670 C   0  0  0  0  0  0  0  0  0  0  0  0
    5.4310   -4.2450   19.6860 O   0  0  0  0  0  0  0  0  0  0  0  0
    9.9000   -2.2240   23.6000 C   0  0  0  0  0  0  0  0  0  0  0  0
    6.0010   -3.1800   19.8840 C   0  0  0  0  0  0  0  0  0  0  0  0
    6.5150   -2.2450   18.7720 C   0  0  0  0  0  0  0  0  0  0  0  0
   12.0800   -0.8910   22.8830 C   0  0  0  0  0  0  0  0  0  0  0  0
   10.7260   -1.0270   23.5650 C   0  0  0  0  0  0  0  0  0  0  0  0
   10.2230    0.1140   24.1850 C   0  0  0  0  0  0  0  0  0  0  0  0
   10.8930    1.3340   24.2030 C   0  0  0  0  0  0  0  0  0  0  0  0
   12.1340    1.4510   23.5720 C   0  0  0  0  0  0  0  0  0  0  0  0
   12.7190    0.3590   22.9190 C   0  0  0  0  0  0  0  0  0  0  0  0
    6.3150   -2.6570   21.2200 N   0  0  0  0  0  0  0  0  0  0  0  0
    6.2910   -1.2210   21.5180 C   0  0  0  0  0  0  0  0  0  0  0  0
    7.5410   -0.6280   21.2930 C   0  0  0  0  0  0  0  0  0  0  0  0
    8.7220   -1.5490   21.6300 C   0  0  0  0  0  0  0  0  0  0  0  0
    8.6740   -1.9930   23.0230 N   0  0  0  0  0  0  0  0  0  0  0  0
    7.5910   -2.9370   23.2800 C   0  0  0  0  0  0  0  0  0  0  0  0
    7.0150   -3.5330   22.1770 C   0  0  0  0  0  0  0  0  0  0  0  0
  2  4  2  0
  4  5  1  0
  1  6  1  0
  3  7  1  0
  6  7  2  0
  7  8  1  0
  8  9  2  0
  9 10  1  0
  6 11  1  0
 10 11  2  0
  4 12  1  0
 12 13  1  0
 13 14  1  0
 14 15  1  0
  3 16  1  0
 15 16  1  0
 16 17  1  0
 12 18  1  0
 17 18  1  0
M  END
