x0165-x1334
     RDKit          3D

 16 17  0  0  0  0  0  0  0  0999 V2000
    6.4660   -1.9580   18.7490 C   0  0  0  0  0  0  0  0  0  0  0  0
    5.4430   -4.0980   19.6650 O   0  0  0  0  0  0  0  0  0  0  0  0
    7.3270   -5.6900   28.3630 Cl  0  0  0  0  0  0  0  0  0  0  0  0
    6.1670   -2.9480   19.8870 C   0  0  0  0  0  0  0  0  0  0  0  0
    9.6000   -2.9750   24.0670 C   0  0  0  0  0  0  0  0  0  0  0  0
    6.7240   -2.6280   21.2070 N   0  0  0  0  0  0  0  0  0  0  0  0
    7.7690   -1.5920   21.2950 C   0  0  0  0  0  0  0  0  0  0  0  0
    8.9030   -2.0420   21.9980 C   0  0  0  0  0  0  0  0  0  0  0  0
    8.4890   -2.6210   23.2980 N   0  0  0  0  0  0  0  0  0  0  0  0
    7.6410   -3.8000   23.0720 C   0  0  0  0  0  0  0  0  0  0  0  0
    6.4730   -3.4510   22.3930 C   0  0  0  0  0  0  0  0  0  0  0  0
    9.8960   -5.2110   25.3730 C   0  0  0  0  0  0  0  0  0  0  0  0
    9.2770   -3.9950   25.1310 C   0  0  0  0  0  0  0  0  0  0  0  0
    8.0010   -3.7380   26.2550 S   0  0  0  0  0  0  0  0  0  0  0  0
    8.2890   -5.2170   27.0300 C   0  0  0  0  0  0  0  0  0  0  0  0
    9.3350   -5.9200   26.4590 C   0  0  0  0  0  0  0  0  0  0  0  0
  1  4  1  0
  2  4  2  0
  4  6  1  0
  6  7  1  0
  7  8  1  0
  5  9  1  0
  8  9  1  0
  9 10  1  0
  6 11  1  0
 10 11  1  0
  5 13  1  0
 12 13  2  0
 13 14  1  0
  3 15  1  0
 14 15  1  0
 12 16  1  0
 15 16  2  0
M  END
