x0177-x0731
     RDKit          3D

 19 20  0  0  0  0  0  0  0  0999 V2000
    0.8120   -0.9790   25.9810 C   0  0  0  0  0  0  0  0  0  0  0  0
    6.4290   -4.8220   26.5880 O   0  0  0  0  0  0  0  0  0  0  0  0
    4.6730   -6.5020   25.9280 O   0  0  0  0  0  0  0  0  0  0  0  0
    5.3300   -4.7190   19.8600 O   0  0  0  0  0  0  0  0  0  0  0  0
    6.2020   -4.2980   20.6170 C   0  0  0  0  0  0  0  0  0  0  0  0
    6.6990   -2.8770   20.4750 C   0  0  0  0  0  0  0  0  0  0  0  0
    5.3120   -5.2200   25.7640 S   0  0  0  0  0  0  0  0  0  0  0  0
    1.9460   -1.9560   25.9570 C   0  0  0  0  0  0  0  0  0  0  0  0
    1.7710   -3.3270   25.3730 C   0  0  0  0  0  0  0  0  0  0  0  0
    2.8060   -4.2410   25.3470 C   0  0  0  0  0  0  0  0  0  0  0  0
    4.0610   -3.9760   25.8450 C   0  0  0  0  0  0  0  0  0  0  0  0
    4.3670   -2.6100   26.4640 C   0  0  0  0  0  0  0  0  0  0  0  0
    3.1990   -1.6150   26.4790 C   0  0  0  0  0  0  0  0  0  0  0  0
    6.7780   -5.0780   21.5850 N   0  0  0  0  0  0  0  0  0  0  0  0
    7.6200   -4.4090   22.5790 C   0  0  0  0  0  0  0  0  0  0  0  0
    6.9390   -4.3650   23.9420 C   0  0  0  0  0  0  0  0  0  0  0  0
    5.7870   -5.0460   24.1410 N   0  0  0  0  0  0  0  0  0  0  0  0
    5.4030   -6.0260   23.2700 C   0  0  0  0  0  0  0  0  0  0  0  0
    6.1400   -6.2130   22.1080 C   0  0  0  0  0  0  0  0  0  0  0  0
  4  5  2  0
  5  6  1  0
  2  7  2  0
  3  7  2  0
  1  8  1  0
  8  9  2  0
  9 10  1  0
  7 11  1  0
 10 11  2  0
 11 12  1  0
  8 13  1  0
 12 13  2  0
  5 14  1  0
 14 15  1  0
 15 16  1  0
  7 17  1  0
 16 17  1  0
 17 18  1  0
 14 19  1  0
 18 19  1  0
M  END
