x0177-x0165
     RDKit          3D

 18 19  0  0  0  0  0  0  0  0999 V2000
   23.5370  -16.9400   25.5700 N   0  0  0  0  0  0  0  0  0  0  0  0
   24.5500  -17.8190   25.3130 C   0  0  0  0  0  0  0  0  0  0  0  0
   25.6640  -17.6200   25.7810 O   0  0  0  0  0  0  0  0  0  0  0  0
   22.6160  -22.0790   22.1150 C   0  0  0  0  0  0  0  0  0  0  0  0
   21.5290  -22.5450   22.4630 O   0  0  0  0  0  0  0  0  0  0  0  0
   23.2130  -22.4850   20.9370 N   0  0  0  0  0  0  0  0  0  0  0  0
   24.1970  -19.0290   24.4420 C   0  0  0  0  0  0  0  0  0  0  0  0
   22.7530  -19.2320   24.2740 C   0  0  0  0  0  0  0  0  0  0  0  0
   22.4790  -20.6190   23.8010 C   0  0  0  0  0  0  0  0  0  0  0  0
   23.2690  -21.0500   22.8810 N   0  0  0  0  0  0  0  0  0  0  0  0
   24.3320  -20.2670   22.2980 C   0  0  0  0  0  0  0  0  0  0  0  0
   24.7930  -18.9830   23.0330 C   0  0  0  0  0  0  0  0  0  0  0  0
   22.4630  -23.0970   18.7040 C   0  0  0  0  0  0  0  0  0  0  0  0
   21.9120  -24.0270   17.8510 C   0  0  0  0  0  0  0  0  0  0  0  0
   21.5440  -25.2760   18.3140 C   0  0  0  0  0  0  0  0  0  0  0  0
   21.7220  -25.5870   19.6080 C   0  0  0  0  0  0  0  0  0  0  0  0
   22.2800  -24.6890   20.5460 C   0  0  0  0  0  0  0  0  0  0  0  0
   22.6560  -23.4190   20.0660 C   0  0  0  0  0  0  0  0  0  0  0  0
  1  2  1  0
  2  3  2  0
  4  5  2  0
  4  6  1  0
  2  7  1  0
  7  8  1  0
  8  9  1  0
  4 10  1  0
  9 10  1  0
 10 11  1  0
  7 12  1  0
 11 12  1  0
 13 14  2  0
 14 15  1  0
 15 16  2  0
 16 17  1  0
  6 18  1  0
 13 18  1  0
 17 18  2  0
M  END
