x0177-x0194
     RDKit          3D

 26 29  0  0  0  0  0  0  0  0999 V2000
   23.6670  -16.5720   25.5830 N   0  0  0  0  0  0  0  0  0  0  0  0
   24.5490  -17.5970   25.3320 C   0  0  0  0  0  0  0  0  0  0  0  0
   25.6750  -17.6050   25.8140 O   0  0  0  0  0  0  0  0  0  0  0  0
   22.8190  -21.9190   22.1570 C   0  0  0  0  0  0  0  0  0  0  0  0
   21.7760  -22.6010   22.2160 O   0  0  0  0  0  0  0  0  0  0  0  0
   24.7040  -14.4470   24.7850 C   0  0  0  0  0  0  0  0  0  0  0  0
   23.9680  -15.1290   25.7730 C   0  0  0  0  0  0  0  0  0  0  0  0
   23.5630  -14.5560   26.7710 O   0  0  0  0  0  0  0  0  0  0  0  0
   24.0660  -18.7130   24.4520 C   0  0  0  0  0  0  0  0  0  0  0  0
   22.9160  -19.4060   24.8200 C   0  0  0  0  0  0  0  0  0  0  0  0
   22.5700  -20.5870   24.1820 C   0  0  0  0  0  0  0  0  0  0  0  0
   23.3060  -21.1070   23.1690 N   0  0  0  0  0  0  0  0  0  0  0  0
   24.2470  -20.1630   22.5670 C   0  0  0  0  0  0  0  0  0  0  0  0
   24.7290  -19.0800   23.3260 C   0  0  0  0  0  0  0  0  0  0  0  0
   22.5260  -23.4590   18.0690 C   0  0  0  0  0  0  0  0  0  0  0  0
   21.8030  -24.5310   17.6060 C   0  0  0  0  0  0  0  0  0  0  0  0
   21.3710  -25.5220   18.4880 C   0  0  0  0  0  0  0  0  0  0  0  0
   21.6770  -25.4230   19.8500 C   0  0  0  0  0  0  0  0  0  0  0  0
   22.4170  -24.3330   20.3180 C   0  0  0  0  0  0  0  0  0  0  0  0
   22.8480  -23.3430   19.4130 C   0  0  0  0  0  0  0  0  0  0  0  0
   25.3420  -19.8800   20.3570 N   0  0  0  0  0  0  0  0  0  0  0  0
   25.2790  -20.3480   19.1030 C   0  0  0  0  0  0  0  0  0  0  0  0
   24.4120  -21.5130   18.6330 C   0  0  0  0  0  0  0  0  0  0  0  0
   23.6480  -22.1850   19.7920 C   0  0  0  0  0  0  0  0  0  0  0  0
   23.7440  -21.7360   21.0780 N   0  0  0  0  0  0  0  0  0  0  0  0
   24.4740  -20.5600   21.3140 C   0  0  0  0  0  0  0  0  0  0  0  0
  1  2  1  0
  2  3  2  0
  4  5  2  0
  1  7  1  0
  6  7  1  0
  7  8  2  0
  2  9  1  0
  9 10  1  0
 10 11  2  0
  4 12  1  0
 11 12  1  0
 12 13  1  0
  9 14  2  0
 13 14  1  0
 15 16  2  0
 16 17  1  0
 17 18  2  0
 18 19  1  0
 15 20  1  0
 19 20  2  0
 21 22  2  0
 22 23  1  0
 20 24  1  0
 23 24  2  0
  4 25  1  0
 24 25  1  0
 13 26  2  0
 21 26  1  0
 25 26  1  0
M  END
