x0177-x0395
     RDKit          3D

 18 19  0  0  0  0  0  0  0  0999 V2000
   23.6530  -16.7430   25.7330 N   0  0  0  0  0  0  0  0  0  0  0  0
   24.5710  -17.6870   25.3700 C   0  0  0  0  0  0  0  0  0  0  0  0
   25.7470  -17.6070   25.6890 O   0  0  0  0  0  0  0  0  0  0  0  0
   22.7440  -21.9890   22.1590 C   0  0  0  0  0  0  0  0  0  0  0  0
   21.6390  -22.4660   22.4660 O   0  0  0  0  0  0  0  0  0  0  0  0
   23.3650  -22.3490   20.9780 N   0  0  0  0  0  0  0  0  0  0  0  0
   24.0910  -18.8660   24.5850 C   0  0  0  0  0  0  0  0  0  0  0  0
   22.7490  -19.0310   24.2840 C   0  0  0  0  0  0  0  0  0  0  0  0
   22.4390  -20.4530   23.9700 C   0  0  0  0  0  0  0  0  0  0  0  0
   23.3710  -21.0080   22.9990 N   0  0  0  0  0  0  0  0  0  0  0  0
   24.2620  -20.0020   22.3650 C   0  0  0  0  0  0  0  0  0  0  0  0
   24.8270  -19.0410   23.2420 C   0  0  0  0  0  0  0  0  0  0  0  0
   22.5630  -22.9860   18.7190 C   0  0  0  0  0  0  0  0  0  0  0  0
   21.9210  -24.0140   17.8080 C   0  0  0  0  0  0  0  0  0  0  0  0
   21.4880  -25.3630   18.3550 C   0  0  0  0  0  0  0  0  0  0  0  0
   21.7290  -25.6180   19.8410 C   0  0  0  0  0  0  0  0  0  0  0  0
   22.3940  -24.4930   20.6690 C   0  0  0  0  0  0  0  0  0  0  0  0
   22.7690  -23.2660   20.0790 C   0  0  0  0  0  0  0  0  0  0  0  0
  1  2  1  0
  2  3  2  0
  4  5  2  0
  4  6  1  0
  2  7  1  0
  7  8  1  0
  8  9  1  0
  4 10  1  0
  9 10  1  0
 10 11  1  0
  7 12  1  0
 11 12  1  0
 13 14  2  0
 14 15  1  0
 15 16  2  0
 16 17  1  0
  6 18  1  0
 13 18  1  0
 17 18  2  0
M  END
