x0177-x0734
     RDKit          3D

 18 19  0  0  0  0  0  0  0  0999 V2000
   23.6300  -16.7190   25.6650 N   0  0  0  0  0  0  0  0  0  0  0  0
   24.5560  -17.6740   25.3530 C   0  0  0  0  0  0  0  0  0  0  0  0
   25.7270  -17.5950   25.7030 O   0  0  0  0  0  0  0  0  0  0  0  0
   22.7580  -21.9930   22.1510 C   0  0  0  0  0  0  0  0  0  0  0  0
   21.6520  -22.4580   22.4600 O   0  0  0  0  0  0  0  0  0  0  0  0
   23.3740  -22.3520   20.9660 N   0  0  0  0  0  0  0  0  0  0  0  0
   24.0980  -18.8650   24.5680 C   0  0  0  0  0  0  0  0  0  0  0  0
   22.7530  -19.0650   24.2850 C   0  0  0  0  0  0  0  0  0  0  0  0
   22.4800  -20.4950   23.9770 C   0  0  0  0  0  0  0  0  0  0  0  0
   23.4010  -21.0290   22.9910 N   0  0  0  0  0  0  0  0  0  0  0  0
   24.2580  -19.9990   22.3490 C   0  0  0  0  0  0  0  0  0  0  0  0
   24.8200  -19.0290   23.2220 C   0  0  0  0  0  0  0  0  0  0  0  0
   22.5670  -22.9930   18.7120 C   0  0  0  0  0  0  0  0  0  0  0  0
   21.9190  -24.0210   17.8040 C   0  0  0  0  0  0  0  0  0  0  0  0
   21.4870  -25.3680   18.3570 C   0  0  0  0  0  0  0  0  0  0  0  0
   21.7300  -25.6210   19.8410 C   0  0  0  0  0  0  0  0  0  0  0  0
   22.3980  -24.4950   20.6660 C   0  0  0  0  0  0  0  0  0  0  0  0
   22.7750  -23.2710   20.0710 C   0  0  0  0  0  0  0  0  0  0  0  0
  1  2  1  0
  2  3  2  0
  4  5  2  0
  4  6  1  0
  2  7  1  0
  7  8  1  0
  8  9  1  0
  4 10  1  0
  9 10  1  0
 10 11  1  0
  7 12  1  0
 11 12  1  0
 13 14  2  0
 14 15  1  0
 15 16  2  0
 16 17  1  0
  6 18  1  0
 13 18  1  0
 17 18  2  0
M  END
