x0177-x1348
     RDKit          3D

 18 19  0  0  0  0  0  0  0  0999 V2000
   23.6670  -16.7060   25.6570 N   0  0  0  0  0  0  0  0  0  0  0  0
   24.5660  -17.6930   25.3640 C   0  0  0  0  0  0  0  0  0  0  0  0
   25.7320  -17.6520   25.7400 O   0  0  0  0  0  0  0  0  0  0  0  0
   22.7460  -21.9930   22.1640 C   0  0  0  0  0  0  0  0  0  0  0  0
   21.6400  -22.4600   22.4730 O   0  0  0  0  0  0  0  0  0  0  0  0
   23.3760  -22.3760   20.9930 N   0  0  0  0  0  0  0  0  0  0  0  0
   24.0890  -18.8680   24.5730 C   0  0  0  0  0  0  0  0  0  0  0  0
   22.7450  -19.0370   24.2880 C   0  0  0  0  0  0  0  0  0  0  0  0
   22.4400  -20.4600   23.9650 C   0  0  0  0  0  0  0  0  0  0  0  0
   23.3700  -21.0060   22.9930 N   0  0  0  0  0  0  0  0  0  0  0  0
   24.2480  -19.9950   22.3490 C   0  0  0  0  0  0  0  0  0  0  0  0
   24.8050  -19.0220   23.2220 C   0  0  0  0  0  0  0  0  0  0  0  0
   22.5740  -22.9960   18.7290 C   0  0  0  0  0  0  0  0  0  0  0  0
   21.9270  -24.0150   17.8110 C   0  0  0  0  0  0  0  0  0  0  0  0
   21.4870  -25.3650   18.3540 C   0  0  0  0  0  0  0  0  0  0  0  0
   21.7250  -25.6300   19.8370 C   0  0  0  0  0  0  0  0  0  0  0  0
   22.3940  -24.5120   20.6710 C   0  0  0  0  0  0  0  0  0  0  0  0
   22.7780  -23.2840   20.0900 C   0  0  0  0  0  0  0  0  0  0  0  0
  1  2  1  0
  2  3  2  0
  4  5  2  0
  4  6  1  0
  2  7  1  0
  7  8  1  0
  8  9  1  0
  4 10  1  0
  9 10  1  0
 10 11  1  0
  7 12  1  0
 11 12  1  0
 13 14  2  0
 14 15  1  0
 15 16  2  0
 16 17  1  0
  6 18  1  0
 13 18  1  0
 17 18  2  0
M  END
