x0195-x1249
     RDKit          3D

 25 27  0  0  0  0  0  0  0  0999 V2000
    8.1610    0.5120   25.1790 N   0  0  0  0  0  0  0  0  0  0  0  0
    7.5080    1.3190   24.2200 C   0  0  0  0  0  0  0  0  0  0  0  0
    8.0620    2.2430   23.6390 O   0  0  0  0  0  0  0  0  0  0  0  0
    9.5140    0.6180   25.3720 C   0  0  0  0  0  0  0  0  0  0  0  0
   13.5270   -2.7180   20.7990 N   0  0  0  0  0  0  0  0  0  0  0  0
   12.7590   -1.8040   21.5620 C   0  0  0  0  0  0  0  0  0  0  0  0
   10.3250    4.8590   23.1510 S   0  0  0  0  0  0  0  0  0  0  0  0
   10.5790    5.1410   24.5340 O   0  0  0  0  0  0  0  0  0  0  0  0
    8.9970    4.9600   22.6040 O   0  0  0  0  0  0  0  0  0  0  0  0
   11.4030    5.7450   22.2390 N   0  0  0  0  0  0  0  0  0  0  0  0
    3.5290    0.9610   23.5800 O   0  0  0  0  0  0  0  0  0  0  0  0
    4.2900    0.8240   22.6040 C   0  0  0  0  0  0  0  0  0  0  0  0
    5.6380    1.4460   22.7950 C   0  0  0  0  0  0  0  0  0  0  0  0
    6.1920    0.9980   23.9870 N   0  0  0  0  0  0  0  0  0  0  0  0
    5.3440    0.4370   25.0290 C   0  0  0  0  0  0  0  0  0  0  0  0
    3.8980    0.3270   24.5720 C   0  0  0  0  0  0  0  0  0  0  0  0
   10.9770    1.0120   23.1450 C   0  0  1  0  0  0  0  0  0  0  0  0
   12.0250    0.2860   22.6280 C   0  0  0  0  0  0  0  0  0  0  0  0
   11.8390   -0.9580   22.1630 C   0  0  0  0  0  0  0  0  0  0  0  0
   10.6300   -1.3760   22.2730 C   0  0  0  0  0  0  0  0  0  0  0  0
   10.0580   -1.0510   23.4870 C   0  0  0  0  0  0  0  0  0  0  0  0
   10.1370    0.2080   24.1450 C   0  0  0  0  0  0  0  0  0  0  0  0
   11.5740    2.3180   23.7500 C   0  0  0  0  0  0  0  0  0  0  0  0
   10.6140    3.0590   23.0430 C   0  0  0  0  0  0  0  0  0  0  0  0
   10.0870    2.0140   22.3590 C   0  0  0  0  0  0  0  0  0  0  0  0
  1  2  1  0
  2  3  2  0
  1  4  1  0
  5  6  3  0
  7  8  2  0
  7  9  2  0
  7 10  1  0
 11 12  1  0
 12 13  1  0
  2 14  1  0
 13 14  1  0
 14 15  1  0
 11 16  1  0
 15 16  1  0
 17 18  1  6
  6 19  1  0
 18 19  2  0
 19 20  1  0
 20 21  1  0
  4 22  1  0
 17 22  1  0
 21 22  2  0
 17 23  1  0
  7 24  1  0
 23 24  1  0
 17 25  1  0
 24 25  2  0
M  END
