x0195-x0770
     RDKit          3D

 24 27  0  0  0  0  0  0  0  0999 V2000
    7.3210   -3.4190   19.1530 C   0  0  0  0  0  0  0  0  0  0  0  0
    5.1630   -3.6470   19.5280 O   0  0  0  0  0  0  0  0  0  0  0  0
   14.4720   -0.9260   23.3560 Cl  0  0  0  0  0  0  0  0  0  0  0  0
    6.1920   -3.0900   19.9590 C   0  0  0  0  0  0  0  0  0  0  0  0
    9.3030   -1.4910   23.8260 C   0  0  0  0  0  0  0  0  0  0  0  0
   10.5010    4.4240   23.7730 S   0  0  0  0  0  0  0  0  0  0  0  0
    9.8720    4.7150   25.0240 O   0  0  0  0  0  0  0  0  0  0  0  0
    9.7590    5.1910   22.8100 O   0  0  0  0  0  0  0  0  0  0  0  0
   12.0320    5.1230   23.6720 N   0  0  0  0  0  0  0  0  0  0  0  0
    6.4120   -2.3710   21.1530 N   0  0  0  0  0  0  0  0  0  0  0  0
    7.1520   -1.2810   21.1150 C   0  0  0  0  0  0  0  0  0  0  0  0
    8.6290   -1.7460   21.5280 C   0  0  0  0  0  0  0  0  0  0  0  0
    8.8010   -2.3500   22.8690 N   0  0  0  0  0  0  0  0  0  0  0  0
    7.7300   -3.0920   23.2390 C   0  0  0  0  0  0  0  0  0  0  0  0
    6.3870   -3.0310   22.4700 C   0  0  0  0  0  0  0  0  0  0  0  0
   11.0000    0.3590   22.8570 C   0  0  2  0  0  0  0  0  0  0  0  0
   12.2820    0.5920   22.0710 C   0  0  0  0  0  0  0  0  0  0  0  0
   12.8470   -0.5680   23.8010 C   0  0  2  0  0  0  0  0  0  0  0  0
   11.7640   -1.3530   24.1620 C   0  0  0  0  0  0  0  0  0  0  0  0
   10.6240   -0.8620   23.6210 C   0  0  0  0  0  0  0  0  0  0  0  0
   10.2850    1.5020   22.6090 C   0  0  0  0  0  0  0  0  0  0  0  0
   10.3780    2.7640   23.1110 C   0  0  0  0  0  0  0  0  0  0  0  0
   11.5200    2.0880   24.0190 C   0  0  0  0  0  0  0  0  0  0  0  0
   12.3110    0.8270   23.4370 C   0  0  2  0  0  0  0  0  0  0  0  0
  1  4  1  0
  2  4  2  0
  6  7  2  0
  6  8  2  0
  6  9  1  0
  4 10  1  0
 10 11  1  0
 11 12  1  0
  5 13  1  0
 12 13  1  0
 13 14  1  0
 10 15  1  0
 14 15  1  0
 16 17  1  6
 18  3  1  6
 18 19  1  0
  5 20  1  0
 16 20  1  0
 19 20  2  0
 16 21  1  0
  6 22  1  0
 21 22  2  0
 22 23  1  0
 16 24  1  0
 24 17  1  6
 18 24  1  0
 23 24  1  0
M  END
