x0195-x0104
     RDKit          3D

 17 18  0  0  0  0  0  0  0  0999 V2000
    9.2700    6.4500   22.7190 C   0  0  0  0  0  0  0  0  0  0  0  0
   10.4410    6.0880   23.4370 C   0  0  0  0  0  0  0  0  0  0  0  0
   10.5380    6.2690   24.6450 O   0  0  0  0  0  0  0  0  0  0  0  0
   11.4070    5.5350   22.6310 N   0  0  0  0  0  0  0  0  0  0  0  0
   12.4320    5.1370   23.0620 C   0  0  0  0  0  0  0  0  0  0  0  0
   12.7470    3.7740   22.5370 C   0  0  0  0  0  0  0  0  0  0  0  0
   13.5860   -1.9900   22.2160 F   0  0  0  0  0  0  0  0  0  0  0  0
    9.5250   -1.2990   24.3790 C   0  0  0  0  0  0  0  0  0  0  0  0
   11.8320    2.7090   23.0700 C   0  0  0  0  0  0  0  0  0  0  0  0
   10.5220    3.0090   23.7570 C   0  0  0  0  0  0  0  0  0  0  0  0
    9.9520    1.8270   24.0950 N   0  0  0  0  0  0  0  0  0  0  0  0
   10.8060    0.7150   23.6670 C   0  0  0  0  0  0  0  0  0  0  0  0
   11.9540    1.1620   23.0540 C   0  0  0  0  0  0  0  0  0  0  0  0
   10.6160   -0.7870   23.7930 C   0  0  0  0  0  0  0  0  0  0  0  0
   11.5530   -1.6090   23.3010 C   0  0  0  0  0  0  0  0  0  0  0  0
   12.7030   -1.1330   22.6890 C   0  0  0  0  0  0  0  0  0  0  0  0
   12.9060    0.2370   22.5780 C   0  0  0  0  0  0  0  0  0  0  0  0
  1  2  1  0
  2  3  2  0
  2  4  1  0
  4  5  1  0
  5  6  1  0
  6  9  1  0
  9 10  2  0
 10 11  1  0
 11 12  1  0
  9 13  1  0
 12 13  2  0
  8 14  1  0
 12 14  1  0
 14 15  2  0
  7 16  1  0
 15 16  1  0
 13 17  1  0
 16 17  2  0
M  END
