x0305-x0830
     RDKit          3D

 24 27  0  0  0  0  0  0  0  0999 V2000
    7.7480   -3.6100   19.5470 C   0  0  0  0  0  0  0  0  0  0  0  0
    5.5060   -3.2010   19.1770 O   0  0  0  0  0  0  0  0  0  0  0  0
    6.5340   -2.9250   19.8850 C   0  0  0  0  0  0  0  0  0  0  0  0
    9.7550   -2.4650   23.7310 C   0  0  0  0  0  0  0  0  0  0  0  0
    8.1440   -0.1630   26.4730 C   0  0  0  0  0  0  0  0  0  0  0  0
    8.4690   -0.3330   25.0240 C   0  0  0  0  0  0  0  0  0  0  0  0
   13.2630   -2.1330   22.2080 C   0  0  2  0  0  0  0  0  0  0  0  0
   13.1930   -2.5610   20.8360 N   0  0  0  0  0  0  0  0  0  0  0  0
    6.6140   -2.1040   21.0030 N   0  0  0  0  0  0  0  0  0  0  0  0
    6.3860   -2.6870   22.3500 C   0  0  0  0  0  0  0  0  0  0  0  0
    7.6340   -3.2130   22.7690 C   0  0  0  0  0  0  0  0  0  0  0  0
    8.5670   -2.1180   23.0280 N   0  0  0  0  0  0  0  0  0  0  0  0
    8.7990   -1.3830   21.8040 C   0  0  0  0  0  0  0  0  0  0  0  0
    7.7040   -1.1580   20.9720 C   0  0  0  0  0  0  0  0  0  0  0  0
   11.9970   -1.8360   22.8560 C   0  0  0  0  0  0  0  0  0  0  0  0
   12.9660   -0.9140   22.5560 C   0  0  0  0  0  0  0  0  0  0  0  0
   12.9120    0.4230   22.8070 C   0  0  0  0  0  0  0  0  0  0  0  0
   11.7360    0.9610   23.4620 C   0  0  0  0  0  0  0  0  0  0  0  0
   10.6840   -0.0160   23.8380 C   0  0  0  0  0  0  0  0  0  0  0  0
   10.8660   -1.3270   23.4870 C   0  0  0  0  0  0  0  0  0  0  0  0
   11.6390    2.2560   23.6910 C   0  0  0  0  0  0  0  0  0  0  0  0
   10.4830    2.6660   24.3340 C   0  0  0  0  0  0  0  0  0  0  0  0
    9.5160    1.8170   24.7360 C   0  0  0  0  0  0  0  0  0  0  0  0
    9.5470    0.4700   24.5320 C   0  0  0  0  0  0  0  0  0  0  0  0
  1  3  1  0
  2  3  2  0
  5  6  1  0
  7  8  1  6
  3  9  1  0
  9 10  1  0
 10 11  1  0
  4 12  1  0
 11 12  1  0
 12 13  1  0
  9 14  1  0
 13 14  1  0
  7 15  1  0
  7 16  1  0
 15 16  2  0
 16 17  1  0
 17 18  2  0
 18 19  1  0
  4 20  1  0
 15 20  1  0
 19 20  2  0
 18 21  1  0
 21 22  2  0
 22 23  1  0
  6 24  1  0
 19 24  1  0
 23 24  2  0
M  END
