x0305-x0731-x0771-x2705-x3117
     RDKit          3D

 55 61  0  0  0  0  0  0  0  0999 V2000
    6.8480   -1.4150   21.9670 N   0  0  0  0  0  0  0  0  0  0  0  0
    6.8400   -4.4270   20.3120 C   0  0  2  0  0  0  0  0  0  0  0  0
    4.8070   -3.0040   21.3010 O   0  0  0  0  0  0  0  0  0  0  0  0
    7.0840   -3.6380   21.4650 C   0  0  2  0  0  0  0  0  0  0  0  0
    7.2830    2.0900   22.8340 N   0  0  0  0  0  0  0  0  0  0  0  0
    8.7750    0.9210   21.5160 O   0  0  0  0  0  0  0  0  0  0  0  0
    6.0860   -2.6240   21.5710 C   0  0  0  0  0  0  0  0  0  0  0  0
    6.5170    0.0020   21.6270 C   0  0  1  0  0  0  0  0  0  0  0  0
    7.6400    1.0350   21.9940 C   0  0  0  0  0  0  0  0  0  0  0  0
    9.8670    1.9280   24.1700 C   0  0  0  0  0  0  0  0  0  0  0  0
    8.8390    1.3880   25.1800 C   0  0  0  0  0  0  0  0  0  0  0  0
    6.2300    4.5570   21.7770 C   0  0  0  0  0  0  0  0  0  0  0  0
   11.9930   -1.4570   23.2300 C   0  0  2  0  0  0  0  0  0  0  0  0
   12.5080   -0.1330   23.8380 C   0  0  0  0  0  0  0  0  0  0  0  0
   12.4140   -2.6930   24.0660 C   0  0  0  0  0  0  0  0  0  0  0  0
   12.7360   -1.6580   21.8850 C   0  0  0  0  0  0  0  0  0  0  0  0
   13.3920   -2.5220   25.2100 C   0  0  0  0  0  0  0  0  0  0  0  0
    5.5850   -4.3230   19.6620 O   0  0  0  0  0  0  0  0  0  0  0  0
    0.6320   -1.4190   26.2270 C   0  0  0  0  0  0  0  0  0  0  0  0
    4.4270   -6.9750   25.8290 O   0  0  0  0  0  0  0  0  0  0  0  0
    6.0800   -5.2950   26.6930 O   0  0  0  0  0  0  0  0  0  0  0  0
    1.9980   -6.0840   24.9840 C   0  0  0  0  0  0  0  0  0  0  0  0
    5.0530   -5.6750   25.7550 S   0  0  0  0  0  0  0  0  0  0  0  0
    8.5400   -0.0150   27.1190 C   0  0  0  0  0  0  0  0  0  0  0  0
    9.1900    0.0610   25.8710 C   0  0  0  0  0  0  0  0  0  0  0  0
   13.3610   -1.8130   20.9230 N   0  0  0  0  0  0  0  0  0  0  0  0
    6.3250    0.3650   17.8830 N   0  0  0  0  0  0  0  0  0  0  0  0
    5.2040    1.0700   17.7820 C   0  0  0  0  0  0  0  0  0  0  0  0
    4.4440    1.4420   18.8350 C   0  0  0  0  0  0  0  0  0  0  0  0
    4.8470    1.0900   20.1000 C   0  0  0  0  0  0  0  0  0  0  0  0
    6.0210    0.3630   20.2670 C   0  0  0  0  0  0  0  0  0  0  0  0
    6.7640   -0.0050   19.0910 C   0  0  0  0  0  0  0  0  0  0  0  0
    9.6410   -1.6570   24.1850 N   0  0  0  0  0  0  0  0  0  0  0  0
    8.3090   -1.6550   23.9030 N   0  0  0  0  0  0  0  0  0  0  0  0
    8.1680   -1.4780   22.5770 C   0  0  0  0  0  0  0  0  0  0  0  0
    9.4840   -1.3820   22.1130 C   0  0  0  0  0  0  0  0  0  0  0  0
   10.4560   -1.4880   23.1060 C   0  0  0  0  0  0  0  0  0  0  0  0
    9.3240    3.2290   23.6090 C   0  0  0  0  0  0  0  0  0  0  0  0
   10.0810    4.4070   23.7350 C   0  0  0  0  0  0  0  0  0  0  0  0
    9.5910    5.6170   23.2320 C   0  0  0  0  0  0  0  0  0  0  0  0
    8.3330    5.6620   22.5930 C   0  0  0  0  0  0  0  0  0  0  0  0
    7.5690    4.4760   22.4640 C   0  0  0  0  0  0  0  0  0  0  0  0
    8.0660    3.2690   22.9710 C   0  0  0  0  0  0  0  0  0  0  0  0
    1.7000   -2.4610   26.0910 C   0  0  0  0  0  0  0  0  0  0  0  0
    1.4000   -3.7560   25.6110 C   0  0  0  0  0  0  0  0  0  0  0  0
    2.4180   -4.7360   25.5000 C   0  0  0  0  0  0  0  0  0  0  0  0
    3.7580   -4.4530   25.8630 C   0  0  0  0  0  0  0  0  0  0  0  0
    4.1130   -3.1950   26.3330 C   0  0  0  0  0  0  0  0  0  0  0  0
    3.0070   -2.1620   26.4440 C   0  0  0  0  0  0  0  0  0  0  0  0
    6.9160   -5.2490   21.5510 C   0  0  1  0  0  0  0  0  0  0  0  0
    5.8910   -6.3190   21.8760 C   0  0  0  0  0  0  0  0  0  0  0  0
    4.9790   -6.0270   23.0290 C   0  0  0  0  0  0  0  0  0  0  0  0
    5.7110   -5.5010   24.1970 N   0  0  0  0  0  0  0  0  0  0  0  0
    6.3860   -4.2220   23.9170 C   0  0  0  0  0  0  0  0  0  0  0  0
    7.3110   -4.3950   22.6970 C   0  0  2  0  0  0  0  0  0  0  0  0
  2  4  1  0
  1  7  1  0
  3  7  2  0
  4  7  1  1
  1  8  1  0
  5  9  1  0
  6  9  2  0
  8  9  1  6
 10 11  1  0
 13 14  1  1
 13 15  1  0
 13 16  1  0
 15 17  1  0
  2 18  1  1
 20 23  2  0
 21 23  2  0
 11 25  1  0
 24 25  1  0
 16 26  3  0
 27 28  2  0
 28 29  1  0
 29 30  2  0
  8 31  1  0
 30 31  1  0
 27 32  1  0
 31 32  2  0
 33 34  1  0
  1 35  1  0
 34 35  2  0
 35 36  1  0
 13 37  1  0
 33 37  1  0
 36 37  2  0
 10 38  1  0
 38 39  2  0
 39 40  1  0
 40 41  2  0
 12 42  1  0
 41 42  1  0
  5 43  1  0
 38 43  1  0
 42 43  2  0
 19 44  1  0
 44 45  2  0
 22 46  1  0
 45 46  1  0
 23 47  1  0
 46 47  2  0
 47 48  1  0
 44 49  1  0
 48 49  2  0
  2 50  1  0
  4 50  1  0
 50 51  1  1
 51 52  1  0
 23 53  1  0
 52 53  1  0
 53 54  1  0
  4 55  1  0
 50 55  1  0
 55 54  1  1
M  END
