x0305-x0991
     RDKit          3D

 18 18  0  0  0  0  0  0  0  0999 V2000
    8.2610   -0.5470   27.5180 C   0  0  0  0  0  0  0  0  0  0  0  0
    8.5340   -0.5480   26.0130 C   0  0  1  0  0  0  0  0  0  0  0  0
    9.7560    0.1530   25.6110 N   0  0  0  0  0  0  0  0  0  0  0  0
   13.0920   -1.3790   21.5770 C   0  0  0  0  0  0  0  0  0  0  0  0
   13.8740   -1.6220   20.5370 N   0  0  0  0  0  0  0  0  0  0  0  0
   10.0600   -5.3130   25.3520 N   0  0  0  0  0  0  0  0  0  0  0  0
    8.5660   -3.4290   23.6130 C   0  0  0  0  0  0  0  0  0  0  0  0
    7.9240   -4.6750   24.1370 C   0  0  0  0  0  0  0  0  0  0  0  0
    7.9710   -5.2120   26.7440 N   0  0  0  0  0  0  0  0  0  0  0  0
    8.6290   -5.0700   25.4570 C   0  0  0  0  0  0  0  0  0  0  0  0
    8.3870   -1.9850   25.5380 C   0  0  0  0  0  0  0  0  0  0  0  0
    9.1840   -2.6200   24.5760 C   0  0  0  0  0  0  0  0  0  0  0  0
   10.5790   -0.2990   24.5240 C   0  0  0  0  0  0  0  0  0  0  0  0
   11.7390    0.3670   24.3770 N   0  0  0  0  0  0  0  0  0  0  0  0
   12.5420   -0.0260   23.3880 C   0  0  0  0  0  0  0  0  0  0  0  0
   12.2150   -1.0320   22.5770 C   0  0  0  0  0  0  0  0  0  0  0  0
   11.0360   -1.7520   22.6680 C   0  0  0  0  0  0  0  0  0  0  0  0
   10.1950   -1.3550   23.6860 C   0  0  0  0  0  0  0  0  0  0  0  0
  2  1  1  1
  2  3  1  0
  4  5  3  0
  7  8  1  0
  6 10  2  3
  8 10  1  0
  9 10  1  0
  2 11  1  0
  7 12  1  0
 11 12  1  0
  3 13  1  0
 13 14  2  0
 14 15  1  0
  4 16  1  0
 15 16  2  0
 16 17  1  0
 13 18  1  0
 17 18  2  0
M  END
