x0305-x2705
     RDKit          3D

 36 38  0  0  0  0  0  0  0  0999 V2000
    7.0190   -1.5710   21.7220 N   0  0  0  0  0  0  0  0  0  0  0  0
    6.9610   -5.0410   20.7590 C   0  0  0  0  0  0  0  0  0  0  0  0
    4.8690   -3.0420   21.2050 O   0  0  0  0  0  0  0  0  0  0  0  0
    6.9110   -4.0290   21.8530 C   0  0  0  0  0  0  0  0  0  0  0  0
    7.2410    1.9450   22.7320 N   0  0  0  0  0  0  0  0  0  0  0  0
    8.7450    0.7420   21.4500 O   0  0  0  0  0  0  0  0  0  0  0  0
    6.1490   -2.8010   21.5620 C   0  0  0  0  0  0  0  0  0  0  0  0
    6.4970   -0.1540   21.6380 C   0  0  1  0  0  0  0  0  0  0  0  0
    7.6140    0.8510   21.9220 C   0  0  0  0  0  0  0  0  0  0  0  0
    9.8450    1.8620   24.1220 C   0  0  0  0  0  0  0  0  0  0  0  0
    8.8520    1.3150   25.1560 C   0  0  0  0  0  0  0  0  0  0  0  0
    6.1860    4.4430   21.7120 C   0  0  0  0  0  0  0  0  0  0  0  0
   12.1300   -1.4640   23.2030 C   0  0  0  0  0  0  0  0  0  0  0  0
   12.4710   -0.2270   23.7650 C   0  0  0  0  0  0  0  0  0  0  0  0
   12.6560   -2.5090   24.2220 C   0  0  0  0  0  0  0  0  0  0  0  0
   12.7290   -1.7150   22.0250 C   0  0  0  0  0  0  0  0  0  0  0  0
    8.5410   -0.0270   27.1760 C   0  0  0  0  0  0  0  0  0  0  0  0
    9.2180    0.0010   25.8650 C   0  0  0  0  0  0  0  0  0  0  0  0
   13.2770   -1.9050   21.0170 N   0  0  0  0  0  0  0  0  0  0  0  0
    6.4290    0.3740   17.9090 N   0  0  0  0  0  0  0  0  0  0  0  0
    5.2880    1.0980   17.8130 C   0  0  0  0  0  0  0  0  0  0  0  0
    4.4890    1.4340   18.8690 C   0  0  0  0  0  0  0  0  0  0  0  0
    4.8580    1.0230   20.1380 C   0  0  0  0  0  0  0  0  0  0  0  0
    6.0360    0.2830   20.2740 C   0  0  0  0  0  0  0  0  0  0  0  0
    6.7560   -0.0070   19.1550 C   0  0  0  0  0  0  0  0  0  0  0  0
    9.8740   -1.9420   24.1590 N   0  0  0  0  0  0  0  0  0  0  0  0
    8.4800   -1.9630   23.7130 N   0  0  0  0  0  0  0  0  0  0  0  0
    8.3060   -1.6390   22.4000 C   0  0  0  0  0  0  0  0  0  0  0  0
    9.6480   -1.4220   22.0620 C   0  0  0  0  0  0  0  0  0  0  0  0
   10.5890   -1.5930   23.0870 C   0  0  0  0  0  0  0  0  0  0  0  0
    9.2650    3.1440   23.5560 C   0  0  0  0  0  0  0  0  0  0  0  0
   10.0010    4.3380   23.7050 C   0  0  0  0  0  0  0  0  0  0  0  0
    9.4790    5.5410   23.2020 C   0  0  0  0  0  0  0  0  0  0  0  0
    8.2380    5.5480   22.5590 C   0  0  0  0  0  0  0  0  0  0  0  0
    7.5140    4.3560   22.4130 C   0  0  0  0  0  0  0  0  0  0  0  0
    8.0240    3.1410   22.9090 C   0  0  0  0  0  0  0  0  0  0  0  0
  2  4  1  0
  1  7  1  0
  3  7  2  0
  4  7  1  0
  1  8  1  0
  5  9  1  0
  6  9  2  0
  8  9  1  6
 10 11  1  0
 13 14  1  0
 13 15  1  0
 13 16  1  0
 11 18  1  0
 17 18  1  0
 16 19  3  0
 20 21  2  0
 21 22  1  0
 22 23  2  0
  8 24  1  0
 23 24  1  0
 20 25  1  0
 24 25  2  0
 26 27  1  0
  1 28  1  0
 27 28  1  0
 28 29  2  0
 13 30  1  0
 26 30  2  0
 29 30  1  0
 10 31  1  0
 31 32  2  0
 32 33  1  0
 33 34  2  0
 12 35  1  0
 34 35  1  0
  5 36  1  0
 31 36  1  0
 35 36  2  0
M  END
