x0305-x2052
     RDKit          3D

 32 34  0  0  0  0  0  0  0  0999 V2000
    5.7670   -1.5300   25.0420 C   0  0  0  0  0  0  0  0  0  0  0  0
    4.4110   -1.8970   25.2940 O   0  0  0  0  0  0  0  0  0  0  0  0
    6.4220   -0.3810   25.7370 N   0  0  0  0  0  0  0  0  0  0  0  0
    5.4200   -4.4860   19.9190 O   0  0  0  0  0  0  0  0  0  0  0  0
    5.4550    2.0610   30.6790 O   0  0  0  0  0  0  0  0  0  0  0  0
    6.3570   -3.6960   20.2180 C   0  0  0  0  0  0  0  0  0  0  0  0
    7.2180   -3.1370   19.1510 C   0  0  0  0  0  0  0  0  0  0  0  0
    5.9740    3.1790   30.6820 C   0  0  0  0  0  0  0  0  0  0  0  0
    8.6110   -0.0800   27.6020 C   0  0  0  0  0  0  0  0  0  0  0  0
    8.7380   -0.3340   26.0870 C   0  0  2  0  0  0  0  0  0  0  0  0
    9.9310    0.2840   25.6100 N   0  0  0  0  0  0  0  0  0  0  0  0
   13.1030   -1.5710   21.5220 C   0  0  0  0  0  0  0  0  0  0  0  0
   13.7290   -1.8570   20.6520 N   0  0  0  0  0  0  0  0  0  0  0  0
    7.6620    0.2280   25.3330 C   0  0  0  0  0  0  0  0  0  0  0  0
    6.6450   -3.3430   21.5530 N   0  0  0  0  0  0  0  0  0  0  0  0
    7.4630   -2.1630   21.8080 C   0  0  0  0  0  0  0  0  0  0  0  0
    7.0590   -1.5330   22.9900 C   0  0  0  0  0  0  0  0  0  0  0  0
    6.5790   -2.2950   24.0320 C   0  0  0  0  0  0  0  0  0  0  0  0
    5.9650   -3.5490   23.7680 C   0  0  0  0  0  0  0  0  0  0  0  0
    6.5600   -4.2330   22.7010 C   0  0  0  0  0  0  0  0  0  0  0  0
    6.2820    2.0770   28.5270 N   0  0  0  0  0  0  0  0  0  0  0  0
    6.4850    1.4370   27.3560 C   0  0  0  0  0  0  0  0  0  0  0  0
    6.0680    0.0680   27.0890 C   0  0  0  0  0  0  0  0  0  0  0  0
    5.4190   -0.6310   28.0920 C   0  0  0  0  0  0  0  0  0  0  0  0
    5.2060    0.0390   29.3140 C   0  0  0  0  0  0  0  0  0  0  0  0
    5.6450    1.3830   29.5050 C   0  0  0  0  0  0  0  0  0  0  0  0
   10.6730   -0.2840   24.5660 C   0  0  0  0  0  0  0  0  0  0  0  0
   11.8560    0.4990   24.1930 N   0  0  0  0  0  0  0  0  0  0  0  0
   12.5940    0.0120   23.2020 C   0  0  0  0  0  0  0  0  0  0  0  0
   12.2930   -1.1480   22.5470 C   0  0  0  0  0  0  0  0  0  0  0  0
   11.1810   -1.8760   22.9110 C   0  0  0  0  0  0  0  0  0  0  0  0
   10.3360   -1.4840   23.9230 C   0  0  0  0  0  0  0  0  0  0  0  0
  1  2  2  0
  1  3  1  0
  4  6  2  0
  6  7  1  0
  5  8  1  0
 10  9  1  1
 10 11  1  0
 12 13  3  0
  3 14  1  0
 10 14  1  0
  6 15  1  0
 15 16  1  0
 16 17  1  0
  1 18  1  0
 17 18  1  0
 18 19  1  0
 15 20  1  0
 19 20  1  0
 21 22  2  0
  3 23  1  0
 22 23  1  0
 23 24  2  0
 24 25  1  0
  5 26  1  0
 21 26  1  0
 25 26  2  0
 11 27  1  0
 27 28  2  0
 28 29  1  0
 12 30  1  0
 29 30  2  0
 30 31  1  0
 27 32  1  0
 31 32  2  0
M  END
