x0305-x0540
     RDKit          3D

 33 35  0  0  0  0  0  0  0  0999 V2000
    2.9120    1.4990   24.3590 O   0  0  0  0  0  0  0  0  0  0  0  0
    2.9850    2.3600   23.4850 C   0  0  0  0  0  0  0  0  0  0  0  0
    4.3030    2.7030   22.8530 N   0  0  0  0  0  0  0  0  0  0  0  0
    5.1020    1.7270   22.2340 C   0  0  2  0  0  0  0  0  0  0  0  0
    4.4900    0.4780   21.5570 C   0  0  0  0  0  0  0  0  0  0  0  0
    1.8050    3.1180   23.0170 N   0  0  0  0  0  0  0  0  0  0  0  0
    8.4570   -0.0100   27.3590 C   0  0  0  0  0  0  0  0  0  0  0  0
    8.8430   -0.2620   25.9430 C   0  0  2  0  0  0  0  0  0  0  0  0
    9.9170    0.0960   25.7840 N   0  0  0  0  0  0  0  0  0  0  0  0
   13.0290   -1.5040   21.6330 C   0  0  0  0  0  0  0  0  0  0  0  0
   13.7840   -1.7320   20.6010 N   0  0  0  0  0  0  0  0  0  0  0  0
    6.2200    1.3450   23.1530 C   0  0  0  0  0  0  0  0  0  0  0  0
    5.9870    0.3930   24.1320 C   0  0  0  0  0  0  0  0  0  0  0  0
    7.0680   -0.3670   24.4610 C   0  0  0  0  0  0  0  0  0  0  0  0
    8.0500    0.3990   25.0490 C   0  0  0  0  0  0  0  0  0  0  0  0
    6.2170   -0.4170   20.0610 C   0  0  0  0  0  0  0  0  0  0  0  0
    6.7450   -0.3480   18.7690 C   0  0  0  0  0  0  0  0  0  0  0  0
    6.2740    0.4540   17.7950 N   0  0  0  0  0  0  0  0  0  0  0  0
    5.2160    1.2440   18.0750 C   0  0  0  0  0  0  0  0  0  0  0  0
    4.5340    1.3020   19.3750 C   0  0  0  0  0  0  0  0  0  0  0  0
    5.1210    0.3990   20.3740 C   0  0  0  0  0  0  0  0  0  0  0  0
    0.6070    4.5590   24.4570 C   0  0  0  0  0  0  0  0  0  0  0  0
   -0.5890    4.9070   25.1000 C   0  0  0  0  0  0  0  0  0  0  0  0
   -1.7430    4.5330   24.4020 C   0  0  0  0  0  0  0  0  0  0  0  0
   -1.6920    3.2570   23.9170 C   0  0  0  0  0  0  0  0  0  0  0  0
   -0.5620    2.9810   23.1610 C   0  0  0  0  0  0  0  0  0  0  0  0
    0.6350    3.3030   23.7960 C   0  0  0  0  0  0  0  0  0  0  0  0
   10.6580   -0.3490   24.7530 C   0  0  0  0  0  0  0  0  0  0  0  0
   11.7160    0.3970   24.3760 N   0  0  0  0  0  0  0  0  0  0  0  0
   12.4710   -0.0010   23.3630 C   0  0  0  0  0  0  0  0  0  0  0  0
   12.2040   -1.1640   22.6800 C   0  0  0  0  0  0  0  0  0  0  0  0
   11.1200   -1.9470   23.0560 C   0  0  0  0  0  0  0  0  0  0  0  0
   10.3120   -1.5500   24.1150 C   0  0  0  0  0  0  0  0  0  0  0  0
  1  2  2  0
  2  3  1  0
  3  4  1  0
  4  5  1  1
  2  6  1  0
  8  7  1  1
  8  9  1  0
 10 11  3  0
  4 12  1  0
 12 13  1  0
 13 14  1  0
  8 15  1  0
 14 15  1  0
 16 17  2  0
 17 18  1  0
 18 19  2  0
 19 20  1  0
  5 21  1  0
 16 21  1  0
 20 21  2  0
 22 23  1  0
 23 24  1  0
 24 25  1  0
 25 26  1  0
  6 27  1  0
 22 27  1  0
 26 27  1  0
  9 28  1  0
 28 29  2  0
 29 30  1  0
 10 31  1  0
 30 31  2  0
 31 32  1  0
 28 33  1  0
 32 33  2  0
M  END
