x0305-x0967
     RDKit          3D

 28 29  0  0  0  0  0  0  0  0999 V2000
    7.6670    4.1450   22.0670 C   0  0  0  0  0  0  0  0  0  0  0  0
    7.9930    2.0060   23.1360 N   0  0  0  0  0  0  0  0  0  0  0  0
    6.0100    3.1400   23.4700 O   0  0  0  0  0  0  0  0  0  0  0  0
    7.1200    3.0610   22.9540 C   0  0  0  0  0  0  0  0  0  0  0  0
    8.2490   -1.6320   22.1490 N   0  0  0  0  0  0  0  0  0  0  0  0
    5.7800    0.9920   17.0080 O   0  0  0  0  0  0  0  0  0  0  0  0
    7.5380    0.5870   23.1250 C   0  0  1  0  0  0  0  0  0  0  0  0
    9.3800    0.3260   21.5840 O   0  0  0  0  0  0  0  0  0  0  0  0
    6.1040    0.4240   22.5830 C   0  0  0  0  0  0  0  0  0  0  0  0
    8.4840   -0.2400   22.2090 C   0  0  0  0  0  0  0  0  0  0  0  0
    9.3390   -2.5880   22.3320 C   0  0  0  0  0  0  0  0  0  0  0  0
   13.1930   -2.2480   22.5300 Br  0  0  0  0  0  0  0  0  0  0  0  0
   11.4730   -1.7180   21.0220 N   0  0  0  0  0  0  0  0  0  0  0  0
    8.6080   -0.2000   27.7640 C   0  0  0  0  0  0  0  0  0  0  0  0
    8.7080   -0.3660   26.3850 C   0  0  0  0  0  0  0  0  0  0  0  0
    9.8400    0.3670   25.8320 N   0  0  0  0  0  0  0  0  0  0  0  0
    6.0290    0.5540   21.0830 C   0  0  0  0  0  0  0  0  0  0  0  0
    6.7500   -0.3080   20.2610 C   0  0  0  0  0  0  0  0  0  0  0  0
    6.6770   -0.1770   18.8860 C   0  0  0  0  0  0  0  0  0  0  0  0
    5.8760    0.8260   18.3340 C   0  0  0  0  0  0  0  0  0  0  0  0
    5.1510    1.6880   19.1290 C   0  0  0  0  0  0  0  0  0  0  0  0
    5.2270    1.5540   20.5100 C   0  0  0  0  0  0  0  0  0  0  0  0
   10.7700   -0.2720   24.9270 C   0  0  2  0  0  0  0  0  0  0  0  0
   11.5780    0.5710   24.0130 N   0  0  0  0  0  0  0  0  0  0  0  0
   11.9290    0.0760   22.8530 C   0  0  0  0  0  0  0  0  0  0  0  0
   11.5460   -1.3310   22.3770 C   0  0  2  0  0  0  0  0  0  0  0  0
   10.2960   -1.7380   23.0400 C   0  0  0  0  0  0  0  0  0  0  0  0
    9.9730   -1.2530   24.2080 C   0  0  0  0  0  0  0  0  0  0  0  0
  1  4  1  0
  2  4  1  0
  3  4  2  0
  2  7  1  0
  7  9  1  6
  5 10  1  0
  7 10  1  0
  8 10  2  0
  5 11  1  0
 14 15  1  0
 15 16  1  0
  9 17  1  0
 17 18  2  0
 18 19  1  0
  6 20  1  0
 19 20  2  0
 20 21  1  0
 17 22  1  0
 21 22  2  0
 23 16  1  6
 23 24  1  0
 24 25  2  0
 12 26  1  0
 26 13  1  6
 25 26  1  0
 11 27  1  0
 26 27  1  0
 23 28  1  0
 27 28  2  0
M  END
