x0305-x1374
     RDKit          3D

 31 33  0  0  0  0  0  0  0  0999 V2000
    9.7580   -3.7720   25.1760 C   0  0  0  0  0  0  0  0  0  0  0  0
    6.0590   -5.0090   21.5820 N   0  0  0  0  0  0  0  0  0  0  0  0
    6.0920   -4.2320   20.4040 C   0  0  0  0  0  0  0  0  0  0  0  0
    5.0990   -4.2410   19.7160 O   0  0  0  0  0  0  0  0  0  0  0  0
    7.2440   -3.3330   19.9760 C   0  0  0  0  0  0  0  0  0  0  0  0
    2.2940   -6.6490   23.7700 O   0  0  0  0  0  0  0  0  0  0  0  0
    4.1840   -7.7870   25.0050 O   0  0  0  0  0  0  0  0  0  0  0  0
    8.0150    0.3810   27.2830 C   0  0  0  0  0  0  0  0  0  0  0  0
    9.0040   -0.4220   26.5270 C   0  0  2  0  0  0  0  0  0  0  0  0
    9.5530    0.3580   25.4070 N   0  0  0  0  0  0  0  0  0  0  0  0
   13.0840   -1.4970   21.5340 C   0  0  0  0  0  0  0  0  0  0  0  0
   13.7390   -1.8000   20.6830 N   0  0  0  0  0  0  0  0  0  0  0  0
    9.4550   -2.2970   25.3410 C   0  0  0  0  0  0  0  0  0  0  0  0
    8.4390   -1.7860   26.0890 C   0  0  0  0  0  0  0  0  0  0  0  0
    8.8500   -4.2140   24.2650 C   0  0  0  0  0  0  0  0  0  0  0  0
    8.1830   -3.2400   23.6360 C   0  0  0  0  0  0  0  0  0  0  0  0
    7.3040   -3.5350   22.7730 C   0  0  0  0  0  0  0  0  0  0  0  0
    7.0130   -4.8360   22.4650 C   0  0  0  0  0  0  0  0  0  0  0  0
    7.6760   -5.8890   23.0750 C   0  0  0  0  0  0  0  0  0  0  0  0
    8.6700   -5.5540   24.0490 C   0  0  0  0  0  0  0  0  0  0  0  0
    4.9380   -4.5960   23.6840 C   0  0  0  0  0  0  0  0  0  0  0  0
    4.9110   -5.2950   22.4880 C   0  0  2  0  0  0  0  0  0  0  0  0
    4.8500   -6.6470   22.6680 C   0  0  0  0  0  0  0  0  0  0  0  0
    3.8500   -6.7090   24.1100 S   0  0  0  0  0  0  0  0  0  0  0  0
    4.3700   -5.2420   24.7280 C   0  0  0  0  0  0  0  0  0  0  0  0
   10.4940   -0.0960   24.4320 C   0  0  0  0  0  0  0  0  0  0  0  0
   11.6630    0.4740   24.3200 N   0  0  0  0  0  0  0  0  0  0  0  0
   12.4980   -0.0000   23.3700 C   0  0  0  0  0  0  0  0  0  0  0  0
   12.1670   -1.0370   22.5430 C   0  0  0  0  0  0  0  0  0  0  0  0
   10.9420   -1.6640   22.6360 C   0  0  0  0  0  0  0  0  0  0  0  0
   10.0320   -1.2270   23.5860 C   0  0  0  0  0  0  0  0  0  0  0  0
  2  3  1  0
  3  4  2  0
  3  5  1  0
  9  8  1  6
  9 10  1  0
 11 12  3  0
  1 13  1  0
  9 14  1  0
 13 14  1  0
  1 15  1  0
 15 16  2  0
 16 17  1  0
  2 18  1  0
 17 18  2  0
 18 19  1  0
 15 20  1  0
 19 20  2  0
 22  2  1  1
 21 22  1  0
 22 23  1  0
 24  6  1  0
  7 24  1  0
 23 24  1  0
 21 25  2  0
 24 25  1  0
 10 26  1  0
 26 27  2  0
 27 28  1  0
 11 29  1  0
 28 29  2  0
 29 30  1  0
 26 31  1  0
 30 31  2  0
M  END
