x0305-x0734
     RDKit          3D

 32 34  0  0  0  0  0  0  0  0999 V2000
    5.2440   -4.6940   26.2440 N   0  0  0  0  0  0  0  0  0  0  0  0
    4.3580   -5.6480   25.6500 O   0  0  0  0  0  0  0  0  0  0  0  0
    4.8010   -3.6060   26.9170 O   0  0  0  0  0  0  0  0  0  0  0  0
    5.1140   -4.2660   19.7330 O   0  0  0  0  0  0  0  0  0  0  0  0
    6.2440   -3.8650   20.0740 C   0  0  0  0  0  0  0  0  0  0  0  0
    7.1410   -3.1650   19.1300 C   0  0  0  0  0  0  0  0  0  0  0  0
    8.1900   -0.4800   27.3930 C   0  0  0  0  0  0  0  0  0  0  0  0
    8.6240   -0.7480   26.0080 C   0  0  0  0  0  0  0  0  0  0  0  0
    9.6150    0.1240   25.6530 N   0  0  0  0  0  0  0  0  0  0  0  0
   13.1240   -1.3320   21.5660 C   0  0  0  0  0  0  0  0  0  0  0  0
   13.9620   -1.5340   20.4390 N   0  0  0  0  0  0  0  0  0  0  0  0
    5.4750   -2.5870   26.5950 C   0  0  0  0  0  0  0  0  0  0  0  0
    6.7850   -2.4880   27.3860 C   0  0  0  0  0  0  0  0  0  0  0  0
    7.0300   -1.1800   27.8320 C   0  0  0  0  0  0  0  0  0  0  0  0
    6.6720   -4.9730   26.2970 C   0  0  0  0  0  0  0  0  0  0  0  0
    7.3840   -4.7220   25.1410 C   0  0  0  0  0  0  0  0  0  0  0  0
    8.6990   -4.9680   25.1620 C   0  0  0  0  0  0  0  0  0  0  0  0
    9.4420   -5.4620   26.2360 C   0  0  0  0  0  0  0  0  0  0  0  0
    8.7320   -5.7150   27.4100 C   0  0  0  0  0  0  0  0  0  0  0  0
    7.2810   -5.4630   27.4560 C   0  0  0  0  0  0  0  0  0  0  0  0
    6.7300   -4.1170   21.3530 N   0  0  0  0  0  0  0  0  0  0  0  0
    6.5240   -5.3070   21.9450 C   0  0  0  0  0  0  0  0  0  0  0  0
    5.9630   -5.2830   23.2130 C   0  0  0  0  0  0  0  0  0  0  0  0
    6.6380   -4.2130   23.9900 N   0  0  0  0  0  0  0  0  0  0  0  0
    7.1100   -3.1290   23.3190 C   0  0  0  0  0  0  0  0  0  0  0  0
    7.5990   -3.3150   22.0140 C   0  0  0  0  0  0  0  0  0  0  0  0
   10.4760   -0.2600   24.6080 C   0  0  0  0  0  0  0  0  0  0  0  0
   11.6540    0.5700   24.3860 N   0  0  0  0  0  0  0  0  0  0  0  0
   12.4410    0.1570   23.4040 C   0  0  0  0  0  0  0  0  0  0  0  0
   12.2120   -0.9410   22.6350 C   0  0  0  0  0  0  0  0  0  0  0  0
   11.0990   -1.7410   22.8130 C   0  0  0  0  0  0  0  0  0  0  0  0
   10.2150   -1.3960   23.8190 C   0  0  0  0  0  0  0  0  0  0  0  0
  1  2  2  0
  1  3  1  0
  4  5  2  0
  5  6  1  0
  7  8  1  0
  8  9  1  0
 10 11  3  0
  3 12  1  0
 12 13  1  0
  7 14  1  0
 13 14  1  0
  1 15  1  0
 15 16  1  0
 16 17  2  0
 17 18  1  0
 18 19  2  0
 15 20  2  0
 19 20  1  0
  5 21  1  0
 21 22  1  0
 22 23  1  0
 16 24  1  0
 23 24  1  0
 24 25  1  0
 21 26  1  0
 25 26  1  0
  9 27  1  0
 27 28  2  0
 28 29  1  0
 10 30  1  0
 29 30  2  0
 30 31  1  0
 27 32  1  0
 31 32  2  0
M  CHG  1   1   1
M  END
