x0305-x1358
     RDKit          3D

 31 33  0  0  0  0  0  0  0  0999 V2000
    7.0860   -2.2610   25.9450 N   0  0  0  0  0  0  0  0  0  0  0  0
    5.4150   -0.0260   25.4580 O   0  0  0  0  0  0  0  0  0  0  0  0
    5.0980   -3.5720   25.8380 O   0  0  0  0  0  0  0  0  0  0  0  0
    5.1770   -4.2710   19.7450 O   0  0  0  0  0  0  0  0  0  0  0  0
    6.0610   -3.0670   25.2600 C   0  0  0  0  0  0  0  0  0  0  0  0
    6.3070   -3.8640   20.0750 C   0  0  0  0  0  0  0  0  0  0  0  0
    7.2190   -3.1920   19.1240 C   0  0  0  0  0  0  0  0  0  0  0  0
    8.3720   -0.2120   27.3100 C   0  0  0  0  0  0  0  0  0  0  0  0
    9.1170   -0.7640   26.1720 C   0  0  2  0  0  0  0  0  0  0  0  0
    9.6600    0.2860   25.3430 N   0  0  0  0  0  0  0  0  0  0  0  0
   13.1530   -1.4560   21.4930 C   0  0  0  0  0  0  0  0  0  0  0  0
   13.7910   -1.7620   20.6400 N   0  0  0  0  0  0  0  0  0  0  0  0
    8.3440   -1.8760   25.3960 C   0  0  0  0  0  0  0  0  0  0  0  0
    5.9180   -0.2590   26.7140 C   0  0  0  0  0  0  0  0  0  0  0  0
    6.7300   -1.3460   26.9890 C   0  0  0  0  0  0  0  0  0  0  0  0
    7.2180   -1.5470   28.2850 C   0  0  0  0  0  0  0  0  0  0  0  0
    6.8700   -0.6440   29.2200 C   0  0  0  0  0  0  0  0  0  0  0  0
    6.0600    0.4770   29.0010 C   0  0  0  0  0  0  0  0  0  0  0  0
    5.5710    0.6700   27.7100 C   0  0  0  0  0  0  0  0  0  0  0  0
    6.7860   -4.0800   21.3610 N   0  0  0  0  0  0  0  0  0  0  0  0
    7.5330   -3.0980   21.9100 C   0  0  0  0  0  0  0  0  0  0  0  0
    7.3720   -2.8330   23.3300 C   0  0  0  0  0  0  0  0  0  0  0  0
    6.1520   -3.3010   23.7340 C   0  0  0  0  0  0  0  0  0  0  0  0
    5.9200   -4.6670   23.4850 C   0  0  0  0  0  0  0  0  0  0  0  0
    6.3450   -5.0470   22.1980 C   0  0  0  0  0  0  0  0  0  0  0  0
   10.5710   -0.1310   24.3650 C   0  0  0  0  0  0  0  0  0  0  0  0
   11.6940    0.5990   24.1710 N   0  0  0  0  0  0  0  0  0  0  0  0
   12.5200    0.1340   23.2280 C   0  0  0  0  0  0  0  0  0  0  0  0
   12.2430   -1.0040   22.5050 C   0  0  0  0  0  0  0  0  0  0  0  0
   11.1130   -1.7660   22.6760 C   0  0  0  0  0  0  0  0  0  0  0  0
   10.2060   -1.3660   23.6270 C   0  0  0  0  0  0  0  0  0  0  0  0
  1  5  1  0
  3  5  2  0
  4  6  2  0
  6  7  1  0
  9  8  1  1
  9 10  1  0
 11 12  3  0
  1 13  1  0
  9 13  1  0
  2 14  1  0
  1 15  1  0
 14 15  2  0
 15 16  1  0
 16 17  2  0
 17 18  1  0
 14 19  1  0
 18 19  2  0
  6 20  1  0
 20 21  1  0
 21 22  1  0
  5 23  1  0
 22 23  1  0
 23 24  1  0
 20 25  1  0
 24 25  1  0
 10 26  1  0
 26 27  2  0
 27 28  1  0
 11 29  1  0
 28 29  2  0
 29 30  1  0
 26 31  1  0
 30 31  2  0
M  END
