x0305-x1478
     RDKit          3D

 24 25  0  0  0  0  0  0  0  0999 V2000
    6.9650   -2.6440   21.4360 N   0  0  0  0  0  0  0  0  0  0  0  0
    7.8630   -3.7210   19.5380 C   0  0  0  0  0  0  0  0  0  0  0  0
    5.6320   -3.4600   19.5300 O   0  0  0  0  0  0  0  0  0  0  0  0
    6.4210   -5.8100   22.3190 Cl  0  0  0  0  0  0  0  0  0  0  0  0
    6.7230   -3.2240   20.1820 C   0  0  0  0  0  0  0  0  0  0  0  0
    8.5300   -0.1310   27.5090 C   0  0  0  0  0  0  0  0  0  0  0  0
    8.7120   -0.5200   26.0850 C   0  0  0  0  0  0  0  0  0  0  0  0
    9.7520    0.3190   25.5480 N   0  0  0  0  0  0  0  0  0  0  0  0
   12.9480   -1.5990   21.4510 C   0  0  0  0  0  0  0  0  0  0  0  0
   13.7180   -1.7820   20.6640 N   0  0  0  0  0  0  0  0  0  0  0  0
    8.1560   -1.8690   21.7100 C   0  0  0  0  0  0  0  0  0  0  0  0
    9.2280   -2.3720   22.6950 C   0  0  0  0  0  0  0  0  0  0  0  0
    4.9260   -4.5180   23.9640 N   0  0  0  0  0  0  0  0  0  0  0  0
    5.8100   -4.3150   22.9220 C   0  0  0  0  0  0  0  0  0  0  0  0
    6.0680   -2.9780   22.5260 C   0  0  0  0  0  0  0  0  0  0  0  0
    5.4650   -1.9000   23.1650 C   0  0  0  0  0  0  0  0  0  0  0  0
    4.6190   -2.1420   24.1700 C   0  0  0  0  0  0  0  0  0  0  0  0
    4.3750   -3.4500   24.5370 C   0  0  0  0  0  0  0  0  0  0  0  0
   10.5730   -0.1570   24.4730 C   0  0  0  0  0  0  0  0  0  0  0  0
   11.7650    0.3590   24.3440 N   0  0  0  0  0  0  0  0  0  0  0  0
   12.3960   -0.1750   23.3640 C   0  0  0  0  0  0  0  0  0  0  0  0
   11.9240   -1.2090   22.4720 C   0  0  0  0  0  0  0  0  0  0  0  0
   10.6500   -1.8350   22.4910 C   0  0  0  0  0  0  0  0  0  0  0  0
   10.0820   -1.1460   23.6180 C   0  0  0  0  0  0  0  0  0  0  0  0
  1  5  1  0
  2  5  1  0
  3  5  2  0
  6  7  1  0
  7  8  1  0
  9 10  3  0
  1 11  1  0
 11 12  1  0
  4 14  1  0
 13 14  2  0
  1 15  1  0
 14 15  1  0
 15 16  2  0
 16 17  1  0
 13 18  1  0
 17 18  2  0
  8 19  1  0
 19 20  2  0
 20 21  1  0
  9 22  1  0
 21 22  2  0
 12 23  1  0
 22 23  1  0
 19 24  1  0
 23 24  2  0
M  END
