x0305-x0354
     RDKit          3D

 20 23  0  0  0  0  0  0  0  0999 V2000
   12.5360   -1.4350   22.1110 C   0  0  0  0  0  0  0  0  0  0  0  0
    7.1140   -2.5420   25.6770 O   0  0  0  0  0  0  0  0  0  0  0  0
    7.4220    0.1770   26.3000 O   0  0  0  0  0  0  0  0  0  0  0  0
    8.1500   -1.9040   25.5920 C   0  0  0  0  0  0  0  0  0  0  0  0
    8.3950   -0.5740   26.2340 C   0  0  1  0  0  0  0  0  0  0  0  0
    5.9560    3.1020   31.1230 C   0  0  0  0  0  0  0  0  0  0  0  0
    9.3280   -0.5650   24.9880 N   0  0  0  0  0  0  0  0  0  0  0  0
   13.5570   -1.5950   21.0740 N   0  0  0  0  0  0  0  0  0  0  0  0
   11.5190   -1.3060   22.9690 N   0  0  0  0  0  0  0  0  0  0  0  0
   10.2180   -1.7980   22.5160 C   0  0  0  0  0  0  0  0  0  0  0  0
    9.6180   -2.7690   23.5330 C   0  0  0  0  0  0  0  0  0  0  0  0
    9.4560   -2.1490   24.8900 C   0  0  2  0  0  0  0  0  0  0  0  0
   10.5090   -1.4910   25.1630 C   0  0  1  0  0  0  0  0  0  0  0  0
   11.6790   -1.5540   24.3860 C   0  0  0  0  0  0  0  0  0  0  0  0
    7.7790    1.9840   27.9670 C   0  0  0  0  0  0  0  0  0  0  0  0
    7.4360    2.6660   29.0830 C   0  0  0  0  0  0  0  0  0  0  0  0
    6.3370    2.3110   29.8790 C   0  0  0  0  0  0  0  0  0  0  0  0
    5.5910    1.1950   29.4870 C   0  0  0  0  0  0  0  0  0  0  0  0
    5.9110    0.3940   28.2690 C   0  0  0  0  0  0  0  0  0  0  0  0
    7.0830    0.8720   27.4950 C   0  0  0  0  0  0  0  0  0  0  0  0
  2  4  2  0
  5  3  1  6
  4  5  1  0
  5  7  1  0
  1  8  3  0
  1  9  1  0
  9 10  1  0
 10 11  1  0
 12  4  1  0
  7 12  1  0
 12 11  1  6
  7 13  1  0
 12 13  1  0
  9 14  1  0
 13 14  1  6
 15 16  2  0
  6 17  1  0
 16 17  1  0
 17 18  2  0
 18 19  1  0
  3 20  1  0
 15 20  1  0
 19 20  2  0
M  END
