x0305-x0946
     RDKit          3D

 21 22  0  0  0  0  0  0  0  0999 V2000
    8.0930   -0.2660   27.1770 C   0  0  0  0  0  0  0  0  0  0  0  0
    8.5920   -0.2980   25.7310 C   0  0  0  0  0  0  0  0  0  0  0  0
    9.9990   -0.0020   25.4650 N   0  0  0  0  0  0  0  0  0  0  0  0
   13.0540   -2.1720   21.6940 C   0  0  0  0  0  0  0  0  0  0  0  0
   13.4670   -3.1280   20.8130 N   0  0  0  0  0  0  0  0  0  0  0  0
    9.2350    5.8070   22.8960 N   0  0  0  0  0  0  0  0  0  0  0  0
    9.9920    5.7880   25.2770 O   0  0  0  0  0  0  0  0  0  0  0  0
   11.5380    6.9110   23.4640 O   0  0  0  0  0  0  0  0  0  0  0  0
   10.5490    5.7660   23.9400 S   0  0  0  0  0  0  0  0  0  0  0  0
   10.8590   -0.5710   24.4030 C   0  0  0  0  0  0  0  0  0  0  0  0
   11.5290    0.3410   23.6280 N   0  0  0  0  0  0  0  0  0  0  0  0
   12.5040    0.3900   22.4750 C   0  0  0  0  0  0  0  0  0  0  0  0
   12.4100   -1.0920   22.5440 C   0  0  0  0  0  0  0  0  0  0  0  0
   11.8090   -2.2440   23.2070 C   0  0  0  0  0  0  0  0  0  0  0  0
   10.9830   -1.9190   24.1930 C   0  0  0  0  0  0  0  0  0  0  0  0
   12.1250    1.7710   22.8920 C   0  0  0  0  0  0  0  0  0  0  0  0
   12.9460    2.8720   22.8120 C   0  0  0  0  0  0  0  0  0  0  0  0
   12.4120    4.0450   23.1470 C   0  0  0  0  0  0  0  0  0  0  0  0
   11.1070    4.2560   23.5800 C   0  0  0  0  0  0  0  0  0  0  0  0
   10.2860    3.1520   23.6880 C   0  0  0  0  0  0  0  0  0  0  0  0
   10.8080    1.8580   23.3320 C   0  0  0  0  0  0  0  0  0  0  0  0
  1  2  1  0
  2  3  1  0
  4  5  3  0
  9  6  1  0
  7  9  2  0
  8  9  2  0
  3 10  1  0
 10 11  2  0
 11 12  1  0
  4 13  1  0
 12 13  2  0
 13 14  1  0
 10 15  1  0
 14 15  2  0
 12 16  1  0
 16 17  2  0
 17 18  1  0
  9 19  1  0
 18 19  2  0
 19 20  1  0
 16 21  1  0
 20 21  2  0
M  END
