x0305-x1334
     RDKit          3D

 29 32  0  0  0  0  0  0  0  0999 V2000
    7.1360   -2.5360   18.4720 C   0  0  0  0  0  0  0  0  0  0  0  0
    5.7910   -4.1670   19.5620 O   0  0  0  0  0  0  0  0  0  0  0  0
    7.7580   -6.0530   28.4120 Cl  0  0  0  0  0  0  0  0  0  0  0  0
    6.5330   -3.1970   19.6980 C   0  0  0  0  0  0  0  0  0  0  0  0
    9.6330   -3.0430   24.1030 C   0  0  2  0  0  0  0  0  0  0  0  0
    8.4280   -0.0560   27.4120 C   0  0  0  0  0  0  0  0  0  0  0  0
    8.9850   -0.6030   26.1170 C   0  0  0  0  0  0  0  0  0  0  0  0
   10.1200    0.2010   25.7040 N   0  0  0  0  0  0  0  0  0  0  0  0
   13.4040   -1.4900   21.3670 C   0  0  0  0  0  0  0  0  0  0  0  0
   14.0850   -1.7920   20.5100 N   0  0  0  0  0  0  0  0  0  0  0  0
    9.4170   -2.2300   24.7740 C   0  0  0  0  0  0  0  0  0  0  0  0
    9.2010   -1.4160   25.4460 C   0  0  0  0  0  0  0  0  0  0  0  0
    6.8670   -2.7290   20.9200 N   0  0  0  0  0  0  0  0  0  0  0  0
    7.7100   -1.5650   21.2060 C   0  0  0  0  0  0  0  0  0  0  0  0
    8.8930   -1.9680   22.0610 C   0  0  0  0  0  0  0  0  0  0  0  0
    8.4690   -2.6360   23.2960 N   0  0  0  0  0  0  0  0  0  0  0  0
    7.6400   -3.7960   22.9530 C   0  0  0  0  0  0  0  0  0  0  0  0
    6.4300   -3.3760   22.1540 C   0  0  0  0  0  0  0  0  0  0  0  0
    9.7900   -5.4460   25.0520 C   0  0  0  0  0  0  0  0  0  0  0  0
    9.3350   -4.1330   25.0870 C   0  0  0  0  0  0  0  0  0  0  0  0
    8.3170   -3.8740   26.4600 S   0  0  0  0  0  0  0  0  0  0  0  0
    8.5790   -5.4750   27.0200 C   0  0  0  0  0  0  0  0  0  0  0  0
    9.4740   -6.1750   26.2220 C   0  0  0  0  0  0  0  0  0  0  0  0
   10.9460   -0.2390   24.6070 C   0  0  0  0  0  0  0  0  0  0  0  0
   12.0280    0.4500   24.3000 N   0  0  0  0  0  0  0  0  0  0  0  0
   12.8080    0.0730   23.2880 C   0  0  0  0  0  0  0  0  0  0  0  0
   12.5110   -1.0500   22.5190 C   0  0  0  0  0  0  0  0  0  0  0  0
   11.3800   -1.7840   22.8270 C   0  0  0  0  0  0  0  0  0  0  0  0
   10.5920   -1.3710   23.8830 C   0  0  0  0  0  0  0  0  0  0  0  0
  1  4  1  0
  2  4  2  0
  6  7  1  0
  7  8  2  0
  9 10  3  0
  5 11  1  1
  7 12  1  0
 11 12  2  0
  4 13  1  0
 13 14  1  0
 14 15  1  0
  5 16  1  0
 15 16  1  0
 16 17  1  0
 13 18  1  0
 17 18  1  0
  5 20  1  0
 19 20  2  0
 20 21  1  0
  3 22  1  0
 21 22  1  0
 19 23  1  0
 22 23  2  0
  8 24  1  0
 24 25  2  0
 25 26  1  0
  9 27  1  0
 26 27  2  0
 27 28  1  0
 11 29  1  0
 24 29  1  0
 28 29  2  0
M  END
