x0336-x0887
     RDKit          3D

 15 15  0  0  0  0  0  0  0  0999 V2000
    5.3560  -30.0610   10.8390 C   0  0  0  0  0  0  0  0  0  0  0  0
    4.8990  -29.8690    9.4090 C   0  0  0  0  0  0  0  0  0  0  0  0
    4.7860  -30.8460    8.6730 O   0  0  0  0  0  0  0  0  0  0  0  0
    4.6200  -28.5790    8.9810 N   0  0  0  0  0  0  0  0  0  0  0  0
    5.0330  -27.3570    9.6950 C   0  0  0  0  0  0  0  0  0  0  0  0
    1.3810  -22.4990    9.1450 S   0  0  0  0  0  0  0  0  0  0  0  0
    1.7460  -21.4920   10.1010 O   0  0  0  0  0  0  0  0  0  0  0  0
    0.0590  -23.0750    9.1380 O   0  0  0  0  0  0  0  0  0  0  0  0
    1.6770  -21.8760    7.6020 N   0  0  0  0  0  0  0  0  0  0  0  0
    4.1870  -26.2390    9.5510 C   0  0  0  0  0  0  0  0  0  0  0  0
    3.7290  -25.6990    8.2210 C   0  0  0  0  0  0  0  0  0  0  0  0
    2.9230  -24.6160    8.1310 C   0  0  0  0  0  0  0  0  0  0  0  0
    2.4470  -23.9160    9.3910 C   0  0  0  0  0  0  0  0  0  0  0  0
    2.8940  -24.4660   10.6010 C   0  0  0  0  0  0  0  0  0  0  0  0
    3.7450  -25.5890   10.7050 C   0  0  0  0  0  0  0  0  0  0  0  0
  1  2  1  0
  2  3  2  0
  2  4  1  0
  4  5  1  0
  6  7  2  0
  6  8  2  0
  6  9  1  0
  5 10  1  0
 10 11  2  0
 11 12  1  0
  6 13  1  0
 12 13  2  0
 13 14  1  0
 10 15  1  0
 14 15  2  0
M  END
