x0336-x1392
     RDKit          3D

 15 15  0  0  0  0  0  0  0  0999 V2000
    5.3590  -30.0590   10.8260 C   0  0  0  0  0  0  0  0  0  0  0  0
    4.8910  -29.8630    9.4060 C   0  0  0  0  0  0  0  0  0  0  0  0
    4.7600  -30.8380    8.6670 O   0  0  0  0  0  0  0  0  0  0  0  0
    4.6160  -28.5700    8.9800 N   0  0  0  0  0  0  0  0  0  0  0  0
    5.0370  -27.3500    9.6980 C   0  0  0  0  0  0  0  0  0  0  0  0
    1.3740  -22.5010    9.1450 S   0  0  0  0  0  0  0  0  0  0  0  0
    1.7590  -21.4880   10.0850 O   0  0  0  0  0  0  0  0  0  0  0  0
    0.0470  -23.0730    9.1690 O   0  0  0  0  0  0  0  0  0  0  0  0
    1.6390  -21.8870    7.5940 N   0  0  0  0  0  0  0  0  0  0  0  0
    4.1890  -26.2360    9.5460 C   0  0  0  0  0  0  0  0  0  0  0  0
    3.7170  -25.7090    8.2170 C   0  0  0  0  0  0  0  0  0  0  0  0
    2.9080  -24.6260    8.1220 C   0  0  0  0  0  0  0  0  0  0  0  0
    2.4420  -23.9160    9.3850 C   0  0  0  0  0  0  0  0  0  0  0  0
    2.9040  -24.4570   10.5940 C   0  0  0  0  0  0  0  0  0  0  0  0
    3.7540  -25.5740   10.6990 C   0  0  0  0  0  0  0  0  0  0  0  0
  1  2  1  0
  2  3  2  0
  2  4  1  0
  4  5  1  0
  6  7  2  0
  6  8  2  0
  6  9  1  0
  5 10  1  0
 10 11  2  0
 11 12  1  0
  6 13  1  0
 12 13  2  0
 13 14  1  0
 10 15  1  0
 14 15  2  0
M  END
