x0336-x0395
     RDKit          3D

 15 15  0  0  0  0  0  0  0  0999 V2000
    5.3520  -30.0600   10.8330 C   0  0  0  0  0  0  0  0  0  0  0  0
    4.8930  -29.8680    9.4040 C   0  0  0  0  0  0  0  0  0  0  0  0
    4.7740  -30.8410    8.6680 O   0  0  0  0  0  0  0  0  0  0  0  0
    4.6170  -28.5740    8.9800 N   0  0  0  0  0  0  0  0  0  0  0  0
    5.0400  -27.3530    9.6930 C   0  0  0  0  0  0  0  0  0  0  0  0
    1.3710  -22.5030    9.1520 S   0  0  0  0  0  0  0  0  0  0  0  0
    1.7580  -21.4900   10.0920 O   0  0  0  0  0  0  0  0  0  0  0  0
    0.0490  -23.0800    9.1820 O   0  0  0  0  0  0  0  0  0  0  0  0
    1.6230  -21.8860    7.5990 N   0  0  0  0  0  0  0  0  0  0  0  0
    4.1900  -26.2360    9.5470 C   0  0  0  0  0  0  0  0  0  0  0  0
    3.7180  -25.7030    8.2190 C   0  0  0  0  0  0  0  0  0  0  0  0
    2.9070  -24.6210    8.1280 C   0  0  0  0  0  0  0  0  0  0  0  0
    2.4390  -23.9150    9.3910 C   0  0  0  0  0  0  0  0  0  0  0  0
    2.9010  -24.4610   10.5980 C   0  0  0  0  0  0  0  0  0  0  0  0
    3.7530  -25.5760   10.7020 C   0  0  0  0  0  0  0  0  0  0  0  0
  1  2  1  0
  2  3  2  0
  2  4  1  0
  4  5  1  0
  6  7  2  0
  6  8  2  0
  6  9  1  0
  5 10  1  0
 10 11  2  0
 11 12  1  0
  6 13  1  0
 12 13  2  0
 13 14  1  0
 10 15  1  0
 14 15  2  0
M  END
