x0336-x0669
     RDKit          3D

 15 15  0  0  0  0  0  0  0  0999 V2000
    5.3530  -30.0640   10.8310 C   0  0  0  0  0  0  0  0  0  0  0  0
    4.8940  -29.8680    9.4040 C   0  0  0  0  0  0  0  0  0  0  0  0
    4.7680  -30.8410    8.6710 O   0  0  0  0  0  0  0  0  0  0  0  0
    4.6240  -28.5740    8.9770 N   0  0  0  0  0  0  0  0  0  0  0  0
    5.0340  -27.3550    9.7010 C   0  0  0  0  0  0  0  0  0  0  0  0
    1.3820  -22.4970    9.1390 S   0  0  0  0  0  0  0  0  0  0  0  0
    1.7500  -21.4980   10.0980 O   0  0  0  0  0  0  0  0  0  0  0  0
    0.0600  -23.0720    9.1320 O   0  0  0  0  0  0  0  0  0  0  0  0
    1.6790  -21.8690    7.6010 N   0  0  0  0  0  0  0  0  0  0  0  0
    4.1870  -26.2370    9.5470 C   0  0  0  0  0  0  0  0  0  0  0  0
    3.7250  -25.7050    8.2170 C   0  0  0  0  0  0  0  0  0  0  0  0
    2.9170  -24.6180    8.1220 C   0  0  0  0  0  0  0  0  0  0  0  0
    2.4480  -23.9140    9.3840 C   0  0  0  0  0  0  0  0  0  0  0  0
    2.9000  -24.4600   10.5940 C   0  0  0  0  0  0  0  0  0  0  0  0
    3.7490  -25.5810   10.7020 C   0  0  0  0  0  0  0  0  0  0  0  0
  1  2  1  0
  2  3  2  0
  2  4  1  0
  4  5  1  0
  6  7  2  0
  6  8  2  0
  6  9  1  0
  5 10  1  0
 10 11  2  0
 11 12  1  0
  6 13  1  0
 12 13  2  0
 13 14  1  0
 10 15  1  0
 14 15  2  0
M  END
