x0336-x0731
     RDKit          3D

 15 15  0  0  0  0  0  0  0  0999 V2000
    5.3510  -30.0650   10.8320 C   0  0  0  0  0  0  0  0  0  0  0  0
    4.8930  -29.8650    9.4050 C   0  0  0  0  0  0  0  0  0  0  0  0
    4.7710  -30.8400    8.6680 O   0  0  0  0  0  0  0  0  0  0  0  0
    4.6180  -28.5760    8.9810 N   0  0  0  0  0  0  0  0  0  0  0  0
    5.0360  -27.3540    9.6980 C   0  0  0  0  0  0  0  0  0  0  0  0
    1.3730  -22.5030    9.1430 S   0  0  0  0  0  0  0  0  0  0  0  0
    1.7580  -21.4910   10.0870 O   0  0  0  0  0  0  0  0  0  0  0  0
    0.0480  -23.0760    9.1620 O   0  0  0  0  0  0  0  0  0  0  0  0
    1.6450  -21.8880    7.5930 N   0  0  0  0  0  0  0  0  0  0  0  0
    4.1890  -26.2380    9.5450 C   0  0  0  0  0  0  0  0  0  0  0  0
    3.7190  -25.7070    8.2160 C   0  0  0  0  0  0  0  0  0  0  0  0
    2.9080  -24.6230    8.1260 C   0  0  0  0  0  0  0  0  0  0  0  0
    2.4420  -23.9190    9.3850 C   0  0  0  0  0  0  0  0  0  0  0  0
    2.8990  -24.4600   10.5930 C   0  0  0  0  0  0  0  0  0  0  0  0
    3.7500  -25.5780   10.6980 C   0  0  0  0  0  0  0  0  0  0  0  0
  1  2  1  0
  2  3  2  0
  2  4  1  0
  4  5  1  0
  6  7  2  0
  6  8  2  0
  6  9  1  0
  5 10  1  0
 10 11  2  0
 11 12  1  0
  6 13  1  0
 12 13  2  0
 13 14  1  0
 10 15  1  0
 14 15  2  0
M  END
