x0336-x0946
     RDKit          3D

 15 15  0  0  0  0  0  0  0  0999 V2000
    5.3580  -30.0580   10.8290 C   0  0  0  0  0  0  0  0  0  0  0  0
    4.8930  -29.8650    9.4060 C   0  0  0  0  0  0  0  0  0  0  0  0
    4.7650  -30.8380    8.6680 O   0  0  0  0  0  0  0  0  0  0  0  0
    4.6140  -28.5720    8.9800 N   0  0  0  0  0  0  0  0  0  0  0  0
    5.0380  -27.3550    9.6970 C   0  0  0  0  0  0  0  0  0  0  0  0
    1.3730  -22.5000    9.1470 S   0  0  0  0  0  0  0  0  0  0  0  0
    1.7540  -21.4920   10.0930 O   0  0  0  0  0  0  0  0  0  0  0  0
    0.0500  -23.0750    9.1620 O   0  0  0  0  0  0  0  0  0  0  0  0
    1.6380  -21.8750    7.5970 N   0  0  0  0  0  0  0  0  0  0  0  0
    4.1880  -26.2350    9.5460 C   0  0  0  0  0  0  0  0  0  0  0  0
    3.7180  -25.7060    8.2180 C   0  0  0  0  0  0  0  0  0  0  0  0
    2.9080  -24.6200    8.1260 C   0  0  0  0  0  0  0  0  0  0  0  0
    2.4420  -23.9150    9.3890 C   0  0  0  0  0  0  0  0  0  0  0  0
    2.9010  -24.4570   10.5960 C   0  0  0  0  0  0  0  0  0  0  0  0
    3.7530  -25.5760   10.7010 C   0  0  0  0  0  0  0  0  0  0  0  0
  1  2  1  0
  2  3  2  0
  2  4  1  0
  4  5  1  0
  6  7  2  0
  6  8  2  0
  6  9  1  0
  5 10  1  0
 10 11  2  0
 11 12  1  0
  6 13  1  0
 12 13  2  0
 13 14  1  0
 10 15  1  0
 14 15  2  0
M  END
