x0336-x1478
     RDKit          3D

 15 15  0  0  0  0  0  0  0  0999 V2000
    5.3690  -30.0520   10.8360 C   0  0  0  0  0  0  0  0  0  0  0  0
    4.9080  -29.8670    9.4080 C   0  0  0  0  0  0  0  0  0  0  0  0
    4.7850  -30.8500    8.6830 O   0  0  0  0  0  0  0  0  0  0  0  0
    4.6320  -28.5790    8.9700 N   0  0  0  0  0  0  0  0  0  0  0  0
    5.0460  -27.3540    9.6820 C   0  0  0  0  0  0  0  0  0  0  0  0
    1.3710  -22.5090    9.1630 S   0  0  0  0  0  0  0  0  0  0  0  0
    1.7570  -21.4860   10.0930 O   0  0  0  0  0  0  0  0  0  0  0  0
    0.0510  -23.0890    9.1970 O   0  0  0  0  0  0  0  0  0  0  0  0
    1.6220  -21.9070    7.6080 N   0  0  0  0  0  0  0  0  0  0  0  0
    4.1940  -26.2370    9.5440 C   0  0  0  0  0  0  0  0  0  0  0  0
    3.7300  -25.6950    8.2190 C   0  0  0  0  0  0  0  0  0  0  0  0
    2.9190  -24.6120    8.1360 C   0  0  0  0  0  0  0  0  0  0  0  0
    2.4440  -23.9210    9.4000 C   0  0  0  0  0  0  0  0  0  0  0  0
    2.8980  -24.4760   10.6070 C   0  0  0  0  0  0  0  0  0  0  0  0
    3.7520  -25.5930   10.7040 C   0  0  0  0  0  0  0  0  0  0  0  0
  1  2  1  0
  2  3  2  0
  2  4  1  0
  4  5  1  0
  6  7  2  0
  6  8  2  0
  6  9  1  0
  5 10  1  0
 10 11  2  0
 11 12  1  0
  6 13  1  0
 12 13  2  0
 13 14  1  0
 10 15  1  0
 14 15  2  0
M  END
