x0336-x0874
     RDKit          3D

 15 15  0  0  0  0  0  0  0  0999 V2000
    5.3570  -30.0580   10.8250 C   0  0  0  0  0  0  0  0  0  0  0  0
    4.8860  -29.8620    9.4030 C   0  0  0  0  0  0  0  0  0  0  0  0
    4.7550  -30.8340    8.6670 O   0  0  0  0  0  0  0  0  0  0  0  0
    4.6110  -28.5690    8.9810 N   0  0  0  0  0  0  0  0  0  0  0  0
    5.0240  -27.3560    9.7080 C   0  0  0  0  0  0  0  0  0  0  0  0
    1.3830  -22.4900    9.1350 S   0  0  0  0  0  0  0  0  0  0  0  0
    1.7470  -21.4960   10.0990 O   0  0  0  0  0  0  0  0  0  0  0  0
    0.0580  -23.0600    9.1220 O   0  0  0  0  0  0  0  0  0  0  0  0
    1.6770  -21.8550    7.5990 N   0  0  0  0  0  0  0  0  0  0  0  0
    4.1810  -26.2380    9.5510 C   0  0  0  0  0  0  0  0  0  0  0  0
    3.7150  -25.7130    8.2190 C   0  0  0  0  0  0  0  0  0  0  0  0
    2.9110  -24.6290    8.1200 C   0  0  0  0  0  0  0  0  0  0  0  0
    2.4430  -23.9120    9.3780 C   0  0  0  0  0  0  0  0  0  0  0  0
    2.8990  -24.4500   10.5880 C   0  0  0  0  0  0  0  0  0  0  0  0
    3.7430  -25.5700   10.7010 C   0  0  0  0  0  0  0  0  0  0  0  0
  1  2  1  0
  2  3  2  0
  2  4  1  0
  4  5  1  0
  6  7  2  0
  6  8  2  0
  6  9  1  0
  5 10  1  0
 10 11  2  0
 11 12  1  0
  6 13  1  0
 12 13  2  0
 13 14  1  0
 10 15  1  0
 14 15  2  0
M  END
