x0336-x1235
     RDKit          3D

 15 15  0  0  0  0  0  0  0  0999 V2000
    5.3710  -30.0540   10.8370 C   0  0  0  0  0  0  0  0  0  0  0  0
    4.9050  -29.8690    9.4130 C   0  0  0  0  0  0  0  0  0  0  0  0
    4.7860  -30.8450    8.6810 O   0  0  0  0  0  0  0  0  0  0  0  0
    4.6200  -28.5810    8.9790 N   0  0  0  0  0  0  0  0  0  0  0  0
    5.0420  -27.3600    9.6910 C   0  0  0  0  0  0  0  0  0  0  0  0
    1.3880  -22.5010    9.1510 S   0  0  0  0  0  0  0  0  0  0  0  0
    1.7500  -21.4970   10.1080 O   0  0  0  0  0  0  0  0  0  0  0  0
    0.0640  -23.0730    9.1450 O   0  0  0  0  0  0  0  0  0  0  0  0
    1.6820  -21.8840    7.6060 N   0  0  0  0  0  0  0  0  0  0  0  0
    4.1940  -26.2410    9.5490 C   0  0  0  0  0  0  0  0  0  0  0  0
    3.7380  -25.6990    8.2230 C   0  0  0  0  0  0  0  0  0  0  0  0
    2.9310  -24.6150    8.1310 C   0  0  0  0  0  0  0  0  0  0  0  0
    2.4520  -23.9190    9.3940 C   0  0  0  0  0  0  0  0  0  0  0  0
    2.8980  -24.4740   10.6040 C   0  0  0  0  0  0  0  0  0  0  0  0
    3.7480  -25.5940   10.7040 C   0  0  0  0  0  0  0  0  0  0  0  0
  1  2  1  0
  2  3  2  0
  2  4  1  0
  4  5  1  0
  6  7  2  0
  6  8  2  0
  6  9  1  0
  5 10  1  0
 10 11  2  0
 11 12  1  0
  6 13  1  0
 12 13  2  0
 13 14  1  0
 10 15  1  0
 14 15  2  0
M  END
