x0354-x1458
     RDKit          3D

 33 35  0  0  0  0  0  0  0  0999 V2000
    7.2250   -3.8100   26.3140 N   0  0  0  0  0  0  0  0  0  0  0  0
    8.1110   -4.7820   28.5130 C   0  0  0  0  0  0  0  0  0  0  0  0
    5.1830   -3.4560   25.3280 O   0  0  0  0  0  0  0  0  0  0  0  0
    7.3900   -4.9690   27.2280 C   0  0  0  0  0  0  0  0  0  0  0  0
    5.1720   -4.2490   19.7340 O   0  0  0  0  0  0  0  0  0  0  0  0
    6.1040   -5.7670   27.4180 C   0  0  0  0  0  0  0  0  0  0  0  0
    7.7680   -2.4520   26.5670 C   0  0  0  0  0  0  0  0  0  0  0  0
    6.3730   -3.8350   25.2570 C   0  0  0  0  0  0  0  0  0  0  0  0
    6.3590   -3.9740   20.0030 C   0  0  0  0  0  0  0  0  0  0  0  0
    7.2260   -3.2120   19.0710 C   0  0  0  0  0  0  0  0  0  0  0  0
   13.0600   -1.4620   22.5710 C   0  0  0  0  0  0  0  0  0  0  0  0
    7.4530   -0.4830   27.6050 O   0  0  0  0  0  0  0  0  0  0  0  0
    8.7390   -1.5730   26.0990 C   0  0  0  0  0  0  0  0  0  0  0  0
    8.6660   -0.3930   26.8360 C   0  0  0  0  0  0  0  0  0  0  0  0
    5.6220    3.7530   30.8790 C   0  0  0  0  0  0  0  0  0  0  0  0
    6.9270   -4.4220   21.1690 N   0  0  0  0  0  0  0  0  0  0  0  0
    7.6220   -3.4770   21.9020 C   0  0  0  0  0  0  0  0  0  0  0  0
    7.1180   -3.1610   23.1220 C   0  0  0  0  0  0  0  0  0  0  0  0
    6.8400   -4.3290   23.9380 C   0  0  0  0  0  0  0  0  0  0  0  0
    5.9190   -5.1510   23.1560 C   0  0  0  0  0  0  0  0  0  0  0  0
    6.3740   -5.5560   21.9120 C   0  0  0  0  0  0  0  0  0  0  0  0
   11.7870   -0.9950   23.1490 N   0  0  0  0  0  0  0  0  0  0  0  0
   10.7230   -1.8020   22.9110 C   0  0  0  0  0  0  0  0  0  0  0  0
   10.1090   -2.4810   23.9830 C   0  0  0  0  0  0  0  0  0  0  0  0
    9.7830   -1.5260   25.0830 N   0  0  0  0  0  0  0  0  0  0  0  0
   10.7730   -0.4670   25.2330 C   0  0  0  0  0  0  0  0  0  0  0  0
   11.8970   -0.6970   24.4570 C   0  0  0  0  0  0  0  0  0  0  0  0
    7.6820    1.8240   28.3510 C   0  0  0  0  0  0  0  0  0  0  0  0
    7.2120    2.8420   29.1670 C   0  0  0  0  0  0  0  0  0  0  0  0
    6.1170    2.6410   30.0060 C   0  0  0  0  0  0  0  0  0  0  0  0
    5.4860    1.3880   30.0200 C   0  0  0  0  0  0  0  0  0  0  0  0
    5.9730    0.3680   29.1930 C   0  0  0  0  0  0  0  0  0  0  0  0
    7.0750    0.5850   28.3560 C   0  0  0  0  0  0  0  0  0  0  0  0
  1  4  1  0
  2  4  1  0
  4  6  1  0
  1  7  1  0
  1  8  1  0
  3  8  2  0
  5  9  2  0
  9 10  1  0
  7 13  2  3
 12 14  1  0
 13 14  1  0
  9 16  1  0
 16 17  1  0
 17 18  1  0
  8 19  1  0
 18 19  1  0
 19 20  1  0
 16 21  1  0
 20 21  1  0
 11 22  1  0
 22 23  1  0
 23 24  1  0
 13 25  1  0
 24 25  1  0
 25 26  1  0
 22 27  1  0
 26 27  1  0
 28 29  2  0
 15 30  1  0
 29 30  1  0
 30 31  2  0
 31 32  1  0
 12 33  1  0
 28 33  1  0
 32 33  2  0
M  END
