x0354-x0946
     RDKit          3D

 28 30  0  0  0  0  0  0  0  0999 V2000
   12.9590   -1.1570   22.3870 C   0  0  0  0  0  0  0  0  0  0  0  0
    7.5910   -2.1780   25.0750 O   0  0  0  0  0  0  0  0  0  0  0  0
    7.1700   -0.7240   27.5640 O   0  0  0  0  0  0  0  0  0  0  0  0
    8.4420   -1.3980   25.5040 C   0  0  0  0  0  0  0  0  0  0  0  0
    8.0990   -0.3300   26.5520 C   0  0  0  0  0  0  0  0  0  0  0  0
    5.4980    3.4270   31.1450 C   0  0  0  0  0  0  0  0  0  0  0  0
    8.9810    5.0350   22.6830 N   0  0  0  0  0  0  0  0  0  0  0  0
    9.6520    5.2430   25.0510 O   0  0  0  0  0  0  0  0  0  0  0  0
   11.1420    6.3430   23.2670 O   0  0  0  0  0  0  0  0  0  0  0  0
   10.2630    5.2050   23.7480 S   0  0  0  0  0  0  0  0  0  0  0  0
   12.2670   -1.1620   23.6830 N   0  0  0  0  0  0  0  0  0  0  0  0
   11.7810   -2.4520   23.9250 C   0  0  0  0  0  0  0  0  0  0  0  0
   10.2860   -2.6190   24.2600 C   0  0  0  0  0  0  0  0  0  0  0  0
    9.7540   -1.5160   25.0540 N   0  0  0  0  0  0  0  0  0  0  0  0
   10.5570   -0.3160   25.0700 C   0  0  0  0  0  0  0  0  0  0  0  0
   11.1780   -0.1420   23.8580 C   0  0  1  0  0  0  0  0  0  0  0  0
    7.6470    0.7760   29.4690 C   0  0  0  0  0  0  0  0  0  0  0  0
    7.1940    1.8050   30.3260 C   0  0  0  0  0  0  0  0  0  0  0  0
    5.9420    2.3290   30.2240 C   0  0  0  0  0  0  0  0  0  0  0  0
    5.0760    1.8260   29.2480 C   0  0  0  0  0  0  0  0  0  0  0  0
    5.5250    0.8280   28.4120 C   0  0  0  0  0  0  0  0  0  0  0  0
    6.8510    0.2430   28.4670 C   0  0  0  0  0  0  0  0  0  0  0  0
   12.8160    1.5380   22.9420 C   0  0  0  0  0  0  0  0  0  0  0  0
   13.2160    2.8260   22.6310 C   0  0  0  0  0  0  0  0  0  0  0  0
   12.4190    3.9070   22.8830 C   0  0  0  0  0  0  0  0  0  0  0  0
   11.1800    3.7080   23.4690 C   0  0  0  0  0  0  0  0  0  0  0  0
   10.7650    2.4130   23.7850 C   0  0  0  0  0  0  0  0  0  0  0  0
   11.5870    1.2940   23.5240 C   0  0  0  0  0  0  0  0  0  0  0  0
  2  4  2  0
  3  5  1  0
  4  5  1  0
 10  7  1  0
  8 10  2  0
  9 10  2  0
  1 11  1  0
 11 12  1  0
 12 13  1  0
  4 14  1  0
 13 14  1  0
 14 15  1  0
 11 16  1  0
 15 16  1  0
 17 18  2  0
  6 19  1  0
 18 19  1  0
 19 20  2  0
 20 21  1  0
  3 22  1  0
 17 22  1  0
 21 22  2  0
 23 24  2  0
 24 25  1  0
 10 26  1  0
 25 26  2  0
 26 27  1  0
 16 28  1  1
 23 28  1  0
 27 28  2  0
M  END
