x0354-x0397
     RDKit          3D

 35 38  0  0  0  0  0  0  0  0999 V2000
    8.1280   -1.5770   21.0400 C   0  0  0  0  0  0  0  0  0  0  0  0
    6.8750   -1.9320   20.2970 N   0  0  0  0  0  0  0  0  0  0  0  0
    6.8270   -1.5060   18.8680 C   0  0  0  0  0  0  0  0  0  0  0  0
    3.6580    2.4200   19.2200 C   0  0  0  0  0  0  0  0  0  0  0  0
    6.1640   -3.1810   20.6780 C   0  0  0  0  0  0  0  0  0  0  0  0
    5.4640   -3.7720   19.8300 O   0  0  0  0  0  0  0  0  0  0  0  0
    6.3450   -3.6710   21.9750 N   0  0  0  0  0  0  0  0  0  0  0  0
   13.1390   -1.1400   22.3970 C   0  0  0  0  0  0  0  0  0  0  0  0
    7.5850   -1.9990   25.0030 N   0  0  0  0  0  0  0  0  0  0  0  0
    7.3960   -0.5140   27.5200 O   0  0  0  0  0  0  0  0  0  0  0  0
    8.5720   -1.2540   25.3880 C   0  0  0  0  0  0  0  0  0  0  0  0
    8.3940   -0.2620   26.5390 C   0  0  0  0  0  0  0  0  0  0  0  0
    5.6360    3.6680   30.9140 C   0  0  0  0  0  0  0  0  0  0  0  0
    6.5160   -2.7580   23.1260 C   0  0  0  0  0  0  0  0  0  0  0  0
    7.6630   -2.9470   23.8990 C   0  0  0  0  0  0  0  0  0  0  0  0
    5.0260    0.2250   19.4860 C   0  0  0  0  0  0  0  0  0  0  0  0
    6.0640   -0.2630   18.7000 C   0  0  0  0  0  0  0  0  0  0  0  0
    6.3270    0.5680   17.6940 N   0  0  0  0  0  0  0  0  0  0  0  0
    5.4500    1.6140   17.8240 O   0  0  0  0  0  0  0  0  0  0  0  0
    4.6660    1.4020   18.9110 C   0  0  0  0  0  0  0  0  0  0  0  0
    6.5420   -5.6750   23.2130 C   0  0  0  0  0  0  0  0  0  0  0  0
    5.7640   -4.9280   22.3880 C   0  0  0  0  0  0  0  0  0  0  0  0
    5.9100   -6.0430   21.7250 C   0  0  0  0  0  0  0  0  0  0  0  0
   12.3180   -1.3320   23.5720 N   0  0  0  0  0  0  0  0  0  0  0  0
   11.3310   -2.3920   23.3360 C   0  0  0  0  0  0  0  0  0  0  0  0
   10.4830   -2.6130   24.4340 C   0  0  0  0  0  0  0  0  0  0  0  0
    9.8240   -1.3340   24.7600 N   0  0  0  0  0  0  0  0  0  0  0  0
   10.7780   -0.2690   25.0030 C   0  0  0  0  0  0  0  0  0  0  0  0
   11.6680   -0.0860   23.9610 C   0  0  0  0  0  0  0  0  0  0  0  0
    7.6720    1.7550   28.3500 C   0  0  0  0  0  0  0  0  0  0  0  0
    7.2230    2.7660   29.1910 C   0  0  0  0  0  0  0  0  0  0  0  0
    6.1160    2.5710   30.0100 C   0  0  0  0  0  0  0  0  0  0  0  0
    5.4480    1.3370   29.9840 C   0  0  0  0  0  0  0  0  0  0  0  0
    5.9140    0.3220   29.1300 C   0  0  0  0  0  0  0  0  0  0  0  0
    7.0290    0.5350   28.3120 C   0  0  0  0  0  0  0  0  0  0  0  0
  1  2  1  0
  2  3  1  0
  2  5  1  0
  5  6  2  0
  5  7  1  0
  9 11  2  3
 10 12  1  0
 11 12  1  0
  7 14  1  0
  9 15  1  0
 14 15  1  0
  3 17  1  0
 16 17  1  0
 17 18  2  0
 18 19  1  0
  4 20  1  0
 16 20  2  0
 19 20  1  0
  7 22  1  0
 21 22  1  0
 21 23  1  0
 22 23  1  0
  8 24  1  0
 24 25  1  0
 25 26  1  0
 11 27  1  0
 26 27  1  0
 27 28  1  0
 24 29  1  0
 28 29  1  0
 30 31  2  0
 13 32  1  0
 31 32  1  0
 32 33  2  0
 33 34  1  0
 10 35  1  0
 30 35  1  0
 34 35  2  0
M  END
