x0354-x2779
     RDKit          3D

 28 31  0  0  0  0  0  0  0  0999 V2000
   13.0030   -1.4690   22.2110 C   0  0  0  0  0  0  0  0  0  0  0  0
    8.0090   -1.8430   24.9600 O   0  0  0  0  0  0  0  0  0  0  0  0
    7.4810   -0.3990   27.4280 O   0  0  0  0  0  0  0  0  0  0  0  0
    8.8820   -1.1410   25.4790 C   0  0  0  0  0  0  0  0  0  0  0  0
    8.5150   -0.0510   26.4940 C   0  0  0  0  0  0  0  0  0  0  0  0
    5.5900    3.7150   31.0110 C   0  0  0  0  0  0  0  0  0  0  0  0
    7.3860   -2.9730   18.6860 C   0  0  0  0  0  0  0  0  0  0  0  0
    5.5330   -4.0460   19.7160 O   0  0  0  0  0  0  0  0  0  0  0  0
    6.4740   -3.2020   19.8330 C   0  0  0  0  0  0  0  0  0  0  0  0
   10.0290   -3.1560   23.3670 C   0  0  1  0  0  0  0  0  0  0  0  0
   11.6610   -1.3100   22.8540 N   0  0  0  0  0  0  0  0  0  0  0  0
   11.2160   -2.5920   23.4860 C   0  0  1  0  0  0  0  0  0  0  0  0
   10.7680   -2.5290   24.6670 C   0  0  1  0  0  0  0  0  0  0  0  0
   10.2520   -1.3360   25.2070 N   0  0  0  0  0  0  0  0  0  0  0  0
   11.0950   -0.2060   24.9410 C   0  0  0  0  0  0  0  0  0  0  0  0
   11.6990   -0.1230   23.7370 C   0  0  0  0  0  0  0  0  0  0  0  0
    7.6650    1.8390   28.3170 C   0  0  0  0  0  0  0  0  0  0  0  0
    7.2100    2.8240   29.1790 C   0  0  0  0  0  0  0  0  0  0  0  0
    6.0640    2.6110   30.0800 C   0  0  0  0  0  0  0  0  0  0  0  0
    5.4720    1.2640   29.9640 C   0  0  0  0  0  0  0  0  0  0  0  0
    5.9750    0.3090   29.0790 C   0  0  0  0  0  0  0  0  0  0  0  0
    7.0660    0.5950   28.2590 C   0  0  0  0  0  0  0  0  0  0  0  0
    6.7110   -2.4930   21.0130 N   0  0  0  0  0  0  0  0  0  0  0  0
    7.7310   -1.4370   21.1090 C   0  0  0  0  0  0  0  0  0  0  0  0
    8.9360   -1.8840   21.6060 C   0  0  0  0  0  0  0  0  0  0  0  0
    8.7760   -2.5290   22.9090 N   0  0  0  0  0  0  0  0  0  0  0  0
    7.7670   -3.6080   22.8570 C   0  0  0  0  0  0  0  0  0  0  0  0
    6.6050   -3.2410   22.2120 C   0  0  0  0  0  0  0  0  0  0  0  0
  2  4  2  0
  3  5  1  0
  4  5  1  0
  7  9  1  0
  8  9  2  0
  1 11  1  0
 10 12  1  0
 12 11  1  6
 10 13  1  0
 12 13  1  0
  4 14  1  0
 13 14  1  6
 14 15  1  0
 11 16  1  0
 15 16  1  0
 17 18  2  0
  6 19  1  0
 18 19  1  0
 19 20  2  0
 20 21  1  0
  3 22  1  0
 17 22  1  0
 21 22  2  0
  9 23  1  0
 23 24  1  0
 24 25  1  0
 10 26  1  6
 25 26  1  0
 26 27  1  0
 23 28  1  0
 27 28  1  0
M  END
