x0354-x0305
     RDKit          3D

 20 23  0  0  0  0  0  0  0  0999 V2000
   12.8290   -1.3010   22.4130 C   0  0  0  0  0  0  0  0  0  0  0  0
    7.2940   -2.3270   25.5470 O   0  0  0  0  0  0  0  0  0  0  0  0
    8.3070    0.0360   27.3080 O   0  0  0  0  0  0  0  0  0  0  0  0
    8.1770   -1.4710   25.5140 C   0  0  0  0  0  0  0  0  0  0  0  0
    8.0510   -0.0770   25.8990 C   0  0  2  0  0  0  0  0  0  0  0  0
    5.2190    3.4140   30.7760 C   0  0  0  0  0  0  0  0  0  0  0  0
    9.1800   -0.1350   24.8280 N   0  0  0  0  0  0  0  0  0  0  0  0
   13.6340   -1.3260   21.1930 N   0  0  0  0  0  0  0  0  0  0  0  0
   11.9400   -1.4020   23.4000 N   0  0  0  0  0  0  0  0  0  0  0  0
   10.6880   -1.9500   22.9180 C   0  0  0  0  0  0  0  0  0  0  0  0
    9.9960   -2.5890   24.0810 C   0  0  0  0  0  0  0  0  0  0  0  0
    9.5790   -1.5190   25.0610 C   0  0  2  0  0  0  0  0  0  0  0  0
   10.6020   -0.6390   25.3280 C   0  0  1  0  0  0  0  0  0  0  0  0
   11.7560   -0.4420   24.5280 C   0  0  0  0  0  0  0  0  0  0  0  0
    7.6130    2.2000   28.1250 C   0  0  0  0  0  0  0  0  0  0  0  0
    6.8870    2.9700   28.9500 C   0  0  0  0  0  0  0  0  0  0  0  0
    5.9850    2.4750   29.8880 C   0  0  0  0  0  0  0  0  0  0  0  0
    5.8310    1.0850   29.9620 C   0  0  0  0  0  0  0  0  0  0  0  0
    6.5990    0.1560   29.0900 C   0  0  0  0  0  0  0  0  0  0  0  0
    7.5260    0.8240   28.1500 C   0  0  0  0  0  0  0  0  0  0  0  0
  2  4  2  0
  5  3  1  1
  4  5  1  0
  5  7  1  0
  1  8  3  0
  1  9  1  0
  9 10  1  0
 10 11  1  0
 12  4  1  0
  7 12  1  0
 12 11  1  6
  7 13  1  0
 12 13  1  0
  9 14  1  0
 13 14  1  6
 15 16  2  0
  6 17  1  0
 16 17  1  0
 17 18  2  0
 18 19  1  0
  3 20  1  0
 15 20  1  0
 19 20  2  0
M  END
