x0354-x0387
     RDKit          3D

 23 26  0  0  0  0  0  0  0  0999 V2000
   13.1800   -1.2190   22.7520 C   0  0  0  0  0  0  0  0  0  0  0  0
    7.2590   -0.6690   27.4680 O   0  0  0  0  0  0  0  0  0  0  0  0
    8.8380   -1.8090   26.1490 C   0  0  2  0  0  0  0  0  0  0  0  0
    8.0190   -0.5380   26.4880 C   0  0  0  0  0  0  0  0  0  0  0  0
    5.8110    3.6580   30.8810 C   0  0  0  0  0  0  0  0  0  0  0  0
    9.2770   -4.3420   27.6920 O   0  0  0  0  0  0  0  0  0  0  0  0
   11.9330   -1.3480   23.4560 N   0  0  0  0  0  0  0  0  0  0  0  0
   11.5160   -2.6730   23.6420 C   0  0  0  0  0  0  0  0  0  0  0  0
   10.4060   -2.8520   24.7340 C   0  0  1  0  0  0  0  0  0  0  0  0
   10.0950   -1.6980   25.5590 N   0  0  0  0  0  0  0  0  0  0  0  0
   10.3480   -0.6210   25.1340 C   0  0  0  0  0  0  0  0  0  0  0  0
   11.7560   -0.4180   24.5660 C   0  0  0  0  0  0  0  0  0  0  0  0
    7.6420    1.7260   28.1920 C   0  0  0  0  0  0  0  0  0  0  0  0
    7.2830    2.8940   29.0870 C   0  0  0  0  0  0  0  0  0  0  0  0
    6.2410    2.5550   29.9540 C   0  0  0  0  0  0  0  0  0  0  0  0
    5.6270    1.2910   29.9760 C   0  0  0  0  0  0  0  0  0  0  0  0
    5.9790    0.2240   29.1400 C   0  0  0  0  0  0  0  0  0  0  0  0
    6.9740    0.4180   28.2490 C   0  0  0  0  0  0  0  0  0  0  0  0
    9.2670   -4.6610   26.3000 C   0  0  1  0  0  0  0  0  0  0  0  0
    8.1060   -4.1630   25.7120 C   0  0  0  0  0  0  0  0  0  0  0  0
    8.1710   -2.8630   25.2180 C   0  0  2  0  0  0  0  0  0  0  0  0
    9.0990   -2.9420   24.0550 N   0  0  0  0  0  0  0  0  0  0  0  0
   10.5530   -4.1640   25.6080 C   0  0  0  0  0  0  0  0  0  0  0  0
  2  4  1  0
  3  4  1  6
  1  7  1  0
  7  8  1  0
  9  8  1  6
  3 10  1  0
  9 10  1  0
 10 11  1  0
  7 12  1  0
 11 12  1  0
 13 14  2  0
  5 15  1  0
 14 15  1  0
 15 16  2  0
 16 17  1  0
  2 18  1  0
 13 18  1  0
 17 18  2  0
 19  6  1  1
 19 20  1  0
  3 21  1  0
 21 20  1  1
  9 22  1  0
 21 22  1  0
  9 23  1  0
 19 23  1  0
M  END
