x0354-x3124
     RDKit          3D

 37 39  0  0  0  0  0  0  0  0999 V2000
    6.8780   -1.7030   21.4860 N   0  0  0  0  0  0  0  0  0  0  0  0
    6.8370   -4.9590   20.5250 C   0  0  0  0  0  0  0  0  0  0  0  0
    4.8340   -3.0190   21.1540 O   0  0  0  0  0  0  0  0  0  0  0  0
    6.8480   -4.1000   21.7800 C   0  0  0  0  0  0  0  0  0  0  0  0
    7.4280    1.4320   23.0940 N   0  0  0  0  0  0  0  0  0  0  0  0
    8.7580    0.5150   21.4040 O   0  0  0  0  0  0  0  0  0  0  0  0
    6.0640   -2.8750   21.4440 C   0  0  0  0  0  0  0  0  0  0  0  0
    6.4460   -0.3720   21.4270 C   0  0  1  0  0  0  0  0  0  0  0  0
    7.6550    0.5320   21.9660 C   0  0  0  0  0  0  0  0  0  0  0  0
    8.1930    2.6720   23.2980 C   0  0  0  0  0  0  0  0  0  0  0  0
   11.8660   -1.6950   24.6350 C   0  0  0  0  0  0  0  0  0  0  0  0
   12.5290   -0.3670   24.8710 C   0  0  0  0  0  0  0  0  0  0  0  0
   12.6740   -2.9300   24.8020 C   0  0  0  0  0  0  0  0  0  0  0  0
   12.9010   -2.2860   23.7380 C   0  0  0  0  0  0  0  0  0  0  0  0
    7.6890   -2.0390   26.0130 O   0  0  0  0  0  0  0  0  0  0  0  0
    7.7940   -0.4340   27.6460 O   0  0  0  0  0  0  0  0  0  0  0  0
    8.5730   -1.2220   25.7510 C   0  0  0  0  0  0  0  0  0  0  0  0
    8.7770   -0.1720   26.6290 C   0  0  0  0  0  0  0  0  0  0  0  0
    5.4830    3.7610   30.7960 C   0  0  0  0  0  0  0  0  0  0  0  0
    6.3060    0.5560   17.7440 N   0  0  0  0  0  0  0  0  0  0  0  0
    5.2070    1.3090   17.7300 C   0  0  0  0  0  0  0  0  0  0  0  0
    4.3890    1.5620   18.9210 C   0  0  0  0  0  0  0  0  0  0  0  0
    4.7850    1.0040   20.1190 C   0  0  0  0  0  0  0  0  0  0  0  0
    5.9450    0.2220   20.1470 C   0  0  0  0  0  0  0  0  0  0  0  0
    6.7140   -0.0280   19.0080 C   0  0  0  0  0  0  0  0  0  0  0  0
    9.3550   -1.9640   21.7640 C   0  0  0  0  0  0  0  0  0  0  0  0
   10.5180   -1.9500   22.5340 C   0  0  0  0  0  0  0  0  0  0  0  0
   10.4890   -1.7020   23.9140 C   0  0  0  0  0  0  0  0  0  0  0  0
    9.2030   -1.4860   24.4580 C   0  0  0  0  0  0  0  0  0  0  0  0
    7.9990   -1.5060   23.5750 C   0  0  0  0  0  0  0  0  0  0  0  0
    8.0890   -1.7330   22.2590 C   0  0  0  0  0  0  0  0  0  0  0  0
    7.6900    2.0350   28.2130 C   0  0  0  0  0  0  0  0  0  0  0  0
    7.0770    3.0000   29.0240 C   0  0  0  0  0  0  0  0  0  0  0  0
    6.0860    2.6700   29.9630 C   0  0  0  0  0  0  0  0  0  0  0  0
    5.6540    1.3480   30.1340 C   0  0  0  0  0  0  0  0  0  0  0  0
    6.2880    0.2600   29.2830 C   0  0  0  0  0  0  0  0  0  0  0  0
    7.2720    0.5990   28.3610 C   0  0  0  0  0  0  0  0  0  0  0  0
  2  4  1  0
  1  7  1  0
  3  7  2  0
  4  7  1  0
  1  8  1  0
  5  9  1  0
  6  9  2  0
  8  9  1  6
  5 10  1  0
 11 12  1  0
 11 13  1  0
 11 14  1  0
 15 17  2  0
 16 18  1  0
 17 18  1  0
 20 21  2  0
 21 22  1  0
 22 23  2  0
  8 24  1  0
 23 24  1  0
 20 25  1  0
 24 25  2  0
 26 27  2  0
 11 28  1  0
 27 28  1  0
 17 29  1  0
 28 29  2  0
 29 30  1  0
  1 31  1  0
 26 31  1  0
 30 31  2  0
 32 33  2  0
 19 34  1  0
 33 34  1  0
 34 35  2  0
 35 36  1  0
 16 37  1  0
 32 37  1  0
 36 37  2  0
M  END
