x0354-x1418
     RDKit          3D

 28 31  0  0  0  0  0  0  0  0999 V2000
   12.9780   -1.4370   22.2080 C   0  0  0  0  0  0  0  0  0  0  0  0
    7.9600   -1.8860   24.9950 O   0  0  0  0  0  0  0  0  0  0  0  0
    7.4690   -0.4190   27.4500 O   0  0  0  0  0  0  0  0  0  0  0  0
    8.8370   -1.1720   25.4910 C   0  0  0  0  0  0  0  0  0  0  0  0
    8.4750   -0.0700   26.4930 C   0  0  0  0  0  0  0  0  0  0  0  0
    5.5970    3.7260   30.9980 C   0  0  0  0  0  0  0  0  0  0  0  0
    7.3910   -2.9680   18.6600 C   0  0  0  0  0  0  0  0  0  0  0  0
    5.5170   -4.0180   19.6840 O   0  0  0  0  0  0  0  0  0  0  0  0
    6.4500   -3.1640   19.7950 C   0  0  0  0  0  0  0  0  0  0  0  0
    9.9770   -3.1150   23.2970 C   0  0  1  0  0  0  0  0  0  0  0  0
   11.6420   -1.2700   22.8650 N   0  0  0  0  0  0  0  0  0  0  0  0
   11.1700   -2.5650   23.4410 C   0  0  1  0  0  0  0  0  0  0  0  0
   10.7170   -2.5450   24.6220 C   0  0  1  0  0  0  0  0  0  0  0  0
   10.2050   -1.3660   25.2010 N   0  0  0  0  0  0  0  0  0  0  0  0
   11.0520   -0.2300   24.9830 C   0  0  0  0  0  0  0  0  0  0  0  0
   11.7280   -0.1370   23.8150 C   0  0  0  0  0  0  0  0  0  0  0  0
    7.6690    1.8200   28.3240 C   0  0  0  0  0  0  0  0  0  0  0  0
    7.2160    2.8160   29.1830 C   0  0  0  0  0  0  0  0  0  0  0  0
    6.0650    2.6120   30.0780 C   0  0  0  0  0  0  0  0  0  0  0  0
    5.4640    1.2700   29.9660 C   0  0  0  0  0  0  0  0  0  0  0  0
    5.9650    0.3050   29.0840 C   0  0  0  0  0  0  0  0  0  0  0  0
    7.0600    0.5850   28.2720 C   0  0  0  0  0  0  0  0  0  0  0  0
    6.6430   -2.4310   20.9740 N   0  0  0  0  0  0  0  0  0  0  0  0
    6.5050   -3.0500   22.2830 C   0  0  0  0  0  0  0  0  0  0  0  0
    7.6990   -3.5460   22.7320 C   0  0  0  0  0  0  0  0  0  0  0  0
    8.7050   -2.4800   22.8900 N   0  0  0  0  0  0  0  0  0  0  0  0
    8.8830   -1.7420   21.6350 C   0  0  0  0  0  0  0  0  0  0  0  0
    7.6920   -1.4550   20.9750 C   0  0  0  0  0  0  0  0  0  0  0  0
  2  4  2  0
  3  5  1  0
  4  5  1  0
  7  9  1  0
  8  9  2  0
  1 11  1  0
 10 12  1  0
 12 11  1  6
 10 13  1  0
 12 13  1  0
  4 14  1  0
 13 14  1  6
 14 15  1  0
 11 16  1  0
 15 16  1  0
 17 18  2  0
  6 19  1  0
 18 19  1  0
 19 20  2  0
 20 21  1  0
  3 22  1  0
 17 22  1  0
 21 22  2  0
  9 23  1  0
 23 24  1  0
 24 25  1  0
 10 26  1  6
 25 26  1  0
 26 27  1  0
 23 28  1  0
 27 28  1  0
M  END
