x0354-x0691
     RDKit          3D

 39 42  0  0  0  0  0  0  0  0999 V2000
    3.7180   -6.8560   25.8040 O   0  0  0  0  0  0  0  0  0  0  0  0
    5.4550   -5.1220   26.7550 N   0  0  0  0  0  0  0  0  0  0  0  0
    5.3960   -4.5450   19.9330 O   0  0  0  0  0  0  0  0  0  0  0  0
    6.3790   -4.6190   20.6790 C   0  0  0  0  0  0  0  0  0  0  0  0
    7.6040   -3.7270   20.4880 C   0  0  0  0  0  0  0  0  0  0  0  0
    2.9210   -0.6290   26.0690 F   0  0  0  0  0  0  0  0  0  0  0  0
    4.4200   -5.5940   25.7440 S   0  0  2  0  0  0  0  0  0  0  0  0
   13.0230   -1.2660   22.7310 C   0  0  0  0  0  0  0  0  0  0  0  0
    7.2870   -2.6700   24.6690 N   0  0  0  0  0  0  0  0  0  0  0  0
    6.6130   -0.3420   26.6260 O   0  0  0  0  0  0  0  0  0  0  0  0
    8.0760   -1.7860   25.1070 C   0  0  0  0  0  0  0  0  0  0  0  0
    7.4170   -1.3160   26.5780 C   0  0  0  0  0  0  0  0  0  0  0  0
    5.8980    3.1910   31.1270 C   0  0  0  0  0  0  0  0  0  0  0  0
    6.5250   -4.2490   26.2920 C   0  0  0  0  0  0  0  0  0  0  0  0
    6.0950   -3.0010   25.4920 C   0  0  0  0  0  0  0  0  0  0  0  0
    2.6100   -1.9240   25.9090 C   0  0  0  0  0  0  0  0  0  0  0  0
    3.6970   -2.9680   25.9170 C   0  0  0  0  0  0  0  0  0  0  0  0
    3.2400   -4.2720   25.7400 C   0  0  0  0  0  0  0  0  0  0  0  0
    1.8910   -4.5680   25.5710 C   0  0  0  0  0  0  0  0  0  0  0  0
    0.8570   -3.6330   25.5590 C   0  0  0  0  0  0  0  0  0  0  0  0
    1.1950   -2.3290   25.7260 C   0  0  0  0  0  0  0  0  0  0  0  0
    6.4400   -5.5360   21.7420 N   0  0  0  0  0  0  0  0  0  0  0  0
    5.5020   -6.4120   22.0480 C   0  0  0  0  0  0  0  0  0  0  0  0
    4.5500   -6.1200   23.0320 C   0  0  0  0  0  0  0  0  0  0  0  0
    5.2360   -5.6610   24.2420 N   0  0  0  0  0  0  0  0  0  0  0  0
    6.3650   -4.7720   23.9240 C   0  0  0  0  0  0  0  0  0  0  0  0
    7.2100   -5.1850   22.9140 C   0  0  0  0  0  0  0  0  0  0  0  0
   11.5880   -1.0850   22.5190 N   0  0  0  0  0  0  0  0  0  0  0  0
   10.8340   -2.3250   22.6950 C   0  0  0  0  0  0  0  0  0  0  0  0
   10.3540   -2.4570   23.9910 C   0  0  0  0  0  0  0  0  0  0  0  0
    9.3600   -1.3990   24.4390 N   0  0  0  0  0  0  0  0  0  0  0  0
    9.6140   -0.2420   23.5530 C   0  0  0  0  0  0  0  0  0  0  0  0
   11.0060   -0.1370   23.4290 C   0  0  0  0  0  0  0  0  0  0  0  0
    6.9370    1.9070   27.7220 C   0  0  0  0  0  0  0  0  0  0  0  0
    6.7520    2.7410   28.8260 C   0  0  0  0  0  0  0  0  0  0  0  0
    6.1000    2.2750   29.9530 C   0  0  0  0  0  0  0  0  0  0  0  0
    5.6360    0.9500   29.9750 C   0  0  0  0  0  0  0  0  0  0  0  0
    5.8270    0.1010   28.8600 C   0  0  0  0  0  0  0  0  0  0  0  0
    6.4810    0.5650   27.7040 C   0  0  0  0  0  0  0  0  0  0  0  0
  3  4  2  0
  4  5  1  0
  1  7  2  0
  2  7  2  0
  9 11  2  3
 10 12  1  0
 11 12  1  0
  2 14  1  0
  9 15  1  0
 14 15  1  0
  6 16  1  0
 16 17  2  0
  7 18  1  6
 17 18  1  0
 18 19  2  0
 19 20  1  0
 16 21  1  0
 20 21  2  0
  4 22  1  0
 22 23  1  0
 23 24  1  0
  7 25  1  0
 24 25  1  0
 25 26  1  0
 22 27  1  0
 26 27  1  0
  8 28  1  0
 28 29  1  0
 29 30  1  0
 11 31  1  0
 30 31  1  0
 31 32  1  0
 28 33  1  0
 32 33  1  0
 34 35  2  0
 13 36  1  0
 35 36  1  0
 36 37  2  0
 37 38  1  0
 10 39  1  0
 34 39  1  0
 38 39  2  0
M  END
