x0354-x0072
     RDKit          3D

 24 26  0  0  0  0  0  0  0  0999 V2000
   13.1720   -1.2150   22.3590 C   0  0  0  0  0  0  0  0  0  0  0  0
    7.8590   -2.6950   25.1480 C   0  0  0  0  0  0  0  0  0  0  0  0
    7.4800   -0.5400   27.2230 O   0  0  0  0  0  0  0  0  0  0  0  0
    8.4560   -1.2380   25.1310 C   0  0  0  0  0  0  0  0  0  0  0  0
    7.9240   -0.0650   25.9210 C   0  0  0  0  0  0  0  0  0  0  0  0
    5.7300    3.5300   30.8590 C   0  0  0  0  0  0  0  0  0  0  0  0
    5.6100   -4.3550   24.7980 C   0  0  0  0  0  0  0  0  0  0  0  0
    7.3470   -4.3550   25.0440 S   0  0  0  0  0  0  0  0  0  0  0  0
    8.0350   -5.1240   24.0470 O   0  0  0  0  0  0  0  0  0  0  0  0
    7.4430   -4.8800   26.3900 O   0  0  0  0  0  0  0  0  0  0  0  0
    8.9380   -3.1330   24.0850 C   0  0  1  0  0  0  0  0  0  0  0  0
    8.4340   -2.9590   22.8040 C   0  0  0  0  0  0  0  0  0  0  0  0
   12.2360   -1.3470   23.5010 N   0  0  0  0  0  0  0  0  0  0  0  0
   11.1270   -2.2500   23.1380 C   0  0  0  0  0  0  0  0  0  0  0  0
   10.2420   -2.3280   24.1950 C   0  0  1  0  0  0  0  0  0  0  0  0
    9.6290   -1.0490   24.3900 N   0  0  0  0  0  0  0  0  0  0  0  0
   10.6350   -0.0930   24.7980 C   0  0  0  0  0  0  0  0  0  0  0  0
   11.7710   -0.1110   23.9680 C   0  0  0  0  0  0  0  0  0  0  0  0
    7.7790    1.5840   28.1940 C   0  0  0  0  0  0  0  0  0  0  0  0
    7.4220    2.7020   29.0990 C   0  0  0  0  0  0  0  0  0  0  0  0
    6.2090    2.4740   29.8990 C   0  0  0  0  0  0  0  0  0  0  0  0
    5.4810    1.2860   29.7880 C   0  0  0  0  0  0  0  0  0  0  0  0
    5.8790    0.2680   28.9100 C   0  0  0  0  0  0  0  0  0  0  0  0
    7.0250    0.4150   28.1120 C   0  0  0  0  0  0  0  0  0  0  0  0
  2  4  2  0
  3  5  1  0
  4  5  1  0
  2  8  1  0
  8  7  1  0
  8  9  2  0
  8 10  2  0
  2 11  1  0
 11 12  1  6
  1 13  1  0
 13 14  1  0
 11 15  1  0
 15 14  1  6
  4 16  1  0
 15 16  1  0
 16 17  1  0
 13 18  1  0
 17 18  1  0
 19 20  2  0
  6 21  1  0
 20 21  1  0
 21 22  2  0
 22 23  1  0
  3 24  1  0
 19 24  1  0
 23 24  2  0
M  END
