x0354-x2052
     RDKit          3D

 30 32  0  0  0  0  0  0  0  0999 V2000
    5.9230   -1.4730   25.1810 C   0  0  0  0  0  0  0  0  0  0  0  0
    4.5530   -1.4350   25.4450 O   0  0  0  0  0  0  0  0  0  0  0  0
    6.7390   -0.6600   26.0680 N   0  0  0  0  0  0  0  0  0  0  0  0
    5.4180   -4.4440   19.8980 O   0  0  0  0  0  0  0  0  0  0  0  0
    5.3770    2.1690   30.6320 O   0  0  0  0  0  0  0  0  0  0  0  0
    6.3350   -3.6570   20.1490 C   0  0  0  0  0  0  0  0  0  0  0  0
    7.2170   -3.1060   19.0340 C   0  0  0  0  0  0  0  0  0  0  0  0
    6.0530    3.4190   30.7090 C   0  0  0  0  0  0  0  0  0  0  0  0
   13.2870   -0.9860   22.4650 C   0  0  0  0  0  0  0  0  0  0  0  0
    8.0940   -2.6600   25.0530 O   0  0  0  0  0  0  0  0  0  0  0  0
    8.7460   -1.6250   25.1420 C   0  0  0  0  0  0  0  0  0  0  0  0
    8.1390   -0.3740   25.7440 C   0  0  0  0  0  0  0  0  0  0  0  0
    6.6340   -3.2600   21.4290 N   0  0  0  0  0  0  0  0  0  0  0  0
    7.5340   -2.1370   21.7340 C   0  0  0  0  0  0  0  0  0  0  0  0
    6.9170   -1.3350   22.8980 C   0  0  0  0  0  0  0  0  0  0  0  0
    6.6140   -2.2730   24.0630 C   0  0  0  0  0  0  0  0  0  0  0  0
    5.7560   -3.2640   23.5750 C   0  0  0  0  0  0  0  0  0  0  0  0
    6.2690   -4.0960   22.5670 C   0  0  0  0  0  0  0  0  0  0  0  0
    6.4740    2.0090   28.5330 N   0  0  0  0  0  0  0  0  0  0  0  0
    6.7620    1.2450   27.4430 C   0  0  0  0  0  0  0  0  0  0  0  0
    6.3320   -0.0310   27.2550 C   0  0  0  0  0  0  0  0  0  0  0  0
    5.4850   -0.6400   28.3140 C   0  0  0  0  0  0  0  0  0  0  0  0
    5.2060    0.1530   29.4120 C   0  0  0  0  0  0  0  0  0  0  0  0
    5.7020    1.4520   29.5020 C   0  0  0  0  0  0  0  0  0  0  0  0
   12.0200   -1.0980   23.1470 N   0  0  0  0  0  0  0  0  0  0  0  0
   11.6460   -2.5020   23.3110 C   0  0  0  0  0  0  0  0  0  0  0  0
   10.8470   -2.7480   24.4080 C   0  0  0  0  0  0  0  0  0  0  0  0
   10.0500   -1.5810   24.7320 N   0  0  0  0  0  0  0  0  0  0  0  0
   10.8080   -0.3980   25.0780 C   0  0  0  0  0  0  0  0  0  0  0  0
   12.0300   -0.3450   24.4140 C   0  0  0  0  0  0  0  0  0  0  0  0
  1  2  2  0
  1  3  1  0
  4  6  2  0
  6  7  1  0
  5  8  1  0
 10 11  2  0
  3 12  1  0
 11 12  1  0
  6 13  1  0
 13 14  1  0
 14 15  1  0
  1 16  1  0
 15 16  1  0
 16 17  1  0
 13 18  1  0
 17 18  1  0
 19 20  2  0
  3 21  1  0
 20 21  1  0
 21 22  2  0
 22 23  1  0
  5 24  1  0
 19 24  1  0
 23 24  2  0
  9 25  1  0
 25 26  1  0
 26 27  1  0
 11 28  1  0
 27 28  1  0
 28 29  1  0
 25 30  1  0
 29 30  1  0
M  END
