x0387-x2563
     RDKit          3D

 28 31  0  0  0  0  0  0  0  0999 V2000
    8.4530   -0.1410   21.5610 C   0  0  0  0  0  0  0  0  0  0  0  0
    8.7520    1.2130   21.1430 O   0  0  0  0  0  0  0  0  0  0  0  0
    7.5130   -0.9220   20.6690 C   0  0  0  0  0  0  0  0  0  0  0  0
    8.9140   -0.9180   22.7440 N   0  0  0  0  0  0  0  0  0  0  0  0
    8.9530   -4.4170   27.7550 O   0  0  0  0  0  0  0  0  0  0  0  0
    9.0710   -1.7970   24.3490 C   0  0  0  0  0  0  0  0  0  0  0  0
    6.2500    0.8390   17.4780 N   0  0  0  0  0  0  0  0  0  0  0  0
    5.0570    1.6030   17.8770 C   0  0  0  0  0  0  0  0  0  0  0  0
    4.6100    1.5310   19.2920 C   0  0  0  0  0  0  0  0  0  0  0  0
    5.4710    0.6540   20.2330 C   0  0  0  0  0  0  0  0  0  0  0  0
    6.6910   -0.0970   19.7700 C   0  0  0  0  0  0  0  0  0  0  0  0
    6.9620    0.0560   18.4650 C   0  0  0  0  0  0  0  0  0  0  0  0
    3.4900    2.1990   19.7870 C   0  0  0  0  0  0  0  0  0  0  0  0
    3.1590    2.0770   21.1190 C   0  0  0  0  0  0  0  0  0  0  0  0
    3.8930    1.3250   21.9600 C   0  0  0  0  0  0  0  0  0  0  0  0
    5.0360    0.6040   21.5770 C   0  0  0  0  0  0  0  0  0  0  0  0
   11.0370   -0.2830   22.3870 C   0  0  0  0  0  0  0  0  0  0  0  0
   12.4480   -0.0960   22.5840 C   0  0  0  0  0  0  0  0  0  0  0  0
   12.8080   -0.6850   23.7950 C   0  0  0  0  0  0  0  0  0  0  0  0
   11.8800   -1.3140   24.5690 C   0  0  0  0  0  0  0  0  0  0  0  0
   10.5080   -1.5780   24.5130 C   0  0  0  0  0  0  0  0  0  0  0  0
   10.2110   -0.9420   23.2630 C   0  0  0  0  0  0  0  0  0  0  0  0
    9.0360   -5.1180   26.5720 C   0  0  0  0  0  0  0  0  0  0  0  0
    7.8710   -4.8360   25.8780 C   0  0  0  0  0  0  0  0  0  0  0  0
    7.8580   -3.4890   25.5800 C   0  0  0  0  0  0  0  0  0  0  0  0
    8.9720   -3.2020   24.6810 N   0  0  0  0  0  0  0  0  0  0  0  0
   10.2820   -3.5680   25.2580 C   0  0  0  0  0  0  0  0  0  0  0  0
   10.2520   -4.7640   25.9800 C   0  0  0  0  0  0  0  0  0  0  0  0
  1  2  2  0
  1  3  1  0
  1  4  1  0
  7  8  2  0
  8  9  1  0
  9 10  2  0
  3 11  1  0
 10 11  1  0
  7 12  1  0
 11 12  2  0
  9 13  1  0
 13 14  2  0
 14 15  1  0
 10 16  1  0
 15 16  2  0
 17 18  2  0
 18 19  1  0
 19 20  2  0
  6 21  1  0
 20 21  1  0
  4 22  1  0
 17 22  1  0
 21 22  2  0
  5 23  1  0
 23 24  1  0
 24 25  1  0
  6 26  1  0
 25 26  1  0
 26 27  1  0
 23 28  1  0
 27 28  1  0
M  END
