x0387-x0336
     RDKit          3D

 15 15  0  0  0  0  0  0  0  0999 V2000
    5.2690  -29.9370   10.8040 C   0  0  0  0  0  0  0  0  0  0  0  0
    4.8690  -29.8040    9.3550 C   0  0  0  0  0  0  0  0  0  0  0  0
    4.7990  -30.7880    8.6300 O   0  0  0  0  0  0  0  0  0  0  0  0
    4.5860  -28.5140    8.9230 N   0  0  0  0  0  0  0  0  0  0  0  0
    5.0540  -27.3480    9.6680 C   0  0  0  0  0  0  0  0  0  0  0  0
    1.4340  -22.6880    9.1780 S   0  0  0  0  0  0  0  0  0  0  0  0
    1.8520  -21.6290   10.0510 O   0  0  0  0  0  0  0  0  0  0  0  0
    0.0710  -23.1720    9.1820 O   0  0  0  0  0  0  0  0  0  0  0  0
    1.7190  -22.1430    7.5890 N   0  0  0  0  0  0  0  0  0  0  0  0
    4.1230  -26.1410    9.5990 C   0  0  0  0  0  0  0  0  0  0  0  0
    3.6920  -25.6790    8.2200 C   0  0  0  0  0  0  0  0  0  0  0  0
    2.8660  -24.6140    8.0030 C   0  0  0  0  0  0  0  0  0  0  0  0
    2.5270  -24.0900    9.3150 C   0  0  0  0  0  0  0  0  0  0  0  0
    2.7850  -24.3420   10.6150 C   0  0  0  0  0  0  0  0  0  0  0  0
    3.6440  -25.4350   10.7650 C   0  0  0  0  0  0  0  0  0  0  0  0
  1  2  1  0
  2  3  2  0
  2  4  1  0
  4  5  1  0
  6  7  2  0
  6  8  2  0
  6  9  1  0
  5 10  1  0
 10 11  2  0
 11 12  1  0
  6 13  1  0
 12 13  2  0
 13 14  1  0
 10 15  1  0
 14 15  2  0
M  END
