x0387-x0691
     RDKit          3D

 34 39  0  0  0  0  0  0  0  0999 V2000
    3.8740   -6.8150   25.5070 O   0  0  0  0  0  0  0  0  0  0  0  0
    5.7890   -5.5630   26.8100 N   0  0  0  0  0  0  0  0  0  0  0  0
    5.3020   -4.7130   19.9480 O   0  0  0  0  0  0  0  0  0  0  0  0
    6.3870   -4.4900   20.5210 C   0  0  0  0  0  0  0  0  0  0  0  0
    7.3050   -3.4540   19.9280 C   0  0  0  0  0  0  0  0  0  0  0  0
    3.2500   -0.6070   25.9610 F   0  0  0  0  0  0  0  0  0  0  0  0
    4.7030   -5.6470   25.6960 S   0  0  2  0  0  0  0  0  0  0  0  0
    8.9920   -4.2360   27.5180 O   0  0  0  0  0  0  0  0  0  0  0  0
    9.7290   -1.4670   24.2070 C   0  0  0  0  0  0  0  0  0  0  0  0
    6.6560   -4.3890   27.1080 C   0  0  0  0  0  0  0  0  0  0  0  0
    8.0860   -4.8210   27.1410 C   0  0  2  0  0  0  0  0  0  0  0  0
    2.9360   -1.9050   25.8700 C   0  0  0  0  0  0  0  0  0  0  0  0
    4.0360   -2.9600   25.8410 C   0  0  0  0  0  0  0  0  0  0  0  0
    3.5640   -4.2730   25.7430 C   0  0  0  0  0  0  0  0  0  0  0  0
    2.2220   -4.5920   25.6750 C   0  0  0  0  0  0  0  0  0  0  0  0
    1.2490   -3.5900   25.7040 C   0  0  0  0  0  0  0  0  0  0  0  0
    1.5980   -2.2910   25.8000 C   0  0  0  0  0  0  0  0  0  0  0  0
    6.6680   -5.2040   21.6910 N   0  0  0  0  0  0  0  0  0  0  0  0
    5.7630   -6.2000   22.0660 C   0  0  0  0  0  0  0  0  0  0  0  0
    4.8570   -5.9210   23.1090 C   0  0  0  0  0  0  0  0  0  0  0  0
    5.5160   -5.5670   24.1660 N   0  0  0  0  0  0  0  0  0  0  0  0
    6.2980   -4.5480   23.9540 C   0  0  0  0  0  0  0  0  0  0  0  0
    7.1580   -4.5640   22.7590 C   0  0  0  0  0  0  0  0  0  0  0  0
    9.1530   -5.0530   26.1990 C   0  0  2  0  0  0  0  0  0  0  0  0
    8.2640   -4.5270   25.5870 C   0  0  2  0  0  0  0  0  0  0  0  0
    8.2900   -3.1780   25.1430 C   0  0  0  0  0  0  0  0  0  0  0  0
    9.6130   -2.9100   24.5730 N   0  0  0  0  0  0  0  0  0  0  0  0
   10.5900   -3.2410   25.4210 C   0  0  0  0  0  0  0  0  0  0  0  0
   10.4570   -4.6010   25.6030 C   0  0  0  0  0  0  0  0  0  0  0  0
   11.8450   -0.1050   23.8310 C   0  0  0  0  0  0  0  0  0  0  0  0
   11.0530   -1.1980   23.5380 C   0  0  0  0  0  0  0  0  0  0  0  0
   11.6120   -2.0140   22.5630 C   0  0  0  0  0  0  0  0  0  0  0  0
   13.1200   -1.3920   22.0350 S   0  0  0  0  0  0  0  0  0  0  0  0
   13.0210   -0.0480   23.0950 C   0  0  0  0  0  0  0  0  0  0  0  0
  3  4  2  0
  4  5  1  0
  1  7  2  0
  2  7  2  0
  2 10  1  0
  8 11  1  0
 11 10  1  6
  6 12  1  0
 12 13  2  0
  7 14  1  1
 13 14  1  0
 14 15  2  0
 15 16  1  0
 12 17  1  0
 16 17  2  0
  4 18  1  0
 18 19  1  0
 19 20  1  0
  7 21  1  0
 20 21  1  0
 21 22  1  0
 18 23  1  0
 22 23  1  0
 24  8  1  0
 11 24  1  0
 11 25  1  0
 24 25  1  0
 25 26  1  1
  9 27  1  0
 26 27  1  0
 27 28  1  0
 24 29  1  6
 28 29  1  0
  9 31  1  0
 30 31  1  0
 31 32  2  0
 32 33  1  0
 30 34  2  0
 33 34  1  0
M  END
