x0387-x0426
     RDKit          3D

 35 38  0  0  0  0  0  0  0  0999 V2000
    2.3180    1.6860   23.8980 C   0  0  0  0  0  0  0  0  0  0  0  0
    2.1030    0.4830   23.8070 O   0  0  0  0  0  0  0  0  0  0  0  0
    3.5610    2.3520   23.3930 N   0  0  0  0  0  0  0  0  0  0  0  0
    4.4240    1.6920   22.4610 C   0  0  2  0  0  0  0  0  0  0  0  0
    3.7920    1.2720   21.1910 C   0  0  0  0  0  0  0  0  0  0  0  0
    2.8450    4.2500   25.1900 F   0  0  0  0  0  0  0  0  0  0  0  0
    9.0550   -5.2380   27.6250 O   0  0  0  0  0  0  0  0  0  0  0  0
    9.7960   -1.2400   24.5070 C   0  0  1  0  0  0  0  0  0  0  0  0
    5.1810    0.5500   23.1430 C   0  0  0  0  0  0  0  0  0  0  0  0
    6.7280    0.5470   23.0310 C   0  0  0  0  0  0  0  0  0  0  0  0
    7.5450   -0.6700   23.5030 C   0  0  0  0  0  0  0  0  0  0  0  0
    8.7350   -0.2270   24.0970 C   0  0  0  0  0  0  0  0  0  0  0  0
    1.5940    3.7710   25.1790 C   0  0  0  0  0  0  0  0  0  0  0  0
    1.2850    2.5440   24.5690 C   0  0  0  0  0  0  0  0  0  0  0  0
   -0.0130    2.0790   24.5760 C   0  0  0  0  0  0  0  0  0  0  0  0
   -1.1070    2.7680   25.1750 C   0  0  0  0  0  0  0  0  0  0  0  0
   -0.7710    3.9700   25.7670 C   0  0  0  0  0  0  0  0  0  0  0  0
    0.5750    4.5090   25.7910 C   0  0  0  0  0  0  0  0  0  0  0  0
    5.7360    0.0050   20.1970 C   0  0  0  0  0  0  0  0  0  0  0  0
    6.5880   -0.2480   19.1160 C   0  0  0  0  0  0  0  0  0  0  0  0
    6.4950    0.3840   17.9270 N   0  0  0  0  0  0  0  0  0  0  0  0
    5.4630    1.3520   17.8030 C   0  0  0  0  0  0  0  0  0  0  0  0
    4.6130    1.6150   18.8640 C   0  0  0  0  0  0  0  0  0  0  0  0
    4.7230    0.9670   20.0570 C   0  0  0  0  0  0  0  0  0  0  0  0
    9.2480   -4.3050   26.5750 C   0  0  0  0  0  0  0  0  0  0  0  0
    8.2100   -4.2850   25.6930 C   0  0  0  0  0  0  0  0  0  0  0  0
    8.2080   -3.2680   24.7410 C   0  0  0  0  0  0  0  0  0  0  0  0
    9.5330   -2.6340   24.6890 N   0  0  0  0  0  0  0  0  0  0  0  0
   10.7320   -3.4650   24.9450 C   0  0  0  0  0  0  0  0  0  0  0  0
   10.5270   -4.5490   25.8270 C   0  0  0  0  0  0  0  0  0  0  0  0
   11.9210   -0.0170   23.8750 C   0  0  0  0  0  0  0  0  0  0  0  0
   11.0800   -1.1060   23.6770 C   0  0  0  0  0  0  0  0  0  0  0  0
   11.5240   -1.9910   22.7000 C   0  0  0  0  0  0  0  0  0  0  0  0
   13.0070   -1.4700   22.0220 S   0  0  0  0  0  0  0  0  0  0  0  0
   13.0230   -0.0480   23.0560 C   0  0  0  0  0  0  0  0  0  0  0  0
  1  2  2  0
  1  3  1  0
  3  4  1  0
  4  5  1  6
  4  9  1  0
  9 10  1  0
 10 11  1  0
  8 12  1  6
 11 12  1  0
  6 13  1  0
  1 14  1  0
 13 14  2  0
 14 15  1  0
 15 16  2  0
 16 17  1  0
 13 18  1  0
 17 18  2  0
 19 20  2  0
 20 21  1  0
 21 22  2  0
 22 23  1  0
  5 24  1  0
 19 24  1  0
 23 24  2  0
  7 25  1  0
 25 26  1  0
 26 27  1  0
  8 28  1  0
 27 28  1  0
 28 29  1  0
 25 30  1  0
 29 30  1  0
  8 32  1  0
 31 32  1  0
 32 33  2  0
 33 34  1  0
 31 35  2  0
 34 35  1  0
M  END
