x0387-x1478
     RDKit          3D

 26 29  0  0  0  0  0  0  0  0999 V2000
    7.0650   -2.7360   21.5120 N   0  0  0  0  0  0  0  0  0  0  0  0
    7.9360   -3.7290   19.5620 C   0  0  0  0  0  0  0  0  0  0  0  0
    5.7210   -3.3980   19.5270 O   0  0  0  0  0  0  0  0  0  0  0  0
    6.3060   -6.0950   22.3980 Cl  0  0  0  0  0  0  0  0  0  0  0  0
    6.8150   -3.2260   20.2110 C   0  0  0  0  0  0  0  0  0  0  0  0
    9.4020   -4.7210   27.1220 O   0  0  0  0  0  0  0  0  0  0  0  0
    9.6080   -1.3050   24.1020 C   0  0  1  0  0  0  0  0  0  0  0  0
    8.4810   -2.7950   22.0640 C   0  0  0  0  0  0  0  0  0  0  0  0
    8.4390   -2.0540   23.3700 C   0  0  1  0  0  0  0  0  0  0  0  0
    4.6580   -4.7020   24.0070 N   0  0  0  0  0  0  0  0  0  0  0  0
    5.6890   -4.5940   22.9620 C   0  0  0  0  0  0  0  0  0  0  0  0
    6.0690   -3.1760   22.5320 C   0  0  0  0  0  0  0  0  0  0  0  0
    5.4320   -2.1190   23.1460 C   0  0  0  0  0  0  0  0  0  0  0  0
    4.4860   -2.2230   24.1100 C   0  0  0  0  0  0  0  0  0  0  0  0
    4.0770   -3.4680   24.5590 C   0  0  0  0  0  0  0  0  0  0  0  0
    8.5460   -4.9220   25.9930 C   0  0  1  0  0  0  0  0  0  0  0  0
    7.6620   -3.8750   25.9480 C   0  0  0  0  0  0  0  0  0  0  0  0
    8.5180   -2.8020   25.8590 C   0  0  0  0  0  0  0  0  0  0  0  0
    9.2850   -2.6780   24.6280 C   0  0  2  0  0  0  0  0  0  0  0  0
    9.0060   -3.8910   23.9460 C   0  0  0  0  0  0  0  0  0  0  0  0
    9.2930   -4.9760   24.8330 C   0  0  0  0  0  0  0  0  0  0  0  0
   11.8440    0.1470   23.8260 C   0  0  0  0  0  0  0  0  0  0  0  0
   11.0310   -0.9220   23.5700 C   0  0  0  0  0  0  0  0  0  0  0  0
   11.2110   -1.9700   22.7840 C   0  0  0  0  0  0  0  0  0  0  0  0
   12.7840   -1.6420   22.1330 S   0  0  0  0  0  0  0  0  0  0  0  0
   12.9580   -0.1100   23.0420 C   0  0  0  0  0  0  0  0  0  0  0  0
  1  5  1  0
  2  5  1  0
  3  5  2  0
  1  8  1  0
  7  9  1  0
  9  8  1  6
  4 11  1  0
 10 11  2  0
  1 12  1  0
 11 12  1  0
 12 13  2  0
 13 14  1  0
 10 15  1  0
 14 15  2  0
 16  6  1  1
 16 17  1  0
 17 18  1  0
  7 19  1  0
  9 19  1  0
 19 18  1  1
 19 20  1  0
 16 21  1  0
 20 21  1  0
  7 23  1  6
 22 23  1  0
 23 24  2  0
 24 25  1  0
 22 26  2  0
 25 26  1  0
M  END
