x0387-x1402
     RDKit          3D

 33 39  0  0  0  0  0  0  0  0999 V2000
    7.2720   -3.4810   19.9270 C   0  0  0  0  0  0  0  0  0  0  0  0
    5.2770   -4.7360   19.9520 O   0  0  0  0  0  0  0  0  0  0  0  0
    0.9480   -1.2890   26.1650 Cl  0  0  0  0  0  0  0  0  0  0  0  0
    6.3760   -4.5430   20.5070 C   0  0  0  0  0  0  0  0  0  0  0  0
    3.7630   -6.6630   25.6630 O   0  0  0  0  0  0  0  0  0  0  0  0
    6.0180   -5.4010   26.8100 N   0  0  0  0  0  0  0  0  0  0  0  0
    4.9040   -5.4810   25.7430 S   0  0  1  0  0  0  0  0  0  0  0  0
    9.4220   -4.1650   27.4650 O   0  0  0  0  0  0  0  0  0  0  0  0
    9.7160   -1.3560   24.2400 C   0  0  0  0  0  0  0  0  0  0  0  0
    6.9530   -4.2660   26.8640 C   0  0  1  0  0  0  0  0  0  0  0  0
    8.1950   -4.6000   27.4900 C   0  0  2  0  0  0  0  0  0  0  0  0
    6.7170   -5.3250   21.6100 N   0  0  0  0  0  0  0  0  0  0  0  0
    7.5730   -4.9080   22.7160 C   0  0  0  0  0  0  0  0  0  0  0  0
    6.7340   -4.5100   23.9270 C   0  0  0  0  0  0  0  0  0  0  0  0
    5.6900   -5.4650   24.2060 N   0  0  0  0  0  0  0  0  0  0  0  0
    4.9540   -5.8990   23.0200 C   0  0  0  0  0  0  0  0  0  0  0  0
    5.7650   -6.3590   22.0130 C   0  0  0  0  0  0  0  0  0  0  0  0
    2.3170   -3.9040   25.8990 S   0  0  0  0  0  0  0  0  0  0  0  0
    4.0330   -4.0100   25.8910 C   0  0  0  0  0  0  0  0  0  0  0  0
    4.6050   -2.8030   26.0070 C   0  0  0  0  0  0  0  0  0  0  0  0
    3.7090   -1.7430   26.1090 C   0  0  0  0  0  0  0  0  0  0  0  0
    2.3900   -2.2080   26.0670 C   0  0  0  0  0  0  0  0  0  0  0  0
    9.1400   -4.9660   26.3070 C   0  0  2  0  0  0  0  0  0  0  0  0
    8.0750   -4.2000   26.0130 C   0  0  1  0  0  0  0  0  0  0  0  0
    8.2330   -2.9350   25.3940 C   0  0  0  0  0  0  0  0  0  0  0  0
    9.4850   -2.7710   24.6430 N   0  0  0  0  0  0  0  0  0  0  0  0
   10.6490   -3.4610   25.1780 C   0  0  0  0  0  0  0  0  0  0  0  0
   10.3710   -4.7930   25.4920 C   0  0  0  0  0  0  0  0  0  0  0  0
   11.8710   -0.0650   23.8240 C   0  0  0  0  0  0  0  0  0  0  0  0
   11.0430   -1.1410   23.5630 C   0  0  0  0  0  0  0  0  0  0  0  0
   11.6000   -1.9570   22.6120 C   0  0  0  0  0  0  0  0  0  0  0  0
   13.1110   -1.4400   22.0360 S   0  0  0  0  0  0  0  0  0  0  0  0
   13.0300   -0.0790   23.0750 C   0  0  0  0  0  0  0  0  0  0  0  0
  1  4  1  0
  2  4  2  0
  5  7  2  0
  6  7  2  0
 10  6  1  6
 11  8  1  6
 10 11  1  0
  4 12  1  0
 12 13  1  0
 13 14  1  0
  7 15  1  0
 14 15  1  0
 15 16  1  0
 12 17  1  0
 16 17  1  0
  7 19  1  6
 18 19  1  0
 19 20  2  0
 20 21  1  0
  3 22  1  0
 18 22  1  0
 21 22  2  0
 23  8  1  0
 11 23  1  0
 10 24  1  0
 11 24  1  0
 23 24  1  0
 24 25  1  1
  9 26  1  0
 25 26  1  0
 26 27  1  0
 23 28  1  6
 27 28  1  0
  9 30  1  0
 29 30  1  0
 30 31  2  0
 31 32  1  0
 29 33  2  0
 32 33  1  0
M  END
