x0387-x2608
     RDKit          3D

 24 26  0  0  0  0  0  0  0  0999 V2000
    8.5430   -0.7950   22.4660 N   0  0  0  0  0  0  0  0  0  0  0  0
   12.8000    2.2780   22.8440 C   0  0  0  0  0  0  0  0  0  0  0  0
    8.4090    1.2010   20.9270 O   0  0  0  0  0  0  0  0  0  0  0  0
    6.8480   -0.7410   20.8870 N   0  0  0  0  0  0  0  0  0  0  0  0
    7.9380   -0.0940   21.4110 C   0  0  0  0  0  0  0  0  0  0  0  0
    8.6430   -5.2860   27.6300 O   0  0  0  0  0  0  0  0  0  0  0  0
   10.5260   -2.6370   23.4640 C   0  0  0  0  0  0  0  0  0  0  0  0
   11.9310    1.0760   22.9540 C   0  0  0  0  0  0  0  0  0  0  0  0
   12.2040   -0.3550   23.3760 C   0  0  0  0  0  0  0  0  0  0  0  0
   10.9260   -1.1740   23.2360 C   0  0  0  0  0  0  0  0  0  0  0  0
    9.8580   -0.3100   22.7470 C   0  0  0  0  0  0  0  0  0  0  0  0
   10.2800    1.3730   22.4890 S   0  0  0  0  0  0  0  0  0  0  0  0
    6.1350    0.8060   17.6240 N   0  0  0  0  0  0  0  0  0  0  0  0
    6.6850    0.0690   18.7250 C   0  0  0  0  0  0  0  0  0  0  0  0
    6.0780    0.0250   19.9420 C   0  0  0  0  0  0  0  0  0  0  0  0
    4.8800    0.6910   20.1470 C   0  0  0  0  0  0  0  0  0  0  0  0
    4.3510    1.3860   19.1280 C   0  0  0  0  0  0  0  0  0  0  0  0
    4.9830    1.4450   17.8800 C   0  0  0  0  0  0  0  0  0  0  0  0
    9.0880   -4.3320   26.6810 C   0  0  0  0  0  0  0  0  0  0  0  0
    7.9320   -3.6970   26.0760 C   0  0  0  0  0  0  0  0  0  0  0  0
    8.5070   -3.1010   24.8580 C   0  0  0  0  0  0  0  0  0  0  0  0
    9.9870   -2.8980   24.8210 N   0  0  0  0  0  0  0  0  0  0  0  0
   10.7020   -3.8130   25.4320 C   0  0  0  0  0  0  0  0  0  0  0  0
    9.9840   -4.9930   25.6430 C   0  0  0  0  0  0  0  0  0  0  0  0
  1  5  1  0
  3  5  2  0
  4  5  1  0
  2  8  1  0
  8  9  2  0
  7 10  1  0
  9 10  1  0
  1 11  1  0
 10 11  2  0
  8 12  1  0
 11 12  1  0
 13 14  2  0
  4 15  1  0
 14 15  1  0
 15 16  2  0
 16 17  1  0
 13 18  1  0
 17 18  2  0
  6 19  1  0
 19 20  1  0
 20 21  1  0
  7 22  1  0
 21 22  1  0
 22 23  1  0
 19 24  1  0
 23 24  1  0
M  END
