x0387-x0689
     RDKit          3D

 32 38  0  0  0  0  0  0  0  0999 V2000
    7.2440   -3.3900   19.8310 C   0  0  0  0  0  0  0  0  0  0  0  0
    5.1730   -4.5390   19.8730 O   0  0  0  0  0  0  0  0  0  0  0  0
    6.2780   -4.3850   20.4230 C   0  0  0  0  0  0  0  0  0  0  0  0
    4.1100   -6.1830   26.0330 O   0  0  0  0  0  0  0  0  0  0  0  0
    5.8090   -4.1590   26.4830 N   0  0  0  0  0  0  0  0  0  0  0  0
    4.7690   -4.9370   25.6890 S   0  0  1  0  0  0  0  0  0  0  0  0
    9.1130   -5.2170   27.8330 O   0  0  0  0  0  0  0  0  0  0  0  0
    9.5950   -1.4930   24.2760 C   0  0  0  0  0  0  0  0  0  0  0  0
    7.0670   -4.8920   26.6870 C   0  0  2  0  0  0  0  0  0  0  0  0
    8.1690   -4.2940   27.3860 C   0  0  1  0  0  0  0  0  0  0  0  0
    6.5490   -5.1470   21.5630 N   0  0  0  0  0  0  0  0  0  0  0  0
    5.7140   -6.2930   21.9840 C   0  0  0  0  0  0  0  0  0  0  0  0
    4.7550   -5.9210   23.1230 C   0  0  0  0  0  0  0  0  0  0  0  0
    5.4960   -5.1300   24.1520 N   0  0  0  0  0  0  0  0  0  0  0  0
    6.2420   -4.0080   23.5880 C   0  0  0  0  0  0  0  0  0  0  0  0
    7.1880   -4.4640   22.6910 C   0  0  0  0  0  0  0  0  0  0  0  0
    3.8330   -2.1290   25.9810 S   0  0  0  0  0  0  0  0  0  0  0  0
    3.4460   -3.7630   25.6320 C   0  0  0  0  0  0  0  0  0  0  0  0
    2.1320   -3.8750   25.3680 C   0  0  0  0  0  0  0  0  0  0  0  0
    1.3850   -2.7050   25.4340 C   0  0  0  0  0  0  0  0  0  0  0  0
    2.2040   -1.6290   25.7710 C   0  0  0  0  0  0  0  0  0  0  0  0
    9.3230   -5.0720   26.4560 C   0  0  2  0  0  0  0  0  0  0  0  0
    8.1290   -4.5750   25.8160 C   0  0  1  0  0  0  0  0  0  0  0  0
    8.2110   -3.3960   25.0520 C   0  0  0  0  0  0  0  0  0  0  0  0
    9.5070   -2.6920   25.1410 N   0  0  0  0  0  0  0  0  0  0  0  0
   10.5160   -3.5780   25.0810 C   0  0  0  0  0  0  0  0  0  0  0  0
   10.5560   -4.6070   26.0500 C   0  0  0  0  0  0  0  0  0  0  0  0
   11.7500   -0.1920   23.9360 C   0  0  0  0  0  0  0  0  0  0  0  0
   10.9480   -1.2710   23.6070 C   0  0  0  0  0  0  0  0  0  0  0  0
   11.5220   -2.0600   22.6350 C   0  0  0  0  0  0  0  0  0  0  0  0
   13.0440   -1.4740   22.1280 S   0  0  0  0  0  0  0  0  0  0  0  0
   12.9270   -0.1550   23.2160 C   0  0  0  0  0  0  0  0  0  0  0  0
  1  3  1  0
  2  3  2  0
  4  6  2  0
  5  6  2  0
  9  5  1  6
 10  7  1  6
  9 10  1  0
  3 11  1  0
 11 12  1  0
 12 13  1  0
  6 14  1  0
 13 14  1  0
 14 15  1  0
 11 16  1  0
 15 16  1  0
  6 18  1  6
 17 18  1  0
 18 19  2  0
 19 20  1  0
 17 21  1  0
 20 21  2  0
 22  7  1  0
 10 22  1  0
  9 23  1  0
 10 23  1  0
 22 23  1  0
 23 24  1  6
  8 25  1  0
 24 25  1  0
 25 26  1  0
 22 27  1  6
 26 27  1  0
  8 29  1  0
 28 29  1  0
 29 30  2  0
 30 31  1  0
 28 32  2  0
 31 32  1  0
M  END
