x0387-x1358
     RDKit          3D

 32 35  0  0  0  0  0  0  0  0999 V2000
    6.8770   -2.5530   25.3880 N   0  0  0  0  0  0  0  0  0  0  0  0
    6.0330    0.2260   25.1420 O   0  0  0  0  0  0  0  0  0  0  0  0
    4.7470   -3.4320   25.4730 O   0  0  0  0  0  0  0  0  0  0  0  0
    5.2080   -4.0700   19.6550 O   0  0  0  0  0  0  0  0  0  0  0  0
    5.7560   -3.1590   24.8240 C   0  0  0  0  0  0  0  0  0  0  0  0
    6.3960   -3.8510   19.9810 C   0  0  0  0  0  0  0  0  0  0  0  0
    7.3560   -3.1870   19.0670 C   0  0  0  0  0  0  0  0  0  0  0  0
    9.3530   -4.2420   27.7670 O   0  0  0  0  0  0  0  0  0  0  0  0
    9.3370   -1.6600   24.0140 C   0  0  0  0  0  0  0  0  0  0  0  0
    6.1070   -0.2650   26.2690 C   0  0  0  0  0  0  0  0  0  0  0  0
    6.5270   -1.7020   26.5570 C   0  0  0  0  0  0  0  0  0  0  0  0
    6.5650   -2.2390   27.9740 C   0  0  0  0  0  0  0  0  0  0  0  0
    6.2070   -1.2700   28.9490 C   0  0  0  0  0  0  0  0  0  0  0  0
    5.8430    0.0500   28.6650 C   0  0  0  0  0  0  0  0  0  0  0  0
    5.7900    0.5410   27.3550 C   0  0  0  0  0  0  0  0  0  0  0  0
    6.8820   -4.2850   21.1920 N   0  0  0  0  0  0  0  0  0  0  0  0
    7.6920   -3.3750   21.9820 C   0  0  0  0  0  0  0  0  0  0  0  0
    6.8200   -2.6550   22.8040 C   0  0  0  0  0  0  0  0  0  0  0  0
    5.8180   -3.4840   23.3260 C   0  0  0  0  0  0  0  0  0  0  0  0
    6.0350   -4.9520   23.3110 C   0  0  0  0  0  0  0  0  0  0  0  0
    6.2270   -5.2170   21.8870 C   0  0  0  0  0  0  0  0  0  0  0  0
    9.2230   -4.8320   26.7090 C   0  0  1  0  0  0  0  0  0  0  0  0
    8.1220   -4.5320   25.9040 C   0  0  0  0  0  0  0  0  0  0  0  0
    8.1330   -3.2840   25.2320 C   0  0  2  0  0  0  0  0  0  0  0  0
    9.2690   -2.5740   25.1400 N   0  0  0  0  0  0  0  0  0  0  0  0
   10.4440   -3.3920   25.1570 C   0  0  0  0  0  0  0  0  0  0  0  0
   10.4580   -4.5720   25.8880 C   0  0  0  0  0  0  0  0  0  0  0  0
   11.4660   -0.1490   23.8390 C   0  0  0  0  0  0  0  0  0  0  0  0
   10.7560   -1.3160   23.5200 C   0  0  0  0  0  0  0  0  0  0  0  0
   11.4850   -2.1570   22.6710 C   0  0  0  0  0  0  0  0  0  0  0  0
   13.0300   -1.5160   22.2730 S   0  0  0  0  0  0  0  0  0  0  0  0
   12.7320   -0.0700   23.2580 C   0  0  0  0  0  0  0  0  0  0  0  0
  1  5  1  0
  3  5  2  0
  4  6  2  0
  6  7  1  0
  2 10  1  0
  1 11  1  0
 10 11  2  0
 11 12  1  0
 12 13  2  0
 13 14  1  0
 10 15  1  0
 14 15  2  0
  6 16  1  0
 16 17  1  0
 17 18  1  0
  5 19  1  0
 18 19  1  0
 19 20  1  0
 16 21  1  0
 20 21  1  0
 22  8  1  1
 22 23  1  0
 24  1  1  1
 23 24  1  0
  9 25  1  0
 24 25  1  0
 25 26  1  0
 22 27  1  0
 26 27  1  0
  9 29  1  0
 28 29  1  0
 29 30  2  0
 30 31  1  0
 28 32  2  0
 31 32  1  0
M  END
