x0387-x0831
     RDKit          3D

 25 27  0  0  0  0  0  0  0  0999 V2000
   12.7370   -2.1710   22.3840 C   0  0  0  0  0  0  0  0  0  0  0  0
    5.3090   -4.2320   19.7370 O   0  0  0  0  0  0  0  0  0  0  0  0
    9.7490   -2.1330   23.5070 C   0  0  2  0  0  0  0  0  0  0  0  0
    6.2230   -3.3880   19.8980 C   0  0  0  0  0  0  0  0  0  0  0  0
    7.1550   -3.0160   18.8110 C   0  0  0  0  0  0  0  0  0  0  0  0
    8.9100   -4.4550   27.7690 O   0  0  0  0  0  0  0  0  0  0  0  0
   12.1120   -0.9360   22.9370 C   0  0  0  0  0  0  0  0  0  0  0  0
   10.6790   -0.9240   23.4710 C   0  0  0  0  0  0  0  0  0  0  0  0
   10.1150    0.3830   24.0030 C   0  0  0  0  0  0  0  0  0  0  0  0
   10.9800    1.4770   23.9570 C   0  0  0  0  0  0  0  0  0  0  0  0
   12.2640    1.4170   23.4700 C   0  0  0  0  0  0  0  0  0  0  0  0
   12.8220    0.2520   22.9730 C   0  0  0  0  0  0  0  0  0  0  0  0
    6.3830   -2.8210   21.1690 N   0  0  0  0  0  0  0  0  0  0  0  0
    6.2190   -1.3740   21.3330 C   0  0  0  0  0  0  0  0  0  0  0  0
    7.4230   -0.6760   21.0670 C   0  0  0  0  0  0  0  0  0  0  0  0
    8.5160   -1.3570   21.5980 C   0  0  0  0  0  0  0  0  0  0  0  0
    8.4340   -1.7380   23.0070 N   0  0  0  0  0  0  0  0  0  0  0  0
    7.4090   -2.7260   23.3570 C   0  0  0  0  0  0  0  0  0  0  0  0
    6.9440   -3.5720   22.2720 C   0  0  0  0  0  0  0  0  0  0  0  0
    9.2140   -5.0270   26.5070 C   0  0  0  0  0  0  0  0  0  0  0  0
    8.3230   -4.5580   25.5550 C   0  0  0  0  0  0  0  0  0  0  0  0
    8.4330   -3.2270   25.1560 C   0  0  0  0  0  0  0  0  0  0  0  0
    9.6190   -2.8090   24.8280 N   0  0  0  0  0  0  0  0  0  0  0  0
   10.7420   -3.5760   25.2360 C   0  0  0  0  0  0  0  0  0  0  0  0
   10.6250   -4.6640   26.1140 C   0  0  0  0  0  0  0  0  0  0  0  0
  2  4  2  0
  4  5  1  0
  1  7  1  0
  3  8  1  1
  7  8  2  0
  8  9  1  0
  9 10  2  0
 10 11  1  0
  7 12  1  0
 11 12  2  0
  4 13  1  0
 13 14  1  0
 14 15  1  0
 15 16  1  0
  3 17  1  0
 16 17  1  0
 17 18  1  0
 13 19  1  0
 18 19  1  0
  6 20  1  0
 20 21  1  0
 21 22  1  0
  3 23  1  0
 22 23  1  0
 23 24  1  0
 20 25  1  0
 24 25  1  0
M  END
