x0387-x0786
     RDKit          3D

 34 39  0  0  0  0  0  0  0  0999 V2000
    6.0310   -3.5160   21.9770 N   0  0  0  0  0  0  0  0  0  0  0  0
    7.6710   -4.5260   20.6070 C   0  0  0  0  0  0  0  0  0  0  0  0
    5.3540   -4.3840   19.8980 O   0  0  0  0  0  0  0  0  0  0  0  0
    6.2220   -4.1510   20.7610 C   0  0  0  0  0  0  0  0  0  0  0  0
    3.9170   -7.9330   24.6410 O   0  0  0  0  0  0  0  0  0  0  0  0
    3.2980   -6.9610   24.2150 C   0  0  0  0  0  0  0  0  0  0  0  0
    9.1850   -5.6240   27.5870 O   0  0  0  0  0  0  0  0  0  0  0  0
    9.5840   -1.5520   23.8170 C   0  0  0  0  0  0  0  0  0  0  0  0
    7.3260   -3.1830   22.5540 C   0  0  0  0  0  0  0  0  0  0  0  0
    7.7730   -4.3330   23.4390 C   0  0  0  0  0  0  0  0  0  0  0  0
    8.5850   -3.9120   24.5850 C   0  0  1  0  0  0  0  0  0  0  0  0
    5.3170   -4.0450   23.0580 C   0  0  0  0  0  0  0  0  0  0  0  0
    4.6640   -5.2660   23.0600 C   0  0  0  0  0  0  0  0  0  0  0  0
    4.0000   -5.6760   24.2100 C   0  0  0  0  0  0  0  0  0  0  0  0
    3.9940   -4.8710   25.3490 C   0  0  0  0  0  0  0  0  0  0  0  0
    4.6540   -3.6420   25.3450 C   0  0  0  0  0  0  0  0  0  0  0  0
    5.3050   -3.2430   24.2050 C   0  0  0  0  0  0  0  0  0  0  0  0
    1.4300   -5.6890   23.3690 C   0  0  0  0  0  0  0  0  0  0  0  0
    0.5530   -5.1550   24.3250 C   0  0  0  0  0  0  0  0  0  0  0  0
   -0.9580   -6.1470   24.4640 S   0  0  0  0  0  0  0  0  0  0  0  0
   -0.1360   -7.7290   24.8650 C   0  0  0  0  0  0  0  0  0  0  0  0
    1.0350   -8.0900   23.9390 C   0  0  0  0  0  0  0  0  0  0  0  0
    1.9860   -6.9880   23.7560 N   0  0  0  0  0  0  0  0  0  0  0  0
    9.4130   -4.4620   26.8380 C   0  0  2  0  0  0  0  0  0  0  0  0
    8.3800   -4.2240   26.0350 C   0  0  1  0  0  0  0  0  0  0  0  0
    8.2390   -2.8180   25.5690 C   0  0  1  0  0  0  0  0  0  0  0  0
    9.5130   -2.7430   24.7500 C   0  0  2  0  0  0  0  0  0  0  0  0
   10.8600   -3.3140   25.1400 C   0  0  0  0  0  0  0  0  0  0  0  0
   10.7020   -4.5470   26.0330 C   0  0  0  0  0  0  0  0  0  0  0  0
   11.7610   -0.0920   23.8050 C   0  0  0  0  0  0  0  0  0  0  0  0
   10.9630   -1.1940   23.3450 C   0  0  0  0  0  0  0  0  0  0  0  0
   11.6320   -1.9070   22.3840 C   0  0  0  0  0  0  0  0  0  0  0  0
   13.1730   -1.2920   22.0360 S   0  0  0  0  0  0  0  0  0  0  0  0
   12.9770   -0.0340   23.1690 C   0  0  0  0  0  0  0  0  0  0  0  0
  1  4  1  0
  2  4  1  0
  3  4  2  0
  5  6  2  0
  1  9  1  0
  9 10  1  0
 11 10  1  6
  1 12  1  0
 12 13  2  0
  6 14  1  0
 13 14  1  0
 14 15  2  0
 15 16  1  0
 12 17  1  0
 16 17  2  0
 18 19  1  0
 19 20  1  0
 20 21  1  0
 21 22  1  0
  6 23  1  0
 18 23  1  0
 22 23  1  0
 24  7  1  6
 11 25  1  0
 25 24  1  1
 11 26  1  0
 25 26  1  0
 27  8  1  6
 11 27  1  0
 26 27  1  1
 27 28  1  0
 24 29  1  0
 28 29  1  0
  8 31  1  0
 30 31  1  0
 31 32  2  0
 32 33  1  0
 30 34  2  0
 33 34  1  0
M  END
