x0387-x1351
     RDKit          3D

 31 35  0  0  0  0  0  0  0  0999 V2000
    7.1440   -3.2360   19.1490 C   0  0  0  0  0  0  0  0  0  0  0  0
    5.2120   -4.4860   19.8250 O   0  0  0  0  0  0  0  0  0  0  0  0
    6.3070   -3.9810   20.1390 C   0  0  0  0  0  0  0  0  0  0  0  0
    6.1310   -1.7350   24.5780 N   0  0  0  0  0  0  0  0  0  0  0  0
    7.5500   -3.1330   26.2210 C   0  0  0  0  0  0  0  0  0  0  0  0
    6.6300   -2.0070   25.8950 C   0  0  0  0  0  0  0  0  0  0  0  0
    9.5490   -5.2700   27.9090 O   0  0  0  0  0  0  0  0  0  0  0  0
    9.4230   -1.9640   24.2440 C   0  0  0  0  0  0  0  0  0  0  0  0
    6.7840   -4.1510   21.4180 N   0  0  0  0  0  0  0  0  0  0  0  0
    7.8410   -3.2720   21.9340 C   0  0  0  0  0  0  0  0  0  0  0  0
    7.1360   -2.1340   22.5700 C   0  0  0  0  0  0  0  0  0  0  0  0
    6.4820   -2.7300   23.6000 C   0  0  0  0  0  0  0  0  0  0  0  0
    5.4970   -3.6580   23.3250 C   0  0  0  0  0  0  0  0  0  0  0  0
    5.9290   -4.7010   22.4850 C   0  0  0  0  0  0  0  0  0  0  0  0
    6.1400   -1.1760   28.3090 C   0  0  0  0  0  0  0  0  0  0  0  0
    5.6850   -0.1670   29.1850 C   0  0  0  0  0  0  0  0  0  0  0  0
    5.1860    1.0200   28.6450 C   0  0  0  0  0  0  0  0  0  0  0  0
    5.1190    1.2460   27.2020 C   0  0  0  0  0  0  0  0  0  0  0  0
    5.6140    0.1640   26.3650 C   0  0  0  0  0  0  0  0  0  0  0  0
    6.1150   -1.0090   26.9190 C   0  0  0  0  0  0  0  0  0  0  0  0
    9.6110   -4.3570   26.8310 C   0  0  2  0  0  0  0  0  0  0  0  0
    8.5490   -4.5330   26.0260 C   0  0  2  0  0  0  0  0  0  0  0  0
    8.1510   -3.8100   25.1390 C   0  0  2  0  0  0  0  0  0  0  0  0
    9.4190   -3.1390   24.5190 N   0  0  0  0  0  0  0  0  0  0  0  0
   10.7430   -3.5000   25.1100 C   0  0  0  0  0  0  0  0  0  0  0  0
   10.6850   -4.5390   26.0190 C   0  0  0  0  0  0  0  0  0  0  0  0
   11.4290   -0.3540   24.0860 C   0  0  0  0  0  0  0  0  0  0  0  0
   10.7220   -1.5030   23.6930 C   0  0  0  0  0  0  0  0  0  0  0  0
   11.3500   -2.2250   22.6890 C   0  0  0  0  0  0  0  0  0  0  0  0
   12.8360   -1.5280   22.1940 S   0  0  0  0  0  0  0  0  0  0  0  0
   12.6130   -0.2020   23.3760 C   0  0  0  0  0  0  0  0  0  0  0  0
  1  3  1  0
  2  3  2  0
  4  6  1  0
  5  6  2  3
  3  9  1  0
  9 10  1  0
 10 11  1  0
  4 12  1  0
 11 12  1  0
 12 13  1  0
  9 14  1  0
 13 14  1  0
 15 16  2  0
 16 17  1  0
 17 18  2  0
 18 19  1  0
  6 20  1  0
 15 20  1  0
 19 20  2  0
 21  7  1  1
 22  5  1  1
 21 22  1  0
 23  5  1  1
 22 23  1  0
  8 24  1  0
 23 24  1  0
 24 25  1  0
 21 26  1  0
 25 26  1  0
  8 28  1  0
 27 28  1  0
 28 29  2  0
 29 30  1  0
 27 31  2  0
 30 31  1  0
M  END
