x0390-x0336
     RDKit          3D

 15 15  0  0  0  0  0  0  0  0999 V2000
    5.3460  -30.0170   10.8740 C   0  0  0  0  0  0  0  0  0  0  0  0
    4.9240  -29.8800    9.4340 C   0  0  0  0  0  0  0  0  0  0  0  0
    4.8160  -30.8590    8.7020 O   0  0  0  0  0  0  0  0  0  0  0  0
    4.6500  -28.5230    8.9680 N   0  0  0  0  0  0  0  0  0  0  0  0
    5.0610  -27.2950    9.6750 C   0  0  0  0  0  0  0  0  0  0  0  0
    1.4230  -22.7160    9.1050 S   0  0  0  0  0  0  0  0  0  0  0  0
    1.7970  -21.5300   10.1410 O   0  0  0  0  0  0  0  0  0  0  0  0
    0.0850  -23.2590    9.1020 O   0  0  0  0  0  0  0  0  0  0  0  0
    1.7330  -22.1840    7.5490 N   0  0  0  0  0  0  0  0  0  0  0  0
    4.1120  -26.1010    9.4860 C   0  0  0  0  0  0  0  0  0  0  0  0
    3.6810  -25.6480    8.2120 C   0  0  0  0  0  0  0  0  0  0  0  0
    2.8290  -24.5580    8.1320 C   0  0  0  0  0  0  0  0  0  0  0  0
    2.5300  -24.0940    9.4370 C   0  0  0  0  0  0  0  0  0  0  0  0
    2.7510  -24.3030   10.5640 C   0  0  0  0  0  0  0  0  0  0  0  0
    3.6250  -25.3890   10.7590 C   0  0  0  0  0  0  0  0  0  0  0  0
  1  2  1  0
  2  3  2  0
  2  4  1  0
  4  5  1  0
  6  7  2  0
  6  8  2  0
  6  9  1  0
  5 10  1  0
 10 11  2  0
 11 12  1  0
  6 13  1  0
 12 13  2  0
 13 14  1  0
 10 15  1  0
 14 15  2  0
M  END
