x0397-x0995
     RDKit          3D

 15 16  0  0  0  0  0  0  0  0999 V2000
    8.0430   -1.5970   21.0580 C   0  0  0  0  0  0  0  0  0  0  0  0
    6.9260   -2.0530   20.1670 N   0  0  0  0  0  0  0  0  0  0  0  0
    6.8680   -1.4910   18.8200 C   0  0  0  0  0  0  0  0  0  0  0  0
    3.5170    2.4860   19.2930 C   0  0  0  0  0  0  0  0  0  0  0  0
    6.1480   -3.2290   20.6270 C   0  0  0  0  0  0  0  0  0  0  0  0
    5.4850   -3.9360   19.8420 O   0  0  0  0  0  0  0  0  0  0  0  0
    6.2220   -3.5200   22.0080 N   0  0  0  0  0  0  0  0  0  0  0  0
    5.0460    0.1380   19.5320 C   0  0  0  0  0  0  0  0  0  0  0  0
    6.1510   -0.3390   18.6540 C   0  0  0  0  0  0  0  0  0  0  0  0
    6.3450    0.6480   17.5720 N   0  0  0  0  0  0  0  0  0  0  0  0
    5.4050    1.6750   17.7810 O   0  0  0  0  0  0  0  0  0  0  0  0
    4.5780    1.4500   18.9460 C   0  0  0  0  0  0  0  0  0  0  0  0
    6.4910   -5.4640   23.2460 C   0  0  0  0  0  0  0  0  0  0  0  0
    5.7910   -4.7120   22.5050 C   0  0  0  0  0  0  0  0  0  0  0  0
    6.0910   -5.9130   21.7790 C   0  0  0  0  0  0  0  0  0  0  0  0
  1  2  1  0
  2  3  1  0
  2  5  1  0
  5  6  2  0
  5  7  1  0
  3  9  1  0
  8  9  1  0
  9 10  2  0
 10 11  1  0
  4 12  1  0
  8 12  2  0
 11 12  1  0
  7 14  1  0
 13 14  1  0
 13 15  1  0
 14 15  1  0
M  END
