x0390-x1375
     RDKit          3D

 18 19  0  0  0  0  0  0  0  0999 V2000
    5.5210   -4.9840   20.1810 O   0  0  0  0  0  0  0  0  0  0  0  0
    6.0020   -4.1640   20.9810 C   0  0  0  0  0  0  0  0  0  0  0  0
    6.7830   -2.9910   20.4510 C   0  0  0  0  0  0  0  0  0  0  0  0
    5.9190   -4.1740   22.4470 N   0  0  0  0  0  0  0  0  0  0  0  0
    2.3570   -7.0640   23.5640 O   0  0  0  0  0  0  0  0  0  0  0  0
    4.3900   -7.7200   24.8730 O   0  0  0  0  0  0  0  0  0  0  0  0
   11.1510   -3.7550   24.4540 F   0  0  0  0  0  0  0  0  0  0  0  0
    7.7700   -2.5900   23.1430 C   0  0  0  0  0  0  0  0  0  0  0  0
    9.2160   -2.5660   23.6930 C   0  0  0  0  0  0  0  0  0  0  0  0
    9.9010   -3.7720   23.9800 C   0  0  0  0  0  0  0  0  0  0  0  0
    9.1690   -4.9570   23.7460 C   0  0  0  0  0  0  0  0  0  0  0  0
    7.9130   -4.6780   23.2510 C   0  0  0  0  0  0  0  0  0  0  0  0
    7.2040   -3.8410   22.9510 C   0  0  0  0  0  0  0  0  0  0  0  0
    4.6060   -4.4950   24.3330 C   0  0  0  0  0  0  0  0  0  0  0  0
    5.3210   -5.2050   23.3630 C   0  0  1  0  0  0  0  0  0  0  0  0
    4.7030   -6.2360   22.7020 C   0  0  0  0  0  0  0  0  0  0  0  0
    3.6810   -6.7690   24.0580 S   0  0  0  0  0  0  0  0  0  0  0  0
    3.6190   -5.2000   24.8860 C   0  0  0  0  0  0  0  0  0  0  0  0
  1  2  2  0
  2  3  1  0
  2  4  1  0
  8  9  2  0
  7 10  1  0
  9 10  1  0
 10 11  2  0
 11 12  1  0
  4 13  1  0
  8 13  1  0
 12 13  2  0
 15  4  1  6
 14 15  1  0
 15 16  1  0
 17  5  1  0
  6 17  1  0
 16 17  1  0
 14 18  2  0
 17 18  1  0
M  END
