x0390-x0691
     RDKit          3D

 19 20  0  0  0  0  0  0  0  0999 V2000
    4.0020   -6.7830   25.7970 O   0  0  0  0  0  0  0  0  0  0  0  0
    5.6410   -5.1640   26.7530 O   0  0  0  0  0  0  0  0  0  0  0  0
    5.5160   -4.3560   19.8690 O   0  0  0  0  0  0  0  0  0  0  0  0
    6.3880   -4.2370   20.7400 C   0  0  0  0  0  0  0  0  0  0  0  0
    7.3220   -3.0500   20.7480 C   0  0  0  0  0  0  0  0  0  0  0  0
    3.0690   -0.4760   25.9990 F   0  0  0  0  0  0  0  0  0  0  0  0
    4.7240   -5.5360   25.6970 S   0  0  0  0  0  0  0  0  0  0  0  0
    2.7220   -1.7670   25.9260 C   0  0  0  0  0  0  0  0  0  0  0  0
    3.7770   -2.9090   25.8550 C   0  0  0  0  0  0  0  0  0  0  0  0
    3.4550   -4.2980   25.7760 C   0  0  0  0  0  0  0  0  0  0  0  0
    2.0850   -4.5960   25.7640 C   0  0  0  0  0  0  0  0  0  0  0  0
    1.3480   -3.3700   25.8400 C   0  0  0  0  0  0  0  0  0  0  0  0
    1.3880   -2.1980   25.9100 C   0  0  0  0  0  0  0  0  0  0  0  0
    6.5830   -5.2230   21.7980 N   0  0  0  0  0  0  0  0  0  0  0  0
    5.6810   -6.3030   22.0110 C   0  0  0  0  0  0  0  0  0  0  0  0
    4.7900   -5.9530   23.0460 C   0  0  0  0  0  0  0  0  0  0  0  0
    5.5440   -5.5590   24.2450 N   0  0  0  0  0  0  0  0  0  0  0  0
    6.4580   -4.5100   24.0420 C   0  0  0  0  0  0  0  0  0  0  0  0
    7.2700   -4.8650   22.9860 C   0  0  0  0  0  0  0  0  0  0  0  0
  3  4  2  0
  4  5  1  0
  1  7  2  0
  2  7  2  0
  6  8  1  0
  8  9  2  0
  7 10  1  0
  9 10  1  0
 10 11  2  0
 11 12  1  0
  8 13  1  0
 12 13  2  0
  4 14  1  0
 14 15  1  0
 15 16  1  0
  7 17  1  0
 16 17  1  0
 17 18  1  0
 14 19  1  0
 18 19  1  0
M  END
