x0397-x0426
     RDKit          3D

 26 28  0  0  0  0  0  0  0  0999 V2000
    7.9710   -1.5310   20.9570 C   0  0  0  0  0  0  0  0  0  0  0  0
    6.8740   -2.0470   20.0700 N   0  0  0  0  0  0  0  0  0  0  0  0
    6.8550   -1.5670   18.6810 C   0  0  0  0  0  0  0  0  0  0  0  0
    3.8010    2.2150   20.2220 C   0  0  0  0  0  0  0  0  0  0  0  0
    6.1290   -3.2290   20.5780 C   0  0  0  0  0  0  0  0  0  0  0  0
    5.4590   -3.9590   19.8230 O   0  0  0  0  0  0  0  0  0  0  0  0
    6.2490   -3.4990   21.9600 N   0  0  0  0  0  0  0  0  0  0  0  0
    2.3050    1.8300   23.4910 C   0  0  0  0  0  0  0  0  0  0  0  0
    2.4330    0.4340   23.7270 O   0  0  0  0  0  0  0  0  0  0  0  0
    2.9910    2.4730   22.5990 N   0  0  0  0  0  0  0  0  0  0  0  0
    4.0110    1.9540   21.7270 C   0  0  0  0  0  0  0  0  0  0  0  0
    2.8080    4.3450   25.1410 F   0  0  0  0  0  0  0  0  0  0  0  0
    5.2850    0.1220   19.6610 C   0  0  0  0  0  0  0  0  0  0  0  0
    6.1310   -0.2850   18.6990 C   0  0  0  0  0  0  0  0  0  0  0  0
    6.1890    0.6910   17.7790 N   0  0  0  0  0  0  0  0  0  0  0  0
    5.3250    1.7200   18.2470 O   0  0  0  0  0  0  0  0  0  0  0  0
    4.7580    1.3450   19.4480 C   0  0  0  0  0  0  0  0  0  0  0  0
    6.4150   -5.4350   23.2570 C   0  0  0  0  0  0  0  0  0  0  0  0
    5.6860   -4.7160   22.5720 C   0  0  0  0  0  0  0  0  0  0  0  0
    6.0040   -5.8740   21.7720 C   0  0  0  0  0  0  0  0  0  0  0  0
    1.5780    3.8170   25.1200 C   0  0  0  0  0  0  0  0  0  0  0  0
    1.3210    2.5900   24.3190 C   0  0  0  0  0  0  0  0  0  0  0  0
   -0.0870    2.1640   24.4250 C   0  0  0  0  0  0  0  0  0  0  0  0
   -1.0660    2.8190   25.1750 C   0  0  0  0  0  0  0  0  0  0  0  0
   -0.7490    3.9620   25.8970 C   0  0  0  0  0  0  0  0  0  0  0  0
    0.5620    4.4590   25.8710 C   0  0  0  0  0  0  0  0  0  0  0  0
  1  2  1  0
  2  3  1  0
  2  5  1  0
  5  6  2  0
  5  7  1  0
  8  9  2  0
  8 10  1  0
  4 11  1  0
 10 11  1  0
  3 14  1  0
 13 14  1  0
 14 15  2  0
 15 16  1  0
  4 17  1  0
 13 17  2  0
 16 17  1  0
  7 19  1  0
 18 19  1  0
 18 20  1  0
 19 20  1  0
 12 21  1  0
  8 22  1  0
 21 22  2  0
 22 23  1  0
 23 24  2  0
 24 25  1  0
 21 26  1  0
 25 26  2  0
M  END
