x0390-x0967
     RDKit          3D

 20 20  0  0  0  0  0  0  0  0999 V2000
    7.4940    5.0580   22.3700 C   0  0  0  0  0  0  0  0  0  0  0  0
    7.8650    2.6800   22.4950 N   0  0  0  0  0  0  0  0  0  0  0  0
    6.1230    3.5740   23.6650 O   0  0  0  0  0  0  0  0  0  0  0  0
    7.0820    3.7150   22.9100 C   0  0  0  0  0  0  0  0  0  0  0  0
    8.8400   -0.8780   22.6510 N   0  0  0  0  0  0  0  0  0  0  0  0
    5.6420    0.8090   17.0860 O   0  0  0  0  0  0  0  0  0  0  0  0
    7.7330    1.3040   22.9870 C   0  0  1  0  0  0  0  0  0  0  0  0
    9.9800    1.0290   22.1840 O   0  0  0  0  0  0  0  0  0  0  0  0
    6.4220    0.5950   22.6100 C   0  0  0  0  0  0  0  0  0  0  0  0
    8.9530    0.4810   22.5720 C   0  0  0  0  0  0  0  0  0  0  0  0
    9.7390   -1.6320   21.8400 C   0  0  0  0  0  0  0  0  0  0  0  0
   10.9660   -1.8450   22.5680 C   0  0  0  0  0  0  0  0  0  0  0  0
   11.9250   -2.0190   23.2360 C   0  0  0  0  0  0  0  0  0  0  0  0
   13.3760   -2.3290   24.4010 Br  0  0  0  0  0  0  0  0  0  0  0  0
    6.2180    0.6350   21.1200 C   0  0  0  0  0  0  0  0  0  0  0  0
    6.9340   -0.2380   20.2880 C   0  0  0  0  0  0  0  0  0  0  0  0
    6.7480   -0.1920   18.9190 C   0  0  0  0  0  0  0  0  0  0  0  0
    5.8500    0.7250   18.3960 C   0  0  0  0  0  0  0  0  0  0  0  0
    5.1320    1.5930   19.1920 C   0  0  0  0  0  0  0  0  0  0  0  0
    5.3150    1.5500   20.5630 C   0  0  0  0  0  0  0  0  0  0  0  0
  1  4  1  0
  2  4  1  0
  3  4  2  0
  2  7  1  0
  7  9  1  6
  5 10  1  0
  7 10  1  0
  8 10  2  0
  5 11  1  0
 11 12  1  0
 12 13  3  0
 13 14  1  0
  9 15  1  0
 15 16  2  0
 16 17  1  0
  6 18  1  0
 17 18  2  0
 18 19  1  0
 15 20  1  0
 19 20  2  0
M  END
