x0395-x0708
     RDKit          3D

 24 27  0  0  0  0  0  0  0  0999 V2000
    6.6820   -4.8650   21.1120 N   0  0  0  0  0  0  0  0  0  0  0  0
    7.3370   -3.1760   19.3030 C   0  0  0  0  0  0  0  0  0  0  0  0
    5.1680   -3.9740   19.6010 O   0  0  0  0  0  0  0  0  0  0  0  0
    6.3370   -4.0200   20.0350 C   0  0  0  0  0  0  0  0  0  0  0  0
    7.7610   -4.5390   21.8920 N   0  0  0  0  0  0  0  0  0  0  0  0
    6.8360   -2.5140   22.2320 O   0  0  0  0  0  0  0  0  0  0  0  0
    7.8530   -3.2020   22.1910 C   0  0  0  0  0  0  0  0  0  0  0  0
    8.5890   -4.8690   26.2120 C   0  0  0  0  0  0  0  0  0  0  0  0
    8.0220   -0.4120   23.4810 C   0  0  0  0  0  0  0  0  0  0  0  0
   13.2150   -1.5450   21.0570 F   0  0  0  0  0  0  0  0  0  0  0  0
    9.1820   -2.5360   22.4890 C   0  0  0  0  0  0  0  0  0  0  0  0
   10.5160   -2.4200   21.8060 C   0  0  0  0  0  0  0  0  0  0  0  0
   11.3030   -1.4680   22.4230 C   0  0  0  0  0  0  0  0  0  0  0  0
   10.7820   -0.8280   23.5350 C   0  0  0  0  0  0  0  0  0  0  0  0
    9.3550   -1.6760   23.9130 S   0  0  1  0  0  0  0  0  0  0  0  0
   12.5420   -0.9990   22.0770 C   0  0  0  0  0  0  0  0  0  0  0  0
   13.0840    0.0240   22.7310 C   0  0  0  0  0  0  0  0  0  0  0  0
   12.5050    0.6890   23.7870 C   0  0  0  0  0  0  0  0  0  0  0  0
   11.3030    0.2200   24.2220 C   0  0  0  0  0  0  0  0  0  0  0  0
    8.1670   -3.4330   25.8540 C   0  0  0  0  0  0  0  0  0  0  0  0
    8.5040   -2.2040   26.5830 N   0  0  0  0  0  0  0  0  0  0  0  0
    7.9730   -1.0580   25.8960 N   0  0  0  0  0  0  0  0  0  0  0  0
    7.9310   -1.3510   24.5860 C   0  0  1  0  0  0  0  0  0  0  0  0
    7.1780   -3.0670   24.4840 S   0  0  0  0  0  0  0  0  0  0  0  0
  1  4  1  0
  2  4  1  0
  3  4  2  0
  1  5  1  0
  5  7  1  0
  6  7  2  0
  7 11  1  0
 11 12  2  0
 12 13  1  0
 13 14  2  0
 15  9  1  6
 15 11  1  0
 14 15  1  0
 10 16  1  0
 13 16  1  0
 16 17  2  0
 17 18  1  0
 14 19  1  0
 18 19  2  0
  8 20  1  0
 20 21  2  0
 21 22  1  0
 23  9  1  6
 15 23  1  0
 22 23  1  0
 20 24  1  0
 23 24  1  0
M  END
