x0395-x1412
     RDKit          3D

 24 26  0  0  0  0  0  0  0  0999 V2000
    7.3010   -3.0050   18.8410 C   0  0  0  0  0  0  0  0  0  0  0  0
    5.3240   -4.0580   19.6570 O   0  0  0  0  0  0  0  0  0  0  0  0
    6.3240   -3.3500   19.9180 C   0  0  0  0  0  0  0  0  0  0  0  0
    8.1310   -1.6720   25.2580 O   0  0  0  0  0  0  0  0  0  0  0  0
    8.3240   -2.7990   24.8080 C   0  0  0  0  0  0  0  0  0  0  0  0
    9.0310   -0.8250   23.2000 C   0  0  0  0  0  0  0  0  0  0  0  0
   13.4350   -1.7960   21.8330 F   0  0  0  0  0  0  0  0  0  0  0  0
    6.5260   -2.9510   21.2420 N   0  0  0  0  0  0  0  0  0  0  0  0
    7.4000   -1.7910   21.4970 C   0  0  0  0  0  0  0  0  0  0  0  0
    8.6100   -2.0820   22.4150 C   0  0  2  0  0  0  0  0  0  0  0  0
    8.3840   -3.1900   23.3910 N   0  0  0  0  0  0  0  0  0  0  0  0
    7.6100   -4.2130   22.9910 C   0  0  0  0  0  0  0  0  0  0  0  0
    6.4480   -3.9390   22.3130 C   0  0  0  0  0  0  0  0  0  0  0  0
    9.3410   -4.9830   25.3930 C   0  0  0  0  0  0  0  0  0  0  0  0
    8.5120   -3.9020   25.7470 C   0  0  0  0  0  0  0  0  0  0  0  0
    7.7640   -3.9850   27.3100 S   0  0  0  0  0  0  0  0  0  0  0  0
    8.5600   -5.5430   27.5840 C   0  0  0  0  0  0  0  0  0  0  0  0
    9.3540   -5.9810   26.5410 C   0  0  0  0  0  0  0  0  0  0  0  0
   10.8850    0.5420   23.8840 C   0  0  0  0  0  0  0  0  0  0  0  0
   11.9640    1.3120   23.2710 C   0  0  0  0  0  0  0  0  0  0  0  0
   12.9110    0.3100   22.7650 C   0  0  0  0  0  0  0  0  0  0  0  0
   12.5090   -0.9450   22.2940 C   0  0  0  0  0  0  0  0  0  0  0  0
   11.1790   -1.3410   22.2770 C   0  0  0  0  0  0  0  0  0  0  0  0
   10.3140   -0.2730   22.8120 N   0  0  0  0  0  0  0  0  0  0  0  0
  1  3  1  0
  2  3  2  0
  4  5  2  0
  3  8  1  0
  8  9  1  0
 10  6  1  1
  9 10  1  0
  5 11  1  0
 10 11  1  0
 11 12  1  0
  8 13  1  0
 12 13  1  0
  5 15  1  0
 14 15  2  0
 15 16  1  0
 16 17  1  0
 14 18  1  0
 17 18  2  0
 19 20  1  0
 20 21  1  0
  7 22  1  0
 21 22  2  0
 22 23  1  0
  6 24  1  0
 19 24  1  0
 23 24  1  0
M  END
