x0390-x1086
     RDKit          3D

 13 13  0  0  0  0  0  0  0  0999 V2000
    5.7850    3.5560   -7.0930 N   0  0  0  0  0  0  0  0  0  0  0  0
    4.1760   -1.6500   -9.0980 C   0  0  0  0  0  0  0  0  0  0  0  0
    4.3350    2.1120   -6.1590 O   0  0  0  0  0  0  0  0  0  0  0  0
    6.7240    1.6170   -5.5870 O   0  0  0  0  0  0  0  0  0  0  0  0
    5.4340    1.0570   -7.9190 C   0  0  0  0  0  0  0  0  0  0  0  0
    8.0580   -3.6700   -7.9380 F   0  0  0  0  0  0  0  0  0  0  0  0
    5.6730    2.0040   -6.4980 S   0  0  0  0  0  0  0  0  0  0  0  0
    5.5430   -1.6160   -8.4780 C   0  0  0  0  0  0  0  0  0  0  0  0
    6.1460   -0.2830   -7.8830 C   0  0  0  0  0  0  0  0  0  0  0  0
    7.4410   -0.3460   -7.2990 C   0  0  0  0  0  0  0  0  0  0  0  0
    8.1280   -1.5350   -7.2920 C   0  0  0  0  0  0  0  0  0  0  0  0
    7.3560   -2.5490   -7.9110 C   0  0  0  0  0  0  0  0  0  0  0  0
    6.3390   -2.7860   -8.4230 C   0  0  0  0  0  0  0  0  0  0  0  0
  7  1  1  0
  3  7  2  0
  4  7  2  0
  5  7  1  0
  2  8  1  0
  5  9  1  0
  8  9  2  0
  9 10  1  0
 10 11  2  0
  6 12  1  0
 11 12  1  0
  8 13  1  0
 12 13  2  0
M  END
