x0397-x1382
     RDKit          3D

 26 28  0  0  0  0  0  0  0  0999 V2000
    7.1930   -3.1630   20.7250 C   0  0  0  0  0  0  0  0  0  0  0  0
    7.3940   -2.9810   19.3470 C   0  0  2  0  0  0  0  0  0  0  0  0
    7.5630   -1.5200   19.0060 C   0  0  0  0  0  0  0  0  0  0  0  0
    3.5460    1.9070   19.3910 C   0  0  0  0  0  0  0  0  0  0  0  0
    5.9490   -3.4270   19.6680 C   0  0  0  0  0  0  0  0  0  0  0  0
    5.0180   -3.5790   18.8940 O   0  0  0  0  0  0  0  0  0  0  0  0
    5.7070   -3.6320   21.0640 N   0  0  0  0  0  0  0  0  0  0  0  0
   13.2870   -2.6370   21.0830 Cl  0  0  0  0  0  0  0  0  0  0  0  0
    7.4750   -0.9850   22.9990 C   0  0  0  0  0  0  0  0  0  0  0  0
    8.5000   -1.9580   22.4350 C   0  0  1  0  0  0  0  0  0  0  0  0
    8.1880   -2.2120   21.0910 N   0  0  0  0  0  0  0  0  0  0  0  0
    6.3720   -3.9410   19.9510 O   0  0  0  0  0  0  0  0  0  0  0  0
    5.4230   -0.1300   19.7250 C   0  0  0  0  0  0  0  0  0  0  0  0
    6.4670   -0.4770   18.9040 C   0  0  0  0  0  0  0  0  0  0  0  0
    6.4200    0.3630   17.8320 N   0  0  0  0  0  0  0  0  0  0  0  0
    5.3810    1.2720   17.9160 O   0  0  0  0  0  0  0  0  0  0  0  0
    4.7150    1.0420   19.0580 C   0  0  0  0  0  0  0  0  0  0  0  0
    6.1630   -4.8870   23.0760 C   0  0  0  0  0  0  0  0  0  0  0  0
    5.5150   -4.7740   21.9150 C   0  0  0  0  0  0  0  0  0  0  0  0
    6.2580   -5.8540   21.7790 C   0  0  0  0  0  0  0  0  0  0  0  0
    9.8830   -1.3320   22.5510 C   0  0  0  0  0  0  0  0  0  0  0  0
   10.9370   -2.0310   21.9160 C   0  0  0  0  0  0  0  0  0  0  0  0
   12.2270   -1.6490   21.9110 C   0  0  0  0  0  0  0  0  0  0  0  0
   12.5320   -0.4800   22.5820 C   0  0  0  0  0  0  0  0  0  0  0  0
   11.5700    0.2950   23.2340 C   0  0  0  0  0  0  0  0  0  0  0  0
   10.2360   -0.1300   23.2260 C   0  0  0  0  0  0  0  0  0  0  0  0
  2  1  1  0
  2  3  1  1
  2  5  1  0
  5  6  2  0
  5  7  1  0
 10  9  1  6
  1 11  1  0
 10 11  1  0
  1 12  2  0
  3 14  1  0
 13 14  1  0
 14 15  2  0
 15 16  1  0
  4 17  1  0
 13 17  2  0
 16 17  1  0
  7 19  1  0
 18 19  1  0
 18 20  1  0
 19 20  1  0
 10 21  1  0
 21 22  2  0
  8 23  1  0
 22 23  1  0
 23 24  2  0
 24 25  1  0
 21 26  1  0
 25 26  2  0
M  END
