x0397-x3303
     RDKit          3D

 29 36  0  0  0  0  0  0  0  0999 V2000
    6.9590   -1.9200   20.4220 C   0  0  1  0  0  0  0  0  0  0  0  0
    6.8920   -1.3330   19.1380 C   0  0  0  0  0  0  0  0  0  0  0  0
    6.2150   -3.2050   20.7010 C   0  0  0  0  0  0  0  0  0  0  0  0
    5.5170   -3.8050   19.8730 O   0  0  0  0  0  0  0  0  0  0  0  0
    6.5340   -3.5120   22.0690 N   0  0  0  0  0  0  0  0  0  0  0  0
    5.4620    0.7330   20.0600 C   0  0  1  0  0  0  0  0  0  0  0  0
    6.1260   -0.0710   18.9890 C   0  0  0  0  0  0  0  0  0  0  0  0
    6.0100    0.5790   17.7930 N   0  0  0  0  0  0  0  0  0  0  0  0
    5.3020    1.7440   17.9730 O   0  0  0  0  0  0  0  0  0  0  0  0
    4.9920    1.9330   19.2820 C   0  0  1  0  0  0  0  0  0  0  0  0
    6.6360   -5.4470   23.3460 C   0  0  0  0  0  0  0  0  0  0  0  0
    5.9680   -4.5750   22.7850 C   0  0  0  0  0  0  0  0  0  0  0  0
    5.9580   -5.8750   22.1260 C   0  0  0  0  0  0  0  0  0  0  0  0
    8.3440   -1.7110   21.0810 C   0  0  1  0  0  0  0  0  0  0  0  0
    8.9320   -0.7380   21.8360 C   0  0  0  0  0  0  0  0  0  0  0  0
    9.3100   -1.3830   22.9940 N   0  0  0  0  0  0  0  0  0  0  0  0
    8.3560   -2.4150   23.2540 C   0  0  0  0  0  0  0  0  0  0  0  0
    7.0570   -2.2710   22.7120 C   0  0  1  0  0  0  0  0  0  0  0  0
    7.1550   -1.3640   21.6620 N   0  0  0  0  0  0  0  0  0  0  0  0
   11.6510   -1.7090   22.1340 C   0  0  0  0  0  0  0  0  0  0  0  0
   13.0320   -2.0550   22.4320 C   0  0  0  0  0  0  0  0  0  0  0  0
   13.3900   -2.3770   23.7450 C   0  0  0  0  0  0  0  0  0  0  0  0
   12.4410   -2.3540   24.7490 C   0  0  0  0  0  0  0  0  0  0  0  0
   11.1140   -2.0110   24.4420 C   0  0  0  0  0  0  0  0  0  0  0  0
   10.7330   -1.7040   23.1730 C   0  0  0  0  0  0  0  0  0  0  0  0
    4.1820    0.3200   20.7420 C   0  0  0  0  0  0  0  0  0  0  0  0
    3.1720    1.2200   20.4550 C   0  0  0  0  0  0  0  0  0  0  0  0
    3.5310    2.2650   19.6070 C   0  0  0  0  0  0  0  0  0  0  0  0
    6.0620    2.0480   20.3800 C   0  0  0  0  0  0  0  0  0  0  0  0
  1  2  1  6
  1  3  1  0
  3  4  2  0
  3  5  1  0
  2  7  1  0
  6  7  1  0
  7  8  2  0
  8  9  1  0
  6 10  1  0
 10  9  1  0
  5 12  1  0
 11 12  1  0
 11 13  1  0
 12 13  1  0
  1 14  1  0
 14 15  1  6
 15 16  1  0
 16 17  1  0
  5 18  1  0
 18 17  1  6
  1 19  1  0
 14 19  1  0
 18 19  1  0
 20 21  2  0
 21 22  1  0
 22 23  2  0
 23 24  1  0
 16 25  1  0
 20 25  1  0
 24 25  2  0
  6 26  1  1
 26 27  2  0
 10 28  1  6
 27 28  1  0
  6 29  1  0
 10 29  1  0
M  END
