x0397-x1478
     RDKit          3D

 15 16  0  0  0  0  0  0  0  0999 V2000
    7.9230   -1.9310   20.5740 C   0  0  0  0  0  0  0  0  0  0  0  0
    7.3090   -2.9040   19.5360 C   0  0  2  0  0  0  0  0  0  0  0  0
    6.7390   -2.1390   18.4130 C   0  0  0  0  0  0  0  0  0  0  0  0
    3.8840    2.1460   19.7290 C   0  0  0  0  0  0  0  0  0  0  0  0
    6.2700   -3.6420   20.3160 C   0  0  0  0  0  0  0  0  0  0  0  0
    5.3220   -4.2530   19.8020 O   0  0  0  0  0  0  0  0  0  0  0  0
    6.3720   -3.6470   21.7380 N   0  0  0  0  0  0  0  0  0  0  0  0
    5.0670   -0.3750   19.5260 C   0  0  0  0  0  0  0  0  0  0  0  0
    6.1240   -0.7270   18.5350 C   0  0  0  0  0  0  0  0  0  0  0  0
    6.4260    0.3680   17.7680 N   0  0  0  0  0  0  0  0  0  0  0  0
    5.6330    1.4370   18.1790 O   0  0  0  0  0  0  0  0  0  0  0  0
    4.7990    1.0890   19.2030 C   0  0  0  0  0  0  0  0  0  0  0  0
    6.5400   -5.3030   23.3820 C   0  0  0  0  0  0  0  0  0  0  0  0
    5.8310   -4.7730   22.4690 C   0  0  0  0  0  0  0  0  0  0  0  0
    6.1590   -6.0870   22.0610 C   0  0  0  0  0  0  0  0  0  0  0  0
  2  1  1  1
  2  3  1  0
  2  5  1  0
  5  6  2  0
  5  7  1  0
  3  9  1  0
  8  9  1  0
  9 10  2  0
 10 11  1  0
  4 12  1  0
  8 12  2  0
 11 12  1  0
  7 14  1  0
 13 14  1  0
 13 15  1  0
 14 15  1  0
M  END
