x0395-x1336
     RDKit          3D

 29 33  0  0  0  0  0  0  0  0999 V2000
    6.2930   -5.1790   29.2390 C   0  0  0  0  0  0  0  0  0  0  0  0
    6.8120   -1.2230   25.7350 O   0  0  0  0  0  0  0  0  0  0  0  0
    5.6000   -4.1170   19.7530 O   0  0  0  0  0  0  0  0  0  0  0  0
    9.8140   -5.0980   25.2840 C   0  0  0  0  0  0  0  0  0  0  0  0
    6.7000   -3.4940   19.9000 C   0  0  0  0  0  0  0  0  0  0  0  0
    7.5090   -3.0870   18.7470 C   0  0  0  0  0  0  0  0  0  0  0  0
    8.7090   -1.0190   23.6000 C   0  0  1  0  0  0  0  0  0  0  0  0
   13.1690   -1.9290   21.7330 F   0  0  0  0  0  0  0  0  0  0  0  0
    7.1300   -4.7290   28.0900 C   0  0  0  0  0  0  0  0  0  0  0  0
    6.8790   -3.4380   27.3640 C   0  0  0  0  0  0  0  0  0  0  0  0
    7.6900   -3.1940   26.2580 C   0  0  0  0  0  0  0  0  0  0  0  0
    8.6470   -4.0500   25.7970 C   0  0  0  0  0  0  0  0  0  0  0  0
    8.9320   -5.2220   26.5560 C   0  0  0  0  0  0  0  0  0  0  0  0
    8.2130   -5.5660   27.6510 C   0  0  0  0  0  0  0  0  0  0  0  0
    7.2210   -3.2220   21.1820 N   0  0  0  0  0  0  0  0  0  0  0  0
    7.2740   -4.2700   22.0930 C   0  0  0  0  0  0  0  0  0  0  0  0
    6.7330   -3.8250   23.2790 C   0  0  0  0  0  0  0  0  0  0  0  0
    7.2800   -2.4760   23.5340 N   0  0  0  0  0  0  0  0  0  0  0  0
    7.8360   -1.6090   22.4830 C   0  0  2  0  0  0  0  0  0  0  0  0
    8.2510   -2.3540   21.3200 C   0  0  0  0  0  0  0  0  0  0  0  0
    7.6320   -2.1880   25.5140 N   0  0  0  0  0  0  0  0  0  0  0  0
    8.3970   -2.2560   24.4410 C   0  0  2  0  0  0  0  0  0  0  0  0
    9.4660   -3.6490   24.2830 S   0  0  0  0  0  0  0  0  0  0  0  0
   10.6570    0.5370   23.9370 C   0  0  0  0  0  0  0  0  0  0  0  0
   11.8360    0.9970   23.3430 C   0  0  0  0  0  0  0  0  0  0  0  0
   12.7000    0.1040   22.7950 C   0  0  0  0  0  0  0  0  0  0  0  0
   12.2640   -1.1010   22.2650 C   0  0  0  0  0  0  0  0  0  0  0  0
   10.8960   -1.4170   22.2890 C   0  0  0  0  0  0  0  0  0  0  0  0
   10.1820   -0.7720   23.4370 N   0  0  0  0  0  0  0  0  0  0  0  0
  3  5  2  0
  5  6  1  0
  1  9  1  0
  9 10  2  0
 10 11  1  0
 11 12  1  0
 12 13  1  0
  9 14  1  0
 13 14  2  0
  5 15  1  0
 15 16  1  0
 16 17  1  0
 17 18  1  0
  7 19  1  0
 18 19  1  0
 15 20  1  0
 19 20  1  6
  2 21  1  0
 11 21  2  0
  7 22  1  0
 18 22  1  0
 22 21  1  1
  4 23  1  0
 12 23  2  0
 22 23  1  0
 24 25  1  0
 25 26  1  0
  8 27  1  0
 26 27  2  0
 27 28  1  0
  7 29  1  6
 24 29  1  0
 28 29  1  0
M  CHG  2   2  -1  21   1
M  END
