x0398-x0387
     RDKit          3D

 15 16  0  0  0  0  0  0  0  0999 V2000
   26.2640  -10.1640    4.2490 C   0  0  0  0  0  0  0  0  0  0  0  0
   26.6140  -10.1550    5.7380 C   0  0  0  0  0  0  0  0  0  0  0  0
   24.5590  -10.6830    3.9260 S   0  0  0  0  0  0  0  0  0  0  0  0
   28.1640  -10.8330    7.4850 C   0  0  0  0  0  0  0  0  0  0  0  0
   27.5150  -11.7420    8.5330 C   0  0  0  0  0  0  0  0  0  0  0  0
   27.6430  -13.1080    8.1440 O   0  0  0  0  0  0  0  0  0  0  0  0
   26.8240  -13.2960    6.9950 C   0  0  0  0  0  0  0  0  0  0  0  0
   27.3820  -12.5080    5.8000 C   0  0  0  0  0  0  0  0  0  0  0  0
   27.6830  -11.0850    6.1080 N   0  0  0  0  0  0  0  0  0  0  0  0
   24.2030   -7.9790    4.4260 C   0  0  0  0  0  0  0  0  0  0  0  0
   23.5030   -6.9030    4.9740 C   0  0  0  0  0  0  0  0  0  0  0  0
   22.3320   -7.1390    5.6810 C   0  0  0  0  0  0  0  0  0  0  0  0
   21.8790   -8.3850    5.8350 C   0  0  0  0  0  0  0  0  0  0  0  0
   22.5750   -9.4630    5.3220 C   0  0  0  0  0  0  0  0  0  0  0  0
   23.7240   -9.2730    4.6090 C   0  0  0  0  0  0  0  0  0  0  0  0
  1  2  1  0
  1  3  1  0
  4  5  1  0
  5  6  1  0
  6  7  1  0
  7  8  1  0
  2  9  1  0
  4  9  1  0
  8  9  1  0
 10 11  2  0
 11 12  1  0
 12 13  2  0
 13 14  1  0
  3 15  1  0
 10 15  1  0
 14 15  2  0
M  END
