x0397-x0820
     RDKit          3D

 28 34  0  0  0  0  0  0  0  0999 V2000
    7.6750   -1.0780   20.7230 C   0  0  0  0  0  0  0  0  0  0  0  0
    6.9610   -2.0110   19.7840 N   0  0  0  0  0  0  0  0  0  0  0  0
    6.7580   -1.5640   18.4410 C   0  0  0  0  0  0  0  0  0  0  0  0
    3.5150    2.3450   19.4630 C   0  0  0  0  0  0  0  0  0  0  0  0
    6.9900   -3.3680   20.0370 C   0  0  2  0  0  0  0  0  0  0  0  0
    5.8160   -4.2000   19.7590 C   0  0  0  0  0  0  0  0  0  0  0  0
    6.8990   -3.3710   21.5940 C   0  0  1  0  0  0  0  0  0  0  0  0
    6.4920   -4.5530   21.0240 C   0  0  2  0  0  0  0  0  0  0  0  0
    8.2550   -3.2250   22.3040 C   0  0  0  0  0  0  0  0  0  0  0  0
    5.0030   -5.0690   19.9190 O   0  0  0  0  0  0  0  0  0  0  0  0
    5.0280    0.0730   19.2760 C   0  0  0  0  0  0  0  0  0  0  0  0
    6.0270   -0.3060   18.4290 C   0  0  0  0  0  0  0  0  0  0  0  0
    6.2070    0.8000   17.5220 N   0  0  0  0  0  0  0  0  0  0  0  0
    5.3080    1.7840   17.8730 O   0  0  0  0  0  0  0  0  0  0  0  0
    4.5540    1.4710   18.8950 C   0  0  0  0  0  0  0  0  0  0  0  0
    5.3230   -6.2250   22.0360 C   0  0  0  0  0  0  0  0  0  0  0  0
    5.8060   -4.6710   22.4410 S   0  0  0  0  0  0  0  0  0  0  0  0
    6.6010   -5.9040   21.6100 C   0  0  2  0  0  0  0  0  0  0  0  0
    7.0280   -4.6190   24.4450 C   0  0  0  0  0  0  0  0  0  0  0  0
    7.2540   -4.5850   25.8130 C   0  0  0  0  0  0  0  0  0  0  0  0
    6.1740   -4.4730   26.6890 C   0  0  0  0  0  0  0  0  0  0  0  0
    4.8560   -4.3750   26.2050 C   0  0  0  0  0  0  0  0  0  0  0  0
    4.6540   -4.4140   24.8150 C   0  0  0  0  0  0  0  0  0  0  0  0
    5.7570   -4.5440   24.0170 C   0  0  0  0  0  0  0  0  0  0  0  0
    6.4520   -4.4720   28.0460 C   0  0  0  0  0  0  0  0  0  0  0  0
    7.7680   -4.5860   28.4040 C   0  0  0  0  0  0  0  0  0  0  0  0
    8.8090   -4.6820   27.5090 C   0  0  0  0  0  0  0  0  0  0  0  0
    8.5440   -4.6790   26.1770 C   0  0  0  0  0  0  0  0  0  0  0  0
  1  2  1  0
  2  3  1  0
  5  2  1  6
  5  6  1  0
  5  7  1  0
  8  6  1  6
  7  8  1  0
  7  9  1  1
  6 10  2  0
  3 12  1  0
 11 12  1  0
 12 13  2  0
 13 14  1  0
  4 15  1  0
 11 15  2  0
 14 15  1  0
  7 17  1  0
  8 17  1  0
 16 17  1  0
  8 18  1  0
 18 16  1  6
 17 18  1  0
 19 20  2  0
 20 21  1  0
 21 22  2  0
 22 23  1  0
 17 24  1  0
 19 24  1  0
 23 24  2  0
 21 25  1  0
 25 26  2  0
 26 27  1  0
 20 28  1  0
 27 28  2  0
M  END
