x0390-x1418
     RDKit          3D

 18 20  0  0  0  0  0  0  0  0999 V2000
   22.5300   17.8240    2.7930 O   0  0  0  0  0  0  0  0  0  0  0  0
   23.1510   16.5160    5.2500 C   0  0  0  0  0  0  0  0  0  0  0  0
   22.6570   15.4380    4.3810 N   0  0  0  0  0  0  0  0  0  0  0  0
   22.0470   18.3780    3.7730 C   0  0  0  0  0  0  0  0  0  0  0  0
   22.3300   17.7570    5.0820 C   0  0  0  0  0  0  0  0  0  0  0  0
   21.7290   18.4400    6.3060 C   0  0  0  0  0  0  0  0  0  0  0  0
   20.9570   19.6050    6.1550 C   0  0  0  0  0  0  0  0  0  0  0  0
   20.7300   20.1490    4.8680 C   0  0  0  0  0  0  0  0  0  0  0  0
   21.2780   19.5270    3.6590 C   0  0  0  0  0  0  0  0  0  0  0  0
   24.8070   14.1860    4.9520 N   0  0  0  0  0  0  0  0  0  0  0  0
   23.5680   14.3130    4.1730 C   0  0  0  0  0  0  0  0  0  0  0  0
   23.4170   13.3030    3.3060 N   0  0  0  0  0  0  0  0  0  0  0  0
   24.5100   12.4600    3.4410 C   0  0  0  0  0  0  0  0  0  0  0  0
   25.3350   12.9730    4.4120 C   0  0  0  0  0  0  0  0  0  0  0  0
   26.5230   12.4010    4.8190 C   0  0  0  0  0  0  0  0  0  0  0  0
   26.8740   11.2260    4.1820 C   0  0  0  0  0  0  0  0  0  0  0  0
   26.0960   10.6360    3.1880 C   0  0  0  0  0  0  0  0  0  0  0  0
   24.8910   11.2610    2.8060 C   0  0  0  0  0  0  0  0  0  0  0  0
  2  3  1  0
  1  4  1  0
  2  5  1  0
  4  5  2  0
  5  6  1  0
  6  7  2  0
  7  8  1  0
  4  9  1  0
  8  9  2  0
  3 11  1  0
 10 11  1  0
 11 12  2  0
 12 13  1  0
 10 14  1  0
 13 14  2  0
 14 15  1  0
 15 16  2  0
 16 17  1  0
 13 18  1  0
 17 18  2  0
M  END
