x0395-x1334
     RDKit          3D

 24 27  0  0  0  0  0  0  0  0999 V2000
    6.0480   -2.1230   18.7680 C   0  0  0  0  0  0  0  0  0  0  0  0
    5.3890   -4.2020   19.7480 O   0  0  0  0  0  0  0  0  0  0  0  0
    7.2200   -5.5240   28.4730 Cl  0  0  0  0  0  0  0  0  0  0  0  0
    5.9600   -3.1190   19.8980 C   0  0  0  0  0  0  0  0  0  0  0  0
    9.6100   -3.1280   23.8880 C   0  0  0  0  0  0  0  0  0  0  0  0
    8.9510   -1.0500   22.8130 C   0  0  1  0  0  0  0  0  0  0  0  0
   13.5750   -1.5070   21.6710 F   0  0  0  0  0  0  0  0  0  0  0  0
    6.6100   -2.7370   21.0520 N   0  0  0  0  0  0  0  0  0  0  0  0
    7.7100   -1.8110   20.9180 C   0  0  0  0  0  0  0  0  0  0  0  0
    8.7650   -2.0660   21.7630 C   0  0  2  0  0  0  0  0  0  0  0  0
    8.5440   -2.4890   23.0960 C   0  0  1  0  0  0  0  0  0  0  0  0
    7.2420   -2.9560   23.3080 C   0  0  0  0  0  0  0  0  0  0  0  0
    6.6340   -3.6270   22.2240 C   0  0  0  0  0  0  0  0  0  0  0  0
    9.8350   -5.4170   25.3670 C   0  0  0  0  0  0  0  0  0  0  0  0
    9.2420   -4.0520   25.0150 C   0  0  0  0  0  0  0  0  0  0  0  0
    8.0000   -3.7650   26.2440 S   0  0  0  0  0  0  0  0  0  0  0  0
    8.1800   -5.1760   27.1050 C   0  0  0  0  0  0  0  0  0  0  0  0
    9.2700   -6.0440   26.4990 C   0  0  0  0  0  0  0  0  0  0  0  0
   10.6100    0.3260   23.8980 C   0  0  0  0  0  0  0  0  0  0  0  0
   11.8300    1.1730   23.5100 C   0  0  0  0  0  0  0  0  0  0  0  0
   12.8890    0.3860   22.8110 C   0  0  0  0  0  0  0  0  0  0  0  0
   12.6180   -0.8260   22.3120 C   0  0  0  0  0  0  0  0  0  0  0  0
   11.2760   -1.4570   22.4330 C   0  0  0  0  0  0  0  0  0  0  0  0
   10.1980   -0.5120   22.7810 N   0  0  0  0  0  0  0  0  0  0  0  0
  1  4  1  0
  2  4  2  0
  4  8  1  0
  8  9  1  0
  6 10  1  0
 10  9  1  6
 11  5  1  1
  6 11  1  0
 10 11  1  0
 11 12  1  0
  8 13  1  0
 12 13  1  0
  5 15  1  0
 14 15  2  0
 15 16  1  0
  3 17  1  0
 16 17  1  0
 14 18  1  0
 17 18  2  0
 19 20  1  0
 20 21  1  0
  7 22  1  0
 21 22  2  0
 22 23  1  0
  6 24  1  1
 19 24  1  0
 23 24  1  0
M  END
