x0397-x0354
     RDKit          3D

 35 38  0  0  0  0  0  0  0  0999 V2000
    8.1970   -1.5340   21.1220 C   0  0  0  0  0  0  0  0  0  0  0  0
    7.0020   -1.9140   20.3660 N   0  0  0  0  0  0  0  0  0  0  0  0
    6.8870   -1.5410   18.9670 C   0  0  0  0  0  0  0  0  0  0  0  0
    3.6450    2.4790   19.1920 C   0  0  0  0  0  0  0  0  0  0  0  0
    6.2000   -3.0020   20.7340 C   0  0  0  0  0  0  0  0  0  0  0  0
    5.3750   -3.4780   19.9550 O   0  0  0  0  0  0  0  0  0  0  0  0
    6.3870   -3.5320   22.0030 N   0  0  0  0  0  0  0  0  0  0  0  0
   13.1950   -1.1590   22.4230 C   0  0  0  0  0  0  0  0  0  0  0  0
    7.5470   -1.9430   25.0350 N   0  0  0  0  0  0  0  0  0  0  0  0
    7.4300   -0.5630   27.2370 O   0  0  0  0  0  0  0  0  0  0  0  0
    8.5810   -1.2100   25.3030 C   0  0  0  0  0  0  0  0  0  0  0  0
    8.4180   -0.2540   26.3290 C   0  0  0  0  0  0  0  0  0  0  0  0
    5.7240    3.5270   30.8800 C   0  0  0  0  0  0  0  0  0  0  0  0
    6.5740   -2.6520   23.1280 C   0  0  0  0  0  0  0  0  0  0  0  0
    7.5920   -2.8670   24.0640 C   0  0  0  0  0  0  0  0  0  0  0  0
    5.0660    0.1570   19.5940 C   0  0  0  0  0  0  0  0  0  0  0  0
    6.0990   -0.3110   18.7900 C   0  0  0  0  0  0  0  0  0  0  0  0
    6.3300    0.5230   17.7600 N   0  0  0  0  0  0  0  0  0  0  0  0
    5.4520    1.5920   17.8380 O   0  0  0  0  0  0  0  0  0  0  0  0
    4.6520    1.4480   18.9210 C   0  0  0  0  0  0  0  0  0  0  0  0
    6.4530   -5.5730   23.2750 C   0  0  0  0  0  0  0  0  0  0  0  0
    5.8430   -4.8190   22.4040 C   0  0  0  0  0  0  0  0  0  0  0  0
    6.1150   -5.8860   21.7120 C   0  0  0  0  0  0  0  0  0  0  0  0
   11.9120   -1.0960   23.1030 N   0  0  0  0  0  0  0  0  0  0  0  0
   11.3140   -2.4400   23.2020 C   0  0  0  0  0  0  0  0  0  0  0  0
   10.5040   -2.5630   24.3350 C   0  0  0  0  0  0  0  0  0  0  0  0
    9.8370   -1.2810   24.6640 N   0  0  0  0  0  0  0  0  0  0  0  0
   10.8410   -0.3130   25.0610 C   0  0  0  0  0  0  0  0  0  0  0  0
   12.0650   -0.4780   24.4290 C   0  0  0  0  0  0  0  0  0  0  0  0
    7.7210    1.6760   28.2130 C   0  0  0  0  0  0  0  0  0  0  0  0
    7.2890    2.6730   29.1170 C   0  0  0  0  0  0  0  0  0  0  0  0
    6.1620    2.4470   29.9340 C   0  0  0  0  0  0  0  0  0  0  0  0
    5.4430    1.2390   29.8830 C   0  0  0  0  0  0  0  0  0  0  0  0
    5.8320    0.2230   29.0070 C   0  0  0  0  0  0  0  0  0  0  0  0
    7.0720    0.4560   28.0950 C   0  0  0  0  0  0  0  0  0  0  0  0
  1  2  1  0
  2  3  1  0
  2  5  1  0
  5  6  2  0
  5  7  1  0
  9 11  2  3
 10 12  1  0
 11 12  1  0
  7 14  1  0
  9 15  1  0
 14 15  1  0
  3 17  1  0
 16 17  1  0
 17 18  2  0
 18 19  1  0
  4 20  1  0
 16 20  2  0
 19 20  1  0
  7 22  1  0
 21 22  1  0
 21 23  1  0
 22 23  1  0
  8 24  1  0
 24 25  1  0
 25 26  1  0
 11 27  1  0
 26 27  1  0
 27 28  1  0
 24 29  1  0
 28 29  1  0
 30 31  2  0
 13 32  1  0
 31 32  1  0
 32 33  2  0
 33 34  1  0
 10 35  1  0
 30 35  1  0
 34 35  2  0
M  END
