x0390-x0426
     RDKit          3D

 18 19  0  0  0  0  0  0  0  0999 V2000
    2.2780    1.7230   23.8240 C   0  0  0  0  0  0  0  0  0  0  0  0
    2.1890    0.2970   23.8510 O   0  0  0  0  0  0  0  0  0  0  0  0
    3.3690    2.4460   23.1580 N   0  0  0  0  0  0  0  0  0  0  0  0
    4.2460    1.8040   22.3180 C   0  0  0  0  0  0  0  0  0  0  0  0
    3.6100    1.3940   21.0350 C   0  0  0  0  0  0  0  0  0  0  0  0
    2.7090    4.3260   25.1960 F   0  0  0  0  0  0  0  0  0  0  0  0
    1.4740    3.7960   25.1660 C   0  0  0  0  0  0  0  0  0  0  0  0
    1.2140    2.5340   24.5110 C   0  0  0  0  0  0  0  0  0  0  0  0
   -0.1150    2.0800   24.5450 C   0  0  0  0  0  0  0  0  0  0  0  0
   -0.9170    3.0210   25.2530 C   0  0  0  0  0  0  0  0  0  0  0  0
   -0.9440    4.0330   25.8310 C   0  0  0  0  0  0  0  0  0  0  0  0
    0.3360    4.5800   25.8580 C   0  0  0  0  0  0  0  0  0  0  0  0
    5.6360    0.1040   20.2010 C   0  0  0  0  0  0  0  0  0  0  0  0
    6.5200   -0.1450   19.1540 C   0  0  0  0  0  0  0  0  0  0  0  0
    6.4900    0.4430   17.9360 N   0  0  0  0  0  0  0  0  0  0  0  0
    5.4460    1.4180   17.7110 C   0  0  0  0  0  0  0  0  0  0  0  0
    4.5840    1.6470   18.7620 C   0  0  0  0  0  0  0  0  0  0  0  0
    4.6230    1.0370   20.0050 C   0  0  0  0  0  0  0  0  0  0  0  0
  1  2  2  0
  1  3  1  0
  3  4  1  0
  4  5  1  0
  6  7  1  0
  1  8  1  0
  7  8  2  0
  8  9  1  0
  9 10  2  0
 10 11  1  0
  7 12  1  0
 11 12  2  0
 13 14  2  0
 14 15  1  0
 15 16  2  0
 16 17  1  0
  5 18  1  0
 13 18  1  0
 17 18  2  0
M  END
