x0397-x0434
     RDKit          3D

 24 26  0  0  0  0  0  0  0  0999 V2000
    8.1310   -1.9270   21.1240 C   0  0  0  0  0  0  0  0  0  0  0  0
    6.9040   -1.9880   20.2470 N   0  0  0  0  0  0  0  0  0  0  0  0
    6.9920   -1.4660   18.8740 C   0  0  0  0  0  0  0  0  0  0  0  0
    3.6220    2.3710   19.2660 C   0  0  0  0  0  0  0  0  0  0  0  0
    6.0430   -3.1490   20.6120 C   0  0  0  0  0  0  0  0  0  0  0  0
    5.4250   -3.8150   19.7580 O   0  0  0  0  0  0  0  0  0  0  0  0
    6.0030   -3.4620   21.9940 N   0  0  0  0  0  0  0  0  0  0  0  0
    8.4320    0.4720   21.0580 O   0  0  0  0  0  0  0  0  0  0  0  0
    8.5750   -0.6000   21.6440 C   0  0  0  0  0  0  0  0  0  0  0  0
    9.1220   -0.7790   22.7820 N   0  0  0  0  0  0  0  0  0  0  0  0
    5.0860    0.1350   19.6350 C   0  0  0  0  0  0  0  0  0  0  0  0
    6.1640   -0.2340   18.6980 C   0  0  0  0  0  0  0  0  0  0  0  0
    6.3510    0.6080   17.6700 N   0  0  0  0  0  0  0  0  0  0  0  0
    5.3970    1.6150   17.8550 O   0  0  0  0  0  0  0  0  0  0  0  0
    4.6180    1.4170   18.9800 C   0  0  0  0  0  0  0  0  0  0  0  0
    6.4380   -5.3600   23.2150 C   0  0  0  0  0  0  0  0  0  0  0  0
    5.6270   -4.7280   22.4630 C   0  0  0  0  0  0  0  0  0  0  0  0
    6.0450   -5.8910   21.7750 C   0  0  0  0  0  0  0  0  0  0  0  0
   10.7120    0.8960   23.1020 C   0  0  0  0  0  0  0  0  0  0  0  0
   12.0190    1.3420   23.1330 C   0  0  0  0  0  0  0  0  0  0  0  0
   13.1460    0.4910   22.8410 C   0  0  0  0  0  0  0  0  0  0  0  0
   12.7870   -0.8730   22.5110 C   0  0  0  0  0  0  0  0  0  0  0  0
   11.4600   -1.3100   22.4850 C   0  0  0  0  0  0  0  0  0  0  0  0
   10.4110   -0.4130   22.7860 C   0  0  0  0  0  0  0  0  0  0  0  0
  1  2  1  0
  2  3  1  0
  2  5  1  0
  5  6  2  0
  5  7  1  0
  1  9  1  0
  8  9  2  0
  9 10  1  0
  3 12  1  0
 11 12  1  0
 12 13  2  0
 13 14  1  0
  4 15  1  0
 11 15  2  0
 14 15  1  0
  7 17  1  0
 16 17  1  0
 16 18  1  0
 17 18  1  0
 19 20  2  0
 20 21  1  0
 21 22  2  0
 22 23  1  0
 10 24  1  0
 19 24  1  0
 23 24  2  0
M  END
