x0397-x0104
     RDKit          3D

 33 36  0  0  0  0  0  0  0  0999 V2000
    8.2650   -1.7310   21.3970 C   0  0  0  0  0  0  0  0  0  0  0  0
    7.0230   -1.8100   20.5240 N   0  0  0  0  0  0  0  0  0  0  0  0
    7.0340   -1.3770   19.0960 C   0  0  0  0  0  0  0  0  0  0  0  0
    3.7110    2.2620   19.2570 C   0  0  0  0  0  0  0  0  0  0  0  0
    6.1410   -2.9750   20.7720 C   0  0  0  0  0  0  0  0  0  0  0  0
    5.3710   -3.4350   19.9240 O   0  0  0  0  0  0  0  0  0  0  0  0
    6.2610   -3.5740   22.0970 N   0  0  0  0  0  0  0  0  0  0  0  0
    9.0940    6.5120   22.6100 C   0  0  0  0  0  0  0  0  0  0  0  0
   10.3460    6.1310   23.4230 C   0  0  0  0  0  0  0  0  0  0  0  0
   10.3740    6.2450   24.6440 O   0  0  0  0  0  0  0  0  0  0  0  0
   11.3630    5.6860   22.6810 N   0  0  0  0  0  0  0  0  0  0  0  0
   12.2360    4.8780   23.3250 C   0  0  0  0  0  0  0  0  0  0  0  0
   12.6150    3.6600   22.7520 C   0  0  0  0  0  0  0  0  0  0  0  0
   13.5610   -2.1690   22.4760 F   0  0  0  0  0  0  0  0  0  0  0  0
    8.5610   -0.4680   22.1980 C   0  0  0  0  0  0  0  0  0  0  0  0
    9.8200    0.1260   22.1180 C   0  0  0  0  0  0  0  0  0  0  0  0
    5.1320    0.2770   19.6610 C   0  0  0  0  0  0  0  0  0  0  0  0
    6.1710   -0.1840   18.8650 C   0  0  0  0  0  0  0  0  0  0  0  0
    6.3780    0.5880   17.7430 N   0  0  0  0  0  0  0  0  0  0  0  0
    5.4360    1.5820   17.8300 O   0  0  0  0  0  0  0  0  0  0  0  0
    4.6690    1.3880   19.0150 C   0  0  0  0  0  0  0  0  0  0  0  0
    6.3540   -5.5220   23.3590 C   0  0  0  0  0  0  0  0  0  0  0  0
    5.6180   -4.8050   22.4520 C   0  0  0  0  0  0  0  0  0  0  0  0
    6.0860   -5.8310   21.7680 C   0  0  0  0  0  0  0  0  0  0  0  0
   11.7020    2.5300   23.1000 C   0  0  0  0  0  0  0  0  0  0  0  0
   10.4560    2.7770   23.7040 C   0  0  0  0  0  0  0  0  0  0  0  0
    9.7440    1.5270   23.8980 N   0  0  0  0  0  0  0  0  0  0  0  0
   10.5650    0.4750   23.3110 C   0  0  2  0  0  0  0  0  0  0  0  0
   11.7800    1.0770   22.9640 C   0  0  0  0  0  0  0  0  0  0  0  0
   10.7030   -0.7840   24.1170 C   0  0  0  0  0  0  0  0  0  0  0  0
   11.7810   -1.6120   23.8760 C   0  0  0  0  0  0  0  0  0  0  0  0
   12.7180   -1.2430   22.9330 C   0  0  0  0  0  0  0  0  0  0  0  0
   12.7900    0.0630   22.4710 C   0  0  0  0  0  0  0  0  0  0  0  0
  1  2  1  0
  2  3  1  0
  2  5  1  0
  5  6  2  0
  5  7  1  0
  8  9  1  0
  9 10  2  0
  9 11  1  0
 11 12  1  0
 12 13  1  0
  1 15  1  0
 15 16  1  0
  3 18  1  0
 17 18  1  0
 18 19  2  0
 19 20  1  0
  4 21  1  0
 17 21  2  0
 20 21  1  0
  7 23  1  0
 22 23  1  0
 22 24  1  0
 23 24  1  0
 13 25  1  0
 25 26  1  0
 26 27  2  0
 28 16  1  6
 27 28  1  0
 25 29  2  0
 28 29  1  0
 28 30  1  0
 30 31  2  0
 14 32  1  0
 31 32  1  0
 29 33  1  0
 32 33  2  0
M  END
