x0395-x1478
     RDKit          3D

 27 29  0  0  0  0  0  0  0  0999 V2000
    6.5840   -2.7460   21.3500 N   0  0  0  0  0  0  0  0  0  0  0  0
    7.6120   -3.6640   19.4430 C   0  0  0  0  0  0  0  0  0  0  0  0
    5.3740   -3.4630   19.4190 O   0  0  0  0  0  0  0  0  0  0  0  0
    6.0630   -5.9060   22.2660 Cl  0  0  0  0  0  0  0  0  0  0  0  0
    6.4280   -3.2390   20.0800 C   0  0  0  0  0  0  0  0  0  0  0  0
    9.1350   -5.5160   25.9780 C   0  0  0  0  0  0  0  0  0  0  0  0
    8.9460   -0.8360   23.3560 C   0  0  1  0  0  0  0  0  0  0  0  0
   13.4360   -1.7670   21.6480 F   0  0  0  0  0  0  0  0  0  0  0  0
    7.9740   -2.5250   21.7320 C   0  0  0  0  0  0  0  0  0  0  0  0
    8.1000   -1.0620   22.1010 C   0  0  0  0  0  0  0  0  0  0  0  0
    4.6810   -4.6680   23.9920 N   0  0  0  0  0  0  0  0  0  0  0  0
    5.4780   -4.4300   22.9290 C   0  0  0  0  0  0  0  0  0  0  0  0
    5.7550   -3.1350   22.4770 C   0  0  0  0  0  0  0  0  0  0  0  0
    5.2090   -2.0820   23.1390 C   0  0  0  0  0  0  0  0  0  0  0  0
    4.3950   -2.3050   24.2290 C   0  0  0  0  0  0  0  0  0  0  0  0
    4.1590   -3.5840   24.6140 C   0  0  0  0  0  0  0  0  0  0  0  0
    8.8980   -4.1230   25.5110 C   0  0  0  0  0  0  0  0  0  0  0  0
    8.2220   -3.2120   26.1780 N   0  0  0  0  0  0  0  0  0  0  0  0
    8.1820   -1.9630   25.4720 N   0  0  0  0  0  0  0  0  0  0  0  0
    8.8240   -2.0160   24.3240 C   0  0  0  0  0  0  0  0  0  0  0  0
    9.5210   -3.5640   24.0140 S   0  0  0  0  0  0  0  0  0  0  0  0
   10.9640    0.4580   23.9750 C   0  0  0  0  0  0  0  0  0  0  0  0
   12.0740    1.1560   23.3530 C   0  0  0  0  0  0  0  0  0  0  0  0
   12.9000    0.2550   22.7230 C   0  0  0  0  0  0  0  0  0  0  0  0
   12.5240   -0.9970   22.2540 C   0  0  0  0  0  0  0  0  0  0  0  0
   11.2030   -1.4650   22.3920 C   0  0  0  0  0  0  0  0  0  0  0  0
   10.3090   -0.4180   22.9920 N   0  0  0  0  0  0  0  0  0  0  0  0
  1  5  1  0
  2  5  1  0
  3  5  2  0
  1  9  1  0
  7 10  1  6
  9 10  1  0
  4 12  1  0
 11 12  2  0
  1 13  1  0
 12 13  1  0
 13 14  2  0
 14 15  1  0
 11 16  1  0
 15 16  2  0
  6 17  1  0
 17 18  2  0
 18 19  1  0
  7 20  1  0
 19 20  2  0
 17 21  1  0
 20 21  1  0
 22 23  1  0
 23 24  1  0
  8 25  1  0
 24 25  2  0
 25 26  1  0
  7 27  1  0
 22 27  1  0
 26 27  1  0
M  END
