x0397-x0678
     RDKit          3D

 24 26  0  0  0  0  0  0  0  0999 V2000
    8.1930   -1.6700   21.2870 C   0  0  0  0  0  0  0  0  0  0  0  0
    6.9880   -1.8130   20.4490 N   0  0  0  0  0  0  0  0  0  0  0  0
    6.9810   -1.4190   19.0400 C   0  0  0  0  0  0  0  0  0  0  0  0
    3.6450    2.3550   19.2170 C   0  0  0  0  0  0  0  0  0  0  0  0
    6.1560   -2.9130   20.7190 C   0  0  0  0  0  0  0  0  0  0  0  0
    5.3750   -3.3950   19.8960 O   0  0  0  0  0  0  0  0  0  0  0  0
    6.3020   -3.4340   21.9950 N   0  0  0  0  0  0  0  0  0  0  0  0
    8.5090    0.7300   21.0050 O   0  0  0  0  0  0  0  0  0  0  0  0
    8.6580   -0.2660   21.7180 C   0  0  0  0  0  0  0  0  0  0  0  0
    9.2610   -0.1940   23.0160 C   0  0  0  0  0  0  0  0  0  0  0  0
    5.1190    0.2460   19.5910 C   0  0  0  0  0  0  0  0  0  0  0  0
    6.1500   -0.2230   18.8110 C   0  0  0  0  0  0  0  0  0  0  0  0
    6.3580    0.5520   17.7440 N   0  0  0  0  0  0  0  0  0  0  0  0
    5.4370    1.5600   17.8300 O   0  0  0  0  0  0  0  0  0  0  0  0
    4.6920    1.3690   18.9470 C   0  0  0  0  0  0  0  0  0  0  0  0
    6.4290   -5.4210   23.2830 C   0  0  0  0  0  0  0  0  0  0  0  0
    5.7500   -4.6960   22.4130 C   0  0  0  0  0  0  0  0  0  0  0  0
    6.0360   -5.7980   21.7410 C   0  0  0  0  0  0  0  0  0  0  0  0
   11.2050   -1.5000   22.2900 C   0  0  0  0  0  0  0  0  0  0  0  0
   12.5390   -1.8720   22.4790 C   0  0  0  0  0  0  0  0  0  0  0  0
   13.2570   -1.1840   23.4510 C   0  0  0  0  0  0  0  0  0  0  0  0
   12.5930   -0.5130   24.4600 C   0  0  0  0  0  0  0  0  0  0  0  0
   11.2240   -0.4420   24.3450 C   0  0  0  0  0  0  0  0  0  0  0  0
   10.7800   -0.3970   23.0350 C   0  0  0  0  0  0  0  0  0  0  0  0
  1  2  1  0
  2  3  1  0
  2  5  1  0
  5  6  2  0
  5  7  1  0
  1  9  1  0
  8  9  2  0
  9 10  1  0
  3 12  1  0
 11 12  1  0
 12 13  2  0
 13 14  1  0
  4 15  1  0
 11 15  2  0
 14 15  1  0
  7 17  1  0
 16 17  1  0
 16 18  1  0
 17 18  1  0
 19 20  1  0
 20 21  1  0
 21 22  1  0
 22 23  1  0
 10 24  1  0
 19 24  1  0
 23 24  1  0
M  END
