x0397-x0305
     RDKit          3D

 29 31  0  0  0  0  0  0  0  0999 V2000
    7.7850   -1.5930   21.7200 C   0  0  0  0  0  0  0  0  0  0  0  0
    6.8330   -1.9670   20.5730 N   0  0  0  0  0  0  0  0  0  0  0  0
    7.0140   -1.3860   19.2180 C   0  0  0  0  0  0  0  0  0  0  0  0
    3.6980    2.4210   19.1380 C   0  0  0  0  0  0  0  0  0  0  0  0
    6.0720   -3.2140   20.8030 C   0  0  0  0  0  0  0  0  0  0  0  0
    5.4900   -3.8280   19.8820 O   0  0  0  0  0  0  0  0  0  0  0  0
    6.0800   -3.6630   22.1400 N   0  0  0  0  0  0  0  0  0  0  0  0
    8.5630   -0.4320   27.4380 C   0  0  0  0  0  0  0  0  0  0  0  0
    8.9190   -0.5900   25.9540 C   0  0  0  0  0  0  0  0  0  0  0  0
    9.7070    0.5360   25.3720 N   0  0  0  0  0  0  0  0  0  0  0  0
   12.8060   -1.7710   21.9820 C   0  0  2  0  0  0  0  0  0  0  0  0
   13.5330   -1.4460   20.8960 N   0  0  0  0  0  0  0  0  0  0  0  0
    9.2740   -1.7000   21.2710 C   0  0  0  0  0  0  0  0  0  0  0  0
   10.4170   -1.5440   22.0200 C   0  0  0  0  0  0  0  0  0  0  0  0
   11.5550   -2.3640   21.6800 C   0  0  0  0  0  0  0  0  0  0  0  0
    5.1020    0.1890   19.8990 C   0  0  0  0  0  0  0  0  0  0  0  0
    6.1420   -0.2130   18.9860 C   0  0  0  0  0  0  0  0  0  0  0  0
    6.3760    0.4640   17.8610 N   0  0  0  0  0  0  0  0  0  0  0  0
    5.5130    1.4670   17.8250 O   0  0  0  0  0  0  0  0  0  0  0  0
    4.7510    1.3510   18.9880 C   0  0  0  0  0  0  0  0  0  0  0  0
    6.2170   -5.7450   23.1860 C   0  0  0  0  0  0  0  0  0  0  0  0
    5.5390   -4.8640   22.5200 C   0  0  0  0  0  0  0  0  0  0  0  0
    6.1470   -5.9560   21.7310 C   0  0  0  0  0  0  0  0  0  0  0  0
   10.6210    0.1030   24.4840 C   0  0  0  0  0  0  0  0  0  0  0  0
   11.6650    0.9650   24.1860 N   0  0  0  0  0  0  0  0  0  0  0  0
   12.6010    0.5330   23.3060 C   0  0  0  0  0  0  0  0  0  0  0  0
   12.3930   -0.6780   22.8310 C   0  0  0  0  0  0  0  0  0  0  0  0
   11.4220   -1.5980   23.0360 C   0  0  0  0  0  0  0  0  0  0  0  0
   10.4620   -1.1950   23.9210 C   0  0  0  0  0  0  0  0  0  0  0  0
  1  2  1  0
  2  3  1  0
  2  5  1  0
  5  6  2  0
  5  7  1  0
  8  9  1  0
  9 10  1  0
 11 12  1  6
  1 13  1  0
 13 14  1  0
 11 15  1  0
 14 15  1  0
  3 17  1  0
 16 17  1  0
 17 18  2  0
 18 19  1  0
  4 20  1  0
 16 20  2  0
 19 20  1  0
  7 22  1  0
 21 22  1  0
 21 23  1  0
 22 23  1  0
 10 24  1  0
 24 25  2  0
 25 26  1  0
 11 27  1  0
 26 27  2  0
 27 28  1  0
 24 29  1  0
 28 29  2  0
M  END
