x0390-x0874
     RDKit          3D

 18 20  0  0  0  0  0  0  0  0999 V2000
   22.5540   17.8360    2.8270 O   0  0  0  0  0  0  0  0  0  0  0  0
   23.0890   16.4820    5.2730 C   0  0  0  0  0  0  0  0  0  0  0  0
   22.6290   15.4150    4.3730 N   0  0  0  0  0  0  0  0  0  0  0  0
   22.0350   18.3760    3.7960 C   0  0  0  0  0  0  0  0  0  0  0  0
   22.2710   17.7330    5.1010 C   0  0  0  0  0  0  0  0  0  0  0  0
   21.6290   18.3990    6.3130 C   0  0  0  0  0  0  0  0  0  0  0  0
   20.8620   19.5680    6.1540 C   0  0  0  0  0  0  0  0  0  0  0  0
   20.6780   20.1340    4.8650 C   0  0  0  0  0  0  0  0  0  0  0  0
   21.2710   19.5280    3.6690 C   0  0  0  0  0  0  0  0  0  0  0  0
   24.8000   14.1960    4.9350 N   0  0  0  0  0  0  0  0  0  0  0  0
   23.5470   14.2880    4.1680 C   0  0  0  0  0  0  0  0  0  0  0  0
   23.3870   13.2640    3.3180 N   0  0  0  0  0  0  0  0  0  0  0  0
   24.4890   12.4310    3.4470 C   0  0  0  0  0  0  0  0  0  0  0  0
   25.3210   12.9750    4.3930 C   0  0  0  0  0  0  0  0  0  0  0  0
   26.5240   12.4210    4.7900 C   0  0  0  0  0  0  0  0  0  0  0  0
   26.8810   11.2380    4.1660 C   0  0  0  0  0  0  0  0  0  0  0  0
   26.0940   10.6220    3.1940 C   0  0  0  0  0  0  0  0  0  0  0  0
   24.8750   11.2250    2.8240 C   0  0  0  0  0  0  0  0  0  0  0  0
  2  3  1  0
  1  4  1  0
  2  5  1  0
  4  5  2  0
  5  6  1  0
  6  7  2  0
  7  8  1  0
  4  9  1  0
  8  9  2  0
  3 11  1  0
 10 11  2  0
 11 12  1  0
 12 13  1  0
 10 14  1  0
 13 14  2  0
 14 15  1  0
 15 16  2  0
 16 17  1  0
 13 18  1  0
 17 18  2  0
M  END
