x0397-x1249
     RDKit          3D

 36 40  0  0  0  0  0  0  0  0999 V2000
    7.9320   -1.6170   20.8110 C   0  0  0  0  0  0  0  0  0  0  0  0
    6.7900   -2.0930   19.9900 N   0  0  0  0  0  0  0  0  0  0  0  0
    6.7480   -1.5940   18.6240 C   0  0  0  0  0  0  0  0  0  0  0  0
    3.7680    2.4500   19.2180 C   0  0  0  0  0  0  0  0  0  0  0  0
    6.0650   -3.2810   20.5150 C   0  0  0  0  0  0  0  0  0  0  0  0
    5.3900   -4.0160   19.7780 O   0  0  0  0  0  0  0  0  0  0  0  0
    6.2080   -3.5530   21.9010 N   0  0  0  0  0  0  0  0  0  0  0  0
    8.2850    0.9450   24.9620 N   0  0  0  0  0  0  0  0  0  0  0  0
    7.5820    1.6000   23.8700 C   0  0  1  0  0  0  0  0  0  0  0  0
    7.8260    2.9600   23.5490 O   0  0  0  0  0  0  0  0  0  0  0  0
    9.6610    0.9830   25.2270 C   0  0  0  0  0  0  0  0  0  0  0  0
   13.4830   -2.8290   20.6810 N   0  0  0  0  0  0  0  0  0  0  0  0
   12.9160   -1.9850   21.5380 C   0  0  0  0  0  0  0  0  0  0  0  0
    7.5290   -1.4030   22.2860 C   0  0  0  0  0  0  0  0  0  0  0  0
    8.1770   -0.3720   22.8440 C   0  0  0  0  0  0  0  0  0  0  0  0
    7.4560    0.7960   22.7890 C   0  0  1  0  0  0  0  0  0  0  0  0
    4.9730    0.0030   19.5530 C   0  0  0  0  0  0  0  0  0  0  0  0
    5.9930   -0.3250   18.6080 C   0  0  0  0  0  0  0  0  0  0  0  0
    6.2970    0.5440   17.6530 N   0  0  0  0  0  0  0  0  0  0  0  0
    5.5030    1.5930   17.8270 O   0  0  0  0  0  0  0  0  0  0  0  0
    4.7340    1.3400   18.8880 C   0  0  0  0  0  0  0  0  0  0  0  0
    6.4100   -5.5280   23.1490 C   0  0  0  0  0  0  0  0  0  0  0  0
    5.6850   -4.6890   22.4820 C   0  0  0  0  0  0  0  0  0  0  0  0
    6.1640   -5.8860   21.7480 C   0  0  0  0  0  0  0  0  0  0  0  0
    3.6050    0.9940   23.6920 O   0  0  0  0  0  0  0  0  0  0  0  0
    4.1070    1.5110   22.5550 C   0  0  0  0  0  0  0  0  0  0  0  0
    5.3480    2.0340   22.9480 C   0  0  0  0  0  0  0  0  0  0  0  0
    6.1810    1.1360   23.5580 C   0  0  0  0  0  0  0  0  0  0  0  0
    5.6790    0.2300   24.5040 C   0  0  0  0  0  0  0  0  0  0  0  0
    4.3690   -0.1120   24.1620 C   0  0  0  0  0  0  0  0  0  0  0  0
   11.7180    0.8490   23.7750 C   0  0  0  0  0  0  0  0  0  0  0  0
   12.5170    0.1400   22.8860 C   0  0  0  0  0  0  0  0  0  0  0  0
   12.1550   -1.1470   22.4850 C   0  0  0  0  0  0  0  0  0  0  0  0
   11.0040   -1.7160   22.9860 C   0  0  0  0  0  0  0  0  0  0  0  0
   10.2060   -1.0310   23.8720 C   0  0  0  0  0  0  0  0  0  0  0  0
   10.5480    0.2530   24.2700 C   0  0  0  0  0  0  0  0  0  0  0  0
  1  2  1  0
  2  3  1  0
  2  5  1  0
  5  6  2  0
  5  7  1  0
  8  9  1  0
  9 10  1  6
  8 11  1  0
 12 13  3  0
  1 14  1  0
 14 15  1  0
  9 16  1  0
 16 15  1  1
  3 18  1  0
 17 18  1  0
 18 19  2  0
 19 20  1  0
  4 21  1  0
 17 21  2  0
 20 21  1  0
  7 23  1  0
 22 23  1  0
 22 24  1  0
 23 24  1  0
 25 26  1  0
 26 27  1  0
  9 28  1  0
 16 28  1  0
 28 27  1  0
 28 29  1  0
 25 30  1  0
 29 30  1  0
 31 32  2  0
 13 33  1  0
 32 33  1  0
 33 34  2  0
 34 35  1  0
 11 36  1  0
 31 36  1  0
 35 36  2  0
M  END
