x0395-x0736
     RDKit          3D

 29 33  0  0  0  0  0  0  0  0999 V2000
    7.4130   -3.0080   18.8270 C   0  0  0  0  0  0  0  0  0  0  0  0
    5.3110   -3.9500   19.5490 O   0  0  0  0  0  0  0  0  0  0  0  0
    6.3390   -3.2970   19.8220 C   0  0  0  0  0  0  0  0  0  0  0  0
    6.1230   -2.4770   23.4940 O   0  0  0  0  0  0  0  0  0  0  0  0
    7.0750   -2.5230   24.2400 C   0  0  0  0  0  0  0  0  0  0  0  0
    8.4320   -5.4790   27.1090 C   0  0  0  0  0  0  0  0  0  0  0  0
    9.0000   -0.5160   22.8180 C   0  0  0  0  0  0  0  0  0  0  0  0
   13.4350   -1.7230   21.8140 F   0  0  0  0  0  0  0  0  0  0  0  0
    6.4690   -2.8970   21.1410 N   0  0  0  0  0  0  0  0  0  0  0  0
    7.0880   -1.6400   21.4780 C   0  0  0  0  0  0  0  0  0  0  0  0
    8.3870   -1.7990   22.2120 C   0  0  2  0  0  0  0  0  0  0  0  0
    8.0930   -2.7380   23.1610 C   0  0  2  0  0  0  0  0  0  0  0  0
    7.7200   -3.9710   22.7090 C   0  0  0  0  0  0  0  0  0  0  0  0
    6.4420   -4.0000   22.1700 C   0  0  0  0  0  0  0  0  0  0  0  0
    7.3270   -1.0000   25.6160 N   0  0  0  0  0  0  0  0  0  0  0  0
    8.4620   -1.8150   25.6400 C   0  0  1  0  0  0  0  0  0  0  0  0
    9.5400   -1.0420   26.1680 C   0  0  0  0  0  0  0  0  0  0  0  0
    9.1140    0.1670   26.5930 C   0  0  0  0  0  0  0  0  0  0  0  0
    7.7610    0.2520   26.2740 C   0  0  0  0  0  0  0  0  0  0  0  0
    8.5460   -4.1780   26.3240 C   0  0  0  0  0  0  0  0  0  0  0  0
    8.1150   -2.8140   26.6960 N   0  0  0  0  0  0  0  0  0  0  0  0
    8.5450   -2.6550   24.4910 C   0  0  1  0  0  0  0  0  0  0  0  0
    9.3370   -4.1970   24.7820 S   0  0  0  0  0  0  0  0  0  0  0  0
   10.8250    0.3720   24.0730 C   0  0  0  0  0  0  0  0  0  0  0  0
   11.7470    1.1050   23.3150 C   0  0  0  0  0  0  0  0  0  0  0  0
   12.7300    0.2910   22.8310 C   0  0  0  0  0  0  0  0  0  0  0  0
   12.4440   -0.9540   22.2930 C   0  0  0  0  0  0  0  0  0  0  0  0
   11.1360   -1.3970   22.2360 C   0  0  0  0  0  0  0  0  0  0  0  0
   10.2780   -0.7040   23.2380 N   0  0  0  0  0  0  0  0  0  0  0  0
  1  3  1  0
  2  3  2  0
  4  5  2  0
  3  9  1  0
  9 10  1  0
 11  7  1  1
 10 11  1  0
 12  5  1  0
 11 12  1  0
 12 13  1  6
  9 14  1  0
 13 14  1  0
 16 15  1  0
 16 17  1  1
 17 18  2  0
 15 19  2  0
 18 19  1  0
  6 20  1  0
 16 21  1  0
 20 21  2  0
 22  5  1  1
 12 22  1  0
 16 22  1  0
 20 23  1  0
 22 23  1  0
 24 25  1  0
 25 26  1  0
  8 27  1  0
 26 27  2  0
 27 28  1  0
  7 29  1  0
 24 29  1  0
 28 29  1  0
M  END
