x0395-x1493
     RDKit          3D

 27 29  0  0  0  0  0  0  0  0999 V2000
    4.7150   -5.5900   26.2890 C   0  0  0  0  0  0  0  0  0  0  0  0
    7.1430   -5.8550   26.5870 N   0  0  0  0  0  0  0  0  0  0  0  0
    6.1370   -5.6590   25.7640 C   0  0  0  0  0  0  0  0  0  0  0  0
    5.5810   -4.2930   19.8710 O   0  0  0  0  0  0  0  0  0  0  0  0
    6.6360   -4.3530   20.5180 C   0  0  0  0  0  0  0  0  0  0  0  0
    7.8970   -3.5770   20.1350 C   0  0  0  0  0  0  0  0  0  0  0  0
    9.3820   -4.8130   26.6240 C   0  0  0  0  0  0  0  0  0  0  0  0
    8.9150   -1.1880   22.8450 C   0  0  0  0  0  0  0  0  0  0  0  0
   13.5650   -1.6210   21.6110 F   0  0  0  0  0  0  0  0  0  0  0  0
    8.5520   -5.9910   26.1750 C   0  0  0  0  0  0  0  0  0  0  0  0
    6.2960   -5.5250   24.3800 N   0  0  0  0  0  0  0  0  0  0  0  0
    7.0960   -4.4000   23.8560 C   0  0  0  0  0  0  0  0  0  0  0  0
    7.7280   -4.7730   22.6740 C   0  0  0  0  0  0  0  0  0  0  0  0
    6.7810   -5.1860   21.6340 N   0  0  0  0  0  0  0  0  0  0  0  0
    5.8620   -6.2380   22.0580 C   0  0  0  0  0  0  0  0  0  0  0  0
    5.2460   -5.9400   23.4240 C   0  0  0  0  0  0  0  0  0  0  0  0
    9.0320   -3.6740   25.7620 C   0  0  0  0  0  0  0  0  0  0  0  0
    8.1050   -2.7930   26.0450 N   0  0  0  0  0  0  0  0  0  0  0  0
    7.9760   -1.8390   25.0650 N   0  0  0  0  0  0  0  0  0  0  0  0
    8.8150   -2.0440   24.0660 C   0  0  0  0  0  0  0  0  0  0  0  0
    9.8350   -3.4220   24.2620 S   0  0  0  0  0  0  0  0  0  0  0  0
   10.6150    0.2730   23.8010 C   0  0  0  0  0  0  0  0  0  0  0  0
   11.8630    1.0950   23.4450 C   0  0  0  0  0  0  0  0  0  0  0  0
   12.9080    0.2810   22.7510 C   0  0  0  0  0  0  0  0  0  0  0  0
   12.6140   -0.9230   22.2410 C   0  0  0  0  0  0  0  0  0  0  0  0
   11.2530   -1.5380   22.3250 C   0  0  0  0  0  0  0  0  0  0  0  0
   10.2120   -0.5470   22.6520 N   0  0  0  0  0  0  0  0  0  0  0  0
  1  3  1  0
  2  3  2  3
  4  5  2  0
  5  6  1  0
  2 10  1  0
  7 10  1  0
  3 11  1  0
 11 12  1  0
 12 13  1  0
  5 14  1  0
 13 14  1  0
 14 15  1  0
 11 16  1  0
 15 16  1  0
  7 17  1  0
 17 18  2  0
 18 19  1  0
  8 20  1  0
 19 20  2  0
 17 21  1  0
 20 21  1  0
 22 23  1  0
 23 24  1  0
  9 25  1  0
 24 25  2  0
 25 26  1  0
  8 27  1  0
 22 27  1  0
 26 27  1  0
M  END
