x0397-x1249-x0395
     RDKit          3D

 44 49  0  0  0  0  0  0  0  0999 V2000
    8.0350   -2.0110   20.9410 C   0  0  0  0  0  0  0  0  0  0  0  0
    6.9130   -2.2070   20.0480 N   0  0  0  0  0  0  0  0  0  0  0  0
    6.8990   -1.6390   18.6900 C   0  0  0  0  0  0  0  0  0  0  0  0
    3.7350    2.2690   19.3480 C   0  0  0  0  0  0  0  0  0  0  0  0
    6.0250   -3.3250   20.4680 C   0  0  0  0  0  0  0  0  0  0  0  0
    5.4650   -4.0780   19.6630 O   0  0  0  0  0  0  0  0  0  0  0  0
    5.8880   -3.4740   21.8260 N   0  0  0  0  0  0  0  0  0  0  0  0
    8.4490    1.0000   24.7840 N   0  0  0  0  0  0  0  0  0  0  0  0
    7.5330    1.7580   23.9700 C   0  0  1  0  0  0  0  0  0  0  0  0
    7.9970    3.0810   23.7490 O   0  0  0  0  0  0  0  0  0  0  0  0
    9.5440    1.3130   24.8830 C   0  0  0  0  0  0  0  0  0  0  0  0
   13.8640   -1.1390   20.5280 N   0  0  0  0  0  0  0  0  0  0  0  0
   13.1380   -1.7370   21.5850 C   0  0  2  0  0  0  0  0  0  0  0  0
    8.2320   -0.5640   21.2740 C   0  0  0  0  0  0  0  0  0  0  0  0
    7.4700   -0.3430   22.5570 C   0  0  0  0  0  0  0  0  0  0  0  0
    7.1190    1.0440   22.7460 C   0  0  1  0  0  0  0  0  0  0  0  0
    9.1590   -5.8250   26.3380 C   0  0  0  0  0  0  0  0  0  0  0  0
    8.8190   -1.4290   23.4980 C   0  0  0  0  0  0  0  0  0  0  0  0
   12.3190   -2.4600   20.8670 F   0  0  0  0  0  0  0  0  0  0  0  0
    5.1000    0.0410   19.4780 C   0  0  0  0  0  0  0  0  0  0  0  0
    6.1140   -0.3820   18.6460 C   0  0  0  0  0  0  0  0  0  0  0  0
    6.3620    0.5140   17.6910 N   0  0  0  0  0  0  0  0  0  0  0  0
    5.4970    1.5510   17.8940 O   0  0  0  0  0  0  0  0  0  0  0  0
    4.7350    1.2620   18.9730 C   0  0  0  0  0  0  0  0  0  0  0  0
    6.4720   -5.4940   23.1210 C   0  0  0  0  0  0  0  0  0  0  0  0
    5.5130   -4.7240   22.4110 C   0  0  0  0  0  0  0  0  0  0  0  0
    5.9920   -6.0030   21.8060 C   0  0  0  0  0  0  0  0  0  0  0  0
    3.4410    0.5300   23.5820 O   0  0  0  0  0  0  0  0  0  0  0  0
    4.0920    1.3440   22.5840 C   0  0  0  0  0  0  0  0  0  0  0  0
    5.1100    2.2030   23.1180 C   0  0  0  0  0  0  0  0  0  0  0  0
    6.0500    1.4320   23.7400 C   0  0  0  0  0  0  0  0  0  0  0  0
    5.5290    0.4860   24.6360 C   0  0  0  0  0  0  0  0  0  0  0  0
    4.1500    0.4680   24.8260 C   0  0  0  0  0  0  0  0  0  0  0  0
   11.7890    1.0310   23.7790 C   0  0  0  0  0  0  0  0  0  0  0  0
   12.6970    0.3270   22.9910 C   0  0  0  0  0  0  0  0  0  0  0  0
   12.2980   -0.8810   22.4320 C   0  0  0  0  0  0  0  0  0  0  0  0
   11.0530   -1.3750   22.6350 C   0  0  0  0  0  0  0  0  0  0  0  0
   10.1470   -0.7470   23.3800 C   0  0  0  0  0  0  0  0  0  0  0  0
   10.5000    0.5270   24.0080 C   0  0  0  0  0  0  0  0  0  0  0  0
    8.8830   -4.4810   25.7760 C   0  0  0  0  0  0  0  0  0  0  0  0
    8.1700   -3.5480   26.3750 N   0  0  0  0  0  0  0  0  0  0  0  0
    8.0930   -2.3990   25.6300 N   0  0  0  0  0  0  0  0  0  0  0  0
    8.7430   -2.5080   24.4980 C   0  0  0  0  0  0  0  0  0  0  0  0
    9.5060   -4.0210   24.2510 S   0  0  0  0  0  0  0  0  0  0  0  0
  1  2  1  0
  2  3  1  0
  2  5  1  0
  5  6  2  0
  5  7  1  0
  8  9  1  0
  9 10  1  6
  8 11  1  0
 13 12  1  6
  1 14  1  0
 14 15  1  0
  9 16  1  0
 16 15  1  1
 13 19  1  0
  3 21  1  0
 20 21  1  0
 21 22  2  0
 22 23  1  0
  4 24  1  0
 20 24  2  0
 23 24  1  0
  7 26  1  0
 25 26  1  0
 25 27  1  0
 26 27  1  0
 28 29  1  0
 29 30  1  0
  9 31  1  0
 16 31  1  0
 31 30  1  0
 31 32  1  0
 28 33  1  0
 32 33  1  0
 34 35  2  0
 13 36  1  0
 35 36  1  0
 36 37  2  0
 18 38  1  0
 37 38  1  0
 11 39  1  0
 34 39  1  0
 38 39  2  0
 17 40  1  0
 40 41  2  0
 41 42  1  0
 18 43  1  0
 42 43  2  0
 40 44  1  0
 43 44  1  0
M  END
