x0397-x2562
     RDKit          3D

 30 33  0  0  0  0  0  0  0  0999 V2000
    7.0440   -0.9040   21.3240 C   0  0  0  0  0  0  0  0  0  0  0  0
    6.9160   -1.8950   20.2520 N   0  0  0  0  0  0  0  0  0  0  0  0
    6.8980   -1.4490   18.8470 C   0  0  0  0  0  0  0  0  0  0  0  0
    3.5740    2.4370   19.2070 C   0  0  0  0  0  0  0  0  0  0  0  0
    6.1400   -3.1330   20.6400 C   0  0  0  0  0  0  0  0  0  0  0  0
    5.5150   -3.8240   19.8070 O   0  0  0  0  0  0  0  0  0  0  0  0
    6.1800   -3.4640   21.9760 N   0  0  0  0  0  0  0  0  0  0  0  0
    8.3640   -0.0560   21.3290 C   0  0  0  0  0  0  0  0  0  0  0  0
    8.3900    1.3510   21.0090 O   0  0  0  0  0  0  0  0  0  0  0  0
   11.9850    2.6970   23.3060 O   0  0  0  0  0  0  0  0  0  0  0  0
    9.4410   -0.8520   21.6700 N   0  0  0  0  0  0  0  0  0  0  0  0
   13.0550    6.7100   22.1790 O   0  0  0  0  0  0  0  0  0  0  0  0
    5.0790    0.1990   19.4680 C   0  0  0  0  0  0  0  0  0  0  0  0
    6.1020   -0.2250   18.6600 C   0  0  0  0  0  0  0  0  0  0  0  0
    6.2910    0.6390   17.6490 N   0  0  0  0  0  0  0  0  0  0  0  0
    5.3780    1.6700   17.7820 O   0  0  0  0  0  0  0  0  0  0  0  0
    4.6110    1.4580   18.8770 C   0  0  0  0  0  0  0  0  0  0  0  0
    6.5000   -5.5160   23.3250 C   0  0  0  0  0  0  0  0  0  0  0  0
    5.7440   -4.7450   22.4380 C   0  0  0  0  0  0  0  0  0  0  0  0
    6.0670   -5.9360   21.7710 C   0  0  0  0  0  0  0  0  0  0  0  0
   12.3260    4.5180   21.7800 N   0  0  0  0  0  0  0  0  0  0  0  0
   13.4340    5.3550   22.1740 C   0  0  2  0  0  0  0  0  0  0  0  0
   13.3950    4.7350   23.3960 C   0  0  0  0  0  0  0  0  0  0  0  0
   12.9700    3.5890   22.7060 C   0  0  1  0  0  0  0  0  0  0  0  0
   11.7100   -1.1800   22.1240 C   0  0  0  0  0  0  0  0  0  0  0  0
   12.9140   -0.6420   22.5290 C   0  0  0  0  0  0  0  0  0  0  0  0
   13.2160    0.6700   22.9510 C   0  0  0  0  0  0  0  0  0  0  0  0
   11.8570    1.3690   22.8880 C   0  0  0  0  0  0  0  0  0  0  0  0
   10.5930    0.9370   22.5060 C   0  0  0  0  0  0  0  0  0  0  0  0
   10.6120   -0.4020   22.1050 C   0  0  0  0  0  0  0  0  0  0  0  0
  1  2  1  0
  2  3  1  0
  2  5  1  0
  5  6  2  0
  5  7  1  0
  1  8  1  0
  8  9  2  0
  8 11  1  0
  3 14  1  0
 13 14  1  0
 14 15  2  0
 15 16  1  0
  4 17  1  0
 13 17  2  0
 16 17  1  0
  7 19  1  0
 18 19  1  0
 18 20  1  0
 19 20  1  0
 22 12  1  1
 21 22  1  0
 22 23  1  0
 24 10  1  1
 21 24  1  0
 23 24  1  0
 25 26  2  0
 26 27  1  0
 10 28  1  0
 27 28  2  0
 28 29  1  0
 11 30  1  0
 25 30  1  0
 29 30  2  0
M  END
