x0390-x1392
     RDKit          3D

 18 20  0  0  0  0  0  0  0  0999 V2000
   22.4610   17.8550    2.7460 O   0  0  0  0  0  0  0  0  0  0  0  0
   23.1150   16.5140    5.1870 C   0  0  0  0  0  0  0  0  0  0  0  0
   22.5980   15.4000    4.3800 N   0  0  0  0  0  0  0  0  0  0  0  0
   21.9830   18.3890    3.7390 C   0  0  0  0  0  0  0  0  0  0  0  0
   22.2770   17.7540    5.0370 C   0  0  0  0  0  0  0  0  0  0  0  0
   21.6800   18.4200    6.2710 C   0  0  0  0  0  0  0  0  0  0  0  0
   20.8970   19.5820    6.1400 C   0  0  0  0  0  0  0  0  0  0  0  0
   20.6590   20.1410    4.8560 C   0  0  0  0  0  0  0  0  0  0  0  0
   21.2060   19.5330    3.6390 C   0  0  0  0  0  0  0  0  0  0  0  0
   24.7770   14.1910    4.9290 N   0  0  0  0  0  0  0  0  0  0  0  0
   23.5210   14.2760    4.1660 C   0  0  0  0  0  0  0  0  0  0  0  0
   23.3650   13.2510    3.3160 N   0  0  0  0  0  0  0  0  0  0  0  0
   24.4750   12.4260    3.4400 C   0  0  0  0  0  0  0  0  0  0  0  0
   25.3050   12.9740    4.3850 C   0  0  0  0  0  0  0  0  0  0  0  0
   26.5120   12.4270    4.7780 C   0  0  0  0  0  0  0  0  0  0  0  0
   26.8760   11.2470    4.1540 C   0  0  0  0  0  0  0  0  0  0  0  0
   26.0920   10.6260    3.1840 C   0  0  0  0  0  0  0  0  0  0  0  0
   24.8680   11.2210    2.8170 C   0  0  0  0  0  0  0  0  0  0  0  0
  2  3  1  0
  1  4  1  0
  2  5  1  0
  4  5  2  0
  5  6  1  0
  6  7  2  0
  7  8  1  0
  4  9  1  0
  8  9  2  0
  3 11  1  0
 10 11  2  0
 11 12  1  0
 12 13  1  0
 10 14  1  0
 13 14  2  0
 14 15  1  0
 15 16  2  0
 16 17  1  0
 13 18  1  0
 17 18  2  0
M  END
