x0397-x2569
     RDKit          3D

 26 28  0  0  0  0  0  0  0  0999 V2000
    7.6650   -0.7060   21.5000 C   0  0  2  0  0  0  0  0  0  0  0  0
    7.1940   -1.6740   20.4620 N   0  0  0  0  0  0  0  0  0  0  0  0
    7.1110   -1.2920   19.0250 C   0  0  0  0  0  0  0  0  0  0  0  0
    3.5910    2.3440   19.2050 C   0  0  0  0  0  0  0  0  0  0  0  0
    6.2980   -2.8110   20.9080 C   0  0  0  0  0  0  0  0  0  0  0  0
    5.4350   -3.2720   20.1500 O   0  0  0  0  0  0  0  0  0  0  0  0
    6.4840   -3.3440   22.1570 N   0  0  0  0  0  0  0  0  0  0  0  0
    8.4320    0.3260   20.9410 O   0  0  0  0  0  0  0  0  0  0  0  0
    8.4420   -1.3030   22.7420 C   0  0  0  0  0  0  0  0  0  0  0  0
   13.6990   -2.1040   20.7190 N   0  0  0  0  0  0  0  0  0  0  0  0
   13.0790   -1.6150   21.4970 C   0  0  0  0  0  0  0  0  0  0  0  0
    6.5140    0.0410   21.9320 N   0  0  0  0  0  0  0  0  0  0  0  0
    5.1590    0.3080   19.6050 C   0  0  0  0  0  0  0  0  0  0  0  0
    6.2130   -0.1430   18.8020 C   0  0  0  0  0  0  0  0  0  0  0  0
    6.3570    0.6160   17.7140 N   0  0  0  0  0  0  0  0  0  0  0  0
    5.3910    1.5840   17.8010 O   0  0  0  0  0  0  0  0  0  0  0  0
    4.6750    1.3950   18.9390 C   0  0  0  0  0  0  0  0  0  0  0  0
    6.4770   -5.6070   23.3400 C   0  0  0  0  0  0  0  0  0  0  0  0
    5.7810   -4.5420   22.5380 C   0  0  0  0  0  0  0  0  0  0  0  0
    6.1230   -5.8670   21.9060 C   0  0  0  0  0  0  0  0  0  0  0  0
   11.6060    0.4690   24.1160 N   0  0  0  0  0  0  0  0  0  0  0  0
   12.5270   -0.0970   23.3100 C   0  0  0  0  0  0  0  0  0  0  0  0
   12.1810   -1.0150   22.3510 C   0  0  0  0  0  0  0  0  0  0  0  0
   10.8700   -1.3980   22.1730 C   0  0  0  0  0  0  0  0  0  0  0  0
    9.8800   -0.8500   22.9700 C   0  0  0  0  0  0  0  0  0  0  0  0
   10.3070    0.0880   23.9380 C   0  0  0  0  0  0  0  0  0  0  0  0
  1  2  1  0
  2  3  1  0
  2  5  1  0
  5  6  2  0
  5  7  1  0
  1  8  1  0
  1  9  1  0
 10 11  3  0
  1 12  1  1
  3 14  1  0
 13 14  1  0
 14 15  2  0
 15 16  1  0
  4 17  1  0
 13 17  2  0
 16 17  1  0
  7 19  1  0
 18 19  1  0
 18 20  1  0
 19 20  1  0
 21 22  2  0
 11 23  1  0
 22 23  1  0
 23 24  2  0
  9 25  1  0
 24 25  1  0
 21 26  1  0
 25 26  2  0
M  END
