x0425-x0354
     RDKit          3D

 18 19  0  0  0  0  0  0  0  0999 V2000
   13.1080   -1.0580   22.4940 C   0  0  0  0  0  0  0  0  0  0  0  0
    7.6890   -2.1520   25.1120 O   0  0  0  0  0  0  0  0  0  0  0  0
    7.3500   -0.4690   27.4350 O   0  0  0  0  0  0  0  0  0  0  0  0
    8.5610   -1.3320   25.3890 C   0  0  0  0  0  0  0  0  0  0  0  0
    8.3020   -0.1880   26.4040 C   0  0  0  0  0  0  0  0  0  0  0  0
    5.6280    3.7150   30.8640 C   0  0  0  0  0  0  0  0  0  0  0  0
   12.3260   -1.2640   23.5820 N   0  0  0  0  0  0  0  0  0  0  0  0
   11.4060   -2.3740   23.3240 C   0  0  0  0  0  0  0  0  0  0  0  0
   10.5200   -2.6230   24.3690 C   0  0  0  0  0  0  0  0  0  0  0  0
    9.8370   -1.4050   24.8200 N   0  0  0  0  0  0  0  0  0  0  0  0
   10.7110   -0.2700   25.0230 C   0  0  0  0  0  0  0  0  0  0  0  0
   11.6200   -0.0520   24.0040 C   0  0  0  0  0  0  0  0  0  0  0  0
    7.6360    1.8010   28.2850 C   0  0  0  0  0  0  0  0  0  0  0  0
    7.1970    2.8190   29.1390 C   0  0  0  0  0  0  0  0  0  0  0  0
    6.1000    2.6210   29.9500 C   0  0  0  0  0  0  0  0  0  0  0  0
    5.4330    1.3900   29.9110 C   0  0  0  0  0  0  0  0  0  0  0  0
    5.8760    0.3710   29.0570 C   0  0  0  0  0  0  0  0  0  0  0  0
    6.9860    0.5790   28.2380 C   0  0  0  0  0  0  0  0  0  0  0  0
  2  4  2  0
  3  5  1  0
  4  5  1  0
  1  7  1  0
  7  8  1  0
  8  9  1  0
  4 10  1  0
  9 10  1  0
 10 11  1  0
  7 12  1  0
 11 12  1  0
 13 14  2  0
  6 15  1  0
 14 15  1  0
 15 16  2  0
 16 17  1  0
  3 18  1  0
 13 18  1  0
 17 18  2  0
M  END
