x0426-x1386
     RDKit          3D

 18 19  0  0  0  0  0  0  0  0999 V2000
    2.2990    1.7370   23.8250 C   0  0  0  0  0  0  0  0  0  0  0  0
    2.2030    0.3110   23.8190 O   0  0  0  0  0  0  0  0  0  0  0  0
    3.3480    2.4130   23.2290 N   0  0  0  0  0  0  0  0  0  0  0  0
    4.1870    1.7800   22.3030 C   0  0  0  0  0  0  0  0  0  0  0  0
    3.5770    1.3880   20.9770 C   0  0  0  0  0  0  0  0  0  0  0  0
    2.7430    4.4140   25.2360 F   0  0  0  0  0  0  0  0  0  0  0  0
    1.5130    3.8780   25.2030 C   0  0  0  0  0  0  0  0  0  0  0  0
    1.2360    2.5390   24.5060 C   0  0  0  0  0  0  0  0  0  0  0  0
   -0.0690    2.0470   24.5150 C   0  0  0  0  0  0  0  0  0  0  0  0
   -1.1770    2.8530   25.2120 C   0  0  0  0  0  0  0  0  0  0  0  0
   -0.8480    4.0710   25.8290 C   0  0  0  0  0  0  0  0  0  0  0  0
    0.4640    4.5710   25.8240 C   0  0  0  0  0  0  0  0  0  0  0  0
    5.6170    0.1090   20.1770 C   0  0  0  0  0  0  0  0  0  0  0  0
    6.5340   -0.1600   19.1630 C   0  0  0  0  0  0  0  0  0  0  0  0
    6.5030    0.4380   17.9570 N   0  0  0  0  0  0  0  0  0  0  0  0
    5.5310    1.3410   17.7460 C   0  0  0  0  0  0  0  0  0  0  0  0
    4.5700    1.6790   18.6910 C   0  0  0  0  0  0  0  0  0  0  0  0
    4.6080    1.0490   19.9340 C   0  0  0  0  0  0  0  0  0  0  0  0
  1  2  2  0
  1  3  1  0
  3  4  1  0
  4  5  1  0
  6  7  1  0
  1  8  1  0
  7  8  2  0
  8  9  1  0
  9 10  2  0
 10 11  1  0
  7 12  1  0
 11 12  2  0
 13 14  2  0
 14 15  1  0
 15 16  2  0
 16 17  1  0
  5 18  1  0
 13 18  1  0
 17 18  2  0
M  END
