x0426-x0770
     RDKit          3D

 38 42  0  0  0  0  0  0  0  0999 V2000
    2.2030    1.5630   24.0650 C   0  0  0  0  0  0  0  0  0  0  0  0
    1.9690    0.1790   24.2380 O   0  0  0  0  0  0  0  0  0  0  0  0
    3.3920    2.0530   23.3120 N   0  0  0  0  0  0  0  0  0  0  0  0
    3.9170    1.2880   22.2810 C   0  0  1  0  0  0  0  0  0  0  0  0
    4.1540    2.2020   21.0830 C   0  0  0  0  0  0  0  0  0  0  0  0
    2.8720    4.1080   25.1650 F   0  0  0  0  0  0  0  0  0  0  0  0
    7.2690   -2.9980   18.8870 C   0  0  0  0  0  0  0  0  0  0  0  0
    5.3750   -4.1290   19.7760 O   0  0  0  0  0  0  0  0  0  0  0  0
   13.3260   -1.8140   21.1650 Cl  0  0  0  0  0  0  0  0  0  0  0  0
    6.3760   -3.3940   20.0120 C   0  0  0  0  0  0  0  0  0  0  0  0
    9.2230   -2.2990   24.5070 C   0  0  0  0  0  0  0  0  0  0  0  0
    5.1490    0.4840   22.6140 C   0  0  0  0  0  0  0  0  0  0  0  0
    5.4470   -0.6900   21.8910 C   0  0  0  0  0  0  0  0  0  0  0  0
    6.5570   -1.4570   22.1770 C   0  0  1  0  0  0  0  0  0  0  0  0
    1.5920    3.7130   25.1690 C   0  0  0  0  0  0  0  0  0  0  0  0
    1.2140    2.5170   24.6570 C   0  0  0  0  0  0  0  0  0  0  0  0
   -0.1250    2.0960   24.6560 C   0  0  0  0  0  0  0  0  0  0  0  0
   -1.1130    2.9150   25.1940 C   0  0  0  0  0  0  0  0  0  0  0  0
   -0.7900    4.2320   25.7750 C   0  0  0  0  0  0  0  0  0  0  0  0
    0.6440    4.5790   25.7240 C   0  0  0  0  0  0  0  0  0  0  0  0
    6.0360    0.6760   20.2350 C   0  0  0  0  0  0  0  0  0  0  0  0
    6.7540    0.1450   19.1660 C   0  0  0  0  0  0  0  0  0  0  0  0
    6.4730    0.4700   17.8950 N   0  0  0  0  0  0  0  0  0  0  0  0
    5.4700    1.3320   17.7210 C   0  0  0  0  0  0  0  0  0  0  0  0
    4.7380    1.8760   18.7080 C   0  0  0  0  0  0  0  0  0  0  0  0
    4.9900    1.5700   20.0090 C   0  0  0  0  0  0  0  0  0  0  0  0
    6.7750   -2.9790   21.4270 C   0  0  2  0  0  0  0  0  0  0  0  0
    7.4730   -1.8970   21.4650 C   0  0  2  0  0  0  0  0  0  0  0  0
    7.8950   -1.3790   22.6970 C   0  0  0  0  0  0  0  0  0  0  0  0
    8.1960   -2.5000   23.6050 N   0  0  0  0  0  0  0  0  0  0  0  0
    8.1700   -3.7790   23.0290 C   0  0  0  0  0  0  0  0  0  0  0  0
    7.0320   -4.0390   22.2710 C   0  0  0  0  0  0  0  0  0  0  0  0
   10.7010   -0.2450   24.5320 C   0  0  0  0  0  0  0  0  0  0  0  0
   11.7760    0.5410   24.0810 C   0  0  0  0  0  0  0  0  0  0  0  0
   12.6330    0.1430   23.0620 C   0  0  0  0  0  0  0  0  0  0  0  0
   12.3770   -1.2010   22.4180 C   0  0  0  0  0  0  0  0  0  0  0  0
   11.1940   -1.9840   22.9610 C   0  0  0  0  0  0  0  0  0  0  0  0
   10.3990   -1.5010   23.9840 C   0  0  0  0  0  0  0  0  0  0  0  0
  1  2  2  0
  1  3  1  0
  3  4  1  0
  4  5  1  6
  7 10  1  0
  8 10  2  0
  4 12  1  0
 12 13  1  0
 14 13  1  6
  6 15  1  0
  1 16  1  0
 15 16  2  0
 16 17  1  0
 17 18  2  0
 18 19  1  0
 15 20  1  0
 19 20  2  0
 21 22  2  0
 22 23  1  0
 23 24  2  0
 24 25  1  0
  5 26  1  0
 21 26  1  0
 25 26  2  0
 27 10  1  6
 14 27  1  0
 14 28  1  0
 27 28  1  0
 28 29  1  1
 11 30  1  0
 29 30  1  0
 30 31  1  0
 27 32  1  0
 31 32  1  0
 33 34  2  0
 34 35  1  0
  9 36  1  0
 35 36  2  0
 36 37  1  0
 11 38  1  0
 33 38  1  0
 37 38  2  0
M  END
