x0426-x0104
     RDKit          3D

 38 41  0  0  0  0  0  0  0  0999 V2000
    8.7670    6.1640   22.8100 C   0  0  0  0  0  0  0  0  0  0  0  0
   10.1330    5.9360   23.4950 C   0  0  0  0  0  0  0  0  0  0  0  0
   10.2570    6.1030   24.7030 O   0  0  0  0  0  0  0  0  0  0  0  0
   11.1400    5.5490   22.6310 N   0  0  0  0  0  0  0  0  0  0  0  0
   12.3880    4.9700   23.1600 C   0  0  0  0  0  0  0  0  0  0  0  0
   12.6830    3.6180   22.5890 C   0  0  0  0  0  0  0  0  0  0  0  0
   13.5580   -2.0490   22.1830 F   0  0  0  0  0  0  0  0  0  0  0  0
    2.3570    1.7180   23.9220 C   0  0  0  0  0  0  0  0  0  0  0  0
    2.2420    0.4890   23.8070 O   0  0  0  0  0  0  0  0  0  0  0  0
    3.4620    2.4180   23.4670 N   0  0  0  0  0  0  0  0  0  0  0  0
    4.4300    1.7770   22.5680 C   0  0  1  0  0  0  0  0  0  0  0  0
    3.8130    1.7530   21.1740 C   0  0  0  0  0  0  0  0  0  0  0  0
    2.7910    4.2330   25.2220 F   0  0  0  0  0  0  0  0  0  0  0  0
    8.0690    4.8480   22.2630 C   0  0  0  0  0  0  0  0  0  0  0  0
    7.0160    4.3440   23.0060 C   0  0  0  0  0  0  0  0  0  0  0  0
    5.9330    3.7650   22.3100 C   0  0  0  0  0  0  0  0  0  0  0  0
    5.8420    2.4430   22.6400 C   0  0  0  0  0  0  0  0  0  0  0  0
   11.8030    2.5100   23.1250 C   0  0  0  0  0  0  0  0  0  0  0  0
   10.6090    2.7320   23.7890 C   0  0  0  0  0  0  0  0  0  0  0  0
    9.9640    1.6010   24.1780 N   0  0  0  0  0  0  0  0  0  0  0  0
   10.7150    0.5660   23.7750 C   0  0  0  0  0  0  0  0  0  0  0  0
   11.9370    1.0610   23.0860 C   0  0  0  0  0  0  0  0  0  0  0  0
   10.6070   -0.8070   23.8530 C   0  0  0  0  0  0  0  0  0  0  0  0
   11.5700   -1.6330   23.3120 C   0  0  0  0  0  0  0  0  0  0  0  0
   12.7010   -1.1730   22.6740 C   0  0  0  0  0  0  0  0  0  0  0  0
   12.8990    0.1670   22.5670 C   0  0  0  0  0  0  0  0  0  0  0  0
    1.5490    3.7200   25.1940 C   0  0  0  0  0  0  0  0  0  0  0  0
    1.2810    2.5080   24.5790 C   0  0  0  0  0  0  0  0  0  0  0  0
   -0.0210    2.0040   24.5680 C   0  0  0  0  0  0  0  0  0  0  0  0
   -1.0440    2.7340   25.1820 C   0  0  0  0  0  0  0  0  0  0  0  0
   -0.7810    3.9620   25.8080 C   0  0  0  0  0  0  0  0  0  0  0  0
    0.5310    4.4580   25.8120 C   0  0  0  0  0  0  0  0  0  0  0  0
    5.6450    0.2010   20.3730 C   0  0  0  0  0  0  0  0  0  0  0  0
    6.4930   -0.2620   19.3590 C   0  0  0  0  0  0  0  0  0  0  0  0
    6.5200    0.2110   18.0940 N   0  0  0  0  0  0  0  0  0  0  0  0
    5.6740    1.2000   17.7800 C   0  0  0  0  0  0  0  0  0  0  0  0
    4.6940    1.8280   18.7150 C   0  0  0  0  0  0  0  0  0  0  0  0
    4.7310    1.2350   20.1140 C   0  0  0  0  0  0  0  0  0  0  0  0
  1  2  1  0
  2  3  2  0
  2  4  1  0
  4  5  1  0
  5  6  1  0
  8  9  2  0
  8 10  1  0
 10 11  1  0
 11 12  1  6
  1 14  1  0
 14 15  1  0
 15 16  1  0
 11 17  1  0
 16 17  1  0
  6 18  1  0
 18 19  2  0
 19 20  1  0
 20 21  1  0
 18 22  1  0
 21 22  2  0
 21 23  1  0
 23 24  2  0
  7 25  1  0
 24 25  1  0
 22 26  1  0
 25 26  2  0
 13 27  1  0
  8 28  1  0
 27 28  2  0
 28 29  1  0
 29 30  2  0
 30 31  1  0
 27 32  1  0
 31 32  2  0
 33 34  2  0
 34 35  1  0
 35 36  2  0
 36 37  1  0
 12 38  1  0
 33 38  1  0
 37 38  2  0
M  END
