x0426-x1380
     RDKit          3D

 38 41  0  0  0  0  0  0  0  0999 V2000
    2.2770    2.0040   23.9550 C   0  0  0  0  0  0  0  0  0  0  0  0
    2.2880    0.5610   24.2640 N   0  0  0  0  0  0  0  0  0  0  0  0
    3.3020    2.6820   23.1390 N   0  0  0  0  0  0  0  0  0  0  0  0
    4.3020    1.9730   22.3360 C   0  0  0  0  0  0  0  0  0  0  0  0
    3.6540    1.2850   21.1160 C   0  0  0  0  0  0  0  0  0  0  0  0
    2.6780    4.3910   25.2400 F   0  0  0  0  0  0  0  0  0  0  0  0
    6.9900   -3.3310   19.3920 C   0  0  0  0  0  0  0  0  0  0  0  0
    5.2980   -4.8780   19.9760 O   0  0  0  0  0  0  0  0  0  0  0  0
    6.2280   -4.1480   20.3690 C   0  0  0  0  0  0  0  0  0  0  0  0
    5.0730   -2.6050   25.8210 N   0  0  0  0  0  0  0  0  0  0  0  0
    6.3190   -3.3220   25.6240 C   0  0  0  0  0  0  0  0  0  0  0  0
    3.3930   -0.3250   23.7830 C   0  0  0  0  0  0  0  0  0  0  0  0
    3.4910   -1.2210   24.8260 C   0  0  0  0  0  0  0  0  0  0  0  0
    4.1650   -2.3910   24.6870 C   0  0  0  0  0  0  0  0  0  0  0  0
    1.4260    3.9090   25.1940 C   0  0  0  0  0  0  0  0  0  0  0  0
    1.1560    2.7460   24.5760 C   0  0  0  0  0  0  0  0  0  0  0  0
   -0.1350    2.2010   24.5050 C   0  0  0  0  0  0  0  0  0  0  0  0
   -1.1910    2.8870   25.0980 C   0  0  0  0  0  0  0  0  0  0  0  0
   -0.9860    4.1720   25.7980 C   0  0  0  0  0  0  0  0  0  0  0  0
    0.4130    4.6420   25.8060 C   0  0  0  0  0  0  0  0  0  0  0  0
    5.7030    0.0720   20.2060 C   0  0  0  0  0  0  0  0  0  0  0  0
    6.5920   -0.1620   19.1550 C   0  0  0  0  0  0  0  0  0  0  0  0
    6.5000    0.4440   17.9540 N   0  0  0  0  0  0  0  0  0  0  0  0
    5.4860    1.3110   17.8150 C   0  0  0  0  0  0  0  0  0  0  0  0
    4.5820    1.5900   18.7940 C   0  0  0  0  0  0  0  0  0  0  0  0
    4.6580    0.9770   20.0300 C   0  0  0  0  0  0  0  0  0  0  0  0
    6.6070   -4.1170   21.6990 N   0  0  0  0  0  0  0  0  0  0  0  0
    6.3690   -5.2000   22.4520 C   0  0  0  0  0  0  0  0  0  0  0  0
    5.8810   -4.7290   23.6770 C   0  0  0  0  0  0  0  0  0  0  0  0
    6.8470   -3.9100   24.2880 C   0  0  0  0  0  0  0  0  0  0  0  0
    7.2140   -2.7710   23.5560 C   0  0  0  0  0  0  0  0  0  0  0  0
    7.5130   -3.1100   22.2390 C   0  0  0  0  0  0  0  0  0  0  0  0
    8.1940   -4.3930   26.7820 C   0  0  0  0  0  0  0  0  0  0  0  0
    7.8400   -5.5830   27.4060 C   0  0  0  0  0  0  0  0  0  0  0  0
    7.2770   -5.5100   28.6730 C   0  0  0  0  0  0  0  0  0  0  0  0
    5.9560   -4.7810   28.5430 C   0  0  0  0  0  0  0  0  0  0  0  0
    6.2390   -3.3790   28.0230 C   0  0  0  0  0  0  0  0  0  0  0  0
    7.0540   -3.4400   26.7790 N   0  0  0  0  0  0  0  0  0  0  0  0
  1  2  2  3
  1  3  1  0
  3  4  1  0
  4  5  1  0
  7  9  1  0
  8  9  2  0
 10 11  2  3
  2 12  1  0
 12 13  1  0
 10 14  1  0
 13 14  1  0
  6 15  1  0
  1 16  1  0
 15 16  2  0
 16 17  1  0
 17 18  2  0
 18 19  1  0
 15 20  1  0
 19 20  2  0
 21 22  2  0
 22 23  1  0
 23 24  2  0
 24 25  1  0
  5 26  1  0
 21 26  1  0
 25 26  2  0
  9 27  1  0
 27 28  1  0
 28 29  1  0
 11 30  1  0
 29 30  1  0
 30 31  1  0
 27 32  1  0
 31 32  1  0
 33 34  1  0
 34 35  1  0
 35 36  1  0
 36 37  1  0
 11 38  1  0
 33 38  1  0
 37 38  1  0
M  END
