x0426-x2569
     RDKit          3D

 30 32  0  0  0  0  0  0  0  0999 V2000
    2.4160    1.8920   23.7950 C   0  0  0  0  0  0  0  0  0  0  0  0
    2.2140    0.4770   23.7970 O   0  0  0  0  0  0  0  0  0  0  0  0
    3.4800    2.5780   23.2330 N   0  0  0  0  0  0  0  0  0  0  0  0
    4.4880    1.9510   22.5240 C   0  0  0  0  0  0  0  0  0  0  0  0
    3.9530    1.1150   21.3820 C   0  0  0  0  0  0  0  0  0  0  0  0
    2.7430    4.3830   25.2610 F   0  0  0  0  0  0  0  0  0  0  0  0
    8.0120    0.3090   21.7090 C   0  0  0  0  0  0  0  0  0  0  0  0
    8.7030    1.1930   21.1560 O   0  0  0  0  0  0  0  0  0  0  0  0
    8.5460   -0.4500   22.9420 C   0  0  0  0  0  0  0  0  0  0  0  0
   13.6020   -2.7660   20.6780 N   0  0  0  0  0  0  0  0  0  0  0  0
    6.7270   -0.1010   21.3320 N   0  0  0  0  0  0  0  0  0  0  0  0
   12.9550   -1.8520   21.5740 C   0  0  0  0  0  0  0  0  0  0  0  0
    1.5210    3.8270   25.2150 C   0  0  0  0  0  0  0  0  0  0  0  0
    1.2960    2.6360   24.5330 C   0  0  0  0  0  0  0  0  0  0  0  0
    0.0070    2.0990   24.5180 C   0  0  0  0  0  0  0  0  0  0  0  0
   -1.0380    2.7430   25.1760 C   0  0  0  0  0  0  0  0  0  0  0  0
   -0.8020    3.9400   25.8580 C   0  0  0  0  0  0  0  0  0  0  0  0
    0.4790    4.4800   25.8780 C   0  0  0  0  0  0  0  0  0  0  0  0
    6.1380    0.3390   20.2100 C   0  0  0  0  0  0  0  0  0  0  0  0
    6.8210    0.2150   19.0160 C   0  0  0  0  0  0  0  0  0  0  0  0
    6.3820    0.6370   17.8240 N   0  0  0  0  0  0  0  0  0  0  0  0
    5.1880    1.2200   17.8080 C   0  0  0  0  0  0  0  0  0  0  0  0
    4.3930    1.3840   18.9320 C   0  0  0  0  0  0  0  0  0  0  0  0
    4.8560    0.9330   20.1780 C   0  0  0  0  0  0  0  0  0  0  0  0
   11.9920    0.6470   24.0950 N   0  0  0  0  0  0  0  0  0  0  0  0
   12.7560   -0.1360   23.3040 C   0  0  0  0  0  0  0  0  0  0  0  0
   12.2020   -1.0320   22.3960 C   0  0  0  0  0  0  0  0  0  0  0  0
   10.8360   -1.1300   22.2840 C   0  0  0  0  0  0  0  0  0  0  0  0
   10.0350   -0.3450   23.0700 C   0  0  0  0  0  0  0  0  0  0  0  0
   10.6480    0.5290   23.9630 C   0  0  0  0  0  0  0  0  0  0  0  0
  1  2  2  0
  1  3  1  0
  3  4  1  0
  4  5  1  0
  7  8  2  0
  7  9  1  0
  7 11  1  0
 10 12  3  0
  6 13  1  0
  1 14  1  0
 13 14  2  0
 14 15  1  0
 15 16  2  0
 16 17  1  0
 13 18  1  0
 17 18  2  0
 11 19  1  0
 19 20  2  0
 20 21  1  0
 21 22  2  0
 22 23  1  0
  5 24  1  0
 19 24  1  0
 23 24  2  0
 25 26  2  0
 12 27  1  0
 26 27  1  0
 27 28  2  0
  9 29  1  0
 28 29  1  0
 25 30  1  0
 29 30  2  0
M  END
