x0425-x0336
     RDKit          3D

 37 41  0  0  0  0  0  0  0  0999 V2000
    5.4370  -30.1600   10.7330 C   0  0  0  0  0  0  0  0  0  0  0  0
    4.8300  -29.7060    9.3990 C   0  0  0  0  0  0  0  0  0  0  0  0
    4.7190  -30.6690    8.6410 O   0  0  0  0  0  0  0  0  0  0  0  0
    4.4590  -28.3010    9.1540 N   0  0  0  0  0  0  0  0  0  0  0  0
    4.9350  -27.2320    9.9360 C   0  0  0  0  0  0  0  0  0  0  0  0
    1.5880  -22.2180    8.8850 S   0  0  0  0  0  0  0  0  0  0  0  0
    2.0720  -21.0840    9.6300 O   0  0  0  0  0  0  0  0  0  0  0  0
    0.1910  -22.5300    9.1110 O   0  0  0  0  0  0  0  0  0  0  0  0
    1.7510  -22.0500    7.1320 N   0  0  0  0  0  0  0  0  0  0  0  0
    1.8170  -20.8760    6.3220 C   0  0  0  0  0  0  0  0  0  0  0  0
    1.0070  -21.0760    5.0300 C   0  0  0  0  0  0  0  0  0  0  0  0
    1.4330  -20.3190    3.6720 C   0  0  0  0  0  0  0  0  0  0  0  0
    1.4480  -21.2140    2.3650 C   0  0  0  0  0  0  0  0  0  0  0  0
    2.3450  -21.1010    1.2040 C   0  0  0  0  0  0  0  0  0  0  0  0
    3.4080  -20.2750    0.8080 C   0  0  0  0  0  0  0  0  0  0  0  0
    4.6350  -20.7710    0.2140 C   0  0  1  0  0  0  0  0  0  0  0  0
    4.1420  -26.0520    9.7620 C   0  0  0  0  0  0  0  0  0  0  0  0
    4.0280  -25.5060    8.5370 C   0  0  0  0  0  0  0  0  0  0  0  0
    3.2870  -24.3690    8.2670 C   0  0  0  0  0  0  0  0  0  0  0  0
    2.5490  -23.6690    9.2900 C   0  0  0  0  0  0  0  0  0  0  0  0
    2.6810  -24.2720   10.6280 C   0  0  0  0  0  0  0  0  0  0  0  0
    3.4670  -25.4100   10.7930 C   0  0  0  0  0  0  0  0  0  0  0  0
    2.1170  -25.0700    0.5060 C   0  0  0  0  0  0  0  0  0  0  0  0
    3.5210  -25.4750    0.4620 N   0  0  0  0  0  0  0  0  0  0  0  0
    4.3580  -24.4770    0.1190 C   0  0  0  0  0  0  0  0  0  0  0  0
    3.9500  -23.1840   -0.1710 C   0  0  0  0  0  0  0  0  0  0  0  0
    2.6850  -22.8590   -0.1280 N   0  0  0  0  0  0  0  0  0  0  0  0
    1.7470  -23.7870    0.2120 C   0  0  0  0  0  0  0  0  0  0  0  0
    6.2160  -22.6120   -0.9590 C   0  0  0  0  0  0  0  0  0  0  0  0
    4.9490  -22.0960   -0.5350 C   0  0  2  0  0  0  0  0  0  0  0  0
    4.7580  -20.8910   -1.2600 C   0  0  2  0  0  0  0  0  0  0  0  0
    5.9540  -20.5400   -1.8790 C   0  0  2  0  0  0  0  0  0  0  0  0
    6.8650  -21.5490   -1.5980 C   0  0  0  0  0  0  0  0  0  0  0  0
    6.4770  -19.1720   -1.4970 C   0  0  0  0  0  0  0  0  0  0  0  0
    5.7470  -20.3470   -3.3860 C   0  0  0  0  0  0  0  0  0  0  0  0
    6.7350  -19.3960   -3.8200 O   0  0  0  0  0  0  0  0  0  0  0  0
    7.4220  -18.9320   -2.6520 C   0  0  0  0  0  0  0  0  0  0  0  0
  1  2  1  0
  2  3  2  0
  2  4  1  0
  4  5  1  0
  6  7  2  0
  6  8  2  0
  6  9  1  0
  9 10  1  0
 10 11  1  0
 11 12  1  0
 12 13  1  0
 13 14  1  0
 14 15  1  0
 16 15  1  6
  5 17  1  0
 17 18  2  0
 18 19  1  0
  6 20  1  0
 19 20  2  0
 20 21  1  0
 17 22  1  0
 21 22  2  0
 23 24  2  0
 24 25  1  0
 25 26  2  0
 26 27  1  0
 23 28  1  0
 27 28  2  0
 16 30  1  0
 30 26  1  6
 29 30  1  0
 16 31  1  0
 30 31  1  0
 31 32  1  1
 29 33  1  0
 32 33  1  6
 32 34  1  0
 32 35  1  0
 35 36  1  0
 34 37  1  0
 36 37  1  0
M  END
