x0425-x1478
     RDKit          3D

 11 11  0  0  0  0  0  0  0  0999 V2000
    7.1920   -2.9230   21.3140 N   0  0  0  0  0  0  0  0  0  0  0  0
    7.4920   -1.7110   19.2610 C   0  0  0  0  0  0  0  0  0  0  0  0
    5.6520   -3.1600   19.5650 O   0  0  0  0  0  0  0  0  0  0  0  0
    6.4490   -5.9500   21.9810 Cl  0  0  0  0  0  0  0  0  0  0  0  0
    6.6670   -2.6730   20.0600 C   0  0  0  0  0  0  0  0  0  0  0  0
    4.8770   -4.7230   23.8190 N   0  0  0  0  0  0  0  0  0  0  0  0
    5.8570   -4.5190   22.7320 C   0  0  0  0  0  0  0  0  0  0  0  0
    6.2450   -3.2150   22.3760 C   0  0  0  0  0  0  0  0  0  0  0  0
    5.6870   -1.9880   23.0860 C   0  0  0  0  0  0  0  0  0  0  0  0
    4.7680   -2.1460   24.1100 C   0  0  0  0  0  0  0  0  0  0  0  0
    4.3170   -3.5590   24.5260 C   0  0  0  0  0  0  0  0  0  0  0  0
  1  5  1  0
  2  5  1  0
  3  5  2  0
  4  7  1  0
  6  7  2  0
  1  8  1  0
  7  8  1  0
  8  9  2  0
  9 10  1  0
  6 11  1  0
 10 11  2  0
M  END
