x0426-x1458
     RDKit          3D

 37 39  0  0  0  0  0  0  0  0999 V2000
    6.7160   -3.6400   25.9680 N   0  0  0  0  0  0  0  0  0  0  0  0
    8.6630   -4.8140   26.8970 C   0  0  0  0  0  0  0  0  0  0  0  0
    4.9670   -2.7880   26.1850 N   0  0  0  0  0  0  0  0  0  0  0  0
    7.2270   -4.8900   26.3360 C   0  0  0  0  0  0  0  0  0  0  0  0
    5.3400   -4.7340   19.9550 O   0  0  0  0  0  0  0  0  0  0  0  0
    6.3550   -5.5410   27.4270 C   0  0  0  0  0  0  0  0  0  0  0  0
    7.2960   -2.4700   26.5550 C   0  0  0  0  0  0  0  0  0  0  0  0
    5.8250   -3.3780   25.2560 C   0  0  0  0  0  0  0  0  0  0  0  0
    6.4250   -4.2170   20.2960 C   0  0  0  0  0  0  0  0  0  0  0  0
    7.1870   -3.3350   19.3770 C   0  0  0  0  0  0  0  0  0  0  0  0
    2.5470    1.9120   24.0990 C   0  0  0  0  0  0  0  0  0  0  0  0
    2.8060    0.5800   24.7380 N   0  0  0  0  0  0  0  0  0  0  0  0
    3.3990    2.5930   23.0540 N   0  0  0  0  0  0  0  0  0  0  0  0
    4.2980    1.7330   22.2590 C   0  0  0  0  0  0  0  0  0  0  0  0
    3.6370    1.1740   21.1690 C   0  0  0  0  0  0  0  0  0  0  0  0
    2.6610    4.4340   25.3420 F   0  0  0  0  0  0  0  0  0  0  0  0
    3.6590   -2.1790   25.8650 C   0  0  0  0  0  0  0  0  0  0  0  0
    3.5470   -1.5320   24.6060 C   0  0  0  0  0  0  0  0  0  0  0  0
    3.8840   -0.1950   24.4680 C   0  0  0  0  0  0  0  0  0  0  0  0
    6.9930   -4.4920   21.5330 N   0  0  0  0  0  0  0  0  0  0  0  0
    7.7910   -3.6250   22.1910 C   0  0  0  0  0  0  0  0  0  0  0  0
    7.5970   -3.4040   23.6100 C   0  0  0  0  0  0  0  0  0  0  0  0
    6.3310   -3.8520   23.9620 C   0  0  0  0  0  0  0  0  0  0  0  0
    6.0490   -5.1730   23.5810 C   0  0  0  0  0  0  0  0  0  0  0  0
    6.4850   -5.4930   22.2750 C   0  0  0  0  0  0  0  0  0  0  0  0
    1.4590    3.8400   25.2480 C   0  0  0  0  0  0  0  0  0  0  0  0
    1.3340    2.6020   24.6440 C   0  0  0  0  0  0  0  0  0  0  0  0
    0.0710    2.0260   24.5680 C   0  0  0  0  0  0  0  0  0  0  0  0
   -1.0550    2.6790   25.0930 C   0  0  0  0  0  0  0  0  0  0  0  0
   -0.9050    3.9240   25.7000 C   0  0  0  0  0  0  0  0  0  0  0  0
    0.3570    4.5190   25.7830 C   0  0  0  0  0  0  0  0  0  0  0  0
    5.6930   -0.0080   20.2940 C   0  0  0  0  0  0  0  0  0  0  0  0
    6.6000   -0.2320   19.2680 C   0  0  0  0  0  0  0  0  0  0  0  0
    6.5010    0.4490   17.9770 N   0  0  0  0  0  0  0  0  0  0  0  0
    5.4920    1.3210   17.8070 C   0  0  0  0  0  0  0  0  0  0  0  0
    4.5090    1.6450   18.7480 C   0  0  0  0  0  0  0  0  0  0  0  0
    4.6480    0.9060   20.0780 C   0  0  0  0  0  0  0  0  0  0  0  0
  1  4  1  0
  2  4  1  0
  4  6  1  0
  1  7  1  0
  1  8  1  0
  3  8  2  3
  5  9  2  0
  9 10  1  0
 11 12  2  3
 11 13  1  0
 13 14  1  0
 14 15  1  0
  3 17  1  0
 17 18  1  0
 12 19  1  0
 18 19  1  0
  9 20  1  0
 20 21  1  0
 21 22  1  0
  8 23  1  0
 22 23  1  0
 23 24  1  0
 20 25  1  0
 24 25  1  0
 16 26  1  0
 11 27  1  0
 26 27  2  0
 27 28  1  0
 28 29  2  0
 29 30  1  0
 26 31  1  0
 30 31  2  0
 32 33  2  0
 33 34  1  0
 34 35  2  0
 35 36  1  0
 15 37  1  0
 32 37  1  0
 36 37  2  0
M  END
