x0426-x0350
     RDKit          3D

 18 19  0  0  0  0  0  0  0  0999 V2000
    2.2960    1.7330   23.8460 C   0  0  0  0  0  0  0  0  0  0  0  0
    2.2020    0.3080   23.8470 O   0  0  0  0  0  0  0  0  0  0  0  0
    3.3440    2.4100   23.2470 N   0  0  0  0  0  0  0  0  0  0  0  0
    4.1840    1.7790   22.3170 C   0  0  0  0  0  0  0  0  0  0  0  0
    3.5760    1.4010   20.9860 C   0  0  0  0  0  0  0  0  0  0  0  0
    2.7380    4.4140   25.2530 F   0  0  0  0  0  0  0  0  0  0  0  0
    1.5070    3.8820   25.2160 C   0  0  0  0  0  0  0  0  0  0  0  0
    1.2310    2.5400   24.5230 C   0  0  0  0  0  0  0  0  0  0  0  0
   -0.0750    2.0510   24.5270 C   0  0  0  0  0  0  0  0  0  0  0  0
   -1.1840    2.8610   25.2180 C   0  0  0  0  0  0  0  0  0  0  0  0
   -0.8560    4.0800   25.8310 C   0  0  0  0  0  0  0  0  0  0  0  0
    0.4560    4.5790   25.8310 C   0  0  0  0  0  0  0  0  0  0  0  0
    5.6000    0.0810   20.1900 C   0  0  0  0  0  0  0  0  0  0  0  0
    6.5150   -0.2010   19.1730 C   0  0  0  0  0  0  0  0  0  0  0  0
    6.4950    0.4020   17.9680 N   0  0  0  0  0  0  0  0  0  0  0  0
    5.5380    1.3190   17.7570 C   0  0  0  0  0  0  0  0  0  0  0  0
    4.5800    1.6700   18.7050 C   0  0  0  0  0  0  0  0  0  0  0  0
    4.6070    1.0400   19.9470 C   0  0  0  0  0  0  0  0  0  0  0  0
  1  2  2  0
  1  3  1  0
  3  4  1  0
  4  5  1  0
  6  7  1  0
  1  8  1  0
  7  8  2  0
  8  9  1  0
  9 10  2  0
 10 11  1  0
  7 12  1  0
 11 12  2  0
 13 14  2  0
 14 15  1  0
 15 16  2  0
 16 17  1  0
  5 18  1  0
 13 18  1  0
 17 18  2  0
M  END
