x0426-x0669
     RDKit          3D

 18 19  0  0  0  0  0  0  0  0999 V2000
    2.3020    1.7380   23.8500 C   0  0  0  0  0  0  0  0  0  0  0  0
    2.2080    0.3120   23.8440 O   0  0  0  0  0  0  0  0  0  0  0  0
    3.3470    2.4160   23.2570 N   0  0  0  0  0  0  0  0  0  0  0  0
    4.1840    1.7820   22.3280 C   0  0  0  0  0  0  0  0  0  0  0  0
    3.5700    1.3710   21.0100 C   0  0  0  0  0  0  0  0  0  0  0  0
    2.7400    4.4210   25.2480 F   0  0  0  0  0  0  0  0  0  0  0  0
    1.5100    3.8840   25.2110 C   0  0  0  0  0  0  0  0  0  0  0  0
    1.2360    2.5420   24.5230 C   0  0  0  0  0  0  0  0  0  0  0  0
   -0.0670    2.0480   24.5250 C   0  0  0  0  0  0  0  0  0  0  0  0
   -1.1780    2.8570   25.2120 C   0  0  0  0  0  0  0  0  0  0  0  0
   -0.8540    4.0780   25.8230 C   0  0  0  0  0  0  0  0  0  0  0  0
    0.4560    4.5800   25.8230 C   0  0  0  0  0  0  0  0  0  0  0  0
    5.5980    0.0660   20.2020 C   0  0  0  0  0  0  0  0  0  0  0  0
    6.5140   -0.2000   19.1830 C   0  0  0  0  0  0  0  0  0  0  0  0
    6.4900    0.4150   17.9840 N   0  0  0  0  0  0  0  0  0  0  0  0
    5.5290    1.3300   17.7860 C   0  0  0  0  0  0  0  0  0  0  0  0
    4.5730    1.6670   18.7350 C   0  0  0  0  0  0  0  0  0  0  0  0
    4.6020    1.0240   19.9680 C   0  0  0  0  0  0  0  0  0  0  0  0
  1  2  2  0
  1  3  1  0
  3  4  1  0
  4  5  1  0
  6  7  1  0
  1  8  1  0
  7  8  2  0
  8  9  1  0
  9 10  2  0
 10 11  1  0
  7 12  1  0
 11 12  2  0
 13 14  2  0
 14 15  1  0
 15 16  2  0
 16 17  1  0
  5 18  1  0
 13 18  1  0
 17 18  2  0
M  END
