x0426-x0749
     RDKit          3D

 18 19  0  0  0  0  0  0  0  0999 V2000
    2.3070    1.7450   23.8390 C   0  0  0  0  0  0  0  0  0  0  0  0
    2.2110    0.3180   23.8300 O   0  0  0  0  0  0  0  0  0  0  0  0
    3.3580    2.4200   23.2470 N   0  0  0  0  0  0  0  0  0  0  0  0
    4.1960    1.7880   22.3200 C   0  0  0  0  0  0  0  0  0  0  0  0
    3.5730    1.3570   21.0140 C   0  0  0  0  0  0  0  0  0  0  0  0
    2.7430    4.4240   25.2480 F   0  0  0  0  0  0  0  0  0  0  0  0
    1.5130    3.8870   25.2090 C   0  0  0  0  0  0  0  0  0  0  0  0
    1.2400    2.5460   24.5150 C   0  0  0  0  0  0  0  0  0  0  0  0
   -0.0630    2.0480   24.5190 C   0  0  0  0  0  0  0  0  0  0  0  0
   -1.1740    2.8530   25.2130 C   0  0  0  0  0  0  0  0  0  0  0  0
   -0.8520    4.0740   25.8280 C   0  0  0  0  0  0  0  0  0  0  0  0
    0.4590    4.5780   25.8260 C   0  0  0  0  0  0  0  0  0  0  0  0
    5.6020    0.0730   20.2030 C   0  0  0  0  0  0  0  0  0  0  0  0
    6.5150   -0.1920   19.1850 C   0  0  0  0  0  0  0  0  0  0  0  0
    6.4800    0.4130   17.9820 N   0  0  0  0  0  0  0  0  0  0  0  0
    5.5090    1.3210   17.7840 C   0  0  0  0  0  0  0  0  0  0  0  0
    4.5540    1.6560   18.7340 C   0  0  0  0  0  0  0  0  0  0  0  0
    4.5980    1.0190   19.9710 C   0  0  0  0  0  0  0  0  0  0  0  0
  1  2  2  0
  1  3  1  0
  3  4  1  0
  4  5  1  0
  6  7  1  0
  1  8  1  0
  7  8  2  0
  8  9  1  0
  9 10  2  0
 10 11  1  0
  7 12  1  0
 11 12  2  0
 13 14  2  0
 14 15  1  0
 15 16  2  0
 16 17  1  0
  5 18  1  0
 13 18  1  0
 17 18  2  0
M  END
