x0426-x2910
     RDKit          3D

 37 43  0  0  0  0  0  0  0  0999 V2000
    7.0850   -1.4440   21.6360 N   0  0  0  0  0  0  0  0  0  0  0  0
   10.1910    2.6570   23.6790 C   0  0  0  0  0  0  0  0  0  0  0  0
   10.0110    1.2530   23.5690 O   0  0  0  0  0  0  0  0  0  0  0  0
    9.5320   -1.1480   22.8020 O   0  0  0  0  0  0  0  0  0  0  0  0
    5.2300   -2.6450   20.7460 O   0  0  0  0  0  0  0  0  0  0  0  0
    6.3770    1.2490   16.7930 O   0  0  0  0  0  0  0  0  0  0  0  0
    9.1950   -2.4330   22.3090 C   0  0  0  0  0  0  0  0  0  0  0  0
    7.6700   -2.5710   22.3630 C   0  0  0  0  0  0  0  0  0  0  0  0
    5.9000   -1.6140   20.7820 C   0  0  0  0  0  0  0  0  0  0  0  0
    2.3510    1.7250   24.2810 C   0  0  0  0  0  0  0  0  0  0  0  0
    3.2640    1.4850   25.0320 O   0  0  0  0  0  0  0  0  0  0  0  0
    2.2320    1.2380   23.0240 N   0  0  0  0  0  0  0  0  0  0  0  0
    3.2030    0.3600   22.6170 C   0  0  0  0  0  0  0  0  0  0  0  0
    3.0530    1.5790   21.3990 C   0  0  0  0  0  0  0  0  0  0  0  0
    2.7530    4.3030   25.3390 F   0  0  0  0  0  0  0  0  0  0  0  0
   11.0860    0.5340   23.1210 C   0  0  0  0  0  0  0  0  0  0  0  0
   10.8250   -0.7510   22.7130 C   0  0  0  0  0  0  0  0  0  0  0  0
   11.8650   -1.5290   22.2540 C   0  0  0  0  0  0  0  0  0  0  0  0
   13.0990   -1.0480   22.1980 C   0  0  0  0  0  0  0  0  0  0  0  0
   13.4120    0.2540   22.5960 C   0  0  0  0  0  0  0  0  0  0  0  0
   12.3810    1.0360   23.0630 C   0  0  0  0  0  0  0  0  0  0  0  0
    4.8320    1.8290   18.4240 N   0  0  0  0  0  0  0  0  0  0  0  0
    4.2270    1.6120   19.5840 C   0  0  0  0  0  0  0  0  0  0  0  0
    4.5810    0.5090   20.3390 C   0  0  0  0  0  0  0  0  0  0  0  0
    5.5600   -0.4030   19.9130 C   0  0  0  0  0  0  0  0  0  0  0  0
    6.2030   -0.1970   18.7110 C   0  0  0  0  0  0  0  0  0  0  0  0
    5.8440    0.9190   17.9650 C   0  0  0  0  0  0  0  0  0  0  0  0
    3.3090    2.3520   20.0970 C   0  0  0  0  0  0  0  0  0  0  0  0
    2.4530    2.5830   21.1160 C   0  0  0  0  0  0  0  0  0  0  0  0
    2.8270    1.5280   21.8000 C   0  0  0  0  0  0  0  0  0  0  0  0
    3.9050    0.3450   21.5650 C   0  0  0  0  0  0  0  0  0  0  0  0
    1.5100    3.8160   25.2610 C   0  0  0  0  0  0  0  0  0  0  0  0
    1.2640    2.5400   24.7370 C   0  0  0  0  0  0  0  0  0  0  0  0
   -0.0520    2.0660   24.6700 C   0  0  0  0  0  0  0  0  0  0  0  0
   -1.1080    2.8590   25.1260 C   0  0  0  0  0  0  0  0  0  0  0  0
   -0.8550    4.1270   25.6490 C   0  0  0  0  0  0  0  0  0  0  0  0
    0.4580    4.6150   25.7200 C   0  0  0  0  0  0  0  0  0  0  0  0
  2  3  1  0
  4  7  1  0
  1  8  1  0
  7  8  1  0
  1  9  1  0
  5  9  2  0
 10 11  2  0
 10 12  1  0
 12 13  1  0
 13 14  1  0
  3 16  1  0
  4 17  1  0
 16 17  2  0
 17 18  1  0
 18 19  2  0
 19 20  1  0
 16 21  1  0
 20 21  2  0
 22 23  2  0
 23 24  1  0
  9 25  1  0
 24 25  2  0
 25 26  1  0
  6 27  1  0
 22 27  1  0
 26 27  2  0
 14 28  2  0
 23 28  1  0
 14 29  1  0
 28 29  1  0
 12 30  1  0
 29 30  2  0
 13 31  2  0
 24 31  1  0
 30 31  1  0
 15 32  1  0
 10 33  1  0
 32 33  2  0
 33 34  1  0
 34 35  2  0
 35 36  1  0
 32 37  1  0
 36 37  2  0
M  END
