x0426-x0194
     RDKit          3D

 18 19  0  0  0  0  0  0  0  0999 V2000
    2.3070    1.7400   23.8250 C   0  0  0  0  0  0  0  0  0  0  0  0
    2.2190    0.3150   23.8280 O   0  0  0  0  0  0  0  0  0  0  0  0
    3.3460    2.4180   23.2220 N   0  0  0  0  0  0  0  0  0  0  0  0
    4.1840    1.7810   22.2980 C   0  0  0  0  0  0  0  0  0  0  0  0
    3.5710    1.3910   20.9730 C   0  0  0  0  0  0  0  0  0  0  0  0
    2.7490    4.4160   25.2350 F   0  0  0  0  0  0  0  0  0  0  0  0
    1.5190    3.8800   25.2020 C   0  0  0  0  0  0  0  0  0  0  0  0
    1.2420    2.5400   24.5050 C   0  0  0  0  0  0  0  0  0  0  0  0
   -0.0620    2.0460   24.5120 C   0  0  0  0  0  0  0  0  0  0  0  0
   -1.1700    2.8520   25.2090 C   0  0  0  0  0  0  0  0  0  0  0  0
   -0.8430    4.0700   25.8250 C   0  0  0  0  0  0  0  0  0  0  0  0
    0.4690    4.5710   25.8220 C   0  0  0  0  0  0  0  0  0  0  0  0
    5.6040    0.0980   20.1800 C   0  0  0  0  0  0  0  0  0  0  0  0
    6.5240   -0.1730   19.1710 C   0  0  0  0  0  0  0  0  0  0  0  0
    6.4990    0.4290   17.9690 N   0  0  0  0  0  0  0  0  0  0  0  0
    5.5330    1.3370   17.7620 C   0  0  0  0  0  0  0  0  0  0  0  0
    4.5730    1.6780   18.6990 C   0  0  0  0  0  0  0  0  0  0  0  0
    4.6030    1.0460   19.9370 C   0  0  0  0  0  0  0  0  0  0  0  0
  1  2  2  0
  1  3  1  0
  3  4  1  0
  4  5  1  0
  6  7  1  0
  1  8  1  0
  7  8  2  0
  8  9  1  0
  9 10  2  0
 10 11  1  0
  7 12  1  0
 11 12  2  0
 13 14  2  0
 14 15  1  0
 15 16  2  0
 16 17  1  0
  5 18  1  0
 13 18  1  0
 17 18  2  0
M  END
