x0426-x2572
     RDKit          3D

 30 32  0  0  0  0  0  0  0  0999 V2000
    3.7700    1.0110   21.5710 C   0  0  1  0  0  0  0  0  0  0  0  0
    8.6200    1.0930   21.3010 O   0  0  0  0  0  0  0  0  0  0  0  0
    6.7110   -0.2220   21.5560 N   0  0  0  0  0  0  0  0  0  0  0  0
   13.6530   -3.2550   20.6250 N   0  0  0  0  0  0  0  0  0  0  0  0
    8.0130    0.1640   21.8340 C   0  0  0  0  0  0  0  0  0  0  0  0
    8.6580   -0.7060   22.9100 C   0  0  0  0  0  0  0  0  0  0  0  0
   13.0510   -2.1900   21.4310 C   0  0  0  0  0  0  0  0  0  0  0  0
    2.8160    2.0200   23.4520 C   0  0  0  0  0  0  0  0  0  0  0  0
    2.5700    0.8350   23.6820 O   0  0  0  0  0  0  0  0  0  0  0  0
    3.8080    1.9430   22.7330 N   0  0  0  0  0  0  0  0  0  0  0  0
    3.0730    4.3510   25.0670 F   0  0  0  0  0  0  0  0  0  0  0  0
    2.4860    1.3730   20.8430 C   0  0  0  0  0  0  0  0  0  0  0  0
    6.4190    0.7340   17.9210 N   0  0  0  0  0  0  0  0  0  0  0  0
    6.8680    0.2160   19.2340 C   0  0  0  0  0  0  0  0  0  0  0  0
    6.0710    0.3200   20.3720 C   0  0  0  0  0  0  0  0  0  0  0  0
    4.7870    0.8850   20.4140 C   0  0  0  0  0  0  0  0  0  0  0  0
    4.3660    1.3920   19.1670 C   0  0  0  0  0  0  0  0  0  0  0  0
    5.0750    1.3500   18.0120 C   0  0  0  0  0  0  0  0  0  0  0  0
   10.6680    0.5380   23.7050 C   0  0  0  0  0  0  0  0  0  0  0  0
   12.0340    0.7450   23.7410 C   0  0  0  0  0  0  0  0  0  0  0  0
   12.9700   -0.1080   23.0110 C   0  0  0  0  0  0  0  0  0  0  0  0
   12.3330   -1.1790   22.2570 C   0  0  0  0  0  0  0  0  0  0  0  0
   10.9690   -1.3410   22.2500 C   0  0  0  0  0  0  0  0  0  0  0  0
   10.1320   -0.5030   22.9560 C   0  0  0  0  0  0  0  0  0  0  0  0
    1.8840    3.7410   24.9810 C   0  0  0  0  0  0  0  0  0  0  0  0
    1.7000    2.6100   24.2160 C   0  0  0  0  0  0  0  0  0  0  0  0
    0.4210    2.0300   24.1820 C   0  0  0  0  0  0  0  0  0  0  0  0
   -0.6410    2.5830   24.9020 C   0  0  0  0  0  0  0  0  0  0  0  0
   -0.4580    3.7310   25.6750 C   0  0  0  0  0  0  0  0  0  0  0  0
    0.8160    4.2940   25.7010 C   0  0  0  0  0  0  0  0  0  0  0  0
  2  5  2  0
  3  5  1  0
  5  6  1  0
  4  7  3  0
  8  9  2  0
  1 10  1  0
  8 10  1  0
  1 12  1  6
 13 14  2  0
  3 15  1  0
 14 15  1  0
  1 16  1  0
 15 16  2  0
 16 17  1  0
 13 18  1  0
 17 18  2  0
 19 20  2  0
 20 21  1  0
  7 22  1  0
 21 22  2  0
 22 23  1  0
  6 24  1  0
 19 24  1  0
 23 24  2  0
 11 25  1  0
  8 26  1  0
 25 26  2  0
 26 27  1  0
 27 28  2  0
 28 29  1  0
 25 30  1  0
 29 30  2  0
M  END
