x0426-x2754
     RDKit          3D

 39 42  0  0  0  0  0  0  0  0999 V2000
    5.0970   -2.8910   25.3000 C   0  0  0  0  0  0  0  0  0  0  0  0
    3.9370   -1.9930   25.4520 N   0  0  0  0  0  0  0  0  0  0  0  0
    5.6940   -3.3040   26.5760 N   0  0  0  0  0  0  0  0  0  0  0  0
    5.3350   -4.9850   19.9880 O   0  0  0  0  0  0  0  0  0  0  0  0
    6.1960   -4.1890   20.4070 C   0  0  0  0  0  0  0  0  0  0  0  0
    6.8970   -3.3030   19.4430 C   0  0  0  0  0  0  0  0  0  0  0  0
    5.3790   -2.4070   27.7190 C   0  0  0  0  0  0  0  0  0  0  0  0
    2.3140    1.8610   24.1480 C   0  0  0  0  0  0  0  0  0  0  0  0
    2.3910    0.7260   24.4010 N   0  0  0  0  0  0  0  0  0  0  0  0
    3.3020    2.4680   23.3800 N   0  0  0  0  0  0  0  0  0  0  0  0
    4.2450    1.8200   22.4600 C   0  0  0  0  0  0  0  0  0  0  0  0
    3.5990    1.3050   21.1760 C   0  0  0  0  0  0  0  0  0  0  0  0
    2.6860    4.4070   25.3140 F   0  0  0  0  0  0  0  0  0  0  0  0
    3.2120   -1.4820   24.3130 C   0  0  0  0  0  0  0  0  0  0  0  0
    3.4870   -0.1940   23.9870 C   0  0  0  0  0  0  0  0  0  0  0  0
    6.5140   -4.1680   21.7620 N   0  0  0  0  0  0  0  0  0  0  0  0
    7.2240   -3.0040   22.2990 C   0  0  0  0  0  0  0  0  0  0  0  0
    6.8840   -2.8340   23.6000 C   0  0  0  0  0  0  0  0  0  0  0  0
    5.6040   -3.3330   23.8900 C   0  0  0  0  0  0  0  0  0  0  0  0
    5.6390   -4.7250   23.8360 C   0  0  0  0  0  0  0  0  0  0  0  0
    6.2990   -5.2210   22.6050 C   0  0  0  0  0  0  0  0  0  0  0  0
    7.3480   -4.9990   27.5110 C   0  0  0  0  0  0  0  0  0  0  0  0
    8.7050   -5.3230   27.5560 C   0  0  0  0  0  0  0  0  0  0  0  0
    9.6760   -4.5570   26.9090 C   0  0  0  0  0  0  0  0  0  0  0  0
    9.3070   -3.4210   26.1860 C   0  0  0  0  0  0  0  0  0  0  0  0
    7.9950   -3.0850   26.1330 C   0  0  0  0  0  0  0  0  0  0  0  0
    6.9440   -3.7500   26.7180 C   0  0  0  0  0  0  0  0  0  0  0  0
    1.4410    3.9060   25.2450 C   0  0  0  0  0  0  0  0  0  0  0  0
    1.1910    2.6610   24.6770 C   0  0  0  0  0  0  0  0  0  0  0  0
   -0.1160    2.1700   24.6190 C   0  0  0  0  0  0  0  0  0  0  0  0
   -1.1880    2.9140   25.1290 C   0  0  0  0  0  0  0  0  0  0  0  0
   -0.9350    4.1660   25.7030 C   0  0  0  0  0  0  0  0  0  0  0  0
    0.3690    4.6650   25.7630 C   0  0  0  0  0  0  0  0  0  0  0  0
    5.6970    0.0520   20.2090 C   0  0  0  0  0  0  0  0  0  0  0  0
    6.5960   -0.1950   19.1610 C   0  0  0  0  0  0  0  0  0  0  0  0
    6.5210    0.4160   17.9610 N   0  0  0  0  0  0  0  0  0  0  0  0
    5.5350    1.3070   17.7750 C   0  0  0  0  0  0  0  0  0  0  0  0
    4.5050    1.6520   18.8410 C   0  0  0  0  0  0  0  0  0  0  0  0
    4.5830    1.0170   20.0740 C   0  0  0  0  0  0  0  0  0  0  0  0
  1  2  2  3
  1  3  1  0
  4  5  2  0
  5  6  1  0
  3  7  1  0
  8  9  2  3
  8 10  1  0
 10 11  1  0
 11 12  1  0
  2 14  1  0
  9 15  1  0
 14 15  1  0
  5 16  1  0
 16 17  1  0
 17 18  1  0
  1 19  1  0
 18 19  1  0
 19 20  1  0
 16 21  1  0
 20 21  1  0
 22 23  2  0
 23 24  1  0
 24 25  2  0
 25 26  1  0
  3 27  1  0
 22 27  1  0
 26 27  2  0
 13 28  1  0
  8 29  1  0
 28 29  2  0
 29 30  1  0
 30 31  2  0
 31 32  1  0
 28 33  1  0
 32 33  2  0
 34 35  2  0
 35 36  1  0
 36 37  2  0
 37 38  1  0
 12 39  1  0
 34 39  1  0
 38 39  2  0
M  END
