x0426-x0731
     RDKit          3D

 38 41  0  0  0  0  0  0  0  0999 V2000
    1.2700   -0.7490   26.1470 C   0  0  0  0  0  0  0  0  0  0  0  0
    6.2900   -4.9450   26.8270 O   0  0  0  0  0  0  0  0  0  0  0  0
    4.4500   -6.6780   26.0610 O   0  0  0  0  0  0  0  0  0  0  0  0
    5.4070   -4.9100   19.8840 O   0  0  0  0  0  0  0  0  0  0  0  0
    6.1530   -4.3390   20.6780 C   0  0  0  0  0  0  0  0  0  0  0  0
    6.5470   -2.8940   20.4570 C   0  0  0  0  0  0  0  0  0  0  0  0
    5.2410   -5.3060   25.9070 S   0  0  0  0  0  0  0  0  0  0  0  0
    2.1660    1.7280   23.9680 C   0  0  0  0  0  0  0  0  0  0  0  0
    2.0850    0.4420   24.0760 N   0  0  0  0  0  0  0  0  0  0  0  0
    3.2150    2.3250   23.2660 N   0  0  0  0  0  0  0  0  0  0  0  0
    4.1270    1.5880   22.3900 C   0  0  0  0  0  0  0  0  0  0  0  0
    3.6010    1.4470   21.0960 C   0  0  0  0  0  0  0  0  0  0  0  0
    2.7500    4.2610   25.3150 F   0  0  0  0  0  0  0  0  0  0  0  0
    0.9210   -0.0690   24.8280 C   0  0  0  0  0  0  0  0  0  0  0  0
    2.2430   -1.8760   26.0670 C   0  0  0  0  0  0  0  0  0  0  0  0
    1.7870   -3.1770   25.8440 C   0  0  0  0  0  0  0  0  0  0  0  0
    2.6940   -4.2440   25.7820 C   0  0  0  0  0  0  0  0  0  0  0  0
    4.0540   -3.9940   25.9490 C   0  0  0  0  0  0  0  0  0  0  0  0
    4.5010   -2.6960   26.1650 C   0  0  0  0  0  0  0  0  0  0  0  0
    3.6090   -1.6230   26.2270 C   0  0  0  0  0  0  0  0  0  0  0  0
    6.6680   -4.9640   21.7890 N   0  0  0  0  0  0  0  0  0  0  0  0
    7.3680   -4.2550   22.8590 C   0  0  0  0  0  0  0  0  0  0  0  0
    6.4830   -3.9690   23.8820 C   0  0  0  0  0  0  0  0  0  0  0  0
    5.9270   -5.2640   24.3500 N   0  0  0  0  0  0  0  0  0  0  0  0
    5.2150   -6.0700   23.2960 C   0  0  0  0  0  0  0  0  0  0  0  0
    6.0600   -6.2350   22.1890 C   0  0  0  0  0  0  0  0  0  0  0  0
    1.4790    3.8380   25.2230 C   0  0  0  0  0  0  0  0  0  0  0  0
    1.1560    2.6380   24.5840 C   0  0  0  0  0  0  0  0  0  0  0  0
   -0.1980    2.2560   24.5220 C   0  0  0  0  0  0  0  0  0  0  0  0
   -1.1910    3.0560   25.0910 C   0  0  0  0  0  0  0  0  0  0  0  0
   -0.8500    4.2470   25.7280 C   0  0  0  0  0  0  0  0  0  0  0  0
    0.4870    4.6400   25.7930 C   0  0  0  0  0  0  0  0  0  0  0  0
    5.6250    0.1520   20.2590 C   0  0  0  0  0  0  0  0  0  0  0  0
    6.5160   -0.1360   19.2310 C   0  0  0  0  0  0  0  0  0  0  0  0
    6.4560    0.4380   18.0130 N   0  0  0  0  0  0  0  0  0  0  0  0
    5.4750    1.3340   17.8140 C   0  0  0  0  0  0  0  0  0  0  0  0
    4.5450    1.6850   18.7680 C   0  0  0  0  0  0  0  0  0  0  0  0
    4.6100    1.0870   20.0230 C   0  0  0  0  0  0  0  0  0  0  0  0
  4  5  2  0
  5  6  1  0
  2  7  2  0
  3  7  2  0
  8  9  2  3
  8 10  1  0
 10 11  1  0
 11 12  1  0
  1 14  1  0
  9 14  1  0
  1 15  1  0
 15 16  2  0
 16 17  1  0
  7 18  1  0
 17 18  2  0
 18 19  1  0
 15 20  1  0
 19 20  2  0
  5 21  1  0
 21 22  1  0
 22 23  1  0
  7 24  1  0
 23 24  1  0
 24 25  1  0
 21 26  1  0
 25 26  1  0
 13 27  1  0
  8 28  1  0
 27 28  2  0
 28 29  1  0
 29 30  2  0
 30 31  1  0
 27 32  1  0
 31 32  2  0
 33 34  2  0
 34 35  1  0
 35 36  2  0
 36 37  1  0
 12 38  1  0
 33 38  1  0
 37 38  2  0
M  END
