x0426-x0499
     RDKit          3D

 18 19  0  0  0  0  0  0  0  0999 V2000
    2.3080    1.7380   23.8560 C   0  0  0  0  0  0  0  0  0  0  0  0
    2.2130    0.3130   23.8530 O   0  0  0  0  0  0  0  0  0  0  0  0
    3.3570    2.4150   23.2620 N   0  0  0  0  0  0  0  0  0  0  0  0
    4.1910    1.7820   22.3330 C   0  0  0  0  0  0  0  0  0  0  0  0
    3.5690    1.3740   21.0190 C   0  0  0  0  0  0  0  0  0  0  0  0
    2.7420    4.4230   25.2580 F   0  0  0  0  0  0  0  0  0  0  0  0
    1.5120    3.8880   25.2180 C   0  0  0  0  0  0  0  0  0  0  0  0
    1.2420    2.5430   24.5270 C   0  0  0  0  0  0  0  0  0  0  0  0
   -0.0620    2.0500   24.5290 C   0  0  0  0  0  0  0  0  0  0  0  0
   -1.1750    2.8560   25.2130 C   0  0  0  0  0  0  0  0  0  0  0  0
   -0.8530    4.0780   25.8270 C   0  0  0  0  0  0  0  0  0  0  0  0
    0.4570    4.5810   25.8290 C   0  0  0  0  0  0  0  0  0  0  0  0
    5.5900    0.0770   20.2150 C   0  0  0  0  0  0  0  0  0  0  0  0
    6.5050   -0.2010   19.2020 C   0  0  0  0  0  0  0  0  0  0  0  0
    6.4780    0.3990   17.9960 N   0  0  0  0  0  0  0  0  0  0  0  0
    5.5160    1.3100   17.7880 C   0  0  0  0  0  0  0  0  0  0  0  0
    4.5590    1.6580   18.7320 C   0  0  0  0  0  0  0  0  0  0  0  0
    4.5930    1.0280   19.9750 C   0  0  0  0  0  0  0  0  0  0  0  0
  1  2  2  0
  1  3  1  0
  3  4  1  0
  4  5  1  0
  6  7  1  0
  1  8  1  0
  7  8  2  0
  8  9  1  0
  9 10  2  0
 10 11  1  0
  7 12  1  0
 11 12  2  0
 13 14  2  0
 14 15  1  0
 15 16  2  0
 16 17  1  0
  5 18  1  0
 13 18  1  0
 17 18  2  0
M  END
