x0426-x0887
     RDKit          3D

 18 19  0  0  0  0  0  0  0  0999 V2000
    2.3010    1.7400   23.8230 C   0  0  0  0  0  0  0  0  0  0  0  0
    2.2050    0.3150   23.8160 O   0  0  0  0  0  0  0  0  0  0  0  0
    3.3470    2.4200   23.2280 N   0  0  0  0  0  0  0  0  0  0  0  0
    4.1880    1.7870   22.3020 C   0  0  0  0  0  0  0  0  0  0  0  0
    3.5780    1.3890   20.9780 C   0  0  0  0  0  0  0  0  0  0  0  0
    2.7450    4.4160   25.2350 F   0  0  0  0  0  0  0  0  0  0  0  0
    1.5160    3.8790   25.2010 C   0  0  0  0  0  0  0  0  0  0  0  0
    1.2390    2.5390   24.5050 C   0  0  0  0  0  0  0  0  0  0  0  0
   -0.0670    2.0480   24.5120 C   0  0  0  0  0  0  0  0  0  0  0  0
   -1.1750    2.8520   25.2110 C   0  0  0  0  0  0  0  0  0  0  0  0
   -0.8450    4.0710   25.8280 C   0  0  0  0  0  0  0  0  0  0  0  0
    0.4650    4.5710   25.8240 C   0  0  0  0  0  0  0  0  0  0  0  0
    5.6180    0.1070   20.1790 C   0  0  0  0  0  0  0  0  0  0  0  0
    6.5350   -0.1600   19.1630 C   0  0  0  0  0  0  0  0  0  0  0  0
    6.5000    0.4390   17.9590 N   0  0  0  0  0  0  0  0  0  0  0  0
    5.5310    1.3410   17.7510 C   0  0  0  0  0  0  0  0  0  0  0  0
    4.5700    1.6790   18.6950 C   0  0  0  0  0  0  0  0  0  0  0  0
    4.6100    1.0490   19.9360 C   0  0  0  0  0  0  0  0  0  0  0  0
  1  2  2  0
  1  3  1  0
  3  4  1  0
  4  5  1  0
  6  7  1  0
  1  8  1  0
  7  8  2  0
  8  9  1  0
  9 10  2  0
 10 11  1  0
  7 12  1  0
 11 12  2  0
 13 14  2  0
 14 15  1  0
 15 16  2  0
 16 17  1  0
  5 18  1  0
 13 18  1  0
 17 18  2  0
M  END
