x0426-x1132
     RDKit          3D

 18 19  0  0  0  0  0  0  0  0999 V2000
    2.3020    1.7390   23.8400 C   0  0  0  0  0  0  0  0  0  0  0  0
    2.2090    0.3130   23.8380 O   0  0  0  0  0  0  0  0  0  0  0  0
    3.3470    2.4180   23.2420 N   0  0  0  0  0  0  0  0  0  0  0  0
    4.1890    1.7870   22.3180 C   0  0  0  0  0  0  0  0  0  0  0  0
    3.5740    1.3900   20.9940 C   0  0  0  0  0  0  0  0  0  0  0  0
    2.7420    4.4170   25.2530 F   0  0  0  0  0  0  0  0  0  0  0  0
    1.5110    3.8810   25.2140 C   0  0  0  0  0  0  0  0  0  0  0  0
    1.2370    2.5420   24.5180 C   0  0  0  0  0  0  0  0  0  0  0  0
   -0.0680    2.0490   24.5210 C   0  0  0  0  0  0  0  0  0  0  0  0
   -1.1780    2.8550   25.2130 C   0  0  0  0  0  0  0  0  0  0  0  0
   -0.8520    4.0740   25.8310 C   0  0  0  0  0  0  0  0  0  0  0  0
    0.4600    4.5750   25.8300 C   0  0  0  0  0  0  0  0  0  0  0  0
    5.6060    0.1010   20.1950 C   0  0  0  0  0  0  0  0  0  0  0  0
    6.5210   -0.1750   19.1800 C   0  0  0  0  0  0  0  0  0  0  0  0
    6.4920    0.4190   17.9720 N   0  0  0  0  0  0  0  0  0  0  0  0
    5.5230    1.3240   17.7570 C   0  0  0  0  0  0  0  0  0  0  0  0
    4.5650    1.6700   18.7050 C   0  0  0  0  0  0  0  0  0  0  0  0
    4.6020    1.0450   19.9500 C   0  0  0  0  0  0  0  0  0  0  0  0
  1  2  2  0
  1  3  1  0
  3  4  1  0
  4  5  1  0
  6  7  1  0
  1  8  1  0
  7  8  2  0
  8  9  1  0
  9 10  2  0
 10 11  1  0
  7 12  1  0
 11 12  2  0
 13 14  2  0
 14 15  1  0
 15 16  2  0
 16 17  1  0
  5 18  1  0
 13 18  1  0
 17 18  2  0
M  END
