x0426-x0689
     RDKit          3D

 37 40  0  0  0  0  0  0  0  0999 V2000
    7.3730   -3.5830   20.0800 C   0  0  0  0  0  0  0  0  0  0  0  0
    5.3370   -4.7900   19.9610 O   0  0  0  0  0  0  0  0  0  0  0  0
    6.3950   -4.5880   20.5920 C   0  0  0  0  0  0  0  0  0  0  0  0
    4.1100   -6.4420   25.9360 O   0  0  0  0  0  0  0  0  0  0  0  0
    5.7690   -4.6830   26.6500 O   0  0  0  0  0  0  0  0  0  0  0  0
    4.7960   -5.1860   25.7130 S   0  0  0  0  0  0  0  0  0  0  0  0
    2.3950    2.1640   24.1120 C   0  0  0  0  0  0  0  0  0  0  0  0
    2.5560    1.0240   24.5010 O   0  0  0  0  0  0  0  0  0  0  0  0
    3.2190    2.7800   23.1850 N   0  0  0  0  0  0  0  0  0  0  0  0
    4.1200    1.9960   22.3120 C   0  0  0  0  0  0  0  0  0  0  0  0
    3.4920    1.7640   20.9850 C   0  0  0  0  0  0  0  0  0  0  0  0
    2.7000    4.5950   25.5800 F   0  0  0  0  0  0  0  0  0  0  0  0
    6.6020   -2.5220   19.3110 C   0  0  0  0  0  0  0  0  0  0  0  0
    7.2770   -1.1830   19.2770 C   0  0  0  0  0  0  0  0  0  0  0  0
    6.6080   -5.3250   21.7450 N   0  0  0  0  0  0  0  0  0  0  0  0
    5.6670   -6.3720   22.1600 C   0  0  0  0  0  0  0  0  0  0  0  0
    4.7760   -5.9270   23.1030 C   0  0  0  0  0  0  0  0  0  0  0  0
    5.5230   -5.2360   24.1730 N   0  0  0  0  0  0  0  0  0  0  0  0
    6.4710   -4.3360   23.8240 C   0  0  0  0  0  0  0  0  0  0  0  0
    7.3530   -4.7130   22.8570 C   0  0  0  0  0  0  0  0  0  0  0  0
    3.9310   -2.3690   26.1880 S   0  0  0  0  0  0  0  0  0  0  0  0
    3.4820   -3.9950   25.7410 C   0  0  0  0  0  0  0  0  0  0  0  0
    2.1090   -4.1210   25.4700 C   0  0  0  0  0  0  0  0  0  0  0  0
    1.4040   -2.8720   25.6390 C   0  0  0  0  0  0  0  0  0  0  0  0
    2.3180   -1.8360   26.0370 C   0  0  0  0  0  0  0  0  0  0  0  0
    1.4620    4.1050   25.4210 C   0  0  0  0  0  0  0  0  0  0  0  0
    1.2630    2.9370   24.7150 C   0  0  0  0  0  0  0  0  0  0  0  0
   -0.0610    2.5050   24.5980 C   0  0  0  0  0  0  0  0  0  0  0  0
   -1.1230    3.1550   25.1350 C   0  0  0  0  0  0  0  0  0  0  0  0
   -0.9250    4.3240   25.8470 C   0  0  0  0  0  0  0  0  0  0  0  0
    0.3770    4.8150   25.9970 C   0  0  0  0  0  0  0  0  0  0  0  0
    5.4450    0.2500   20.1200 C   0  0  0  0  0  0  0  0  0  0  0  0
    6.3030   -0.0870   19.0820 C   0  0  0  0  0  0  0  0  0  0  0  0
    6.2990    0.5220   17.8900 N   0  0  0  0  0  0  0  0  0  0  0  0
    5.3950    1.5050   17.7370 C   0  0  0  0  0  0  0  0  0  0  0  0
    4.4810    1.9420   18.6830 C   0  0  0  0  0  0  0  0  0  0  0  0
    4.4620    1.3330   19.9250 C   0  0  0  0  0  0  0  0  0  0  0  0
  1  3  1  0
  2  3  2  0
  4  6  2  0
  5  6  2  0
  7  8  2  0
  7  9  1  0
  9 10  1  0
 10 11  1  0
  1 13  1  0
 13 14  1  0
  3 15  1  0
 15 16  1  0
 16 17  1  0
  6 18  1  0
 17 18  1  0
 18 19  1  0
 15 20  1  0
 19 20  1  0
  6 22  1  0
 21 22  1  0
 22 23  2  0
 23 24  1  0
 21 25  1  0
 24 25  2  0
 12 26  1  0
  7 27  1  0
 26 27  2  0
 27 28  1  0
 28 29  2  0
 29 30  1  0
 26 31  1  0
 30 31  2  0
 14 33  1  0
 32 33  2  0
 33 34  1  0
 34 35  2  0
 35 36  1  0
 11 37  1  0
 32 37  1  0
 36 37  2  0
M  END
