x0426-x1348
     RDKit          3D

 18 19  0  0  0  0  0  0  0  0999 V2000
    2.3090    1.7410   23.8540 C   0  0  0  0  0  0  0  0  0  0  0  0
    2.2160    0.3150   23.8470 O   0  0  0  0  0  0  0  0  0  0  0  0
    3.3590    2.4230   23.2660 N   0  0  0  0  0  0  0  0  0  0  0  0
    4.1950    1.7890   22.3410 C   0  0  0  0  0  0  0  0  0  0  0  0
    3.5700    1.3770   21.0300 C   0  0  0  0  0  0  0  0  0  0  0  0
    2.7420    4.4210   25.2570 F   0  0  0  0  0  0  0  0  0  0  0  0
    1.5130    3.8850   25.2160 C   0  0  0  0  0  0  0  0  0  0  0  0
    1.2410    2.5430   24.5250 C   0  0  0  0  0  0  0  0  0  0  0  0
   -0.0620    2.0490   24.5260 C   0  0  0  0  0  0  0  0  0  0  0  0
   -1.1750    2.8540   25.2110 C   0  0  0  0  0  0  0  0  0  0  0  0
   -0.8520    4.0770   25.8260 C   0  0  0  0  0  0  0  0  0  0  0  0
    0.4580    4.5790   25.8280 C   0  0  0  0  0  0  0  0  0  0  0  0
    5.5910    0.0740   20.2180 C   0  0  0  0  0  0  0  0  0  0  0  0
    6.5030   -0.2040   19.2020 C   0  0  0  0  0  0  0  0  0  0  0  0
    6.4770    0.3960   17.9980 N   0  0  0  0  0  0  0  0  0  0  0  0
    5.5140    1.3090   17.7910 C   0  0  0  0  0  0  0  0  0  0  0  0
    4.5600    1.6580   18.7390 C   0  0  0  0  0  0  0  0  0  0  0  0
    4.5930    1.0280   19.9800 C   0  0  0  0  0  0  0  0  0  0  0  0
  1  2  2  0
  1  3  1  0
  3  4  1  0
  4  5  1  0
  6  7  1  0
  1  8  1  0
  7  8  2  0
  8  9  1  0
  9 10  2  0
 10 11  1  0
  7 12  1  0
 11 12  2  0
 13 14  2  0
 14 15  1  0
 15 16  2  0
 16 17  1  0
  5 18  1  0
 13 18  1  0
 17 18  2  0
M  END
