x0426-x0995
     RDKit          3D

 18 19  0  0  0  0  0  0  0  0999 V2000
    2.3590    1.7130   23.9130 C   0  0  0  0  0  0  0  0  0  0  0  0
    2.1420    0.3050   23.9280 O   0  0  0  0  0  0  0  0  0  0  0  0
    3.5340    2.4250   23.3360 N   0  0  0  0  0  0  0  0  0  0  0  0
    4.3880    1.8350   22.4430 C   0  0  0  0  0  0  0  0  0  0  0  0
    3.5860    1.3500   21.2230 C   0  0  0  0  0  0  0  0  0  0  0  0
    2.6860    4.3800   25.3070 F   0  0  0  0  0  0  0  0  0  0  0  0
    1.4640    3.8220   25.2600 C   0  0  0  0  0  0  0  0  0  0  0  0
    1.2740    2.5000   24.5740 C   0  0  0  0  0  0  0  0  0  0  0  0
   -0.1930    2.0500   24.6390 C   0  0  0  0  0  0  0  0  0  0  0  0
   -1.2830    2.8450   25.3090 C   0  0  0  0  0  0  0  0  0  0  0  0
   -0.8820    4.0380   25.8810 C   0  0  0  0  0  0  0  0  0  0  0  0
    0.4030    4.5300   25.8770 C   0  0  0  0  0  0  0  0  0  0  0  0
    5.7550    0.0640   20.0880 C   0  0  0  0  0  0  0  0  0  0  0  0
    6.6490   -0.2360   19.1270 C   0  0  0  0  0  0  0  0  0  0  0  0
    6.5710    0.4270   17.8320 N   0  0  0  0  0  0  0  0  0  0  0  0
    5.5470    1.3040   17.7830 C   0  0  0  0  0  0  0  0  0  0  0  0
    4.6520    1.5830   18.7910 C   0  0  0  0  0  0  0  0  0  0  0  0
    4.5630    1.0180   20.1710 C   0  0  0  0  0  0  0  0  0  0  0  0
  1  2  2  0
  1  3  1  0
  3  4  1  0
  4  5  1  0
  6  7  1  0
  1  8  1  0
  7  8  2  0
  8  9  1  0
  9 10  2  0
 10 11  1  0
  7 12  1  0
 11 12  2  0
 13 14  2  0
 14 15  1  0
 15 16  2  0
 16 17  1  0
  5 18  1  0
 13 18  1  0
 17 18  2  0
M  END
