x0426-x2563
     RDKit          3D

 29 33  0  0  0  0  0  0  0  0999 V2000
    2.5120    1.6520   23.8010 C   0  0  0  0  0  0  0  0  0  0  0  0
    2.2320    0.2780   24.0090 O   0  0  0  0  0  0  0  0  0  0  0  0
    3.6890    2.1860   23.0260 N   0  0  0  0  0  0  0  0  0  0  0  0
    2.8790    4.3700   25.2220 F   0  0  0  0  0  0  0  0  0  0  0  0
    8.2840   -0.0240   21.1030 C   0  0  0  0  0  0  0  0  0  0  0  0
    8.4340    1.2050   20.9470 O   0  0  0  0  0  0  0  0  0  0  0  0
    7.3740   -0.7160   20.1100 C   0  0  0  0  0  0  0  0  0  0  0  0
    8.8550   -0.8550   22.0180 N   0  0  0  0  0  0  0  0  0  0  0  0
    1.6570    3.8190   25.1570 C   0  0  0  0  0  0  0  0  0  0  0  0
    1.4610    2.5060   24.4700 C   0  0  0  0  0  0  0  0  0  0  0  0
   -0.0190    2.0810   24.5270 C   0  0  0  0  0  0  0  0  0  0  0  0
   -1.1210    2.8820   25.1880 C   0  0  0  0  0  0  0  0  0  0  0  0
   -0.7040    4.0740   25.7670 C   0  0  0  0  0  0  0  0  0  0  0  0
    0.5960    4.5330   25.7630 C   0  0  0  0  0  0  0  0  0  0  0  0
    5.4300    0.9400   20.0280 C   0  0  1  0  0  0  0  0  0  0  0  0
    6.4150    0.1810   19.4520 C   0  0  0  0  0  0  0  0  0  0  0  0
    6.3390    0.3300   17.9930 N   0  0  0  0  0  0  0  0  0  0  0  0
    5.3090    1.1210   17.7670 C   0  0  0  0  0  0  0  0  0  0  0  0
    4.6330    1.5060   18.9050 C   0  0  1  0  0  0  0  0  0  0  0  0
    4.0340    0.5070   19.8170 C   0  0  2  0  0  0  0  0  0  0  0  0
   11.3390   -0.7550   22.4190 C   0  0  0  0  0  0  0  0  0  0  0  0
   12.2280   -0.1060   23.2170 C   0  0  0  0  0  0  0  0  0  0  0  0
   11.8570    0.7920   24.1700 C   0  0  0  0  0  0  0  0  0  0  0  0
   10.5070    1.0990   24.3930 C   0  0  0  0  0  0  0  0  0  0  0  0
    9.5660    0.5090   23.6520 C   0  0  0  0  0  0  0  0  0  0  0  0
    9.8790   -0.3950   22.6720 C   0  0  0  0  0  0  0  0  0  0  0  0
    5.4000    1.6860   21.2980 C   0  0  0  0  0  0  0  0  0  0  0  0
    4.1280    1.6070   21.8520 C   0  0  0  0  0  0  0  0  0  0  0  0
    3.2770    0.8490   21.0870 C   0  0  0  0  0  0  0  0  0  0  0  0
  1  2  2  0
  1  3  1  0
  5  6  2  0
  5  7  1  0
  5  8  1  0
  4  9  1  0
  1 10  1  0
  9 10  2  0
 10 11  1  0
 11 12  2  0
 12 13  1  0
  9 14  1  0
 13 14  2  0
  7 16  1  0
 15 16  1  0
 16 17  2  0
 17 18  1  0
 15 19  1  0
 19 18  1  6
 15 20  1  0
 19 20  1  0
 21 22  2  0
 22 23  1  0
 23 24  2  0
 24 25  1  0
  8 26  1  0
 21 26  1  0
 25 26  2  0
 15 27  1  1
  3 28  1  0
 27 28  2  0
 20 29  1  1
 28 29  1  0
M  END
