x0426-x1412
     RDKit          3D

 18 19  0  0  0  0  0  0  0  0999 V2000
    2.3070    1.7440   23.8330 C   0  0  0  0  0  0  0  0  0  0  0  0
    2.2160    0.3170   23.8280 O   0  0  0  0  0  0  0  0  0  0  0  0
    3.3530    2.4280   23.2390 N   0  0  0  0  0  0  0  0  0  0  0  0
    4.1920    1.7900   22.3200 C   0  0  0  0  0  0  0  0  0  0  0  0
    3.5690    1.3640   21.0130 C   0  0  0  0  0  0  0  0  0  0  0  0
    2.7440    4.4200   25.2360 F   0  0  0  0  0  0  0  0  0  0  0  0
    1.5160    3.8830   25.2040 C   0  0  0  0  0  0  0  0  0  0  0  0
    1.2410    2.5410   24.5100 C   0  0  0  0  0  0  0  0  0  0  0  0
   -0.0630    2.0480   24.5160 C   0  0  0  0  0  0  0  0  0  0  0  0
   -1.1720    2.8520   25.2100 C   0  0  0  0  0  0  0  0  0  0  0  0
   -0.8460    4.0730   25.8260 C   0  0  0  0  0  0  0  0  0  0  0  0
    0.4670    4.5760   25.8220 C   0  0  0  0  0  0  0  0  0  0  0  0
    5.6000    0.0820   20.2030 C   0  0  0  0  0  0  0  0  0  0  0  0
    6.5180   -0.1830   19.1850 C   0  0  0  0  0  0  0  0  0  0  0  0
    6.4870    0.4270   17.9840 N   0  0  0  0  0  0  0  0  0  0  0  0
    5.5190    1.3340   17.7840 C   0  0  0  0  0  0  0  0  0  0  0  0
    4.5600    1.6680   18.7320 C   0  0  0  0  0  0  0  0  0  0  0  0
    4.5970    1.0290   19.9680 C   0  0  0  0  0  0  0  0  0  0  0  0
  1  2  2  0
  1  3  1  0
  3  4  1  0
  4  5  1  0
  6  7  1  0
  1  8  1  0
  7  8  2  0
  8  9  1  0
  9 10  2  0
 10 11  1  0
  7 12  1  0
 11 12  2  0
 13 14  2  0
 14 15  1  0
 15 16  2  0
 16 17  1  0
  5 18  1  0
 13 18  1  0
 17 18  2  0
M  END
