x0425
     RDKit          3D

 15 17  0  0  0  0  0  0  0  0999 V2000
    2.2130  -24.9160    0.8320 C   0  0  0  0  0  0  0  0  0  0  0  0
    1.9880  -23.5510    0.7010 C   0  0  0  0  0  0  0  0  0  0  0  0
    2.9430  -22.7620    0.1850 N   0  0  0  0  0  0  0  0  0  0  0  0
    4.0950  -23.3020   -0.1990 C   0  0  0  0  0  0  0  0  0  0  0  0
    5.1640  -22.4290   -0.7740 N   0  0  0  0  0  0  0  0  0  0  0  0
    6.3820  -22.8410   -1.1660 C   0  0  0  0  0  0  0  0  0  0  0  0
    7.2410  -21.5370   -1.3800 C   0  0  0  0  0  0  0  0  0  0  0  0
    6.1480  -20.4350   -1.6370 C   0  0  1  0  0  0  0  0  0  0  0  0
    6.6840  -19.0250   -1.3680 C   0  0  0  0  0  0  0  0  0  0  0  0
    7.3770  -18.7370   -2.5070 C   0  0  0  0  0  0  0  0  0  0  0  0
    6.6230  -19.5510   -3.7300 O   0  0  0  0  0  0  0  0  0  0  0  0
    5.7310  -20.3610   -3.1890 C   0  0  0  0  0  0  0  0  0  0  0  0
    5.1220  -20.7790   -0.8280 C   0  0  0  0  0  0  0  0  0  0  0  0
    4.3240  -24.6790   -0.0720 C   0  0  0  0  0  0  0  0  0  0  0  0
    3.3770  -25.4520    0.4480 N   0  0  0  0  0  0  0  0  0  0  0  0
  1  2  2  0
  2  3  1  0
  3  4  2  0
  4  5  1  0
  5  6  1  0
  6  7  1  0
  8  7  1  6
  8  9  1  0
  9 10  1  0
 10 11  1  0
  8 12  1  0
 11 12  1  0
  5 13  1  0
  8 13  1  0
  4 14  1  0
  1 15  1  0
 14 15  2  0
M  END
