x0425-x1385
     RDKit          3D

 16 17  0  0  0  0  0  0  0  0999 V2000
    6.4750   -1.9890   18.6970 C   0  0  0  0  0  0  0  0  0  0  0  0
    5.5030   -3.9380   19.7070 O   0  0  0  0  0  0  0  0  0  0  0  0
    6.1730   -2.8990   19.8630 C   0  0  0  0  0  0  0  0  0  0  0  0
    9.7150   -3.0530   24.1430 C   0  0  0  0  0  0  0  0  0  0  0  0
    7.0980   -5.8170   28.4520 Br  0  0  0  0  0  0  0  0  0  0  0  0
    6.7180   -2.5390   21.0730 N   0  0  0  0  0  0  0  0  0  0  0  0
    6.3940   -3.3530   22.2460 C   0  0  0  0  0  0  0  0  0  0  0  0
    7.6460   -3.7500   23.0470 C   0  0  0  0  0  0  0  0  0  0  0  0
    8.5700   -2.6340   23.3210 N   0  0  0  0  0  0  0  0  0  0  0  0
    8.9710   -1.9880   22.0570 C   0  0  0  0  0  0  0  0  0  0  0  0
    7.7620   -1.5080   21.2330 C   0  0  0  0  0  0  0  0  0  0  0  0
    9.8770   -5.3000   25.4360 C   0  0  0  0  0  0  0  0  0  0  0  0
    9.3230   -4.0700   25.1820 C   0  0  0  0  0  0  0  0  0  0  0  0
    8.0240   -3.7570   26.2460 S   0  0  0  0  0  0  0  0  0  0  0  0
    8.2140   -5.2570   27.0220 C   0  0  0  0  0  0  0  0  0  0  0  0
    9.2410   -5.9890   26.4950 C   0  0  0  0  0  0  0  0  0  0  0  0
  1  3  1  0
  2  3  2  0
  3  6  1  0
  6  7  1  0
  7  8  1  0
  4  9  1  0
  8  9  1  0
  9 10  1  0
  6 11  1  0
 10 11  1  0
  4 13  1  0
 12 13  2  0
 13 14  1  0
  5 15  1  0
 14 15  1  0
 12 16  1  0
 15 16  2  0
M  END
