x0426-x1478
     RDKit          3D

 18 19  0  0  0  0  0  0  0  0999 V2000
    2.3060    1.7380   23.8540 C   0  0  0  0  0  0  0  0  0  0  0  0
    2.2170    0.3130   23.8570 O   0  0  0  0  0  0  0  0  0  0  0  0
    3.3500    2.4170   23.2550 N   0  0  0  0  0  0  0  0  0  0  0  0
    4.1830    1.7820   22.3300 C   0  0  0  0  0  0  0  0  0  0  0  0
    3.5630    1.3900   21.0090 C   0  0  0  0  0  0  0  0  0  0  0  0
    2.7470    4.4210   25.2560 F   0  0  0  0  0  0  0  0  0  0  0  0
    1.5170    3.8850   25.2160 C   0  0  0  0  0  0  0  0  0  0  0  0
    1.2440    2.5420   24.5240 C   0  0  0  0  0  0  0  0  0  0  0  0
   -0.0590    2.0490   24.5240 C   0  0  0  0  0  0  0  0  0  0  0  0
   -1.1720    2.8550   25.2100 C   0  0  0  0  0  0  0  0  0  0  0  0
   -0.8480    4.0750   25.8240 C   0  0  0  0  0  0  0  0  0  0  0  0
    0.4620    4.5790   25.8270 C   0  0  0  0  0  0  0  0  0  0  0  0
    5.5870    0.0830   20.2170 C   0  0  0  0  0  0  0  0  0  0  0  0
    6.5050   -0.1970   19.2050 C   0  0  0  0  0  0  0  0  0  0  0  0
    6.4860    0.4020   18.0000 N   0  0  0  0  0  0  0  0  0  0  0  0
    5.5280    1.3170   17.7870 C   0  0  0  0  0  0  0  0  0  0  0  0
    4.5680    1.6680   18.7300 C   0  0  0  0  0  0  0  0  0  0  0  0
    4.5930    1.0370   19.9700 C   0  0  0  0  0  0  0  0  0  0  0  0
  1  2  2  0
  1  3  1  0
  3  4  1  0
  4  5  1  0
  6  7  1  0
  1  8  1  0
  7  8  2  0
  8  9  1  0
  9 10  2  0
 10 11  1  0
  7 12  1  0
 11 12  2  0
 13 14  2  0
 14 15  1  0
 15 16  2  0
 16 17  1  0
  5 18  1  0
 13 18  1  0
 17 18  2  0
M  END
