x0434-x1351
     RDKit          3D

 35 38  0  0  0  0  0  0  0  0999 V2000
    6.9030   -3.3000   19.6940 C   0  0  0  0  0  0  0  0  0  0  0  0
    5.3150   -5.0580   19.9750 O   0  0  0  0  0  0  0  0  0  0  0  0
    6.2170   -4.3630   20.4650 C   0  0  0  0  0  0  0  0  0  0  0  0
    5.7440   -2.9010   25.3780 N   0  0  0  0  0  0  0  0  0  0  0  0
    7.8550   -2.8830   26.3140 O   0  0  0  0  0  0  0  0  0  0  0  0
    6.7550   -2.3590   26.1650 C   0  0  0  0  0  0  0  0  0  0  0  0
    8.6680    0.9690   21.1910 O   0  0  0  0  0  0  0  0  0  0  0  0
    8.4150   -0.2180   21.3790 C   0  0  0  0  0  0  0  0  0  0  0  0
    9.1410   -0.9750   22.2750 N   0  0  0  0  0  0  0  0  0  0  0  0
    7.3860   -0.8850   20.6900 N   0  0  0  0  0  0  0  0  0  0  0  0
    7.1580   -2.3110   20.8730 C   0  0  0  0  0  0  0  0  0  0  0  0
    6.6010   -4.5830   21.7990 N   0  0  0  0  0  0  0  0  0  0  0  0
    7.6740   -3.8100   22.4450 C   0  0  0  0  0  0  0  0  0  0  0  0
    7.1550   -2.8680   23.5160 C   0  0  0  0  0  0  0  0  0  0  0  0
    5.9420   -3.3660   23.9970 C   0  0  0  0  0  0  0  0  0  0  0  0
    5.6500   -4.7180   23.9270 C   0  0  0  0  0  0  0  0  0  0  0  0
    5.8210   -5.3930   22.7110 C   0  0  0  0  0  0  0  0  0  0  0  0
    7.0580   -0.7400   28.0720 C   0  0  0  0  0  0  0  0  0  0  0  0
    6.7600    0.4600   28.7410 C   0  0  0  0  0  0  0  0  0  0  0  0
    5.8190    1.3300   28.1830 C   0  0  0  0  0  0  0  0  0  0  0  0
    5.1210    1.0470   26.9160 C   0  0  0  0  0  0  0  0  0  0  0  0
    5.4940   -0.2280   26.2880 C   0  0  0  0  0  0  0  0  0  0  0  0
    6.4360   -1.0800   26.8660 C   0  0  0  0  0  0  0  0  0  0  0  0
   10.6000    0.4860   23.4970 C   0  0  0  0  0  0  0  0  0  0  0  0
   11.9150    0.8230   23.7730 C   0  0  0  0  0  0  0  0  0  0  0  0
   12.9500    0.1310   23.2240 C   0  0  0  0  0  0  0  0  0  0  0  0
   12.7720   -0.9350   22.3790 C   0  0  0  0  0  0  0  0  0  0  0  0
   11.4770   -1.2830   22.0940 C   0  0  0  0  0  0  0  0  0  0  0  0
   10.4190   -0.5680   22.6480 C   0  0  0  0  0  0  0  0  0  0  0  0
    5.3330    0.4600   20.2240 C   0  0  0  0  0  0  0  0  0  0  0  0
    4.5930    1.2150   19.2980 C   0  0  0  0  0  0  0  0  0  0  0  0
    5.1140    1.3570   18.0130 C   0  0  0  0  0  0  0  0  0  0  0  0
    6.2680    0.8070   17.6280 N   0  0  0  0  0  0  0  0  0  0  0  0
    6.9370    0.0920   18.5470 C   0  0  0  0  0  0  0  0  0  0  0  0
    6.5490   -0.1170   19.8310 C   0  0  0  0  0  0  0  0  0  0  0  0
  1  3  1  0
  2  3  2  0
  4  6  1  0
  5  6  2  0
  7  8  2  0
  8  9  1  0
  8 10  1  0
  1 11  1  0
 10 11  1  0
  3 12  1  0
 12 13  1  0
 13 14  1  0
  4 15  1  0
 14 15  1  0
 15 16  1  0
 12 17  1  0
 16 17  1  0
 18 19  2  0
 19 20  1  0
 20 21  2  0
 21 22  1  0
  6 23  1  0
 18 23  1  0
 22 23  2  0
 24 25  2  0
 25 26  1  0
 26 27  2  0
 27 28  1  0
  9 29  1  0
 24 29  1  0
 28 29  2  0
 30 31  2  0
 31 32  1  0
 32 33  2  0
 33 34  1  0
 10 35  1  0
 30 35  1  0
 34 35  2  0
M  END
