x0434-x1334
     RDKit          3D

 32 37  0  0  0  0  0  0  0  0999 V2000
    7.3590   -2.9890   18.7790 C   0  0  0  0  0  0  0  0  0  0  0  0
    5.4090   -4.0570   19.6790 O   0  0  0  0  0  0  0  0  0  0  0  0
    7.3600   -5.8740   28.5220 Cl  0  0  0  0  0  0  0  0  0  0  0  0
    6.3980   -3.2940   19.8650 C   0  0  0  0  0  0  0  0  0  0  0  0
    9.3590   -3.3720   24.0850 C   0  0  0  0  0  0  0  0  0  0  0  0
    8.8410    0.4080   20.9680 O   0  0  0  0  0  0  0  0  0  0  0  0
    8.1560   -0.4150   21.8020 C   0  0  1  0  0  0  0  0  0  0  0  0
    9.0420   -1.0550   22.7410 N   0  0  0  0  0  0  0  0  0  0  0  0
    6.7250   -0.6890   21.4180 N   0  0  0  0  0  0  0  0  0  0  0  0
    6.6180   -2.7590   21.1190 N   0  0  0  0  0  0  0  0  0  0  0  0
    7.6330   -1.6520   21.2820 C   0  0  1  0  0  0  0  0  0  0  0  0
    8.6850   -2.3040   22.1970 C   0  0  2  0  0  0  0  0  0  0  0  0
    8.1840   -3.0860   23.3120 N   0  0  0  0  0  0  0  0  0  0  0  0
    7.3080   -4.1690   22.8620 C   0  0  0  0  0  0  0  0  0  0  0  0
    6.2130   -3.5160   22.3160 C   0  0  0  0  0  0  0  0  0  0  0  0
    9.7160   -5.5210   25.3850 C   0  0  0  0  0  0  0  0  0  0  0  0
    9.0940   -4.3160   25.1720 C   0  0  0  0  0  0  0  0  0  0  0  0
    7.8990   -3.9510   26.3430 S   0  0  0  0  0  0  0  0  0  0  0  0
    8.2160   -5.4030   27.1190 C   0  0  0  0  0  0  0  0  0  0  0  0
    9.2160   -6.1700   26.5220 C   0  0  0  0  0  0  0  0  0  0  0  0
   10.5320    0.6250   23.5110 C   0  0  0  0  0  0  0  0  0  0  0  0
   11.8420    1.2360   23.6680 C   0  0  0  0  0  0  0  0  0  0  0  0
   12.9390    0.4740   23.0630 C   0  0  0  0  0  0  0  0  0  0  0  0
   12.7410   -0.7270   22.4020 C   0  0  0  0  0  0  0  0  0  0  0  0
   11.4600   -1.2540   22.2830 C   0  0  0  0  0  0  0  0  0  0  0  0
   10.3520   -0.5760   22.8360 C   0  0  0  0  0  0  0  0  0  0  0  0
    5.0080    0.7480   20.2860 C   0  0  0  0  0  0  0  0  0  0  0  0
    4.5560    1.3830   19.1360 C   0  0  0  0  0  0  0  0  0  0  0  0
    5.3030    1.2470   17.9870 C   0  0  0  0  0  0  0  0  0  0  0  0
    6.4360    0.5350   17.9190 N   0  0  0  0  0  0  0  0  0  0  0  0
    6.8450   -0.0700   19.0640 C   0  0  0  0  0  0  0  0  0  0  0  0
    6.1790   -0.0060   20.2940 C   0  0  0  0  0  0  0  0  0  0  0  0
  1  4  1  0
  2  4  2  0
  7  6  1  1
  7  8  1  0
  7  9  1  0
  4 10  1  0
  7 11  1  0
 11  9  1  6
 10 11  1  0
 12  8  1  1
 11 12  1  0
  5 13  1  0
 12 13  1  0
 13 14  1  0
 10 15  1  0
 14 15  1  0
  5 17  1  0
 16 17  2  0
 17 18  1  0
  3 19  1  0
 18 19  1  0
 16 20  1  0
 19 20  2  0
 21 22  2  0
 22 23  1  0
 23 24  2  0
 24 25  1  0
  8 26  1  0
 21 26  1  0
 25 26  2  0
 27 28  2  0
 28 29  1  0
 29 30  2  0
 30 31  1  0
  9 32  1  0
 27 32  1  0
 31 32  2  0
M  END
