x0434-x2643
     RDKit          3D

 16 17  0  0  0  0  0  0  0  0999 V2000
    6.7280   -1.0150   20.7780 N   0  0  0  0  0  0  0  0  0  0  0  0
    8.5100    0.3680   21.2480 O   0  0  0  0  0  0  0  0  0  0  0  0
   13.4180    0.2370   22.9550 Cl  0  0  0  0  0  0  0  0  0  0  0  0
    8.3720   -1.6620   22.4690 C   0  0  0  0  0  0  0  0  0  0  0  0
    7.8750   -0.6710   21.4340 C   0  0  0  0  0  0  0  0  0  0  0  0
   11.7950   -0.0130   23.1890 C   0  0  0  0  0  0  0  0  0  0  0  0
   10.9020    0.7150   24.1000 C   0  0  0  0  0  0  0  0  0  0  0  0
    9.5450    0.2120   23.9970 C   0  0  0  0  0  0  0  0  0  0  0  0
    9.5270   -0.9030   22.9510 C   0  0  0  0  0  0  0  0  0  0  0  0
   11.0690   -1.2220   22.2770 S   0  0  0  0  0  0  0  0  0  0  0  0
    6.3830    0.7900   17.6130 N   0  0  0  0  0  0  0  0  0  0  0  0
    6.8030    0.0170   18.6190 C   0  0  0  0  0  0  0  0  0  0  0  0
    6.1240   -0.1480   19.7830 C   0  0  0  0  0  0  0  0  0  0  0  0
    4.9380    0.4690   20.0210 C   0  0  0  0  0  0  0  0  0  0  0  0
    4.4670    1.2870   18.9870 C   0  0  0  0  0  0  0  0  0  0  0  0
    5.2000    1.4130   17.8430 C   0  0  0  0  0  0  0  0  0  0  0  0
  1  5  1  0
  2  5  2  0
  4  5  1  0
  3  6  1  0
  6  7  2  0
  7  8  1  0
  4  9  1  0
  8  9  2  0
  6 10  1  0
  9 10  1  0
 11 12  2  0
  1 13  1  0
 12 13  1  0
 13 14  2  0
 14 15  1  0
 11 16  1  0
 15 16  2  0
M  END
