x0434-x0397
     RDKit          3D

 24 26  0  0  0  0  0  0  0  0999 V2000
    7.9900   -1.9490   21.1170 C   0  0  0  0  0  0  0  0  0  0  0  0
    6.8020   -2.0340   20.2120 N   0  0  0  0  0  0  0  0  0  0  0  0
    6.8980   -1.5370   18.8460 C   0  0  0  0  0  0  0  0  0  0  0  0
    3.6320    2.3970   19.2420 C   0  0  0  0  0  0  0  0  0  0  0  0
    5.9480   -3.1910   20.5620 C   0  0  0  0  0  0  0  0  0  0  0  0
    5.3710   -3.8620   19.6890 O   0  0  0  0  0  0  0  0  0  0  0  0
    5.8460   -3.5280   21.9430 N   0  0  0  0  0  0  0  0  0  0  0  0
    8.1610    0.4640   20.9670 O   0  0  0  0  0  0  0  0  0  0  0  0
    8.4000   -0.5730   21.5830 C   0  0  0  0  0  0  0  0  0  0  0  0
    9.0870   -0.7140   22.7480 N   0  0  0  0  0  0  0  0  0  0  0  0
    4.9830    0.1990   19.5720 C   0  0  0  0  0  0  0  0  0  0  0  0
    6.1070   -0.3030   18.7020 C   0  0  0  0  0  0  0  0  0  0  0  0
    6.3310    0.5470   17.7070 N   0  0  0  0  0  0  0  0  0  0  0  0
    5.4290    1.5750   17.8660 O   0  0  0  0  0  0  0  0  0  0  0  0
    4.6410    1.3680   18.9600 C   0  0  0  0  0  0  0  0  0  0  0  0
    6.5620   -5.4090   23.1750 C   0  0  0  0  0  0  0  0  0  0  0  0
    5.6410   -4.8620   22.4330 C   0  0  0  0  0  0  0  0  0  0  0  0
    5.9710   -5.8700   21.7200 C   0  0  0  0  0  0  0  0  0  0  0  0
   10.7420    0.8550   23.4380 C   0  0  0  0  0  0  0  0  0  0  0  0
   12.0390    1.2600   23.5290 C   0  0  0  0  0  0  0  0  0  0  0  0
   13.1280    0.4350   23.0160 C   0  0  0  0  0  0  0  0  0  0  0  0
   12.7180   -0.8300   22.4210 C   0  0  0  0  0  0  0  0  0  0  0  0
   11.3760   -1.1880   22.3510 C   0  0  0  0  0  0  0  0  0  0  0  0
   10.3970   -0.3310   22.8610 C   0  0  0  0  0  0  0  0  0  0  0  0
  1  2  1  0
  2  3  1  0
  2  5  1  0
  5  6  2  0
  5  7  1  0
  1  9  1  0
  8  9  2  0
  9 10  1  0
  3 12  1  0
 11 12  1  0
 12 13  2  0
 13 14  1  0
  4 15  1  0
 11 15  2  0
 14 15  1  0
  7 17  1  0
 16 17  1  0
 16 18  1  0
 17 18  1  0
 19 20  2  0
 20 21  1  0
 21 22  2  0
 22 23  1  0
 10 24  1  0
 19 24  1  0
 23 24  2  0
M  END
