x0434-x0499
     RDKit          3D

 17 18  0  0  0  0  0  0  0  0999 V2000
   25.8450    6.3400   13.7180 N   0  0  0  0  0  0  0  0  0  0  0  0
   25.7170    4.9920   13.5070 C   0  0  0  0  0  0  0  0  0  0  0  0
   25.9310    4.1740   14.3940 O   0  0  0  0  0  0  0  0  0  0  0  0
   24.1440    3.3820    8.0570 N   0  0  0  0  0  0  0  0  0  0  0  0
   22.9470    2.7440    7.7620 C   0  0  0  0  0  0  0  0  0  0  0  0
   22.1530    2.3540    8.6040 O   0  0  0  0  0  0  0  0  0  0  0  0
   25.3050    4.5490   12.1010 C   0  0  0  0  0  0  0  0  0  0  0  0
   24.9550    3.2310   11.8310 C   0  0  0  0  0  0  0  0  0  0  0  0
   24.5400    2.7340   10.4500 C   0  0  0  0  0  0  0  0  0  0  0  0
   24.5270    3.7870    9.3490 C   0  0  0  0  0  0  0  0  0  0  0  0
   24.9320    5.1970    9.7700 C   0  0  0  0  0  0  0  0  0  0  0  0
   25.2890    5.5090   11.0820 C   0  0  0  0  0  0  0  0  0  0  0  0
   23.0690    1.2830    5.8760 C   0  0  0  0  0  0  0  0  0  0  0  0
   22.6930    2.5650    6.2450 C   0  0  2  0  0  0  0  0  0  0  0  0
   23.5500    3.3620    5.4390 O   0  0  0  0  0  0  0  0  0  0  0  0
   24.3280    2.4540    4.6510 C   0  0  0  0  0  0  0  0  0  0  0  0
   23.6070    1.2450    4.6390 C   0  0  0  0  0  0  0  0  0  0  0  0
  1  2  1  0
  2  3  2  0
  4  5  1  0
  5  6  2  0
  2  7  1  0
  7  8  2  0
  8  9  1  0
  4 10  1  0
  9 10  2  0
 10 11  1  0
  7 12  1  0
 11 12  2  0
 14  5  1  1
 13 14  1  0
 14 15  1  0
 15 16  1  0
 13 17  1  0
 16 17  1  0
M  END
