x0434-x2569
     RDKit          3D

 18 19  0  0  0  0  0  0  0  0999 V2000
    8.2800    0.5670   21.6930 C   0  0  0  0  0  0  0  0  0  0  0  0
    9.0730    1.6800   21.2420 O   0  0  0  0  0  0  0  0  0  0  0  0
    8.3650   -0.3560   22.7930 C   0  0  0  0  0  0  0  0  0  0  0  0
   13.8790   -1.8250   20.5560 N   0  0  0  0  0  0  0  0  0  0  0  0
    7.0780   -0.1850   21.3400 N   0  0  0  0  0  0  0  0  0  0  0  0
   13.1470   -1.4630   21.5870 C   0  0  0  0  0  0  0  0  0  0  0  0
   11.7260   -0.0110   24.7050 N   0  0  0  0  0  0  0  0  0  0  0  0
   12.5950   -0.4830   23.8220 C   0  0  0  0  0  0  0  0  0  0  0  0
   12.2740   -0.9900   22.5090 C   0  0  0  0  0  0  0  0  0  0  0  0
   10.8140   -0.9410   22.2000 C   0  0  0  0  0  0  0  0  0  0  0  0
    9.7960   -0.4090   23.1570 C   0  0  0  0  0  0  0  0  0  0  0  0
   10.2770    0.0490   24.4050 C   0  0  0  0  0  0  0  0  0  0  0  0
    6.3190    0.4480   17.8040 N   0  0  0  0  0  0  0  0  0  0  0  0
    6.9010    0.0240   18.9380 C   0  0  0  0  0  0  0  0  0  0  0  0
    6.3780    0.2600   20.1900 C   0  0  0  0  0  0  0  0  0  0  0  0
    5.2100    0.9340   20.2700 C   0  0  0  0  0  0  0  0  0  0  0  0
    4.5430    1.4000   19.1240 C   0  0  0  0  0  0  0  0  0  0  0  0
    5.1650    1.1230   17.9150 C   0  0  0  0  0  0  0  0  0  0  0  0
  1  2  2  0
  1  3  1  0
  1  5  1  0
  4  6  3  0
  7  8  2  0
  6  9  1  0
  8  9  1  0
  9 10  2  0
  3 11  1  0
 10 11  1  0
  7 12  1  0
 11 12  2  0
 13 14  2  0
  5 15  1  0
 14 15  1  0
 15 16  2  0
 16 17  1  0
 13 18  1  0
 17 18  2  0
M  END
