x0434-x0689
     RDKit          3D

 34 37  0  0  0  0  0  0  0  0999 V2000
    7.7310   -3.5400   20.2450 C   0  0  0  0  0  0  0  0  0  0  0  0
    5.5190   -4.4590   19.9070 O   0  0  0  0  0  0  0  0  0  0  0  0
    6.5740   -4.4320   20.6000 C   0  0  0  0  0  0  0  0  0  0  0  0
    3.9230   -6.3490   25.9620 O   0  0  0  0  0  0  0  0  0  0  0  0
    5.6880   -4.7060   26.6890 O   0  0  0  0  0  0  0  0  0  0  0  0
    4.6880   -5.1430   25.7390 S   0  0  0  0  0  0  0  0  0  0  0  0
    8.5270    0.7610   21.1930 O   0  0  0  0  0  0  0  0  0  0  0  0
    8.2400   -0.4220   21.3710 C   0  0  0  0  0  0  0  0  0  0  0  0
    9.0340   -1.1830   22.2060 N   0  0  0  0  0  0  0  0  0  0  0  0
    7.1010   -1.0120   20.7360 N   0  0  0  0  0  0  0  0  0  0  0  0
    7.2080   -2.1650   19.7960 C   0  0  0  0  0  0  0  0  0  0  0  0
    6.6840   -5.2260   21.7320 N   0  0  0  0  0  0  0  0  0  0  0  0
    5.6430   -6.2310   21.9610 C   0  0  0  0  0  0  0  0  0  0  0  0
    4.6720   -5.8060   23.0760 C   0  0  0  0  0  0  0  0  0  0  0  0
    5.4630   -5.3180   24.2500 N   0  0  0  0  0  0  0  0  0  0  0  0
    6.5930   -4.3720   23.9480 C   0  0  0  0  0  0  0  0  0  0  0  0
    7.4390   -4.8730   22.9460 C   0  0  0  0  0  0  0  0  0  0  0  0
    3.9080   -2.2440   25.9570 S   0  0  0  0  0  0  0  0  0  0  0  0
    3.4430   -3.8750   25.6440 C   0  0  0  0  0  0  0  0  0  0  0  0
    2.0840   -3.9480   25.3560 C   0  0  0  0  0  0  0  0  0  0  0  0
    1.4830   -2.7530   25.4000 C   0  0  0  0  0  0  0  0  0  0  0  0
    2.3100   -1.6730   25.7150 C   0  0  0  0  0  0  0  0  0  0  0  0
   10.4620    0.3810   23.4170 C   0  0  0  0  0  0  0  0  0  0  0  0
   11.7790    0.8810   23.8060 C   0  0  0  0  0  0  0  0  0  0  0  0
   12.8960    0.1150   23.2510 C   0  0  0  0  0  0  0  0  0  0  0  0
   12.7120   -0.9860   22.4370 C   0  0  0  0  0  0  0  0  0  0  0  0
   11.4310   -1.4120   22.1030 C   0  0  0  0  0  0  0  0  0  0  0  0
   10.3090   -0.7260   22.5900 C   0  0  0  0  0  0  0  0  0  0  0  0
    5.1490    0.5410   20.2280 C   0  0  0  0  0  0  0  0  0  0  0  0
    4.5310    1.3780   19.3030 C   0  0  0  0  0  0  0  0  0  0  0  0
    5.1380    1.5410   18.0670 C   0  0  0  0  0  0  0  0  0  0  0  0
    6.2850    0.9380   17.7240 N   0  0  0  0  0  0  0  0  0  0  0  0
    6.8330    0.1460   18.6510 C   0  0  0  0  0  0  0  0  0  0  0  0
    6.3440   -0.1100   19.9130 C   0  0  0  0  0  0  0  0  0  0  0  0
  1  3  1  0
  2  3  2  0
  4  6  2  0
  5  6  2  0
  7  8  2  0
  8  9  1  0
  8 10  1  0
  1 11  1  0
 10 11  1  0
  3 12  1  0
 12 13  1  0
 13 14  1  0
  6 15  1  0
 14 15  1  0
 15 16  1  0
 12 17  1  0
 16 17  1  0
  6 19  1  0
 18 19  1  0
 19 20  2  0
 20 21  1  0
 18 22  1  0
 21 22  2  0
 23 24  2  0
 24 25  1  0
 25 26  2  0
 26 27  1  0
  9 28  1  0
 23 28  1  0
 27 28  2  0
 29 30  2  0
 30 31  1  0
 31 32  2  0
 32 33  1  0
 10 34  1  0
 29 34  1  0
 33 34  2  0
M  END
