x0434-x2964
     RDKit          3D

 18 19  0  0  0  0  0  0  0  0999 V2000
    3.1650    2.1450   19.1500 N   0  0  0  0  0  0  0  0  0  0  0  0
    8.7460    1.4420   21.0930 O   0  0  0  0  0  0  0  0  0  0  0  0
   13.1950   -2.3520   21.3400 Cl  0  0  0  0  0  0  0  0  0  0  0  0
    7.2930   -0.3800   20.9520 N   0  0  0  0  0  0  0  0  0  0  0  0
    8.8980   -0.3190   22.5600 N   0  0  0  0  0  0  0  0  0  0  0  0
    8.3390    0.3390   21.4970 C   0  0  0  0  0  0  0  0  0  0  0  0
    4.3590    1.4640   19.1720 C   0  0  0  0  0  0  0  0  0  0  0  0
    4.8740    1.0120   20.5430 C   0  0  0  0  0  0  0  0  0  0  0  0
    6.1470    0.3180   20.3360 C   0  0  0  0  0  0  0  0  0  0  0  0
    6.8990    0.0220   19.1160 C   0  0  0  0  0  0  0  0  0  0  0  0
    6.4420    0.4180   17.9220 N   0  0  0  0  0  0  0  0  0  0  0  0
    5.1760    1.1430   17.9520 C   0  0  0  0  0  0  0  0  0  0  0  0
   10.8680    0.7720   23.4990 C   0  0  0  0  0  0  0  0  0  0  0  0
   12.2380    0.7710   23.5690 C   0  0  0  0  0  0  0  0  0  0  0  0
   12.9900   -0.1490   22.9390 C   0  0  0  0  0  0  0  0  0  0  0  0
   12.3890   -1.1390   22.1930 C   0  0  0  0  0  0  0  0  0  0  0  0
   11.0570   -1.1430   22.1210 C   0  0  0  0  0  0  0  0  0  0  0  0
   10.2590   -0.1930   22.7610 C   0  0  0  0  0  0  0  0  0  0  0  0
  2  6  2  0
  4  6  1  0
  5  6  1  0
  1  7  1  0
  7  8  2  0
  4  9  1  0
  8  9  1  0
  9 10  2  0
 10 11  1  0
  7 12  1  0
 11 12  2  0
 13 14  2  0
 14 15  1  0
  3 16  1  0
 15 16  2  0
 16 17  1  0
  5 18  1  0
 13 18  1  0
 17 18  2  0
M  END
