x0434-x1311
     RDKit          3D

 35 38  0  0  0  0  0  0  0  0999 V2000
    5.5270   -4.6560   20.3060 O   0  0  0  0  0  0  0  0  0  0  0  0
    6.2780   -4.4350   21.2880 C   0  0  0  0  0  0  0  0  0  0  0  0
    7.6320   -3.8790   21.1200 C   0  0  0  0  0  0  0  0  0  0  0  0
    6.0820   -4.6280   22.6570 N   0  0  0  0  0  0  0  0  0  0  0  0
    3.9740   -7.7310   25.2580 O   0  0  0  0  0  0  0  0  0  0  0  0
    1.8390   -6.1740   24.8320 O   0  0  0  0  0  0  0  0  0  0  0  0
    8.7490    1.2790   21.0600 O   0  0  0  0  0  0  0  0  0  0  0  0
    8.2710    0.2160   21.4880 C   0  0  0  0  0  0  0  0  0  0  0  0
    8.9850   -0.6110   22.3270 N   0  0  0  0  0  0  0  0  0  0  0  0
    6.9810   -0.2440   21.1610 N   0  0  0  0  0  0  0  0  0  0  0  0
    7.6540   -2.4740   20.5850 C   0  0  0  0  0  0  0  0  0  0  0  0
    6.6500   -1.6390   21.3300 C   0  0  0  0  0  0  0  0  0  0  0  0
    8.0620   -5.8750   23.2290 C   0  0  0  0  0  0  0  0  0  0  0  0
    9.2750   -6.0030   24.0900 C   0  0  0  0  0  0  0  0  0  0  0  0
    9.5630   -5.0490   25.0320 C   0  0  0  0  0  0  0  0  0  0  0  0
    8.7120   -3.9480   25.1750 C   0  0  0  0  0  0  0  0  0  0  0  0
    7.5810   -3.8150   24.3850 C   0  0  0  0  0  0  0  0  0  0  0  0
    7.2620   -4.7650   23.4330 C   0  0  0  0  0  0  0  0  0  0  0  0
    4.5120   -6.3870   22.2770 C   0  0  0  0  0  0  0  0  0  0  0  0
    5.2380   -5.6750   23.1760 C   0  0  2  0  0  0  0  0  0  0  0  0
    4.3270   -5.1930   24.3110 C   0  0  0  0  0  0  0  0  0  0  0  0
    3.2930   -6.6050   24.3580 S   0  0  0  0  0  0  0  0  0  0  0  0
    3.3850   -6.9660   22.7500 C   0  0  0  0  0  0  0  0  0  0  0  0
   10.6150    0.6620   23.5630 C   0  0  0  0  0  0  0  0  0  0  0  0
   11.9320    0.9130   23.8460 C   0  0  0  0  0  0  0  0  0  0  0  0
   12.9380    0.1740   23.2590 C   0  0  0  0  0  0  0  0  0  0  0  0
   12.6410   -0.8320   22.3810 C   0  0  0  0  0  0  0  0  0  0  0  0
   11.3150   -1.0860   22.0890 C   0  0  0  0  0  0  0  0  0  0  0  0
   10.2960   -0.3340   22.6770 C   0  0  0  0  0  0  0  0  0  0  0  0
    5.1750    1.1070   20.1530 C   0  0  0  0  0  0  0  0  0  0  0  0
    4.5910    1.6760   19.0250 C   0  0  0  0  0  0  0  0  0  0  0  0
    5.1950    1.4750   17.8100 C   0  0  0  0  0  0  0  0  0  0  0  0
    6.3120    0.7530   17.6550 N   0  0  0  0  0  0  0  0  0  0  0  0
    6.8520    0.2130   18.7600 C   0  0  0  0  0  0  0  0  0  0  0  0
    6.3410    0.3560   20.0380 C   0  0  0  0  0  0  0  0  0  0  0  0
  1  2  2  0
  2  3  1  0
  2  4  1  0
  7  8  2  0
  8  9  1  0
  8 10  1  0
  3 11  1  0
 10 12  1  0
 11 12  1  0
 13 14  2  0
 14 15  1  0
 15 16  2  0
 16 17  1  0
  4 18  1  0
 13 18  1  0
 17 18  2  0
 20  4  1  6
 19 20  1  0
 20 21  1  0
 22  5  1  0
  6 22  1  0
 21 22  1  0
 19 23  2  0
 22 23  1  0
 24 25  2  0
 25 26  1  0
 26 27  2  0
 27 28  1  0
  9 29  1  0
 24 29  1  0
 28 29  2  0
 30 31  2  0
 31 32  1  0
 32 33  2  0
 33 34  1  0
 10 35  1  0
 30 35  1  0
 34 35  2  0
M  END
