x0434-x2608
     RDKit          3D

 16 17  0  0  0  0  0  0  0  0999 V2000
    8.7740   -1.2210   22.3130 N   0  0  0  0  0  0  0  0  0  0  0  0
   12.9790    1.6080   22.9610 C   0  0  0  0  0  0  0  0  0  0  0  0
    8.3450    0.8090   21.2190 O   0  0  0  0  0  0  0  0  0  0  0  0
    6.8830   -0.9010   20.9000 N   0  0  0  0  0  0  0  0  0  0  0  0
    8.0110   -0.3460   21.4500 C   0  0  0  0  0  0  0  0  0  0  0  0
   12.0640    0.4960   22.8990 C   0  0  0  0  0  0  0  0  0  0  0  0
   12.3120   -0.9760   23.0850 C   0  0  0  0  0  0  0  0  0  0  0  0
   11.0680   -1.7530   22.8900 C   0  0  0  0  0  0  0  0  0  0  0  0
   10.0390   -0.6880   22.5800 C   0  0  0  0  0  0  0  0  0  0  0  0
   10.4430    0.9250   22.5530 S   0  0  0  0  0  0  0  0  0  0  0  0
    6.0480    0.6700   17.6930 N   0  0  0  0  0  0  0  0  0  0  0  0
    6.6300   -0.0460   18.6410 C   0  0  0  0  0  0  0  0  0  0  0  0
    6.2030   -0.1480   19.9390 C   0  0  0  0  0  0  0  0  0  0  0  0
    5.0740    0.5310   20.3230 C   0  0  0  0  0  0  0  0  0  0  0  0
    4.4350    1.3000   19.3440 C   0  0  0  0  0  0  0  0  0  0  0  0
    4.9480    1.3410   18.0840 C   0  0  0  0  0  0  0  0  0  0  0  0
  1  5  1  0
  3  5  2  0
  4  5  1  0
  2  6  1  0
  6  7  2  0
  7  8  1  0
  1  9  1  0
  8  9  2  0
  6 10  1  0
  9 10  1  0
 11 12  2  0
  4 13  1  0
 12 13  1  0
 13 14  2  0
 14 15  1  0
 11 16  1  0
 15 16  2  0
M  END
