x0434-x1249
     RDKit          3D

 28 30  0  0  0  0  0  0  0  0999 V2000
    8.2290    0.7600   24.7030 N   0  0  0  0  0  0  0  0  0  0  0  0
    7.3780    1.6420   24.1170 C   0  0  0  0  0  0  0  0  0  0  0  0
    7.7930    2.7200   23.6980 O   0  0  0  0  0  0  0  0  0  0  0  0
    9.5990    1.1400   24.8530 C   0  0  0  0  0  0  0  0  0  0  0  0
   13.5730   -2.4760   20.7500 N   0  0  0  0  0  0  0  0  0  0  0  0
   13.0440   -1.8170   21.4740 C   0  0  0  0  0  0  0  0  0  0  0  0
    8.6770    1.1490   21.0800 O   0  0  0  0  0  0  0  0  0  0  0  0
    8.0970   -0.1160   21.5000 C   0  0  0  0  0  0  0  0  0  0  0  0
    8.5970   -0.8230   22.5890 N   0  0  0  0  0  0  0  0  0  0  0  0
    7.1880   -0.6350   20.9870 N   0  0  0  0  0  0  0  0  0  0  0  0
    3.3160    1.0330   23.8090 O   0  0  0  0  0  0  0  0  0  0  0  0
    4.1130    0.9480   22.6240 C   0  0  0  0  0  0  0  0  0  0  0  0
    5.4020    1.7630   22.7600 C   0  0  0  0  0  0  0  0  0  0  0  0
    6.0640    1.3270   23.9980 N   0  0  0  0  0  0  0  0  0  0  0  0
    5.3420    0.2830   24.7310 C   0  0  0  0  0  0  0  0  0  0  0  0
    4.0290    0.6830   24.9980 C   0  0  0  0  0  0  0  0  0  0  0  0
   11.8990    0.5130   24.0390 C   0  0  0  0  0  0  0  0  0  0  0  0
   12.7770   -0.1850   23.2420 C   0  0  0  0  0  0  0  0  0  0  0  0
   12.2610   -1.0550   22.3200 C   0  0  0  0  0  0  0  0  0  0  0  0
   10.9250   -1.2250   22.1660 C   0  0  0  0  0  0  0  0  0  0  0  0
    9.9460   -0.5940   22.8710 C   0  0  0  0  0  0  0  0  0  0  0  0
   10.5020    0.3650   23.9330 C   0  0  0  0  0  0  0  0  0  0  0  0
    5.2310    0.6980   20.2010 C   0  0  0  0  0  0  0  0  0  0  0  0
    4.5980    1.3350   19.1360 C   0  0  0  0  0  0  0  0  0  0  0  0
    5.2040    1.2760   17.8890 C   0  0  0  0  0  0  0  0  0  0  0  0
    6.3520    0.6290   17.6760 N   0  0  0  0  0  0  0  0  0  0  0  0
    6.9320    0.0250   18.7240 C   0  0  0  0  0  0  0  0  0  0  0  0
    6.4340    0.0290   19.9990 C   0  0  0  0  0  0  0  0  0  0  0  0
  1  2  1  0
  2  3  2  0
  1  4  1  0
  5  6  3  0
  7  8  2  0
  8  9  1  0
  8 10  1  0
 11 12  1  0
 12 13  1  0
  2 14  1  0
 13 14  1  0
 14 15  1  0
 11 16  1  0
 15 16  1  0
 17 18  2  0
  6 19  1  0
 18 19  1  0
 19 20  2  0
  9 21  1  0
 20 21  1  0
  4 22  1  0
 17 22  1  0
 21 22  2  0
 23 24  2  0
 24 25  1  0
 25 26  2  0
 26 27  1  0
 10 28  1  0
 23 28  1  0
 27 28  2  0
M  END
