x0434-x2912
     RDKit          3D

 20 21  0  0  0  0  0  0  0  0999 V2000
    7.1400   -0.3930   21.0770 N   0  0  0  0  0  0  0  0  0  0  0  0
    8.2640   -0.9380   24.3000 C   0  0  0  0  0  0  0  0  0  0  0  0
    8.8800    1.1430   21.3130 O   0  0  0  0  0  0  0  0  0  0  0  0
    8.6230   -0.6880   22.9300 C   0  0  1  0  0  0  0  0  0  0  0  0
    8.2530    0.1340   21.6920 C   0  0  0  0  0  0  0  0  0  0  0  0
   13.6000   -3.1840   20.6310 N   0  0  0  0  0  0  0  0  0  0  0  0
    4.9390    1.2570   21.7010 C   0  0  0  0  0  0  0  0  0  0  0  0
   13.0340   -2.2110   21.4110 C   0  0  0  0  0  0  0  0  0  0  0  0
    6.2270    0.5360   17.6650 N   0  0  0  0  0  0  0  0  0  0  0  0
    5.1850    1.3320   17.8920 C   0  0  0  0  0  0  0  0  0  0  0  0
    4.6600    1.6340   19.2800 C   0  0  0  0  0  0  0  0  0  0  0  0
    5.3810    1.0070   20.2900 C   0  0  0  0  0  0  0  0  0  0  0  0
    6.4550    0.1970   20.0170 C   0  0  0  0  0  0  0  0  0  0  0  0
    6.8250   -0.0030   18.7100 C   0  0  0  0  0  0  0  0  0  0  0  0
   10.7330    0.4730   23.7430 C   0  0  0  0  0  0  0  0  0  0  0  0
   12.1200    0.6320   23.7710 C   0  0  0  0  0  0  0  0  0  0  0  0
   12.9110   -0.2230   23.0240 C   0  0  0  0  0  0  0  0  0  0  0  0
   12.3350   -1.2920   22.2030 C   0  0  0  0  0  0  0  0  0  0  0  0
   10.8940   -1.3740   22.2370 C   0  0  0  0  0  0  0  0  0  0  0  0
   10.1150   -0.5200   22.9810 C   0  0  0  0  0  0  0  0  0  0  0  0
  4  2  1  1
  1  5  1  0
  3  5  2  0
  4  5  1  0
  6  8  3  0
  9 10  2  0
 10 11  1  0
  7 12  1  0
 11 12  2  0
  1 13  1  0
 12 13  1  0
  9 14  1  0
 13 14  2  0
 15 16  2  0
 16 17  1  0
  8 18  1  0
 17 18  2  0
 18 19  1  0
  4 20  1  0
 15 20  1  0
 19 20  2  0
M  END
