x0434-x0305
     RDKit          3D

 21 22  0  0  0  0  0  0  0  0999 V2000
    8.6640    0.6790   21.3120 O   0  0  0  0  0  0  0  0  0  0  0  0
    8.1690   -0.3810   21.7190 C   0  0  0  0  0  0  0  0  0  0  0  0
    8.7560   -1.1620   22.7410 N   0  0  0  0  0  0  0  0  0  0  0  0
    6.9740   -0.8590   21.1690 N   0  0  0  0  0  0  0  0  0  0  0  0
    8.5550    0.5160   27.3120 C   0  0  0  0  0  0  0  0  0  0  0  0
    9.0760   -0.2740   26.1280 C   0  0  0  0  0  0  0  0  0  0  0  0
    9.3890    0.5380   25.0040 N   0  0  0  0  0  0  0  0  0  0  0  0
   13.2160   -1.4610   21.3670 C   0  0  0  0  0  0  0  0  0  0  0  0
   13.8440   -1.8490   20.5720 N   0  0  0  0  0  0  0  0  0  0  0  0
   10.4520    0.1080   24.0910 C   0  0  0  0  0  0  0  0  0  0  0  0
   11.9040    0.5010   24.2030 C   0  0  0  0  0  0  0  0  0  0  0  0
   12.8310   -0.0760   23.2170 C   0  0  0  0  0  0  0  0  0  0  0  0
   12.3600   -0.9150   22.2670 C   0  0  0  0  0  0  0  0  0  0  0  0
   11.0350   -1.2420   22.1550 C   0  0  0  0  0  0  0  0  0  0  0  0
   10.1230   -0.7350   23.0350 C   0  0  0  0  0  0  0  0  0  0  0  0
    5.1400    0.6070   20.2930 C   0  0  0  0  0  0  0  0  0  0  0  0
    4.5850    1.3160   19.2190 C   0  0  0  0  0  0  0  0  0  0  0  0
    5.2150    1.3080   17.9680 C   0  0  0  0  0  0  0  0  0  0  0  0
    6.3560    0.6400   17.7190 N   0  0  0  0  0  0  0  0  0  0  0  0
    6.9150   -0.0560   18.7280 C   0  0  0  0  0  0  0  0  0  0  0  0
    6.3280   -0.1160   20.1280 C   0  0  0  0  0  0  0  0  0  0  0  0
  1  2  2  0
  2  3  1  0
  2  4  1  0
  5  6  1  0
  6  7  1  0
  8  9  3  0
  7 10  1  0
 10 11  2  0
 11 12  1  0
  8 13  1  0
 12 13  2  0
 13 14  1  0
  3 15  1  0
 10 15  1  0
 14 15  2  0
 16 17  2  0
 17 18  1  0
 18 19  2  0
 19 20  1  0
  4 21  1  0
 16 21  1  0
 20 21  2  0
M  END
