x0434-x0887
     RDKit          3D

 16 17  0  0  0  0  0  0  0  0999 V2000
    8.5770    0.9630   21.1750 O   0  0  0  0  0  0  0  0  0  0  0  0
    8.2190   -0.1780   21.4940 C   0  0  0  0  0  0  0  0  0  0  0  0
    8.9450   -0.9660   22.3860 N   0  0  0  0  0  0  0  0  0  0  0  0
    7.0460   -0.7200   20.9590 N   0  0  0  0  0  0  0  0  0  0  0  0
   10.4790    0.4810   23.3900 C   0  0  0  0  0  0  0  0  0  0  0  0
   11.8480    0.9770   23.7050 C   0  0  0  0  0  0  0  0  0  0  0  0
   12.9440    0.2860   23.2290 C   0  0  0  0  0  0  0  0  0  0  0  0
   12.8410   -0.9800   22.3960 C   0  0  0  0  0  0  0  0  0  0  0  0
   11.4380   -1.4780   22.0700 C   0  0  0  0  0  0  0  0  0  0  0  0
   10.2750   -0.6570   22.6220 C   0  0  0  0  0  0  0  0  0  0  0  0
    5.1620    0.6420   20.2410 C   0  0  0  0  0  0  0  0  0  0  0  0
    4.5660    1.3230   19.1830 C   0  0  0  0  0  0  0  0  0  0  0  0
    5.1850    1.3010   17.9360 C   0  0  0  0  0  0  0  0  0  0  0  0
    6.3340    0.6400   17.7170 N   0  0  0  0  0  0  0  0  0  0  0  0
    6.8760   -0.0060   18.7620 C   0  0  0  0  0  0  0  0  0  0  0  0
    6.3580   -0.0440   20.0350 C   0  0  0  0  0  0  0  0  0  0  0  0
  1  2  2  0
  2  3  1  0
  2  4  1  0
  5  6  2  0
  6  7  1  0
  7  8  2  0
  8  9  1  0
  3 10  1  0
  5 10  1  0
  9 10  2  0
 11 12  2  0
 12 13  1  0
 13 14  2  0
 14 15  1  0
  4 16  1  0
 11 16  1  0
 15 16  2  0
M  END
