x0434-x1093
     RDKit          3D

 20 24  0  0  0  0  0  0  0  0999 V2000
   13.2780   -2.1380   23.7010 C   0  0  0  0  0  0  0  0  0  0  0  0
    8.3060    1.2320   21.9230 O   0  0  0  0  0  0  0  0  0  0  0  0
    8.6860    0.0650   22.0770 C   0  0  2  0  0  0  0  0  0  0  0  0
    8.1410   -0.9640   21.1030 C   0  0  0  0  0  0  0  0  0  0  0  0
    8.7110   -0.4820   23.1850 N   0  0  0  0  0  0  0  0  0  0  0  0
   12.3330   -1.2380   23.2920 N   0  0  0  0  0  0  0  0  0  0  0  0
   12.4700    0.1770   23.4170 C   0  0  0  0  0  0  0  0  0  0  0  0
   11.0990    0.9040   23.1140 C   0  0  0  0  0  0  0  0  0  0  0  0
   10.1020   -0.1580   22.7790 C   0  0  2  0  0  0  0  0  0  0  0  0
   10.0410   -0.9090   23.7590 C   0  0  2  0  0  0  0  0  0  0  0  0
   10.9680   -1.8330   23.3930 C   0  0  0  0  0  0  0  0  0  0  0  0
    6.2660    0.1050   17.7460 N   0  0  0  0  0  0  0  0  0  0  0  0
    7.3130   -0.6120   18.5530 C   0  0  0  0  0  0  0  0  0  0  0  0
    7.2550   -0.4240   20.0380 C   0  0  0  0  0  0  0  0  0  0  0  0
    6.0310    0.4560   20.1090 C   0  0  0  0  0  0  0  0  0  0  0  0
    5.4490    0.7980   18.7650 C   0  0  0  0  0  0  0  0  0  0  0  0
    4.3610    1.6080   18.6780 N   0  0  0  0  0  0  0  0  0  0  0  0
    3.7830    2.0370   19.8320 C   0  0  0  0  0  0  0  0  0  0  0  0
    4.2270    1.7640   21.1210 C   0  0  0  0  0  0  0  0  0  0  0  0
    5.3570    0.9880   21.3710 C   0  0  0  0  0  0  0  0  0  0  0  0
  3  2  1  1
  3  4  1  0
  3  5  1  0
  1  6  1  0
  6  7  1  0
  7  8  1  0
  3  9  1  0
  5  9  1  0
  9  8  1  1
  5 10  1  0
  9 10  1  0
  6 11  1  0
 10 11  1  6
 12 13  1  0
  4 14  1  0
 13 14  2  0
 14 15  1  0
 12 16  2  0
 15 16  1  0
 16 17  1  0
 17 18  1  0
 18 19  2  0
 15 20  2  0
 19 20  1  0
M  END
