x0434-x0072
     RDKit          3D

 22 23  0  0  0  0  0  0  0  0999 V2000
    6.6520   -5.0360   26.2310 C   0  0  0  0  0  0  0  0  0  0  0  0
    8.2270   -4.3180   25.8020 S   0  0  0  0  0  0  0  0  0  0  0  0
    9.0540   -5.3870   25.3110 O   0  0  0  0  0  0  0  0  0  0  0  0
    8.6420   -3.5470   26.9380 O   0  0  0  0  0  0  0  0  0  0  0  0
    7.8350   -3.2810   24.5090 N   0  0  0  0  0  0  0  0  0  0  0  0
    8.6660   -3.0010   23.4000 C   0  0  0  0  0  0  0  0  0  0  0  0
    8.8740   -1.4610   23.1810 C   0  0  2  0  0  0  0  0  0  0  0  0
    9.0770    0.0960   21.3940 O   0  0  0  0  0  0  0  0  0  0  0  0
    8.3700   -0.7740   21.9010 C   0  0  0  0  0  0  0  0  0  0  0  0
    7.1300   -1.0720   21.3290 N   0  0  0  0  0  0  0  0  0  0  0  0
   10.3390   -1.0960   23.1840 C   0  0  0  0  0  0  0  0  0  0  0  0
   11.3440   -1.8350   22.2790 C   0  0  0  0  0  0  0  0  0  0  0  0
   12.7870   -1.3860   22.3140 C   0  0  0  0  0  0  0  0  0  0  0  0
   13.0530   -0.3320   23.1760 C   0  0  0  0  0  0  0  0  0  0  0  0
   12.1230    0.2770   23.9600 C   0  0  0  0  0  0  0  0  0  0  0  0
   10.7880   -0.0560   24.0070 C   0  0  0  0  0  0  0  0  0  0  0  0
    5.3460    0.3870   20.4890 C   0  0  0  0  0  0  0  0  0  0  0  0
    4.7150    1.1330   19.4500 C   0  0  0  0  0  0  0  0  0  0  0  0
    5.3210    1.1130   18.1880 C   0  0  0  0  0  0  0  0  0  0  0  0
    6.4430    0.4400   17.8990 N   0  0  0  0  0  0  0  0  0  0  0  0
    7.0300   -0.2680   18.8880 C   0  0  0  0  0  0  0  0  0  0  0  0
    6.5250   -0.3400   20.2510 C   0  0  0  0  0  0  0  0  0  0  0  0
  1  2  1  0
  2  3  2  0
  2  4  2  0
  2  5  1  0
  5  6  1  0
  7  6  1  6
  7  9  1  0
  8  9  2  0
  9 10  1  0
  7 11  1  0
 11 12  2  0
 12 13  1  0
 13 14  2  0
 14 15  1  0
 11 16  1  0
 15 16  2  0
 17 18  2  0
 18 19  1  0
 19 20  2  0
 20 21  1  0
 10 22  1  0
 17 22  1  0
 21 22  2  0
M  END
