x0434-x2649
     RDKit          3D

 19 20  0  0  0  0  0  0  0  0999 V2000
    7.0130   -0.7060   21.0120 N   0  0  0  0  0  0  0  0  0  0  0  0
    7.7980   -0.9220   24.0260 C   0  0  0  0  0  0  0  0  0  0  0  0
    8.6360    0.9220   21.3690 O   0  0  0  0  0  0  0  0  0  0  0  0
   13.2840   -2.2430   21.1420 Cl  0  0  0  0  0  0  0  0  0  0  0  0
    8.5720   -1.1100   22.7360 C   0  0  1  0  0  0  0  0  0  0  0  0
    8.1020   -0.1510   21.6310 C   0  0  0  0  0  0  0  0  0  0  0  0
    4.8790    1.1050   21.8360 C   0  0  0  0  0  0  0  0  0  0  0  0
    6.2550    0.5820   17.6200 N   0  0  0  0  0  0  0  0  0  0  0  0
    5.2200    1.4860   17.8420 C   0  0  0  0  0  0  0  0  0  0  0  0
    4.7150    1.6930   19.2700 C   0  0  0  0  0  0  0  0  0  0  0  0
    5.3360    0.9270   20.4210 C   0  0  0  0  0  0  0  0  0  0  0  0
    6.3430    0.0820   19.9870 C   0  0  0  0  0  0  0  0  0  0  0  0
    6.7520   -0.0650   18.7020 C   0  0  0  0  0  0  0  0  0  0  0  0
   10.5720    0.0370   23.8010 C   0  0  0  0  0  0  0  0  0  0  0  0
   11.9030    0.2370   23.8890 C   0  0  0  0  0  0  0  0  0  0  0  0
   12.8240   -0.4420   23.0860 C   0  0  0  0  0  0  0  0  0  0  0  0
   12.3060   -1.3560   22.1780 C   0  0  0  0  0  0  0  0  0  0  0  0
   10.9030   -1.6380   22.0160 C   0  0  0  0  0  0  0  0  0  0  0  0
   10.0440   -0.8820   22.8820 C   0  0  0  0  0  0  0  0  0  0  0  0
  5  2  1  1
  1  6  1  0
  3  6  2  0
  5  6  1  0
  8  9  2  0
  9 10  1  0
  7 11  1  0
 10 11  2  0
  1 12  1  0
 11 12  1  0
  8 13  1  0
 12 13  2  0
 14 15  2  0
 15 16  1  0
  4 17  1  0
 16 17  2  0
 17 18  1  0
  5 19  1  0
 14 19  1  0
 18 19  2  0
M  END
