x0434-x0107
     RDKit          3D

 17 18  0  0  0  0  0  0  0  0999 V2000
    8.6080    0.8130   21.3440 O   0  0  0  0  0  0  0  0  0  0  0  0
    8.2800   -0.3530   21.5290 C   0  0  0  0  0  0  0  0  0  0  0  0
    9.1270   -1.1800   22.4010 N   0  0  0  0  0  0  0  0  0  0  0  0
    7.0960   -0.8740   20.8870 N   0  0  0  0  0  0  0  0  0  0  0  0
    4.9920    0.9200   21.7330 C   0  0  0  0  0  0  0  0  0  0  0  0
   10.6250    0.4460   23.4100 C   0  0  0  0  0  0  0  0  0  0  0  0
   11.9150    1.0230   23.6880 C   0  0  0  0  0  0  0  0  0  0  0  0
   13.0980    0.3340   23.1470 C   0  0  0  0  0  0  0  0  0  0  0  0
   12.8440   -0.9550   22.3480 C   0  0  0  0  0  0  0  0  0  0  0  0
   11.4460   -1.5000   22.0990 C   0  0  0  0  0  0  0  0  0  0  0  0
   10.4040   -0.7600   22.6380 C   0  0  0  0  0  0  0  0  0  0  0  0
    5.4030    0.7670   20.3020 C   0  0  0  0  0  0  0  0  0  0  0  0
    4.7700    1.5140   19.3040 C   0  0  0  0  0  0  0  0  0  0  0  0
    5.1890    1.3500   18.0270 C   0  0  0  0  0  0  0  0  0  0  0  0
    6.1740    0.5130   17.6620 N   0  0  0  0  0  0  0  0  0  0  0  0
    6.7680   -0.2010   18.6240 C   0  0  0  0  0  0  0  0  0  0  0  0
    6.4200   -0.1070   19.9390 C   0  0  0  0  0  0  0  0  0  0  0  0
  1  2  2  0
  2  3  1  0
  2  4  1  0
  6  7  2  0
  7  8  1  0
  8  9  2  0
  9 10  1  0
  3 11  1  0
  6 11  1  0
 10 11  2  0
  5 12  1  0
 12 13  2  0
 13 14  1  0
 14 15  2  0
 15 16  1  0
  4 17  1  0
 12 17  1  0
 16 17  2  0
M  END
