x0464
     RDKit          3D

 15 16  0  0  0  0  0  0  0  0999 V2000
   22.3970   14.9930    8.4530 C   0  0  0  0  0  0  0  0  0  0  0  0
   21.2820   14.9050    7.4130 C   0  0  2  0  0  0  0  0  0  0  0  0
   20.5710   13.5630    7.6590 C   0  0  1  0  0  0  0  0  0  0  0  0
   19.2030   13.7510    7.4160 O   0  0  0  0  0  0  0  0  0  0  0  0
   21.0500   12.4640    6.8580 C   0  0  0  0  0  0  0  0  0  0  0  0
   22.3600   12.6270    6.2840 C   0  0  0  0  0  0  0  0  0  0  0  0
   22.5850   13.9590    5.5820 C   0  0  0  0  0  0  0  0  0  0  0  0
   21.8090   15.0860    6.0670 N   0  0  0  0  0  0  0  0  0  0  0  0
   22.4560   16.1280    5.8860 C   0  0  0  0  0  0  0  0  0  0  0  0
   21.6490   17.3890    5.5760 C   0  0  0  0  0  0  0  0  0  0  0  0
   21.2790   17.6400    4.2600 C   0  0  0  0  0  0  0  0  0  0  0  0
   20.5660   18.7890    3.9460 C   0  0  0  0  0  0  0  0  0  0  0  0
   20.2360   19.6950    4.9450 C   0  0  0  0  0  0  0  0  0  0  0  0
   20.6130   19.4540    6.2590 C   0  0  0  0  0  0  0  0  0  0  0  0
   21.3300   18.3050    6.5760 C   0  0  0  0  0  0  0  0  0  0  0  0
  2  1  1  1
  2  3  1  0
  3  4  1  6
  3  5  1  0
  5  6  1  0
  6  7  1  0
  2  8  1  0
  7  8  1  0
  8  9  1  0
  9 10  1  0
 10 11  2  0
 11 12  1  0
 12 13  2  0
 13 14  1  0
 10 15  1  0
 14 15  2  0
M  END
