x0464-x0887
     RDKit          3D

 15 16  0  0  0  0  0  0  0  0999 V2000
   22.2090   14.9650    8.4580 C   0  0  0  0  0  0  0  0  0  0  0  0
   19.6350   13.1420    8.1360 O   0  0  0  0  0  0  0  0  0  0  0  0
   22.6560   16.3710    5.7840 C   0  0  0  0  0  0  0  0  0  0  0  0
   21.2840   14.8440    7.2410 C   0  0  1  0  0  0  0  0  0  0  0  0
   21.9110   15.1310    5.9270 N   0  0  0  0  0  0  0  0  0  0  0  0
   22.5900   13.9570    5.3570 C   0  0  0  0  0  0  0  0  0  0  0  0
   22.8480   12.8250    6.3500 C   0  0  0  0  0  0  0  0  0  0  0  0
   21.5520   12.3510    6.9730 C   0  0  0  0  0  0  0  0  0  0  0  0
   20.5650   13.4970    7.1330 C   0  0  1  0  0  0  0  0  0  0  0  0
   21.2720   17.8610    4.2730 C   0  0  0  0  0  0  0  0  0  0  0  0
   20.4010   18.9330    4.1040 C   0  0  0  0  0  0  0  0  0  0  0  0
   19.9790   19.6500    5.2270 C   0  0  0  0  0  0  0  0  0  0  0  0
   20.4070   19.3130    6.4960 C   0  0  0  0  0  0  0  0  0  0  0  0
   21.2730   18.2480    6.6670 C   0  0  0  0  0  0  0  0  0  0  0  0
   21.7130   17.5180    5.5620 C   0  0  0  0  0  0  0  0  0  0  0  0
  4  1  1  1
  3  5  1  0
  4  5  1  0
  5  6  1  0
  6  7  1  0
  7  8  1  0
  9  2  1  1
  4  9  1  0
  8  9  1  0
 10 11  2  0
 11 12  1  0
 12 13  2  0
 13 14  1  0
  3 15  1  0
 10 15  1  0
 14 15  2  0
M  END
