x0464-x0390
     RDKit          3D

 26 29  0  0  0  0  0  0  0  0999 V2000
   22.6030   17.8880    2.6610 O   0  0  0  0  0  0  0  0  0  0  0  0
   23.5540   16.6490    5.0190 C   0  0  0  0  0  0  0  0  0  0  0  0
   23.3220   15.6300    4.1140 N   0  0  0  0  0  0  0  0  0  0  0  0
   22.5000   15.3980    8.5760 C   0  0  0  0  0  0  0  0  0  0  0  0
   19.4870   13.6560    7.3950 O   0  0  0  0  0  0  0  0  0  0  0  0
   22.1750   18.3060    3.7280 C   0  0  0  0  0  0  0  0  0  0  0  0
   22.5590   17.7750    4.9840 C   0  0  0  0  0  0  0  0  0  0  0  0
   22.0350   18.2860    6.2000 C   0  0  0  0  0  0  0  0  0  0  0  0
   21.1330   19.3420    6.1330 C   0  0  0  0  0  0  0  0  0  0  0  0
   20.7250   19.9260    4.7930 C   0  0  0  0  0  0  0  0  0  0  0  0
   21.2330   19.4110    3.6390 C   0  0  0  0  0  0  0  0  0  0  0  0
   24.9950   14.1740    5.1660 N   0  0  0  0  0  0  0  0  0  0  0  0
   23.5940   14.2990    4.6650 C   0  0  0  0  0  0  0  0  0  0  0  0
   23.2710   13.2510    3.6120 N   0  0  0  0  0  0  0  0  0  0  0  0
   24.4230   12.5290    3.6210 C   0  0  0  0  0  0  0  0  0  0  0  0
   25.3350   13.0310    4.4630 C   0  0  0  0  0  0  0  0  0  0  0  0
   26.5900   12.4710    4.6580 C   0  0  0  0  0  0  0  0  0  0  0  0
   26.9540   11.3250    3.9530 C   0  0  0  0  0  0  0  0  0  0  0  0
   26.0270   10.7730    3.0490 C   0  0  0  0  0  0  0  0  0  0  0  0
   24.7540   11.3730    2.8740 C   0  0  0  0  0  0  0  0  0  0  0  0
   21.4620   14.9670    7.5580 C   0  0  1  0  0  0  0  0  0  0  0  0
   21.9620   15.0380    6.1930 N   0  0  0  0  0  0  0  0  0  0  0  0
   22.7830   14.0170    5.8990 C   0  0  1  0  0  0  0  0  0  0  0  0
   22.2790   12.7440    6.0860 C   0  0  0  0  0  0  0  0  0  0  0  0
   21.4610   12.5280    7.1970 C   0  0  0  0  0  0  0  0  0  0  0  0
   20.8200   13.5980    7.8250 C   0  0  2  0  0  0  0  0  0  0  0  0
  2  3  1  0
  1  6  1  0
  2  7  1  0
  6  7  2  0
  7  8  1  0
  8  9  2  0
  9 10  1  0
  6 11  1  0
 10 11  2  0
 13  3  1  0
 12 13  1  0
 13 14  1  0
 14 15  2  0
 12 16  2  0
 15 16  1  0
 16 17  1  0
 17 18  2  0
 18 19  1  0
 15 20  1  0
 19 20  2  0
 21  4  1  1
 21 22  1  0
 23 13  1  6
 22 23  1  0
 23 24  1  0
 24 25  1  0
 26  5  1  6
 21 26  1  0
 25 26  1  0
M  END
