x0464-x0376
     RDKit          3D

 15 16  0  0  0  0  0  0  0  0999 V2000
   22.2080   14.9600    8.4580 C   0  0  0  0  0  0  0  0  0  0  0  0
   19.6380   13.1440    8.1330 O   0  0  0  0  0  0  0  0  0  0  0  0
   22.6570   16.3710    5.7860 C   0  0  0  0  0  0  0  0  0  0  0  0
   21.2880   14.8430    7.2410 C   0  0  1  0  0  0  0  0  0  0  0  0
   21.9150   15.1310    5.9280 N   0  0  0  0  0  0  0  0  0  0  0  0
   22.6020   13.9600    5.3590 C   0  0  0  0  0  0  0  0  0  0  0  0
   22.8490   12.8270    6.3510 C   0  0  0  0  0  0  0  0  0  0  0  0
   21.5500   12.3510    6.9600 C   0  0  0  0  0  0  0  0  0  0  0  0
   20.5620   13.4980    7.1290 C   0  0  1  0  0  0  0  0  0  0  0  0
   21.2720   17.8610    4.2760 C   0  0  0  0  0  0  0  0  0  0  0  0
   20.4010   18.9300    4.1060 C   0  0  0  0  0  0  0  0  0  0  0  0
   19.9750   19.6500    5.2270 C   0  0  0  0  0  0  0  0  0  0  0  0
   20.4060   19.3120    6.4960 C   0  0  0  0  0  0  0  0  0  0  0  0
   21.2720   18.2500    6.6680 C   0  0  0  0  0  0  0  0  0  0  0  0
   21.7140   17.5180    5.5660 C   0  0  0  0  0  0  0  0  0  0  0  0
  4  1  1  1
  3  5  1  0
  4  5  1  0
  5  6  1  0
  6  7  1  0
  7  8  1  0
  9  2  1  1
  4  9  1  0
  8  9  1  0
 10 11  2  0
 11 12  1  0
 12 13  2  0
 13 14  1  0
  3 15  1  0
 10 15  1  0
 14 15  2  0
M  END
