x0478-x0705
     RDKit          3D

 15 15  0  0  0  0  0  0  0  0999 V2000
   16.0330    2.0040  -14.4340 C   0  0  0  0  0  0  0  0  0  0  0  0
   16.8160    2.8170  -13.9570 O   0  0  0  0  0  0  0  0  0  0  0  0
   16.5700    3.0940  -12.7860 C   0  0  0  0  0  0  0  0  0  0  0  0
   15.6810    3.8400  -12.4120 O   0  0  0  0  0  0  0  0  0  0  0  0
   17.6180    1.1970   -8.1870 N   0  0  0  0  0  0  0  0  0  0  0  0
   17.8400    2.4190   -7.0710 S   0  0  0  0  0  0  0  0  0  0  0  0
   17.4720    1.8810   -5.7850 O   0  0  0  0  0  0  0  0  0  0  0  0
   19.0710    3.1460   -7.2750 O   0  0  0  0  0  0  0  0  0  0  0  0
   16.5360    3.4750   -7.5450 C   0  0  0  0  0  0  0  0  0  0  0  0
   17.5140    2.3680  -11.8540 C   0  0  0  0  0  0  0  0  0  0  0  0
   17.1550    2.1430  -10.5360 C   0  0  0  0  0  0  0  0  0  0  0  0
   18.0660    1.4110   -9.5720 C   0  0  0  0  0  0  0  0  0  0  0  0
   19.2840    0.9750  -10.0610 C   0  0  0  0  0  0  0  0  0  0  0  0
   19.6820    1.1940  -11.4100 C   0  0  0  0  0  0  0  0  0  0  0  0
   18.7740    1.8950  -12.2870 C   0  0  0  0  0  0  0  0  0  0  0  0
  1  2  1  0
  2  3  1  0
  3  4  2  0
  6  5  1  0
  6  7  2  0
  6  8  2  0
  6  9  1  0
  3 10  1  0
 10 11  2  0
  5 12  1  0
 11 12  1  0
 12 13  2  0
 13 14  1  0
 10 15  1  0
 14 15  2  0
M  END
