x0478-x1086
     RDKit          3D

 15 15  0  0  0  0  0  0  0  0999 V2000
   16.0600    2.0110  -14.4370 C   0  0  0  0  0  0  0  0  0  0  0  0
   16.8220    2.8410  -13.9570 O   0  0  0  0  0  0  0  0  0  0  0  0
   16.5700    3.1180  -12.7850 C   0  0  0  0  0  0  0  0  0  0  0  0
   15.6810    3.8650  -12.4190 O   0  0  0  0  0  0  0  0  0  0  0  0
   17.6110    1.2010   -8.1830 N   0  0  0  0  0  0  0  0  0  0  0  0
   17.8450    2.4260   -7.0730 S   0  0  0  0  0  0  0  0  0  0  0  0
   17.4820    1.8950   -5.7790 O   0  0  0  0  0  0  0  0  0  0  0  0
   19.0730    3.1510   -7.2880 O   0  0  0  0  0  0  0  0  0  0  0  0
   16.5420    3.4770   -7.5520 C   0  0  0  0  0  0  0  0  0  0  0  0
   17.5070    2.3860  -11.8470 C   0  0  0  0  0  0  0  0  0  0  0  0
   17.1440    2.1570  -10.5300 C   0  0  0  0  0  0  0  0  0  0  0  0
   18.0590    1.4170   -9.5680 C   0  0  0  0  0  0  0  0  0  0  0  0
   19.2720    0.9830  -10.0590 C   0  0  0  0  0  0  0  0  0  0  0  0
   19.6710    1.2050  -11.4040 C   0  0  0  0  0  0  0  0  0  0  0  0
   18.7660    1.9120  -12.2810 C   0  0  0  0  0  0  0  0  0  0  0  0
  1  2  1  0
  2  3  1  0
  3  4  2  0
  6  5  1  0
  6  7  2  0
  6  8  2  0
  6  9  1  0
  3 10  1  0
 10 11  2  0
  5 12  1  0
 11 12  1  0
 12 13  2  0
 13 14  1  0
 10 15  1  0
 14 15  2  0
M  END
