x0478-x1493
     RDKit          3D

 15 15  0  0  0  0  0  0  0  0999 V2000
   16.0500    1.9980  -14.4400 C   0  0  0  0  0  0  0  0  0  0  0  0
   16.8300    2.7950  -13.9390 O   0  0  0  0  0  0  0  0  0  0  0  0
   16.5740    3.0360  -12.7610 C   0  0  0  0  0  0  0  0  0  0  0  0
   15.6570    3.7410  -12.3710 O   0  0  0  0  0  0  0  0  0  0  0  0
   17.7830    1.2250   -8.1390 N   0  0  0  0  0  0  0  0  0  0  0  0
   17.6730    2.5830   -7.1710 S   0  0  0  0  0  0  0  0  0  0  0  0
   16.9800    2.1740   -5.9700 O   0  0  0  0  0  0  0  0  0  0  0  0
   18.9140    3.3170   -7.1170 O   0  0  0  0  0  0  0  0  0  0  0  0
   16.5650    3.4670   -8.1990 C   0  0  0  0  0  0  0  0  0  0  0  0
   17.5420    2.3200  -11.8430 C   0  0  0  0  0  0  0  0  0  0  0  0
   17.2270    2.1240  -10.5060 C   0  0  0  0  0  0  0  0  0  0  0  0
   18.1700    1.4100   -9.5520 C   0  0  0  0  0  0  0  0  0  0  0  0
   19.3650    0.9580  -10.0710 C   0  0  0  0  0  0  0  0  0  0  0  0
   19.7180    1.1440  -11.4420 C   0  0  0  0  0  0  0  0  0  0  0  0
   18.7850    1.8290  -12.3030 C   0  0  0  0  0  0  0  0  0  0  0  0
  1  2  1  0
  2  3  1  0
  3  4  2  0
  6  5  1  0
  6  7  2  0
  6  8  2  0
  6  9  1  0
  3 10  1  0
 10 11  2  0
  5 12  1  0
 11 12  1  0
 12 13  2  0
 13 14  1  0
 10 15  1  0
 14 15  2  0
M  END
