x0478-x0165
     RDKit          3D

 15 15  0  0  0  0  0  0  0  0999 V2000
   16.0570    1.9910  -14.4320 C   0  0  0  0  0  0  0  0  0  0  0  0
   16.8190    2.8270  -13.9560 O   0  0  0  0  0  0  0  0  0  0  0  0
   16.5660    3.1040  -12.7820 C   0  0  0  0  0  0  0  0  0  0  0  0
   15.6800    3.8520  -12.4150 O   0  0  0  0  0  0  0  0  0  0  0  0
   17.6190    1.2030   -8.1860 N   0  0  0  0  0  0  0  0  0  0  0  0
   17.8390    2.4280   -7.0680 S   0  0  0  0  0  0  0  0  0  0  0  0
   17.4650    1.8920   -5.7780 O   0  0  0  0  0  0  0  0  0  0  0  0
   19.0680    3.1540   -7.2660 O   0  0  0  0  0  0  0  0  0  0  0  0
   16.5380    3.4730   -7.5560 C   0  0  0  0  0  0  0  0  0  0  0  0
   17.5100    2.3780  -11.8480 C   0  0  0  0  0  0  0  0  0  0  0  0
   17.1500    2.1560  -10.5290 C   0  0  0  0  0  0  0  0  0  0  0  0
   18.0650    1.4200   -9.5660 C   0  0  0  0  0  0  0  0  0  0  0  0
   19.2770    0.9830  -10.0550 C   0  0  0  0  0  0  0  0  0  0  0  0
   19.6760    1.2000  -11.4030 C   0  0  0  0  0  0  0  0  0  0  0  0
   18.7690    1.9010  -12.2780 C   0  0  0  0  0  0  0  0  0  0  0  0
  1  2  1  0
  2  3  1  0
  3  4  2  0
  6  5  1  0
  6  7  2  0
  6  8  2  0
  6  9  1  0
  3 10  1  0
 10 11  2  0
  5 12  1  0
 11 12  1  0
 12 13  2  0
 13 14  1  0
 10 15  1  0
 14 15  2  0
M  END
