x0478-x0692
     RDKit          3D

 15 15  0  0  0  0  0  0  0  0999 V2000
   16.0470    2.0020  -14.4350 C   0  0  0  0  0  0  0  0  0  0  0  0
   16.8220    2.8150  -13.9420 O   0  0  0  0  0  0  0  0  0  0  0  0
   16.5700    3.0750  -12.7660 C   0  0  0  0  0  0  0  0  0  0  0  0
   15.6720    3.8030  -12.3870 O   0  0  0  0  0  0  0  0  0  0  0  0
   17.7540    1.2360   -8.1320 N   0  0  0  0  0  0  0  0  0  0  0  0
   17.6620    2.6030   -7.1720 S   0  0  0  0  0  0  0  0  0  0  0  0
   16.9620    2.2200   -5.9660 O   0  0  0  0  0  0  0  0  0  0  0  0
   18.9100    3.3290   -7.1270 O   0  0  0  0  0  0  0  0  0  0  0  0
   16.5680    3.4950   -8.2090 C   0  0  0  0  0  0  0  0  0  0  0  0
   17.5280    2.3500  -11.8390 C   0  0  0  0  0  0  0  0  0  0  0  0
   17.2060    2.1520  -10.5010 C   0  0  0  0  0  0  0  0  0  0  0  0
   18.1410    1.4250   -9.5430 C   0  0  0  0  0  0  0  0  0  0  0  0
   19.3360    0.9680  -10.0660 C   0  0  0  0  0  0  0  0  0  0  0  0
   19.6920    1.1570  -11.4310 C   0  0  0  0  0  0  0  0  0  0  0  0
   18.7680    1.8540  -12.2980 C   0  0  0  0  0  0  0  0  0  0  0  0
  1  2  1  0
  2  3  1  0
  3  4  2  0
  6  5  1  0
  6  7  2  0
  6  8  2  0
  6  9  1  0
  3 10  1  0
 10 11  2  0
  5 12  1  0
 11 12  1  0
 12 13  2  0
 13 14  1  0
 10 15  1  0
 14 15  2  0
M  END
