x0478-x0769
     RDKit          3D

 15 15  0  0  0  0  0  0  0  0999 V2000
   16.0520    2.0040  -14.4350 C   0  0  0  0  0  0  0  0  0  0  0  0
   16.8200    2.8340  -13.9590 O   0  0  0  0  0  0  0  0  0  0  0  0
   16.5660    3.1130  -12.7860 C   0  0  0  0  0  0  0  0  0  0  0  0
   15.6820    3.8650  -12.4260 O   0  0  0  0  0  0  0  0  0  0  0  0
   17.6130    1.1890   -8.1860 N   0  0  0  0  0  0  0  0  0  0  0  0
   17.8510    2.4120   -7.0720 S   0  0  0  0  0  0  0  0  0  0  0  0
   17.4990    1.8790   -5.7780 O   0  0  0  0  0  0  0  0  0  0  0  0
   19.0720    3.1510   -7.2920 O   0  0  0  0  0  0  0  0  0  0  0  0
   16.5370    3.4530   -7.5400 C   0  0  0  0  0  0  0  0  0  0  0  0
   17.5060    2.3840  -11.8480 C   0  0  0  0  0  0  0  0  0  0  0  0
   17.1440    2.1530  -10.5310 C   0  0  0  0  0  0  0  0  0  0  0  0
   18.0580    1.4160   -9.5710 C   0  0  0  0  0  0  0  0  0  0  0  0
   19.2760    0.9850  -10.0590 C   0  0  0  0  0  0  0  0  0  0  0  0
   19.6740    1.2130  -11.4040 C   0  0  0  0  0  0  0  0  0  0  0  0
   18.7680    1.9170  -12.2790 C   0  0  0  0  0  0  0  0  0  0  0  0
  1  2  1  0
  2  3  1  0
  3  4  2  0
  6  5  1  0
  6  7  2  0
  6  8  2  0
  6  9  1  0
  3 10  1  0
 10 11  2  0
  5 12  1  0
 11 12  1  0
 12 13  2  0
 13 14  1  0
 10 15  1  0
 14 15  2  0
M  END
