x0478
     RDKit          3D

 15 15  0  0  0  0  0  0  0  0999 V2000
   16.1780    2.3390  -14.6950 C   0  0  0  0  0  0  0  0  0  0  0  0
   16.9900    3.2560  -14.0310 O   0  0  0  0  0  0  0  0  0  0  0  0
   16.7250    3.2800  -12.6700 C   0  0  0  0  0  0  0  0  0  0  0  0
   15.8260    3.9440  -12.2760 O   0  0  0  0  0  0  0  0  0  0  0  0
   17.5830    2.4310  -11.7440 C   0  0  0  0  0  0  0  0  0  0  0  0
   18.6770    1.7520  -12.2450 C   0  0  0  0  0  0  0  0  0  0  0  0
   19.4520    0.9740  -11.4050 C   0  0  0  0  0  0  0  0  0  0  0  0
   19.1460    0.8670  -10.0640 C   0  0  0  0  0  0  0  0  0  0  0  0
   18.0540    1.5460   -9.5530 C   0  0  0  0  0  0  0  0  0  0  0  0
   17.7520    1.4100   -8.1350 N   0  0  0  0  0  0  0  0  0  0  0  0
   17.4250    2.7660   -7.1500 S   0  0  1  0  0  0  0  0  0  0  0  0
   17.2000    2.3610   -5.7500 O   0  0  0  0  0  0  0  0  0  0  0  0
   18.5940    3.6350   -7.0080 O   0  0  0  0  0  0  0  0  0  0  0  0
   16.0150    3.6530   -7.7380 C   0  0  0  0  0  0  0  0  0  0  0  0
   17.2790    2.3270  -10.4030 C   0  0  0  0  0  0  0  0  0  0  0  0
  1  2  1  0
  2  3  1  0
  3  4  2  0
  3  5  1  0
  5  6  2  0
  6  7  1  0
  7  8  2  0
  8  9  1  0
  9 10  1  0
 10 11  1  0
 11 12  2  0
 11 13  2  0
 11 14  1  6
  5 15  1  0
  9 15  2  0
M  END
