x0478-x0786
     RDKit          3D

 15 15  0  0  0  0  0  0  0  0999 V2000
   16.0390    2.0020  -14.4360 C   0  0  0  0  0  0  0  0  0  0  0  0
   16.8190    2.8150  -13.9550 O   0  0  0  0  0  0  0  0  0  0  0  0
   16.5710    3.0900  -12.7840 C   0  0  0  0  0  0  0  0  0  0  0  0
   15.6800    3.8370  -12.4120 O   0  0  0  0  0  0  0  0  0  0  0  0
   17.6300    1.1930   -8.1880 N   0  0  0  0  0  0  0  0  0  0  0  0
   17.8380    2.4240   -7.0740 S   0  0  0  0  0  0  0  0  0  0  0  0
   17.4650    1.8820   -5.7880 O   0  0  0  0  0  0  0  0  0  0  0  0
   19.0650    3.1550   -7.2720 O   0  0  0  0  0  0  0  0  0  0  0  0
   16.5360    3.4760   -7.5560 C   0  0  0  0  0  0  0  0  0  0  0  0
   17.5160    2.3640  -11.8510 C   0  0  0  0  0  0  0  0  0  0  0  0
   17.1600    2.1380  -10.5340 C   0  0  0  0  0  0  0  0  0  0  0  0
   18.0740    1.4060   -9.5720 C   0  0  0  0  0  0  0  0  0  0  0  0
   19.2890    0.9700  -10.0620 C   0  0  0  0  0  0  0  0  0  0  0  0
   19.6850    1.1900  -11.4110 C   0  0  0  0  0  0  0  0  0  0  0  0
   18.7770    1.8910  -12.2870 C   0  0  0  0  0  0  0  0  0  0  0  0
  1  2  1  0
  2  3  1  0
  3  4  2  0
  6  5  1  0
  6  7  2  0
  6  8  2  0
  6  9  1  0
  3 10  1  0
 10 11  2  0
  5 12  1  0
 11 12  1  0
 12 13  2  0
 13 14  1  0
 10 15  1  0
 14 15  2  0
M  END
