x0478-x1358
     RDKit          3D

 15 15  0  0  0  0  0  0  0  0999 V2000
   16.0440    2.0070  -14.4350 C   0  0  0  0  0  0  0  0  0  0  0  0
   16.8240    2.8220  -13.9560 O   0  0  0  0  0  0  0  0  0  0  0  0
   16.5710    3.0930  -12.7830 C   0  0  0  0  0  0  0  0  0  0  0  0
   15.6810    3.8340  -12.4090 O   0  0  0  0  0  0  0  0  0  0  0  0
   17.6250    1.1840   -8.1850 N   0  0  0  0  0  0  0  0  0  0  0  0
   17.8440    2.4170   -7.0740 S   0  0  0  0  0  0  0  0  0  0  0  0
   17.4790    1.8820   -5.7800 O   0  0  0  0  0  0  0  0  0  0  0  0
   19.0740    3.1470   -7.2780 O   0  0  0  0  0  0  0  0  0  0  0  0
   16.5400    3.4750   -7.5410 C   0  0  0  0  0  0  0  0  0  0  0  0
   17.5180    2.3650  -11.8540 C   0  0  0  0  0  0  0  0  0  0  0  0
   17.1570    2.1360  -10.5330 C   0  0  0  0  0  0  0  0  0  0  0  0
   18.0720    1.4030   -9.5720 C   0  0  0  0  0  0  0  0  0  0  0  0
   19.2870    0.9720  -10.0620 C   0  0  0  0  0  0  0  0  0  0  0  0
   19.6870    1.1940  -11.4110 C   0  0  0  0  0  0  0  0  0  0  0  0
   18.7770    1.8960  -12.2870 C   0  0  0  0  0  0  0  0  0  0  0  0
  1  2  1  0
  2  3  1  0
  3  4  2  0
  6  5  1  0
  6  7  2  0
  6  8  2  0
  6  9  1  0
  3 10  1  0
 10 11  2  0
  5 12  1  0
 11 12  1  0
 12 13  2  0
 13 14  1  0
 10 15  1  0
 14 15  2  0
M  END
