x0478-x0691
     RDKit          3D

 15 15  0  0  0  0  0  0  0  0999 V2000
   16.0390    2.0090  -14.4410 C   0  0  0  0  0  0  0  0  0  0  0  0
   16.8190    2.8190  -13.9590 O   0  0  0  0  0  0  0  0  0  0  0  0
   16.5710    3.0930  -12.7870 C   0  0  0  0  0  0  0  0  0  0  0  0
   15.6810    3.8360  -12.4150 O   0  0  0  0  0  0  0  0  0  0  0  0
   17.6200    1.1920   -8.1890 N   0  0  0  0  0  0  0  0  0  0  0  0
   17.8400    2.4190   -7.0750 S   0  0  0  0  0  0  0  0  0  0  0  0
   17.4780    1.8800   -5.7820 O   0  0  0  0  0  0  0  0  0  0  0  0
   19.0700    3.1440   -7.2800 O   0  0  0  0  0  0  0  0  0  0  0  0
   16.5390    3.4790   -7.5440 C   0  0  0  0  0  0  0  0  0  0  0  0
   17.5140    2.3670  -11.8550 C   0  0  0  0  0  0  0  0  0  0  0  0
   17.1560    2.1390  -10.5370 C   0  0  0  0  0  0  0  0  0  0  0  0
   18.0690    1.4080   -9.5740 C   0  0  0  0  0  0  0  0  0  0  0  0
   19.2880    0.9750  -10.0630 C   0  0  0  0  0  0  0  0  0  0  0  0
   19.6850    1.1970  -11.4130 C   0  0  0  0  0  0  0  0  0  0  0  0
   18.7760    1.8970  -12.2870 C   0  0  0  0  0  0  0  0  0  0  0  0
  1  2  1  0
  2  3  1  0
  3  4  2  0
  6  5  1  0
  6  7  2  0
  6  8  2  0
  6  9  1  0
  3 10  1  0
 10 11  2  0
  5 12  1  0
 11 12  1  0
 12 13  2  0
 13 14  1  0
 10 15  1  0
 14 15  2  0
M  END
