x0478-x0669
     RDKit          3D

 15 15  0  0  0  0  0  0  0  0999 V2000
   16.0420    2.0040  -14.4420 C   0  0  0  0  0  0  0  0  0  0  0  0
   16.8140    2.8310  -13.9680 O   0  0  0  0  0  0  0  0  0  0  0  0
   16.5630    3.1070  -12.7950 C   0  0  0  0  0  0  0  0  0  0  0  0
   15.6770    3.8540  -12.4260 O   0  0  0  0  0  0  0  0  0  0  0  0
   17.6210    1.1900   -8.1860 N   0  0  0  0  0  0  0  0  0  0  0  0
   17.8530    2.4150   -7.0700 S   0  0  0  0  0  0  0  0  0  0  0  0
   17.4950    1.8880   -5.7730 O   0  0  0  0  0  0  0  0  0  0  0  0
   19.0770    3.1520   -7.2850 O   0  0  0  0  0  0  0  0  0  0  0  0
   16.5380    3.4490   -7.5400 C   0  0  0  0  0  0  0  0  0  0  0  0
   17.5100    2.3790  -11.8550 C   0  0  0  0  0  0  0  0  0  0  0  0
   17.1460    2.1500  -10.5360 C   0  0  0  0  0  0  0  0  0  0  0  0
   18.0610    1.4160   -9.5710 C   0  0  0  0  0  0  0  0  0  0  0  0
   19.2780    0.9860  -10.0600 C   0  0  0  0  0  0  0  0  0  0  0  0
   19.6810    1.2090  -11.4050 C   0  0  0  0  0  0  0  0  0  0  0  0
   18.7730    1.9120  -12.2840 C   0  0  0  0  0  0  0  0  0  0  0  0
  1  2  1  0
  2  3  1  0
  3  4  2  0
  6  5  1  0
  6  7  2  0
  6  8  2  0
  6  9  1  0
  3 10  1  0
 10 11  2  0
  5 12  1  0
 11 12  1  0
 12 13  2  0
 13 14  1  0
 10 15  1  0
 14 15  2  0
M  END
