x0478-x1077
     RDKit          3D

 15 15  0  0  0  0  0  0  0  0999 V2000
   16.0450    1.9990  -14.4350 C   0  0  0  0  0  0  0  0  0  0  0  0
   16.8180    2.8230  -13.9570 O   0  0  0  0  0  0  0  0  0  0  0  0
   16.5700    3.1010  -12.7850 C   0  0  0  0  0  0  0  0  0  0  0  0
   15.6830    3.8480  -12.4160 O   0  0  0  0  0  0  0  0  0  0  0  0
   17.6170    1.2050   -8.1940 N   0  0  0  0  0  0  0  0  0  0  0  0
   17.8440    2.4290   -7.0760 S   0  0  0  0  0  0  0  0  0  0  0  0
   17.4720    1.8990   -5.7890 O   0  0  0  0  0  0  0  0  0  0  0  0
   19.0750    3.1530   -7.2720 O   0  0  0  0  0  0  0  0  0  0  0  0
   16.5430    3.4790   -7.5510 C   0  0  0  0  0  0  0  0  0  0  0  0
   17.5120    2.3740  -11.8500 C   0  0  0  0  0  0  0  0  0  0  0  0
   17.1530    2.1510  -10.5360 C   0  0  0  0  0  0  0  0  0  0  0  0
   18.0680    1.4170   -9.5750 C   0  0  0  0  0  0  0  0  0  0  0  0
   19.2830    0.9800  -10.0590 C   0  0  0  0  0  0  0  0  0  0  0  0
   19.6820    1.1980  -11.4040 C   0  0  0  0  0  0  0  0  0  0  0  0
   18.7710    1.9010  -12.2820 C   0  0  0  0  0  0  0  0  0  0  0  0
  1  2  1  0
  2  3  1  0
  3  4  2  0
  6  5  1  0
  6  7  2  0
  6  8  2  0
  6  9  1  0
  3 10  1  0
 10 11  2  0
  5 12  1  0
 11 12  1  0
 12 13  2  0
 13 14  1  0
 10 15  1  0
 14 15  2  0
M  END
