x0478-x1119
     RDKit          3D

 15 15  0  0  0  0  0  0  0  0999 V2000
   16.0360    2.0010  -14.4320 C   0  0  0  0  0  0  0  0  0  0  0  0
   16.8190    2.8190  -13.9590 O   0  0  0  0  0  0  0  0  0  0  0  0
   16.5680    3.0940  -12.7870 C   0  0  0  0  0  0  0  0  0  0  0  0
   15.6820    3.8370  -12.4150 O   0  0  0  0  0  0  0  0  0  0  0  0
   17.6210    1.1950   -8.1910 N   0  0  0  0  0  0  0  0  0  0  0  0
   17.8420    2.4220   -7.0730 S   0  0  0  0  0  0  0  0  0  0  0  0
   17.4710    1.8820   -5.7840 O   0  0  0  0  0  0  0  0  0  0  0  0
   19.0690    3.1490   -7.2760 O   0  0  0  0  0  0  0  0  0  0  0  0
   16.5410    3.4820   -7.5460 C   0  0  0  0  0  0  0  0  0  0  0  0
   17.5170    2.3670  -11.8560 C   0  0  0  0  0  0  0  0  0  0  0  0
   17.1590    2.1420  -10.5390 C   0  0  0  0  0  0  0  0  0  0  0  0
   18.0700    1.4110   -9.5720 C   0  0  0  0  0  0  0  0  0  0  0  0
   19.2890    0.9770  -10.0640 C   0  0  0  0  0  0  0  0  0  0  0  0
   19.6840    1.1960  -11.4120 C   0  0  0  0  0  0  0  0  0  0  0  0
   18.7760    1.8970  -12.2890 C   0  0  0  0  0  0  0  0  0  0  0  0
  1  2  1  0
  2  3  1  0
  3  4  2  0
  6  5  1  0
  6  7  2  0
  6  8  2  0
  6  9  1  0
  3 10  1  0
 10 11  2  0
  5 12  1  0
 11 12  1  0
 12 13  2  0
 13 14  1  0
 10 15  1  0
 14 15  2  0
M  END
