x0478-x0387
     RDKit          3D

 15 15  0  0  0  0  0  0  0  0999 V2000
   16.0520    2.0020  -14.4300 C   0  0  0  0  0  0  0  0  0  0  0  0
   16.8150    2.8360  -13.9520 O   0  0  0  0  0  0  0  0  0  0  0  0
   16.5680    3.1190  -12.7820 C   0  0  0  0  0  0  0  0  0  0  0  0
   15.6890    3.8770  -12.4130 O   0  0  0  0  0  0  0  0  0  0  0  0
   17.6220    1.2010   -8.1790 N   0  0  0  0  0  0  0  0  0  0  0  0
   17.8400    2.4350   -7.0750 S   0  0  0  0  0  0  0  0  0  0  0  0
   17.4770    1.9020   -5.7800 O   0  0  0  0  0  0  0  0  0  0  0  0
   19.0590    3.1730   -7.2800 O   0  0  0  0  0  0  0  0  0  0  0  0
   16.5320    3.4690   -7.5740 C   0  0  0  0  0  0  0  0  0  0  0  0
   17.5060    2.3860  -11.8420 C   0  0  0  0  0  0  0  0  0  0  0  0
   17.1470    2.1580  -10.5240 C   0  0  0  0  0  0  0  0  0  0  0  0
   18.0620    1.4210   -9.5630 C   0  0  0  0  0  0  0  0  0  0  0  0
   19.2740    0.9860  -10.0560 C   0  0  0  0  0  0  0  0  0  0  0  0
   19.6710    1.2070  -11.4020 C   0  0  0  0  0  0  0  0  0  0  0  0
   18.7620    1.9120  -12.2770 C   0  0  0  0  0  0  0  0  0  0  0  0
  1  2  1  0
  2  3  1  0
  3  4  2  0
  6  5  1  0
  6  7  2  0
  6  8  2  0
  6  9  1  0
  3 10  1  0
 10 11  2  0
  5 12  1  0
 11 12  1  0
 12 13  2  0
 13 14  1  0
 10 15  1  0
 14 15  2  0
M  END
