x0478-x1374
     RDKit          3D

 15 15  0  0  0  0  0  0  0  0999 V2000
   16.0450    2.0090  -14.4270 C   0  0  0  0  0  0  0  0  0  0  0  0
   16.8140    2.8380  -13.9530 O   0  0  0  0  0  0  0  0  0  0  0  0
   16.5660    3.1190  -12.7820 C   0  0  0  0  0  0  0  0  0  0  0  0
   15.6860    3.8730  -12.4190 O   0  0  0  0  0  0  0  0  0  0  0  0
   17.6150    1.1970   -8.1790 N   0  0  0  0  0  0  0  0  0  0  0  0
   17.8400    2.4310   -7.0770 S   0  0  0  0  0  0  0  0  0  0  0  0
   17.4760    1.9070   -5.7810 O   0  0  0  0  0  0  0  0  0  0  0  0
   19.0660    3.1610   -7.2900 O   0  0  0  0  0  0  0  0  0  0  0  0
   16.5310    3.4700   -7.5670 C   0  0  0  0  0  0  0  0  0  0  0  0
   17.5030    2.3880  -11.8430 C   0  0  0  0  0  0  0  0  0  0  0  0
   17.1440    2.1580  -10.5240 C   0  0  0  0  0  0  0  0  0  0  0  0
   18.0580    1.4190   -9.5640 C   0  0  0  0  0  0  0  0  0  0  0  0
   19.2750    0.9840  -10.0590 C   0  0  0  0  0  0  0  0  0  0  0  0
   19.6690    1.2090  -11.4060 C   0  0  0  0  0  0  0  0  0  0  0  0
   18.7630    1.9150  -12.2780 C   0  0  0  0  0  0  0  0  0  0  0  0
  1  2  1  0
  2  3  1  0
  3  4  2  0
  6  5  1  0
  6  7  2  0
  6  8  2  0
  6  9  1  0
  3 10  1  0
 10 11  2  0
  5 12  1  0
 11 12  1  0
 12 13  2  0
 13 14  1  0
 10 15  1  0
 14 15  2  0
M  END
