x0478-x0177
     RDKit          3D

 15 15  0  0  0  0  0  0  0  0999 V2000
   16.0590    2.0150  -14.4270 C   0  0  0  0  0  0  0  0  0  0  0  0
   16.8210    2.8460  -13.9510 O   0  0  0  0  0  0  0  0  0  0  0  0
   16.5640    3.1240  -12.7800 C   0  0  0  0  0  0  0  0  0  0  0  0
   15.6750    3.8700  -12.4160 O   0  0  0  0  0  0  0  0  0  0  0  0
   17.6100    1.1890   -8.1850 N   0  0  0  0  0  0  0  0  0  0  0  0
   17.8430    2.4160   -7.0740 S   0  0  0  0  0  0  0  0  0  0  0  0
   17.4840    1.8890   -5.7770 O   0  0  0  0  0  0  0  0  0  0  0  0
   19.0680    3.1430   -7.2910 O   0  0  0  0  0  0  0  0  0  0  0  0
   16.5360    3.4700   -7.5500 C   0  0  0  0  0  0  0  0  0  0  0  0
   17.5010    2.3910  -11.8440 C   0  0  0  0  0  0  0  0  0  0  0  0
   17.1400    2.1570  -10.5260 C   0  0  0  0  0  0  0  0  0  0  0  0
   18.0530    1.4160   -9.5680 C   0  0  0  0  0  0  0  0  0  0  0  0
   19.2680    0.9840  -10.0600 C   0  0  0  0  0  0  0  0  0  0  0  0
   19.6670    1.2110  -11.4040 C   0  0  0  0  0  0  0  0  0  0  0  0
   18.7600    1.9200  -12.2780 C   0  0  0  0  0  0  0  0  0  0  0  0
  1  2  1  0
  2  3  1  0
  3  4  2  0
  6  5  1  0
  6  7  2  0
  6  8  2  0
  6  9  1  0
  3 10  1  0
 10 11  2  0
  5 12  1  0
 11 12  1  0
 12 13  2  0
 13 14  1  0
 10 15  1  0
 14 15  2  0
M  END
