x0478-x0770
     RDKit          3D

 15 15  0  0  0  0  0  0  0  0999 V2000
   16.0530    2.0070  -14.4250 C   0  0  0  0  0  0  0  0  0  0  0  0
   16.8190    2.8410  -13.9520 O   0  0  0  0  0  0  0  0  0  0  0  0
   16.5670    3.1180  -12.7820 C   0  0  0  0  0  0  0  0  0  0  0  0
   15.6820    3.8700  -12.4160 O   0  0  0  0  0  0  0  0  0  0  0  0
   17.6190    1.1930   -8.1800 N   0  0  0  0  0  0  0  0  0  0  0  0
   17.8390    2.4280   -7.0740 S   0  0  0  0  0  0  0  0  0  0  0  0
   17.4750    1.9030   -5.7790 O   0  0  0  0  0  0  0  0  0  0  0  0
   19.0640    3.1550   -7.2870 O   0  0  0  0  0  0  0  0  0  0  0  0
   16.5320    3.4710   -7.5630 C   0  0  0  0  0  0  0  0  0  0  0  0
   17.5040    2.3860  -11.8450 C   0  0  0  0  0  0  0  0  0  0  0  0
   17.1470    2.1560  -10.5260 C   0  0  0  0  0  0  0  0  0  0  0  0
   18.0610    1.4150   -9.5650 C   0  0  0  0  0  0  0  0  0  0  0  0
   19.2740    0.9820  -10.0590 C   0  0  0  0  0  0  0  0  0  0  0  0
   19.6710    1.2080  -11.4070 C   0  0  0  0  0  0  0  0  0  0  0  0
   18.7640    1.9140  -12.2790 C   0  0  0  0  0  0  0  0  0  0  0  0
  1  2  1  0
  2  3  1  0
  3  4  2  0
  6  5  1  0
  6  7  2  0
  6  8  2  0
  6  9  1  0
  3 10  1  0
 10 11  2  0
  5 12  1  0
 11 12  1  0
 12 13  2  0
 13 14  1  0
 10 15  1  0
 14 15  2  0
M  END
