x0499-x0786
     RDKit          3D

 17 18  0  0  0  0  0  0  0  0999 V2000
   25.8640    6.3690   13.6610 N   0  0  0  0  0  0  0  0  0  0  0  0
   25.7280    5.0210   13.4670 C   0  0  0  0  0  0  0  0  0  0  0  0
   25.9430    4.2340   14.3770 O   0  0  0  0  0  0  0  0  0  0  0  0
   24.1850    3.4290    8.1370 N   0  0  0  0  0  0  0  0  0  0  0  0
   22.9950    2.8070    7.7820 C   0  0  0  0  0  0  0  0  0  0  0  0
   22.1510    2.4520    8.5870 O   0  0  0  0  0  0  0  0  0  0  0  0
   25.3140    4.5400   12.1040 C   0  0  0  0  0  0  0  0  0  0  0  0
   24.9210    3.1110   11.8730 C   0  0  0  0  0  0  0  0  0  0  0  0
   24.5340    2.7670   10.4710 C   0  0  0  0  0  0  0  0  0  0  0  0
   24.5480    3.7320    9.4630 C   0  0  0  0  0  0  0  0  0  0  0  0
   24.9280    5.0570    9.7380 C   0  0  0  0  0  0  0  0  0  0  0  0
   25.3030    5.4520   11.0340 C   0  0  0  0  0  0  0  0  0  0  0  0
   23.1330    1.2690    5.9080 C   0  0  0  0  0  0  0  0  0  0  0  0
   22.8230    2.5950    6.2550 C   0  0  2  0  0  0  0  0  0  0  0  0
   23.6780    3.4040    5.4580 O   0  0  0  0  0  0  0  0  0  0  0  0
   24.3850    2.4750    4.6600 C   0  0  0  0  0  0  0  0  0  0  0  0
   23.6120    1.3170    4.6790 C   0  0  0  0  0  0  0  0  0  0  0  0
  1  2  1  0
  2  3  2  0
  4  5  1  0
  5  6  2  0
  2  7  1  0
  7  8  2  0
  8  9  1  0
  4 10  1  0
  9 10  2  0
 10 11  1  0
  7 12  1  0
 11 12  2  0
 14  5  1  1
 13 14  1  0
 14 15  1  0
 15 16  1  0
 13 17  1  0
 16 17  1  0
M  END
