x0499-x1336
     RDKit          3D

 20 21  0  0  0  0  0  0  0  0999 V2000
    6.0720   -5.1970   29.0930 C   0  0  0  0  0  0  0  0  0  0  0  0
    8.6140   -0.9620   25.3210 O   0  0  0  0  0  0  0  0  0  0  0  0
    6.1290   -1.3310   25.5730 O   0  0  0  0  0  0  0  0  0  0  0  0
    5.3280   -4.0510   19.6920 O   0  0  0  0  0  0  0  0  0  0  0  0
   10.0470   -3.5650   25.1920 C   0  0  0  0  0  0  0  0  0  0  0  0
    6.1420   -3.1490   19.9150 C   0  0  0  0  0  0  0  0  0  0  0  0
    6.4970   -2.1370   18.8620 C   0  0  0  0  0  0  0  0  0  0  0  0
    7.4530   -1.8300   25.2940 S   0  0  0  0  0  0  0  0  0  0  0  0
    7.0790   -4.7810   28.0720 C   0  0  0  0  0  0  0  0  0  0  0  0
    6.8580   -3.6670   27.2560 C   0  0  0  0  0  0  0  0  0  0  0  0
    7.7890   -3.2350   26.3070 C   0  0  0  0  0  0  0  0  0  0  0  0
    8.9880   -3.9510   26.1790 C   0  0  0  0  0  0  0  0  0  0  0  0
    9.2380   -5.0760   26.9850 C   0  0  0  0  0  0  0  0  0  0  0  0
    8.2790   -5.4850   27.9300 C   0  0  0  0  0  0  0  0  0  0  0  0
    6.7620   -3.0270   21.1370 N   0  0  0  0  0  0  0  0  0  0  0  0
    6.3440   -3.9070   22.2180 C   0  0  0  0  0  0  0  0  0  0  0  0
    6.1410   -3.1400   23.3510 C   0  0  0  0  0  0  0  0  0  0  0  0
    7.4090   -2.5110   23.7640 N   0  0  0  0  0  0  0  0  0  0  0  0
    8.0660   -1.7040   22.7250 C   0  0  0  0  0  0  0  0  0  0  0  0
    8.0350   -2.3260   21.3390 C   0  0  0  0  0  0  0  0  0  0  0  0
  4  6  2  0
  6  7  1  0
  2  8  2  0
  3  8  2  0
  1  9  1  0
  9 10  2  0
  8 11  1  0
 10 11  1  0
  5 12  1  0
 11 12  2  0
 12 13  1  0
  9 14  1  0
 13 14  2  0
  6 15  1  0
 15 16  1  0
 16 17  1  0
  8 18  1  0
 17 18  1  0
 18 19  1  0
 15 20  1  0
 19 20  1  0
M  END
