x0499-x1384
     RDKit          3D

 17 18  0  0  0  0  0  0  0  0999 V2000
   25.8470    6.3620   13.6440 N   0  0  0  0  0  0  0  0  0  0  0  0
   25.7300    5.0110   13.4660 C   0  0  0  0  0  0  0  0  0  0  0  0
   25.9650    4.2330   14.3820 O   0  0  0  0  0  0  0  0  0  0  0  0
   24.1680    3.4220    8.1370 N   0  0  0  0  0  0  0  0  0  0  0  0
   22.9790    2.7970    7.7830 C   0  0  0  0  0  0  0  0  0  0  0  0
   22.1240    2.4400    8.5820 O   0  0  0  0  0  0  0  0  0  0  0  0
   25.3110    4.5270   12.1050 C   0  0  0  0  0  0  0  0  0  0  0  0
   24.9100    3.0990   11.8760 C   0  0  0  0  0  0  0  0  0  0  0  0
   24.5180    2.7560   10.4720 C   0  0  0  0  0  0  0  0  0  0  0  0
   24.5360    3.7230    9.4630 C   0  0  0  0  0  0  0  0  0  0  0  0
   24.9240    5.0450    9.7370 C   0  0  0  0  0  0  0  0  0  0  0  0
   25.3010    5.4380   11.0330 C   0  0  0  0  0  0  0  0  0  0  0  0
   23.1650    1.2610    5.9240 C   0  0  0  0  0  0  0  0  0  0  0  0
   22.8200    2.5820    6.2570 C   0  0  2  0  0  0  0  0  0  0  0  0
   23.6690    3.4040    5.4680 O   0  0  0  0  0  0  0  0  0  0  0  0
   24.3850    2.4870    4.6630 C   0  0  0  0  0  0  0  0  0  0  0  0
   23.6220    1.3190    4.6840 C   0  0  0  0  0  0  0  0  0  0  0  0
  1  2  1  0
  2  3  2  0
  4  5  1  0
  5  6  2  0
  2  7  1  0
  7  8  2  0
  8  9  1  0
  4 10  1  0
  9 10  2  0
 10 11  1  0
  7 12  1  0
 11 12  2  0
 14  5  1  1
 13 14  1  0
 14 15  1  0
 15 16  1  0
 13 17  1  0
 16 17  1  0
M  END
