x0499-x1163
     RDKit          3D

 17 18  0  0  0  0  0  0  0  0999 V2000
   25.8510    6.3670   13.6520 N   0  0  0  0  0  0  0  0  0  0  0  0
   25.7200    5.0180   13.4670 C   0  0  0  0  0  0  0  0  0  0  0  0
   25.9380    4.2370   14.3840 O   0  0  0  0  0  0  0  0  0  0  0  0
   24.1810    3.4270    8.1280 N   0  0  0  0  0  0  0  0  0  0  0  0
   22.9880    2.8060    7.7790 C   0  0  0  0  0  0  0  0  0  0  0  0
   22.1380    2.4490    8.5850 O   0  0  0  0  0  0  0  0  0  0  0  0
   25.3100    4.5360   12.1050 C   0  0  0  0  0  0  0  0  0  0  0  0
   24.9170    3.1050   11.8680 C   0  0  0  0  0  0  0  0  0  0  0  0
   24.5320    2.7630   10.4620 C   0  0  0  0  0  0  0  0  0  0  0  0
   24.5470    3.7290    9.4570 C   0  0  0  0  0  0  0  0  0  0  0  0
   24.9270    5.0540    9.7340 C   0  0  0  0  0  0  0  0  0  0  0  0
   25.2970    5.4460   11.0320 C   0  0  0  0  0  0  0  0  0  0  0  0
   23.1260    1.2620    5.9190 C   0  0  0  0  0  0  0  0  0  0  0  0
   22.8140    2.5920    6.2540 C   0  0  2  0  0  0  0  0  0  0  0  0
   23.6770    3.3990    5.4630 O   0  0  0  0  0  0  0  0  0  0  0  0
   24.3950    2.4640    4.6780 C   0  0  0  0  0  0  0  0  0  0  0  0
   23.6160    1.3080    4.6930 C   0  0  0  0  0  0  0  0  0  0  0  0
  1  2  1  0
  2  3  2  0
  4  5  1  0
  5  6  2  0
  2  7  1  0
  7  8  2  0
  8  9  1  0
  4 10  1  0
  9 10  2  0
 10 11  1  0
  7 12  1  0
 11 12  2  0
 14  5  1  1
 13 14  1  0
 14 15  1  0
 15 16  1  0
 13 17  1  0
 16 17  1  0
M  END
