x0499-x0194
     RDKit          3D

 17 18  0  0  0  0  0  0  0  0999 V2000
   25.8170    6.3650   13.6530 N   0  0  0  0  0  0  0  0  0  0  0  0
   25.7070    5.0160   13.4620 C   0  0  0  0  0  0  0  0  0  0  0  0
   25.9440    4.2330   14.3720 O   0  0  0  0  0  0  0  0  0  0  0  0
   24.1470    3.4410    8.1240 N   0  0  0  0  0  0  0  0  0  0  0  0
   22.9620    2.7990    7.7780 C   0  0  0  0  0  0  0  0  0  0  0  0
   22.1130    2.4520    8.5840 O   0  0  0  0  0  0  0  0  0  0  0  0
   25.2940    4.5340   12.0990 C   0  0  0  0  0  0  0  0  0  0  0  0
   24.9380    3.0960   11.8540 C   0  0  0  0  0  0  0  0  0  0  0  0
   24.5460    2.7600   10.4490 C   0  0  0  0  0  0  0  0  0  0  0  0
   24.5220    3.7380    9.4520 C   0  0  0  0  0  0  0  0  0  0  0  0
   24.8690    5.0680    9.7410 C   0  0  0  0  0  0  0  0  0  0  0  0
   25.2440    5.4570   11.0390 C   0  0  0  0  0  0  0  0  0  0  0  0
   23.1580    1.2350    5.9340 C   0  0  0  0  0  0  0  0  0  0  0  0
   22.8010    2.5570    6.2540 C   0  0  2  0  0  0  0  0  0  0  0  0
   23.6400    3.3770    5.4550 O   0  0  0  0  0  0  0  0  0  0  0  0
   24.3480    2.4590    4.6410 C   0  0  0  0  0  0  0  0  0  0  0  0
   23.5950    1.2840    4.6900 C   0  0  0  0  0  0  0  0  0  0  0  0
  1  2  1  0
  2  3  2  0
  4  5  1  0
  5  6  2  0
  2  7  1  0
  7  8  2  0
  8  9  1  0
  4 10  1  0
  9 10  2  0
 10 11  1  0
  7 12  1  0
 11 12  2  0
 14  5  1  1
 13 14  1  0
 14 15  1  0
 15 16  1  0
 13 17  1  0
 16 17  1  0
M  END
