x0499-x0390
     RDKit          3D

 17 18  0  0  0  0  0  0  0  0999 V2000
   25.9470    6.3390   13.7800 N   0  0  0  0  0  0  0  0  0  0  0  0
   25.7680    4.9990   13.5920 C   0  0  0  0  0  0  0  0  0  0  0  0
   25.9700    4.1980   14.4930 O   0  0  0  0  0  0  0  0  0  0  0  0
   24.1080    3.6370    8.2780 N   0  0  0  0  0  0  0  0  0  0  0  0
   23.1860    2.7140    7.8360 C   0  0  0  0  0  0  0  0  0  0  0  0
   22.1500    2.3880    8.4010 O   0  0  0  0  0  0  0  0  0  0  0  0
   25.3200    4.5540   12.2350 C   0  0  0  0  0  0  0  0  0  0  0  0
   24.8940    3.1370   11.9660 C   0  0  0  0  0  0  0  0  0  0  0  0
   24.4740    2.8510   10.5610 C   0  0  0  0  0  0  0  0  0  0  0  0
   24.4940    3.8590    9.5990 C   0  0  0  0  0  0  0  0  0  0  0  0
   24.9060    5.1610    9.9060 C   0  0  0  0  0  0  0  0  0  0  0  0
   25.3080    5.4990   11.2010 C   0  0  0  0  0  0  0  0  0  0  0  0
   22.7140    1.5110    5.7290 C   0  0  0  0  0  0  0  0  0  0  0  0
   23.6810    2.1330    6.5070 C   0  0  1  0  0  0  0  0  0  0  0  0
   24.1880    3.1250    5.6440 O   0  0  0  0  0  0  0  0  0  0  0  0
   24.0420    2.5200    4.3780 C   0  0  0  0  0  0  0  0  0  0  0  0
   23.4010    1.2920    4.6180 C   0  0  0  0  0  0  0  0  0  0  0  0
  1  2  1  0
  2  3  2  0
  4  5  1  0
  5  6  2  0
  2  7  1  0
  7  8  2  0
  8  9  1  0
  4 10  1  0
  9 10  2  0
 10 11  1  0
  7 12  1  0
 11 12  2  0
 14  5  1  1
 13 14  1  0
 14 15  1  0
 15 16  1  0
 13 17  1  0
 16 17  1  0
M  END
