x0499-x0755
     RDKit          3D

 20 21  0  0  0  0  0  0  0  0999 V2000
    4.4000   -6.4010   26.2220 O   0  0  0  0  0  0  0  0  0  0  0  0
    6.0630   -4.6550   26.8920 O   0  0  0  0  0  0  0  0  0  0  0  0
    5.5380   -4.5350   19.9070 O   0  0  0  0  0  0  0  0  0  0  0  0
    6.3640   -4.2950   20.7940 C   0  0  0  0  0  0  0  0  0  0  0  0
    7.1880   -3.0290   20.7370 C   0  0  0  0  0  0  0  0  0  0  0  0
    1.9330   -5.4000   25.7840 F   0  0  0  0  0  0  0  0  0  0  0  0
    5.5120   -2.0540   26.1750 F   0  0  0  0  0  0  0  0  0  0  0  0
    5.0420   -5.1300   25.9970 S   0  0  0  0  0  0  0  0  0  0  0  0
    2.3700   -4.1390   25.8830 C   0  0  0  0  0  0  0  0  0  0  0  0
    3.8420   -3.8710   25.9840 C   0  0  0  0  0  0  0  0  0  0  0  0
    4.2290   -2.4260   26.0860 C   0  0  0  0  0  0  0  0  0  0  0  0
    3.2540   -1.4260   26.0930 C   0  0  0  0  0  0  0  0  0  0  0  0
    1.8890   -1.7410   26.0050 C   0  0  0  0  0  0  0  0  0  0  0  0
    1.4590   -3.0740   25.8970 C   0  0  0  0  0  0  0  0  0  0  0  0
    6.5940   -5.1520   21.8570 N   0  0  0  0  0  0  0  0  0  0  0  0
    7.3860   -4.6080   22.9640 C   0  0  0  0  0  0  0  0  0  0  0  0
    6.5790   -4.0780   23.9660 C   0  0  0  0  0  0  0  0  0  0  0  0
    5.6840   -5.1650   24.4380 N   0  0  0  0  0  0  0  0  0  0  0  0
    4.8190   -5.6770   23.3290 C   0  0  0  0  0  0  0  0  0  0  0  0
    5.6150   -6.1610   22.2850 C   0  0  0  0  0  0  0  0  0  0  0  0
  3  4  2  0
  4  5  1  0
  1  8  2  0
  2  8  2  0
  6  9  1  0
  8 10  1  0
  9 10  2  0
  7 11  1  0
 10 11  1  0
 11 12  2  0
 12 13  1  0
  9 14  1  0
 13 14  2  0
  4 15  1  0
 15 16  1  0
 16 17  1  0
  8 18  1  0
 17 18  1  0
 18 19  1  0
 15 20  1  0
 19 20  1  0
M  END
