x0499-x1493
     RDKit          3D

 17 18  0  0  0  0  0  0  0  0999 V2000
   25.8250    6.3650   13.6560 N   0  0  0  0  0  0  0  0  0  0  0  0
   25.7160    5.0160   13.4650 C   0  0  0  0  0  0  0  0  0  0  0  0
   25.9560    4.2310   14.3720 O   0  0  0  0  0  0  0  0  0  0  0  0
   24.1530    3.4430    8.1260 N   0  0  0  0  0  0  0  0  0  0  0  0
   22.9720    2.8000    7.7800 C   0  0  0  0  0  0  0  0  0  0  0  0
   22.1280    2.4480    8.5900 O   0  0  0  0  0  0  0  0  0  0  0  0
   25.3000    4.5360   12.1020 C   0  0  0  0  0  0  0  0  0  0  0  0
   24.9420    3.0970   11.8560 C   0  0  0  0  0  0  0  0  0  0  0  0
   24.5490    2.7620   10.4510 C   0  0  0  0  0  0  0  0  0  0  0  0
   24.5280    3.7400    9.4540 C   0  0  0  0  0  0  0  0  0  0  0  0
   24.8780    5.0680    9.7460 C   0  0  0  0  0  0  0  0  0  0  0  0
   25.2510    5.4580   11.0430 C   0  0  0  0  0  0  0  0  0  0  0  0
   23.1600    1.2420    5.9320 C   0  0  0  0  0  0  0  0  0  0  0  0
   22.8080    2.5620    6.2560 C   0  0  2  0  0  0  0  0  0  0  0  0
   23.6460    3.3830    5.4570 O   0  0  0  0  0  0  0  0  0  0  0  0
   24.3540    2.4600    4.6450 C   0  0  0  0  0  0  0  0  0  0  0  0
   23.5950    1.2910    4.6860 C   0  0  0  0  0  0  0  0  0  0  0  0
  1  2  1  0
  2  3  2  0
  4  5  1  0
  5  6  2  0
  2  7  1  0
  7  8  2  0
  8  9  1  0
  4 10  1  0
  9 10  2  0
 10 11  1  0
  7 12  1  0
 11 12  2  0
 14  5  1  1
 13 14  1  0
 14 15  1  0
 15 16  1  0
 13 17  1  0
 16 17  1  0
M  END
