x0499-x0752
     RDKit          3D

 17 18  0  0  0  0  0  0  0  0999 V2000
   25.9930    6.3400   13.7990 N   0  0  0  0  0  0  0  0  0  0  0  0
   25.7810    5.0030   13.6100 C   0  0  0  0  0  0  0  0  0  0  0  0
   25.9630    4.2020   14.5180 O   0  0  0  0  0  0  0  0  0  0  0  0
   24.1150    3.6320    8.2900 N   0  0  0  0  0  0  0  0  0  0  0  0
   23.1890    2.7130    7.8350 C   0  0  0  0  0  0  0  0  0  0  0  0
   22.1470    2.3890    8.3870 O   0  0  0  0  0  0  0  0  0  0  0  0
   25.3290    4.5560   12.2510 C   0  0  0  0  0  0  0  0  0  0  0  0
   24.9000    3.1410   11.9900 C   0  0  0  0  0  0  0  0  0  0  0  0
   24.4790    2.8500   10.5850 C   0  0  0  0  0  0  0  0  0  0  0  0
   24.5000    3.8510    9.6160 C   0  0  0  0  0  0  0  0  0  0  0  0
   24.9140    5.1540    9.9200 C   0  0  0  0  0  0  0  0  0  0  0  0
   25.3180    5.5000   11.2130 C   0  0  0  0  0  0  0  0  0  0  0  0
   22.7170    1.5130    5.7160 C   0  0  0  0  0  0  0  0  0  0  0  0
   23.6850    2.1310    6.5010 C   0  0  1  0  0  0  0  0  0  0  0  0
   24.2060    3.1140    5.6330 O   0  0  0  0  0  0  0  0  0  0  0  0
   24.0530    2.5060    4.3690 C   0  0  0  0  0  0  0  0  0  0  0  0
   23.4130    1.2790    4.6150 C   0  0  0  0  0  0  0  0  0  0  0  0
  1  2  1  0
  2  3  2  0
  4  5  1  0
  5  6  2  0
  2  7  1  0
  7  8  2  0
  8  9  1  0
  4 10  1  0
  9 10  2  0
 10 11  1  0
  7 12  1  0
 11 12  2  0
 14  5  1  1
 13 14  1  0
 14 15  1  0
 15 16  1  0
 13 17  1  0
 16 17  1  0
M  END
