x0499-x0434
     RDKit          3D

 17 18  0  0  0  0  0  0  0  0999 V2000
   25.9170    6.3450   13.8120 N   0  0  0  0  0  0  0  0  0  0  0  0
   25.7690    5.0040   13.6020 C   0  0  0  0  0  0  0  0  0  0  0  0
   26.0030    4.1980   14.4900 O   0  0  0  0  0  0  0  0  0  0  0  0
   24.1010    3.6440    8.2770 N   0  0  0  0  0  0  0  0  0  0  0  0
   23.1780    2.7220    7.8220 C   0  0  0  0  0  0  0  0  0  0  0  0
   22.1430    2.3950    8.3850 O   0  0  0  0  0  0  0  0  0  0  0  0
   25.3200    4.5630   12.2410 C   0  0  0  0  0  0  0  0  0  0  0  0
   24.9280    3.1390   11.9670 C   0  0  0  0  0  0  0  0  0  0  0  0
   24.5040    2.8520   10.5610 C   0  0  0  0  0  0  0  0  0  0  0  0
   24.4920    3.8640    9.6010 C   0  0  0  0  0  0  0  0  0  0  0  0
   24.8670    5.1750    9.9180 C   0  0  0  0  0  0  0  0  0  0  0  0
   25.2720    5.5180   11.2130 C   0  0  0  0  0  0  0  0  0  0  0  0
   22.6950    1.4980    5.7210 C   0  0  0  0  0  0  0  0  0  0  0  0
   23.6640    2.1390    6.4840 C   0  0  1  0  0  0  0  0  0  0  0  0
   24.1530    3.1230    5.5970 O   0  0  0  0  0  0  0  0  0  0  0  0
   24.0090    2.4880    4.3450 C   0  0  0  0  0  0  0  0  0  0  0  0
   23.3780    1.2600    4.6130 C   0  0  0  0  0  0  0  0  0  0  0  0
  1  2  1  0
  2  3  2  0
  4  5  1  0
  5  6  2  0
  2  7  1  0
  7  8  2  0
  8  9  1  0
  4 10  1  0
  9 10  2  0
 10 11  1  0
  7 12  1  0
 11 12  2  0
 14  5  1  1
 13 14  1  0
 14 15  1  0
 15 16  1  0
 13 17  1  0
 16 17  1  0
M  END
