x0499-x0991
     RDKit          3D

 17 18  0  0  0  0  0  0  0  0999 V2000
   25.8580    6.3650   13.6580 N   0  0  0  0  0  0  0  0  0  0  0  0
   25.7220    5.0190   13.4700 C   0  0  0  0  0  0  0  0  0  0  0  0
   25.9330    4.2350   14.3860 O   0  0  0  0  0  0  0  0  0  0  0  0
   24.1830    3.4210    8.1320 N   0  0  0  0  0  0  0  0  0  0  0  0
   22.9870    2.8040    7.7800 C   0  0  0  0  0  0  0  0  0  0  0  0
   22.1370    2.4500    8.5850 O   0  0  0  0  0  0  0  0  0  0  0  0
   25.3110    4.5370   12.1040 C   0  0  0  0  0  0  0  0  0  0  0  0
   24.9200    3.1070   11.8730 C   0  0  0  0  0  0  0  0  0  0  0  0
   24.5340    2.7610   10.4680 C   0  0  0  0  0  0  0  0  0  0  0  0
   24.5470    3.7250    9.4570 C   0  0  0  0  0  0  0  0  0  0  0  0
   24.9270    5.0500    9.7320 C   0  0  0  0  0  0  0  0  0  0  0  0
   25.2990    5.4480   11.0310 C   0  0  0  0  0  0  0  0  0  0  0  0
   23.1250    1.2630    5.9150 C   0  0  0  0  0  0  0  0  0  0  0  0
   22.8170    2.5940    6.2560 C   0  0  2  0  0  0  0  0  0  0  0  0
   23.6800    3.4000    5.4670 O   0  0  0  0  0  0  0  0  0  0  0  0
   24.4000    2.4660    4.6830 C   0  0  0  0  0  0  0  0  0  0  0  0
   23.6180    1.3120    4.6930 C   0  0  0  0  0  0  0  0  0  0  0  0
  1  2  1  0
  2  3  2  0
  4  5  1  0
  5  6  2  0
  2  7  1  0
  7  8  2  0
  8  9  1  0
  4 10  1  0
  9 10  2  0
 10 11  1  0
  7 12  1  0
 11 12  2  0
 14  5  1  1
 13 14  1  0
 14 15  1  0
 15 16  1  0
 13 17  1  0
 16 17  1  0
M  END
