x0499-x0689
     RDKit          3D

 17 18  0  0  0  0  0  0  0  0999 V2000
   25.8600    6.3670   13.6570 N   0  0  0  0  0  0  0  0  0  0  0  0
   25.7240    5.0180   13.4690 C   0  0  0  0  0  0  0  0  0  0  0  0
   25.9370    4.2360   14.3850 O   0  0  0  0  0  0  0  0  0  0  0  0
   24.1820    3.4220    8.1320 N   0  0  0  0  0  0  0  0  0  0  0  0
   22.9870    2.8040    7.7800 C   0  0  0  0  0  0  0  0  0  0  0  0
   22.1370    2.4550    8.5820 O   0  0  0  0  0  0  0  0  0  0  0  0
   25.3120    4.5380   12.1030 C   0  0  0  0  0  0  0  0  0  0  0  0
   24.9190    3.1070   11.8750 C   0  0  0  0  0  0  0  0  0  0  0  0
   24.5330    2.7630   10.4680 C   0  0  0  0  0  0  0  0  0  0  0  0
   24.5480    3.7280    9.4590 C   0  0  0  0  0  0  0  0  0  0  0  0
   24.9290    5.0520    9.7310 C   0  0  0  0  0  0  0  0  0  0  0  0
   25.3010    5.4480   11.0290 C   0  0  0  0  0  0  0  0  0  0  0  0
   23.1270    1.2630    5.9150 C   0  0  0  0  0  0  0  0  0  0  0  0
   22.8180    2.5940    6.2540 C   0  0  2  0  0  0  0  0  0  0  0  0
   23.6810    3.3990    5.4640 O   0  0  0  0  0  0  0  0  0  0  0  0
   24.4020    2.4670    4.6800 C   0  0  0  0  0  0  0  0  0  0  0  0
   23.6190    1.3120    4.6900 C   0  0  0  0  0  0  0  0  0  0  0  0
  1  2  1  0
  2  3  2  0
  4  5  1  0
  5  6  2  0
  2  7  1  0
  7  8  2  0
  8  9  1  0
  4 10  1  0
  9 10  2  0
 10 11  1  0
  7 12  1  0
 11 12  2  0
 14  5  1  1
 13 14  1  0
 14 15  1  0
 15 16  1  0
 13 17  1  0
 16 17  1  0
M  END
