x0499-x0177
     RDKit          3D

 17 18  0  0  0  0  0  0  0  0999 V2000
   25.8220    6.3640   13.6510 N   0  0  0  0  0  0  0  0  0  0  0  0
   25.7100    5.0160   13.4620 C   0  0  0  0  0  0  0  0  0  0  0  0
   25.9510    4.2330   14.3720 O   0  0  0  0  0  0  0  0  0  0  0  0
   24.1520    3.4360    8.1280 N   0  0  0  0  0  0  0  0  0  0  0  0
   22.9660    2.8020    7.7780 C   0  0  0  0  0  0  0  0  0  0  0  0
   22.1180    2.4480    8.5830 O   0  0  0  0  0  0  0  0  0  0  0  0
   25.2960    4.5340   12.1000 C   0  0  0  0  0  0  0  0  0  0  0  0
   24.9350    3.0980   11.8570 C   0  0  0  0  0  0  0  0  0  0  0  0
   24.5420    2.7590   10.4520 C   0  0  0  0  0  0  0  0  0  0  0  0
   24.5240    3.7340    9.4550 C   0  0  0  0  0  0  0  0  0  0  0  0
   24.8800    5.0620    9.7430 C   0  0  0  0  0  0  0  0  0  0  0  0
   25.2530    5.4540   11.0390 C   0  0  0  0  0  0  0  0  0  0  0  0
   23.1230    1.2480    5.9270 C   0  0  0  0  0  0  0  0  0  0  0  0
   22.8020    2.5750    6.2550 C   0  0  2  0  0  0  0  0  0  0  0  0
   23.6620    3.3780    5.4610 O   0  0  0  0  0  0  0  0  0  0  0  0
   24.3520    2.4470    4.6460 C   0  0  0  0  0  0  0  0  0  0  0  0
   23.5740    1.2880    4.6860 C   0  0  0  0  0  0  0  0  0  0  0  0
  1  2  1  0
  2  3  2  0
  4  5  1  0
  5  6  2  0
  2  7  1  0
  7  8  2  0
  8  9  1  0
  4 10  1  0
  9 10  2  0
 10 11  1  0
  7 12  1  0
 11 12  2  0
 14  5  1  1
 13 14  1  0
 14 15  1  0
 15 16  1  0
 13 17  1  0
 16 17  1  0
M  END
