x0499-x0104
     RDKit          3D

 16 17  0  0  0  0  0  0  0  0999 V2000
    9.0080    6.5340   22.6320 C   0  0  0  0  0  0  0  0  0  0  0  0
   10.2690    6.2010   23.3840 C   0  0  0  0  0  0  0  0  0  0  0  0
   10.3830    6.3230   24.5510 O   0  0  0  0  0  0  0  0  0  0  0  0
   11.3050    5.7250   22.5850 N   0  0  0  0  0  0  0  0  0  0  0  0
   12.4540    5.0510   23.1810 C   0  0  0  0  0  0  0  0  0  0  0  0
   12.7100    3.6890   22.5830 C   0  0  0  0  0  0  0  0  0  0  0  0
   13.5470   -2.0150   22.2010 F   0  0  0  0  0  0  0  0  0  0  0  0
   11.8240    2.5780   23.1130 C   0  0  0  0  0  0  0  0  0  0  0  0
   10.6110    2.8330   23.7800 C   0  0  0  0  0  0  0  0  0  0  0  0
   10.0560    1.6450   24.1140 N   0  0  0  0  0  0  0  0  0  0  0  0
   10.8290    0.6270   23.7040 C   0  0  0  0  0  0  0  0  0  0  0  0
   11.9690    1.1240   23.0670 C   0  0  0  0  0  0  0  0  0  0  0  0
   10.5950   -0.7490   23.8510 C   0  0  0  0  0  0  0  0  0  0  0  0
   11.5380   -1.6360   23.3270 C   0  0  0  0  0  0  0  0  0  0  0  0
   12.6710   -1.1600   22.6950 C   0  0  0  0  0  0  0  0  0  0  0  0
   12.8940    0.1980   22.5740 C   0  0  0  0  0  0  0  0  0  0  0  0
  1  2  1  0
  2  3  2  0
  2  4  1  0
  4  5  1  0
  5  6  1  0
  6  8  1  0
  8  9  2  0
  9 10  1  0
 10 11  1  0
  8 12  1  0
 11 12  2  0
 11 13  1  0
 13 14  2  0
  7 15  1  0
 14 15  1  0
 12 16  1  0
 15 16  2  0
M  END
