x0540-x0991
     RDKit          3D

 27 28  0  0  0  0  0  0  0  0999 V2000
    2.9150    1.4680   24.3790 O   0  0  0  0  0  0  0  0  0  0  0  0
    3.0160    2.3230   23.4880 C   0  0  0  0  0  0  0  0  0  0  0  0
    4.2900    2.4650   22.7060 N   0  0  0  0  0  0  0  0  0  0  0  0
    5.1390    1.3770   22.4720 C   0  0  0  0  0  0  0  0  0  0  0  0
    4.7260    0.3110   21.5380 C   0  0  2  0  0  0  0  0  0  0  0  0
    1.9080    3.2410   23.1500 N   0  0  0  0  0  0  0  0  0  0  0  0
    9.3410   -5.9690   25.6700 N   0  0  0  0  0  0  0  0  0  0  0  0
    8.6450   -3.7460   23.5890 C   0  0  0  0  0  0  0  0  0  0  0  0
    7.8000   -4.9270   23.9550 C   0  0  0  0  0  0  0  0  0  0  0  0
    7.1920   -5.2360   26.4460 N   0  0  0  0  0  0  0  0  0  0  0  0
    8.1630   -5.4050   25.3820 C   0  0  0  0  0  0  0  0  0  0  0  0
    5.2270   -1.1000   21.8910 C   0  0  0  0  0  0  0  0  0  0  0  0
    6.5140   -1.2320   22.4000 C   0  0  0  0  0  0  0  0  0  0  0  0
    6.7500   -2.3600   23.1200 C   0  0  0  0  0  0  0  0  0  0  0  0
    7.9410   -2.4540   23.8090 C   0  0  0  0  0  0  0  0  0  0  0  0
    6.1240   -0.1650   19.9990 C   0  0  0  0  0  0  0  0  0  0  0  0
    6.7380   -0.1460   18.7510 C   0  0  0  0  0  0  0  0  0  0  0  0
    6.3370    0.5840   17.7230 N   0  0  0  0  0  0  0  0  0  0  0  0
    5.2680    1.3450   17.9080 C   0  0  0  0  0  0  0  0  0  0  0  0
    4.5180    1.4220   19.1690 C   0  0  0  0  0  0  0  0  0  0  0  0
    4.9780    0.6060   20.3130 C   0  0  0  0  0  0  0  0  0  0  0  0
    0.5670    4.5860   24.5390 C   0  0  0  0  0  0  0  0  0  0  0  0
   -0.6620    4.9590   25.0910 C   0  0  0  0  0  0  0  0  0  0  0  0
   -1.7900    4.5280   24.3810 C   0  0  0  0  0  0  0  0  0  0  0  0
   -1.6720    3.3130   23.7670 C   0  0  0  0  0  0  0  0  0  0  0  0
   -0.4440    2.8510   23.3040 C   0  0  0  0  0  0  0  0  0  0  0  0
    0.7180    3.3260   23.9130 C   0  0  0  0  0  0  0  0  0  0  0  0
  1  2  2  0
  2  3  1  0
  3  4  1  0
  5  4  1  1
  2  6  1  0
  8  9  1  0
  7 11  2  3
  9 11  1  0
 10 11  1  0
  5 12  1  0
 12 13  1  0
 13 14  1  0
  8 15  1  0
 14 15  1  0
 16 17  2  0
 17 18  1  0
 18 19  2  0
 19 20  1  0
  5 21  1  0
 16 21  1  0
 20 21  2  0
 22 23  1  0
 23 24  1  0
 24 25  1  0
 25 26  1  0
  6 27  1  0
 22 27  1  0
 26 27  1  0
M  END
