x0540-x2908
     RDKit          3D

 29 31  0  0  0  0  0  0  0  0999 V2000
    2.8110    1.5250   24.4430 O   0  0  0  0  0  0  0  0  0  0  0  0
    2.8960    2.4140   23.5850 C   0  0  0  0  0  0  0  0  0  0  0  0
    4.1940    2.6430   22.8770 N   0  0  0  0  0  0  0  0  0  0  0  0
    5.0520    1.5750   22.6240 C   0  0  0  0  0  0  0  0  0  0  0  0
    4.5780    0.4800   21.7690 C   0  0  0  0  0  0  0  0  0  0  0  0
    1.7530    3.2750   23.2290 N   0  0  0  0  0  0  0  0  0  0  0  0
    8.7180    1.3010   21.1040 O   0  0  0  0  0  0  0  0  0  0  0  0
   13.2080   -2.2620   21.3310 Cl  0  0  0  0  0  0  0  0  0  0  0  0
    7.2410   -0.7240   21.0590 N   0  0  0  0  0  0  0  0  0  0  0  0
    8.8030   -0.5760   22.6910 N   0  0  0  0  0  0  0  0  0  0  0  0
    8.2530    0.0320   21.6020 C   0  0  0  0  0  0  0  0  0  0  0  0
    6.4410   -0.1070   20.0340 C   0  0  0  0  0  0  0  0  0  0  0  0
    6.8850   -0.0260   18.5970 C   0  0  0  0  0  0  0  0  0  0  0  0
    6.1870    0.5740   17.6290 N   0  0  0  0  0  0  0  0  0  0  0  0
    5.0280    1.1300   17.9820 C   0  0  0  0  0  0  0  0  0  0  0  0
    4.5060    1.1040   19.2710 C   0  0  0  0  0  0  0  0  0  0  0  0
    5.0940    0.5300   20.3640 C   0  0  0  0  0  0  0  0  0  0  0  0
    0.5830    4.6230   24.5730 C   0  0  0  0  0  0  0  0  0  0  0  0
   -0.6560    4.8790   25.0640 C   0  0  0  0  0  0  0  0  0  0  0  0
   -1.7560    4.6550   24.2180 C   0  0  0  0  0  0  0  0  0  0  0  0
   -1.7470    3.2990   23.8910 C   0  0  0  0  0  0  0  0  0  0  0  0
   -0.4980    2.9110   23.2040 C   0  0  0  0  0  0  0  0  0  0  0  0
    0.6480    3.3410   24.0200 C   0  0  0  0  0  0  0  0  0  0  0  0
   10.6670    0.5250   23.7340 C   0  0  0  0  0  0  0  0  0  0  0  0
   12.0470    0.5920   23.8230 C   0  0  0  0  0  0  0  0  0  0  0  0
   12.8490   -0.2580   23.0940 C   0  0  0  0  0  0  0  0  0  0  0  0
   12.3140   -1.1830   22.2730 C   0  0  0  0  0  0  0  0  0  0  0  0
   10.9590   -1.2580   22.1770 C   0  0  0  0  0  0  0  0  0  0  0  0
   10.0990   -0.4410   22.8690 C   0  0  0  0  0  0  0  0  0  0  0  0
  1  2  2  0
  2  3  1  0
  3  4  1  0
  4  5  1  0
  2  6  1  0
  7 11  2  0
  9 11  1  0
 10 11  1  0
  9 12  1  0
 12 13  2  0
 13 14  1  0
 14 15  2  0
 15 16  1  0
  5 17  1  0
 12 17  1  0
 16 17  2  0
 18 19  1  0
 19 20  1  0
 20 21  1  0
 21 22  1  0
  6 23  1  0
 18 23  1  0
 22 23  1  0
 24 25  2  0
 25 26  1  0
  8 27  1  0
 26 27  2  0
 27 28  1  0
 10 29  1  0
 24 29  1  0
 28 29  2  0
M  END
