x0540-x2569
     RDKit          3D

 30 32  0  0  0  0  0  0  0  0999 V2000
    2.8780    1.4870   24.3970 O   0  0  0  0  0  0  0  0  0  0  0  0
    2.9590    2.3930   23.5520 C   0  0  0  0  0  0  0  0  0  0  0  0
    4.2570    2.6620   22.8550 N   0  0  0  0  0  0  0  0  0  0  0  0
    5.1480    1.6300   22.5540 C   0  0  0  0  0  0  0  0  0  0  0  0
    4.6850    0.4980   21.7420 C   0  0  0  0  0  0  0  0  0  0  0  0
    1.8110    3.2470   23.1910 N   0  0  0  0  0  0  0  0  0  0  0  0
    8.2970    0.2680   21.6070 C   0  0  0  0  0  0  0  0  0  0  0  0
    8.7980    1.3180   21.1610 O   0  0  0  0  0  0  0  0  0  0  0  0
    8.7060   -0.3230   22.8960 C   0  0  0  0  0  0  0  0  0  0  0  0
   13.5170   -2.8760   20.7240 N   0  0  0  0  0  0  0  0  0  0  0  0
    7.3120   -0.4940   20.9910 N   0  0  0  0  0  0  0  0  0  0  0  0
   12.9620   -1.9950   21.5280 C   0  0  0  0  0  0  0  0  0  0  0  0
    6.5350   -0.0150   20.0320 C   0  0  0  0  0  0  0  0  0  0  0  0
    6.9290    0.0200   18.7100 C   0  0  0  0  0  0  0  0  0  0  0  0
    6.1920    0.5250   17.7180 N   0  0  0  0  0  0  0  0  0  0  0  0
    5.0090    1.0120   18.0660 C   0  0  0  0  0  0  0  0  0  0  0  0
    4.5010    1.0090   19.3580 C   0  0  0  0  0  0  0  0  0  0  0  0
    5.2640    0.4910   20.3450 C   0  0  0  0  0  0  0  0  0  0  0  0
    0.5750    4.6260   24.4830 C   0  0  0  0  0  0  0  0  0  0  0  0
   -0.6250    4.8130   25.1670 C   0  0  0  0  0  0  0  0  0  0  0  0
   -1.7660    4.7040   24.2460 C   0  0  0  0  0  0  0  0  0  0  0  0
   -1.7260    3.2930   23.8500 C   0  0  0  0  0  0  0  0  0  0  0  0
   -0.4990    2.8180   23.3800 C   0  0  0  0  0  0  0  0  0  0  0  0
    0.6870    3.3280   23.9410 C   0  0  0  0  0  0  0  0  0  0  0  0
   12.1570    0.6130   23.9730 N   0  0  0  0  0  0  0  0  0  0  0  0
   12.8480   -0.2410   23.1930 C   0  0  0  0  0  0  0  0  0  0  0  0
   12.2440   -1.1130   22.3370 C   0  0  0  0  0  0  0  0  0  0  0  0
   10.8870   -1.1770   22.2100 C   0  0  0  0  0  0  0  0  0  0  0  0
   10.1780   -0.3200   22.9860 C   0  0  0  0  0  0  0  0  0  0  0  0
   10.8330    0.5510   23.8480 C   0  0  0  0  0  0  0  0  0  0  0  0
  1  2  2  0
  2  3  1  0
  3  4  1  0
  4  5  1  0
  2  6  1  0
  7  8  2  0
  7  9  1  0
  7 11  1  0
 10 12  3  0
 11 13  1  0
 13 14  2  0
 14 15  1  0
 15 16  2  0
 16 17  1  0
  5 18  1  0
 13 18  1  0
 17 18  2  0
 19 20  1  0
 20 21  1  0
 21 22  1  0
 22 23  1  0
  6 24  1  0
 19 24  1  0
 23 24  1  0
 25 26  2  0
 12 27  1  0
 26 27  1  0
 27 28  2  0
  9 29  1  0
 28 29  1  0
 25 30  1  0
 29 30  2  0
M  END
