x0540-x1119
     RDKit          3D

 18 19  0  0  0  0  0  0  0  0999 V2000
    2.8330    1.5030   24.4110 O   0  0  0  0  0  0  0  0  0  0  0  0
    2.9120    2.3360   23.5100 C   0  0  0  0  0  0  0  0  0  0  0  0
    4.0170    2.5230   22.7090 N   0  0  0  0  0  0  0  0  0  0  0  0
    5.0260    1.4810   22.5860 C   0  0  0  0  0  0  0  0  0  0  0  0
    4.5540    0.3270   21.6980 C   0  0  0  0  0  0  0  0  0  0  0  0
    1.9130    3.2170   23.1580 N   0  0  0  0  0  0  0  0  0  0  0  0
    6.2440   -0.3560   20.0050 C   0  0  0  0  0  0  0  0  0  0  0  0
    6.7730   -0.2700   18.7430 C   0  0  0  0  0  0  0  0  0  0  0  0
    6.2770    0.5250   17.7780 N   0  0  0  0  0  0  0  0  0  0  0  0
    5.1940    1.2720   18.0830 C   0  0  0  0  0  0  0  0  0  0  0  0
    4.5760    1.2620   19.3320 C   0  0  0  0  0  0  0  0  0  0  0  0
    5.1250    0.4230   20.3130 C   0  0  0  0  0  0  0  0  0  0  0  0
    0.5840    4.7380   24.5230 C   0  0  0  0  0  0  0  0  0  0  0  0
   -0.7670    4.9970   25.1950 C   0  0  0  0  0  0  0  0  0  0  0  0
   -1.9630    4.6800   24.2990 C   0  0  0  0  0  0  0  0  0  0  0  0
   -1.8900    3.2690   23.7490 C   0  0  0  0  0  0  0  0  0  0  0  0
   -0.5480    2.9920   23.0720 C   0  0  0  0  0  0  0  0  0  0  0  0
    0.6860    3.3310   23.9330 C   0  0  0  0  0  0  0  0  0  0  0  0
  1  2  2  0
  2  3  1  0
  3  4  1  0
  4  5  1  0
  2  6  1  0
  7  8  2  0
  8  9  1  0
  9 10  2  0
 10 11  1  0
  5 12  1  0
  7 12  1  0
 11 12  2  0
 13 14  1  0
 14 15  1  0
 15 16  1  0
 16 17  1  0
  6 18  1  0
 13 18  1  0
 17 18  1  0
M  END
