x0540-x0165
     RDKit          3D

 18 19  0  0  0  0  0  0  0  0999 V2000
    2.8380    1.4970   24.4110 O   0  0  0  0  0  0  0  0  0  0  0  0
    2.9280    2.3390   23.5210 C   0  0  0  0  0  0  0  0  0  0  0  0
    4.0490    2.5330   22.7400 N   0  0  0  0  0  0  0  0  0  0  0  0
    5.0380    1.4700   22.5880 C   0  0  0  0  0  0  0  0  0  0  0  0
    4.5390    0.3400   21.6840 C   0  0  0  0  0  0  0  0  0  0  0  0
    1.9290    3.2190   23.1590 N   0  0  0  0  0  0  0  0  0  0  0  0
    6.2390   -0.3530   20.0040 C   0  0  0  0  0  0  0  0  0  0  0  0
    6.7760   -0.2700   18.7440 C   0  0  0  0  0  0  0  0  0  0  0  0
    6.2840    0.5280   17.7760 N   0  0  0  0  0  0  0  0  0  0  0  0
    5.2030    1.2780   18.0720 C   0  0  0  0  0  0  0  0  0  0  0  0
    4.5800    1.2690   19.3190 C   0  0  0  0  0  0  0  0  0  0  0  0
    5.1220    0.4300   20.3040 C   0  0  0  0  0  0  0  0  0  0  0  0
    0.5830    4.7440   24.5210 C   0  0  0  0  0  0  0  0  0  0  0  0
   -0.7690    5.0000   25.1950 C   0  0  0  0  0  0  0  0  0  0  0  0
   -1.9660    4.6870   24.3040 C   0  0  0  0  0  0  0  0  0  0  0  0
   -1.8920    3.2770   23.7430 C   0  0  0  0  0  0  0  0  0  0  0  0
   -0.5480    3.0070   23.0590 C   0  0  0  0  0  0  0  0  0  0  0  0
    0.6870    3.3370   23.9250 C   0  0  0  0  0  0  0  0  0  0  0  0
  1  2  2  0
  2  3  1  0
  3  4  1  0
  4  5  1  0
  2  6  1  0
  7  8  2  0
  8  9  1  0
  9 10  2  0
 10 11  1  0
  5 12  1  0
  7 12  1  0
 11 12  2  0
 13 14  1  0
 14 15  1  0
 15 16  1  0
 16 17  1  0
  6 18  1  0
 13 18  1  0
 17 18  1  0
M  END
