x0540-x0831
     RDKit          3D

 37 41  0  0  0  0  0  0  0  0999 V2000
    2.8360    1.5450   24.3720 O   0  0  0  0  0  0  0  0  0  0  0  0
    2.8990    2.4090   23.4980 C   0  0  0  0  0  0  0  0  0  0  0  0
    4.0090    2.6610   22.7220 N   0  0  0  0  0  0  0  0  0  0  0  0
    5.1820    1.8050   22.8010 C   0  0  0  0  0  0  0  0  0  0  0  0
    5.0390    0.5550   21.9390 C   0  0  2  0  0  0  0  0  0  0  0  0
    1.8720    3.2640   23.1530 N   0  0  0  0  0  0  0  0  0  0  0  0
   12.6540   -2.0680   22.2480 C   0  0  0  0  0  0  0  0  0  0  0  0
    5.4610   -4.6170   19.7650 O   0  0  0  0  0  0  0  0  0  0  0  0
    9.8490   -2.2980   23.5670 C   0  0  0  0  0  0  0  0  0  0  0  0
    5.8040   -3.4730   20.0240 C   0  0  0  0  0  0  0  0  0  0  0  0
    5.9150   -2.4960   19.0160 C   0  0  0  0  0  0  0  0  0  0  0  0
    6.0140   -0.5230   22.3090 C   0  0  1  0  0  0  0  0  0  0  0  0
    6.3490    0.0290   20.0010 C   0  0  0  0  0  0  0  0  0  0  0  0
    6.7350    0.0920   18.5460 C   0  0  0  0  0  0  0  0  0  0  0  0
    6.0900    0.8210   17.6280 N   0  0  0  0  0  0  0  0  0  0  0  0
    5.0330    1.5340   18.0710 C   0  0  0  0  0  0  0  0  0  0  0  0
    4.5250    1.5690   19.4960 C   0  0  0  0  0  0  0  0  0  0  0  0
    5.2700    0.7350   20.5230 C   0  0  0  0  0  0  0  0  0  0  0  0
    0.5270    4.7560   24.4530 C   0  0  0  0  0  0  0  0  0  0  0  0
   -0.7590    4.9690   25.2190 C   0  0  0  0  0  0  0  0  0  0  0  0
   -1.9830    4.6640   24.3580 C   0  0  0  0  0  0  0  0  0  0  0  0
   -1.8930    3.2670   23.7600 C   0  0  0  0  0  0  0  0  0  0  0  0
   -0.5830    3.0720   23.0070 C   0  0  0  0  0  0  0  0  0  0  0  0
    0.6410    3.3680   23.8790 C   0  0  0  0  0  0  0  0  0  0  0  0
   12.0060   -0.8990   22.9280 C   0  0  0  0  0  0  0  0  0  0  0  0
   10.6920   -1.0250   23.5450 C   0  0  0  0  0  0  0  0  0  0  0  0
   10.2080    0.1850   24.1480 C   0  0  0  0  0  0  0  0  0  0  0  0
   10.9680    1.3730   24.1120 C   0  0  0  0  0  0  0  0  0  0  0  0
   12.2180    1.4660   23.5160 C   0  0  0  0  0  0  0  0  0  0  0  0
   12.8020    0.3790   22.9120 C   0  0  0  0  0  0  0  0  0  0  0  0
    6.1080   -3.0330   21.2970 N   0  0  0  0  0  0  0  0  0  0  0  0
    6.0420   -1.6150   21.3370 C   0  0  2  0  0  0  0  0  0  0  0  0
    7.2440   -0.8770   21.4860 C   0  0  2  0  0  0  0  0  0  0  0  0
    8.4450   -1.5140   21.7890 C   0  0  0  0  0  0  0  0  0  0  0  0
    8.4670   -2.0190   23.1640 N   0  0  0  0  0  0  0  0  0  0  0  0
    7.5540   -3.1560   23.3610 C   0  0  0  0  0  0  0  0  0  0  0  0
    6.9980   -3.7820   22.2380 C   0  0  0  0  0  0  0  0  0  0  0  0
  1  2  2  0
  2  3  1  0
  3  4  1  0
  5  4  1  1
  2  6  1  0
  8 10  2  0
 10 11  1  0
 12  5  1  6
 13 14  2  0
 14 15  1  0
 15 16  2  0
 16 17  1  0
  5 18  1  0
 13 18  1  0
 17 18  2  0
 19 20  1  0
 20 21  1  0
 21 22  1  0
 22 23  1  0
  6 24  1  0
 19 24  1  0
 23 24  1  0
  7 25  1  0
  9 26  1  0
 25 26  2  0
 26 27  1  0
 27 28  2  0
 28 29  1  0
 25 30  1  0
 29 30  2  0
 10 31  1  0
 12 32  1  0
 32 31  1  1
 12 33  1  0
 32 33  1  0
 33 34  1  1
  9 35  1  0
 34 35  1  0
 35 36  1  0
 31 37  1  0
 36 37  1  0
M  END
