x0540-x0820
     RDKit          3D

 36 39  0  0  0  0  0  0  0  0999 V2000
    2.8190    1.5110   24.4460 O   0  0  0  0  0  0  0  0  0  0  0  0
    2.9300    2.2990   23.5110 C   0  0  0  0  0  0  0  0  0  0  0  0
    4.0310    2.3760   22.6790 N   0  0  0  0  0  0  0  0  0  0  0  0
    5.0820    1.3610   22.7340 C   0  0  0  0  0  0  0  0  0  0  0  0
    4.7450    0.1230   21.8890 C   0  0  2  0  0  0  0  0  0  0  0  0
    1.9680    3.2230   23.1520 N   0  0  0  0  0  0  0  0  0  0  0  0
    6.9980   -4.8070   21.7210 N   0  0  0  0  0  0  0  0  0  0  0  0
    7.4890   -2.5290   22.1660 C   0  0  0  0  0  0  0  0  0  0  0  0
    5.7080   -5.4090   19.9820 O   0  0  0  0  0  0  0  0  0  0  0  0
    7.2990   -3.7920   22.7370 C   0  0  1  0  0  0  0  0  0  0  0  0
    6.1350   -4.5180   20.7080 C   0  0  0  0  0  0  0  0  0  0  0  0
    5.6970   -3.2200   20.4230 C   0  0  0  0  0  0  0  0  0  0  0  0
    5.2390   -1.1740   22.5160 C   0  0  0  0  0  0  0  0  0  0  0  0
    6.7490   -1.3300   22.8120 C   0  0  0  0  0  0  0  0  0  0  0  0
    6.4060   -0.3090   20.0630 C   0  0  0  0  0  0  0  0  0  0  0  0
    6.8930   -0.0960   18.6380 C   0  0  0  0  0  0  0  0  0  0  0  0
    6.2920    0.6800   17.7080 N   0  0  0  0  0  0  0  0  0  0  0  0
    5.1670    1.3150   18.0760 C   0  0  0  0  0  0  0  0  0  0  0  0
    4.5450    1.2090   19.4490 C   0  0  0  0  0  0  0  0  0  0  0  0
    5.2430    0.3290   20.4810 C   0  0  0  0  0  0  0  0  0  0  0  0
    0.5940    4.7530   24.5010 C   0  0  0  0  0  0  0  0  0  0  0  0
   -0.7460    5.0050   25.1950 C   0  0  0  0  0  0  0  0  0  0  0  0
   -1.9270    4.6910   24.2830 C   0  0  0  0  0  0  0  0  0  0  0  0
   -1.8450    3.2720   23.7370 C   0  0  0  0  0  0  0  0  0  0  0  0
   -0.5180    3.0210   23.0220 C   0  0  0  0  0  0  0  0  0  0  0  0
    0.7090    3.3470   23.8930 C   0  0  0  0  0  0  0  0  0  0  0  0
    6.3530   -4.0070   23.9310 C   0  0  0  0  0  0  0  0  0  0  0  0
    6.8670   -4.1620   25.2710 C   0  0  0  0  0  0  0  0  0  0  0  0
    5.9510   -4.3620   26.3430 C   0  0  0  0  0  0  0  0  0  0  0  0
    4.5750   -4.4090   26.0880 C   0  0  0  0  0  0  0  0  0  0  0  0
    4.0840   -4.2630   24.7970 C   0  0  0  0  0  0  0  0  0  0  0  0
    4.9610   -4.0640   23.7360 C   0  0  0  0  0  0  0  0  0  0  0  0
    6.4100   -4.5160   27.6640 C   0  0  0  0  0  0  0  0  0  0  0  0
    7.7680   -4.4810   27.9590 C   0  0  0  0  0  0  0  0  0  0  0  0
    8.6860   -4.2910   26.9390 C   0  0  0  0  0  0  0  0  0  0  0  0
    8.2450   -4.1320   25.6210 C   0  0  0  0  0  0  0  0  0  0  0  0
  1  2  2  0
  2  3  1  0
  3  4  1  0
  5  4  1  1
  2  6  1  0
  7 10  1  0
 10  8  1  6
  7 11  1  0
  9 11  2  0
 11 12  1  0
  5 13  1  0
  8 14  1  0
 13 14  1  0
 15 16  2  0
 16 17  1  0
 17 18  2  0
 18 19  1  0
  5 20  1  0
 15 20  1  0
 19 20  2  0
 21 22  1  0
 22 23  1  0
 23 24  1  0
 24 25  1  0
  6 26  1  0
 21 26  1  0
 25 26  1  0
 10 27  1  0
 27 28  2  0
 28 29  1  0
 29 30  2  0
 30 31  1  0
 27 32  1  0
 31 32  2  0
 29 33  1  0
 33 34  2  0
 34 35  1  0
 28 36  1  0
 35 36  2  0
M  END
