x0540-x0499
     RDKit          3D

 18 19  0  0  0  0  0  0  0  0999 V2000
    2.8380    1.4940   24.4100 O   0  0  0  0  0  0  0  0  0  0  0  0
    2.9270    2.3280   23.5110 C   0  0  0  0  0  0  0  0  0  0  0  0
    4.0350    2.4960   22.7070 N   0  0  0  0  0  0  0  0  0  0  0  0
    5.0220    1.4320   22.5900 C   0  0  0  0  0  0  0  0  0  0  0  0
    4.5430    0.2950   21.6810 C   0  0  0  0  0  0  0  0  0  0  0  0
    1.9360    3.2250   23.1630 N   0  0  0  0  0  0  0  0  0  0  0  0
    6.2510   -0.3660   19.9790 C   0  0  0  0  0  0  0  0  0  0  0  0
    6.7840   -0.2620   18.7190 C   0  0  0  0  0  0  0  0  0  0  0  0
    6.2870    0.5390   17.7600 N   0  0  0  0  0  0  0  0  0  0  0  0
    5.2010    1.2780   18.0680 C   0  0  0  0  0  0  0  0  0  0  0  0
    4.5760    1.2520   19.3150 C   0  0  0  0  0  0  0  0  0  0  0  0
    5.1250    0.4070   20.2950 C   0  0  0  0  0  0  0  0  0  0  0  0
    0.5710    4.7440   24.5050 C   0  0  0  0  0  0  0  0  0  0  0  0
   -0.7830    4.9880   25.1750 C   0  0  0  0  0  0  0  0  0  0  0  0
   -1.9740    4.6530   24.2800 C   0  0  0  0  0  0  0  0  0  0  0  0
   -1.8830    3.2360   23.7390 C   0  0  0  0  0  0  0  0  0  0  0  0
   -0.5340    2.9670   23.0670 C   0  0  0  0  0  0  0  0  0  0  0  0
    0.6950    3.3320   23.9270 C   0  0  0  0  0  0  0  0  0  0  0  0
  1  2  2  0
  2  3  1  0
  3  4  1  0
  4  5  1  0
  2  6  1  0
  7  8  2  0
  8  9  1  0
  9 10  2  0
 10 11  1  0
  5 12  1  0
  7 12  1  0
 11 12  2  0
 13 14  1  0
 14 15  1  0
 15 16  1  0
 16 17  1  0
  6 18  1  0
 13 18  1  0
 17 18  1  0
M  END
