x0540-x0376
     RDKit          3D

 18 19  0  0  0  0  0  0  0  0999 V2000
    2.8270    1.4920   24.4070 O   0  0  0  0  0  0  0  0  0  0  0  0
    2.9180    2.3280   23.5090 C   0  0  0  0  0  0  0  0  0  0  0  0
    4.0270    2.5020   22.7100 N   0  0  0  0  0  0  0  0  0  0  0  0
    5.0140    1.4400   22.5760 C   0  0  0  0  0  0  0  0  0  0  0  0
    4.5340    0.3060   21.6680 C   0  0  0  0  0  0  0  0  0  0  0  0
    1.9290    3.2210   23.1590 N   0  0  0  0  0  0  0  0  0  0  0  0
    6.2390   -0.3560   19.9770 C   0  0  0  0  0  0  0  0  0  0  0  0
    6.7730   -0.2590   18.7180 C   0  0  0  0  0  0  0  0  0  0  0  0
    6.2790    0.5420   17.7560 N   0  0  0  0  0  0  0  0  0  0  0  0
    5.1920    1.2830   18.0590 C   0  0  0  0  0  0  0  0  0  0  0  0
    4.5640    1.2580   19.3040 C   0  0  0  0  0  0  0  0  0  0  0  0
    5.1120    0.4140   20.2840 C   0  0  0  0  0  0  0  0  0  0  0  0
    0.5800    4.7440   24.5110 C   0  0  0  0  0  0  0  0  0  0  0  0
   -0.7730    4.9910   25.1800 C   0  0  0  0  0  0  0  0  0  0  0  0
   -1.9670    4.6590   24.2850 C   0  0  0  0  0  0  0  0  0  0  0  0
   -1.8790    3.2440   23.7380 C   0  0  0  0  0  0  0  0  0  0  0  0
   -0.5320    2.9770   23.0660 C   0  0  0  0  0  0  0  0  0  0  0  0
    0.6960    3.3330   23.9290 C   0  0  0  0  0  0  0  0  0  0  0  0
  1  2  2  0
  2  3  1  0
  3  4  1  0
  4  5  1  0
  2  6  1  0
  7  8  2  0
  8  9  1  0
  9 10  2  0
 10 11  1  0
  5 12  1  0
  7 12  1  0
 11 12  2  0
 13 14  1  0
 14 15  1  0
 15 16  1  0
 16 17  1  0
  6 18  1  0
 13 18  1  0
 17 18  1  0
M  END
