x0540-x1187
     RDKit          3D

 18 19  0  0  0  0  0  0  0  0999 V2000
    2.8290    1.4980   24.4100 O   0  0  0  0  0  0  0  0  0  0  0  0
    2.9200    2.3410   23.5190 C   0  0  0  0  0  0  0  0  0  0  0  0
    4.0390    2.5290   22.7370 N   0  0  0  0  0  0  0  0  0  0  0  0
    5.0240    1.4650   22.6050 C   0  0  0  0  0  0  0  0  0  0  0  0
    4.5390    0.3370   21.6900 C   0  0  0  0  0  0  0  0  0  0  0  0
    1.9240    3.2240   23.1570 N   0  0  0  0  0  0  0  0  0  0  0  0
    6.2480   -0.3590   20.0120 C   0  0  0  0  0  0  0  0  0  0  0  0
    6.7900   -0.2780   18.7560 C   0  0  0  0  0  0  0  0  0  0  0  0
    6.3080    0.5190   17.7830 N   0  0  0  0  0  0  0  0  0  0  0  0
    5.2300    1.2700   18.0700 C   0  0  0  0  0  0  0  0  0  0  0  0
    4.5950    1.2690   19.3150 C   0  0  0  0  0  0  0  0  0  0  0  0
    5.1290    0.4270   20.3060 C   0  0  0  0  0  0  0  0  0  0  0  0
    0.5770    4.7480   24.5180 C   0  0  0  0  0  0  0  0  0  0  0  0
   -0.7730    4.9970   25.1910 C   0  0  0  0  0  0  0  0  0  0  0  0
   -1.9690    4.6780   24.2960 C   0  0  0  0  0  0  0  0  0  0  0  0
   -1.8920    3.2650   23.7440 C   0  0  0  0  0  0  0  0  0  0  0  0
   -0.5460    2.9990   23.0630 C   0  0  0  0  0  0  0  0  0  0  0  0
    0.6880    3.3410   23.9260 C   0  0  0  0  0  0  0  0  0  0  0  0
  1  2  2  0
  2  3  1  0
  3  4  1  0
  4  5  1  0
  2  6  1  0
  7  8  2  0
  8  9  1  0
  9 10  2  0
 10 11  1  0
  5 12  1  0
  7 12  1  0
 11 12  2  0
 13 14  1  0
 14 15  1  0
 15 16  1  0
 16 17  1  0
  6 18  1  0
 13 18  1  0
 17 18  1  0
M  END
