x0540-x1163
     RDKit          3D

 18 19  0  0  0  0  0  0  0  0999 V2000
    2.8400    1.5040   24.4110 O   0  0  0  0  0  0  0  0  0  0  0  0
    2.9210    2.3390   23.5120 C   0  0  0  0  0  0  0  0  0  0  0  0
    4.0340    2.5330   22.7200 N   0  0  0  0  0  0  0  0  0  0  0  0
    5.0400    1.4890   22.5810 C   0  0  0  0  0  0  0  0  0  0  0  0
    4.5690    0.3350   21.6930 C   0  0  0  0  0  0  0  0  0  0  0  0
    1.9160    3.2080   23.1480 N   0  0  0  0  0  0  0  0  0  0  0  0
    6.2500   -0.3440   19.9990 C   0  0  0  0  0  0  0  0  0  0  0  0
    6.7770   -0.2600   18.7350 C   0  0  0  0  0  0  0  0  0  0  0  0
    6.2810    0.5360   17.7710 N   0  0  0  0  0  0  0  0  0  0  0  0
    5.1990    1.2850   18.0780 C   0  0  0  0  0  0  0  0  0  0  0  0
    4.5830    1.2760   19.3290 C   0  0  0  0  0  0  0  0  0  0  0  0
    5.1320    0.4370   20.3100 C   0  0  0  0  0  0  0  0  0  0  0  0
    0.5860    4.7290   24.5220 C   0  0  0  0  0  0  0  0  0  0  0  0
   -0.7600    4.9930   25.1980 C   0  0  0  0  0  0  0  0  0  0  0  0
   -1.9620    4.6870   24.3080 C   0  0  0  0  0  0  0  0  0  0  0  0
   -1.8990    3.2700   23.7560 C   0  0  0  0  0  0  0  0  0  0  0  0
   -0.5580    2.9880   23.0710 C   0  0  0  0  0  0  0  0  0  0  0  0
    0.6830    3.3240   23.9240 C   0  0  0  0  0  0  0  0  0  0  0  0
  1  2  2  0
  2  3  1  0
  3  4  1  0
  4  5  1  0
  2  6  1  0
  7  8  2  0
  8  9  1  0
  9 10  2  0
 10 11  1  0
  5 12  1  0
  7 12  1  0
 11 12  2  0
 13 14  1  0
 14 15  1  0
 15 16  1  0
 16 17  1  0
  6 18  1  0
 13 18  1  0
 17 18  1  0
M  END
