x0540-x1086
     RDKit          3D

 18 19  0  0  0  0  0  0  0  0999 V2000
    2.8400    1.4970   24.4060 O   0  0  0  0  0  0  0  0  0  0  0  0
    2.9260    2.3380   23.5140 C   0  0  0  0  0  0  0  0  0  0  0  0
    4.0370    2.5350   22.7260 N   0  0  0  0  0  0  0  0  0  0  0  0
    5.0320    1.4790   22.5800 C   0  0  0  0  0  0  0  0  0  0  0  0
    4.5400    0.3330   21.6910 C   0  0  0  0  0  0  0  0  0  0  0  0
    1.9240    3.2230   23.1600 N   0  0  0  0  0  0  0  0  0  0  0  0
    6.2370   -0.3550   20.0020 C   0  0  0  0  0  0  0  0  0  0  0  0
    6.7670   -0.2640   18.7400 C   0  0  0  0  0  0  0  0  0  0  0  0
    6.2730    0.5320   17.7770 N   0  0  0  0  0  0  0  0  0  0  0  0
    5.1920    1.2790   18.0800 C   0  0  0  0  0  0  0  0  0  0  0  0
    4.5720    1.2680   19.3280 C   0  0  0  0  0  0  0  0  0  0  0  0
    5.1160    0.4280   20.3090 C   0  0  0  0  0  0  0  0  0  0  0  0
    0.5800    4.7490   24.5200 C   0  0  0  0  0  0  0  0  0  0  0  0
   -0.7690    5.0040   25.1920 C   0  0  0  0  0  0  0  0  0  0  0  0
   -1.9680    4.6860   24.3010 C   0  0  0  0  0  0  0  0  0  0  0  0
   -1.8910    3.2750   23.7450 C   0  0  0  0  0  0  0  0  0  0  0  0
   -0.5500    3.0040   23.0650 C   0  0  0  0  0  0  0  0  0  0  0  0
    0.6880    3.3410   23.9280 C   0  0  0  0  0  0  0  0  0  0  0  0
  1  2  2  0
  2  3  1  0
  3  4  1  0
  4  5  1  0
  2  6  1  0
  7  8  2  0
  8  9  1  0
  9 10  2  0
 10 11  1  0
  5 12  1  0
  7 12  1  0
 11 12  2  0
 13 14  1  0
 14 15  1  0
 15 16  1  0
 16 17  1  0
  6 18  1  0
 13 18  1  0
 17 18  1  0
M  END
