x0540-x0887
     RDKit          3D

 18 19  0  0  0  0  0  0  0  0999 V2000
    2.8310    1.5020   24.4110 O   0  0  0  0  0  0  0  0  0  0  0  0
    2.9120    2.3390   23.5110 C   0  0  0  0  0  0  0  0  0  0  0  0
    4.0200    2.5210   22.7090 N   0  0  0  0  0  0  0  0  0  0  0  0
    5.0240    1.4790   22.5850 C   0  0  0  0  0  0  0  0  0  0  0  0
    4.5540    0.3280   21.6990 C   0  0  0  0  0  0  0  0  0  0  0  0
    1.9160    3.2190   23.1600 N   0  0  0  0  0  0  0  0  0  0  0  0
    6.2450   -0.3560   20.0040 C   0  0  0  0  0  0  0  0  0  0  0  0
    6.7730   -0.2700   18.7420 C   0  0  0  0  0  0  0  0  0  0  0  0
    6.2750    0.5280   17.7760 N   0  0  0  0  0  0  0  0  0  0  0  0
    5.1920    1.2730   18.0820 C   0  0  0  0  0  0  0  0  0  0  0  0
    4.5740    1.2630   19.3330 C   0  0  0  0  0  0  0  0  0  0  0  0
    5.1260    0.4230   20.3120 C   0  0  0  0  0  0  0  0  0  0  0  0
    0.5800    4.7400   24.5230 C   0  0  0  0  0  0  0  0  0  0  0  0
   -0.7680    4.9990   25.1950 C   0  0  0  0  0  0  0  0  0  0  0  0
   -1.9670    4.6810   24.3000 C   0  0  0  0  0  0  0  0  0  0  0  0
   -1.8920    3.2660   23.7500 C   0  0  0  0  0  0  0  0  0  0  0  0
   -0.5460    2.9950   23.0730 C   0  0  0  0  0  0  0  0  0  0  0  0
    0.6860    3.3340   23.9360 C   0  0  0  0  0  0  0  0  0  0  0  0
  1  2  2  0
  2  3  1  0
  3  4  1  0
  4  5  1  0
  2  6  1  0
  7  8  2  0
  8  9  1  0
  9 10  2  0
 10 11  1  0
  5 12  1  0
  7 12  1  0
 11 12  2  0
 13 14  1  0
 14 15  1  0
 15 16  1  0
 16 17  1  0
  6 18  1  0
 13 18  1  0
 17 18  1  0
M  END
