x0540-x2608
     RDKit          3D

 28 30  0  0  0  0  0  0  0  0999 V2000
    2.8080    1.5350   24.4360 O   0  0  0  0  0  0  0  0  0  0  0  0
    2.9280    2.3920   23.5510 C   0  0  0  0  0  0  0  0  0  0  0  0
    4.2370    2.5580   22.8500 N   0  0  0  0  0  0  0  0  0  0  0  0
    5.0240    1.4420   22.5690 C   0  0  0  0  0  0  0  0  0  0  0  0
    4.4880    0.4070   21.6710 C   0  0  0  0  0  0  0  0  0  0  0  0
    1.8110    3.2730   23.1620 N   0  0  0  0  0  0  0  0  0  0  0  0
    8.8360   -1.2830   22.5170 N   0  0  0  0  0  0  0  0  0  0  0  0
   12.9080    1.8880   22.8300 C   0  0  0  0  0  0  0  0  0  0  0  0
    8.4890    0.6930   21.2070 O   0  0  0  0  0  0  0  0  0  0  0  0
    7.0420   -1.0650   20.9260 N   0  0  0  0  0  0  0  0  0  0  0  0
    8.1490   -0.4500   21.5190 C   0  0  0  0  0  0  0  0  0  0  0  0
    6.2610   -0.2750   20.0130 C   0  0  0  0  0  0  0  0  0  0  0  0
    6.7580   -0.1720   18.6140 C   0  0  0  0  0  0  0  0  0  0  0  0
    6.1710    0.5410   17.6440 N   0  0  0  0  0  0  0  0  0  0  0  0
    5.0640    1.1800   18.0470 C   0  0  0  0  0  0  0  0  0  0  0  0
    4.5090    1.1490   19.3040 C   0  0  0  0  0  0  0  0  0  0  0  0
    5.0920    0.4150   20.3390 C   0  0  0  0  0  0  0  0  0  0  0  0
    0.5500    4.6590   24.6490 C   0  0  0  0  0  0  0  0  0  0  0  0
   -0.7250    4.9070   25.1950 C   0  0  0  0  0  0  0  0  0  0  0  0
   -1.6910    4.7230   24.2020 C   0  0  0  0  0  0  0  0  0  0  0  0
   -1.8200    3.2980   23.8420 C   0  0  0  0  0  0  0  0  0  0  0  0
   -0.5340    2.9750   23.2130 C   0  0  0  0  0  0  0  0  0  0  0  0
    0.5830    3.3450   23.9630 C   0  0  0  0  0  0  0  0  0  0  0  0
   12.0550    0.6810   22.9100 C   0  0  0  0  0  0  0  0  0  0  0  0
   12.4350   -0.6130   23.2760 C   0  0  0  0  0  0  0  0  0  0  0  0
   11.3970   -1.4810   23.2080 C   0  0  0  0  0  0  0  0  0  0  0  0
   10.2070   -0.9050   22.7980 C   0  0  0  0  0  0  0  0  0  0  0  0
   10.4020    0.7710   22.5230 S   0  0  0  0  0  0  0  0  0  0  0  0
  1  2  2  0
  2  3  1  0
  3  4  1  0
  4  5  1  0
  2  6  1  0
  7 11  1  0
  9 11  2  0
 10 11  1  0
 10 12  1  0
 12 13  2  0
 13 14  1  0
 14 15  2  0
 15 16  1  0
  5 17  1  0
 12 17  1  0
 16 17  2  0
 18 19  1  0
 19 20  1  0
 20 21  1  0
 21 22  1  0
  6 23  1  0
 18 23  1  0
 22 23  1  0
  8 24  1  0
 24 25  2  0
 25 26  1  0
  7 27  1  0
 26 27  2  0
 24 28  1  0
 27 28  1  0
M  END
