x0540-x0981
     RDKit          3D

 15 14  0  0  0  0  0  0  0  0999 V2000
    1.1890   -8.7510   21.3110 C   0  0  0  0  0  0  0  0  0  0  0  0
    2.6390   -7.2890   22.7380 N   0  0  0  0  0  0  0  0  0  0  0  0
    0.4180   -6.6880   22.2350 O   0  0  0  0  0  0  0  0  0  0  0  0
    1.3350   -7.4930   22.1210 C   0  0  0  0  0  0  0  0  0  0  0  0
    2.2710   -8.3470   26.1250 N   0  0  0  0  0  0  0  0  0  0  0  0
    3.9800   -8.1740   24.6490 O   0  0  0  0  0  0  0  0  0  0  0  0
    2.9210   -6.0750   23.5180 C   0  0  1  0  0  0  0  0  0  0  0  0
    5.2610   -6.3740   22.6350 N   0  0  0  0  0  0  0  0  0  0  0  0
    4.6950   -4.4290   23.6280 O   0  0  0  0  0  0  0  0  0  0  0  0
    2.6900   -6.3490   25.0040 C   0  0  0  0  0  0  0  0  0  0  0  0
    3.0360   -7.6620   25.2240 C   0  0  0  0  0  0  0  0  0  0  0  0
    4.3720   -5.5630   23.2580 C   0  0  0  0  0  0  0  0  0  0  0  0
    6.5140   -5.9130   22.1960 C   0  0  0  0  0  0  0  0  0  0  0  0
    6.5010   -4.7740   21.4010 C   0  0  0  0  0  0  0  0  0  0  0  0
    5.6940   -4.6110   20.1360 C   0  0  0  0  0  0  0  0  0  0  0  0
  1  4  1  0
  2  4  1  0
  3  4  2  0
  2  7  1  0
  7 10  1  1
  5 11  1  0
  6 11  2  0
 10 11  1  0
  7 12  1  0
  8 12  1  0
  9 12  2  0
  8 13  1  0
 13 14  1  0
 14 15  2  3
M  END
