x0669-x0830
     RDKit          3D

 20 22  0  0  0  0  0  0  0  0999 V2000
    6.9800   -2.1300   18.5720 C   0  0  0  0  0  0  0  0  0  0  0  0
    5.4800   -3.6380   19.6520 O   0  0  0  0  0  0  0  0  0  0  0  0
    6.2690   -2.6800   19.7620 C   0  0  0  0  0  0  0  0  0  0  0  0
    9.8450   -2.3750   23.7600 C   0  0  0  0  0  0  0  0  0  0  0  0
    6.6580   -1.9340   20.9590 N   0  0  0  0  0  0  0  0  0  0  0  0
    6.4420   -2.7050   22.1970 C   0  0  0  0  0  0  0  0  0  0  0  0
    7.7680   -3.1670   22.8040 C   0  0  0  0  0  0  0  0  0  0  0  0
    8.6880   -2.0420   23.0720 N   0  0  0  0  0  0  0  0  0  0  0  0
    8.9630   -1.3770   21.8670 C   0  0  0  0  0  0  0  0  0  0  0  0
    7.7830   -1.0810   20.9620 C   0  0  0  0  0  0  0  0  0  0  0  0
   12.1270   -1.8730   22.8270 C   0  0  0  0  0  0  0  0  0  0  0  0
   13.1270   -0.9670   22.5210 C   0  0  0  0  0  0  0  0  0  0  0  0
   12.9710    0.3750   22.8090 C   0  0  0  0  0  0  0  0  0  0  0  0
   11.8070    0.8200   23.4060 C   0  0  0  0  0  0  0  0  0  0  0  0
   10.8000   -0.0790   23.7360 C   0  0  0  0  0  0  0  0  0  0  0  0
   10.9570   -1.4160   23.4380 C   0  0  0  0  0  0  0  0  0  0  0  0
   11.6470    2.1660   23.6640 C   0  0  0  0  0  0  0  0  0  0  0  0
   10.3630    2.6470   24.3230 C   0  0  0  0  0  0  0  0  0  0  0  0
    9.3940    1.7190   24.6600 C   0  0  0  0  0  0  0  0  0  0  0  0
    9.6170    0.3770   24.3650 C   0  0  0  0  0  0  0  0  0  0  0  0
  1  3  1  0
  2  3  2  0
  3  5  1  0
  5  6  1  0
  6  7  1  0
  4  8  1  0
  7  8  1  0
  8  9  1  0
  5 10  1  0
  9 10  1  0
 11 12  2  0
 12 13  1  0
 13 14  2  0
 14 15  1  0
  4 16  1  0
 11 16  1  0
 15 16  2  0
 14 17  1  0
 17 18  2  0
 18 19  1  0
 15 20  1  0
 19 20  2  0
M  END
