x0669-x0771
     RDKit          3D

 20 21  0  0  0  0  0  0  0  0999 V2000
    0.7250   -1.2330   26.1790 C   0  0  0  0  0  0  0  0  0  0  0  0
    4.3940   -6.9060   25.8140 O   0  0  0  0  0  0  0  0  0  0  0  0
    6.0610   -5.1510   26.8680 O   0  0  0  0  0  0  0  0  0  0  0  0
    5.4890   -4.2930   19.8300 O   0  0  0  0  0  0  0  0  0  0  0  0
    1.9990   -6.0490   24.9590 C   0  0  0  0  0  0  0  0  0  0  0  0
    6.2340   -3.9600   20.7580 C   0  0  0  0  0  0  0  0  0  0  0  0
    6.6940   -2.6470   20.8510 C   0  0  0  0  0  0  0  0  0  0  0  0
    4.9670   -5.5800   25.7980 S   0  0  0  0  0  0  0  0  0  0  0  0
    1.6900   -2.3720   26.0310 C   0  0  0  0  0  0  0  0  0  0  0  0
    1.2490   -3.7320   25.5070 C   0  0  0  0  0  0  0  0  0  0  0  0
    2.3530   -4.7790   25.4300 C   0  0  0  0  0  0  0  0  0  0  0  0
    3.6550   -4.4550   25.8280 C   0  0  0  0  0  0  0  0  0  0  0  0
    3.9840   -3.1780   26.2930 C   0  0  0  0  0  0  0  0  0  0  0  0
    3.0280   -2.1670   26.3910 C   0  0  0  0  0  0  0  0  0  0  0  0
    6.7110   -4.8960   21.7970 N   0  0  0  0  0  0  0  0  0  0  0  0
    5.8950   -6.0820   22.0470 C   0  0  0  0  0  0  0  0  0  0  0  0
    4.9780   -5.8810   23.0930 C   0  0  0  0  0  0  0  0  0  0  0  0
    5.6970   -5.3560   24.3030 N   0  0  0  0  0  0  0  0  0  0  0  0
    6.3460   -4.1340   24.0980 C   0  0  0  0  0  0  0  0  0  0  0  0
    7.3700   -4.3180   22.9750 C   0  0  0  0  0  0  0  0  0  0  0  0
  4  6  2  0
  6  7  1  0
  2  8  2  0
  3  8  2  0
  1  9  1  0
  9 10  2  0
  5 11  1  0
 10 11  1  0
  8 12  1  0
 11 12  2  0
 12 13  1  0
  9 14  1  0
 13 14  2  0
  6 15  1  0
 15 16  1  0
 16 17  1  0
  8 18  1  0
 17 18  1  0
 18 19  1  0
 15 20  1  0
 19 20  1  0
M  END
