x0669-x0749
     RDKit          3D

 16 18  0  0  0  0  0  0  0  0999 V2000
    7.9620   -1.9580   20.4390 C   0  0  0  0  0  0  0  0  0  0  0  0
    6.3440   -3.6750   20.2020 O   0  0  0  0  0  0  0  0  0  0  0  0
    7.2270   -3.1570   20.9190 C   0  0  0  0  0  0  0  0  0  0  0  0
    7.5240   -3.6270   22.2890 N   0  0  0  0  0  0  0  0  0  0  0  0
    8.7750   -3.5840   23.1310 C   0  0  0  0  0  0  0  0  0  0  0  0
    8.9000   -4.6930   23.9960 C   0  0  0  0  0  0  0  0  0  0  0  0
    7.9320   -5.8480   24.0790 C   0  0  0  0  0  0  0  0  0  0  0  0
    6.9930   -5.9300   22.9020 C   0  0  0  0  0  0  0  0  0  0  0  0
    6.5420   -4.5190   22.7340 C   0  0  0  0  0  0  0  0  0  0  0  0
   10.2540   -4.7870   25.0660 S   0  0  0  0  0  0  0  0  0  0  0  0
   10.9350   -3.3360   24.5110 C   0  0  0  0  0  0  0  0  0  0  0  0
   10.1140   -2.7640   23.5140 C   0  0  0  0  0  0  0  0  0  0  0  0
   10.6260   -1.5370   23.0170 C   0  0  0  0  0  0  0  0  0  0  0  0
   11.8580   -0.9980   23.5120 C   0  0  0  0  0  0  0  0  0  0  0  0
   12.6150   -1.6290   24.4940 C   0  0  0  0  0  0  0  0  0  0  0  0
   12.1500   -2.8200   25.0080 C   0  0  0  0  0  0  0  0  0  0  0  0
  1  3  1  0
  2  3  2  0
  3  4  1  0
  4  5  1  0
  5  6  2  0
  6  7  1  0
  7  8  1  0
  4  9  1  0
  8  9  1  0
  6 10  1  0
 10 11  1  0
  5 12  1  0
 11 12  2  0
 12 13  1  0
 13 14  2  0
 14 15  1  0
 11 16  1  0
 15 16  2  0
M  END
