x0678-x1249
     RDKit          3D

 28 30  0  0  0  0  0  0  0  0999 V2000
    8.3660    0.8090   24.7190 N   0  0  0  0  0  0  0  0  0  0  0  0
    7.5270    1.7000   24.0410 C   0  0  0  0  0  0  0  0  0  0  0  0
    7.9460    2.7890   23.6590 O   0  0  0  0  0  0  0  0  0  0  0  0
    9.7740    1.0250   24.9590 C   0  0  0  0  0  0  0  0  0  0  0  0
   13.5760   -2.9440   20.6790 N   0  0  0  0  0  0  0  0  0  0  0  0
   13.0300   -2.0580   21.4820 C   0  0  0  0  0  0  0  0  0  0  0  0
    8.9610    1.1160   21.3210 O   0  0  0  0  0  0  0  0  0  0  0  0
    8.2200   -0.0650   21.7180 C   0  0  0  0  0  0  0  0  0  0  0  0
    8.6090   -0.8860   22.8910 C   0  0  0  0  0  0  0  0  0  0  0  0
    7.1140   -0.5860   21.1010 N   0  0  0  0  0  0  0  0  0  0  0  0
    3.3880    0.8500   23.8360 O   0  0  0  0  0  0  0  0  0  0  0  0
    4.0690    1.0650   22.6010 C   0  0  0  0  0  0  0  0  0  0  0  0
    5.3720    1.8340   22.7720 C   0  0  0  0  0  0  0  0  0  0  0  0
    6.2380    1.2740   23.8340 N   0  0  0  0  0  0  0  0  0  0  0  0
    5.4290    0.8160   25.0430 C   0  0  0  0  0  0  0  0  0  0  0  0
    4.2180    0.1920   24.8050 C   0  0  0  0  0  0  0  0  0  0  0  0
   12.0330    0.3860   24.0660 C   0  0  0  0  0  0  0  0  0  0  0  0
   12.8240   -0.3340   23.2510 C   0  0  0  0  0  0  0  0  0  0  0  0
   12.2980   -1.2500   22.3460 C   0  0  0  0  0  0  0  0  0  0  0  0
   10.9560   -1.4110   22.2600 C   0  0  0  0  0  0  0  0  0  0  0  0
   10.0490   -0.6680   23.0890 C   0  0  0  0  0  0  0  0  0  0  0  0
   10.6500    0.2380   24.0260 C   0  0  0  0  0  0  0  0  0  0  0  0
    5.3560    0.7400   20.2170 C   0  0  0  0  0  0  0  0  0  0  0  0
    4.7770    1.3560   19.1210 C   0  0  0  0  0  0  0  0  0  0  0  0
    5.3580    1.2500   17.8690 C   0  0  0  0  0  0  0  0  0  0  0  0
    6.4810    0.5480   17.6860 N   0  0  0  0  0  0  0  0  0  0  0  0
    7.0310   -0.0500   18.7430 C   0  0  0  0  0  0  0  0  0  0  0  0
    6.5240    0.0180   20.0110 C   0  0  0  0  0  0  0  0  0  0  0  0
  1  2  1  0
  2  3  2  0
  1  4  1  0
  5  6  3  0
  7  8  2  0
  8  9  1  0
  8 10  1  0
 11 12  1  0
 12 13  1  0
  2 14  1  0
 13 14  1  0
 14 15  1  0
 11 16  1  0
 15 16  1  0
 17 18  2  0
  6 19  1  0
 18 19  1  0
 19 20  2  0
  9 21  1  0
 20 21  1  0
  4 22  1  0
 17 22  1  0
 21 22  2  0
 23 24  2  0
 24 25  1  0
 25 26  2  0
 26 27  1  0
 10 28  1  0
 23 28  1  0
 27 28  2  0
M  END
