x0678-x0830
     RDKit          3D

 29 33  0  0  0  0  0  0  0  0999 V2000
    7.6950   -3.6260   19.6870 C   0  0  0  0  0  0  0  0  0  0  0  0
    5.4350   -3.3030   19.3200 O   0  0  0  0  0  0  0  0  0  0  0  0
    6.4570   -2.9790   20.0310 C   0  0  0  0  0  0  0  0  0  0  0  0
    9.8580   -2.4380   23.4870 C   0  0  0  0  0  0  0  0  0  0  0  0
    8.6310    1.2160   21.2260 O   0  0  0  0  0  0  0  0  0  0  0  0
    8.1130    0.0840   21.9670 C   0  0  2  0  0  0  0  0  0  0  0  0
    7.6540    0.2440   23.3580 C   0  0  0  0  0  0  0  0  0  0  0  0
    6.5010   -2.1020   21.1610 N   0  0  0  0  0  0  0  0  0  0  0  0
    6.3410   -2.7350   22.4660 C   0  0  0  0  0  0  0  0  0  0  0  0
    7.6630   -3.3210   22.8770 C   0  0  0  0  0  0  0  0  0  0  0  0
    8.8620   -2.6070   22.3980 N   0  0  0  0  0  0  0  0  0  0  0  0
    8.6560   -1.3370   21.5900 C   0  0  1  0  0  0  0  0  0  0  0  0
    7.4840   -0.9970   21.1320 C   0  0  2  0  0  0  0  0  0  0  0  0
   12.1760   -2.0180   22.6570 C   0  0  0  0  0  0  0  0  0  0  0  0
   13.1770   -1.1730   22.4210 C   0  0  0  0  0  0  0  0  0  0  0  0
   13.1820    0.2020   22.6960 C   0  0  0  0  0  0  0  0  0  0  0  0
   12.0230    0.6990   23.2630 C   0  0  0  0  0  0  0  0  0  0  0  0
   10.8770   -0.1410   23.5840 C   0  0  0  0  0  0  0  0  0  0  0  0
   11.0380   -1.5230   23.2270 C   0  0  0  0  0  0  0  0  0  0  0  0
   11.9400    1.9330   23.5080 C   0  0  0  0  0  0  0  0  0  0  0  0
   10.7960    2.4830   24.0690 C   0  0  0  0  0  0  0  0  0  0  0  0
    9.6840    1.6920   24.4170 C   0  0  0  0  0  0  0  0  0  0  0  0
    9.7310    0.3640   24.1720 C   0  0  0  0  0  0  0  0  0  0  0  0
    5.7960    0.6570   20.3620 C   0  0  0  0  0  0  0  0  0  0  0  0
    5.1680    1.4040   19.3830 C   0  0  0  0  0  0  0  0  0  0  0  0
    5.6020    1.3060   18.0730 C   0  0  0  0  0  0  0  0  0  0  0  0
    6.6180    0.5110   17.7320 N   0  0  0  0  0  0  0  0  0  0  0  0
    7.2080   -0.2140   18.7030 C   0  0  0  0  0  0  0  0  0  0  0  0
    6.8610   -0.1930   20.0280 C   0  0  0  0  0  0  0  0  0  0  0  0
  1  3  1  0
  2  3  2  0
  6  5  1  0
  6  7  1  1
  3  8  1  0
  8  9  1  0
  9 10  1  0
  4 11  1  0
 10 11  1  0
  6 12  1  0
 12 11  1  1
  6 13  1  0
  8 13  1  0
 12 13  1  0
 14 15  2  0
 15 16  1  0
 16 17  2  0
 17 18  1  0
  4 19  1  0
 14 19  1  0
 18 19  2  0
 17 20  1  0
 20 21  2  0
 21 22  1  0
 18 23  1  0
 22 23  2  0
 24 25  2  0
 25 26  1  0
 26 27  2  0
 27 28  1  0
 13 29  1  6
 24 29  1  0
 28 29  2  0
M  END
