x0678-x1386
     RDKit          3D

 25 27  0  0  0  0  0  0  0  0999 V2000
    7.4280   -3.0010   18.6720 C   0  0  0  0  0  0  0  0  0  0  0  0
    5.5300   -4.0290   19.7200 O   0  0  0  0  0  0  0  0  0  0  0  0
    6.5230   -3.2430   19.8230 C   0  0  0  0  0  0  0  0  0  0  0  0
   10.1280   -2.7760   23.6700 C   0  0  0  0  0  0  0  0  0  0  0  0
    9.0550    1.7710   21.1720 O   0  0  0  0  0  0  0  0  0  0  0  0
    8.4920    0.6190   21.7980 C   0  0  0  0  0  0  0  0  0  0  0  0
    8.9660    0.2570   23.1540 C   0  0  0  0  0  0  0  0  0  0  0  0
    7.5210   -0.1870   21.2160 N   0  0  0  0  0  0  0  0  0  0  0  0
    6.8490   -2.5720   21.0090 N   0  0  0  0  0  0  0  0  0  0  0  0
    7.9230   -1.5610   20.9150 C   0  0  2  0  0  0  0  0  0  0  0  0
    9.1870   -1.9490   21.6560 C   0  0  0  0  0  0  0  0  0  0  0  0
    8.8800   -2.3790   23.0200 N   0  0  0  0  0  0  0  0  0  0  0  0
    7.8780   -3.4560   22.9740 C   0  0  0  0  0  0  0  0  0  0  0  0
    6.6820   -3.1430   22.3530 C   0  0  0  0  0  0  0  0  0  0  0  0
   12.0990   -1.6400   22.6360 C   0  0  0  0  0  0  0  0  0  0  0  0
   11.1170   -1.6590   23.5630 C   0  0  0  0  0  0  0  0  0  0  0  0
   11.0720   -0.5520   24.4220 C   0  0  0  0  0  0  0  0  0  0  0  0
   12.3110    0.5460   24.0110 S   0  0  0  0  0  0  0  0  0  0  0  0
   12.8720   -0.4570   22.7540 C   0  0  0  0  0  0  0  0  0  0  0  0
    5.6240    1.1340   20.3840 C   0  0  0  0  0  0  0  0  0  0  0  0
    4.8620    1.6320   19.2380 C   0  0  0  0  0  0  0  0  0  0  0  0
    5.2890    1.2710   17.9850 C   0  0  0  0  0  0  0  0  0  0  0  0
    6.3510    0.4930   17.7640 N   0  0  0  0  0  0  0  0  0  0  0  0
    7.0400    0.0380   18.8280 C   0  0  0  0  0  0  0  0  0  0  0  0
    6.7310    0.3270   20.1590 C   0  0  0  0  0  0  0  0  0  0  0  0
  1  3  1  0
  2  3  2  0
  5  6  2  0
  6  7  1  0
  6  8  1  0
  3  9  1  0
 10  8  1  1
  9 10  1  0
 10 11  1  0
  4 12  1  0
 11 12  1  0
 12 13  1  0
  9 14  1  0
 13 14  1  0
  4 16  1  0
 15 16  1  0
 16 17  2  0
 17 18  1  0
 15 19  2  0
 18 19  1  0
 20 21  2  0
 21 22  1  0
 22 23  2  0
 23 24  1  0
  8 25  1  0
 20 25  1  0
 24 25  2  0
M  END
