x0678-x0770
     RDKit          3D

 27 30  0  0  0  0  0  0  0  0999 V2000
    6.4380   -2.1050   18.7200 C   0  0  0  0  0  0  0  0  0  0  0  0
    5.4460   -4.0520   19.7270 O   0  0  0  0  0  0  0  0  0  0  0  0
   13.2990   -1.8880   21.1710 Cl  0  0  0  0  0  0  0  0  0  0  0  0
    6.1630   -3.0530   19.8770 C   0  0  0  0  0  0  0  0  0  0  0  0
    9.1860   -2.3150   24.2900 C   0  0  0  0  0  0  0  0  0  0  0  0
    8.8400    1.6370   21.0260 O   0  0  0  0  0  0  0  0  0  0  0  0
    8.8620    0.4970   21.5090 C   0  0  0  0  0  0  0  0  0  0  0  0
    9.9420    0.0610   22.2650 C   0  0  0  0  0  0  0  0  0  0  0  0
    7.7070   -0.4450   21.3400 C   0  0  1  0  0  0  0  0  0  0  0  0
    6.8130   -2.7550   21.0510 N   0  0  0  0  0  0  0  0  0  0  0  0
    7.7700   -1.6620   21.2950 C   0  0  2  0  0  0  0  0  0  0  0  0
    7.6050   -1.1710   22.6440 C   0  0  1  0  0  0  0  0  0  0  0  0
    8.1760   -2.4060   23.2250 N   0  0  0  0  0  0  0  0  0  0  0  0
    7.1290   -3.3180   23.4230 C   0  0  0  0  0  0  0  0  0  0  0  0
    6.1500   -3.3310   22.2450 C   0  0  0  0  0  0  0  0  0  0  0  0
   10.6880   -0.3060   24.6200 C   0  0  0  0  0  0  0  0  0  0  0  0
   11.9050    0.4430   24.1720 C   0  0  0  0  0  0  0  0  0  0  0  0
   12.7340   -0.0720   23.0760 C   0  0  0  0  0  0  0  0  0  0  0  0
   12.3900   -1.2540   22.4500 C   0  0  0  0  0  0  0  0  0  0  0  0
   11.2390   -1.9300   22.8930 C   0  0  0  0  0  0  0  0  0  0  0  0
   10.4010   -1.4960   23.9320 C   0  0  0  0  0  0  0  0  0  0  0  0
    5.5170    0.8310   20.6590 C   0  0  0  0  0  0  0  0  0  0  0  0
    4.7380    1.3440   19.6210 C   0  0  0  0  0  0  0  0  0  0  0  0
    5.1990    1.1690   18.1880 C   0  0  0  0  0  0  0  0  0  0  0  0
    6.3110    0.5440   17.8300 N   0  0  0  0  0  0  0  0  0  0  0  0
    7.0390    0.0570   18.8530 C   0  0  0  0  0  0  0  0  0  0  0  0
    6.7120    0.1620   20.3510 C   0  0  0  0  0  0  0  0  0  0  0  0
  1  4  1  0
  2  4  2  0
  6  7  2  0
  7  8  1  0
  9  7  1  1
  4 10  1  0
  9 11  1  0
 11 10  1  6
  9 12  1  0
 11 12  1  0
  5 13  1  0
 12 13  1  1
 13 14  1  0
 10 15  1  0
 14 15  1  0
 16 17  2  0
 17 18  1  0
  3 19  1  0
 18 19  2  0
 19 20  1  0
  5 21  1  0
 16 21  1  0
 20 21  2  0
 22 23  2  0
 23 24  1  0
 24 25  2  0
 25 26  1  0
  9 27  1  0
 22 27  1  0
 26 27  2  0
M  END
