x0678-x2600
     RDKit          3D

 18 19  0  0  0  0  0  0  0  0999 V2000
   13.5030   -2.7170   20.7560 N   0  0  0  0  0  0  0  0  0  0  0  0
    8.2480    0.3180   21.6380 C   0  0  0  0  0  0  0  0  0  0  0  0
    8.8310    1.3530   21.2480 O   0  0  0  0  0  0  0  0  0  0  0  0
    8.6830   -0.3990   22.8940 C   0  0  0  0  0  0  0  0  0  0  0  0
    7.1850   -0.3060   21.0400 N   0  0  0  0  0  0  0  0  0  0  0  0
   13.0000   -1.9960   21.4570 C   0  0  0  0  0  0  0  0  0  0  0  0
    6.2570    0.6060   17.6560 N   0  0  0  0  0  0  0  0  0  0  0  0
    6.8610    0.0890   18.7330 C   0  0  0  0  0  0  0  0  0  0  0  0
    6.4370    0.2790   20.0270 C   0  0  0  0  0  0  0  0  0  0  0  0
    5.2980    1.0490   20.2260 C   0  0  0  0  0  0  0  0  0  0  0  0
    4.6480    1.5980   19.1280 C   0  0  0  0  0  0  0  0  0  0  0  0
    5.1660    1.3530   17.8770 C   0  0  0  0  0  0  0  0  0  0  0  0
   10.7760    0.5540   23.8600 C   0  0  0  0  0  0  0  0  0  0  0  0
   12.1540    0.5930   23.9180 C   0  0  0  0  0  0  0  0  0  0  0  0
   12.9170   -0.2420   23.1340 C   0  0  0  0  0  0  0  0  0  0  0  0
   12.2920   -1.1270   22.2840 C   0  0  0  0  0  0  0  0  0  0  0  0
   10.9190   -1.1800   22.2130 C   0  0  0  0  0  0  0  0  0  0  0  0
   10.1590   -0.3380   22.9990 C   0  0  0  0  0  0  0  0  0  0  0  0
  2  3  2  0
  2  4  1  0
  2  5  1  0
  1  6  3  0
  7  8  2  0
  5  9  1  0
  8  9  1  0
  9 10  2  0
 10 11  1  0
  7 12  1  0
 11 12  2  0
 13 14  2  0
 14 15  1  0
  6 16  1  0
 15 16  2  0
 16 17  1  0
  4 18  1  0
 13 18  1  0
 17 18  2  0
M  END
