x0678-x0946
     RDKit          3D

 27 32  0  0  0  0  0  0  0  0999 V2000
    9.3180    0.8360   21.6640 O   0  0  0  0  0  0  0  0  0  0  0  0
    8.6800   -0.1870   21.8640 C   0  0  0  0  0  0  0  0  0  0  0  0
    9.3240   -1.2220   22.7780 C   0  0  0  0  0  0  0  0  0  0  0  0
    7.3400   -0.5570   21.3280 N   0  0  0  0  0  0  0  0  0  0  0  0
    9.1720    5.5810   22.6690 N   0  0  0  0  0  0  0  0  0  0  0  0
   10.1100    5.5500   25.0270 O   0  0  0  0  0  0  0  0  0  0  0  0
   11.8110    6.8270   23.0500 O   0  0  0  0  0  0  0  0  0  0  0  0
   12.9450   -0.4290   22.9360 S   0  0  0  0  0  0  0  0  0  0  0  0
   10.6000    5.4440   23.6210 S   0  0  0  0  0  0  0  0  0  0  0  0
   11.5760   -1.0860   22.2340 C   0  0  1  0  0  0  0  0  0  0  0  0
   12.7420   -1.9380   22.2320 C   0  0  2  0  0  0  0  0  0  0  0  0
   13.4470   -1.8250   23.5720 C   0  0  2  0  0  0  0  0  0  0  0  0
   12.5920   -1.2060   24.6620 C   0  0  2  0  0  0  0  0  0  0  0  0
   11.0760   -1.2540   24.5810 C   0  0  0  0  0  0  0  0  0  0  0  0
   10.6690   -0.8560   23.3070 C   0  0  2  0  0  0  0  0  0  0  0  0
    5.6300    0.8530   20.4020 C   0  0  0  0  0  0  0  0  0  0  0  0
    4.9830    1.4400   19.3160 C   0  0  0  0  0  0  0  0  0  0  0  0
    5.4380    1.1760   18.0720 C   0  0  0  0  0  0  0  0  0  0  0  0
    6.4850    0.3680   17.8530 N   0  0  0  0  0  0  0  0  0  0  0  0
    7.1020   -0.1990   18.8960 C   0  0  0  0  0  0  0  0  0  0  0  0
    6.7200    0.0100   20.2040 C   0  0  0  0  0  0  0  0  0  0  0  0
   12.4460    1.3140   23.0100 C   0  0  0  0  0  0  0  0  0  0  0  0
   13.1130    2.4930   22.4680 C   0  0  0  0  0  0  0  0  0  0  0  0
   12.5540    3.7510   22.6510 C   0  0  0  0  0  0  0  0  0  0  0  0
   11.3430    3.8800   23.3600 C   0  0  0  0  0  0  0  0  0  0  0  0
   10.6960    2.7630   23.8760 C   0  0  0  0  0  0  0  0  0  0  0  0
   11.2390    1.5400   23.7020 C   0  0  0  0  0  0  0  0  0  0  0  0
  1  2  2  0
  2  3  1  0
  2  4  1  0
  9  5  1  0
  6  9  2  0
  7  9  2  0
 10  8  1  1
 11  8  1  6
 10 11  1  0
 12  8  1  6
 11 12  1  0
  8 13  1  0
 12 13  1  0
 13 14  1  6
 15  3  1  6
 10 15  1  0
 14 15  1  0
 16 17  2  0
 17 18  1  0
 18 19  2  0
 19 20  1  0
  4 21  1  0
 16 21  1  0
 20 21  2  0
  8 22  1  0
 22 23  2  0
 23 24  1  0
  9 25  1  0
 24 25  2  0
 25 26  1  0
 22 27  1  0
 26 27  2  0
M  END
