x0678-x2649
     RDKit          3D

 19 21  0  0  0  0  0  0  0  0999 V2000
    7.3320   -0.6910   20.9000 N   0  0  0  0  0  0  0  0  0  0  0  0
    7.8670   -1.3320   24.0060 C   0  0  0  0  0  0  0  0  0  0  0  0
    8.2400    0.7230   22.8360 N   0  0  0  0  0  0  0  0  0  0  0  0
   13.1430   -2.4330   21.1660 Cl  0  0  0  0  0  0  0  0  0  0  0  0
    8.5290   -0.5690   22.8720 C   0  0  2  0  0  0  0  0  0  0  0  0
    7.7650   -0.1100   21.7920 C   0  0  0  0  0  0  0  0  0  0  0  0
    5.1220    0.9320   21.8630 C   0  0  0  0  0  0  0  0  0  0  0  0
    6.2900    0.5910   17.5580 N   0  0  0  0  0  0  0  0  0  0  0  0
    5.1770    1.4450   17.9140 C   0  0  0  0  0  0  0  0  0  0  0  0
    4.7790    1.5590   19.3510 C   0  0  0  0  0  0  0  0  0  0  0  0
    5.5260    0.8060   20.4240 C   0  0  0  0  0  0  0  0  0  0  0  0
    6.6030    0.0100   19.9420 C   0  0  0  0  0  0  0  0  0  0  0  0
    6.9890   -0.1250   18.6240 C   0  0  0  0  0  0  0  0  0  0  0  0
   10.6630    0.2570   23.7180 C   0  0  0  0  0  0  0  0  0  0  0  0
   11.9980    0.2920   23.7710 C   0  0  0  0  0  0  0  0  0  0  0  0
   12.8390   -0.5110   23.0090 C   0  0  0  0  0  0  0  0  0  0  0  0
   12.2210   -1.4090   22.1440 C   0  0  0  0  0  0  0  0  0  0  0  0
   10.7670   -1.5400   22.0030 C   0  0  0  0  0  0  0  0  0  0  0  0
   10.0190   -0.6310   22.8560 C   0  0  0  0  0  0  0  0  0  0  0  0
  5  2  1  1
  3  5  1  0
  1  6  1  0
  3  6  2  0
  5  6  1  0
  8  9  2  0
  9 10  1  0
  7 11  1  0
 10 11  2  0
  1 12  1  0
 11 12  1  0
  8 13  1  0
 12 13  2  0
 14 15  2  0
 15 16  1  0
  4 17  1  0
 16 17  2  0
 17 18  1  0
  5 19  1  0
 14 19  1  0
 18 19  2  0
M  END
