x0678-x1375
     RDKit          3D

 36 39  0  0  0  0  0  0  0  0999 V2000
    5.6080   -5.2920   20.0610 O   0  0  0  0  0  0  0  0  0  0  0  0
    6.3780   -4.5950   20.7750 C   0  0  0  0  0  0  0  0  0  0  0  0
    7.2250   -3.5440   20.1620 C   0  0  0  0  0  0  0  0  0  0  0  0
    6.3190   -4.7540   22.2140 N   0  0  0  0  0  0  0  0  0  0  0  0
    2.4710   -6.6380   23.9520 O   0  0  0  0  0  0  0  0  0  0  0  0
    4.3880   -7.7940   25.0180 O   0  0  0  0  0  0  0  0  0  0  0  0
   10.6280   -4.4410   25.8470 F   0  0  0  0  0  0  0  0  0  0  0  0
    9.1470    1.6300   21.3770 O   0  0  0  0  0  0  0  0  0  0  0  0
    8.6840    0.5720   21.8370 C   0  0  0  0  0  0  0  0  0  0  0  0
    9.1810   -0.0550   23.1000 C   0  0  0  0  0  0  0  0  0  0  0  0
    7.6140   -0.1570   21.1580 N   0  0  0  0  0  0  0  0  0  0  0  0
    7.7680   -2.6490   21.2490 C   0  0  0  0  0  0  0  0  0  0  0  0
    8.2680   -1.3500   20.6960 C   0  0  0  0  0  0  0  0  0  0  0  0
    7.8450   -3.4220   23.6750 C   0  0  0  0  0  0  0  0  0  0  0  0
    8.9140   -3.4110   24.5700 C   0  0  0  0  0  0  0  0  0  0  0  0
    9.6090   -4.5070   24.9780 C   0  0  0  0  0  0  0  0  0  0  0  0
    9.1810   -5.7040   24.4270 C   0  0  0  0  0  0  0  0  0  0  0  0
    8.1370   -5.7270   23.5470 C   0  0  0  0  0  0  0  0  0  0  0  0
    7.4070   -4.5970   23.1210 C   0  0  0  0  0  0  0  0  0  0  0  0
    4.9090   -4.5110   24.1290 C   0  0  0  0  0  0  0  0  0  0  0  0
    4.9960   -5.0240   22.7420 C   0  0  2  0  0  0  0  0  0  0  0  0
    4.8100   -6.4740   22.8370 C   0  0  0  0  0  0  0  0  0  0  0  0
    3.8680   -6.6650   24.3090 S   0  0  0  0  0  0  0  0  0  0  0  0
    4.3490   -5.2410   25.0300 C   0  0  0  0  0  0  0  0  0  0  0  0
   11.0100   -1.3680   22.3300 C   0  0  0  0  0  0  0  0  0  0  0  0
   12.3300   -1.8390   22.5190 C   0  0  0  0  0  0  0  0  0  0  0  0
   13.2070   -1.1590   23.3360 C   0  0  0  0  0  0  0  0  0  0  0  0
   12.6320   -0.4490   24.3820 C   0  0  0  0  0  0  0  0  0  0  0  0
   11.2710   -0.4320   24.3890 C   0  0  0  0  0  0  0  0  0  0  0  0
   10.6800   -0.3260   23.1530 C   0  0  0  0  0  0  0  0  0  0  0  0
    5.7250    1.2220   20.4020 C   0  0  0  0  0  0  0  0  0  0  0  0
    4.9580    1.6960   19.3330 C   0  0  0  0  0  0  0  0  0  0  0  0
    5.2990    1.2910   18.0440 C   0  0  0  0  0  0  0  0  0  0  0  0
    6.3170    0.4690   17.7840 N   0  0  0  0  0  0  0  0  0  0  0  0
    7.0290    0.0310   18.8280 C   0  0  0  0  0  0  0  0  0  0  0  0
    6.7940    0.3670   20.1540 C   0  0  0  0  0  0  0  0  0  0  0  0
  1  2  2  0
  2  3  1  0
  2  4  1  0
  8  9  2  0
  9 10  1  0
  9 11  1  0
  3 12  1  0
 11 13  1  0
 12 13  1  0
 14 15  2  0
  7 16  1  0
 15 16  1  0
 16 17  2  0
 17 18  1  0
  4 19  1  0
 14 19  1  0
 18 19  2  0
 21  4  1  1
 20 21  1  0
 21 22  1  0
 23  5  1  0
  6 23  1  0
 22 23  1  0
 20 24  2  0
 23 24  1  0
 25 26  1  0
 26 27  1  0
 27 28  1  0
 28 29  1  0
 10 30  1  0
 25 30  1  0
 29 30  1  0
 31 32  2  0
 32 33  1  0
 33 34  2  0
 34 35  1  0
 11 36  1  0
 31 36  1  0
 35 36  2  0
M  END
