x0678-x0874
     RDKit          3D

 20 23  0  0  0  0  0  0  0  0999 V2000
    9.9070    0.5590   21.6310 O   0  0  0  0  0  0  0  0  0  0  0  0
    8.9260    0.9280   22.2120 C   0  0  2  0  0  0  0  0  0  0  0  0
    9.0960    0.2730   23.5850 C   0  0  2  0  0  0  0  0  0  0  0  0
    7.6080    0.3490   21.7050 N   0  0  0  0  0  0  0  0  0  0  0  0
    9.0520    2.4060   22.1630 N   0  0  0  0  0  0  0  0  0  0  0  0
   10.5940   -1.5860   22.7460 C   0  0  1  0  0  0  0  0  0  0  0  0
   11.9340   -1.1220   22.2940 C   0  0  0  0  0  0  0  0  0  0  0  0
   13.0150   -1.1180   23.3080 C   0  0  0  0  0  0  0  0  0  0  0  0
   12.4250   -0.3710   24.5130 C   0  0  0  0  0  0  0  0  0  0  0  0
   11.0150   -0.7620   24.9320 C   0  0  0  0  0  0  0  0  0  0  0  0
   10.1620   -0.7920   23.8400 C   0  0  1  0  0  0  0  0  0  0  0  0
    5.8960    1.4340   20.4090 C   0  0  0  0  0  0  0  0  0  0  0  0
    5.2020    1.6390   19.2200 C   0  0  0  0  0  0  0  0  0  0  0  0
    5.5290    0.9570   18.1120 C   0  0  0  0  0  0  0  0  0  0  0  0
    6.5200    0.0550   18.0920 N   0  0  0  0  0  0  0  0  0  0  0  0
    7.1990   -0.1580   19.2450 C   0  0  0  0  0  0  0  0  0  0  0  0
    6.9400    0.5090   20.4480 C   0  0  0  0  0  0  0  0  0  0  0  0
    9.3550   -1.6370   21.8360 C   0  0  0  0  0  0  0  0  0  0  0  0
    8.3090   -1.8370   22.8260 C   0  0  0  0  0  0  0  0  0  0  0  0
    8.6770   -1.1130   23.9030 C   0  0  2  0  0  0  0  0  0  0  0  0
  2  1  1  0
  3  2  1  6
  2  4  1  0
  2  5  1  1
  6  7  1  6
  7  8  1  0
  8  9  1  0
  9 10  1  0
  3 11  1  0
  6 11  1  0
 11 10  1  1
 12 13  2  0
 13 14  1  0
 14 15  2  0
 15 16  1  0
  4 17  1  0
 12 17  1  0
 16 17  2  0
  6 18  1  0
 18 19  1  0
  3 20  1  0
 11 20  1  0
 20 19  1  6
M  END
