x0678-x1187
     RDKit          3D

 15 16  0  0  0  0  0  0  0  0999 V2000
    7.7080   -0.8690   -5.1150 C   0  0  0  0  0  0  0  0  0  0  0  0
    4.6140   -1.3680   -8.8550 C   0  0  0  0  0  0  0  0  0  0  0  0
    4.5720   -0.2380   -9.3100 O   0  0  0  0  0  0  0  0  0  0  0  0
    4.0270   -2.4560   -9.4650 N   0  0  0  0  0  0  0  0  0  0  0  0
    3.1590   -2.3550  -10.6600 C   0  0  0  0  0  0  0  0  0  0  0  0
    6.7300   -1.4300   -5.8900 N   0  0  0  0  0  0  0  0  0  0  0  0
    5.9900   -2.6320   -5.6750 C   0  0  0  0  0  0  0  0  0  0  0  0
    5.1340   -2.7690   -6.7130 C   0  0  0  0  0  0  0  0  0  0  0  0
    5.3120   -1.6910   -7.5740 C   0  0  0  0  0  0  0  0  0  0  0  0
    6.2980   -0.8660   -7.0630 N   0  0  0  0  0  0  0  0  0  0  0  0
    3.2040   -2.3680  -13.0340 C   0  0  0  0  0  0  0  0  0  0  0  0
    3.8790   -2.6430  -11.8330 C   0  0  2  0  0  0  0  0  0  0  0  0
    4.0940   -4.0740  -11.8590 O   0  0  0  0  0  0  0  0  0  0  0  0
    4.1400   -4.4950  -13.2290 C   0  0  0  0  0  0  0  0  0  0  0  0
    3.9400   -3.2130  -14.0510 C   0  0  0  0  0  0  0  0  0  0  0  0
  2  3  2  0
  2  4  1  0
  4  5  1  0
  1  6  1  0
  6  7  1  0
  7  8  2  0
  2  9  1  0
  8  9  1  0
  6 10  1  0
  9 10  2  0
 12  5  1  1
 11 12  1  0
 12 13  1  0
 13 14  1  0
 11 15  1  0
 14 15  1  0
M  END
