x0678-x0981
     RDKit          3D

 15 14  0  0  0  0  0  0  0  0999 V2000
    1.1770   -8.7520   21.2780 C   0  0  0  0  0  0  0  0  0  0  0  0
    2.6070   -7.2080   22.6930 N   0  0  0  0  0  0  0  0  0  0  0  0
    0.3270   -6.6890   22.1810 O   0  0  0  0  0  0  0  0  0  0  0  0
    1.2800   -7.4550   22.0840 C   0  0  0  0  0  0  0  0  0  0  0  0
    2.3900   -8.3380   26.2130 N   0  0  0  0  0  0  0  0  0  0  0  0
    4.0580   -8.2040   24.6900 O   0  0  0  0  0  0  0  0  0  0  0  0
    2.9520   -6.0860   23.5880 C   0  0  1  0  0  0  0  0  0  0  0  0
    5.2120   -6.2990   22.4830 N   0  0  0  0  0  0  0  0  0  0  0  0
    4.7380   -4.4270   23.6880 O   0  0  0  0  0  0  0  0  0  0  0  0
    2.8050   -6.3660   24.9640 C   0  0  0  0  0  0  0  0  0  0  0  0
    3.1330   -7.6910   25.2690 C   0  0  0  0  0  0  0  0  0  0  0  0
    4.3720   -5.5240   23.2620 C   0  0  0  0  0  0  0  0  0  0  0  0
    6.5420   -5.8400   22.1670 C   0  0  0  0  0  0  0  0  0  0  0  0
    6.3560   -4.7660   21.3240 C   0  0  0  0  0  0  0  0  0  0  0  0
    5.6390   -4.9100   20.1710 C   0  0  0  0  0  0  0  0  0  0  0  0
  1  4  1  0
  2  4  1  0
  3  4  2  0
  2  7  1  0
  7 10  1  1
  5 11  1  0
  6 11  2  0
 10 11  1  0
  7 12  1  0
  8 12  1  0
  9 12  2  0
  8 13  1  0
 13 14  1  0
 14 15  2  3
M  END
