x0678-x1311
     RDKit          3D

 35 38  0  0  0  0  0  0  0  0999 V2000
    5.4940   -4.9220   20.0380 O   0  0  0  0  0  0  0  0  0  0  0  0
    6.4170   -4.4650   20.7780 C   0  0  0  0  0  0  0  0  0  0  0  0
    7.4150   -3.5250   20.1720 C   0  0  0  0  0  0  0  0  0  0  0  0
    6.3870   -4.8090   22.2000 N   0  0  0  0  0  0  0  0  0  0  0  0
    4.0390   -7.4380   25.3110 O   0  0  0  0  0  0  0  0  0  0  0  0
    2.5300   -5.5090   24.6930 O   0  0  0  0  0  0  0  0  0  0  0  0
    9.2230    1.4150   21.3560 O   0  0  0  0  0  0  0  0  0  0  0  0
    8.6910    0.4010   21.8470 C   0  0  0  0  0  0  0  0  0  0  0  0
    9.1780   -0.2270   23.1100 C   0  0  0  0  0  0  0  0  0  0  0  0
    7.5270   -0.2290   21.2190 N   0  0  0  0  0  0  0  0  0  0  0  0
    8.1200   -2.6550   21.2030 C   0  0  0  0  0  0  0  0  0  0  0  0
    7.2120   -1.5580   21.7530 C   0  0  0  0  0  0  0  0  0  0  0  0
    8.3140   -5.9030   23.1780 C   0  0  0  0  0  0  0  0  0  0  0  0
    9.3410   -5.8670   24.0820 C   0  0  0  0  0  0  0  0  0  0  0  0
    9.5940   -4.8310   24.9010 C   0  0  0  0  0  0  0  0  0  0  0  0
    8.7690   -3.7290   24.8330 C   0  0  0  0  0  0  0  0  0  0  0  0
    7.7380   -3.7500   23.9380 C   0  0  0  0  0  0  0  0  0  0  0  0
    7.4760   -4.8550   23.0690 C   0  0  0  0  0  0  0  0  0  0  0  0
    4.5200   -6.1710   22.2360 C   0  0  0  0  0  0  0  0  0  0  0  0
    5.0930   -4.9810   22.8290 C   0  0  1  0  0  0  0  0  0  0  0  0
    5.1410   -5.2860   24.2720 C   0  0  0  0  0  0  0  0  0  0  0  0
    3.7020   -6.3140   24.4550 S   0  0  0  0  0  0  0  0  0  0  0  0
    3.7190   -6.8940   22.9380 C   0  0  0  0  0  0  0  0  0  0  0  0
   11.0600   -1.4090   22.3570 C   0  0  0  0  0  0  0  0  0  0  0  0
   12.4320   -1.7390   22.4780 C   0  0  0  0  0  0  0  0  0  0  0  0
   13.2210   -1.0510   23.3810 C   0  0  0  0  0  0  0  0  0  0  0  0
   12.5920   -0.4050   24.4340 C   0  0  0  0  0  0  0  0  0  0  0  0
   11.2450   -0.5000   24.4380 C   0  0  0  0  0  0  0  0  0  0  0  0
   10.6770   -0.4040   23.1960 C   0  0  0  0  0  0  0  0  0  0  0  0
    5.7180    1.1310   20.3420 C   0  0  0  0  0  0  0  0  0  0  0  0
    4.9800    1.6180   19.2650 C   0  0  0  0  0  0  0  0  0  0  0  0
    5.3550    1.2030   17.9950 C   0  0  0  0  0  0  0  0  0  0  0  0
    6.3750    0.3660   17.7750 N   0  0  0  0  0  0  0  0  0  0  0  0
    7.0620   -0.0870   18.8410 C   0  0  0  0  0  0  0  0  0  0  0  0
    6.7860    0.2610   20.1480 C   0  0  0  0  0  0  0  0  0  0  0  0
  1  2  2  0
  2  3  1  0
  2  4  1  0
  7  8  2  0
  8  9  1  0
  8 10  1  0
  3 11  1  0
 10 12  1  0
 11 12  1  0
 13 14  2  0
 14 15  1  0
 15 16  2  0
 16 17  1  0
  4 18  1  0
 13 18  1  0
 17 18  2  0
 20  4  1  6
 19 20  1  0
 20 21  1  0
 22  5  1  0
  6 22  1  0
 21 22  1  0
 19 23  2  0
 22 23  1  0
 24 25  1  0
 25 26  1  0
 26 27  1  0
 27 28  1  0
  9 29  1  0
 24 29  1  0
 28 29  1  0
 30 31  2  0
 31 32  1  0
 32 33  2  0
 33 34  1  0
 10 35  1  0
 30 35  1  0
 34 35  2  0
M  END
