x0678-x0072
     RDKit          3D

 22 23  0  0  0  0  0  0  0  0999 V2000
    6.6350   -5.0660   26.0980 C   0  0  0  0  0  0  0  0  0  0  0  0
    8.2870   -4.4350   25.8720 S   0  0  0  0  0  0  0  0  0  0  0  0
    9.1650   -5.5700   25.7390 O   0  0  0  0  0  0  0  0  0  0  0  0
    8.5150   -3.4620   26.8960 O   0  0  0  0  0  0  0  0  0  0  0  0
    8.2420   -3.6640   24.3650 N   0  0  0  0  0  0  0  0  0  0  0  0
    8.4890   -2.2110   24.1900 C   0  0  0  0  0  0  0  0  0  0  0  0
    9.0990   -1.7900   22.8020 C   0  0  1  0  0  0  0  0  0  0  0  0
    8.9970    0.4470   21.8920 O   0  0  0  0  0  0  0  0  0  0  0  0
    8.4310   -0.6530   22.0380 C   0  0  0  0  0  0  0  0  0  0  0  0
    7.1720   -0.9130   21.4680 N   0  0  0  0  0  0  0  0  0  0  0  0
   10.5010   -1.2670   22.9330 C   0  0  0  0  0  0  0  0  0  0  0  0
   11.6490   -1.8190   22.0970 C   0  0  0  0  0  0  0  0  0  0  0  0
   13.0240   -1.2490   22.2190 C   0  0  0  0  0  0  0  0  0  0  0  0
   13.1130   -0.2200   23.1340 C   0  0  0  0  0  0  0  0  0  0  0  0
   12.1010    0.2750   23.8960 C   0  0  0  0  0  0  0  0  0  0  0  0
   10.8090   -0.2180   23.8240 C   0  0  0  0  0  0  0  0  0  0  0  0
    5.4890    0.6700   20.5030 C   0  0  0  0  0  0  0  0  0  0  0  0
    4.9850    1.3240   19.3670 C   0  0  0  0  0  0  0  0  0  0  0  0
    5.5250    1.1490   18.1160 C   0  0  0  0  0  0  0  0  0  0  0  0
    6.5650    0.3300   17.9550 N   0  0  0  0  0  0  0  0  0  0  0  0
    7.1410   -0.3700   19.0100 C   0  0  0  0  0  0  0  0  0  0  0  0
    6.5810   -0.1960   20.3660 C   0  0  0  0  0  0  0  0  0  0  0  0
  1  2  1  0
  2  3  2  0
  2  4  2  0
  2  5  1  0
  5  6  1  0
  7  6  1  1
  7  9  1  0
  8  9  2  0
  9 10  1  0
  7 11  1  0
 11 12  2  0
 12 13  1  0
 13 14  2  0
 14 15  1  0
 11 16  1  0
 15 16  2  0
 17 18  2  0
 18 19  1  0
 19 20  2  0
 20 21  1  0
 10 22  1  0
 17 22  1  0
 21 22  2  0
M  END
