x0678-x0434
     RDKit          3D

 16 17  0  0  0  0  0  0  0  0999 V2000
    9.2630    1.4430   21.3760 O   0  0  0  0  0  0  0  0  0  0  0  0
    8.6990    0.4350   21.8050 C   0  0  0  0  0  0  0  0  0  0  0  0
    9.1780   -0.1140   23.1350 C   0  0  0  0  0  0  0  0  0  0  0  0
    7.5780   -0.3210   21.2000 N   0  0  0  0  0  0  0  0  0  0  0  0
   10.9610   -1.4380   22.3160 C   0  0  0  0  0  0  0  0  0  0  0  0
   12.3360   -1.9960   22.5070 C   0  0  0  0  0  0  0  0  0  0  0  0
   13.3170   -1.2310   23.3200 C   0  0  0  0  0  0  0  0  0  0  0  0
   12.6190   -0.4700   24.4500 C   0  0  0  0  0  0  0  0  0  0  0  0
   11.1330   -0.6220   24.5270 C   0  0  0  0  0  0  0  0  0  0  0  0
   10.6360   -0.4150   23.2580 C   0  0  0  0  0  0  0  0  0  0  0  0
    5.7480    0.9880   20.3810 C   0  0  0  0  0  0  0  0  0  0  0  0
    4.9960    1.4730   19.3210 C   0  0  0  0  0  0  0  0  0  0  0  0
    5.3060    1.1360   18.0570 C   0  0  0  0  0  0  0  0  0  0  0  0
    6.3300    0.3290   17.7600 N   0  0  0  0  0  0  0  0  0  0  0  0
    7.0780   -0.1590   18.8090 C   0  0  0  0  0  0  0  0  0  0  0  0
    6.8280    0.1460   20.1250 C   0  0  0  0  0  0  0  0  0  0  0  0
  1  2  2  0
  2  3  1  0
  2  4  1  0
  5  6  1  0
  6  7  1  0
  7  8  1  0
  8  9  1  0
  3 10  1  0
  5 10  1  0
  9 10  1  0
 11 12  2  0
 12 13  1  0
 13 14  2  0
 14 15  1  0
  4 16  1  0
 11 16  1  0
 15 16  2  0
M  END
