x0678-x1334
     RDKit          3D

 32 35  0  0  0  0  0  0  0  0999 V2000
    7.3490   -3.0270   18.7530 C   0  0  0  0  0  0  0  0  0  0  0  0
    5.4570   -4.1420   19.7480 O   0  0  0  0  0  0  0  0  0  0  0  0
    7.3690   -5.8220   28.4200 Cl  0  0  0  0  0  0  0  0  0  0  0  0
    6.4310   -3.3420   19.8830 C   0  0  0  0  0  0  0  0  0  0  0  0
    9.6380   -3.1190   24.1380 C   0  0  0  0  0  0  0  0  0  0  0  0
    9.0740    1.6190   21.1900 O   0  0  0  0  0  0  0  0  0  0  0  0
    8.6310    0.4200   21.8330 C   0  0  0  0  0  0  0  0  0  0  0  0
    9.3260    0.0020   23.1000 C   0  0  0  0  0  0  0  0  0  0  0  0
    7.5700   -0.3820   21.3590 N   0  0  0  0  0  0  0  0  0  0  0  0
    6.7150   -2.7290   21.1060 N   0  0  0  0  0  0  0  0  0  0  0  0
    7.8800   -1.7980   21.0920 C   0  0  2  0  0  0  0  0  0  0  0  0
    9.0190   -2.2980   21.9580 C   0  0  0  0  0  0  0  0  0  0  0  0
    8.5160   -2.7280   23.2670 N   0  0  0  0  0  0  0  0  0  0  0  0
    7.5360   -3.7990   23.0500 C   0  0  0  0  0  0  0  0  0  0  0  0
    6.4050   -3.3580   22.3980 C   0  0  0  0  0  0  0  0  0  0  0  0
    9.8210   -5.3500   25.3590 C   0  0  0  0  0  0  0  0  0  0  0  0
    9.2770   -4.1220   25.1860 C   0  0  0  0  0  0  0  0  0  0  0  0
    8.0560   -3.7740   26.3390 S   0  0  0  0  0  0  0  0  0  0  0  0
    8.2740   -5.2890   27.0670 C   0  0  0  0  0  0  0  0  0  0  0  0
    9.2490   -6.0380   26.4490 C   0  0  0  0  0  0  0  0  0  0  0  0
   11.2460   -1.2860   22.3080 C   0  0  0  0  0  0  0  0  0  0  0  0
   12.6960   -1.5450   22.3860 C   0  0  0  0  0  0  0  0  0  0  0  0
   13.2590   -1.1080   23.5710 C   0  0  0  0  0  0  0  0  0  0  0  0
   12.3690   -0.7820   24.5860 C   0  0  0  0  0  0  0  0  0  0  0  0
   11.4140    0.1500   24.2000 C   0  0  0  0  0  0  0  0  0  0  0  0
   10.8720   -0.0920   22.9790 C   0  0  0  0  0  0  0  0  0  0  0  0
    5.7460    1.0600   20.5070 C   0  0  0  0  0  0  0  0  0  0  0  0
    5.0560    1.5630   19.4340 C   0  0  0  0  0  0  0  0  0  0  0  0
    5.3770    1.2360   18.1450 C   0  0  0  0  0  0  0  0  0  0  0  0
    6.3750    0.4080   17.8340 N   0  0  0  0  0  0  0  0  0  0  0  0
    7.1330   -0.1540   18.9530 C   0  0  0  0  0  0  0  0  0  0  0  0
    6.8090    0.1850   20.2880 C   0  0  0  0  0  0  0  0  0  0  0  0
  1  4  1  0
  2  4  2  0
  6  7  2  0
  7  8  1  0
  7  9  1  0
  4 10  1  0
 11  9  1  1
 10 11  1  0
 11 12  1  0
  5 13  1  0
 12 13  1  0
 13 14  1  0
 10 15  1  0
 14 15  1  0
  5 17  1  0
 16 17  2  0
 17 18  1  0
  3 19  1  0
 18 19  1  0
 16 20  1  0
 19 20  2  0
 21 22  1  0
 22 23  1  0
 23 24  1  0
 24 25  1  0
  8 26  1  0
 21 26  1  0
 25 26  1  0
 27 28  2  0
 28 29  1  0
 29 30  2  0
 30 31  1  0
  9 32  1  0
 27 32  1  0
 31 32  2  0
M  END
