x0678-x2562
     RDKit          3D

 22 24  0  0  0  0  0  0  0  0999 V2000
    8.3090   -0.1140   21.4140 C   0  0  0  0  0  0  0  0  0  0  0  0
    8.3290    1.0950   21.1680 O   0  0  0  0  0  0  0  0  0  0  0  0
    7.0140   -0.8010   21.0710 C   0  0  0  0  0  0  0  0  0  0  0  0
   12.0700    2.9080   23.3350 O   0  0  0  0  0  0  0  0  0  0  0  0
    9.3830   -0.9530   21.9920 N   0  0  0  0  0  0  0  0  0  0  0  0
   12.7840    6.7850   22.4800 O   0  0  0  0  0  0  0  0  0  0  0  0
    4.4200    1.5430   19.1550 N   0  0  0  0  0  0  0  0  0  0  0  0
    5.0890    1.4320   17.9930 C   0  0  0  0  0  0  0  0  0  0  0  0
    6.3030    0.6550   17.7520 N   0  0  0  0  0  0  0  0  0  0  0  0
    6.7620    0.0720   18.6310 C   0  0  0  0  0  0  0  0  0  0  0  0
    6.3050   -0.0210   20.0260 C   0  0  0  0  0  0  0  0  0  0  0  0
    5.0240    0.7890   20.2670 C   0  0  0  0  0  0  0  0  0  0  0  0
   12.6220    4.5950   21.7270 N   0  0  0  0  0  0  0  0  0  0  0  0
   13.3890    5.5320   22.2790 C   0  0  2  0  0  0  0  0  0  0  0  0
   13.5910    4.7870   23.2980 C   0  0  0  0  0  0  0  0  0  0  0  0
   13.1040    3.6800   22.7030 C   0  0  1  0  0  0  0  0  0  0  0  0
   11.8220   -1.1770   22.2850 C   0  0  0  0  0  0  0  0  0  0  0  0
   12.9960   -0.6110   22.5780 C   0  0  0  0  0  0  0  0  0  0  0  0
   13.0580    0.7460   22.9150 C   0  0  0  0  0  0  0  0  0  0  0  0
   11.9520    1.5840   22.9850 C   0  0  0  0  0  0  0  0  0  0  0  0
   10.6370    1.0350   22.6800 C   0  0  0  0  0  0  0  0  0  0  0  0
   10.6710   -0.3900   22.3240 C   0  0  0  0  0  0  0  0  0  0  0  0
  1  2  2  0
  1  3  1  0
  1  5  1  0
  7  8  2  0
  8  9  1  0
  9 10  2  0
  3 11  1  0
 10 11  1  0
  7 12  1  0
 11 12  2  0
 14  6  1  1
 13 14  1  0
 14 15  1  0
 16  4  1  1
 13 16  1  0
 15 16  1  0
 17 18  2  0
 18 19  1  0
  4 20  1  0
 19 20  2  0
 20 21  1  0
  5 22  1  0
 17 22  1  0
 21 22  2  0
M  END
