x0678-x2608
     RDKit          3D

 16 17  0  0  0  0  0  0  0  0999 V2000
    8.7910   -1.2330   22.5150 N   0  0  0  0  0  0  0  0  0  0  0  0
   12.8140    2.1870   22.8060 C   0  0  0  0  0  0  0  0  0  0  0  0
    8.2840    0.6670   21.0840 O   0  0  0  0  0  0  0  0  0  0  0  0
    6.8070   -0.9430   20.9880 N   0  0  0  0  0  0  0  0  0  0  0  0
    7.8760   -0.6410   21.5440 C   0  0  0  0  0  0  0  0  0  0  0  0
   12.0390    0.9280   22.8860 C   0  0  0  0  0  0  0  0  0  0  0  0
   12.4280   -0.4650   23.2090 C   0  0  0  0  0  0  0  0  0  0  0  0
   11.3280   -1.4200   23.1310 C   0  0  0  0  0  0  0  0  0  0  0  0
   10.0970   -0.6160   22.7280 C   0  0  0  0  0  0  0  0  0  0  0  0
   10.3830    1.0490   22.5400 S   0  0  0  0  0  0  0  0  0  0  0  0
    6.0900    0.6880   17.7170 N   0  0  0  0  0  0  0  0  0  0  0  0
    6.6570   -0.0560   18.6670 C   0  0  0  0  0  0  0  0  0  0  0  0
    6.1780   -0.1360   19.9460 C   0  0  0  0  0  0  0  0  0  0  0  0
    5.0560    0.5640   20.3080 C   0  0  0  0  0  0  0  0  0  0  0  0
    4.4290    1.3580   19.3390 C   0  0  0  0  0  0  0  0  0  0  0  0
    4.9900    1.3750   18.0950 C   0  0  0  0  0  0  0  0  0  0  0  0
  1  5  1  0
  3  5  2  0
  4  5  1  0
  2  6  1  0
  6  7  2  0
  7  8  1  0
  1  9  1  0
  8  9  2  0
  6 10  1  0
  9 10  1  0
 11 12  2  0
  4 13  1  0
 12 13  1  0
 13 14  2  0
 14 15  1  0
 11 16  1  0
 15 16  2  0
M  END
