x0689-x0426
     RDKit          3D

 37 40  0  0  0  0  0  0  0  0999 V2000
    7.6410   -3.6810   20.3830 C   0  0  0  0  0  0  0  0  0  0  0  0
    5.4220   -4.5120   19.9040 O   0  0  0  0  0  0  0  0  0  0  0  0
    6.4290   -4.5080   20.6630 C   0  0  0  0  0  0  0  0  0  0  0  0
    3.9330   -6.4010   25.9960 O   0  0  0  0  0  0  0  0  0  0  0  0
    5.6490   -4.6820   26.6910 O   0  0  0  0  0  0  0  0  0  0  0  0
    4.6610   -5.1720   25.7610 S   0  0  0  0  0  0  0  0  0  0  0  0
    2.3910    2.1340   24.1570 C   0  0  0  0  0  0  0  0  0  0  0  0
    2.5510    0.9940   24.5720 O   0  0  0  0  0  0  0  0  0  0  0  0
    3.2020    2.7230   23.1950 N   0  0  0  0  0  0  0  0  0  0  0  0
    4.1090    1.9320   22.3270 C   0  0  0  0  0  0  0  0  0  0  0  0
    3.5100    1.7630   20.9790 C   0  0  0  0  0  0  0  0  0  0  0  0
    2.7630    4.5710   25.5930 F   0  0  0  0  0  0  0  0  0  0  0  0
    7.2590   -2.1790   20.3470 C   0  0  0  0  0  0  0  0  0  0  0  0
    6.9190   -1.5810   18.9880 C   0  0  0  0  0  0  0  0  0  0  0  0
    6.4570   -5.2790   21.8130 N   0  0  0  0  0  0  0  0  0  0  0  0
    5.5040   -6.3300   22.1690 C   0  0  0  0  0  0  0  0  0  0  0  0
    4.6270   -5.9220   23.1480 C   0  0  0  0  0  0  0  0  0  0  0  0
    5.3950   -5.2670   24.2330 N   0  0  0  0  0  0  0  0  0  0  0  0
    6.3350   -4.3650   23.9010 C   0  0  0  0  0  0  0  0  0  0  0  0
    7.2160   -4.7550   22.9550 C   0  0  0  0  0  0  0  0  0  0  0  0
    3.8980   -2.3020   26.0980 S   0  0  0  0  0  0  0  0  0  0  0  0
    3.3950   -3.9310   25.7220 C   0  0  0  0  0  0  0  0  0  0  0  0
    2.0210   -4.0180   25.4430 C   0  0  0  0  0  0  0  0  0  0  0  0
    1.3610   -2.7350   25.5440 C   0  0  0  0  0  0  0  0  0  0  0  0
    2.3080   -1.7140   25.9020 C   0  0  0  0  0  0  0  0  0  0  0  0
    1.5110    4.1130   25.4510 C   0  0  0  0  0  0  0  0  0  0  0  0
    1.2760    2.9430   24.7600 C   0  0  0  0  0  0  0  0  0  0  0  0
   -0.0650    2.5540   24.6640 C   0  0  0  0  0  0  0  0  0  0  0  0
   -1.1020    3.2380   25.1990 C   0  0  0  0  0  0  0  0  0  0  0  0
   -0.8650    4.4080   25.8950 C   0  0  0  0  0  0  0  0  0  0  0  0
    0.4510    4.8600   26.0260 C   0  0  0  0  0  0  0  0  0  0  0  0
    5.2670    0.0220   20.0320 C   0  0  0  0  0  0  0  0  0  0  0  0
    6.0830   -0.3480   18.9620 C   0  0  0  0  0  0  0  0  0  0  0  0
    6.1660    0.3630   17.8310 N   0  0  0  0  0  0  0  0  0  0  0  0
    5.4130    1.4680   17.7500 C   0  0  0  0  0  0  0  0  0  0  0  0
    4.5610    1.9490   18.7260 C   0  0  0  0  0  0  0  0  0  0  0  0
    4.4430    1.2530   19.9160 C   0  0  0  0  0  0  0  0  0  0  0  0
  1  3  1  0
  2  3  2  0
  4  6  2  0
  5  6  2  0
  7  8  2  0
  7  9  1  0
  9 10  1  0
 10 11  1  0
  1 13  1  0
 13 14  1  0
  3 15  1  0
 15 16  1  0
 16 17  1  0
  6 18  1  0
 17 18  1  0
 18 19  1  0
 15 20  1  0
 19 20  1  0
  6 22  1  0
 21 22  1  0
 22 23  2  0
 23 24  1  0
 21 25  1  0
 24 25  2  0
 12 26  1  0
  7 27  1  0
 26 27  2  0
 27 28  1  0
 28 29  2  0
 29 30  1  0
 26 31  1  0
 30 31  2  0
 14 33  1  0
 32 33  2  0
 33 34  1  0
 34 35  2  0
 35 36  1  0
 11 37  1  0
 32 37  1  0
 36 37  2  0
M  END
