x0689-x3298
     RDKit          3D

 47 51  0  0  0  0  0  0  0  0999 V2000
    7.1260    2.0790   22.2380 N   0  0  0  0  0  0  0  0  0  0  0  0
    7.1660   -0.1400   21.2180 C   0  0  1  0  0  0  0  0  0  0  0  0
    6.3310   -0.5590   22.2840 O   0  0  0  0  0  0  0  0  0  0  0  0
    7.8640    1.1640   21.5280 C   0  0  0  0  0  0  0  0  0  0  0  0
    8.8760    1.1960   23.7200 N   0  0  0  0  0  0  0  0  0  0  0  0
    8.9910    1.4150   21.1200 O   0  0  0  0  0  0  0  0  0  0  0  0
   10.8780    1.8590   24.7330 O   0  0  0  0  0  0  0  0  0  0  0  0
    9.7200   -0.2670   25.7650 O   0  0  0  0  0  0  0  0  0  0  0  0
   13.7040   -1.8640   20.8370 F   0  0  0  0  0  0  0  0  0  0  0  0
   10.1890    0.6290   24.6390 S   0  0  0  0  0  0  0  0  0  0  0  0
    7.2050   -3.4550   20.0360 C   0  0  0  0  0  0  0  0  0  0  0  0
    5.1920   -4.6470   19.9210 O   0  0  0  0  0  0  0  0  0  0  0  0
    6.2950   -4.5520   20.5010 C   0  0  0  0  0  0  0  0  0  0  0  0
    3.9270   -6.2430   25.8110 O   0  0  0  0  0  0  0  0  0  0  0  0
    5.8070   -4.6720   26.4580 O   0  0  0  0  0  0  0  0  0  0  0  0
    4.7120   -5.0450   25.5950 S   0  0  0  0  0  0  0  0  0  0  0  0
    8.1250   -1.1950   20.7970 C   0  0  0  0  0  0  0  0  0  0  0  0
    7.8440   -2.6410   21.1850 C   0  0  0  0  0  0  0  0  0  0  0  0
    6.2630    0.5360   17.6580 N   0  0  0  0  0  0  0  0  0  0  0  0
    6.8590    0.1270   18.7530 C   0  0  0  0  0  0  0  0  0  0  0  0
    6.3730    0.3240   19.9930 C   0  0  0  0  0  0  0  0  0  0  0  0
    5.2000    0.9540   20.1830 C   0  0  0  0  0  0  0  0  0  0  0  0
    4.5480    1.3940   19.0390 C   0  0  0  0  0  0  0  0  0  0  0  0
    5.0880    1.1890   17.7950 C   0  0  0  0  0  0  0  0  0  0  0  0
    7.7430    4.4800   22.4410 C   0  0  0  0  0  0  0  0  0  0  0  0
    8.6510    5.3910   22.9930 C   0  0  0  0  0  0  0  0  0  0  0  0
    9.7630    4.9360   23.8490 C   0  0  0  0  0  0  0  0  0  0  0  0
    9.7570    3.4780   24.0270 C   0  0  0  0  0  0  0  0  0  0  0  0
    8.8450    2.6220   23.4890 C   0  0  0  0  0  0  0  0  0  0  0  0
    7.8680    3.1180   22.7000 C   0  0  0  0  0  0  0  0  0  0  0  0
   12.4190    0.3860   23.2850 C   0  0  0  0  0  0  0  0  0  0  0  0
   13.2380   -0.1780   22.4070 C   0  0  0  0  0  0  0  0  0  0  0  0
   12.8930   -1.3290   21.7220 C   0  0  0  0  0  0  0  0  0  0  0  0
   11.6700   -1.9120   21.9640 C   0  0  0  0  0  0  0  0  0  0  0  0
   10.8000   -1.3490   22.8690 C   0  0  0  0  0  0  0  0  0  0  0  0
   11.1960   -0.1920   23.5150 C   0  0  0  0  0  0  0  0  0  0  0  0
    6.6200   -5.5100   21.5010 N   0  0  0  0  0  0  0  0  0  0  0  0
    5.8110   -6.4360   22.0910 C   0  0  0  0  0  0  0  0  0  0  0  0
    4.8320   -6.1740   23.0660 C   0  0  0  0  0  0  0  0  0  0  0  0
    5.2680   -5.0810   23.9760 N   0  0  0  0  0  0  0  0  0  0  0  0
    6.5120   -4.3800   23.5870 C   0  0  0  0  0  0  0  0  0  0  0  0
    6.3500   -4.1870   22.1980 C   0  0  0  0  0  0  0  0  0  0  0  0
    3.8390   -2.1460   26.0590 S   0  0  0  0  0  0  0  0  0  0  0  0
    3.5610   -3.7900   25.6580 C   0  0  0  0  0  0  0  0  0  0  0  0
    2.1190   -4.0310   25.3470 C   0  0  0  0  0  0  0  0  0  0  0  0
    1.3420   -2.7480   25.4870 C   0  0  0  0  0  0  0  0  0  0  0  0
    2.1730   -1.6770   25.8650 C   0  0  0  0  0  0  0  0  0  0  0  0
  2  3  1  1
  1  4  1  0
  2  4  1  0
  4  6  2  0
 10  5  1  0
  7 10  2  0
  8 10  2  0
 11 13  1  0
 12 13  2  0
 14 16  2  0
 15 16  2  0
  2 17  1  0
 11 18  1  0
 17 18  1  0
 19 20  2  0
  2 21  1  0
 20 21  1  0
 21 22  2  0
 22 23  1  0
 19 24  1  0
 23 24  2  0
 25 26  2  0
 26 27  1  0
 27 28  2  0
  5 29  1  0
 28 29  1  0
  1 30  1  0
 25 30  1  0
 29 30  2  0
 31 32  2  0
  9 33  1  0
 32 33  1  0
 33 34  2  0
 34 35  1  0
 10 36  1  0
 31 36  1  0
 35 36  2  0
 13 37  1  0
 37 38  1  0
 38 39  1  0
 16 40  1  0
 39 40  1  0
 40 41  1  0
 37 42  1  0
 41 42  1  0
 16 44  1  0
 43 44  1  0
 44 45  2  0
 45 46  1  0
 43 47  1  0
 46 47  2  0
M  END
