x0689-x2705-x0691-x2649
     RDKit          3D

 51 56  0  0  0  0  0  0  0  0999 V2000
    6.8380   -1.3200   22.0410 N   0  0  0  0  0  0  0  0  0  0  0  0
    6.8800   -4.4410   20.2910 C   0  0  2  0  0  0  0  0  0  0  0  0
    4.7640   -2.9460   21.3050 O   0  0  0  0  0  0  0  0  0  0  0  0
    7.0570   -3.4880   21.3170 C   0  0  1  0  0  0  0  0  0  0  0  0
    7.5300    2.0870   22.9210 N   0  0  0  0  0  0  0  0  0  0  0  0
    8.5270    1.3440   21.0770 O   0  0  0  0  0  0  0  0  0  0  0  0
    6.0510   -2.5340   21.5590 C   0  0  0  0  0  0  0  0  0  0  0  0
    6.4750    0.0840   21.6610 C   0  0  1  0  0  0  0  0  0  0  0  0
    7.5710    1.1930   21.8800 C   0  0  0  0  0  0  0  0  0  0  0  0
   10.1670    2.0980   24.0040 C   0  0  0  0  0  0  0  0  0  0  0  0
    9.2930    1.2760   24.9420 C   0  0  0  0  0  0  0  0  0  0  0  0
    6.1940    4.5790   21.9250 C   0  0  0  0  0  0  0  0  0  0  0  0
   11.9820   -1.5610   23.2290 C   0  0  0  0  0  0  0  0  0  0  0  0
   12.5370   -0.1630   23.5730 C   0  0  0  0  0  0  0  0  0  0  0  0
   12.5090   -2.5430   24.3030 C   0  0  0  0  0  0  0  0  0  0  0  0
   12.5630   -1.9650   21.9230 C   0  0  0  0  0  0  0  0  0  0  0  0
    5.6000   -4.4710   19.6570 O   0  0  0  0  0  0  0  0  0  0  0  0
    3.9660   -6.7900   25.9040 O   0  0  0  0  0  0  0  0  0  0  0  0
    5.7690   -5.1210   26.3400 O   0  0  0  0  0  0  0  0  0  0  0  0
    3.2150   -0.5900   26.0710 F   0  0  0  0  0  0  0  0  0  0  0  0
    4.6110   -5.5350   25.5650 S   0  0  0  0  0  0  0  0  0  0  0  0
    4.0870    1.6600   21.2380 C   0  0  0  0  0  0  0  0  0  0  0  0
    6.3530    0.2820   17.8840 N   0  0  0  0  0  0  0  0  0  0  0  0
    5.2520    1.0370   17.7680 C   0  0  0  0  0  0  0  0  0  0  0  0
    4.5040    1.4870   18.8060 C   0  0  0  0  0  0  0  0  0  0  0  0
    4.8990    1.1610   20.0820 C   0  0  0  0  0  0  0  0  0  0  0  0
    6.0410    0.3900   20.2570 C   0  0  0  0  0  0  0  0  0  0  0  0
    6.7360   -0.0340   19.1330 C   0  0  0  0  0  0  0  0  0  0  0  0
    9.7430   -1.5830   24.3170 N   0  0  0  0  0  0  0  0  0  0  0  0
    8.4400   -1.5250   23.9720 N   0  0  0  0  0  0  0  0  0  0  0  0
    8.1910   -1.4260   22.6180 C   0  0  0  0  0  0  0  0  0  0  0  0
    9.5000   -1.4330   22.0820 C   0  0  0  0  0  0  0  0  0  0  0  0
   10.4300   -1.5270   23.1750 C   0  0  0  0  0  0  0  0  0  0  0  0
    9.4850    3.3590   23.5210 C   0  0  0  0  0  0  0  0  0  0  0  0
   10.1700    4.5840   23.6120 C   0  0  0  0  0  0  0  0  0  0  0  0
    9.5770    5.7650   23.1710 C   0  0  0  0  0  0  0  0  0  0  0  0
    8.2890    5.7350   22.6290 C   0  0  0  0  0  0  0  0  0  0  0  0
    7.5780    4.5220   22.5260 C   0  0  0  0  0  0  0  0  0  0  0  0
    8.1850    3.3330   22.9810 C   0  0  0  0  0  0  0  0  0  0  0  0
    2.8830   -1.8890   25.9200 C   0  0  0  0  0  0  0  0  0  0  0  0
    3.8050   -2.8720   25.8350 C   0  0  0  0  0  0  0  0  0  0  0  0
    3.3760   -4.2590   25.6720 C   0  0  0  0  0  0  0  0  0  0  0  0
    2.0710   -4.5990   25.6020 C   0  0  0  0  0  0  0  0  0  0  0  0
    1.0580   -3.5710   25.6900 C   0  0  0  0  0  0  0  0  0  0  0  0
    1.4700   -2.2010   25.8520 C   0  0  0  0  0  0  0  0  0  0  0  0
    7.0300   -5.0100   21.6950 C   0  0  0  0  0  0  0  0  0  0  0  0
    6.2310   -4.0240   22.4900 C   0  0  0  0  0  0  0  0  0  0  0  0
    4.8860   -4.3670   23.0810 C   0  0  0  0  0  0  0  0  0  0  0  0
    4.9830   -5.5690   23.9080 N   0  0  0  0  0  0  0  0  0  0  0  0
    6.0180   -6.4520   23.4280 C   0  0  0  0  0  0  0  0  0  0  0  0
    6.3510   -6.2500   21.9780 C   0  0  0  0  0  0  0  0  0  0  0  0
  2  4  1  0
  1  7  1  0
  3  7  2  0
  4  7  1  1
  1  8  1  0
  5  9  1  0
  6  9  2  0
  8  9  1  6
 10 11  1  0
 13 14  1  0
 13 15  1  0
 13 16  1  0
  2 17  1  1
 18 21  2  0
 19 21  2  0
 23 24  2  0
 24 25  1  0
 22 26  1  0
 25 26  2  0
  8 27  1  0
 26 27  1  0
 23 28  1  0
 27 28  2  0
 29 30  1  0
  1 31  1  0
 30 31  1  0
 31 32  2  0
 13 33  1  0
 29 33  2  0
 32 33  1  0
 10 34  1  0
 34 35  2  0
 35 36  1  0
 36 37  2  0
 12 38  1  0
 37 38  1  0
  5 39  1  0
 34 39  1  0
 38 39  2  0
 20 40  1  0
 40 41  2  0
 21 42  1  0
 41 42  1  0
 42 43  2  0
 43 44  1  0
 40 45  1  0
 44 45  2  0
  2 46  1  0
  4 46  1  0
 46 47  1  0
 47 48  1  0
 21 49  1  0
 48 49  1  0
 49 50  1  0
 46 51  1  0
 50 51  1  0
M  END
