x0689-x0691
     RDKit          3D

 19 20  0  0  0  0  0  0  0  0999 V2000
    4.0690   -6.9040   25.8360 O   0  0  0  0  0  0  0  0  0  0  0  0
    5.7670   -5.2930   26.8020 O   0  0  0  0  0  0  0  0  0  0  0  0
    5.2810   -4.6880   19.9330 O   0  0  0  0  0  0  0  0  0  0  0  0
    6.3380   -4.4810   20.5620 C   0  0  0  0  0  0  0  0  0  0  0  0
    7.3100   -3.4750   20.0540 C   0  0  0  0  0  0  0  0  0  0  0  0
    3.2430   -0.5560   25.9570 F   0  0  0  0  0  0  0  0  0  0  0  0
    4.7710   -5.6400   25.8130 S   0  0  0  0  0  0  0  0  0  0  0  0
    2.8480   -1.8340   25.8930 C   0  0  0  0  0  0  0  0  0  0  0  0
    3.8540   -2.9130   25.8810 C   0  0  0  0  0  0  0  0  0  0  0  0
    3.5490   -4.3550   25.8150 C   0  0  0  0  0  0  0  0  0  0  0  0
    2.0340   -4.5990   25.7520 C   0  0  0  0  0  0  0  0  0  0  0  0
    0.9590   -3.5120   25.7620 C   0  0  0  0  0  0  0  0  0  0  0  0
    1.3600   -2.1690   25.8340 C   0  0  0  0  0  0  0  0  0  0  0  0
    6.5430   -5.2180   21.7600 N   0  0  0  0  0  0  0  0  0  0  0  0
    5.7210   -6.3900   22.0900 C   0  0  0  0  0  0  0  0  0  0  0  0
    4.7950   -6.1220   23.0990 C   0  0  0  0  0  0  0  0  0  0  0  0
    5.4780   -5.5170   24.2650 N   0  0  0  0  0  0  0  0  0  0  0  0
    6.2900   -4.3360   23.9820 C   0  0  0  0  0  0  0  0  0  0  0  0
    7.1230   -4.5970   22.8840 C   0  0  0  0  0  0  0  0  0  0  0  0
  3  4  2  0
  4  5  1  0
  1  7  2  0
  2  7  2  0
  6  8  1  0
  8  9  2  0
  7 10  1  0
  9 10  1  0
 10 11  2  0
 11 12  1  0
  8 13  1  0
 12 13  2  0
  4 14  1  0
 14 15  1  0
 15 16  1  0
  7 17  1  0
 16 17  1  0
 17 18  1  0
 14 19  1  0
 18 19  1  0
M  END
