x0689-x2600
     RDKit          3D

 37 40  0  0  0  0  0  0  0  0999 V2000
    6.9510   -3.5850   19.9550 C   0  0  0  0  0  0  0  0  0  0  0  0
    5.2370   -5.1590   19.9670 O   0  0  0  0  0  0  0  0  0  0  0  0
    6.1960   -4.6980   20.5770 C   0  0  0  0  0  0  0  0  0  0  0  0
    4.0210   -6.3500   26.0350 O   0  0  0  0  0  0  0  0  0  0  0  0
    5.7240   -4.6010   26.6860 O   0  0  0  0  0  0  0  0  0  0  0  0
    4.7460   -5.1260   25.7640 S   0  0  0  0  0  0  0  0  0  0  0  0
   13.5300   -2.5530   20.7230 N   0  0  0  0  0  0  0  0  0  0  0  0
    8.3670    0.6710   21.7070 C   0  0  0  0  0  0  0  0  0  0  0  0
    8.8530    1.7240   21.2600 O   0  0  0  0  0  0  0  0  0  0  0  0
    8.7810    0.1630   23.0440 C   0  0  0  0  0  0  0  0  0  0  0  0
    7.4490   -0.1390   21.0310 N   0  0  0  0  0  0  0  0  0  0  0  0
   12.9720   -1.9430   21.4740 C   0  0  0  0  0  0  0  0  0  0  0  0
    7.3950   -2.6320   21.0610 C   0  0  0  0  0  0  0  0  0  0  0  0
    8.0220   -1.3670   20.5740 C   0  0  0  0  0  0  0  0  0  0  0  0
    6.4810   -5.2800   21.8000 N   0  0  0  0  0  0  0  0  0  0  0  0
    5.6560   -6.3970   22.2380 C   0  0  0  0  0  0  0  0  0  0  0  0
    4.7520   -6.0010   23.1850 C   0  0  0  0  0  0  0  0  0  0  0  0
    5.4900   -5.2960   24.2620 N   0  0  0  0  0  0  0  0  0  0  0  0
    6.3150   -4.1970   23.7550 C   0  0  0  0  0  0  0  0  0  0  0  0
    7.1640   -4.7060   22.8190 C   0  0  0  0  0  0  0  0  0  0  0  0
    3.9300   -2.2610   25.9790 S   0  0  0  0  0  0  0  0  0  0  0  0
    3.4680   -3.8940   25.6730 C   0  0  0  0  0  0  0  0  0  0  0  0
    2.1080   -3.9900   25.3980 C   0  0  0  0  0  0  0  0  0  0  0  0
    1.3840   -2.7250   25.4330 C   0  0  0  0  0  0  0  0  0  0  0  0
    2.3360   -1.6670   25.7580 C   0  0  0  0  0  0  0  0  0  0  0  0
    6.2030    0.6520   17.6760 N   0  0  0  0  0  0  0  0  0  0  0  0
    6.9040    0.1690   18.7150 C   0  0  0  0  0  0  0  0  0  0  0  0
    6.5960    0.4490   20.0260 C   0  0  0  0  0  0  0  0  0  0  0  0
    5.5140    1.2570   20.3550 C   0  0  0  0  0  0  0  0  0  0  0  0
    4.7990    1.7490   19.3000 C   0  0  0  0  0  0  0  0  0  0  0  0
    5.1560    1.4430   17.9920 C   0  0  0  0  0  0  0  0  0  0  0  0
   10.8630    0.0910   24.4380 C   0  0  0  0  0  0  0  0  0  0  0  0
   12.1950   -0.2540   24.6470 C   0  0  0  0  0  0  0  0  0  0  0  0
   12.8280   -0.9130   23.6330 C   0  0  0  0  0  0  0  0  0  0  0  0
   12.2440   -1.2560   22.4410 C   0  0  0  0  0  0  0  0  0  0  0  0
   10.9200   -0.9140   22.2280 C   0  0  0  0  0  0  0  0  0  0  0  0
   10.2240   -0.2370   23.2220 C   0  0  0  0  0  0  0  0  0  0  0  0
  1  3  1  0
  2  3  2  0
  4  6  2  0
  5  6  2  0
  8  9  2  0
  8 10  1  0
  8 11  1  0
  7 12  3  0
  1 13  1  0
 11 14  1  0
 13 14  1  0
  3 15  1  0
 15 16  1  0
 16 17  1  0
  6 18  1  0
 17 18  1  0
 18 19  1  0
 15 20  1  0
 19 20  1  0
  6 22  1  0
 21 22  1  0
 22 23  2  0
 23 24  1  0
 21 25  1  0
 24 25  2  0
 26 27  2  0
 11 28  1  0
 27 28  1  0
 28 29  2  0
 29 30  1  0
 26 31  1  0
 30 31  2  0
 32 33  2  0
 33 34  1  0
 12 35  1  0
 34 35  2  0
 35 36  1  0
 10 37  1  0
 32 37  1  0
 36 37  2  0
M  END
