x0689-x0678
     RDKit          3D

 35 38  0  0  0  0  0  0  0  0999 V2000
    7.2150   -3.3980   19.9620 C   0  0  0  0  0  0  0  0  0  0  0  0
    5.3020   -4.8030   19.9490 O   0  0  0  0  0  0  0  0  0  0  0  0
    6.3330   -4.4620   20.5600 C   0  0  0  0  0  0  0  0  0  0  0  0
    3.8900   -6.3910   25.9380 O   0  0  0  0  0  0  0  0  0  0  0  0
    5.6240   -4.7340   26.7140 O   0  0  0  0  0  0  0  0  0  0  0  0
    4.6450   -5.1710   25.7470 S   0  0  0  0  0  0  0  0  0  0  0  0
    9.1650    1.4570   21.3120 O   0  0  0  0  0  0  0  0  0  0  0  0
    8.6500    0.4380   21.7920 C   0  0  0  0  0  0  0  0  0  0  0  0
    9.2640   -0.1910   23.0030 C   0  0  0  0  0  0  0  0  0  0  0  0
    7.5070   -0.1630   21.2790 N   0  0  0  0  0  0  0  0  0  0  0  0
    7.9440   -2.6000   21.0700 C   0  0  0  0  0  0  0  0  0  0  0  0
    7.1170   -1.5040   21.7280 C   0  0  0  0  0  0  0  0  0  0  0  0
    6.6150   -5.1000   21.7740 N   0  0  0  0  0  0  0  0  0  0  0  0
    5.7050   -6.2130   22.0940 C   0  0  0  0  0  0  0  0  0  0  0  0
    4.7500   -5.8830   23.0710 C   0  0  0  0  0  0  0  0  0  0  0  0
    5.4400   -5.2600   24.2450 N   0  0  0  0  0  0  0  0  0  0  0  0
    6.3560   -4.1350   23.9030 C   0  0  0  0  0  0  0  0  0  0  0  0
    7.2830   -4.5580   22.9700 C   0  0  0  0  0  0  0  0  0  0  0  0
    3.9240   -2.2790   25.9790 S   0  0  0  0  0  0  0  0  0  0  0  0
    3.4000   -3.9070   25.6630 C   0  0  0  0  0  0  0  0  0  0  0  0
    2.0090   -3.9950   25.3830 C   0  0  0  0  0  0  0  0  0  0  0  0
    1.4290   -2.7530   25.4410 C   0  0  0  0  0  0  0  0  0  0  0  0
    2.3430   -1.6820   25.7590 C   0  0  0  0  0  0  0  0  0  0  0  0
   11.2750   -1.5640   22.2300 C   0  0  0  0  0  0  0  0  0  0  0  0
   12.6450   -1.7930   22.4040 C   0  0  0  0  0  0  0  0  0  0  0  0
   13.2550   -1.0720   23.4440 C   0  0  0  0  0  0  0  0  0  0  0  0
   12.5280   -0.5110   24.5020 C   0  0  0  0  0  0  0  0  0  0  0  0
   11.1900   -0.5370   24.3420 C   0  0  0  0  0  0  0  0  0  0  0  0
   10.7900   -0.3610   23.0390 C   0  0  0  0  0  0  0  0  0  0  0  0
    5.7080    1.1960   20.3470 C   0  0  0  0  0  0  0  0  0  0  0  0
    4.9980    1.6510   19.2400 C   0  0  0  0  0  0  0  0  0  0  0  0
    5.3870    1.2020   17.9880 C   0  0  0  0  0  0  0  0  0  0  0  0
    6.4040    0.3550   17.8000 N   0  0  0  0  0  0  0  0  0  0  0  0
    7.0700   -0.0730   18.8840 C   0  0  0  0  0  0  0  0  0  0  0  0
    6.7700    0.3170   20.1800 C   0  0  0  0  0  0  0  0  0  0  0  0
  1  3  1  0
  2  3  2  0
  4  6  2  0
  5  6  2  0
  7  8  2  0
  8  9  1  0
  8 10  1  0
  1 11  1  0
 10 12  1  0
 11 12  1  0
  3 13  1  0
 13 14  1  0
 14 15  1  0
  6 16  1  0
 15 16  1  0
 16 17  1  0
 13 18  1  0
 17 18  1  0
  6 20  1  0
 19 20  1  0
 20 21  2  0
 21 22  1  0
 19 23  1  0
 22 23  2  0
 24 25  1  0
 25 26  1  0
 26 27  1  0
 27 28  1  0
  9 29  1  0
 24 29  1  0
 28 29  1  0
 30 31  2  0
 31 32  1  0
 32 33  2  0
 33 34  1  0
 10 35  1  0
 30 35  1  0
 34 35  2  0
M  END
