x0689-x2705
     RDKit          3D

 48 54  0  0  0  0  0  0  0  0999 V2000
    7.0590   -1.4630   21.7430 N   0  0  0  0  0  0  0  0  0  0  0  0
    6.6870   -4.3270   20.2960 C   0  0  2  0  0  0  0  0  0  0  0  0
    4.9850   -3.3130   21.3500 O   0  0  0  0  0  0  0  0  0  0  0  0
    6.7890   -3.4650   21.4940 C   0  0  2  0  0  0  0  0  0  0  0  0
    7.4450    1.9930   22.7440 N   0  0  0  0  0  0  0  0  0  0  0  0
    9.0340    0.8020   21.5260 O   0  0  0  0  0  0  0  0  0  0  0  0
    5.8360   -2.3330   21.5400 C   0  0  0  0  0  0  0  0  0  0  0  0
    6.7640   -0.0030   21.5360 C   0  0  1  0  0  0  0  0  0  0  0  0
    7.8810    0.9380   21.9230 C   0  0  0  0  0  0  0  0  0  0  0  0
   10.1770    2.0230   23.9500 C   0  0  0  0  0  0  0  0  0  0  0  0
    9.3120    1.2090   24.9100 C   0  0  0  0  0  0  0  0  0  0  0  0
    6.1790    4.4330   21.8540 C   0  0  0  0  0  0  0  0  0  0  0  0
   12.0670   -1.5730   23.2800 C   0  0  0  0  0  0  0  0  0  0  0  0
   12.4840   -0.2890   23.6560 C   0  0  0  0  0  0  0  0  0  0  0  0
   12.5960   -2.5810   24.3070 C   0  0  0  0  0  0  0  0  0  0  0  0
   12.7210   -1.9050   21.9230 C   0  0  0  0  0  0  0  0  0  0  0  0
    5.4740   -4.3490   19.5570 O   0  0  0  0  0  0  0  0  0  0  0  0
    4.1210   -6.3450   26.0240 O   0  0  0  0  0  0  0  0  0  0  0  0
    5.7180   -4.6320   26.7530 O   0  0  0  0  0  0  0  0  0  0  0  0
    4.7600   -5.0230   25.6580 S   0  0  0  0  0  0  0  0  0  0  0  0
    6.3330    0.4240   17.8030 N   0  0  0  0  0  0  0  0  0  0  0  0
    5.2040    1.1560   17.7880 C   0  0  0  0  0  0  0  0  0  0  0  0
    4.4360    1.5800   18.9600 C   0  0  0  0  0  0  0  0  0  0  0  0
    5.0260    1.1340   20.2130 C   0  0  0  0  0  0  0  0  0  0  0  0
    6.1940    0.3920   20.2090 C   0  0  0  0  0  0  0  0  0  0  0  0
    6.7850    0.0680   19.0050 C   0  0  0  0  0  0  0  0  0  0  0  0
    9.6750   -1.7680   24.2170 N   0  0  0  0  0  0  0  0  0  0  0  0
    8.3480   -1.7590   23.8840 N   0  0  0  0  0  0  0  0  0  0  0  0
    8.2770   -1.5830   22.5460 C   0  0  0  0  0  0  0  0  0  0  0  0
    9.6030   -1.5000   22.1330 C   0  0  0  0  0  0  0  0  0  0  0  0
   10.5290   -1.6070   23.1670 C   0  0  0  0  0  0  0  0  0  0  0  0
    9.4530    3.2660   23.4770 C   0  0  0  0  0  0  0  0  0  0  0  0
   10.1140    4.4960   23.6230 C   0  0  0  0  0  0  0  0  0  0  0  0
    9.4900    5.6740   23.1970 C   0  0  0  0  0  0  0  0  0  0  0  0
    8.2120    5.6450   22.6230 C   0  0  0  0  0  0  0  0  0  0  0  0
    7.5490    4.4140   22.4770 C   0  0  0  0  0  0  0  0  0  0  0  0
    8.1610    3.2260   22.9030 C   0  0  0  0  0  0  0  0  0  0  0  0
    6.6500   -5.0610   21.5540 C   0  0  1  0  0  0  0  0  0  0  0  0
    5.6300   -5.9970   21.8570 C   0  0  0  0  0  0  0  0  0  0  0  0
    4.7670   -5.4840   22.9830 C   0  0  0  0  0  0  0  0  0  0  0  0
    5.5920   -5.1880   24.1720 N   0  0  0  0  0  0  0  0  0  0  0  0
    6.6320   -4.1480   23.8950 C   0  0  0  0  0  0  0  0  0  0  0  0
    7.2870   -4.2710   22.6430 C   0  0  2  0  0  0  0  0  0  0  0  0
    3.8780   -2.2210   26.0110 S   0  0  0  0  0  0  0  0  0  0  0  0
    3.4290   -3.8340   25.6200 C   0  0  0  0  0  0  0  0  0  0  0  0
    2.0750   -3.9300   25.3390 C   0  0  0  0  0  0  0  0  0  0  0  0
    1.4090   -2.7210   25.4420 C   0  0  0  0  0  0  0  0  0  0  0  0
    2.2810   -1.6610   25.8100 C   0  0  0  0  0  0  0  0  0  0  0  0
  2  4  1  0
  1  7  1  0
  3  7  2  0
  4  7  1  1
  1  8  1  0
  5  9  1  0
  6  9  2  0
  8  9  1  6
 10 11  1  0
 13 14  1  0
 13 15  1  0
 13 16  1  0
  2 17  1  1
 18 20  2  0
 19 20  2  0
 21 22  2  0
 22 23  1  0
 23 24  2  0
  8 25  1  0
 24 25  1  0
 21 26  1  0
 25 26  2  0
 27 28  1  0
  1 29  1  0
 28 29  2  0
 29 30  1  0
 13 31  1  0
 27 31  1  0
 30 31  2  0
 10 32  1  0
 32 33  2  0
 33 34  1  0
 34 35  2  0
 12 36  1  0
 35 36  1  0
  5 37  1  0
 32 37  1  0
 36 37  2  0
  2 38  1  0
  4 38  1  0
 38 39  1  1
 39 40  1  0
 20 41  1  0
 40 41  1  0
 41 42  1  0
  4 43  1  0
 38 43  1  0
 43 42  1  1
 20 45  1  0
 44 45  1  0
 45 46  2  0
 46 47  1  0
 44 48  1  0
 47 48  2  0
M  END
