x0689-x0771-x2705-x3117
     RDKit          3D

 52 58  0  0  0  0  0  0  0  0999 V2000
    6.8300   -1.3990   22.0070 N   0  0  0  0  0  0  0  0  0  0  0  0
    6.8670   -4.5190   20.3060 C   0  0  2  0  0  0  0  0  0  0  0  0
    4.7890   -2.9920   21.3140 O   0  0  0  0  0  0  0  0  0  0  0  0
    7.0130   -3.6880   21.4420 C   0  0  2  0  0  0  0  0  0  0  0  0
    7.4790    2.0590   22.8690 N   0  0  0  0  0  0  0  0  0  0  0  0
    8.6030    1.2720   21.1120 O   0  0  0  0  0  0  0  0  0  0  0  0
    6.0650   -2.6380   21.5820 C   0  0  0  0  0  0  0  0  0  0  0  0
    6.5100    0.0230   21.5860 C   0  0  1  0  0  0  0  0  0  0  0  0
    7.5980    1.1360   21.8550 C   0  0  0  0  0  0  0  0  0  0  0  0
   10.2250    2.0970   23.9790 C   0  0  0  0  0  0  0  0  0  0  0  0
    9.3560    1.2490   24.8970 C   0  0  0  0  0  0  0  0  0  0  0  0
    6.2030    4.4390   21.9390 C   0  0  0  0  0  0  0  0  0  0  0  0
   11.9500   -1.5280   23.2300 C   0  0  0  0  0  0  0  0  0  0  0  0
   12.4870   -0.2200   23.8510 C   0  0  0  0  0  0  0  0  0  0  0  0
   12.4150   -2.7310   24.0590 C   0  0  0  0  0  0  0  0  0  0  0  0
   12.5930   -1.7040   21.9060 C   0  0  0  0  0  0  0  0  0  0  0  0
   13.3670   -2.4690   25.1970 C   0  0  0  0  0  0  0  0  0  0  0  0
    5.5820   -4.5350   19.6920 O   0  0  0  0  0  0  0  0  0  0  0  0
    0.8710   -1.3040   26.1760 C   0  0  0  0  0  0  0  0  0  0  0  0
    4.7380   -6.9010   26.0650 O   0  0  0  0  0  0  0  0  0  0  0  0
    6.0480   -4.9140   26.7930 O   0  0  0  0  0  0  0  0  0  0  0  0
    1.6810   -6.0590   24.7680 C   0  0  0  0  0  0  0  0  0  0  0  0
    5.1420   -5.5270   25.8430 S   0  0  0  0  0  0  0  0  0  0  0  0
    6.3480    0.3800   17.8650 N   0  0  0  0  0  0  0  0  0  0  0  0
    5.1990    1.0720   17.7660 C   0  0  0  0  0  0  0  0  0  0  0  0
    4.3890    1.4490   18.8330 C   0  0  0  0  0  0  0  0  0  0  0  0
    4.8040    1.0940   20.0900 C   0  0  0  0  0  0  0  0  0  0  0  0
    6.0150    0.3780   20.2270 C   0  0  0  0  0  0  0  0  0  0  0  0
    6.7310    0.0460   19.1020 C   0  0  0  0  0  0  0  0  0  0  0  0
    9.6290   -1.5240   24.2470 N   0  0  0  0  0  0  0  0  0  0  0  0
    8.3080   -1.5000   23.9870 N   0  0  0  0  0  0  0  0  0  0  0  0
    8.1490   -1.4600   22.6550 C   0  0  0  0  0  0  0  0  0  0  0  0
    9.4730   -1.4650   22.0850 C   0  0  0  0  0  0  0  0  0  0  0  0
   10.4180   -1.5050   23.1430 C   0  0  0  0  0  0  0  0  0  0  0  0
    9.4980    3.3320   23.4950 C   0  0  0  0  0  0  0  0  0  0  0  0
   10.1770    4.5500   23.5940 C   0  0  0  0  0  0  0  0  0  0  0  0
    9.5640    5.7390   23.1560 C   0  0  0  0  0  0  0  0  0  0  0  0
    8.2650    5.6660   22.6210 C   0  0  0  0  0  0  0  0  0  0  0  0
    7.5890    4.4290   22.5290 C   0  0  0  0  0  0  0  0  0  0  0  0
    8.1930    3.2900   22.9630 C   0  0  0  0  0  0  0  0  0  0  0  0
    1.8250   -2.4520   26.0180 C   0  0  0  0  0  0  0  0  0  0  0  0
    1.3420   -3.6240   25.5000 C   0  0  0  0  0  0  0  0  0  0  0  0
    2.2110   -4.7710   25.3330 C   0  0  0  0  0  0  0  0  0  0  0  0
    3.5520   -4.5670   25.7430 C   0  0  0  0  0  0  0  0  0  0  0  0
    4.1340   -3.4350   26.2660 C   0  0  0  0  0  0  0  0  0  0  0  0
    3.1710   -2.2820   26.4090 C   0  0  0  0  0  0  0  0  0  0  0  0
    6.9300   -5.1610   21.6470 C   0  0  1  0  0  0  0  0  0  0  0  0
    5.7610   -6.0970   21.9530 C   0  0  0  0  0  0  0  0  0  0  0  0
    4.9180   -5.7170   23.1590 C   0  0  0  0  0  0  0  0  0  0  0  0
    5.8160   -5.4510   24.2970 N   0  0  0  0  0  0  0  0  0  0  0  0
    6.5270   -4.2080   24.0060 C   0  0  0  0  0  0  0  0  0  0  0  0
    7.4340   -4.4620   22.7890 C   0  0  2  0  0  0  0  0  0  0  0  0
  2  4  1  0
  1  7  1  0
  3  7  2  0
  4  7  1  1
  1  8  1  0
  5  9  1  0
  6  9  2  0
  8  9  1  6
 10 11  1  0
 13 14  1  0
 13 15  1  0
 13 16  1  0
 15 17  1  0
  2 18  1  1
 20 23  2  0
 21 23  2  0
 24 25  2  0
 25 26  1  0
 26 27  2  0
  8 28  1  0
 27 28  1  0
 24 29  1  0
 28 29  2  0
 30 31  1  0
  1 32  1  0
 31 32  2  0
 32 33  1  0
 13 34  1  0
 30 34  1  0
 33 34  2  0
 10 35  1  0
 35 36  2  0
 36 37  1  0
 37 38  2  0
 12 39  1  0
 38 39  1  0
  5 40  1  0
 35 40  1  0
 39 40  2  0
 19 41  1  0
 41 42  2  0
 22 43  1  0
 42 43  1  0
 23 44  1  0
 43 44  2  0
 44 45  1  0
 41 46  1  0
 45 46  2  0
  2 47  1  0
  4 47  1  0
 47 48  1  1
 48 49  1  0
 23 50  1  0
 49 50  1  0
 50 51  1  0
  4 52  1  0
 47 52  1  0
 52 51  1  1
M  END
