x0689-x2572
     RDKit          3D

 38 41  0  0  0  0  0  0  0  0999 V2000
    6.9410   -3.5700   19.9150 C   0  0  0  0  0  0  0  0  0  0  0  0
    5.2960   -5.2230   19.9770 O   0  0  0  0  0  0  0  0  0  0  0  0
    6.2380   -4.7040   20.5730 C   0  0  0  0  0  0  0  0  0  0  0  0
    3.9200   -6.3450   25.9600 O   0  0  0  0  0  0  0  0  0  0  0  0
    5.6980   -4.6990   26.6660 O   0  0  0  0  0  0  0  0  0  0  0  0
    4.6890   -5.1410   25.7300 S   0  0  0  0  0  0  0  0  0  0  0  0
    4.8340    1.3450   21.5990 C   0  0  0  0  0  0  0  0  0  0  0  0
    8.7320    1.7000   21.3290 O   0  0  0  0  0  0  0  0  0  0  0  0
    7.3120   -0.2100   20.9660 N   0  0  0  0  0  0  0  0  0  0  0  0
   13.5320   -3.2110   20.6930 N   0  0  0  0  0  0  0  0  0  0  0  0
    8.2710    0.5990   21.6900 C   0  0  0  0  0  0  0  0  0  0  0  0
    8.7020   -0.1100   22.9170 C   0  0  0  0  0  0  0  0  0  0  0  0
   12.9240   -2.1610   21.4920 C   0  0  0  0  0  0  0  0  0  0  0  0
    7.2740   -2.5640   21.0030 C   0  0  0  0  0  0  0  0  0  0  0  0
    7.8600   -1.4410   20.4990 C   0  0  0  0  0  0  0  0  0  0  0  0
    6.5540   -5.2300   21.8210 N   0  0  0  0  0  0  0  0  0  0  0  0
    5.6860   -6.3860   22.2120 C   0  0  0  0  0  0  0  0  0  0  0  0
    4.7180   -6.0340   23.1490 C   0  0  0  0  0  0  0  0  0  0  0  0
    5.4290   -5.2840   24.2250 N   0  0  0  0  0  0  0  0  0  0  0  0
    6.2200   -4.1140   23.7400 C   0  0  0  0  0  0  0  0  0  0  0  0
    7.1860   -4.6400   22.8680 C   0  0  0  0  0  0  0  0  0  0  0  0
    3.9520   -2.2550   26.0420 S   0  0  0  0  0  0  0  0  0  0  0  0
    3.4470   -3.8690   25.6870 C   0  0  0  0  0  0  0  0  0  0  0  0
    2.0010   -3.9450   25.3970 C   0  0  0  0  0  0  0  0  0  0  0  0
    1.3370   -2.6550   25.4830 C   0  0  0  0  0  0  0  0  0  0  0  0
    2.1670   -1.6100   25.8110 C   0  0  0  0  0  0  0  0  0  0  0  0
    6.2520    0.7260   17.6260 N   0  0  0  0  0  0  0  0  0  0  0  0
    6.9020    0.2190   18.6730 C   0  0  0  0  0  0  0  0  0  0  0  0
    6.5160    0.3780   19.9960 C   0  0  0  0  0  0  0  0  0  0  0  0
    5.3860    1.0950   20.2280 C   0  0  0  0  0  0  0  0  0  0  0  0
    4.6740    1.6440   19.1750 C   0  0  0  0  0  0  0  0  0  0  0  0
    5.1560    1.4310   17.8980 C   0  0  0  0  0  0  0  0  0  0  0  0
   10.8860    0.7350   23.7160 C   0  0  0  0  0  0  0  0  0  0  0  0
   12.2590    0.6910   23.7380 C   0  0  0  0  0  0  0  0  0  0  0  0
   12.9640   -0.2550   23.0140 C   0  0  0  0  0  0  0  0  0  0  0  0
   12.2610   -1.1750   22.2550 C   0  0  0  0  0  0  0  0  0  0  0  0
   10.8780   -1.1420   22.2210 C   0  0  0  0  0  0  0  0  0  0  0  0
   10.1900   -0.1810   22.9520 C   0  0  0  0  0  0  0  0  0  0  0  0
  1  3  1  0
  2  3  2  0
  4  6  2  0
  5  6  2  0
  8 11  2  0
  9 11  1  0
 11 12  1  0
 10 13  3  0
  1 14  1  0
  9 15  1  0
 14 15  1  0
  3 16  1  0
 16 17  1  0
 17 18  1  0
  6 19  1  0
 18 19  1  0
 19 20  1  0
 16 21  1  0
 20 21  1  0
  6 23  1  0
 22 23  1  0
 23 24  2  0
 24 25  1  0
 22 26  1  0
 25 26  2  0
 27 28  2  0
  9 29  1  0
 28 29  1  0
  7 30  1  0
 29 30  2  0
 30 31  1  0
 27 32  1  0
 31 32  2  0
 33 34  2  0
 34 35  1  0
 13 36  1  0
 35 36  2  0
 36 37  1  0
 12 38  1  0
 33 38  1  0
 37 38  2  0
M  END
