x0689-x3115
     RDKit          3D

 44 48  0  0  0  0  0  0  0  0999 V2000
    6.9050   -1.6980   21.7670 N   0  0  0  0  0  0  0  0  0  0  0  0
    6.9460   -5.0660   20.5070 C   0  0  0  0  0  0  0  0  0  0  0  0
    4.7610   -2.8960   21.0890 O   0  0  0  0  0  0  0  0  0  0  0  0
    6.5270   -4.1220   21.5570 C   0  0  1  0  0  0  0  0  0  0  0  0
    7.1250    1.6930   22.8110 N   0  0  0  0  0  0  0  0  0  0  0  0
    8.7670    0.5980   21.6010 O   0  0  0  0  0  0  0  0  0  0  0  0
    5.9970   -2.8090   21.4470 C   0  0  0  0  0  0  0  0  0  0  0  0
    8.4840    5.1900   22.9050 O   0  0  0  0  0  0  0  0  0  0  0  0
    6.5200   -0.2670   21.5690 C   0  0  1  0  0  0  0  0  0  0  0  0
    7.6030    0.6830   21.9860 C   0  0  0  0  0  0  0  0  0  0  0  0
    7.9900    2.8270   23.1500 C   0  0  0  0  0  0  0  0  0  0  0  0
    7.7610    4.0910   22.3390 C   0  0  0  0  0  0  0  0  0  0  0  0
    8.2930    6.4060   22.1820 C   0  0  0  0  0  0  0  0  0  0  0  0
   12.2770   -1.8720   24.1370 C   0  0  0  0  0  0  0  0  0  0  0  0
   13.2020   -1.8270   23.1020 C   0  0  0  0  0  0  0  0  0  0  0  0
   12.6680   -3.0150   25.0530 C   0  0  0  0  0  0  0  0  0  0  0  0
   12.4120   -0.5870   24.9560 C   0  0  0  0  0  0  0  0  0  0  0  0
    6.0270   -5.6040   19.9000 O   0  0  0  0  0  0  0  0  0  0  0  0
    3.9980   -6.4100   26.3570 O   0  0  0  0  0  0  0  0  0  0  0  0
    5.7560   -4.5590   26.7520 O   0  0  0  0  0  0  0  0  0  0  0  0
    4.7540   -5.1820   25.9210 S   0  0  0  0  0  0  0  0  0  0  0  0
    6.2880    0.4140   17.8210 N   0  0  0  0  0  0  0  0  0  0  0  0
    5.1880    1.1890   17.7900 C   0  0  0  0  0  0  0  0  0  0  0  0
    4.4210    1.5260   18.9740 C   0  0  0  0  0  0  0  0  0  0  0  0
    4.8900    1.0050   20.2340 C   0  0  0  0  0  0  0  0  0  0  0  0
    6.0320    0.2220   20.2320 C   0  0  0  0  0  0  0  0  0  0  0  0
    6.6860   -0.0510   19.0270 C   0  0  0  0  0  0  0  0  0  0  0  0
    9.3340   -1.5510   21.6730 C   0  0  0  0  0  0  0  0  0  0  0  0
   10.5970   -1.5880   22.2000 C   0  0  0  0  0  0  0  0  0  0  0  0
   10.8780   -1.8650   23.5280 C   0  0  0  0  0  0  0  0  0  0  0  0
    9.7490   -2.1300   24.3130 C   0  0  0  0  0  0  0  0  0  0  0  0
    8.4290   -2.1000   23.7820 C   0  0  0  0  0  0  0  0  0  0  0  0
    8.2150   -1.7950   22.4230 C   0  0  0  0  0  0  0  0  0  0  0  0
    5.5850   -4.8980   22.2050 N   0  0  0  0  0  0  0  0  0  0  0  0
    5.2720   -6.1900   22.2540 C   0  0  0  0  0  0  0  0  0  0  0  0
    4.7550   -6.4740   23.4780 C   0  0  0  0  0  0  0  0  0  0  0  0
    5.4460   -5.5190   24.4060 N   0  0  0  0  0  0  0  0  0  0  0  0
    6.8710   -5.1180   24.0570 C   0  0  0  0  0  0  0  0  0  0  0  0
    6.9980   -5.0900   22.6460 C   0  0  2  0  0  0  0  0  0  0  0  0
    3.9110   -2.2830   26.0850 S   0  0  0  0  0  0  0  0  0  0  0  0
    3.4840   -3.9310   25.7680 C   0  0  0  0  0  0  0  0  0  0  0  0
    2.0070   -4.0570   25.3950 C   0  0  0  0  0  0  0  0  0  0  0  0
    1.4300   -2.6640   25.4440 C   0  0  0  0  0  0  0  0  0  0  0  0
    2.3310   -1.6810   25.7880 C   0  0  0  0  0  0  0  0  0  0  0  0
  4  2  1  6
  1  7  1  0
  3  7  2  0
  4  7  1  0
  1  9  1  0
  5 10  1  0
  6 10  2  0
  9 10  1  6
  5 11  1  0
  8 12  1  0
 11 12  1  0
  8 13  1  0
 14 15  1  0
 14 16  1  0
 14 17  1  0
  2 18  2  0
 19 21  2  0
 20 21  2  0
 22 23  2  0
 23 24  1  0
 24 25  2  0
  9 26  1  0
 25 26  1  0
 22 27  1  0
 26 27  2  0
 28 29  2  0
 14 30  1  0
 29 30  1  0
 30 31  2  0
 31 32  1  0
  1 33  1  0
 28 33  1  0
 32 33  2  0
  4 34  1  0
 34 35  1  0
 35 36  1  0
 21 37  1  0
 36 37  1  0
 37 38  1  0
  4 39  1  0
 34 39  1  0
 39 38  1  1
 21 41  1  0
 40 41  1  0
 41 42  2  0
 42 43  1  0
 40 44  1  0
 43 44  2  0
M  END
