x0689-x1308
     RDKit          3D

 19 20  0  0  0  0  0  0  0  0999 V2000
    7.4290   -3.4030   19.8270 C   0  0  0  0  0  0  0  0  0  0  0  0
    5.4180   -4.6710   19.9590 O   0  0  0  0  0  0  0  0  0  0  0  0
    0.7810   -1.2370   26.4000 Cl  0  0  0  0  0  0  0  0  0  0  0  0
    6.5140   -4.3910   20.5010 C   0  0  0  0  0  0  0  0  0  0  0  0
    6.4120   -5.0300   26.8730 O   0  0  0  0  0  0  0  0  0  0  0  0
    4.7310   -6.7730   26.1470 O   0  0  0  0  0  0  0  0  0  0  0  0
    5.3870   -5.4990   25.9680 S   0  0  0  0  0  0  0  0  0  0  0  0
    6.8380   -5.0600   21.7110 N   0  0  0  0  0  0  0  0  0  0  0  0
    7.6820   -4.5180   22.7790 C   0  0  0  0  0  0  0  0  0  0  0  0
    6.9020   -4.2610   24.0240 C   0  0  0  0  0  0  0  0  0  0  0  0
    5.9920   -5.4020   24.3720 N   0  0  0  0  0  0  0  0  0  0  0  0
    5.1570   -5.8600   23.3550 C   0  0  0  0  0  0  0  0  0  0  0  0
    5.9640   -6.1880   22.0870 C   0  0  0  0  0  0  0  0  0  0  0  0
    4.3670   -3.0140   26.4400 C   0  0  0  0  0  0  0  0  0  0  0  0
    3.3120   -2.1260   26.5170 C   0  0  0  0  0  0  0  0  0  0  0  0
    2.0110   -2.4260   26.2500 C   0  0  0  0  0  0  0  0  0  0  0  0
    1.7120   -3.7310   25.8580 C   0  0  0  0  0  0  0  0  0  0  0  0
    2.7420   -4.6310   25.7750 C   0  0  0  0  0  0  0  0  0  0  0  0
    4.0880   -4.2900   26.0690 C   0  0  0  0  0  0  0  0  0  0  0  0
  1  4  1  0
  2  4  2  0
  5  7  2  0
  6  7  2  0
  4  8  1  0
  8  9  1  0
  9 10  1  0
  7 11  1  0
 10 11  1  0
 11 12  1  0
  8 13  1  0
 12 13  1  0
 14 15  2  0
  3 16  1  0
 15 16  1  0
 16 17  2  0
 17 18  1  0
  7 19  1  0
 14 19  1  0
 18 19  2  0
M  END
