x0689-x2646
     RDKit          3D

 36 39  0  0  0  0  0  0  0  0999 V2000
    7.6400   -3.4860   20.3180 C   0  0  0  0  0  0  0  0  0  0  0  0
    5.4670   -4.5210   19.9180 O   0  0  0  0  0  0  0  0  0  0  0  0
    6.4830   -4.3810   20.6610 C   0  0  0  0  0  0  0  0  0  0  0  0
    3.8130   -6.3970   25.9880 O   0  0  0  0  0  0  0  0  0  0  0  0
    5.5690   -4.7590   26.7580 O   0  0  0  0  0  0  0  0  0  0  0  0
    4.5870   -5.1880   25.7920 S   0  0  0  0  0  0  0  0  0  0  0  0
    4.7700    1.1370   21.6930 C   0  0  0  0  0  0  0  0  0  0  0  0
    8.5690    0.8040   21.1950 O   0  0  0  0  0  0  0  0  0  0  0  0
   13.2140   -2.2730   21.1650 Cl  0  0  0  0  0  0  0  0  0  0  0  0
    6.9180   -0.8980   20.8080 N   0  0  0  0  0  0  0  0  0  0  0  0
    8.0600   -0.2770   21.5270 C   0  0  0  0  0  0  0  0  0  0  0  0
    8.5630   -1.0110   22.7170 C   0  0  0  0  0  0  0  0  0  0  0  0
    7.2050   -2.0540   19.9120 C   0  0  0  0  0  0  0  0  0  0  0  0
    6.5680   -5.0720   21.8630 N   0  0  0  0  0  0  0  0  0  0  0  0
    5.5960   -6.1520   22.0940 C   0  0  0  0  0  0  0  0  0  0  0  0
    4.6690   -5.8590   23.1070 C   0  0  0  0  0  0  0  0  0  0  0  0
    5.3890   -5.3040   24.2960 N   0  0  0  0  0  0  0  0  0  0  0  0
    6.3320   -4.1930   23.9830 C   0  0  0  0  0  0  0  0  0  0  0  0
    7.2740   -4.6210   23.0700 C   0  0  0  0  0  0  0  0  0  0  0  0
    3.8960   -2.2850   26.0210 S   0  0  0  0  0  0  0  0  0  0  0  0
    3.3610   -3.9030   25.6870 C   0  0  0  0  0  0  0  0  0  0  0  0
    1.9790   -3.9580   25.3790 C   0  0  0  0  0  0  0  0  0  0  0  0
    1.3890   -2.7170   25.4230 C   0  0  0  0  0  0  0  0  0  0  0  0
    2.3250   -1.6670   25.7690 C   0  0  0  0  0  0  0  0  0  0  0  0
    6.1410    0.6980   17.6210 N   0  0  0  0  0  0  0  0  0  0  0  0
    6.6390   -0.0590   18.6150 C   0  0  0  0  0  0  0  0  0  0  0  0
    6.2620    0.0060   19.9440 C   0  0  0  0  0  0  0  0  0  0  0  0
    5.2880    0.9300   20.3040 C   0  0  0  0  0  0  0  0  0  0  0  0
    4.7810    1.7080   19.2580 C   0  0  0  0  0  0  0  0  0  0  0  0
    5.1970    1.5890   17.9680 C   0  0  0  0  0  0  0  0  0  0  0  0
   10.5710    0.1480   23.7900 C   0  0  0  0  0  0  0  0  0  0  0  0
   11.9440    0.3240   23.8760 C   0  0  0  0  0  0  0  0  0  0  0  0
   12.8110   -0.4080   23.0770 C   0  0  0  0  0  0  0  0  0  0  0  0
   12.2650   -1.3240   22.1910 C   0  0  0  0  0  0  0  0  0  0  0  0
   10.9090   -1.5020   22.1030 C   0  0  0  0  0  0  0  0  0  0  0  0
   10.0400   -0.7810   22.8830 C   0  0  0  0  0  0  0  0  0  0  0  0
  1  3  1  0
  2  3  2  0
  4  6  2  0
  5  6  2  0
  8 11  2  0
 10 11  1  0
 11 12  1  0
  1 13  1  0
 10 13  1  0
  3 14  1  0
 14 15  1  0
 15 16  1  0
  6 17  1  0
 16 17  1  0
 17 18  1  0
 14 19  1  0
 18 19  1  0
  6 21  1  0
 20 21  1  0
 21 22  2  0
 22 23  1  0
 20 24  1  0
 23 24  2  0
 25 26  2  0
 10 27  1  0
 26 27  1  0
  7 28  1  0
 27 28  2  0
 28 29  1  0
 25 30  1  0
 29 30  2  0
 31 32  2  0
 32 33  1  0
  9 34  1  0
 33 34  2  0
 34 35  1  0
 12 36  1  0
 31 36  1  0
 35 36  2  0
M  END
