x0689-x3108
     RDKit          3D

 40 43  0  0  0  0  0  0  0  0999 V2000
    6.0470    1.7260   22.0540 C   0  0  0  0  0  0  0  0  0  0  0  0
    9.2630    1.7700   21.3700 O   0  0  0  0  0  0  0  0  0  0  0  0
    8.0420   -0.1490   21.2070 N   0  0  0  0  0  0  0  0  0  0  0  0
    8.1390    0.4100   24.7840 O   0  0  0  0  0  0  0  0  0  0  0  0
    9.3800   -1.1840   23.4010 N   0  0  0  0  0  0  0  0  0  0  0  0
    9.0770    0.6020   21.7170 C   0  0  0  0  0  0  0  0  0  0  0  0
   10.0450   -0.0690   22.7300 C   0  0  0  0  0  0  0  0  0  0  0  0
    8.3780   -0.9070   24.3090 C   0  0  0  0  0  0  0  0  0  0  0  0
    7.5270   -2.0460   24.7610 C   0  0  0  0  0  0  0  0  0  0  0  0
    7.7170   -3.7000   20.3450 C   0  0  0  0  0  0  0  0  0  0  0  0
    5.4810   -4.4660   19.8900 O   0  0  0  0  0  0  0  0  0  0  0  0
    6.5090   -4.5600   20.6080 C   0  0  0  0  0  0  0  0  0  0  0  0
    3.7000   -6.4250   25.8600 O   0  0  0  0  0  0  0  0  0  0  0  0
    5.5100   -5.0290   26.7360 O   0  0  0  0  0  0  0  0  0  0  0  0
    4.5230   -5.1840   25.6090 S   0  0  0  0  0  0  0  0  0  0  0  0
    8.1590   -1.5940   21.3150 C   0  0  0  0  0  0  0  0  0  0  0  0
    7.4210   -2.2110   20.3490 C   0  0  0  0  0  0  0  0  0  0  0  0
    6.3030    0.2410   17.9610 N   0  0  0  0  0  0  0  0  0  0  0  0
    7.1320   -0.1170   18.9670 C   0  0  0  0  0  0  0  0  0  0  0  0
    7.1000    0.3140   20.2460 C   0  0  0  0  0  0  0  0  0  0  0  0
    6.1060    1.2260   20.6010 C   0  0  0  0  0  0  0  0  0  0  0  0
    5.2000    1.6580   19.6410 C   0  0  0  0  0  0  0  0  0  0  0  0
    5.3370    1.1240   18.2800 C   0  0  0  0  0  0  0  0  0  0  0  0
    9.7940   -5.2050   24.5130 N   0  0  0  0  0  0  0  0  0  0  0  0
    9.1080   -3.9500   24.2160 C   0  0  0  0  0  0  0  0  0  0  0  0
    8.2370   -3.3410   25.1080 C   0  0  0  0  0  0  0  0  0  0  0  0
    8.0020   -3.9520   26.3590 C   0  0  0  0  0  0  0  0  0  0  0  0
    8.6390   -5.1680   26.7070 C   0  0  0  0  0  0  0  0  0  0  0  0
    9.4950   -5.7690   25.8320 C   0  0  0  0  0  0  0  0  0  0  0  0
    6.5790   -5.4090   21.7060 N   0  0  0  0  0  0  0  0  0  0  0  0
    5.5940   -6.2830   21.9570 C   0  0  0  0  0  0  0  0  0  0  0  0
    4.6680   -5.7920   22.8800 C   0  0  0  0  0  0  0  0  0  0  0  0
    5.3200   -5.3090   24.1260 N   0  0  0  0  0  0  0  0  0  0  0  0
    6.5840   -4.8670   24.0050 C   0  0  0  0  0  0  0  0  0  0  0  0
    7.2600   -5.0780   22.8130 C   0  0  0  0  0  0  0  0  0  0  0  0
    3.8590   -2.2200   25.9530 S   0  0  0  0  0  0  0  0  0  0  0  0
    3.3830   -3.8400   25.6200 C   0  0  0  0  0  0  0  0  0  0  0  0
    2.0160   -3.9470   25.3730 C   0  0  0  0  0  0  0  0  0  0  0  0
    1.3910   -2.7230   25.4640 C   0  0  0  0  0  0  0  0  0  0  0  0
    2.2420   -1.6690   25.7730 C   0  0  0  0  0  0  0  0  0  0  0  0
  2  6  2  0
  3  6  1  0
  5  7  1  0
  6  7  1  0
  4  8  2  0
  5  8  1  0
  8  9  1  0
 10 12  1  0
 11 12  2  0
 13 15  2  0
 14 15  2  0
  3 16  1  0
 10 17  1  0
 16 17  1  0
 18 19  2  0
  3 20  1  0
 19 20  1  0
  1 21  1  0
 20 21  2  0
 21 22  1  0
 18 23  1  0
 22 23  2  0
 24 25  2  0
  9 26  1  0
 25 26  1  0
 26 27  2  0
 27 28  1  0
 24 29  1  0
 28 29  2  0
 12 30  1  0
 30 31  1  0
 31 32  1  0
 15 33  1  0
 32 33  1  0
 33 34  1  0
 30 35  1  0
 34 35  1  0
 15 37  1  0
 36 37  1  0
 37 38  2  0
 38 39  1  0
 36 40  1  0
 39 40  2  0
M  END
