x0689-x0967
     RDKit          3D

 39 41  0  0  0  0  0  0  0  0999 V2000
    7.6980    5.0000   22.3890 C   0  0  0  0  0  0  0  0  0  0  0  0
    7.8740    2.5970   22.6270 N   0  0  0  0  0  0  0  0  0  0  0  0
    6.1460    3.6920   23.6620 O   0  0  0  0  0  0  0  0  0  0  0  0
    7.1490    3.7050   22.9600 C   0  0  0  0  0  0  0  0  0  0  0  0
    8.4410   -1.0680   22.9640 N   0  0  0  0  0  0  0  0  0  0  0  0
    5.6750    0.7860   17.0740 O   0  0  0  0  0  0  0  0  0  0  0  0
    7.5330    1.2550   23.1120 C   0  0  1  0  0  0  0  0  0  0  0  0
    9.8000    0.7660   22.0200 O   0  0  0  0  0  0  0  0  0  0  0  0
    6.2400    0.7020   22.6450 C   0  0  0  0  0  0  0  0  0  0  0  0
    8.6370    0.2770   22.6810 C   0  0  0  0  0  0  0  0  0  0  0  0
    9.5560   -1.9620   22.7540 C   0  0  2  0  0  0  0  0  0  0  0  0
   10.6720   -1.1470   23.3880 C   0  0  0  0  0  0  0  0  0  0  0  0
   11.8340   -1.8060   23.7120 C   0  0  0  0  0  0  0  0  0  0  0  0
   13.4460   -2.5890   24.2810 Br  0  0  0  0  0  0  0  0  0  0  0  0
    7.6300   -3.5410   20.3570 C   0  0  0  0  0  0  0  0  0  0  0  0
    5.4590   -4.4100   19.8960 O   0  0  0  0  0  0  0  0  0  0  0  0
    6.4800   -4.4670   20.6360 C   0  0  0  0  0  0  0  0  0  0  0  0
    3.9580   -6.4350   25.9710 O   0  0  0  0  0  0  0  0  0  0  0  0
    5.6970   -4.6660   26.6520 O   0  0  0  0  0  0  0  0  0  0  0  0
    4.7080   -5.1510   25.7190 S   0  0  0  0  0  0  0  0  0  0  0  0
    9.5320   -2.2820   21.3360 C   0  0  0  0  0  0  0  0  0  0  0  0
    8.4220   -3.0960   21.6430 C   0  0  0  0  0  0  0  0  0  0  0  0
    6.1180    0.6790   21.1510 C   0  0  0  0  0  0  0  0  0  0  0  0
    6.9180   -0.2980   20.3820 C   0  0  0  0  0  0  0  0  0  0  0  0
    6.7260   -0.2240   18.9350 C   0  0  0  0  0  0  0  0  0  0  0  0
    5.8540    0.7050   18.3890 C   0  0  0  0  0  0  0  0  0  0  0  0
    5.1220    1.5990   19.1480 C   0  0  0  0  0  0  0  0  0  0  0  0
    5.2550    1.5870   20.5300 C   0  0  0  0  0  0  0  0  0  0  0  0
    6.5370   -5.3530   21.7060 N   0  0  0  0  0  0  0  0  0  0  0  0
    5.5080   -6.3360   22.0380 C   0  0  0  0  0  0  0  0  0  0  0  0
    4.6570   -5.8740   23.0410 C   0  0  0  0  0  0  0  0  0  0  0  0
    5.4240   -5.3040   24.1970 N   0  0  0  0  0  0  0  0  0  0  0  0
    6.5150   -4.3850   23.8350 C   0  0  0  0  0  0  0  0  0  0  0  0
    7.3400   -4.9470   22.8650 C   0  0  0  0  0  0  0  0  0  0  0  0
    3.9170   -2.2690   25.9630 S   0  0  0  0  0  0  0  0  0  0  0  0
    3.4430   -3.8920   25.6410 C   0  0  0  0  0  0  0  0  0  0  0  0
    2.0740   -3.9620   25.3650 C   0  0  0  0  0  0  0  0  0  0  0  0
    1.4530   -2.7290   25.4260 C   0  0  0  0  0  0  0  0  0  0  0  0
    2.3180   -1.6900   25.7420 C   0  0  0  0  0  0  0  0  0  0  0  0
  1  4  1  0
  2  4  1  0
  3  4  2  0
  2  7  1  0
  7  9  1  6
  5 10  1  0
  7 10  1  0
  8 10  2  0
  5 11  1  0
 11 12  1  6
 12 13  3  0
 13 14  1  0
 15 17  1  0
 16 17  2  0
 18 20  2  0
 19 20  2  0
 11 21  1  0
 15 22  1  0
 21 22  1  0
  9 23  1  0
 23 24  2  0
 24 25  1  0
  6 26  1  0
 25 26  2  0
 26 27  1  0
 23 28  1  0
 27 28  2  0
 17 29  1  0
 29 30  1  0
 30 31  1  0
 20 32  1  0
 31 32  1  0
 32 33  1  0
 29 34  1  0
 33 34  1  0
 20 36  1  0
 35 36  1  0
 36 37  2  0
 37 38  1  0
 35 39  1  0
 38 39  2  0
M  END
