x0689-x2776
     RDKit          3D

 49 55  0  0  0  0  0  0  0  0999 V2000
    6.7890   -1.4570   21.9810 N   0  0  0  0  0  0  0  0  0  0  0  0
    6.7330   -4.5910   20.2390 C   0  0  2  0  0  0  0  0  0  0  0  0
    4.7560   -2.9460   21.2650 O   0  0  0  0  0  0  0  0  0  0  0  0
    6.9180   -3.7600   21.4180 C   0  0  2  0  0  0  0  0  0  0  0  0
    7.6610    1.8790   22.8290 N   0  0  0  0  0  0  0  0  0  0  0  0
    8.9310    0.5880   21.3950 O   0  0  0  0  0  0  0  0  0  0  0  0
    6.0110   -2.6570   21.5490 C   0  0  0  0  0  0  0  0  0  0  0  0
   10.7150    6.5430   23.7710 O   0  0  0  0  0  0  0  0  0  0  0  0
    6.5920   -0.0060   21.5980 C   0  0  1  0  0  0  0  0  0  0  0  0
   12.3830   -2.8910   24.8250 O   0  0  0  0  0  0  0  0  0  0  0  0
    7.8450    0.8170   21.9170 C   0  0  0  0  0  0  0  0  0  0  0  0
   10.4260    1.6240   23.8740 C   0  0  0  0  0  0  0  0  0  0  0  0
   11.8270    6.5080   24.6660 C   0  0  0  0  0  0  0  0  0  0  0  0
   12.0580   -1.5550   24.4570 C   0  0  1  0  0  0  0  0  0  0  0  0
   12.9890   -1.0400   23.5850 C   0  0  0  0  0  0  0  0  0  0  0  0
   13.6350   -2.9670   25.4530 C   0  0  0  0  0  0  0  0  0  0  0  0
    5.4700   -4.4640   19.6030 O   0  0  0  0  0  0  0  0  0  0  0  0
    3.8930   -6.3940   25.9130 O   0  0  0  0  0  0  0  0  0  0  0  0
    5.5740   -4.6710   26.6670 O   0  0  0  0  0  0  0  0  0  0  0  0
    4.6250   -5.1680   25.6950 S   0  0  0  0  0  0  0  0  0  0  0  0
    6.3230    0.5180   17.7700 N   0  0  0  0  0  0  0  0  0  0  0  0
    5.2110    1.2630   17.7720 C   0  0  0  0  0  0  0  0  0  0  0  0
    4.4490    1.6500   18.8740 C   0  0  0  0  0  0  0  0  0  0  0  0
    4.9050    1.2190   20.1130 C   0  0  0  0  0  0  0  0  0  0  0  0
    6.1230    0.4030   20.2340 C   0  0  0  0  0  0  0  0  0  0  0  0
    6.7580    0.1020   18.9610 C   0  0  0  0  0  0  0  0  0  0  0  0
    9.7800    2.9480   23.5660 C   0  0  0  0  0  0  0  0  0  0  0  0
   10.5590    4.0830   23.8050 C   0  0  0  0  0  0  0  0  0  0  0  0
   10.0500    5.3580   23.5610 C   0  0  0  0  0  0  0  0  0  0  0  0
    8.7780    5.4650   23.0700 C   0  0  0  0  0  0  0  0  0  0  0  0
    7.9740    4.3480   22.8140 C   0  0  0  0  0  0  0  0  0  0  0  0
    8.4570    3.0570   23.0620 C   0  0  0  0  0  0  0  0  0  0  0  0
    9.2510   -1.9420   21.8230 C   0  0  0  0  0  0  0  0  0  0  0  0
   10.4910   -1.9390   22.4730 C   0  0  0  0  0  0  0  0  0  0  0  0
   10.6980   -1.5670   23.8000 C   0  0  0  0  0  0  0  0  0  0  0  0
    9.5710   -1.1880   24.5200 C   0  0  0  0  0  0  0  0  0  0  0  0
    8.3190   -1.1820   23.8920 C   0  0  0  0  0  0  0  0  0  0  0  0
    8.1210   -1.5410   22.5530 C   0  0  0  0  0  0  0  0  0  0  0  0
    6.7590   -5.2290   21.6020 C   0  0  1  0  0  0  0  0  0  0  0  0
    5.5350   -6.0380   22.0020 C   0  0  0  0  0  0  0  0  0  0  0  0
    4.5970   -5.3400   22.9770 C   0  0  0  0  0  0  0  0  0  0  0  0
    5.3960   -5.2330   24.1970 N   0  0  0  0  0  0  0  0  0  0  0  0
    6.6460   -4.4550   24.0580 C   0  0  0  0  0  0  0  0  0  0  0  0
    7.3940   -4.6000   22.7120 C   0  0  2  0  0  0  0  0  0  0  0  0
    3.8650   -2.2940   26.0070 S   0  0  0  0  0  0  0  0  0  0  0  0
    3.3790   -3.8960   25.6580 C   0  0  0  0  0  0  0  0  0  0  0  0
    2.0240   -3.9650   25.3880 C   0  0  0  0  0  0  0  0  0  0  0  0
    1.3920   -2.6970   25.4750 C   0  0  0  0  0  0  0  0  0  0  0  0
    2.2900   -1.7150   25.8030 C   0  0  0  0  0  0  0  0  0  0  0  0
  2  4  1  0
  1  7  1  0
  3  7  2  0
  4  7  1  1
  1  9  1  0
  5 11  1  0
  6 11  2  0
  9 11  1  6
  8 13  1  0
 10 14  1  0
 14 15  1  6
 10 16  1  0
  2 17  1  1
 18 20  2  0
 19 20  2  0
 21 22  2  0
 22 23  1  0
 23 24  2  0
  9 25  1  0
 24 25  1  0
 21 26  1  0
 25 26  2  0
 12 27  1  0
 27 28  2  0
  8 29  1  0
 28 29  1  0
 29 30  2  0
 30 31  1  0
  5 32  1  0
 27 32  1  0
 31 32  2  0
 33 34  2  0
 14 35  1  0
 34 35  1  0
 35 36  2  0
 36 37  1  0
  1 38  1  0
 33 38  1  0
 37 38  2  0
  2 39  1  0
  4 39  1  0
 39 40  1  1
 40 41  1  0
 20 42  1  0
 41 42  1  0
 42 43  1  0
  4 44  1  0
 39 44  1  0
 44 43  1  1
 20 46  1  0
 45 46  1  0
 46 47  2  0
 47 48  1  0
 45 49  1  0
 48 49  2  0
M  END
