x0689-x0387
     RDKit          3D

 32 38  0  0  0  0  0  0  0  0999 V2000
    7.2460   -3.3790   19.8320 C   0  0  0  0  0  0  0  0  0  0  0  0
    5.2100   -4.5920   19.8920 O   0  0  0  0  0  0  0  0  0  0  0  0
    6.2960   -4.3730   20.4540 C   0  0  0  0  0  0  0  0  0  0  0  0
    3.8470   -6.3980   25.6890 O   0  0  0  0  0  0  0  0  0  0  0  0
    5.6220   -4.8510   26.8660 N   0  0  0  0  0  0  0  0  0  0  0  0
    4.7060   -5.2320   25.7040 S   0  0  1  0  0  0  0  0  0  0  0  0
    9.1790   -4.4640   27.6380 O   0  0  0  0  0  0  0  0  0  0  0  0
    9.5270   -2.0430   23.6240 C   0  0  0  0  0  0  0  0  0  0  0  0
    6.8780   -4.0430   26.8270 C   0  0  1  0  0  0  0  0  0  0  0  0
    7.8670   -4.7730   27.5100 C   0  0  2  0  0  0  0  0  0  0  0  0
    6.5710   -5.0870   21.6210 N   0  0  0  0  0  0  0  0  0  0  0  0
    5.8330   -6.3050   22.0000 C   0  0  0  0  0  0  0  0  0  0  0  0
    4.8800   -6.0450   23.1620 C   0  0  0  0  0  0  0  0  0  0  0  0
    5.5900   -5.2930   24.2430 N   0  0  0  0  0  0  0  0  0  0  0  0
    6.1950   -4.0650   23.7210 C   0  0  0  0  0  0  0  0  0  0  0  0
    7.1460   -4.3610   22.7610 C   0  0  0  0  0  0  0  0  0  0  0  0
    4.0440   -2.3030   25.9770 S   0  0  0  0  0  0  0  0  0  0  0  0
    3.5170   -3.9050   25.6550 C   0  0  0  0  0  0  0  0  0  0  0  0
    2.1920   -3.9000   25.4030 C   0  0  0  0  0  0  0  0  0  0  0  0
    1.5480   -2.6670   25.4550 C   0  0  0  0  0  0  0  0  0  0  0  0
    2.4590   -1.6640   25.7680 C   0  0  0  0  0  0  0  0  0  0  0  0
    9.0150   -5.0980   26.3710 C   0  0  2  0  0  0  0  0  0  0  0  0
    7.8600   -4.3210   25.8970 C   0  0  0  0  0  0  0  0  0  0  0  0
    8.1740   -3.0600   25.3410 C   0  0  0  0  0  0  0  0  0  0  0  0
    9.5380   -2.7930   24.8790 N   0  0  0  0  0  0  0  0  0  0  0  0
   10.2530   -3.9190   24.8090 C   0  0  0  0  0  0  0  0  0  0  0  0
   10.2890   -4.7360   25.9400 C   0  0  0  0  0  0  0  0  0  0  0  0
   11.8160   -1.2720   24.1340 C   0  0  0  0  0  0  0  0  0  0  0  0
   10.9320   -1.7330   23.2180 C   0  0  0  0  0  0  0  0  0  0  0  0
   11.4830   -1.8610   21.9800 C   0  0  0  0  0  0  0  0  0  0  0  0
   13.1180   -1.3910   21.9430 S   0  0  0  0  0  0  0  0  0  0  0  0
   13.0510   -1.0240   23.6060 C   0  0  0  0  0  0  0  0  0  0  0  0
  1  3  1  0
  2  3  2  0
  4  6  2  0
  5  6  2  0
  9  5  1  6
 10  7  1  6
  9 10  1  0
  3 11  1  0
 11 12  1  0
 12 13  1  0
  6 14  1  0
 13 14  1  0
 14 15  1  0
 11 16  1  0
 15 16  1  0
  6 18  1  6
 17 18  1  0
 18 19  2  0
 19 20  1  0
 17 21  1  0
 20 21  2  0
 22  7  1  0
 10 22  1  0
  9 23  1  0
 10 23  1  0
 22 23  1  0
 23 24  1  0
  8 25  1  0
 24 25  1  0
 25 26  1  0
 22 27  1  6
 26 27  1  0
  8 29  1  0
 28 29  1  0
 29 30  2  0
 30 31  1  0
 28 32  2  0
 31 32  1  0
M  END
