x0689-x2643
     RDKit          3D

 34 37  0  0  0  0  0  0  0  0999 V2000
    7.4030   -3.5590   20.1740 C   0  0  0  0  0  0  0  0  0  0  0  0
    5.3760   -4.8410   19.9740 O   0  0  0  0  0  0  0  0  0  0  0  0
    6.4140   -4.5810   20.6250 C   0  0  0  0  0  0  0  0  0  0  0  0
    3.8860   -6.3760   26.0030 O   0  0  0  0  0  0  0  0  0  0  0  0
    5.5940   -4.6460   26.6930 O   0  0  0  0  0  0  0  0  0  0  0  0
    4.6130   -5.1520   25.7570 S   0  0  0  0  0  0  0  0  0  0  0  0
    6.6710   -1.0490   20.5370 N   0  0  0  0  0  0  0  0  0  0  0  0
    8.4370    0.3650   21.1790 O   0  0  0  0  0  0  0  0  0  0  0  0
   13.3910    0.2200   23.0260 Cl  0  0  0  0  0  0  0  0  0  0  0  0
    8.3850   -1.6280   22.4050 C   0  0  0  0  0  0  0  0  0  0  0  0
    7.8540   -0.7210   21.3540 C   0  0  0  0  0  0  0  0  0  0  0  0
    6.7420   -2.2540   19.7090 C   0  0  0  0  0  0  0  0  0  0  0  0
    6.6400   -5.2790   21.8040 N   0  0  0  0  0  0  0  0  0  0  0  0
    5.6800   -6.3430   22.0840 C   0  0  0  0  0  0  0  0  0  0  0  0
    4.6580   -5.9310   23.1370 C   0  0  0  0  0  0  0  0  0  0  0  0
    5.3490   -5.2480   24.2560 N   0  0  0  0  0  0  0  0  0  0  0  0
    6.3490   -4.2180   23.8880 C   0  0  0  0  0  0  0  0  0  0  0  0
    7.2760   -4.7230   23.0220 C   0  0  0  0  0  0  0  0  0  0  0  0
    3.8540   -2.2510   26.0150 S   0  0  0  0  0  0  0  0  0  0  0  0
    3.3780   -3.8680   25.6880 C   0  0  0  0  0  0  0  0  0  0  0  0
    2.0610   -3.9010   25.4160 C   0  0  0  0  0  0  0  0  0  0  0  0
    1.3860   -2.6850   25.4560 C   0  0  0  0  0  0  0  0  0  0  0  0
    2.2610   -1.6520   25.7810 C   0  0  0  0  0  0  0  0  0  0  0  0
   11.7600   -0.0420   23.2190 C   0  0  0  0  0  0  0  0  0  0  0  0
   10.8460    0.6220   24.1250 C   0  0  0  0  0  0  0  0  0  0  0  0
    9.5520    0.1010   23.9360 C   0  0  0  0  0  0  0  0  0  0  0  0
    9.5370   -0.8810   22.9370 C   0  0  0  0  0  0  0  0  0  0  0  0
   11.0660   -1.2050   22.2500 S   0  0  0  0  0  0  0  0  0  0  0  0
    6.2880    0.9890   17.6010 N   0  0  0  0  0  0  0  0  0  0  0  0
    6.7180    0.1380   18.5410 C   0  0  0  0  0  0  0  0  0  0  0  0
    6.0710   -0.1050   19.6990 C   0  0  0  0  0  0  0  0  0  0  0  0
    4.8870    0.5340   20.0050 C   0  0  0  0  0  0  0  0  0  0  0  0
    4.4170    1.4200   19.0560 C   0  0  0  0  0  0  0  0  0  0  0  0
    5.1330    1.6210   17.8780 C   0  0  0  0  0  0  0  0  0  0  0  0
  1  3  1  0
  2  3  2  0
  4  6  2  0
  5  6  2  0
  7 11  1  0
  8 11  2  0
 10 11  1  0
  1 12  1  0
  7 12  1  0
  3 13  1  0
 13 14  1  0
 14 15  1  0
  6 16  1  0
 15 16  1  0
 16 17  1  0
 13 18  1  0
 17 18  1  0
  6 20  1  0
 19 20  1  0
 20 21  2  0
 21 22  1  0
 19 23  1  0
 22 23  2  0
  9 24  1  0
 24 25  2  0
 25 26  1  0
 10 27  1  0
 26 27  2  0
 24 28  1  0
 27 28  1  0
 29 30  2  0
  7 31  1  0
 30 31  1  0
 31 32  2  0
 32 33  1  0
 29 34  1  0
 33 34  2  0
M  END
