x0689-x2964
     RDKit          3D

 37 40  0  0  0  0  0  0  0  0999 V2000
    7.2020   -3.3600   19.8400 C   0  0  0  0  0  0  0  0  0  0  0  0
    5.2500   -4.7040   19.9180 O   0  0  0  0  0  0  0  0  0  0  0  0
    6.3090   -4.3910   20.4910 C   0  0  0  0  0  0  0  0  0  0  0  0
    3.9240   -6.3920   25.9210 O   0  0  0  0  0  0  0  0  0  0  0  0
    5.6210   -4.6880   26.7020 O   0  0  0  0  0  0  0  0  0  0  0  0
    4.6570   -5.1580   25.7330 S   0  0  0  0  0  0  0  0  0  0  0  0
    3.2500    2.1320   19.1540 N   0  0  0  0  0  0  0  0  0  0  0  0
    8.7220    1.4780   21.1690 O   0  0  0  0  0  0  0  0  0  0  0  0
   13.1880   -2.3190   21.3190 Cl  0  0  0  0  0  0  0  0  0  0  0  0
    7.0630   -0.2370   21.1810 N   0  0  0  0  0  0  0  0  0  0  0  0
    8.8880   -0.2320   22.6830 N   0  0  0  0  0  0  0  0  0  0  0  0
    8.2750    0.4240   21.6570 C   0  0  0  0  0  0  0  0  0  0  0  0
    7.8440   -2.4440   20.9060 C   0  0  0  0  0  0  0  0  0  0  0  0
    6.8540   -1.5610   21.5350 C   0  0  0  0  0  0  0  0  0  0  0  0
    6.6020   -5.0400   21.7100 N   0  0  0  0  0  0  0  0  0  0  0  0
    5.7440   -6.2020   21.9720 C   0  0  0  0  0  0  0  0  0  0  0  0
    4.7430   -5.9050   23.0870 C   0  0  0  0  0  0  0  0  0  0  0  0
    5.4530   -5.2630   24.2330 N   0  0  0  0  0  0  0  0  0  0  0  0
    6.2860   -4.0900   23.8300 C   0  0  0  0  0  0  0  0  0  0  0  0
    7.2380   -4.4910   22.9310 C   0  0  0  0  0  0  0  0  0  0  0  0
    3.8990   -2.2750   25.9550 S   0  0  0  0  0  0  0  0  0  0  0  0
    3.4110   -3.8940   25.6590 C   0  0  0  0  0  0  0  0  0  0  0  0
    2.0930   -3.9360   25.4140 C   0  0  0  0  0  0  0  0  0  0  0  0
    1.4130   -2.7180   25.4520 C   0  0  0  0  0  0  0  0  0  0  0  0
    2.3000   -1.6850   25.7450 C   0  0  0  0  0  0  0  0  0  0  0  0
    4.5170    1.4450   19.0440 C   0  0  0  0  0  0  0  0  0  0  0  0
    5.1590    0.9240   20.2420 C   0  0  0  0  0  0  0  0  0  0  0  0
    6.3650    0.2770   20.0720 C   0  0  0  0  0  0  0  0  0  0  0  0
    6.8890    0.1460   18.8000 C   0  0  0  0  0  0  0  0  0  0  0  0
    6.3290    0.6210   17.6850 N   0  0  0  0  0  0  0  0  0  0  0  0
    5.1630    1.2580   17.8420 C   0  0  0  0  0  0  0  0  0  0  0  0
   10.8770    0.7600   23.5040 C   0  0  0  0  0  0  0  0  0  0  0  0
   12.2480    0.8140   23.5860 C   0  0  0  0  0  0  0  0  0  0  0  0
   12.9880   -0.1310   22.9190 C   0  0  0  0  0  0  0  0  0  0  0  0
   12.3660   -1.1260   22.1760 C   0  0  0  0  0  0  0  0  0  0  0  0
   11.0130   -1.1740   22.1010 C   0  0  0  0  0  0  0  0  0  0  0  0
   10.2620   -0.2380   22.7540 C   0  0  0  0  0  0  0  0  0  0  0  0
  1  3  1  0
  2  3  2  0
  4  6  2  0
  5  6  2  0
  8 12  2  0
 10 12  1  0
 11 12  1  0
  1 13  1  0
 10 14  1  0
 13 14  1  0
  3 15  1  0
 15 16  1  0
 16 17  1  0
  6 18  1  0
 17 18  1  0
 18 19  1  0
 15 20  1  0
 19 20  1  0
  6 22  1  0
 21 22  1  0
 22 23  2  0
 23 24  1  0
 21 25  1  0
 24 25  2  0
  7 26  1  0
 26 27  2  0
 10 28  1  0
 27 28  1  0
 28 29  2  0
 29 30  1  0
 26 31  1  0
 30 31  2  0
 32 33  2  0
 33 34  1  0
  9 35  1  0
 34 35  2  0
 35 36  1  0
 11 37  1  0
 32 37  1  0
 36 37  2  0
M  END
