x0689-x0771-x2705-x2649
     RDKit          3D

 52 58  0  0  0  0  0  0  0  0999 V2000
    6.8430   -1.4280   21.8950 N   0  0  0  0  0  0  0  0  0  0  0  0
    6.8160   -4.5100   20.3350 C   0  0  2  0  0  0  0  0  0  0  0  0
    4.7820   -2.9800   21.3080 O   0  0  0  0  0  0  0  0  0  0  0  0
    6.9490   -3.7190   21.4930 C   0  0  2  0  0  0  0  0  0  0  0  0
    7.4660    2.0580   23.0290 N   0  0  0  0  0  0  0  0  0  0  0  0
    8.7220    1.2810   21.0500 O   0  0  0  0  0  0  0  0  0  0  0  0
    6.0580   -2.6390   21.5650 C   0  0  0  0  0  0  0  0  0  0  0  0
    6.5010   -0.0360   21.5320 C   0  0  1  0  0  0  0  0  0  0  0  0
    7.5870    1.0980   21.9130 C   0  0  0  0  0  0  0  0  0  0  0  0
   10.1710    2.0900   24.0190 C   0  0  0  0  0  0  0  0  0  0  0  0
    9.2850    1.2880   24.9680 C   0  0  0  0  0  0  0  0  0  0  0  0
    6.1430    4.5750   22.0230 C   0  0  0  0  0  0  0  0  0  0  0  0
   11.9380   -1.5540   23.2370 C   0  0  0  0  0  0  0  0  0  0  0  0
   12.4400   -0.1490   23.6510 C   0  0  0  0  0  0  0  0  0  0  0  0
   12.4860   -2.5460   24.2930 C   0  0  0  0  0  0  0  0  0  0  0  0
   12.5740   -1.8900   21.9460 C   0  0  0  0  0  0  0  0  0  0  0  0
    5.5730   -4.4450   19.6340 O   0  0  0  0  0  0  0  0  0  0  0  0
    0.6560   -1.3940   26.0490 C   0  0  0  0  0  0  0  0  0  0  0  0
    4.5070   -6.8910   25.9130 O   0  0  0  0  0  0  0  0  0  0  0  0
    6.0860   -5.1560   26.7350 O   0  0  0  0  0  0  0  0  0  0  0  0
    2.0460   -6.1390   24.9460 C   0  0  0  0  0  0  0  0  0  0  0  0
    5.0950   -5.5830   25.7860 S   0  0  0  0  0  0  0  0  0  0  0  0
    4.0790    1.4220   21.5180 C   0  0  0  0  0  0  0  0  0  0  0  0
    6.3330    0.4310   17.8190 N   0  0  0  0  0  0  0  0  0  0  0  0
    5.2300    1.1450   17.7350 C   0  0  0  0  0  0  0  0  0  0  0  0
    4.4230    1.5090   18.8890 C   0  0  0  0  0  0  0  0  0  0  0  0
    4.8540    1.0740   20.2810 C   0  0  0  0  0  0  0  0  0  0  0  0
    6.0180    0.3590   20.1880 C   0  0  0  0  0  0  0  0  0  0  0  0
    6.7690    0.0080   19.0400 C   0  0  0  0  0  0  0  0  0  0  0  0
    9.6820   -1.5990   24.2640 N   0  0  0  0  0  0  0  0  0  0  0  0
    8.3820   -1.5710   23.9090 N   0  0  0  0  0  0  0  0  0  0  0  0
    8.1510   -1.4990   22.5620 C   0  0  0  0  0  0  0  0  0  0  0  0
    9.5020   -1.4890   22.0430 C   0  0  0  0  0  0  0  0  0  0  0  0
   10.3930   -1.5470   23.1330 C   0  0  0  0  0  0  0  0  0  0  0  0
    9.4720    3.3410   23.5340 C   0  0  0  0  0  0  0  0  0  0  0  0
   10.1730    4.5430   23.5780 C   0  0  0  0  0  0  0  0  0  0  0  0
    9.5830    5.7190   23.1350 C   0  0  0  0  0  0  0  0  0  0  0  0
    8.2680    5.7160   22.6300 C   0  0  0  0  0  0  0  0  0  0  0  0
    7.5360    4.4960   22.5800 C   0  0  0  0  0  0  0  0  0  0  0  0
    8.1480    3.3070   23.0420 C   0  0  0  0  0  0  0  0  0  0  0  0
    1.7160   -2.4590   25.9590 C   0  0  0  0  0  0  0  0  0  0  0  0
    1.4010   -3.7550   25.5070 C   0  0  0  0  0  0  0  0  0  0  0  0
    2.4070   -4.7410   25.4350 C   0  0  0  0  0  0  0  0  0  0  0  0
    3.7350   -4.4220   25.8200 C   0  0  0  0  0  0  0  0  0  0  0  0
    4.0450   -3.1340   26.2640 C   0  0  0  0  0  0  0  0  0  0  0  0
    3.0340   -2.1860   26.3230 C   0  0  0  0  0  0  0  0  0  0  0  0
    6.8260   -5.2950   21.5710 C   0  0  1  0  0  0  0  0  0  0  0  0
    5.7100   -6.2590   21.9310 C   0  0  0  0  0  0  0  0  0  0  0  0
    4.8620   -5.7980   23.0970 C   0  0  0  0  0  0  0  0  0  0  0  0
    5.7680   -5.4830   24.2280 N   0  0  0  0  0  0  0  0  0  0  0  0
    6.5690   -4.2640   23.9420 C   0  0  0  0  0  0  0  0  0  0  0  0
    7.3720   -4.4710   22.6760 C   0  0  2  0  0  0  0  0  0  0  0  0
  2  4  1  0
  1  7  1  0
  3  7  2  0
  4  7  1  1
  1  8  1  0
  5  9  1  0
  6  9  2  0
  8  9  1  6
 10 11  1  0
 13 14  1  0
 13 15  1  0
 13 16  1  0
  2 17  1  1
 19 22  2  0
 20 22  2  0
 24 25  2  0
 25 26  1  0
 23 27  1  0
 26 27  2  0
  8 28  1  0
 27 28  1  0
 24 29  1  0
 28 29  2  0
 30 31  1  0
  1 32  1  0
 31 32  1  0
 32 33  2  0
 13 34  1  0
 30 34  2  0
 33 34  1  0
 10 35  1  0
 35 36  2  0
 36 37  1  0
 37 38  2  0
 12 39  1  0
 38 39  1  0
  5 40  1  0
 35 40  1  0
 39 40  2  0
 18 41  1  0
 41 42  2  0
 21 43  1  0
 42 43  1  0
 22 44  1  0
 43 44  2  0
 44 45  1  0
 41 46  1  0
 45 46  2  0
  2 47  1  0
  4 47  1  0
 47 48  1  1
 48 49  1  0
 22 50  1  0
 49 50  1  0
 50 51  1  0
  4 52  1  0
 47 52  1  0
 52 51  1  1
M  END
