x0689-x0771-x2705-x2572
     RDKit          3D

 53 59  0  0  0  0  0  0  0  0999 V2000
    6.9060   -1.4140   21.9480 N   0  0  0  0  0  0  0  0  0  0  0  0
    6.7200   -4.5410   20.2680 C   0  0  2  0  0  0  0  0  0  0  0  0
    4.7560   -2.9450   21.3250 O   0  0  0  0  0  0  0  0  0  0  0  0
    6.8040   -3.7670   21.4720 C   0  0  2  0  0  0  0  0  0  0  0  0
    7.5840    2.0300   22.8710 N   0  0  0  0  0  0  0  0  0  0  0  0
    8.6830    1.2520   21.1150 O   0  0  0  0  0  0  0  0  0  0  0  0
    6.0520   -2.6220   21.5900 C   0  0  0  0  0  0  0  0  0  0  0  0
    6.5800    0.0230   21.5890 C   0  0  1  0  0  0  0  0  0  0  0  0
    7.6880    1.1100   21.8540 C   0  0  0  0  0  0  0  0  0  0  0  0
   10.2040    2.0990   23.9760 C   0  0  0  0  0  0  0  0  0  0  0  0
    9.3310    1.2650   24.9080 C   0  0  0  0  0  0  0  0  0  0  0  0
    6.1940    4.5350   21.9050 C   0  0  0  0  0  0  0  0  0  0  0  0
   11.9960   -1.5580   23.3220 C   0  0  0  0  0  0  0  0  0  0  0  0
   12.5170   -0.2180   23.8830 C   0  0  0  0  0  0  0  0  0  0  0  0
   12.5140   -2.6360   24.2960 C   0  0  0  0  0  0  0  0  0  0  0  0
   12.6670   -1.7740   22.0120 C   0  0  0  0  0  0  0  0  0  0  0  0
    5.4940   -4.4050   19.5660 O   0  0  0  0  0  0  0  0  0  0  0  0
    0.5970   -1.3640   26.1060 C   0  0  0  0  0  0  0  0  0  0  0  0
    4.5030   -6.9030   25.7230 O   0  0  0  0  0  0  0  0  0  0  0  0
    5.9600   -5.1070   26.7020 O   0  0  0  0  0  0  0  0  0  0  0  0
    1.9160   -6.0700   24.9300 C   0  0  0  0  0  0  0  0  0  0  0  0
    4.9910   -5.5440   25.7290 S   0  0  0  0  0  0  0  0  0  0  0  0
    3.8620    1.4160   21.2240 C   0  0  0  0  0  0  0  0  0  0  0  0
   13.2530   -1.9270   21.0160 N   0  0  0  0  0  0  0  0  0  0  0  0
    6.3350    0.3500   17.8820 N   0  0  0  0  0  0  0  0  0  0  0  0
    5.1650    0.9830   17.7820 C   0  0  0  0  0  0  0  0  0  0  0  0
    4.3640    1.3220   18.8310 C   0  0  0  0  0  0  0  0  0  0  0  0
    4.7740    1.0110   20.1120 C   0  0  0  0  0  0  0  0  0  0  0  0
    5.9860    0.3690   20.2720 C   0  0  0  0  0  0  0  0  0  0  0  0
    6.7260    0.0530   19.1270 C   0  0  0  0  0  0  0  0  0  0  0  0
    9.7160   -1.5740   24.3270 N   0  0  0  0  0  0  0  0  0  0  0  0
    8.4240   -1.5400   23.9360 N   0  0  0  0  0  0  0  0  0  0  0  0
    8.2240   -1.4870   22.5740 C   0  0  0  0  0  0  0  0  0  0  0  0
    9.5480   -1.4970   22.0790 C   0  0  0  0  0  0  0  0  0  0  0  0
   10.4450   -1.5450   23.2120 C   0  0  0  0  0  0  0  0  0  0  0  0
    9.4950    3.3480   23.5130 C   0  0  0  0  0  0  0  0  0  0  0  0
   10.1480    4.5910   23.6350 C   0  0  0  0  0  0  0  0  0  0  0  0
    9.5300    5.7650   23.2090 C   0  0  0  0  0  0  0  0  0  0  0  0
    8.2510    5.7120   22.6540 C   0  0  0  0  0  0  0  0  0  0  0  0
    7.5700    4.4830   22.5210 C   0  0  0  0  0  0  0  0  0  0  0  0
    8.2010    3.2970   22.9610 C   0  0  0  0  0  0  0  0  0  0  0  0
    1.6430   -2.4290   25.9960 C   0  0  0  0  0  0  0  0  0  0  0  0
    1.3360   -3.7160   25.5360 C   0  0  0  0  0  0  0  0  0  0  0  0
    2.3250   -4.7150   25.4350 C   0  0  0  0  0  0  0  0  0  0  0  0
    3.6430   -4.3910   25.8080 C   0  0  0  0  0  0  0  0  0  0  0  0
    3.9630   -3.1050   26.2690 C   0  0  0  0  0  0  0  0  0  0  0  0
    2.9600   -2.1570   26.3520 C   0  0  0  0  0  0  0  0  0  0  0  0
    6.6230   -5.2450   21.5640 C   0  0  1  0  0  0  0  0  0  0  0  0
    5.9320   -6.4270   22.0020 C   0  0  0  0  0  0  0  0  0  0  0  0
    4.9150   -6.0430   23.0840 C   0  0  0  0  0  0  0  0  0  0  0  0
    5.5710   -5.2170   24.1530 N   0  0  0  0  0  0  0  0  0  0  0  0
    7.0370   -4.9090   23.9660 C   0  0  0  0  0  0  0  0  0  0  0  0
    7.4350   -4.5170   22.5780 C   0  0  2  0  0  0  0  0  0  0  0  0
  2  4  1  0
  1  7  1  0
  3  7  2  0
  4  7  1  6
  1  8  1  0
  5  9  1  0
  6  9  2  0
  8  9  1  6
 10 11  1  0
 13 14  1  0
 13 15  1  0
 13 16  1  0
  2 17  1  6
 19 22  2  0
 20 22  2  0
 16 24  3  0
 25 26  2  0
 26 27  1  0
 23 28  1  0
 27 28  2  0
  8 29  1  0
 28 29  1  0
 25 30  1  0
 29 30  2  0
 31 32  1  0
  1 33  1  0
 32 33  1  0
 33 34  2  0
 13 35  1  0
 31 35  2  0
 34 35  1  0
 10 36  1  0
 36 37  2  0
 37 38  1  0
 38 39  2  0
 12 40  1  0
 39 40  1  0
  5 41  1  0
 36 41  1  0
 40 41  2  0
 18 42  1  0
 42 43  2  0
 21 44  1  0
 43 44  1  0
 22 45  1  0
 44 45  2  0
 45 46  1  0
 42 47  1  0
 46 47  2  0
  2 48  1  0
  4 48  1  0
 48 49  1  6
 49 50  1  0
 22 51  1  0
 50 51  1  0
 51 52  1  0
  4 53  1  0
 48 53  1  0
 53 52  1  1
M  END
