x0689-x0305
     RDKit          3D

 31 33  0  0  0  0  0  0  0  0999 V2000
    7.2750   -3.3850   19.8340 C   0  0  0  0  0  0  0  0  0  0  0  0
    5.2000   -4.5410   19.8800 O   0  0  0  0  0  0  0  0  0  0  0  0
    6.3060   -4.3750   20.4260 C   0  0  0  0  0  0  0  0  0  0  0  0
    4.0690   -6.3250   25.8460 O   0  0  0  0  0  0  0  0  0  0  0  0
    5.7620   -4.4470   26.6900 N   0  0  0  0  0  0  0  0  0  0  0  0
    4.8110   -5.0890   25.6940 S   0  0  1  0  0  0  0  0  0  0  0  0
    8.3930   -0.3030   27.6320 C   0  0  0  0  0  0  0  0  0  0  0  0
    8.4460   -0.4810   26.1560 C   0  0  1  0  0  0  0  0  0  0  0  0
    9.7210    0.1070   25.6350 N   0  0  0  0  0  0  0  0  0  0  0  0
   13.0290   -1.4910   21.5670 C   0  0  0  0  0  0  0  0  0  0  0  0
   13.6890   -1.7510   20.6900 N   0  0  0  0  0  0  0  0  0  0  0  0
    7.1090   -4.0400   26.2350 C   0  0  0  0  0  0  0  0  0  0  0  0
    7.4050   -2.6110   26.7060 C   0  0  0  0  0  0  0  0  0  0  0  0
    8.1870   -1.9420   25.7480 C   0  0  0  0  0  0  0  0  0  0  0  0
    6.6020   -5.1330   21.5710 N   0  0  0  0  0  0  0  0  0  0  0  0
    5.7420   -6.2260   22.0550 C   0  0  0  0  0  0  0  0  0  0  0  0
    4.8400   -5.7810   23.0290 C   0  0  0  0  0  0  0  0  0  0  0  0
    5.5640   -5.1550   24.1550 N   0  0  0  0  0  0  0  0  0  0  0  0
    6.4940   -4.2460   23.7530 C   0  0  0  0  0  0  0  0  0  0  0  0
    7.3410   -4.4920   22.6560 C   0  0  0  0  0  0  0  0  0  0  0  0
    3.9750   -2.2470   26.0340 S   0  0  0  0  0  0  0  0  0  0  0  0
    3.5160   -3.8650   25.6590 C   0  0  0  0  0  0  0  0  0  0  0  0
    2.0700   -4.0010   25.3600 C   0  0  0  0  0  0  0  0  0  0  0  0
    1.3950   -2.7130   25.4680 C   0  0  0  0  0  0  0  0  0  0  0  0
    2.1810   -1.6320   25.8120 C   0  0  0  0  0  0  0  0  0  0  0  0
   10.5100   -0.4090   24.5240 C   0  0  0  0  0  0  0  0  0  0  0  0
   11.6380    0.3100   24.2740 N   0  0  0  0  0  0  0  0  0  0  0  0
   12.5460    0.0240   23.3000 C   0  0  0  0  0  0  0  0  0  0  0  0
   12.1740   -1.0980   22.5900 C   0  0  0  0  0  0  0  0  0  0  0  0
   11.0450   -1.8590   22.7930 C   0  0  0  0  0  0  0  0  0  0  0  0
   10.1820   -1.5190   23.7800 C   0  0  0  0  0  0  0  0  0  0  0  0
  1  3  1  0
  2  3  2  0
  4  6  2  0
  5  6  2  0
  8  7  1  1
  8  9  1  0
 10 11  3  0
  5 12  1  0
 12 13  1  0
  8 14  1  0
 13 14  1  0
  3 15  1  0
 15 16  1  0
 16 17  1  0
  6 18  1  0
 17 18  1  0
 18 19  1  0
 15 20  1  0
 19 20  1  0
  6 22  1  6
 21 22  1  0
 22 23  2  0
 23 24  1  0
 21 25  1  0
 24 25  2  0
  9 26  1  0
 26 27  2  0
 27 28  1  0
 10 29  1  0
 28 29  2  0
 29 30  1  0
 26 31  1  0
 30 31  2  0
M  END
