x0689-x2649
     RDKit          3D

 37 40  0  0  0  0  0  0  0  0999 V2000
    6.9720   -3.3160   19.8850 C   0  0  0  0  0  0  0  0  0  0  0  0
    5.1260   -4.7430   19.9080 O   0  0  0  0  0  0  0  0  0  0  0  0
    6.1490   -4.4090   20.5020 C   0  0  0  0  0  0  0  0  0  0  0  0
    3.9370   -6.3490   25.8990 O   0  0  0  0  0  0  0  0  0  0  0  0
    5.6330   -4.6280   26.6360 O   0  0  0  0  0  0  0  0  0  0  0  0
    4.6660   -5.1160   25.6800 S   0  0  0  0  0  0  0  0  0  0  0  0
    7.2440   -0.8010   20.9240 N   0  0  0  0  0  0  0  0  0  0  0  0
    8.0320   -1.1080   23.8900 C   0  0  0  0  0  0  0  0  0  0  0  0
    8.4790    0.8560   21.2470 O   0  0  0  0  0  0  0  0  0  0  0  0
   13.2110   -2.7300   21.1480 Cl  0  0  0  0  0  0  0  0  0  0  0  0
    8.6980   -1.1210   22.5670 C   0  0  1  0  0  0  0  0  0  0  0  0
    8.0950   -0.2890   21.5040 C   0  0  0  0  0  0  0  0  0  0  0  0
    5.0000    0.9140   21.7060 C   0  0  0  0  0  0  0  0  0  0  0  0
    7.2940   -2.3250   21.0250 C   0  0  0  0  0  0  0  0  0  0  0  0
    6.4590   -5.1130   21.6860 N   0  0  0  0  0  0  0  0  0  0  0  0
    5.6680   -6.2820   22.1050 C   0  0  0  0  0  0  0  0  0  0  0  0
    4.7650   -5.9870   23.1060 C   0  0  0  0  0  0  0  0  0  0  0  0
    5.4380   -5.1990   24.1660 N   0  0  0  0  0  0  0  0  0  0  0  0
    6.2020   -4.1670   23.7650 C   0  0  0  0  0  0  0  0  0  0  0  0
    7.1220   -4.4610   22.8280 C   0  0  0  0  0  0  0  0  0  0  0  0
    3.9000   -2.2370   25.9670 S   0  0  0  0  0  0  0  0  0  0  0  0
    3.3970   -3.8730   25.6230 C   0  0  0  0  0  0  0  0  0  0  0  0
    2.0200   -3.9640   25.3520 C   0  0  0  0  0  0  0  0  0  0  0  0
    1.3600   -2.6780   25.4280 C   0  0  0  0  0  0  0  0  0  0  0  0
    2.3090   -1.6500   25.7610 C   0  0  0  0  0  0  0  0  0  0  0  0
    6.2450    0.4920   17.6470 N   0  0  0  0  0  0  0  0  0  0  0  0
    5.2270    1.2810   17.9980 C   0  0  0  0  0  0  0  0  0  0  0  0
    4.8140    1.4240   19.2870 C   0  0  0  0  0  0  0  0  0  0  0  0
    5.4660    0.7350   20.2980 C   0  0  0  0  0  0  0  0  0  0  0  0
    6.5190   -0.0760   19.9310 C   0  0  0  0  0  0  0  0  0  0  0  0
    6.9360   -0.2250   18.6130 C   0  0  0  0  0  0  0  0  0  0  0  0
   10.6980    0.2940   23.1910 C   0  0  0  0  0  0  0  0  0  0  0  0
   12.0870    0.4960   23.1670 C   0  0  0  0  0  0  0  0  0  0  0  0
   12.8940   -0.4350   22.5460 C   0  0  0  0  0  0  0  0  0  0  0  0
   12.3240   -1.5540   21.9490 C   0  0  0  0  0  0  0  0  0  0  0  0
   10.9770   -1.7510   21.9780 C   0  0  0  0  0  0  0  0  0  0  0  0
   10.1610   -0.8480   22.5870 C   0  0  0  0  0  0  0  0  0  0  0  0
  1  3  1  0
  2  3  2  0
  4  6  2  0
  5  6  2  0
 11  8  1  1
  7 12  1  0
  9 12  2  0
 11 12  1  0
  1 14  1  0
  7 14  1  0
  3 15  1  0
 15 16  1  0
 16 17  1  0
  6 18  1  0
 17 18  1  0
 18 19  1  0
 15 20  1  0
 19 20  1  0
  6 22  1  0
 21 22  1  0
 22 23  2  0
 23 24  1  0
 21 25  1  0
 24 25  2  0
 26 27  2  0
 27 28  1  0
 13 29  1  0
 28 29  2  0
  7 30  1  0
 29 30  1  0
 26 31  1  0
 30 31  2  0
 32 33  2  0
 33 34  1  0
 10 35  1  0
 34 35  2  0
 35 36  1  0
 11 37  1  0
 32 37  1  0
 36 37  2  0
M  END
