x0689-x0991
     RDKit          3D

 22 23  0  0  0  0  0  0  0  0999 V2000
    7.8870   -3.7420   20.4950 C   0  0  0  0  0  0  0  0  0  0  0  0
    5.6590   -4.5350   19.9670 O   0  0  0  0  0  0  0  0  0  0  0  0
    6.6680   -4.5730   20.7560 C   0  0  0  0  0  0  0  0  0  0  0  0
    3.6820   -6.2960   25.7880 O   0  0  0  0  0  0  0  0  0  0  0  0
    5.4690   -4.6200   26.4370 O   0  0  0  0  0  0  0  0  0  0  0  0
    4.3910   -5.0510   25.5750 S   0  0  0  0  0  0  0  0  0  0  0  0
    9.8290   -5.8440   24.7030 N   0  0  0  0  0  0  0  0  0  0  0  0
    8.6090   -3.1360   23.3280 C   0  0  0  0  0  0  0  0  0  0  0  0
    8.3560   -4.5840   23.5450 C   0  0  1  0  0  0  0  0  0  0  0  0
    8.4280   -4.7900   26.0690 N   0  0  0  0  0  0  0  0  0  0  0  0
    8.9400   -5.1270   24.8150 C   0  0  0  0  0  0  0  0  0  0  0  0
    6.6590   -5.4210   21.8810 N   0  0  0  0  0  0  0  0  0  0  0  0
    5.6130   -6.4170   22.0180 C   0  0  0  0  0  0  0  0  0  0  0  0
    4.5400   -6.1050   23.0770 C   0  0  0  0  0  0  0  0  0  0  0  0
    4.8970   -4.9740   23.9770 N   0  0  0  0  0  0  0  0  0  0  0  0
    6.0800   -4.1470   23.6710 C   0  0  0  0  0  0  0  0  0  0  0  0
    7.0530   -4.9790   23.2690 C   0  0  2  0  0  0  0  0  0  0  0  0
    3.7200   -2.1920   26.0160 S   0  0  0  0  0  0  0  0  0  0  0  0
    3.1760   -3.7750   25.6480 C   0  0  0  0  0  0  0  0  0  0  0  0
    1.8500   -3.7770   25.4600 C   0  0  0  0  0  0  0  0  0  0  0  0
    1.2060   -2.5490   25.5950 C   0  0  0  0  0  0  0  0  0  0  0  0
    2.1280   -1.5560   25.9080 C   0  0  0  0  0  0  0  0  0  0  0  0
  1  3  1  0
  2  3  2  0
  4  6  2  0
  5  6  2  0
  9  8  1  1
  7 11  2  3
  9 11  1  0
 10 11  1  0
  3 12  1  0
 12 13  1  0
 13 14  1  0
  6 15  1  0
 14 15  1  0
 15 16  1  0
  9 17  1  0
 12 17  1  0
 17 16  1  6
  6 19  1  0
 18 19  1  0
 19 20  2  0
 20 21  1  0
 18 22  1  0
 21 22  2  0
M  END
