x0691-x0398
     RDKit          3D

 19 20  0  0  0  0  0  0  0  0999 V2000
    3.9380   -7.0440   25.9450 O   0  0  0  0  0  0  0  0  0  0  0  0
    5.7340   -5.2230   26.7570 O   0  0  0  0  0  0  0  0  0  0  0  0
    5.4530   -4.4200   19.8740 O   0  0  0  0  0  0  0  0  0  0  0  0
    6.2510   -4.1850   20.7900 C   0  0  0  0  0  0  0  0  0  0  0  0
    7.0510   -2.8720   20.7800 C   0  0  0  0  0  0  0  0  0  0  0  0
    3.2210   -0.5290   25.9240 F   0  0  0  0  0  0  0  0  0  0  0  0
    4.7290   -5.6190   25.7950 S   0  0  0  0  0  0  0  0  0  0  0  0
    2.8900   -1.8230   25.8490 C   0  0  0  0  0  0  0  0  0  0  0  0
    3.9520   -2.8710   25.8580 C   0  0  0  0  0  0  0  0  0  0  0  0
    3.5190   -4.3240   25.7700 C   0  0  0  0  0  0  0  0  0  0  0  0
    2.1200   -4.6170   25.6780 C   0  0  0  0  0  0  0  0  0  0  0  0
    1.1670   -3.5520   25.6770 C   0  0  0  0  0  0  0  0  0  0  0  0
    1.5380   -2.1970   25.7620 C   0  0  0  0  0  0  0  0  0  0  0  0
    6.4800   -5.0760   21.8490 N   0  0  0  0  0  0  0  0  0  0  0  0
    5.6610   -6.2280   22.0720 C   0  0  0  0  0  0  0  0  0  0  0  0
    4.7180   -5.9720   23.0720 C   0  0  0  0  0  0  0  0  0  0  0  0
    5.4900   -5.5700   24.3020 N   0  0  0  0  0  0  0  0  0  0  0  0
    6.3480   -4.3680   24.0550 C   0  0  0  0  0  0  0  0  0  0  0  0
    7.2440   -4.7070   23.0500 C   0  0  0  0  0  0  0  0  0  0  0  0
  3  4  2  0
  4  5  1  0
  1  7  2  0
  2  7  2  0
  6  8  1  0
  8  9  2  0
  7 10  1  0
  9 10  1  0
 10 11  2  0
 11 12  1  0
  8 13  1  0
 12 13  2  0
  4 14  1  0
 14 15  1  0
 15 16  1  0
  7 17  1  0
 16 17  1  0
 17 18  1  0
 14 19  1  0
 18 19  1  0
M  END
