x0692-x0981
     RDKit          3D

 31 32  0  0  0  0  0  0  0  0999 V2000
    1.1630   -8.7270   21.2850 C   0  0  0  0  0  0  0  0  0  0  0  0
    2.5050   -7.3370   22.7370 N   0  0  0  0  0  0  0  0  0  0  0  0
    0.4020   -6.6330   22.1760 O   0  0  0  0  0  0  0  0  0  0  0  0
    1.2970   -7.4720   22.1030 C   0  0  0  0  0  0  0  0  0  0  0  0
    2.3440   -8.3970   26.2240 N   0  0  0  0  0  0  0  0  0  0  0  0
    4.0200   -8.2090   24.7270 O   0  0  0  0  0  0  0  0  0  0  0  0
    2.8350   -6.1250   23.4690 C   0  0  1  0  0  0  0  0  0  0  0  0
    5.0530   -6.6100   22.4890 N   0  0  0  0  0  0  0  0  0  0  0  0
    4.7310   -4.6130   23.6040 O   0  0  0  0  0  0  0  0  0  0  0  0
    2.6370   -6.3270   24.9440 C   0  0  0  0  0  0  0  0  0  0  0  0
    3.0640   -7.7170   25.2820 C   0  0  0  0  0  0  0  0  0  0  0  0
    4.2920   -5.6900   23.2010 C   0  0  0  0  0  0  0  0  0  0  0  0
    5.9350   -6.1940   21.4350 C   0  0  0  0  0  0  0  0  0  0  0  0
    6.1080   -4.8760   21.6300 C   0  0  0  0  0  0  0  0  0  0  0  0
    5.9890   -3.8810   20.6880 C   0  0  0  0  0  0  0  0  0  0  0  0
   10.9990    2.3790   23.7150 C   0  0  0  0  0  0  0  0  0  0  0  0
    9.5840   -2.3870   23.7400 C   0  0  0  0  0  0  0  0  0  0  0  0
    5.9780   -2.7210   20.1390 C   0  0  0  0  0  0  0  0  0  0  0  0
    5.7050   -2.3950   18.7180 C   0  0  0  0  0  0  0  0  0  0  0  0
   11.3680    0.9470   23.5380 C   0  0  0  0  0  0  0  0  0  0  0  0
   10.3920   -0.0210   23.7260 C   0  0  0  0  0  0  0  0  0  0  0  0
   10.6900   -1.4020   23.5480 C   0  0  0  0  0  0  0  0  0  0  0  0
   11.9780   -1.7840   23.1910 C   0  0  0  0  0  0  0  0  0  0  0  0
   12.9560   -0.8090   23.0080 C   0  0  0  0  0  0  0  0  0  0  0  0
   12.6570    0.5460   23.1790 C   0  0  0  0  0  0  0  0  0  0  0  0
    6.2840   -1.7540   21.0400 N   0  0  0  0  0  0  0  0  0  0  0  0
    7.5040   -0.9240   20.8830 C   0  0  0  0  0  0  0  0  0  0  0  0
    8.6980   -1.5190   21.6560 C   0  0  0  0  0  0  0  0  0  0  0  0
    8.4140   -1.8590   23.0680 N   0  0  0  0  0  0  0  0  0  0  0  0
    7.2780   -2.7750   23.0720 C   0  0  0  0  0  0  0  0  0  0  0  0
    6.0270   -2.1050   22.4570 C   0  0  0  0  0  0  0  0  0  0  0  0
  1  4  1  0
  2  4  1  0
  3  4  2  0
  2  7  1  0
  7 10  1  1
  5 11  1  0
  6 11  2  0
 10 11  1  0
  7 12  1  0
  8 12  1  0
  9 12  2  0
  8 13  1  0
 13 14  1  0
 14 15  2  0
 15 18  2  0
 18 19  1  0
 16 20  1  0
 20 21  2  0
 17 22  1  0
 21 22  1  0
 22 23  2  0
 23 24  1  0
 20 25  1  0
 24 25  2  0
 18 26  1  0
 26 27  1  0
 27 28  1  0
 17 29  1  0
 28 29  1  0
 29 30  1  0
 26 31  1  0
 30 31  1  0
M  END
