x0692-x0464
     RDKit          3D

 17 18  0  0  0  0  0  0  0  0999 V2000
   10.9870    2.4040   23.6960 C   0  0  0  0  0  0  0  0  0  0  0  0
    5.4330   -3.9990   19.7110 O   0  0  0  0  0  0  0  0  0  0  0  0
    9.4300   -2.3090   23.9210 C   0  0  0  0  0  0  0  0  0  0  0  0
    6.0190   -2.9040   19.8010 C   0  0  0  0  0  0  0  0  0  0  0  0
    6.3670   -2.1100   18.5780 C   0  0  0  0  0  0  0  0  0  0  0  0
   11.3090    0.9550   23.5540 C   0  0  0  0  0  0  0  0  0  0  0  0
   10.3120    0.0170   23.7940 C   0  0  0  0  0  0  0  0  0  0  0  0
   10.5570   -1.3470   23.6590 C   0  0  0  0  0  0  0  0  0  0  0  0
   11.8330   -1.7760   23.2810 C   0  0  0  0  0  0  0  0  0  0  0  0
   12.8550   -0.8430   23.0400 C   0  0  0  0  0  0  0  0  0  0  0  0
   12.5860    0.5270   23.1790 C   0  0  0  0  0  0  0  0  0  0  0  0
    6.4140   -2.3630   20.9940 N   0  0  0  0  0  0  0  0  0  0  0  0
    7.5050   -1.3710   20.9760 C   0  0  0  0  0  0  0  0  0  0  0  0
    8.6130   -1.8470   21.6710 C   0  0  0  0  0  0  0  0  0  0  0  0
    8.2570   -2.0760   23.0820 N   0  0  0  0  0  0  0  0  0  0  0  0
    7.2030   -3.0870   23.2310 C   0  0  0  0  0  0  0  0  0  0  0  0
    6.0180   -2.8990   22.2960 C   0  0  0  0  0  0  0  0  0  0  0  0
  2  4  2  0
  4  5  1  0
  1  6  1  0
  6  7  2  0
  3  8  1  0
  7  8  1  0
  8  9  2  0
  9 10  1  0
  6 11  1  0
 10 11  2  0
  4 12  1  0
 12 13  1  0
 13 14  1  0
  3 15  1  0
 14 15  1  0
 15 16  1  0
 12 17  1  0
 16 17  1  0
M  END
