x0691-x0755
     RDKit          3D

 20 21  0  0  0  0  0  0  0  0999 V2000
    4.5000   -6.3770   26.2250 O   0  0  0  0  0  0  0  0  0  0  0  0
    6.2320   -4.6640   26.7590 O   0  0  0  0  0  0  0  0  0  0  0  0
    5.3130   -4.7850   19.9680 O   0  0  0  0  0  0  0  0  0  0  0  0
    6.3910   -4.5390   20.5480 C   0  0  0  0  0  0  0  0  0  0  0  0
    7.3060   -3.5140   19.9720 C   0  0  0  0  0  0  0  0  0  0  0  0
    2.1910   -5.4980   25.6920 F   0  0  0  0  0  0  0  0  0  0  0  0
    5.6200   -2.0060   26.0880 F   0  0  0  0  0  0  0  0  0  0  0  0
    5.1500   -5.1230   25.9140 S   0  0  0  0  0  0  0  0  0  0  0  0
    2.5160   -4.2000   25.7770 C   0  0  0  0  0  0  0  0  0  0  0  0
    3.9530   -3.8470   25.8880 C   0  0  0  0  0  0  0  0  0  0  0  0
    4.3560   -2.4220   25.9850 C   0  0  0  0  0  0  0  0  0  0  0  0
    3.2050   -1.3890   25.9670 C   0  0  0  0  0  0  0  0  0  0  0  0
    1.7500   -1.8530   25.8540 C   0  0  0  0  0  0  0  0  0  0  0  0
    1.4930   -3.2180   25.7640 C   0  0  0  0  0  0  0  0  0  0  0  0
    6.6770   -5.2780   21.7290 N   0  0  0  0  0  0  0  0  0  0  0  0
    7.5390   -4.7500   22.7940 C   0  0  0  0  0  0  0  0  0  0  0  0
    6.8090   -4.2480   23.8850 C   0  0  0  0  0  0  0  0  0  0  0  0
    5.7560   -5.2380   24.3390 N   0  0  0  0  0  0  0  0  0  0  0  0
    4.9160   -5.7100   23.2410 C   0  0  0  0  0  0  0  0  0  0  0  0
    5.7150   -6.1830   22.1950 C   0  0  0  0  0  0  0  0  0  0  0  0
  3  4  2  0
  4  5  1  0
  1  8  2  0
  2  8  2  0
  6  9  1  0
  8 10  1  0
  9 10  2  0
  7 11  1  0
 10 11  1  0
 11 12  2  0
 12 13  1  0
  9 14  1  0
 13 14  2  0
  4 15  1  0
 15 16  1  0
 16 17  1  0
  8 18  1  0
 17 18  1  0
 18 19  1  0
 15 20  1  0
 19 20  1  0
M  END
