x0691-x0689
     RDKit          3D

 19 20  0  0  0  0  0  0  0  0999 V2000
    3.9420   -7.0260   25.9960 O   0  0  0  0  0  0  0  0  0  0  0  0
    5.7480   -5.1860   26.7560 O   0  0  0  0  0  0  0  0  0  0  0  0
    5.4770   -4.4980   19.8690 O   0  0  0  0  0  0  0  0  0  0  0  0
    6.1620   -4.2540   20.8700 C   0  0  0  0  0  0  0  0  0  0  0  0
    6.7390   -2.8540   21.0990 C   0  0  0  0  0  0  0  0  0  0  0  0
    3.2130   -0.5180   25.9230 F   0  0  0  0  0  0  0  0  0  0  0  0
    4.7320   -5.6010   25.8110 S   0  0  0  0  0  0  0  0  0  0  0  0
    2.8840   -1.8140   25.8450 C   0  0  0  0  0  0  0  0  0  0  0  0
    3.9510   -2.8560   25.8630 C   0  0  0  0  0  0  0  0  0  0  0  0
    3.5190   -4.3110   25.7760 C   0  0  0  0  0  0  0  0  0  0  0  0
    2.1230   -4.6090   25.6750 C   0  0  0  0  0  0  0  0  0  0  0  0
    1.1660   -3.5480   25.6640 C   0  0  0  0  0  0  0  0  0  0  0  0
    1.5360   -2.1900   25.7500 C   0  0  0  0  0  0  0  0  0  0  0  0
    6.4770   -5.2050   21.8460 N   0  0  0  0  0  0  0  0  0  0  0  0
    5.6250   -6.3200   22.1070 C   0  0  0  0  0  0  0  0  0  0  0  0
    4.6900   -6.0040   23.0940 C   0  0  0  0  0  0  0  0  0  0  0  0
    5.4760   -5.5810   24.3090 N   0  0  0  0  0  0  0  0  0  0  0  0
    6.3850   -4.4270   24.0240 C   0  0  0  0  0  0  0  0  0  0  0  0
    7.2640   -4.8430   23.0310 C   0  0  0  0  0  0  0  0  0  0  0  0
  3  4  2  0
  4  5  1  0
  1  7  2  0
  2  7  2  0
  6  8  1  0
  8  9  2  0
  7 10  1  0
  9 10  1  0
 10 11  2  0
 11 12  1  0
  8 13  1  0
 12 13  2  0
  4 14  1  0
 14 15  1  0
 15 16  1  0
  7 17  1  0
 16 17  1  0
 17 18  1  0
 14 19  1  0
 18 19  1  0
M  END
