x0691-x0072
     RDKit          3D

 31 33  0  0  0  0  0  0  0  0999 V2000
    4.6290   -6.6360   26.0080 O   0  0  0  0  0  0  0  0  0  0  0  0
    6.2290   -4.6170   26.6860 N   0  0  0  0  0  0  0  0  0  0  0  0
    5.2370   -4.5350   19.8990 O   0  0  0  0  0  0  0  0  0  0  0  0
    6.3120   -4.4860   20.4810 C   0  0  0  0  0  0  0  0  0  0  0  0
    7.3810   -3.4780   19.9750 C   0  0  0  0  0  0  0  0  0  0  0  0
    2.9880   -0.4860   25.9330 F   0  0  0  0  0  0  0  0  0  0  0  0
    5.1630   -5.3020   25.7980 S   0  0  2  0  0  0  0  0  0  0  0  0
    7.7800   -4.6240   26.4420 S   0  0  0  0  0  0  0  0  0  0  0  0
    8.4290   -5.7340   25.7690 O   0  0  0  0  0  0  0  0  0  0  0  0
    8.5810   -4.1200   27.5440 O   0  0  0  0  0  0  0  0  0  0  0  0
    7.9610   -3.3440   25.3290 N   0  0  0  0  0  0  0  0  0  0  0  0
    9.2490   -3.2270   24.5900 C   0  0  0  0  0  0  0  0  0  0  0  0
    9.1790   -2.1000   23.5530 C   0  0  0  0  0  0  0  0  0  0  0  0
    2.8190   -1.8090   25.8460 C   0  0  0  0  0  0  0  0  0  0  0  0
    4.0430   -2.6940   25.8680 C   0  0  0  0  0  0  0  0  0  0  0  0
    3.7730   -4.1910   25.7670 C   0  0  0  0  0  0  0  0  0  0  0  0
    2.3140   -4.6890   25.6490 C   0  0  0  0  0  0  0  0  0  0  0  0
    1.2540   -3.7640   25.6390 C   0  0  0  0  0  0  0  0  0  0  0  0
    1.4080   -2.3750   25.7330 C   0  0  0  0  0  0  0  0  0  0  0  0
    6.5620   -5.3470   21.5460 N   0  0  0  0  0  0  0  0  0  0  0  0
    5.6560   -6.3770   22.0140 C   0  0  0  0  0  0  0  0  0  0  0  0
    4.9210   -5.9590   23.1280 C   0  0  0  0  0  0  0  0  0  0  0  0
    5.7400   -5.3630   24.1980 N   0  0  0  0  0  0  0  0  0  0  0  0
    6.8270   -4.5200   23.7080 C   0  0  0  0  0  0  0  0  0  0  0  0
    7.3850   -4.9460   22.5130 C   0  0  0  0  0  0  0  0  0  0  0  0
   10.5150   -1.4230   23.3650 C   0  0  0  0  0  0  0  0  0  0  0  0
   11.5250   -1.9700   22.3860 C   0  0  0  0  0  0  0  0  0  0  0  0
   12.8490   -1.2180   22.2550 C   0  0  0  0  0  0  0  0  0  0  0  0
   13.0640   -0.0920   23.0170 C   0  0  0  0  0  0  0  0  0  0  0  0
   12.0940    0.3750   23.9150 C   0  0  0  0  0  0  0  0  0  0  0  0
   10.8570   -0.2730   24.0860 C   0  0  0  0  0  0  0  0  0  0  0  0
  3  4  2  0
  4  5  1  0
  1  7  2  0
  2  7  2  0
  8  2  1  0
  8  9  2  0
  8 10  2  0
  8 11  1  0
 11 12  1  0
 12 13  1  0
  6 14  1  0
 14 15  2  0
  7 16  1  6
 15 16  1  0
 16 17  2  0
 17 18  1  0
 14 19  1  0
 18 19  2  0
  4 20  1  0
 20 21  1  0
 21 22  1  0
  7 23  1  0
 22 23  1  0
 23 24  1  0
 20 25  1  0
 24 25  1  0
 13 26  1  0
 26 27  2  0
 27 28  1  0
 28 29  2  0
 29 30  1  0
 26 31  1  0
 30 31  2  0
M  END
