x0691-x0731
     RDKit          3D

 20 21  0  0  0  0  0  0  0  0999 V2000
    3.9160   -6.7750   25.7780 O   0  0  0  0  0  0  0  0  0  0  0  0
    5.6760   -5.2920   26.7530 O   0  0  0  0  0  0  0  0  0  0  0  0
    5.2540   -4.7720   19.9360 O   0  0  0  0  0  0  0  0  0  0  0  0
    6.3090   -4.4870   20.5280 C   0  0  0  0  0  0  0  0  0  0  0  0
    7.1710   -3.4110   19.9630 C   0  0  0  0  0  0  0  0  0  0  0  0
    3.1660   -0.5100   26.0660 F   0  0  0  0  0  0  0  0  0  0  0  0
    4.7160   -5.5750   25.7040 S   0  0  0  0  0  0  0  0  0  0  0  0
    0.5510   -0.9980   26.0580 C   0  0  0  0  0  0  0  0  0  0  0  0
    2.8670   -1.8080   25.9720 C   0  0  0  0  0  0  0  0  0  0  0  0
    3.9370   -2.8340   25.8920 C   0  0  0  0  0  0  0  0  0  0  0  0
    3.5360   -4.3120   25.7900 C   0  0  0  0  0  0  0  0  0  0  0  0
    2.0380   -4.5640   25.7710 C   0  0  0  0  0  0  0  0  0  0  0  0
    1.1800   -3.4720   25.8550 C   0  0  0  0  0  0  0  0  0  0  0  0
    1.5150   -2.1420   25.9570 C   0  0  0  0  0  0  0  0  0  0  0  0
    6.5770   -5.2100   21.7210 N   0  0  0  0  0  0  0  0  0  0  0  0
    5.7780   -6.3780   22.0710 C   0  0  0  0  0  0  0  0  0  0  0  0
    4.8910   -6.1000   23.0570 C   0  0  0  0  0  0  0  0  0  0  0  0
    5.5530   -5.5600   24.2480 N   0  0  0  0  0  0  0  0  0  0  0  0
    6.2160   -4.4000   23.8800 C   0  0  0  0  0  0  0  0  0  0  0  0
    7.1620   -4.5310   22.8800 C   0  0  0  0  0  0  0  0  0  0  0  0
  3  4  2  0
  4  5  1  0
  1  7  2  0
  2  7  2  0
  6  9  1  0
  9 10  2  0
  7 11  1  0
 10 11  1  0
 11 12  2  0
 12 13  1  0
  8 14  1  0
  9 14  1  0
 13 14  2  0
  4 15  1  0
 15 16  1  0
 16 17  1  0
  7 18  1  0
 17 18  1  0
 18 19  1  0
 15 20  1  0
 19 20  1  0
M  END
