x0692-x0786
     RDKit          3D

 33 37  0  0  0  0  0  0  0  0999 V2000
    5.9920   -3.3340   22.2150 C   0  0  1  0  0  0  0  0  0  0  0  0
    6.8450   -5.1450   20.9830 C   0  0  0  0  0  0  0  0  0  0  0  0
    5.0120   -4.3580   20.3850 O   0  0  0  0  0  0  0  0  0  0  0  0
    6.0390   -3.8870   20.8330 C   0  0  0  0  0  0  0  0  0  0  0  0
    3.7960   -8.0650   24.6680 O   0  0  0  0  0  0  0  0  0  0  0  0
    3.2290   -7.0590   24.2630 C   0  0  0  0  0  0  0  0  0  0  0  0
    6.3970   -2.8540   19.7310 C   0  0  0  0  0  0  0  0  0  0  0  0
   10.7830    2.3780   23.8120 C   0  0  0  0  0  0  0  0  0  0  0  0
    9.4400   -2.4150   23.8010 C   0  0  0  0  0  0  0  0  0  0  0  0
    5.2620   -4.0650   23.3180 C   0  0  0  0  0  0  0  0  0  0  0  0
    4.5760   -5.2790   23.2090 C   0  0  0  0  0  0  0  0  0  0  0  0
    3.9580   -5.8000   24.3600 C   0  0  0  0  0  0  0  0  0  0  0  0
    4.0030   -5.1680   25.6030 C   0  0  0  0  0  0  0  0  0  0  0  0
    4.6730   -3.9760   25.7490 C   0  0  0  0  0  0  0  0  0  0  0  0
    5.3210   -3.4130   24.5550 C   0  0  0  0  0  0  0  0  0  0  0  0
    1.4340   -5.6600   23.3640 C   0  0  0  0  0  0  0  0  0  0  0  0
    0.5550   -5.1420   24.3270 C   0  0  0  0  0  0  0  0  0  0  0  0
   -0.9350   -6.1740   24.4860 S   0  0  0  0  0  0  0  0  0  0  0  0
   -0.0550   -7.7240   24.8860 C   0  0  0  0  0  0  0  0  0  0  0  0
    0.9420   -8.0520   23.9480 C   0  0  0  0  0  0  0  0  0  0  0  0
    1.9370   -6.9890   23.7330 N   0  0  0  0  0  0  0  0  0  0  0  0
   11.1920    0.9600   23.5920 C   0  0  0  0  0  0  0  0  0  0  0  0
   10.2370   -0.0410   23.7840 C   0  0  0  0  0  0  0  0  0  0  0  0
   10.5200   -1.3880   23.5860 C   0  0  0  0  0  0  0  0  0  0  0  0
   11.9300   -1.8080   23.1490 C   0  0  0  0  0  0  0  0  0  0  0  0
   12.8890   -0.8310   22.9580 C   0  0  0  0  0  0  0  0  0  0  0  0
   12.4970    0.6430   23.1940 C   0  0  0  0  0  0  0  0  0  0  0  0
    6.4330   -0.9720   21.2680 N   0  0  0  0  0  0  0  0  0  0  0  0
    7.8470   -0.6390   21.2410 C   0  0  0  0  0  0  0  0  0  0  0  0
    8.8290   -1.8210   21.4590 C   0  0  0  0  0  0  0  0  0  0  0  0
    8.5800   -2.6700   22.6280 N   0  0  0  0  0  0  0  0  0  0  0  0
    7.1620   -2.7250   23.0120 C   0  0  1  0  0  0  0  0  0  0  0  0
    6.1020   -1.8370   22.3950 C   0  0  2  0  0  0  0  0  0  0  0  0
  1  4  1  6
  2  4  1  0
  4  3  1  0
  5  6  2  0
  4  7  1  0
  1 10  1  0
 10 11  2  0
  6 12  1  0
 11 12  1  0
 12 13  2  0
 13 14  1  0
 10 15  1  0
 14 15  2  0
 16 17  1  0
 17 18  1  0
 18 19  1  0
 19 20  1  0
  6 21  1  0
 16 21  1  0
 20 21  1  0
  8 22  1  0
 22 23  2  0
  9 24  1  0
 23 24  1  0
 24 25  2  0
 25 26  1  0
 22 27  1  0
 26 27  2  0
 28 29  1  0
 29 30  1  0
  9 31  1  0
 30 31  1  0
  1 32  1  0
 32 31  1  6
  1 33  1  0
 33 28  1  6
 32 33  1  0
M  END
