x0692-x1418
     RDKit          3D

 17 18  0  0  0  0  0  0  0  0999 V2000
   10.9770    2.4110   23.7030 C   0  0  0  0  0  0  0  0  0  0  0  0
    5.4310   -4.0110   19.7030 O   0  0  0  0  0  0  0  0  0  0  0  0
    9.4380   -2.3050   23.9160 C   0  0  0  0  0  0  0  0  0  0  0  0
    6.0080   -2.9140   19.8020 C   0  0  0  0  0  0  0  0  0  0  0  0
    6.3290   -2.0980   18.5830 C   0  0  0  0  0  0  0  0  0  0  0  0
   11.3070    0.9640   23.5560 C   0  0  0  0  0  0  0  0  0  0  0  0
   10.3100    0.0220   23.7930 C   0  0  0  0  0  0  0  0  0  0  0  0
   10.5600   -1.3400   23.6550 C   0  0  0  0  0  0  0  0  0  0  0  0
   11.8370   -1.7650   23.2750 C   0  0  0  0  0  0  0  0  0  0  0  0
   12.8560   -0.8320   23.0350 C   0  0  0  0  0  0  0  0  0  0  0  0
   12.5840    0.5370   23.1780 C   0  0  0  0  0  0  0  0  0  0  0  0
    6.4120   -2.3820   20.9930 N   0  0  0  0  0  0  0  0  0  0  0  0
    7.5000   -1.3860   20.9630 C   0  0  0  0  0  0  0  0  0  0  0  0
    8.6090   -1.8540   21.6640 C   0  0  0  0  0  0  0  0  0  0  0  0
    8.2610   -2.0670   23.0790 N   0  0  0  0  0  0  0  0  0  0  0  0
    7.2040   -3.0710   23.2510 C   0  0  0  0  0  0  0  0  0  0  0  0
    6.0250   -2.9220   22.2990 C   0  0  0  0  0  0  0  0  0  0  0  0
  2  4  2  0
  4  5  1  0
  1  6  1  0
  6  7  2  0
  3  8  1  0
  7  8  1  0
  8  9  2  0
  9 10  1  0
  6 11  1  0
 10 11  2  0
  4 12  1  0
 12 13  1  0
 13 14  1  0
  3 15  1  0
 14 15  1  0
 15 16  1  0
 12 17  1  0
 16 17  1  0
M  END
