x0692-x1086
     RDKit          3D

 13 13  0  0  0  0  0  0  0  0999 V2000
    5.7720    3.4530   -7.2400 N   0  0  0  0  0  0  0  0  0  0  0  0
    4.0760   -1.4950   -9.3690 C   0  0  0  0  0  0  0  0  0  0  0  0
    4.4370    2.1960   -5.9170 O   0  0  0  0  0  0  0  0  0  0  0  0
    6.7700    1.5430   -5.8170 O   0  0  0  0  0  0  0  0  0  0  0  0
    5.3630    0.9470   -8.0660 C   0  0  0  0  0  0  0  0  0  0  0  0
    7.9860   -3.8760   -8.0540 F   0  0  0  0  0  0  0  0  0  0  0  0
    5.6220    1.9350   -6.5870 S   0  0  0  0  0  0  0  0  0  0  0  0
    5.3920   -1.4670   -8.6670 C   0  0  0  0  0  0  0  0  0  0  0  0
    5.9400   -0.2180   -8.0380 C   0  0  0  0  0  0  0  0  0  0  0  0
    7.2420   -0.4090   -7.3690 C   0  0  0  0  0  0  0  0  0  0  0  0
    7.8900   -1.6160   -7.3590 C   0  0  0  0  0  0  0  0  0  0  0  0
    7.3480   -2.7320   -8.0040 C   0  0  0  0  0  0  0  0  0  0  0  0
    6.1180   -2.6610   -8.6290 C   0  0  0  0  0  0  0  0  0  0  0  0
  7  1  1  0
  3  7  2  0
  4  7  2  0
  5  7  1  0
  2  8  1  0
  5  9  1  0
  8  9  2  0
  9 10  1  0
 10 11  2  0
  6 12  1  0
 11 12  1  0
  8 13  1  0
 12 13  2  0
M  END
