x0691-x2910
     RDKit          3D

 45 49  0  0  0  0  0  0  0  0999 V2000
    7.1410   -0.9460   21.8810 N   0  0  0  0  0  0  0  0  0  0  0  0
   10.0670    2.7640   23.1580 C   0  0  0  0  0  0  0  0  0  0  0  0
    9.9960    1.3600   23.4400 O   0  0  0  0  0  0  0  0  0  0  0  0
    9.5550   -1.0240   22.9410 O   0  0  0  0  0  0  0  0  0  0  0  0
    5.2080   -2.1000   21.1540 O   0  0  0  0  0  0  0  0  0  0  0  0
    6.3220    1.1710   16.7950 O   0  0  0  0  0  0  0  0  0  0  0  0
    9.2280   -2.1940   22.2500 C   0  0  0  0  0  0  0  0  0  0  0  0
    7.7530   -2.1410   21.9520 C   0  0  2  0  0  0  0  0  0  0  0  0
    5.9300   -1.1080   21.0620 C   0  0  0  0  0  0  0  0  0  0  0  0
    3.9680   -6.8860   25.9590 O   0  0  0  0  0  0  0  0  0  0  0  0
    5.6950   -5.1990   26.8450 O   0  0  0  0  0  0  0  0  0  0  0  0
    5.6670   -4.6170   19.9580 O   0  0  0  0  0  0  0  0  0  0  0  0
    6.6840   -4.7390   20.7060 C   0  0  0  0  0  0  0  0  0  0  0  0
    7.9650   -4.0190   20.4970 C   0  0  0  0  0  0  0  0  0  0  0  0
    3.2280   -0.6780   26.2560 F   0  0  0  0  0  0  0  0  0  0  0  0
    4.6970   -5.5690   25.8670 S   0  0  0  0  0  0  0  0  0  0  0  0
    7.5610   -2.6070   20.5740 C   0  0  0  0  0  0  0  0  0  0  0  0
   11.0970    0.6230   23.0650 C   0  0  0  0  0  0  0  0  0  0  0  0
   10.8380   -0.6680   22.7980 C   0  0  0  0  0  0  0  0  0  0  0  0
   11.8710   -1.4910   22.4150 C   0  0  0  0  0  0  0  0  0  0  0  0
   13.1180   -1.0540   22.3020 C   0  0  0  0  0  0  0  0  0  0  0  0
   13.4200    0.2870   22.5770 C   0  0  0  0  0  0  0  0  0  0  0  0
   12.3970    1.1290   22.9620 C   0  0  0  0  0  0  0  0  0  0  0  0
    4.8190    1.9560   18.2380 N   0  0  0  0  0  0  0  0  0  0  0  0
    4.1810    1.8880   19.5210 C   0  0  0  0  0  0  0  0  0  0  0  0
    4.6010    0.8550   20.4400 C   0  0  0  0  0  0  0  0  0  0  0  0
    5.5670   -0.0620   20.1030 C   0  0  0  0  0  0  0  0  0  0  0  0
    6.1960   -0.0130   18.8630 C   0  0  0  0  0  0  0  0  0  0  0  0
    5.7860    1.0110   17.9930 C   0  0  0  0  0  0  0  0  0  0  0  0
    3.1940    2.7960   19.8570 C   0  0  0  0  0  0  0  0  0  0  0  0
    2.5820    2.7540   21.0920 C   0  0  0  0  0  0  0  0  0  0  0  0
    2.9910    1.7800   21.9850 C   0  0  0  0  0  0  0  0  0  0  0  0
    3.9760    0.8490   21.6720 C   0  0  0  0  0  0  0  0  0  0  0  0
    2.8710   -1.9500   26.0490 C   0  0  0  0  0  0  0  0  0  0  0  0
    3.8500   -2.9520   26.0630 C   0  0  0  0  0  0  0  0  0  0  0  0
    3.4650   -4.2780   25.8450 C   0  0  0  0  0  0  0  0  0  0  0  0
    2.1220   -4.5970   25.6140 C   0  0  0  0  0  0  0  0  0  0  0  0
    1.1560   -3.5890   25.6020 C   0  0  0  0  0  0  0  0  0  0  0  0
    1.5240   -2.2650   25.8200 C   0  0  0  0  0  0  0  0  0  0  0  0
    6.6430   -5.5600   21.8260 N   0  0  0  0  0  0  0  0  0  0  0  0
    5.6020   -6.5090   22.1390 C   0  0  0  0  0  0  0  0  0  0  0  0
    4.6270   -5.8840   23.1380 C   0  0  0  0  0  0  0  0  0  0  0  0
    5.3890   -5.4850   24.3350 N   0  0  0  0  0  0  0  0  0  0  0  0
    6.6020   -4.6500   24.1340 C   0  0  0  0  0  0  0  0  0  0  0  0
    7.4730   -5.1840   22.9780 C   0  0  0  0  0  0  0  0  0  0  0  0
  2  3  1  0
  4  7  1  0
  1  8  1  0
  8  7  1  6
  1  9  1  0
  5  9  2  0
 12 13  2  0
 13 14  1  0
 10 16  2  0
 11 16  2  0
  8 17  1  0
 14 17  1  0
  3 18  1  0
  4 19  1  0
 18 19  2  0
 19 20  1  0
 20 21  2  0
 21 22  1  0
 18 23  1  0
 22 23  2  0
 24 25  2  0
 25 26  1  0
  9 27  1  0
 26 27  2  0
 27 28  1  0
  6 29  1  0
 24 29  1  0
 28 29  2  0
 25 30  1  0
 30 31  2  0
 31 32  1  0
 26 33  1  0
 32 33  2  0
 15 34  1  0
 34 35  2  0
 16 36  1  0
 35 36  1  0
 36 37  2  0
 37 38  1  0
 34 39  1  0
 38 39  2  0
 13 40  1  0
 40 41  1  0
 41 42  1  0
 16 43  1  0
 42 43  1  0
 43 44  1  0
 40 45  1  0
 44 45  1  0
M  END
