x0691-x3124
     RDKit          3D

 43 47  0  0  0  0  0  0  0  0999 V2000
    6.6180   -1.6650   22.3490 N   0  0  0  0  0  0  0  0  0  0  0  0
    6.7450   -3.9580   19.9590 C   0  0  0  0  0  0  0  0  0  0  0  0
    4.7250   -3.0720   21.5340 O   0  0  0  0  0  0  0  0  0  0  0  0
    6.9090   -3.8700   21.4200 C   0  0  2  0  0  0  0  0  0  0  0  0
    7.6560    1.3690   23.2430 N   0  0  0  0  0  0  0  0  0  0  0  0
    8.9050    0.5500   21.4820 O   0  0  0  0  0  0  0  0  0  0  0  0
    5.9660   -2.8300   21.7780 C   0  0  0  0  0  0  0  0  0  0  0  0
    6.6550   -0.2520   21.7790 C   0  0  1  0  0  0  0  0  0  0  0  0
    7.8640    0.5600   22.1330 C   0  0  0  0  0  0  0  0  0  0  0  0
    8.1430    2.7590   23.1180 C   0  0  0  0  0  0  0  0  0  0  0  0
   12.3050   -1.7690   24.1380 C   0  0  0  0  0  0  0  0  0  0  0  0
   12.5420   -0.5830   24.8210 C   0  0  0  0  0  0  0  0  0  0  0  0
   13.2650   -1.8530   22.9480 C   0  0  0  0  0  0  0  0  0  0  0  0
   12.7090   -2.9040   25.1030 C   0  0  0  0  0  0  0  0  0  0  0  0
    5.7620   -4.9000   19.5710 O   0  0  0  0  0  0  0  0  0  0  0  0
    4.2220   -6.8040   26.0680 O   0  0  0  0  0  0  0  0  0  0  0  0
    5.8770   -5.1570   26.8580 O   0  0  0  0  0  0  0  0  0  0  0  0
    3.1730   -0.6210   25.9890 F   0  0  0  0  0  0  0  0  0  0  0  0
    4.8540   -5.4550   25.7950 S   0  0  0  0  0  0  0  0  0  0  0  0
    6.3200    0.2380   17.9000 N   0  0  0  0  0  0  0  0  0  0  0  0
    5.2090    0.9850   17.8980 C   0  0  0  0  0  0  0  0  0  0  0  0
    4.4810    1.3730   19.0160 C   0  0  0  0  0  0  0  0  0  0  0  0
    4.9510    0.9580   20.2540 C   0  0  0  0  0  0  0  0  0  0  0  0
    6.1730    0.1380   20.3940 C   0  0  0  0  0  0  0  0  0  0  0  0
    6.7850   -0.1710   19.0990 C   0  0  0  0  0  0  0  0  0  0  0  0
    9.2200   -1.7700   21.8040 C   0  0  0  0  0  0  0  0  0  0  0  0
   10.5490   -1.7980   22.2430 C   0  0  0  0  0  0  0  0  0  0  0  0
   10.8230   -1.7560   23.6110 C   0  0  0  0  0  0  0  0  0  0  0  0
    9.7760   -1.6920   24.4860 C   0  0  0  0  0  0  0  0  0  0  0  0
    8.4370   -1.6640   24.0580 C   0  0  0  0  0  0  0  0  0  0  0  0
    8.1120   -1.7010   22.6880 C   0  0  0  0  0  0  0  0  0  0  0  0
    2.8880   -1.9260   25.8850 C   0  0  0  0  0  0  0  0  0  0  0  0
    3.9350   -2.8730   25.8890 C   0  0  0  0  0  0  0  0  0  0  0  0
    3.6560   -4.2470   25.7850 C   0  0  0  0  0  0  0  0  0  0  0  0
    2.3220   -4.6350   25.6720 C   0  0  0  0  0  0  0  0  0  0  0  0
    1.3010   -3.7010   25.6680 C   0  0  0  0  0  0  0  0  0  0  0  0
    1.5470   -2.3390   25.7750 C   0  0  0  0  0  0  0  0  0  0  0  0
    6.5680   -5.2630   21.6260 N   0  0  0  0  0  0  0  0  0  0  0  0
    5.3370   -5.7040   21.8350 C   0  0  0  0  0  0  0  0  0  0  0  0
    4.6200   -5.4190   23.1230 C   0  0  0  0  0  0  0  0  0  0  0  0
    5.5680   -5.4550   24.2450 N   0  0  0  0  0  0  0  0  0  0  0  0
    6.7910   -4.6050   24.0070 C   0  0  0  0  0  0  0  0  0  0  0  0
    7.3340   -4.7370   22.6850 C   0  0  2  0  0  0  0  0  0  0  0  0
  4  2  1  6
  1  7  1  0
  3  7  2  0
  4  7  1  0
  1  8  1  0
  5  9  1  0
  6  9  2  0
  8  9  1  6
  5 10  1  0
 11 12  1  0
 11 13  1  0
 11 14  1  0
  2 15  2  0
 16 19  2  0
 17 19  2  0
 20 21  2  0
 21 22  1  0
 22 23  2  0
  8 24  1  0
 23 24  1  0
 20 25  1  0
 24 25  2  0
 26 27  2  0
 11 28  1  0
 27 28  1  0
 28 29  2  0
 29 30  1  0
  1 31  1  0
 26 31  1  0
 30 31  2  0
 18 32  1  0
 32 33  2  0
 19 34  1  0
 33 34  1  0
 34 35  2  0
 35 36  1  0
 32 37  1  0
 36 37  2  0
  4 38  1  0
 38 39  1  0
 39 40  1  0
 19 41  1  0
 40 41  1  0
 41 42  1  0
  4 43  1  0
 38 43  1  0
 43 42  1  1
M  END
