x0692-x0991
     RDKit          3D

 21 22  0  0  0  0  0  0  0  0999 V2000
   10.6740    2.0240   24.0540 C   0  0  0  0  0  0  0  0  0  0  0  0
    5.3830   -4.1520   19.7410 O   0  0  0  0  0  0  0  0  0  0  0  0
    9.3940   -2.8440   23.1920 C   0  0  2  0  0  0  0  0  0  0  0  0
    6.2240   -3.2200   19.8580 C   0  0  0  0  0  0  0  0  0  0  0  0
    7.2420   -3.0000   18.8060 C   0  0  0  0  0  0  0  0  0  0  0  0
    9.3350   -5.6800   26.0040 N   0  0  0  0  0  0  0  0  0  0  0  0
    9.5460   -4.1710   24.0050 C   0  0  0  0  0  0  0  0  0  0  0  0
    8.0720   -3.7010   26.0740 N   0  0  0  0  0  0  0  0  0  0  0  0
    8.9540   -4.4850   25.3810 C   0  0  0  0  0  0  0  0  0  0  0  0
   11.1390    0.6850   23.5870 C   0  0  0  0  0  0  0  0  0  0  0  0
   10.2340   -0.3870   23.5970 C   0  0  0  0  0  0  0  0  0  0  0  0
   10.4480   -1.6880   23.1870 C   0  0  0  0  0  0  0  0  0  0  0  0
   11.7670   -1.8160   22.7310 C   0  0  0  0  0  0  0  0  0  0  0  0
   12.6760   -0.8110   22.7140 C   0  0  0  0  0  0  0  0  0  0  0  0
   12.4130    0.4960   23.1420 C   0  0  0  0  0  0  0  0  0  0  0  0
    6.2110   -2.4120   20.9890 N   0  0  0  0  0  0  0  0  0  0  0  0
    7.0610   -1.3770   21.0400 C   0  0  0  0  0  0  0  0  0  0  0  0
    8.1990   -1.4050   21.9760 C   0  0  0  0  0  0  0  0  0  0  0  0
    8.1380   -2.3120   23.0580 N   0  0  0  0  0  0  0  0  0  0  0  0
    7.0630   -3.1430   23.0210 C   0  0  0  0  0  0  0  0  0  0  0  0
    5.9600   -2.8930   22.2090 C   0  0  0  0  0  0  0  0  0  0  0  0
  2  4  2  0
  4  5  1  0
  3  7  1  1
  6  9  2  3
  7  9  1  0
  8  9  1  0
  1 10  1  0
 10 11  2  0
  3 12  1  0
 11 12  1  0
 12 13  2  0
 13 14  1  0
 10 15  1  0
 14 15  2  0
  4 16  1  0
 16 17  1  0
 17 18  1  0
  3 19  1  0
 18 19  1  0
 19 20  1  0
 16 21  1  0
 20 21  1  0
M  END
