x0691-x0104
     RDKit          3D

 19 20  0  0  0  0  0  0  0  0999 V2000
    3.8610   -7.0710   25.9710 O   0  0  0  0  0  0  0  0  0  0  0  0
    5.6560   -5.2750   26.8610 O   0  0  0  0  0  0  0  0  0  0  0  0
    5.5500   -4.3790   19.9180 O   0  0  0  0  0  0  0  0  0  0  0  0
    6.3580   -4.1700   20.8390 C   0  0  0  0  0  0  0  0  0  0  0  0
    7.3880   -3.0250   20.7580 C   0  0  0  0  0  0  0  0  0  0  0  0
    3.2160   -0.5410   25.9830 F   0  0  0  0  0  0  0  0  0  0  0  0
    4.6540   -5.6440   25.8830 S   0  0  0  0  0  0  0  0  0  0  0  0
    2.8660   -1.8300   25.9220 C   0  0  0  0  0  0  0  0  0  0  0  0
    3.9150   -2.8890   25.9310 C   0  0  0  0  0  0  0  0  0  0  0  0
    3.4610   -4.3370   25.8610 C   0  0  0  0  0  0  0  0  0  0  0  0
    2.0590   -4.6140   25.7820 C   0  0  0  0  0  0  0  0  0  0  0  0
    1.1210   -3.5410   25.7780 C   0  0  0  0  0  0  0  0  0  0  0  0
    1.5130   -2.1890   25.8500 C   0  0  0  0  0  0  0  0  0  0  0  0
    6.3930   -4.9410   22.0030 N   0  0  0  0  0  0  0  0  0  0  0  0
    5.6490   -6.1550   22.1770 C   0  0  0  0  0  0  0  0  0  0  0  0
    4.6860   -5.9920   23.1720 C   0  0  0  0  0  0  0  0  0  0  0  0
    5.4140   -5.5200   24.4060 N   0  0  0  0  0  0  0  0  0  0  0  0
    6.0660   -4.2010   24.1650 C   0  0  0  0  0  0  0  0  0  0  0  0
    7.0400   -4.4660   23.2400 C   0  0  0  0  0  0  0  0  0  0  0  0
  3  4  2  0
  4  5  1  0
  1  7  2  0
  2  7  2  0
  6  8  1  0
  8  9  2  0
  7 10  1  0
  9 10  1  0
 10 11  2  0
 11 12  1  0
  8 13  1  0
 12 13  2  0
  4 14  1  0
 14 15  1  0
 15 16  1  0
  7 17  1  0
 16 17  1  0
 17 18  1  0
 14 19  1  0
 18 19  1  0
M  END
