x0691-x2776
     RDKit          3D

 51 56  0  0  0  0  0  0  0  0999 V2000
    6.7720   -1.4150   21.9900 N   0  0  0  0  0  0  0  0  0  0  0  0
    6.6920   -4.5740   20.3100 C   0  0  2  0  0  0  0  0  0  0  0  0
    4.7310   -2.9090   21.2460 O   0  0  0  0  0  0  0  0  0  0  0  0
    6.8600   -3.7140   21.4680 C   0  0  1  0  0  0  0  0  0  0  0  0
    7.6260    1.9160   22.8240 N   0  0  0  0  0  0  0  0  0  0  0  0
    8.9260    0.6340   21.4080 O   0  0  0  0  0  0  0  0  0  0  0  0
    5.9780   -2.6070   21.5550 C   0  0  0  0  0  0  0  0  0  0  0  0
   10.7040    6.5500   23.7910 O   0  0  0  0  0  0  0  0  0  0  0  0
    6.5870    0.0290   21.5950 C   0  0  1  0  0  0  0  0  0  0  0  0
   12.6280   -2.9760   24.3830 O   0  0  0  0  0  0  0  0  0  0  0  0
    7.8310    0.8570   21.9200 C   0  0  0  0  0  0  0  0  0  0  0  0
   10.3700    1.6370   23.8980 C   0  0  0  0  0  0  0  0  0  0  0  0
   11.7790    6.5070   24.7340 C   0  0  0  0  0  0  0  0  0  0  0  0
   12.1110   -1.6450   24.3240 C   0  0  1  0  0  0  0  0  0  0  0  0
   12.9520   -0.8540   23.5830 C   0  0  0  0  0  0  0  0  0  0  0  0
   13.2020   -3.2840   25.6400 C   0  0  0  0  0  0  0  0  0  0  0  0
    5.4470   -4.4480   19.6460 O   0  0  0  0  0  0  0  0  0  0  0  0
    4.1070   -6.9140   25.9280 O   0  0  0  0  0  0  0  0  0  0  0  0
    5.8120   -5.2610   26.7700 O   0  0  0  0  0  0  0  0  0  0  0  0
    3.1730   -0.5500   25.9850 F   0  0  0  0  0  0  0  0  0  0  0  0
    4.8170   -5.6610   25.7960 S   0  0  0  0  0  0  0  0  0  0  0  0
    6.3310    0.5190   17.7490 N   0  0  0  0  0  0  0  0  0  0  0  0
    5.2280    1.2820   17.7400 C   0  0  0  0  0  0  0  0  0  0  0  0
    4.4820    1.6810   18.8440 C   0  0  0  0  0  0  0  0  0  0  0  0
    4.9280    1.2590   20.0810 C   0  0  0  0  0  0  0  0  0  0  0  0
    6.1290    0.4290   20.2250 C   0  0  0  0  0  0  0  0  0  0  0  0
    6.7610    0.1070   18.9510 C   0  0  0  0  0  0  0  0  0  0  0  0
    9.7400    2.9660   23.5780 C   0  0  0  0  0  0  0  0  0  0  0  0
   10.5260    4.0960   23.8230 C   0  0  0  0  0  0  0  0  0  0  0  0
   10.0280    5.3740   23.5700 C   0  0  0  0  0  0  0  0  0  0  0  0
    8.7650    5.4930   23.0640 C   0  0  0  0  0  0  0  0  0  0  0  0
    7.9500    4.3810   22.8000 C   0  0  0  0  0  0  0  0  0  0  0  0
    8.4250    3.0880   23.0610 C   0  0  0  0  0  0  0  0  0  0  0  0
    9.2300   -1.8430   21.7840 C   0  0  0  0  0  0  0  0  0  0  0  0
   10.5230   -1.9000   22.3340 C   0  0  0  0  0  0  0  0  0  0  0  0
   10.7280   -1.6290   23.6910 C   0  0  0  0  0  0  0  0  0  0  0  0
    9.6110   -1.3220   24.4730 C   0  0  0  0  0  0  0  0  0  0  0  0
    8.3240   -1.2680   23.9190 C   0  0  0  0  0  0  0  0  0  0  0  0
    8.1130   -1.5190   22.5630 C   0  0  0  0  0  0  0  0  0  0  0  0
    2.8560   -1.8480   25.8780 C   0  0  0  0  0  0  0  0  0  0  0  0
    3.9630   -2.8990   25.8910 C   0  0  0  0  0  0  0  0  0  0  0  0
    3.5800   -4.3760   25.7730 C   0  0  0  0  0  0  0  0  0  0  0  0
    2.2250   -4.6820   25.6530 C   0  0  0  0  0  0  0  0  0  0  0  0
    1.1690   -3.5710   25.6470 C   0  0  0  0  0  0  0  0  0  0  0  0
    1.5120   -2.2200   25.7600 C   0  0  0  0  0  0  0  0  0  0  0  0
    6.5910   -5.1900   21.7230 C   0  0  0  0  0  0  0  0  0  0  0  0
    5.3500   -5.8090   21.9910 C   0  0  0  0  0  0  0  0  0  0  0  0
    4.7190   -5.3050   23.0940 C   0  0  0  0  0  0  0  0  0  0  0  0
    5.5610   -5.6100   24.2800 N   0  0  0  0  0  0  0  0  0  0  0  0
    6.9570   -5.0870   24.1890 C   0  0  0  0  0  0  0  0  0  0  0  0
    7.5760   -5.4640   22.8330 C   0  0  0  0  0  0  0  0  0  0  0  0
  2  4  1  0
  1  7  1  0
  3  7  2  0
  4  7  1  1
  1  9  1  0
  5 11  1  0
  6 11  2  0
  9 11  1  6
  8 13  1  0
 10 14  1  0
 14 15  1  6
 10 16  1  0
  2 17  1  1
 18 21  2  0
 19 21  2  0
 22 23  2  0
 23 24  1  0
 24 25  2  0
  9 26  1  0
 25 26  1  0
 22 27  1  0
 26 27  2  0
 12 28  1  0
 28 29  2  0
  8 30  1  0
 29 30  1  0
 30 31  2  0
 31 32  1  0
  5 33  1  0
 28 33  1  0
 32 33  2  0
 34 35  2  0
 14 36  1  0
 35 36  1  0
 36 37  2  0
 37 38  1  0
  1 39  1  0
 34 39  1  0
 38 39  2  0
 20 40  1  0
 40 41  2  0
 21 42  1  0
 41 42  1  0
 42 43  2  0
 43 44  1  0
 40 45  1  0
 44 45  2  0
  2 46  1  0
  4 46  1  0
 46 47  1  0
 47 48  1  0
 21 49  1  0
 48 49  1  0
 49 50  1  0
 46 51  1  0
 50 51  1  0
M  END
