x0692-x0165
     RDKit          3D

 17 18  0  0  0  0  0  0  0  0999 V2000
   10.9840    2.4160   23.7020 C   0  0  0  0  0  0  0  0  0  0  0  0
    5.4350   -3.9970   19.7120 O   0  0  0  0  0  0  0  0  0  0  0  0
    9.4290   -2.3030   23.9040 C   0  0  0  0  0  0  0  0  0  0  0  0
    6.0140   -2.8990   19.7990 C   0  0  0  0  0  0  0  0  0  0  0  0
    6.3740   -2.1160   18.5660 C   0  0  0  0  0  0  0  0  0  0  0  0
   11.3070    0.9650   23.5550 C   0  0  0  0  0  0  0  0  0  0  0  0
   10.3040    0.0280   23.7890 C   0  0  0  0  0  0  0  0  0  0  0  0
   10.5540   -1.3350   23.6490 C   0  0  0  0  0  0  0  0  0  0  0  0
   11.8300   -1.7640   23.2750 C   0  0  0  0  0  0  0  0  0  0  0  0
   12.8550   -0.8330   23.0380 C   0  0  0  0  0  0  0  0  0  0  0  0
   12.5830    0.5370   23.1810 C   0  0  0  0  0  0  0  0  0  0  0  0
    6.3920   -2.3390   20.9900 N   0  0  0  0  0  0  0  0  0  0  0  0
    7.4870   -1.3470   20.9680 C   0  0  0  0  0  0  0  0  0  0  0  0
    8.5990   -1.8310   21.6510 C   0  0  0  0  0  0  0  0  0  0  0  0
    8.2560   -2.0670   23.0640 N   0  0  0  0  0  0  0  0  0  0  0  0
    7.2000   -3.0760   23.2160 C   0  0  0  0  0  0  0  0  0  0  0  0
    6.0070   -2.8750   22.2960 C   0  0  0  0  0  0  0  0  0  0  0  0
  2  4  2  0
  4  5  1  0
  1  6  1  0
  6  7  2  0
  3  8  1  0
  7  8  1  0
  8  9  2  0
  9 10  1  0
  6 11  1  0
 10 11  2  0
  4 12  1  0
 12 13  1  0
 13 14  1  0
  3 15  1  0
 14 15  1  0
 15 16  1  0
 12 17  1  0
 16 17  1  0
M  END
