x0691-x1493
     RDKit          3D

 20 21  0  0  0  0  0  0  0  0999 V2000
    4.6490   -5.3370   26.9820 O   0  0  0  0  0  0  0  0  0  0  0  0
    5.7810   -6.0350   26.6150 C   0  0  0  0  0  0  0  0  0  0  0  0
    5.2000   -4.6620   19.9130 O   0  0  0  0  0  0  0  0  0  0  0  0
    6.2880   -4.4500   20.4700 C   0  0  0  0  0  0  0  0  0  0  0  0
    7.1930   -3.4240   19.8910 C   0  0  0  0  0  0  0  0  0  0  0  0
    2.6560   -0.3880   26.0660 F   0  0  0  0  0  0  0  0  0  0  0  0
    4.7340   -5.0980   25.5690 S   0  0  2  0  0  0  0  0  0  0  0  0
    6.5170   -6.6750   27.2430 O   0  0  0  0  0  0  0  0  0  0  0  0
    2.4850   -1.7050   25.9440 C   0  0  0  0  0  0  0  0  0  0  0  0
    3.6190   -2.6060   25.8310 C   0  0  0  0  0  0  0  0  0  0  0  0
    3.3630   -4.0940   25.6940 C   0  0  0  0  0  0  0  0  0  0  0  0
    1.9170   -4.5690   25.6770 C   0  0  0  0  0  0  0  0  0  0  0  0
    0.9350   -3.5680   25.7970 C   0  0  0  0  0  0  0  0  0  0  0  0
    1.1920   -2.2150   25.9250 C   0  0  0  0  0  0  0  0  0  0  0  0
    6.5920   -5.2140   21.6270 N   0  0  0  0  0  0  0  0  0  0  0  0
    5.7720   -6.3500   22.0390 C   0  0  0  0  0  0  0  0  0  0  0  0
    4.9090   -6.0040   23.0310 C   0  0  0  0  0  0  0  0  0  0  0  0
    5.6070   -5.4300   24.1970 N   0  0  0  0  0  0  0  0  0  0  0  0
    6.3810   -4.3790   23.7570 C   0  0  0  0  0  0  0  0  0  0  0  0
    7.2740   -4.5880   22.7490 C   0  0  0  0  0  0  0  0  0  0  0  0
  3  4  2  0
  4  5  1  0
  1  7  2  0
  2  7  2  0
  2  8  2  0
  6  9  1  0
  9 10  2  0
  7 11  1  1
 10 11  1  0
 11 12  2  0
 12 13  1  0
  9 14  1  0
 13 14  2  0
  4 15  1  0
 15 16  1  0
 16 17  1  0
  7 18  1  0
 17 18  1  0
 18 19  1  0
 15 20  1  0
 19 20  1  0
M  END
