x0692-x1093
     RDKit          3D

 29 32  0  0  0  0  0  0  0  0999 V2000
   11.0730    2.3330   23.0990 C   0  0  0  0  0  0  0  0  0  0  0  0
    5.3810   -4.1550   19.7620 O   0  0  0  0  0  0  0  0  0  0  0  0
    9.0880   -2.3510   23.8950 C   0  0  0  0  0  0  0  0  0  0  0  0
    6.2350   -3.2280   19.8970 C   0  0  0  0  0  0  0  0  0  0  0  0
    7.2180   -3.0060   18.8040 C   0  0  0  0  0  0  0  0  0  0  0  0
   13.4820   -0.4940   22.8200 C   0  0  0  0  0  0  0  0  0  0  0  0
    7.8730    0.7440   22.1710 O   0  0  0  0  0  0  0  0  0  0  0  0
    7.2430   -0.3310   22.1820 C   0  0  0  0  0  0  0  0  0  0  0  0
   11.2670    0.8340   23.1750 C   0  0  0  0  0  0  0  0  0  0  0  0
   10.2090   -0.0480   23.4680 C   0  0  0  0  0  0  0  0  0  0  0  0
   10.2470   -1.4390   23.5750 C   0  0  0  0  0  0  0  0  0  0  0  0
   11.4970   -1.9180   23.3470 C   0  0  0  0  0  0  0  0  0  0  0  0
   12.4710   -1.1080   23.0790 C   0  0  0  0  0  0  0  0  0  0  0  0
   12.4730    0.2830   22.9710 C   0  0  0  0  0  0  0  0  0  0  0  0
    6.2770   -2.4250   21.0970 N   0  0  0  0  0  0  0  0  0  0  0  0
    7.2890   -1.3310   21.0450 C   0  0  2  0  0  0  0  0  0  0  0  0
    8.5890   -1.8340   21.5280 C   0  0  0  0  0  0  0  0  0  0  0  0
    8.2270   -2.4490   22.8470 N   0  0  0  0  0  0  0  0  0  0  0  0
    7.2690   -3.4970   22.9560 C   0  0  0  0  0  0  0  0  0  0  0  0
    6.1550   -3.0050   22.3140 C   0  0  0  0  0  0  0  0  0  0  0  0
    6.6050    0.3810   17.8940 N   0  0  0  0  0  0  0  0  0  0  0  0
    7.3170   -0.5020   18.6640 C   0  0  0  0  0  0  0  0  0  0  0  0
    6.8770   -0.5500   19.9600 C   0  0  0  0  0  0  0  0  0  0  0  0
    5.8690    0.3170   20.0600 C   0  0  0  0  0  0  0  0  0  0  0  0
    5.6930    0.8440   18.7930 C   0  0  0  0  0  0  0  0  0  0  0  0
    4.6820    1.7290   18.5440 N   0  0  0  0  0  0  0  0  0  0  0  0
    3.9110    2.1710   19.5330 C   0  0  0  0  0  0  0  0  0  0  0  0
    4.0540    1.7120   20.8280 C   0  0  0  0  0  0  0  0  0  0  0  0
    5.0320    0.7650   21.0920 C   0  0  0  0  0  0  0  0  0  0  0  0
  2  4  2  0
  4  5  1  0
  7  8  2  0
  1  9  1  0
  9 10  2  0
  3 11  1  0
 10 11  1  0
 11 12  2  0
  6 13  1  0
 12 13  1  0
  9 14  1  0
 13 14  2  0
  4 15  1  0
 16  8  1  1
 15 16  1  0
 16 17  1  0
  3 18  1  0
 17 18  1  0
 18 19  1  0
 15 20  1  0
 19 20  1  0
 21 22  1  0
 16 23  1  0
 22 23  2  0
 23 24  1  0
 21 25  2  0
 24 25  1  0
 25 26  1  0
 26 27  1  0
 27 28  2  0
 24 29  2  0
 28 29  1  0
M  END
