x0691-x1163
     RDKit          3D

 19 20  0  0  0  0  0  0  0  0999 V2000
    3.9720   -7.0220   25.9560 O   0  0  0  0  0  0  0  0  0  0  0  0
    5.7600   -5.1870   26.7400 O   0  0  0  0  0  0  0  0  0  0  0  0
    5.5220   -4.3630   19.9200 O   0  0  0  0  0  0  0  0  0  0  0  0
    6.3900   -4.2410   20.8010 C   0  0  0  0  0  0  0  0  0  0  0  0
    7.3910   -3.0680   20.7840 C   0  0  0  0  0  0  0  0  0  0  0  0
    3.2150   -0.5200   25.9430 F   0  0  0  0  0  0  0  0  0  0  0  0
    4.7510   -5.5950   25.7890 S   0  0  0  0  0  0  0  0  0  0  0  0
    2.8860   -1.8170   25.8580 C   0  0  0  0  0  0  0  0  0  0  0  0
    3.9570   -2.8560   25.8640 C   0  0  0  0  0  0  0  0  0  0  0  0
    3.5340   -4.3110   25.7700 C   0  0  0  0  0  0  0  0  0  0  0  0
    2.1380   -4.6120   25.6750 C   0  0  0  0  0  0  0  0  0  0  0  0
    1.1750   -3.5560   25.6750 C   0  0  0  0  0  0  0  0  0  0  0  0
    1.5400   -2.1980   25.7670 C   0  0  0  0  0  0  0  0  0  0  0  0
    6.5330   -5.1530   21.8500 N   0  0  0  0  0  0  0  0  0  0  0  0
    5.6340   -6.2460   22.0660 C   0  0  0  0  0  0  0  0  0  0  0  0
    4.7010   -5.9290   23.0580 C   0  0  0  0  0  0  0  0  0  0  0  0
    5.4930   -5.5520   24.2870 N   0  0  0  0  0  0  0  0  0  0  0  0
    6.4300   -4.4110   24.0270 C   0  0  0  0  0  0  0  0  0  0  0  0
    7.3190   -4.8410   23.0490 C   0  0  0  0  0  0  0  0  0  0  0  0
  3  4  2  0
  4  5  1  0
  1  7  2  0
  2  7  2  0
  6  8  1  0
  8  9  2  0
  7 10  1  0
  9 10  1  0
 10 11  2  0
 11 12  1  0
  8 13  1  0
 12 13  2  0
  4 14  1  0
 14 15  1  0
 15 16  1  0
  7 17  1  0
 16 17  1  0
 17 18  1  0
 14 19  1  0
 18 19  1  0
M  END
