x0691-x0387
     RDKit          3D

 34 39  0  0  0  0  0  0  0  0999 V2000
    3.8700   -6.9080   25.5480 O   0  0  0  0  0  0  0  0  0  0  0  0
    5.7060   -5.5660   27.0590 N   0  0  0  0  0  0  0  0  0  0  0  0
    5.3720   -4.6970   19.9630 O   0  0  0  0  0  0  0  0  0  0  0  0
    6.4350   -4.5620   20.6130 C   0  0  0  0  0  0  0  0  0  0  0  0
    7.4480   -3.5630   20.1410 C   0  0  0  0  0  0  0  0  0  0  0  0
    3.3800   -0.5790   25.9490 F   0  0  0  0  0  0  0  0  0  0  0  0
    4.6410   -5.7020   25.7450 S   0  0  2  0  0  0  0  0  0  0  0  0
    8.9440   -5.0750   27.5650 O   0  0  0  0  0  0  0  0  0  0  0  0
    9.9360   -1.2140   24.4530 C   0  0  0  0  0  0  0  0  0  0  0  0
    6.7410   -4.5280   27.2930 C   0  0  0  0  0  0  0  0  0  0  0  0
    8.0200   -5.0610   26.7810 C   0  0  2  0  0  0  0  0  0  0  0  0
    2.9740   -1.8540   25.8800 C   0  0  0  0  0  0  0  0  0  0  0  0
    3.9400   -3.0410   25.8480 C   0  0  0  0  0  0  0  0  0  0  0  0
    3.4650   -4.3670   25.7750 C   0  0  0  0  0  0  0  0  0  0  0  0
    2.0970   -4.5510   25.7300 C   0  0  0  0  0  0  0  0  0  0  0  0
    1.1520   -3.5450   25.7550 C   0  0  0  0  0  0  0  0  0  0  0  0
    1.4960   -2.2530   25.8270 C   0  0  0  0  0  0  0  0  0  0  0  0
    6.6440   -5.3430   21.7660 N   0  0  0  0  0  0  0  0  0  0  0  0
    5.7260   -6.3260   22.0630 C   0  0  0  0  0  0  0  0  0  0  0  0
    4.8430   -6.1620   23.1240 C   0  0  0  0  0  0  0  0  0  0  0  0
    5.5030   -5.5510   24.2840 N   0  0  0  0  0  0  0  0  0  0  0  0
    6.1630   -4.3800   23.9600 C   0  0  0  0  0  0  0  0  0  0  0  0
    7.1880   -4.7780   22.9530 C   0  0  0  0  0  0  0  0  0  0  0  0
    9.2690   -4.2820   26.5220 C   0  0  1  0  0  0  0  0  0  0  0  0
    8.5460   -4.3870   25.4450 C   0  0  2  0  0  0  0  0  0  0  0  0
    8.3920   -3.0980   24.9620 C   0  0  0  0  0  0  0  0  0  0  0  0
    9.7270   -2.6790   24.5590 N   0  0  0  0  0  0  0  0  0  0  0  0
   10.8820   -3.4300   25.0990 C   0  0  0  0  0  0  0  0  0  0  0  0
   10.5170   -4.4920   25.9480 C   0  0  0  0  0  0  0  0  0  0  0  0
   11.9890    0.0440   23.8430 C   0  0  0  0  0  0  0  0  0  0  0  0
   11.2040   -0.9970   23.6750 C   0  0  0  0  0  0  0  0  0  0  0  0
   11.6980   -1.8200   22.7200 C   0  0  0  0  0  0  0  0  0  0  0  0
   13.1870   -1.4130   21.9240 S   0  0  0  0  0  0  0  0  0  0  0  0
   13.0380   -0.0730   22.9890 C   0  0  0  0  0  0  0  0  0  0  0  0
  3  4  2  0
  4  5  1  0
  1  7  2  0
  2  7  2  0
  2 10  1  0
  8 11  1  0
 11 10  1  1
  6 12  1  0
 12 13  2  0
  7 14  1  1
 13 14  1  0
 14 15  2  0
 15 16  1  0
 12 17  1  0
 16 17  2  0
  4 18  1  0
 18 19  1  0
 19 20  1  0
  7 21  1  0
 20 21  1  0
 21 22  1  0
 18 23  1  0
 22 23  1  0
 24  8  1  0
 11 24  1  0
 11 25  1  0
 24 25  1  0
 25 26  1  1
  9 27  1  0
 26 27  1  0
 27 28  1  0
 24 29  1  1
 28 29  1  0
  9 31  1  0
 30 31  1  0
 31 32  2  0
 32 33  1  0
 30 34  2  0
 33 34  1  0
M  END
