x0692-x2119
     RDKit          3D

 17 18  0  0  0  0  0  0  0  0999 V2000
   10.9040    2.2450   23.8160 C   0  0  0  0  0  0  0  0  0  0  0  0
    5.4210   -4.1300   19.7340 O   0  0  0  0  0  0  0  0  0  0  0  0
    9.4930   -2.7050   23.6890 C   0  0  0  0  0  0  0  0  0  0  0  0
    6.2980   -3.2260   19.8230 C   0  0  0  0  0  0  0  0  0  0  0  0
    7.2640   -2.9920   18.7280 C   0  0  0  0  0  0  0  0  0  0  0  0
   11.3450    0.8420   23.5580 C   0  0  0  0  0  0  0  0  0  0  0  0
   10.2660   -0.2120   23.7580 C   0  0  0  0  0  0  0  0  0  0  0  0
   10.5530   -1.6440   23.5180 C   0  0  0  0  0  0  0  0  0  0  0  0
   11.8590   -1.7730   23.1340 C   0  0  0  0  0  0  0  0  0  0  0  0
   12.8010   -0.7790   22.9730 C   0  0  0  0  0  0  0  0  0  0  0  0
   12.8040    0.6390   23.1220 C   0  0  0  0  0  0  0  0  0  0  0  0
    6.3920   -2.4350   20.9890 N   0  0  0  0  0  0  0  0  0  0  0  0
    7.3760   -1.3820   21.0810 C   0  0  0  0  0  0  0  0  0  0  0  0
    8.5820   -1.6570   21.7470 C   0  0  0  0  0  0  0  0  0  0  0  0
    8.3180   -2.3160   23.0570 N   0  0  0  0  0  0  0  0  0  0  0  0
    7.4060   -3.4420   22.9220 C   0  0  0  0  0  0  0  0  0  0  0  0
    6.1400   -3.1140   22.2480 C   0  0  0  0  0  0  0  0  0  0  0  0
  2  4  2  0
  4  5  1  0
  1  6  1  0
  6  7  2  0
  3  8  1  0
  7  8  1  0
  8  9  2  0
  9 10  1  0
  6 11  1  0
 10 11  2  0
  4 12  1  0
 12 13  1  0
 13 14  1  0
  3 15  1  0
 14 15  1  0
 15 16  1  0
 12 17  1  0
 16 17  1  0
M  END
