x0691-x0395
     RDKit          3D

 35 38  0  0  0  0  0  0  0  0999 V2000
    4.2460   -6.7090   25.8900 O   0  0  0  0  0  0  0  0  0  0  0  0
    6.1440   -4.7670   26.5860 N   0  0  0  0  0  0  0  0  0  0  0  0
    5.3070   -4.6250   19.9400 O   0  0  0  0  0  0  0  0  0  0  0  0
    6.3900   -4.5210   20.5600 C   0  0  0  0  0  0  0  0  0  0  0  0
    7.3900   -3.5250   20.0800 C   0  0  0  0  0  0  0  0  0  0  0  0
    3.1480   -0.6510   25.9580 F   0  0  0  0  0  0  0  0  0  0  0  0
    4.8680   -5.4120   25.6990 S   0  0  2  0  0  0  0  0  0  0  0  0
    9.4100   -5.0700   26.4920 C   0  0  0  0  0  0  0  0  0  0  0  0
    9.0620   -1.2470   22.8460 C   0  0  0  0  0  0  0  0  0  0  0  0
   13.5680   -1.6080   21.5570 F   0  0  0  0  0  0  0  0  0  0  0  0
    6.9720   -5.5730   27.3660 C   0  0  0  0  0  0  0  0  0  0  0  0
    8.2570   -5.8870   26.5670 C   0  0  0  0  0  0  0  0  0  0  0  0
    2.8300   -1.9490   25.8490 C   0  0  0  0  0  0  0  0  0  0  0  0
    3.8350   -2.9190   25.8240 C   0  0  0  0  0  0  0  0  0  0  0  0
    3.6140   -4.2670   25.7180 C   0  0  0  0  0  0  0  0  0  0  0  0
    2.2770   -4.6200   25.6290 C   0  0  0  0  0  0  0  0  0  0  0  0
    1.2650   -3.7190   25.6460 C   0  0  0  0  0  0  0  0  0  0  0  0
    1.5190   -2.3320   25.7610 C   0  0  0  0  0  0  0  0  0  0  0  0
    6.6320   -5.3440   21.6730 N   0  0  0  0  0  0  0  0  0  0  0  0
    5.6490   -6.3620   21.9790 C   0  0  0  0  0  0  0  0  0  0  0  0
    4.7150   -5.9740   23.0410 C   0  0  0  0  0  0  0  0  0  0  0  0
    5.5020   -5.3920   24.1320 N   0  0  0  0  0  0  0  0  0  0  0  0
    6.2630   -4.3060   23.7630 C   0  0  0  0  0  0  0  0  0  0  0  0
    7.1630   -4.8360   22.8150 C   0  0  0  0  0  0  0  0  0  0  0  0
    9.0970   -3.8840   25.6700 C   0  0  0  0  0  0  0  0  0  0  0  0
    8.1920   -2.9650   26.0230 N   0  0  0  0  0  0  0  0  0  0  0  0
    8.0850   -1.9600   25.0950 N   0  0  0  0  0  0  0  0  0  0  0  0
    8.9110   -2.1430   24.0480 C   0  0  0  0  0  0  0  0  0  0  0  0
    9.8660   -3.5760   24.1720 S   0  0  0  0  0  0  0  0  0  0  0  0
   10.7040    0.1970   23.8240 C   0  0  0  0  0  0  0  0  0  0  0  0
   11.8150    0.9580   23.4780 C   0  0  0  0  0  0  0  0  0  0  0  0
   12.7680    0.2460   22.7960 C   0  0  0  0  0  0  0  0  0  0  0  0
   12.5770   -0.9990   22.2150 C   0  0  0  0  0  0  0  0  0  0  0  0
   11.3410   -1.6150   22.3060 C   0  0  0  0  0  0  0  0  0  0  0  0
   10.3000   -0.6400   22.6850 N   0  0  0  0  0  0  0  0  0  0  0  0
  3  4  2  0
  4  5  1  0
  1  7  2  0
  2  7  2  0
  2 11  1  0
  8 12  1  0
 11 12  1  0
  6 13  1  0
 13 14  2  0
  7 15  1  6
 14 15  1  0
 15 16  2  0
 16 17  1  0
 13 18  1  0
 17 18  2  0
  4 19  1  0
 19 20  1  0
 20 21  1  0
  7 22  1  0
 21 22  1  0
 22 23  1  0
 19 24  1  0
 23 24  1  0
  8 25  1  0
 25 26  2  0
 26 27  1  0
  9 28  1  0
 27 28  2  0
 25 29  1  0
 28 29  1  0
 30 31  1  0
 31 32  1  0
 10 33  1  0
 32 33  2  0
 33 34  1  0
  9 35  1  0
 30 35  1  0
 34 35  1  0
M  END
