x0708-x1348
     RDKit          3D

 27 30  0  0  0  0  0  0  0  0999 V2000
    6.9390   -4.3340   21.2490 N   0  0  0  0  0  0  0  0  0  0  0  0
    7.3990   -3.1600   19.1080 C   0  0  0  0  0  0  0  0  0  0  0  0
    5.2570   -4.0570   19.6710 O   0  0  0  0  0  0  0  0  0  0  0  0
    6.4410   -3.8660   20.0250 C   0  0  0  0  0  0  0  0  0  0  0  0
    8.0470   -3.6360   21.6790 N   0  0  0  0  0  0  0  0  0  0  0  0
    6.6680   -2.6110   23.3120 O   0  0  0  0  0  0  0  0  0  0  0  0
    7.8330   -2.7510   22.6450 C   0  0  0  0  0  0  0  0  0  0  0  0
    7.6170   -5.6590   27.7640 C   0  0  0  0  0  0  0  0  0  0  0  0
    7.1770   -4.8660   26.6570 O   0  0  0  0  0  0  0  0  0  0  0  0
    8.9930   -1.9640   22.8130 C   0  0  0  0  0  0  0  0  0  0  0  0
   10.3520   -2.1430   22.2120 C   0  0  0  0  0  0  0  0  0  0  0  0
   11.2890   -1.0810   22.5930 C   0  0  0  0  0  0  0  0  0  0  0  0
   10.6250   -0.1740   23.4390 C   0  0  0  0  0  0  0  0  0  0  0  0
    8.9750   -0.5810   23.7890 S   0  0  0  0  0  0  0  0  0  0  0  0
   12.6220   -0.8580   22.2540 C   0  0  0  0  0  0  0  0  0  0  0  0
   13.2670    0.2540   22.7180 C   0  0  0  0  0  0  0  0  0  0  0  0
   12.5940    1.1060   23.5060 C   0  0  0  0  0  0  0  0  0  0  0  0
   11.2840    0.9370   23.9090 C   0  0  0  0  0  0  0  0  0  0  0  0
    6.1630   -5.5070   25.9770 C   0  0  0  0  0  0  0  0  0  0  0  0
    6.0080   -5.4310   24.5210 C   0  0  0  0  0  0  0  0  0  0  0  0
    4.8660   -6.1910   23.9720 C   0  0  0  0  0  0  0  0  0  0  0  0
    4.0260   -6.9050   24.7840 C   0  0  0  0  0  0  0  0  0  0  0  0
    4.2210   -6.9360   26.1670 C   0  0  0  0  0  0  0  0  0  0  0  0
    5.2840   -6.2420   26.7570 C   0  0  0  0  0  0  0  0  0  0  0  0
    6.7860   -4.7510   23.6360 N   0  0  0  0  0  0  0  0  0  0  0  0
    6.3170   -4.9240   22.3190 C   0  0  0  0  0  0  0  0  0  0  0  0
    4.9460   -5.9020   22.1280 S   0  0  0  0  0  0  0  0  0  0  0  0
  1  4  1  0
  2  4  1  0
  3  4  2  0
  1  5  1  0
  5  7  1  0
  6  7  2  0
  8  9  1  0
  7 10  1  0
 10 11  2  0
 11 12  1  0
 12 13  2  0
 10 14  1  0
 13 14  1  0
 12 15  1  0
 15 16  2  0
 16 17  1  0
 13 18  1  0
 17 18  2  0
  9 19  1  0
 19 20  2  0
 20 21  1  0
 21 22  2  0
 22 23  1  0
 19 24  1  0
 23 24  2  0
 20 25  1  0
  1 26  1  0
 25 26  2  0
 21 27  1  0
 26 27  1  0
M  END
