x0708-x0991
     RDKit          3D

 20 21  0  0  0  0  0  0  0  0999 V2000
    6.6750   -4.6240   21.2470 N   0  0  0  0  0  0  0  0  0  0  0  0
    7.5780   -3.1320   19.3450 C   0  0  0  0  0  0  0  0  0  0  0  0
    5.3310   -3.8380   19.5430 O   0  0  0  0  0  0  0  0  0  0  0  0
    6.4740   -3.8730   20.0590 C   0  0  0  0  0  0  0  0  0  0  0  0
    7.9330   -4.5330   21.9280 N   0  0  0  0  0  0  0  0  0  0  0  0
    7.0580   -2.7260   22.2570 O   0  0  0  0  0  0  0  0  0  0  0  0
    8.0990   -3.4580   22.7170 C   0  0  1  0  0  0  0  0  0  0  0  0
    9.8920   -5.3980   24.6260 N   0  0  0  0  0  0  0  0  0  0  0  0
    7.7350   -4.2460   23.9670 C   0  0  0  0  0  0  0  0  0  0  0  0
    8.3790   -4.4560   26.4630 N   0  0  0  0  0  0  0  0  0  0  0  0
    8.6810   -4.6900   25.0510 C   0  0  0  0  0  0  0  0  0  0  0  0
    8.8500   -2.2320   23.2880 C   0  0  0  0  0  0  0  0  0  0  0  0
   10.0090   -2.5240   22.4000 C   0  0  0  0  0  0  0  0  0  0  0  0
   10.9220   -1.5230   22.6660 C   0  0  0  0  0  0  0  0  0  0  0  0
   10.5160   -0.5600   23.6400 C   0  0  0  0  0  0  0  0  0  0  0  0
    8.9300   -0.9000   24.2990 S   0  0  0  0  0  0  0  0  0  0  0  0
   12.3360   -1.2380   22.1020 C   0  0  0  0  0  0  0  0  0  0  0  0
   12.9880   -0.1580   22.5490 C   0  0  0  0  0  0  0  0  0  0  0  0
   12.5500    0.7600   23.4740 C   0  0  0  0  0  0  0  0  0  0  0  0
   11.3110    0.5290   24.0080 C   0  0  0  0  0  0  0  0  0  0  0  0
  1  4  1  0
  2  4  1  0
  3  4  2  0
  1  5  1  0
  5  7  1  0
  7  6  1  6
  7  9  1  0
  8 11  2  3
  9 11  1  0
 10 11  1  0
  7 12  1  0
 12 13  2  0
 13 14  1  0
 14 15  2  0
 12 16  1  0
 15 16  1  0
 14 17  1  0
 17 18  2  0
 18 19  1  0
 15 20  1  0
 19 20  2  0
M  END
