x0708-x0426
     RDKit          3D

 37 40  0  0  0  0  0  0  0  0999 V2000
    6.6490   -4.7930   21.2820 N   0  0  0  0  0  0  0  0  0  0  0  0
    7.3210   -3.1680   19.4080 C   0  0  0  0  0  0  0  0  0  0  0  0
    5.1710   -4.0750   19.6700 O   0  0  0  0  0  0  0  0  0  0  0  0
    6.3280   -4.0210   20.1350 C   0  0  0  0  0  0  0  0  0  0  0  0
    7.7160   -4.3730   22.1420 N   0  0  0  0  0  0  0  0  0  0  0  0
    6.4410   -2.5370   22.7260 N   0  0  0  0  0  0  0  0  0  0  0  0
    7.7190   -3.0880   22.5250 C   0  0  0  0  0  0  0  0  0  0  0  0
    2.1090    1.6590   23.9340 C   0  0  0  0  0  0  0  0  0  0  0  0
    2.0510    0.4530   24.1380 O   0  0  0  0  0  0  0  0  0  0  0  0
    3.0470    2.1960   23.1360 N   0  0  0  0  0  0  0  0  0  0  0  0
    3.7440    1.2410   22.2770 C   0  0  1  0  0  0  0  0  0  0  0  0
    3.9190    2.0650   21.0010 C   0  0  0  0  0  0  0  0  0  0  0  0
    2.7740    4.1210   25.1420 F   0  0  0  0  0  0  0  0  0  0  0  0
    6.3460   -1.1290   23.1210 C   0  0  0  0  0  0  0  0  0  0  0  0
    5.0860   -0.5630   23.1080 C   0  0  0  0  0  0  0  0  0  0  0  0
    5.0880    0.7850   22.8670 C   0  0  0  0  0  0  0  0  0  0  0  0
    8.8950   -2.2410   22.7310 C   0  0  0  0  0  0  0  0  0  0  0  0
   10.1010   -2.2860   22.1480 C   0  0  0  0  0  0  0  0  0  0  0  0
   11.0260   -1.3500   22.5200 C   0  0  0  0  0  0  0  0  0  0  0  0
   10.5100   -0.4830   23.4710 C   0  0  0  0  0  0  0  0  0  0  0  0
    8.8920   -0.9420   23.8490 S   0  0  0  0  0  0  0  0  0  0  0  0
   12.4680   -1.0280   22.1390 C   0  0  0  0  0  0  0  0  0  0  0  0
   13.1820    0.0870   22.7000 C   0  0  0  0  0  0  0  0  0  0  0  0
   12.5160    0.8490   23.6050 C   0  0  0  0  0  0  0  0  0  0  0  0
   11.2130    0.5770   24.0020 C   0  0  0  0  0  0  0  0  0  0  0  0
    1.4880    3.7280   25.1680 C   0  0  0  0  0  0  0  0  0  0  0  0
    1.0810    2.5460   24.6010 C   0  0  0  0  0  0  0  0  0  0  0  0
   -0.2500    2.1610   24.6420 C   0  0  0  0  0  0  0  0  0  0  0  0
   -1.1650    2.9900   25.2650 C   0  0  0  0  0  0  0  0  0  0  0  0
   -0.7790    4.1950   25.8510 C   0  0  0  0  0  0  0  0  0  0  0  0
    0.5660    4.5640   25.7980 C   0  0  0  0  0  0  0  0  0  0  0  0
    5.6830    0.3340   20.2390 C   0  0  0  0  0  0  0  0  0  0  0  0
    6.4520   -0.1530   19.1790 C   0  0  0  0  0  0  0  0  0  0  0  0
    6.4410    0.3050   17.9210 N   0  0  0  0  0  0  0  0  0  0  0  0
    5.5950    1.3240   17.7150 C   0  0  0  0  0  0  0  0  0  0  0  0
    4.7870    1.8920   18.6690 C   0  0  0  0  0  0  0  0  0  0  0  0
    4.8120    1.4110   19.9700 C   0  0  0  0  0  0  0  0  0  0  0  0
  1  4  1  0
  2  4  1  0
  3  4  2  0
  1  5  1  0
  5  7  1  0
  6  7  2  3
  8  9  2  0
  8 10  1  0
 10 11  1  0
 11 12  1  6
  6 14  1  0
 14 15  1  0
 11 16  1  0
 15 16  1  0
  7 17  1  0
 17 18  2  0
 18 19  1  0
 19 20  2  0
 17 21  1  0
 20 21  1  0
 19 22  1  0
 22 23  2  0
 23 24  1  0
 20 25  1  0
 24 25  2  0
 13 26  1  0
  8 27  1  0
 26 27  2  0
 27 28  1  0
 28 29  2  0
 29 30  1  0
 26 31  1  0
 30 31  2  0
 32 33  2  0
 33 34  1  0
 34 35  2  0
 35 36  1  0
 12 37  1  0
 32 37  1  0
 36 37  2  0
M  END
