x0705-x0397
     RDKit          3D

 28 31  0  0  0  0  0  0  0  0999 V2000
    7.9880   -0.9900   20.8370 C   0  0  0  0  0  0  0  0  0  0  0  0
    7.3190   -2.0150   20.0510 N   0  0  0  0  0  0  0  0  0  0  0  0
    6.9940   -1.6300   18.6840 C   0  0  0  0  0  0  0  0  0  0  0  0
    3.6890    2.1930   19.3580 C   0  0  0  0  0  0  0  0  0  0  0  0
    6.6210   -3.0710   20.5950 C   0  0  0  0  0  0  0  0  0  0  0  0
    5.6140   -3.5130   20.0200 O   0  0  0  0  0  0  0  0  0  0  0  0
    1.1440   -2.5130   27.8410 C   0  0  0  0  0  0  0  0  0  0  0  0
    7.2760   -1.5780   26.1370 O   0  0  0  0  0  0  0  0  0  0  0  0
    6.3290   -1.9270   25.4460 C   0  0  0  0  0  0  0  0  0  0  0  0
    5.1170    0.0070   19.4810 C   0  0  0  0  0  0  0  0  0  0  0  0
    6.1720   -0.3860   18.6320 C   0  0  0  0  0  0  0  0  0  0  0  0
    6.3890    0.5290   17.6900 N   0  0  0  0  0  0  0  0  0  0  0  0
    5.4840    1.5350   17.9070 O   0  0  0  0  0  0  0  0  0  0  0  0
    4.7220    1.2200   18.9810 C   0  0  0  0  0  0  0  0  0  0  0  0
    6.2220   -5.5900   23.4020 C   0  0  0  0  0  0  0  0  0  0  0  0
    6.1350   -4.2140   22.7500 C   0  0  0  0  0  0  0  0  0  0  0  0
    5.3110   -5.4090   22.2420 C   0  0  0  0  0  0  0  0  0  0  0  0
    2.5030   -2.3740   27.2290 C   0  0  0  0  0  0  0  0  0  0  0  0
    2.7130   -1.4580   26.1940 C   0  0  0  0  0  0  0  0  0  0  0  0
    3.9690   -1.3200   25.6190 C   0  0  0  0  0  0  0  0  0  0  0  0
    5.0250   -2.1040   26.0840 C   0  0  0  0  0  0  0  0  0  0  0  0
    4.8410   -3.0230   27.1140 C   0  0  0  0  0  0  0  0  0  0  0  0
    3.5760   -3.1580   27.6870 C   0  0  0  0  0  0  0  0  0  0  0  0
    7.0410   -3.6480   21.7780 N   0  0  0  0  0  0  0  0  0  0  0  0
    5.4320   -3.0950   23.5210 C   0  0  0  0  0  0  0  0  0  0  0  0
    6.4130   -2.1460   24.0820 N   0  0  0  0  0  0  0  0  0  0  0  0
    7.6570   -1.8590   23.3400 C   0  0  0  0  0  0  0  0  0  0  0  0
    8.1690   -3.0200   22.4830 C   0  0  0  0  0  0  0  0  0  0  0  0
  1  2  1  0
  2  3  1  0
  2  5  1  0
  5  6  2  0
  8  9  2  0
  3 11  1  0
 10 11  1  0
 11 12  2  0
 12 13  1  0
  4 14  1  0
 10 14  2  0
 13 14  1  0
 15 16  1  0
 15 17  1  0
 16 17  1  0
  7 18  1  0
 18 19  2  0
 19 20  1  0
  9 21  1  0
 20 21  2  0
 21 22  1  0
 18 23  1  0
 22 23  2  0
  5 24  1  0
 16 24  1  0
 16 25  1  0
  9 26  1  0
 25 26  1  0
 26 27  1  0
 24 28  1  0
 27 28  1  0
M  END
