x0708-x1308
     RDKit          3D

 32 38  0  0  0  0  0  0  0  0999 V2000
    6.9640   -4.5080   20.9400 N   0  0  0  0  0  0  0  0  0  0  0  0
    7.3700   -3.1240   18.9870 C   0  0  0  0  0  0  0  0  0  0  0  0
    5.1930   -3.9080   19.5720 O   0  0  0  0  0  0  0  0  0  0  0  0
    6.4070   -3.8470   19.8530 C   0  0  0  0  0  0  0  0  0  0  0  0
    7.6780   -3.8970   21.8010 C   0  0  2  0  0  0  0  0  0  0  0  0
    6.2150   -1.9750   22.0370 O   0  0  0  0  0  0  0  0  0  0  0  0
    7.3460   -2.6910   22.4910 C   0  0  2  0  0  0  0  0  0  0  0  0
    0.7010   -1.1160   26.4330 Cl  0  0  0  0  0  0  0  0  0  0  0  0
    6.0970   -5.2840   26.9600 O   0  0  0  0  0  0  0  0  0  0  0  0
    4.4130   -6.9980   26.2840 O   0  0  0  0  0  0  0  0  0  0  0  0
    5.0120   -5.6280   26.0920 S   0  0  0  0  0  0  0  0  0  0  0  0
    8.5620   -1.9330   22.8490 C   0  0  0  0  0  0  0  0  0  0  0  0
    9.8310   -2.2460   22.0930 C   0  0  0  0  0  0  0  0  0  0  0  0
   10.9360   -1.3340   22.5310 C   0  0  0  0  0  0  0  0  0  0  0  0
   10.4230   -0.4640   23.5280 C   0  0  0  0  0  0  0  0  0  0  0  0
    8.7660   -0.6940   23.9730 S   0  0  0  0  0  0  0  0  0  0  0  0
   12.2920   -1.2120   22.1260 C   0  0  0  0  0  0  0  0  0  0  0  0
   13.0910   -0.2260   22.6870 C   0  0  0  0  0  0  0  0  0  0  0  0
   12.5470    0.5800   23.6080 C   0  0  0  0  0  0  0  0  0  0  0  0
   11.2540    0.4920   24.0540 C   0  0  0  0  0  0  0  0  0  0  0  0
    6.3920   -4.9700   22.0480 C   0  0  1  0  0  0  0  0  0  0  0  0
    6.9060   -4.2000   22.9990 C   0  0  1  0  0  0  0  0  0  0  0  0
    6.8290   -4.7410   24.3210 C   0  0  0  0  0  0  0  0  0  0  0  0
    5.5400   -5.4320   24.4760 N   0  0  0  0  0  0  0  0  0  0  0  0
    5.1850   -6.3110   23.4560 C   0  0  0  0  0  0  0  0  0  0  0  0
    6.0520   -6.2740   22.3760 C   0  0  0  0  0  0  0  0  0  0  0  0
    4.1580   -3.0730   26.5440 C   0  0  0  0  0  0  0  0  0  0  0  0
    3.2080   -2.0960   26.6130 C   0  0  0  0  0  0  0  0  0  0  0  0
    1.8790   -2.3560   26.3230 C   0  0  0  0  0  0  0  0  0  0  0  0
    1.5220   -3.6370   25.9490 C   0  0  0  0  0  0  0  0  0  0  0  0
    2.4640   -4.6590   25.8670 C   0  0  0  0  0  0  0  0  0  0  0  0
    3.7870   -4.3610   26.1730 C   0  0  0  0  0  0  0  0  0  0  0  0
  1  4  1  0
  2  4  1  0
  3  4  2  0
  5  1  1  1
  5  7  1  0
  7  6  1  6
  9 11  2  0
 10 11  2  0
  7 12  1  0
 12 13  2  0
 13 14  1  0
 14 15  2  0
 12 16  1  0
 15 16  1  0
 14 17  1  0
 17 18  2  0
 18 19  1  0
 15 20  1  0
 19 20  2  0
 21  1  1  0
  5 21  1  0
  5 22  1  0
  7 22  1  0
 21 22  1  0
 22 23  1  1
 11 24  1  0
 23 24  1  0
 24 25  1  0
 21 26  1  1
 25 26  1  0
 27 28  2  0
  8 29  1  0
 28 29  1  0
 29 30  2  0
 30 31  1  0
 11 32  1  0
 27 32  1  0
 31 32  2  0
M  END
