x0708-x0691
     RDKit          3D

 32 36  0  0  0  0  0  0  0  0999 V2000
    7.0790   -4.6630   21.1670 N   0  0  0  0  0  0  0  0  0  0  0  0
    7.3570   -3.1680   19.2350 C   0  0  0  0  0  0  0  0  0  0  0  0
    5.2660   -4.1300   19.7580 O   0  0  0  0  0  0  0  0  0  0  0  0
    6.4660   -3.9870   20.0860 C   0  0  0  0  0  0  0  0  0  0  0  0
    7.6200   -4.0100   22.3470 N   0  0  0  0  0  0  0  0  0  0  0  0
    6.2870   -2.1010   22.4540 O   0  0  0  0  0  0  0  0  0  0  0  0
    7.4950   -2.6900   22.4940 C   0  0  0  0  0  0  0  0  0  0  0  0
    3.8610   -6.9300   26.0110 O   0  0  0  0  0  0  0  0  0  0  0  0
    5.6150   -5.3960   26.8890 O   0  0  0  0  0  0  0  0  0  0  0  0
    3.2400   -0.6310   25.9950 F   0  0  0  0  0  0  0  0  0  0  0  0
    4.5380   -5.6710   25.8600 S   0  0  0  0  0  0  0  0  0  0  0  0
    8.7540   -1.9390   22.7210 C   0  0  0  0  0  0  0  0  0  0  0  0
   10.0000   -2.2770   21.9920 C   0  0  0  0  0  0  0  0  0  0  0  0
   10.9370   -1.2440   22.5390 C   0  0  0  0  0  0  0  0  0  0  0  0
   10.4360   -0.2650   23.5350 C   0  0  0  0  0  0  0  0  0  0  0  0
    8.7810   -0.6040   23.8720 S   0  0  0  0  0  0  0  0  0  0  0  0
   12.3980   -1.1690   22.0840 C   0  0  0  0  0  0  0  0  0  0  0  0
   13.0700   -0.1210   22.6780 C   0  0  0  0  0  0  0  0  0  0  0  0
   12.5060    0.7710   23.5980 C   0  0  0  0  0  0  0  0  0  0  0  0
   11.2430    0.7130   24.0320 C   0  0  0  0  0  0  0  0  0  0  0  0
    2.8490   -1.9070   25.9150 C   0  0  0  0  0  0  0  0  0  0  0  0
    3.7850   -2.9250   25.9260 C   0  0  0  0  0  0  0  0  0  0  0  0
    3.3740   -4.3390   25.8400 C   0  0  0  0  0  0  0  0  0  0  0  0
    1.9250   -4.5970   25.7360 C   0  0  0  0  0  0  0  0  0  0  0  0
    1.0600   -3.5230   25.7320 C   0  0  0  0  0  0  0  0  0  0  0  0
    1.4940   -2.2010   25.8210 C   0  0  0  0  0  0  0  0  0  0  0  0
    6.6090   -5.5870   22.0400 N   0  0  0  0  0  0  0  0  0  0  0  0
    5.2810   -5.8080   22.0890 C   0  0  0  0  0  0  0  0  0  0  0  0
    4.6250   -6.0700   23.2790 C   0  0  0  0  0  0  0  0  0  0  0  0
    5.2210   -5.5960   24.3320 N   0  0  0  0  0  0  0  0  0  0  0  0
    6.2120   -4.7190   24.1770 C   0  0  0  0  0  0  0  0  0  0  0  0
    7.1220   -5.0460   23.2310 C   0  0  2  0  0  0  0  0  0  0  0  0
  1  4  1  0
  2  4  1  0
  3  4  2  0
  1  5  1  0
  5  7  1  0
  6  7  2  0
  8 11  2  0
  9 11  2  0
  7 12  1  0
 12 13  2  0
 13 14  1  0
 14 15  2  0
 12 16  1  0
 15 16  1  0
 14 17  1  0
 17 18  2  0
 18 19  1  0
 15 20  1  0
 19 20  2  0
 10 21  1  0
 21 22  2  0
 11 23  1  0
 22 23  1  0
 23 24  2  0
 24 25  1  0
 21 26  1  0
 25 26  2  0
  1 27  1  0
 27 28  1  0
 28 29  1  0
 11 30  1  0
 29 30  1  0
 30 31  1  0
  5 32  1  0
 27 32  1  0
 32 31  1  1
M  END
