x0705-x2912
     RDKit          3D

 39 45  0  0  0  0  0  0  0  0999 V2000
    7.0450   -0.6590   20.9060 N   0  0  0  0  0  0  0  0  0  0  0  0
    7.4860   -0.4840   23.5690 C   0  0  2  0  0  0  0  0  0  0  0  0
    8.6880    0.8950   21.1290 O   0  0  0  0  0  0  0  0  0  0  0  0
    8.6550   -0.8480   22.7500 C   0  0  1  0  0  0  0  0  0  0  0  0
    8.1510   -0.1440   21.5240 C   0  0  0  0  0  0  0  0  0  0  0  0
   13.6730   -2.7140   20.6460 N   0  0  0  0  0  0  0  0  0  0  0  0
    4.8300    1.2490   21.6470 C   0  0  0  0  0  0  0  0  0  0  0  0
   13.0970   -1.8950   21.5160 C   0  0  0  0  0  0  0  0  0  0  0  0
    1.3690   -2.8420   27.9420 C   0  0  0  0  0  0  0  0  0  0  0  0
    7.1390   -2.1460   26.6550 O   0  0  0  0  0  0  0  0  0  0  0  0
    5.8330   -3.5940   19.5640 O   0  0  0  0  0  0  0  0  0  0  0  0
    6.3910   -1.7820   25.7910 C   0  0  2  0  0  0  0  0  0  0  0  0
    6.6910   -3.6700   20.5060 C   0  0  0  0  0  0  0  0  0  0  0  0
    7.8430   -4.5240   20.4160 C   0  0  0  0  0  0  0  0  0  0  0  0
    6.9660   -0.6630   24.9550 C   0  0  2  0  0  0  0  0  0  0  0  0
    6.1320    0.6490   17.5390 N   0  0  0  0  0  0  0  0  0  0  0  0
    5.1460    1.4990   17.8850 C   0  0  0  0  0  0  0  0  0  0  0  0
    4.6850    1.7250   19.1960 C   0  0  0  0  0  0  0  0  0  0  0  0
    5.2940    1.0210   20.2290 C   0  0  0  0  0  0  0  0  0  0  0  0
    6.3690    0.0870   19.9120 C   0  0  0  0  0  0  0  0  0  0  0  0
    6.7050   -0.0210   18.5350 C   0  0  0  0  0  0  0  0  0  0  0  0
   10.5970    0.6860   23.3190 C   0  0  0  0  0  0  0  0  0  0  0  0
   11.9780    0.9800   23.2860 C   0  0  0  0  0  0  0  0  0  0  0  0
   12.8730    0.1230   22.7100 C   0  0  0  0  0  0  0  0  0  0  0  0
   12.3450   -0.9910   22.1810 C   0  0  0  0  0  0  0  0  0  0  0  0
   11.0230   -1.2920   22.2210 C   0  0  0  0  0  0  0  0  0  0  0  0
   10.1050   -0.4820   22.7830 C   0  0  0  0  0  0  0  0  0  0  0  0
    2.6850   -2.4740   27.3120 C   0  0  0  0  0  0  0  0  0  0  0  0
    2.6590   -1.3670   26.4350 C   0  0  0  0  0  0  0  0  0  0  0  0
    3.8330   -0.9610   25.8110 C   0  0  0  0  0  0  0  0  0  0  0  0
    4.9260   -1.7170   26.1330 C   0  0  0  0  0  0  0  0  0  0  0  0
    5.0790   -2.8080   26.9630 C   0  0  0  0  0  0  0  0  0  0  0  0
    3.8810   -3.2000   27.5850 C   0  0  0  0  0  0  0  0  0  0  0  0
    6.6300   -3.0100   21.7040 N   0  0  0  0  0  0  0  0  0  0  0  0
    5.5000   -3.3190   22.5390 C   0  0  0  0  0  0  0  0  0  0  0  0
    5.3440   -2.2250   23.5470 C   0  0  0  0  0  0  0  0  0  0  0  0
    6.6390   -2.0320   24.3550 C   0  0  2  0  0  0  0  0  0  0  0  0
    7.9040   -1.9600   23.5160 C   0  0  1  0  0  0  0  0  0  0  0  0
    7.8930   -3.0630   22.4410 C   0  0  0  0  0  0  0  0  0  0  0  0
  2  4  1  1
  1  5  1  0
  3  5  2  0
  4  5  1  6
  6  8  3  0
 12 10  1  1
 11 13  2  0
 13 14  1  0
  2 15  1  0
 15 12  1  1
 16 17  2  0
 17 18  1  0
  7 19  1  0
 18 19  2  0
  1 20  1  0
 19 20  1  0
 16 21  1  0
 20 21  2  0
 22 23  2  0
 23 24  1  0
  8 25  1  0
 24 25  2  0
 25 26  1  0
  4 27  1  0
 22 27  1  0
 26 27  2  0
  9 28  1  0
 28 29  2  0
 29 30  1  0
 12 31  1  0
 30 31  2  0
 31 32  1  0
 28 33  1  0
 32 33  2  0
 13 34  1  0
 34 35  1  0
 35 36  1  0
 12 37  1  0
 15 37  1  0
 37 36  1  6
  2 38  1  0
  4 38  1  0
 37 38  1  0
 34 39  1  0
 38 39  1  1
M  END
