x0736-x0678
     RDKit          3D

 32 35  0  0  0  0  0  0  0  0999 V2000
    7.3970   -3.0080   18.8310 C   0  0  0  0  0  0  0  0  0  0  0  0
    5.4530   -4.0900   19.7170 O   0  0  0  0  0  0  0  0  0  0  0  0
    6.4300   -3.3100   19.9110 C   0  0  0  0  0  0  0  0  0  0  0  0
    6.0770   -2.6470   25.2720 O   0  0  0  0  0  0  0  0  0  0  0  0
    7.2380   -2.4100   24.9160 C   0  0  0  0  0  0  0  0  0  0  0  0
    9.1590    1.3650   21.2140 O   0  0  0  0  0  0  0  0  0  0  0  0
    8.5700    0.2540   21.9030 C   0  0  0  0  0  0  0  0  0  0  0  0
    9.1000   -0.1040   23.2380 C   0  0  0  0  0  0  0  0  0  0  0  0
    7.4050   -0.4400   21.3250 N   0  0  0  0  0  0  0  0  0  0  0  0
    6.6220   -2.7340   21.1690 N   0  0  0  0  0  0  0  0  0  0  0  0
    7.6920   -1.8550   21.5200 C   0  0  2  0  0  0  0  0  0  0  0  0
    8.4860   -2.2190   22.7740 C   0  0  0  0  0  0  0  0  0  0  0  0
    7.7470   -3.0290   23.7570 N   0  0  0  0  0  0  0  0  0  0  0  0
    6.9750   -4.0610   23.0980 C   0  0  0  0  0  0  0  0  0  0  0  0
    6.0380   -3.4930   22.2860 C   0  0  0  0  0  0  0  0  0  0  0  0
    8.5040   -0.2560   25.1450 O   0  0  0  0  0  0  0  0  0  0  0  0
    8.0340   -1.4900   25.6850 C   0  0  0  0  0  0  0  0  0  0  0  0
    8.4960   -1.5130   26.9350 C   0  0  0  0  0  0  0  0  0  0  0  0
    9.2280   -0.3980   27.2300 C   0  0  0  0  0  0  0  0  0  0  0  0
    9.2310    0.3900   26.0990 C   0  0  0  0  0  0  0  0  0  0  0  0
   10.9180   -1.2440   22.0700 C   0  0  0  0  0  0  0  0  0  0  0  0
   12.2920   -1.7150   22.1660 C   0  0  0  0  0  0  0  0  0  0  0  0
   13.1960   -0.8620   22.7930 C   0  0  0  0  0  0  0  0  0  0  0  0
   12.6760   -0.0120   23.7870 C   0  0  0  0  0  0  0  0  0  0  0  0
   11.2990    0.1350   23.9990 C   0  0  0  0  0  0  0  0  0  0  0  0
   10.3980   -0.6870   23.3940 C   0  0  0  0  0  0  0  0  0  0  0  0
    5.5490    0.9160   20.3830 C   0  0  0  0  0  0  0  0  0  0  0  0
    4.9070    1.4280   19.2760 C   0  0  0  0  0  0  0  0  0  0  0  0
    5.3930    1.1500   18.0100 C   0  0  0  0  0  0  0  0  0  0  0  0
    6.4750    0.3880   17.8310 N   0  0  0  0  0  0  0  0  0  0  0  0
    7.0760   -0.1010   18.9170 C   0  0  0  0  0  0  0  0  0  0  0  0
    6.6820    0.1180   20.2340 C   0  0  0  0  0  0  0  0  0  0  0  0
  1  3  1  0
  2  3  2  0
  4  5  2  0
  6  7  2  0
  7  8  1  0
  7  9  1  0
  3 10  1  0
 11  9  1  1
 10 11  1  0
 11 12  1  0
  5 13  1  0
 12 13  1  0
 13 14  1  0
 10 15  1  0
 14 15  1  0
  5 17  1  0
 16 17  1  0
 17 18  2  0
 18 19  1  0
 16 20  1  0
 19 20  2  0
 21 22  1  0
 22 23  1  0
 23 24  1  0
 24 25  1  0
  8 26  1  0
 21 26  1  0
 25 26  1  0
 27 28  2  0
 28 29  1  0
 29 30  2  0
 30 31  1  0
  9 32  1  0
 27 32  1  0
 31 32  2  0
M  END
