x0731-x0426
     RDKit          3D

 38 41  0  0  0  0  0  0  0  0999 V2000
    1.2490   -0.8870   26.2140 C   0  0  0  0  0  0  0  0  0  0  0  0
    6.5490   -4.9700   26.8370 O   0  0  0  0  0  0  0  0  0  0  0  0
    4.7300   -6.5460   26.1290 O   0  0  0  0  0  0  0  0  0  0  0  0
    5.3020   -5.1690   20.0020 O   0  0  0  0  0  0  0  0  0  0  0  0
    6.2810   -4.6020   20.5090 C   0  0  0  0  0  0  0  0  0  0  0  0
    6.9350   -3.5070   19.7610 C   0  0  0  0  0  0  0  0  0  0  0  0
    5.4490   -5.3060   25.9610 S   0  0  0  0  0  0  0  0  0  0  0  0
    2.1960    1.7640   24.0420 C   0  0  0  0  0  0  0  0  0  0  0  0
    2.1620    0.3870   24.1280 N   0  0  0  0  0  0  0  0  0  0  0  0
    3.2770    2.3560   23.3410 N   0  0  0  0  0  0  0  0  0  0  0  0
    4.0910    1.5210   22.5760 C   0  0  0  0  0  0  0  0  0  0  0  0
    3.5500    1.4080   21.1390 C   0  0  0  0  0  0  0  0  0  0  0  0
    2.8150    4.2440   25.3490 F   0  0  0  0  0  0  0  0  0  0  0  0
    0.9620   -0.1720   24.8930 C   0  0  0  0  0  0  0  0  0  0  0  0
    2.3820   -1.9660   26.1550 C   0  0  0  0  0  0  0  0  0  0  0  0
    1.9970   -3.2740   26.1250 C   0  0  0  0  0  0  0  0  0  0  0  0
    2.9490   -4.2710   26.0620 C   0  0  0  0  0  0  0  0  0  0  0  0
    4.2630   -3.9910   26.0350 C   0  0  0  0  0  0  0  0  0  0  0  0
    4.7220   -2.6570   26.0710 C   0  0  0  0  0  0  0  0  0  0  0  0
    3.7490   -1.6400   26.1310 C   0  0  0  0  0  0  0  0  0  0  0  0
    6.7630   -5.0360   21.7420 N   0  0  0  0  0  0  0  0  0  0  0  0
    7.3240   -4.2240   22.6560 C   0  0  0  0  0  0  0  0  0  0  0  0
    6.5760   -3.9990   23.8910 C   0  0  0  0  0  0  0  0  0  0  0  0
    6.0810   -5.2750   24.3960 N   0  0  0  0  0  0  0  0  0  0  0  0
    5.2900   -6.0010   23.3510 C   0  0  0  0  0  0  0  0  0  0  0  0
    6.1220   -6.2620   22.2580 C   0  0  0  0  0  0  0  0  0  0  0  0
    1.5390    3.8370   25.2700 C   0  0  0  0  0  0  0  0  0  0  0  0
    1.1730    2.6680   24.6570 C   0  0  0  0  0  0  0  0  0  0  0  0
   -0.1440    2.2290   24.5590 C   0  0  0  0  0  0  0  0  0  0  0  0
   -1.1460    2.9980   25.1090 C   0  0  0  0  0  0  0  0  0  0  0  0
   -0.8900    4.1980   25.7570 C   0  0  0  0  0  0  0  0  0  0  0  0
    0.4100    4.6940   25.8840 C   0  0  0  0  0  0  0  0  0  0  0  0
    5.5860    0.0680   20.3090 C   0  0  0  0  0  0  0  0  0  0  0  0
    6.4990   -0.2330   19.2860 C   0  0  0  0  0  0  0  0  0  0  0  0
    6.5230    0.3220   18.0530 N   0  0  0  0  0  0  0  0  0  0  0  0
    5.5790    1.2490   17.8090 C   0  0  0  0  0  0  0  0  0  0  0  0
    4.6300    1.6330   18.7200 C   0  0  0  0  0  0  0  0  0  0  0  0
    4.5810    1.0190   20.1110 C   0  0  0  0  0  0  0  0  0  0  0  0
  4  5  2  0
  5  6  1  0
  2  7  2  0
  3  7  2  0
  8  9  2  3
  8 10  1  0
 10 11  1  0
 11 12  1  0
  1 14  1  0
  9 14  1  0
  1 15  1  0
 15 16  2  0
 16 17  1  0
  7 18  1  0
 17 18  2  0
 18 19  1  0
 15 20  1  0
 19 20  2  0
  5 21  1  0
 21 22  1  0
 22 23  1  0
  7 24  1  0
 23 24  1  0
 24 25  1  0
 21 26  1  0
 25 26  1  0
 13 27  1  0
  8 28  1  0
 27 28  2  0
 28 29  1  0
 29 30  2  0
 30 31  1  0
 27 32  1  0
 31 32  2  0
 33 34  2  0
 34 35  1  0
 35 36  2  0
 36 37  1  0
 12 38  1  0
 33 38  1  0
 37 38  2  0
M  END
