x0731-x2705-x0691-x2643
     RDKit          3D

 51 57  0  0  0  0  0  0  0  0999 V2000
    6.8430   -1.3650   21.9580 N   0  0  0  0  0  0  0  0  0  0  0  0
    6.9140   -4.5510   20.3110 C   0  0  2  0  0  0  0  0  0  0  0  0
    4.7710   -2.9740   21.3300 O   0  0  0  0  0  0  0  0  0  0  0  0
    7.0040   -3.6220   21.3910 C   0  0  2  0  0  0  0  0  0  0  0  0
    7.4590    2.0410   22.8660 N   0  0  0  0  0  0  0  0  0  0  0  0
    8.6680    1.1970   21.1020 O   0  0  0  0  0  0  0  0  0  0  0  0
    6.0500   -2.5950   21.5610 C   0  0  0  0  0  0  0  0  0  0  0  0
    6.5300    0.0540   21.5820 C   0  0  1  0  0  0  0  0  0  0  0  0
    7.6640    1.1330   21.8340 C   0  0  0  0  0  0  0  0  0  0  0  0
   10.1420    2.0770   23.9940 C   0  0  0  0  0  0  0  0  0  0  0  0
    9.3120    1.2210   24.9480 C   0  0  0  0  0  0  0  0  0  0  0  0
    6.1750    4.4640   21.9190 C   0  0  0  0  0  0  0  0  0  0  0  0
   11.9410   -1.5150   23.2330 C   0  0  0  0  0  0  0  0  0  0  0  0
   12.5040   -0.1300   23.6290 C   0  0  0  0  0  0  0  0  0  0  0  0
   12.4350   -2.5900   24.2550 C   0  0  0  0  0  0  0  0  0  0  0  0
   12.6230   -1.8760   21.8810 C   0  0  0  0  0  0  0  0  0  0  0  0
    5.6420   -4.6850   19.6770 O   0  0  0  0  0  0  0  0  0  0  0  0
    0.9740   -1.0870   25.8970 C   0  0  0  0  0  0  0  0  0  0  0  0
    6.3740   -4.7610   26.7020 O   0  0  0  0  0  0  0  0  0  0  0  0
    4.7550   -6.5830   26.0810 O   0  0  0  0  0  0  0  0  0  0  0  0
    5.3580   -5.2990   25.8240 S   0  0  0  0  0  0  0  0  0  0  0  0
    3.6150   -0.5300   26.5640 F   0  0  0  0  0  0  0  0  0  0  0  0
    6.3550    0.3650   17.8950 N   0  0  0  0  0  0  0  0  0  0  0  0
    5.1890    1.0080   17.7740 C   0  0  0  0  0  0  0  0  0  0  0  0
    4.3290    1.3850   18.7750 C   0  0  0  0  0  0  0  0  0  0  0  0
    4.7220    1.0720   20.0670 C   0  0  0  0  0  0  0  0  0  0  0  0
    5.9470    0.4120   20.2550 C   0  0  0  0  0  0  0  0  0  0  0  0
    6.7120    0.0780   19.1540 C   0  0  0  0  0  0  0  0  0  0  0  0
    9.6610   -1.5360   24.2660 N   0  0  0  0  0  0  0  0  0  0  0  0
    8.3260   -1.5050   23.9720 N   0  0  0  0  0  0  0  0  0  0  0  0
    8.1600   -1.4450   22.5940 C   0  0  0  0  0  0  0  0  0  0  0  0
    9.5070   -1.4510   22.0880 C   0  0  0  0  0  0  0  0  0  0  0  0
   10.3890   -1.5020   23.1550 C   0  0  0  0  0  0  0  0  0  0  0  0
    9.4640    3.3420   23.5220 C   0  0  0  0  0  0  0  0  0  0  0  0
   10.1780    4.5850   23.6440 C   0  0  0  0  0  0  0  0  0  0  0  0
    9.5100    5.7250   23.1830 C   0  0  0  0  0  0  0  0  0  0  0  0
    8.2340    5.6720   22.6360 C   0  0  0  0  0  0  0  0  0  0  0  0
    7.5560    4.4470   22.5280 C   0  0  0  0  0  0  0  0  0  0  0  0
    8.1660    3.2820   22.9750 C   0  0  0  0  0  0  0  0  0  0  0  0
    2.0380   -2.1330   25.8450 C   0  0  0  0  0  0  0  0  0  0  0  0
    1.7390   -3.4570   25.4490 C   0  0  0  0  0  0  0  0  0  0  0  0
    2.7620   -4.4470   25.4260 C   0  0  0  0  0  0  0  0  0  0  0  0
    4.0590   -4.0930   25.8030 C   0  0  0  0  0  0  0  0  0  0  0  0
    4.3230   -2.7730   26.1780 C   0  0  0  0  0  0  0  0  0  0  0  0
    3.3290   -1.7860   26.2010 C   0  0  0  0  0  0  0  0  0  0  0  0
    6.9850   -5.1350   21.6180 C   0  0  2  0  0  0  0  0  0  0  0  0
    7.5090   -4.6110   22.6600 C   0  0  2  0  0  0  0  0  0  0  0  0
    6.7870   -4.2190   23.8040 C   0  0  0  0  0  0  0  0  0  0  0  0
    5.9900   -5.3870   24.2250 N   0  0  0  0  0  0  0  0  0  0  0  0
    5.0440   -5.7080   23.1300 C   0  0  0  0  0  0  0  0  0  0  0  0
    5.8460   -6.0970   21.9390 C   0  0  0  0  0  0  0  0  0  0  0  0
  2  4  1  0
  1  7  1  0
  3  7  2  0
  4  7  1  1
  1  8  1  0
  5  9  1  0
  6  9  2  0
  8  9  1  6
 10 11  1  0
 13 14  1  0
 13 15  1  0
 13 16  1  0
  2 17  1  1
 19 21  2  0
 20 21  2  0
 23 24  2  0
 24 25  1  0
 25 26  2  0
  8 27  1  0
 26 27  1  0
 23 28  1  0
 27 28  2  0
 29 30  1  0
  1 31  1  0
 30 31  2  0
 31 32  1  0
 13 33  1  0
 29 33  1  0
 32 33  2  0
 10 34  1  0
 34 35  2  0
 35 36  1  0
 36 37  2  0
 12 38  1  0
 37 38  1  0
  5 39  1  0
 34 39  1  0
 38 39  2  0
 18 40  1  0
 40 41  2  0
 41 42  1  0
 21 43  1  0
 42 43  2  0
 43 44  1  0
 22 45  1  0
 40 45  1  0
 44 45  2  0
  2 46  1  0
  4 46  1  0
  4 47  1  0
 46 47  1  0
 47 48  1  1
 21 49  1  0
 48 49  1  0
 49 50  1  0
 46 51  1  1
 50 51  1  0
M  END
