x0736-x1358
     RDKit          3D

 24 26  0  0  0  0  0  0  0  0999 V2000
    6.8650   -2.3530   25.9990 N   0  0  0  0  0  0  0  0  0  0  0  0
    5.1780   -0.0300   25.5270 O   0  0  0  0  0  0  0  0  0  0  0  0
    4.7930   -3.2740   25.5130 O   0  0  0  0  0  0  0  0  0  0  0  0
    5.1900   -4.3240   19.7640 O   0  0  0  0  0  0  0  0  0  0  0  0
    5.9290   -2.9730   25.1310 C   0  0  0  0  0  0  0  0  0  0  0  0
    6.2800   -3.8220   20.1040 C   0  0  0  0  0  0  0  0  0  0  0  0
    7.1570   -3.1600   19.1040 C   0  0  0  0  0  0  0  0  0  0  0  0
    5.6410   -0.2500   26.8000 C   0  0  0  0  0  0  0  0  0  0  0  0
    6.4840   -1.4520   27.0470 C   0  0  0  0  0  0  0  0  0  0  0  0
    7.0330   -1.7640   28.4010 C   0  0  0  0  0  0  0  0  0  0  0  0
    6.6820   -0.7960   29.4350 C   0  0  0  0  0  0  0  0  0  0  0  0
    5.8910    0.2980   29.0970 C   0  0  0  0  0  0  0  0  0  0  0  0
    5.2660    0.7890   27.9290 C   0  0  0  0  0  0  0  0  0  0  0  0
    6.6960   -3.9110   21.4340 N   0  0  0  0  0  0  0  0  0  0  0  0
    7.7330   -3.0000   21.9550 C   0  0  0  0  0  0  0  0  0  0  0  0
    7.5470   -2.9320   23.2920 C   0  0  0  0  0  0  0  0  0  0  0  0
    6.2610   -3.3310   23.6580 C   0  0  0  0  0  0  0  0  0  0  0  0
    5.9780   -4.6770   23.4000 C   0  0  0  0  0  0  0  0  0  0  0  0
    6.4670   -5.0250   22.0540 C   0  0  0  0  0  0  0  0  0  0  0  0
    8.4870   -0.7400   24.6690 O   0  0  0  0  0  0  0  0  0  0  0  0
    8.0090   -1.4700   25.7450 C   0  0  0  0  0  0  0  0  0  0  0  0
    8.7830   -1.2690   26.8520 C   0  0  0  0  0  0  0  0  0  0  0  0
    9.7270   -0.4260   26.4840 C   0  0  0  0  0  0  0  0  0  0  0  0
    9.6010   -0.0610   25.1500 C   0  0  0  0  0  0  0  0  0  0  0  0
  1  5  1  0
  3  5  2  0
  4  6  2  0
  6  7  1  0
  2  8  1  0
  1  9  1  0
  8  9  2  0
  9 10  1  0
 10 11  2  0
 11 12  1  0
  8 13  1  0
 12 13  2  0
  6 14  1  0
 14 15  1  0
 15 16  1  0
  5 17  1  0
 16 17  1  0
 17 18  1  0
 14 19  1  0
 18 19  1  0
  1 21  1  0
 20 21  1  0
 21 22  2  0
 22 23  1  0
 20 24  1  0
 23 24  2  0
M  END
