x0736-x2646
     RDKit          3D

 34 39  0  0  0  0  0  0  0  0999 V2000
    7.3550   -3.0120   18.8430 C   0  0  0  0  0  0  0  0  0  0  0  0
    5.4000   -4.0840   19.7050 O   0  0  0  0  0  0  0  0  0  0  0  0
    6.3760   -3.3110   19.9070 C   0  0  0  0  0  0  0  0  0  0  0  0
    5.9390   -2.5290   25.2490 O   0  0  0  0  0  0  0  0  0  0  0  0
    7.1070   -2.3470   24.8940 C   0  0  0  0  0  0  0  0  0  0  0  0
    4.2060    0.9610   21.4930 C   0  0  0  0  0  0  0  0  0  0  0  0
    8.5480    0.4170   20.9650 O   0  0  0  0  0  0  0  0  0  0  0  0
   13.2240   -2.1860   21.2180 Cl  0  0  0  0  0  0  0  0  0  0  0  0
    6.6920   -0.7120   21.4530 N   0  0  0  0  0  0  0  0  0  0  0  0
    7.9430   -0.2450   21.7850 C   0  0  2  0  0  0  0  0  0  0  0  0
    8.6880   -0.8140   23.0130 C   0  0  1  0  0  0  0  0  0  0  0  0
    6.5810   -2.7410   21.1590 N   0  0  0  0  0  0  0  0  0  0  0  0
    7.6570   -1.7720   21.5560 C   0  0  0  0  0  0  0  0  0  0  0  0
    8.3120   -2.2820   22.6640 C   0  0  2  0  0  0  0  0  0  0  0  0
    7.5330   -2.9990   23.7100 N   0  0  0  0  0  0  0  0  0  0  0  0
    6.6910   -3.9930   23.0850 C   0  0  0  0  0  0  0  0  0  0  0  0
    5.7910   -3.3320   22.2560 C   0  0  0  0  0  0  0  0  0  0  0  0
    8.4560   -0.3170   25.0960 O   0  0  0  0  0  0  0  0  0  0  0  0
    7.9740   -1.4810   25.6740 C   0  0  0  0  0  0  0  0  0  0  0  0
    8.4760   -1.5360   26.9750 C   0  0  0  0  0  0  0  0  0  0  0  0
    9.2560   -0.4460   27.2230 C   0  0  0  0  0  0  0  0  0  0  0  0
    9.2380    0.3370   25.9980 C   0  0  0  0  0  0  0  0  0  0  0  0
    6.4130    0.5260   17.8450 N   0  0  0  0  0  0  0  0  0  0  0  0
    6.8440   -0.1050   18.9730 C   0  0  0  0  0  0  0  0  0  0  0  0
    6.1970   -0.0250   20.2180 C   0  0  0  0  0  0  0  0  0  0  0  0
    5.0430    0.7510   20.2680 C   0  0  0  0  0  0  0  0  0  0  0  0
    4.6100    1.3980   19.1030 C   0  0  0  0  0  0  0  0  0  0  0  0
    5.2960    1.2720   17.9410 C   0  0  0  0  0  0  0  0  0  0  0  0
   10.7950    0.5370   23.7170 C   0  0  0  0  0  0  0  0  0  0  0  0
   12.1460    0.7340   23.6520 C   0  0  0  0  0  0  0  0  0  0  0  0
   12.9880   -0.0690   22.8970 C   0  0  0  0  0  0  0  0  0  0  0  0
   12.3710   -1.1050   22.1980 C   0  0  0  0  0  0  0  0  0  0  0  0
   11.0180   -1.3250   22.2440 C   0  0  0  0  0  0  0  0  0  0  0  0
   10.2090   -0.5120   23.0000 C   0  0  0  0  0  0  0  0  0  0  0  0
  1  3  1  0
  2  3  2  0
  4  5  2  0
 10  7  1  1
  9 10  1  0
 10 11  1  0
  3 12  1  0
  9 13  1  0
 10 13  1  0
 12 13  1  0
 11 14  1  0
 13 14  1  0
  5 15  1  0
 14 15  1  1
 15 16  1  0
 12 17  1  0
 16 17  1  0
  5 19  1  0
 18 19  1  0
 19 20  2  0
 20 21  1  0
 18 22  1  0
 21 22  2  0
 23 24  2  0
  9 25  1  0
 24 25  1  0
  6 26  1  0
 25 26  2  0
 26 27  1  0
 23 28  1  0
 27 28  2  0
 29 30  2  0
 30 31  1  0
  8 32  1  0
 31 32  2  0
 32 33  1  0
 11 34  1  6
 29 34  1  0
 33 34  2  0
M  END
