x0731-x3117
     RDKit          3D

 48 54  0  0  0  0  0  0  0  0999 V2000
    6.7810   -1.4370   22.0670 N   0  0  0  0  0  0  0  0  0  0  0  0
    6.8240   -4.5550   20.2670 C   0  0  2  0  0  0  0  0  0  0  0  0
    4.7630   -3.0010   21.3780 O   0  0  0  0  0  0  0  0  0  0  0  0
    6.9860   -3.7310   21.4480 C   0  0  2  0  0  0  0  0  0  0  0  0
    7.6810    1.7170   23.1640 N   0  0  0  0  0  0  0  0  0  0  0  0
    8.6560    1.2800   21.1040 O   0  0  0  0  0  0  0  0  0  0  0  0
    6.0170   -2.6640   21.6280 C   0  0  0  0  0  0  0  0  0  0  0  0
    6.5850    0.0050   21.6350 C   0  0  1  0  0  0  0  0  0  0  0  0
    7.7590    1.0440   21.9330 C   0  0  0  0  0  0  0  0  0  0  0  0
   12.2590   -1.6810   24.1190 C   0  0  0  0  0  0  0  0  0  0  0  0
   12.4260   -0.5460   25.0780 C   0  0  0  0  0  0  0  0  0  0  0  0
   13.3000   -1.5140   23.0130 C   0  0  0  0  0  0  0  0  0  0  0  0
   12.6540   -2.9710   24.8410 C   0  0  0  0  0  0  0  0  0  0  0  0
    5.5580   -4.6190   19.6420 O   0  0  0  0  0  0  0  0  0  0  0  0
    1.1240   -1.0420   25.9830 C   0  0  0  0  0  0  0  0  0  0  0  0
    6.4680   -4.8760   26.7670 O   0  0  0  0  0  0  0  0  0  0  0  0
    4.7500   -6.5980   26.1400 O   0  0  0  0  0  0  0  0  0  0  0  0
    5.4060   -5.3330   25.9030 S   0  0  0  0  0  0  0  0  0  0  0  0
    6.3200    0.3450   17.8650 N   0  0  0  0  0  0  0  0  0  0  0  0
    5.1500    1.2350   17.7790 C   0  0  0  0  0  0  0  0  0  0  0  0
    4.5420    1.6190   18.9630 C   0  0  0  0  0  0  0  0  0  0  0  0
    5.0320    1.1880   20.1850 C   0  0  0  0  0  0  0  0  0  0  0  0
    6.1290    0.3720   20.2530 C   0  0  0  0  0  0  0  0  0  0  0  0
    6.7390   -0.0320   19.0830 C   0  0  0  0  0  0  0  0  0  0  0  0
    9.7310    4.9900   24.0900 O   0  0  0  0  0  0  0  0  0  0  0  0
   10.5840    3.9850   23.5500 C   0  0  0  0  0  0  0  0  0  0  0  0
    9.9370    2.7490   23.6030 C   0  0  0  0  0  0  0  0  0  0  0  0
    8.4260    2.9500   23.5170 C   0  0  0  0  0  0  0  0  0  0  0  0
    8.1160    4.0620   22.6600 C   0  0  0  0  0  0  0  0  0  0  0  0
    8.6550    5.2440   23.1870 C   0  0  0  0  0  0  0  0  0  0  0  0
    9.2080   -1.9730   21.7800 C   0  0  0  0  0  0  0  0  0  0  0  0
   10.5250   -2.0310   22.2840 C   0  0  0  0  0  0  0  0  0  0  0  0
   10.8170   -1.6410   23.5750 C   0  0  0  0  0  0  0  0  0  0  0  0
    9.7760   -1.1880   24.3810 C   0  0  0  0  0  0  0  0  0  0  0  0
    8.4430   -1.1200   23.9140 C   0  0  0  0  0  0  0  0  0  0  0  0
    8.1350   -1.5130   22.5870 C   0  0  0  0  0  0  0  0  0  0  0  0
    2.1790   -2.1080   25.9360 C   0  0  0  0  0  0  0  0  0  0  0  0
    1.8950   -3.3410   25.3660 C   0  0  0  0  0  0  0  0  0  0  0  0
    2.8910   -4.3270   25.3480 C   0  0  0  0  0  0  0  0  0  0  0  0
    4.1540   -4.0680   25.8990 C   0  0  0  0  0  0  0  0  0  0  0  0
    4.4240   -2.8220   26.4590 C   0  0  0  0  0  0  0  0  0  0  0  0
    3.4300   -1.8410   26.4750 C   0  0  0  0  0  0  0  0  0  0  0  0
    6.9700   -5.2010   21.6070 C   0  0  2  0  0  0  0  0  0  0  0  0
    7.6930   -4.5480   22.6530 C   0  0  2  0  0  0  0  0  0  0  0  0
    7.1130   -4.4230   24.0720 C   0  0  0  0  0  0  0  0  0  0  0  0
    6.0350   -5.4060   24.3170 N   0  0  0  0  0  0  0  0  0  0  0  0
    5.0510   -5.4640   23.2260 C   0  0  0  0  0  0  0  0  0  0  0  0
    5.7790   -6.0480   22.0410 C   0  0  0  0  0  0  0  0  0  0  0  0
  2  4  1  0
  1  7  1  0
  3  7  2  0
  4  7  1  1
  1  8  1  0
  5  9  1  0
  6  9  2  0
  8  9  1  6
 10 11  1  0
 10 12  1  0
 10 13  1  0
  2 14  1  1
 16 18  2  0
 17 18  2  0
 19 20  2  0
 20 21  1  0
 21 22  2  0
  8 23  1  0
 22 23  1  0
 19 24  1  0
 23 24  2  0
 25 26  1  0
 26 27  1  0
  5 28  1  0
 27 28  1  0
 28 29  1  0
 25 30  1  0
 29 30  1  0
 31 32  2  0
 10 33  1  0
 32 33  1  0
 33 34  2  0
 34 35  1  0
  1 36  1  0
 31 36  1  0
 35 36  2  0
 15 37  1  0
 37 38  2  0
 38 39  1  0
 18 40  1  0
 39 40  2  0
 40 41  1  0
 37 42  1  0
 41 42  2  0
  2 43  1  0
  4 43  1  0
  4 44  1  0
 43 44  1  0
 44 45  1  1
 18 46  1  0
 45 46  1  0
 46 47  1  0
 43 48  1  1
 47 48  1  0
M  END
