x0736-x0107
     RDKit          3D

 27 29  0  0  0  0  0  0  0  0999 V2000
    7.3670   -3.0210   18.9080 C   0  0  0  0  0  0  0  0  0  0  0  0
    5.4410   -4.1150   19.7620 O   0  0  0  0  0  0  0  0  0  0  0  0
    6.4280   -3.3580   20.0060 C   0  0  0  0  0  0  0  0  0  0  0  0
    6.1010   -2.6250   25.2820 O   0  0  0  0  0  0  0  0  0  0  0  0
    7.2650   -2.4070   24.9290 C   0  0  0  0  0  0  0  0  0  0  0  0
   10.0070   -1.1290   22.1770 C   0  0  0  0  0  0  0  0  0  0  0  0
    8.8410   -0.4250   21.5630 C   0  0  0  0  0  0  0  0  0  0  0  0
    8.6730    0.7800   21.7650 O   0  0  0  0  0  0  0  0  0  0  0  0
    7.9470   -1.0370   20.6580 N   0  0  0  0  0  0  0  0  0  0  0  0
    5.5520    0.4430   22.0630 C   0  0  0  0  0  0  0  0  0  0  0  0
    6.6690   -2.8770   21.3240 N   0  0  0  0  0  0  0  0  0  0  0  0
    7.5660   -1.7500   21.7960 C   0  0  1  0  0  0  0  0  0  0  0  0
    8.4590   -2.2870   22.7180 C   0  0  0  0  0  0  0  0  0  0  0  0
    7.7610   -3.0740   23.7920 N   0  0  0  0  0  0  0  0  0  0  0  0
    6.9660   -4.1580   23.2480 C   0  0  0  0  0  0  0  0  0  0  0  0
    6.0030   -3.6340   22.3920 C   0  0  0  0  0  0  0  0  0  0  0  0
    8.5490   -0.3550   24.9620 O   0  0  0  0  0  0  0  0  0  0  0  0
    8.0920   -1.4840   25.6470 C   0  0  0  0  0  0  0  0  0  0  0  0
    8.5740   -1.4510   26.9740 C   0  0  0  0  0  0  0  0  0  0  0  0
    9.3220   -0.3350   27.1180 C   0  0  0  0  0  0  0  0  0  0  0  0
    9.2940    0.3400   25.8470 C   0  0  0  0  0  0  0  0  0  0  0  0
    6.9310   -0.2250   19.9450 C   0  0  0  0  0  0  0  0  0  0  0  0
    5.8700    0.4260   20.5880 C   0  0  0  0  0  0  0  0  0  0  0  0
    5.0260    1.1310   19.7040 C   0  0  0  0  0  0  0  0  0  0  0  0
    5.2430    1.1710   18.3100 C   0  0  0  0  0  0  0  0  0  0  0  0
    6.2770    0.5260   17.7700 N   0  0  0  0  0  0  0  0  0  0  0  0
    7.0760   -0.1430   18.5970 C   0  0  0  0  0  0  0  0  0  0  0  0
  1  3  1  0
  2  3  2  0
  4  5  2  0
  6  7  1  0
  7  8  2  0
  7  9  1  0
  3 11  1  0
 12  9  1  6
 11 12  1  0
 12 13  1  0
  5 14  1  0
 13 14  1  0
 14 15  1  0
 11 16  1  0
 15 16  1  0
  5 18  1  0
 17 18  1  0
 18 19  2  0
 19 20  1  0
 17 21  1  0
 20 21  2  0
  9 22  1  0
 10 23  1  0
 22 23  2  0
 23 24  1  0
 24 25  2  0
 25 26  1  0
 22 27  1  0
 26 27  2  0
M  END
