x0731-x2705
     RDKit          3D

 50 56  0  0  0  0  0  0  0  0999 V2000
    7.0220   -1.4530   21.8420 N   0  0  0  0  0  0  0  0  0  0  0  0
    6.7910   -4.3720   20.3310 C   0  0  2  0  0  0  0  0  0  0  0  0
    4.9960   -3.3920   21.4560 O   0  0  0  0  0  0  0  0  0  0  0  0
    6.8920   -3.4060   21.5140 C   0  0  2  0  0  0  0  0  0  0  0  0
    7.5040    1.9620   22.8000 N   0  0  0  0  0  0  0  0  0  0  0  0
    8.9760    0.8130   21.4310 O   0  0  0  0  0  0  0  0  0  0  0  0
    5.8320   -2.3730   21.6580 C   0  0  0  0  0  0  0  0  0  0  0  0
    6.7180   -0.0080   21.5810 C   0  0  1  0  0  0  0  0  0  0  0  0
    7.8550    0.9300   21.9170 C   0  0  0  0  0  0  0  0  0  0  0  0
   10.1160    2.0090   23.9380 C   0  0  0  0  0  0  0  0  0  0  0  0
    9.3260    1.1790   24.9480 C   0  0  0  0  0  0  0  0  0  0  0  0
    6.1740    4.5100   21.8680 C   0  0  0  0  0  0  0  0  0  0  0  0
   11.9730   -1.5780   23.0680 C   0  0  0  0  0  0  0  0  0  0  0  0
   12.5840   -0.6880   23.9640 C   0  0  0  0  0  0  0  0  0  0  0  0
   12.6750   -2.2440   24.2480 C   0  0  0  0  0  0  0  0  0  0  0  0
   12.5470   -1.9180   21.9140 C   0  0  0  0  0  0  0  0  0  0  0  0
    5.5330   -4.4650   19.6630 O   0  0  0  0  0  0  0  0  0  0  0  0
    0.9190   -0.8780   26.1000 C   0  0  0  0  0  0  0  0  0  0  0  0
    6.4300   -4.6640   26.6740 O   0  0  0  0  0  0  0  0  0  0  0  0
    4.8840   -6.4630   26.1220 O   0  0  0  0  0  0  0  0  0  0  0  0
    5.3790   -5.1070   25.6920 S   0  0  0  0  0  0  0  0  0  0  0  0
    6.3640    0.3760   17.8220 N   0  0  0  0  0  0  0  0  0  0  0  0
    5.2430    1.1200   17.7550 C   0  0  0  0  0  0  0  0  0  0  0  0
    4.5230    1.5170   18.9510 C   0  0  0  0  0  0  0  0  0  0  0  0
    5.0190    1.1250   20.1710 C   0  0  0  0  0  0  0  0  0  0  0  0
    6.1780    0.3720   20.2290 C   0  0  0  0  0  0  0  0  0  0  0  0
    6.8110    0.0150   19.0410 C   0  0  0  0  0  0  0  0  0  0  0  0
    9.6250   -1.7610   24.3820 N   0  0  0  0  0  0  0  0  0  0  0  0
    8.3420   -1.7240   23.9490 N   0  0  0  0  0  0  0  0  0  0  0  0
    8.2730   -1.5770   22.6190 C   0  0  0  0  0  0  0  0  0  0  0  0
    9.5570   -1.5130   22.0790 C   0  0  0  0  0  0  0  0  0  0  0  0
   10.4240   -1.6190   23.1520 C   0  0  0  0  0  0  0  0  0  0  0  0
    9.4290    3.2840   23.4790 C   0  0  0  0  0  0  0  0  0  0  0  0
   10.0860    4.5160   23.6150 C   0  0  0  0  0  0  0  0  0  0  0  0
    9.4850    5.7120   23.1960 C   0  0  0  0  0  0  0  0  0  0  0  0
    8.2070    5.6560   22.6320 C   0  0  0  0  0  0  0  0  0  0  0  0
    7.5370    4.4290   22.4900 C   0  0  0  0  0  0  0  0  0  0  0  0
    8.1450    3.2370   22.9170 C   0  0  0  0  0  0  0  0  0  0  0  0
    1.9730   -1.9270   25.9690 C   0  0  0  0  0  0  0  0  0  0  0  0
    1.6380   -3.2750   25.3200 C   0  0  0  0  0  0  0  0  0  0  0  0
    2.7870   -4.2920   25.2400 C   0  0  0  0  0  0  0  0  0  0  0  0
    4.0410   -3.9670   25.7440 C   0  0  0  0  0  0  0  0  0  0  0  0
    4.2640   -2.5930   26.3660 C   0  0  0  0  0  0  0  0  0  0  0  0
    3.2560   -1.6460   26.4560 C   0  0  0  0  0  0  0  0  0  0  0  0
    6.8370   -5.0860   21.5540 C   0  0  2  0  0  0  0  0  0  0  0  0
    7.4460   -4.4140   22.5510 C   0  0  2  0  0  0  0  0  0  0  0  0
    6.5130   -3.9220   23.4460 C   0  0  0  0  0  0  0  0  0  0  0  0
    5.9760   -5.1790   24.1140 N   0  0  0  0  0  0  0  0  0  0  0  0
    5.2240   -6.0940   23.1950 C   0  0  0  0  0  0  0  0  0  0  0  0
    6.0520   -6.2860   21.9420 C   0  0  0  0  0  0  0  0  0  0  0  0
  2  4  1  0
  1  7  1  0
  3  7  2  0
  4  7  1  1
  1  8  1  0
  5  9  1  0
  6  9  2  0
  8  9  1  6
 10 11  1  0
 13 14  1  0
 13 15  1  0
 13 16  1  0
  2 17  1  1
 19 21  2  0
 20 21  2  0
 22 23  2  0
 23 24  1  0
 24 25  2  0
  8 26  1  0
 25 26  1  0
 22 27  1  0
 26 27  2  0
 28 29  1  0
  1 30  1  0
 29 30  1  0
 30 31  2  0
 13 32  1  0
 28 32  2  0
 31 32  1  0
 10 33  1  0
 33 34  2  0
 34 35  1  0
 35 36  2  0
 12 37  1  0
 36 37  1  0
  5 38  1  0
 33 38  1  0
 37 38  2  0
 18 39  1  0
 39 40  2  0
 40 41  1  0
 21 42  1  0
 41 42  2  0
 42 43  1  0
 39 44  1  0
 43 44  2  0
  2 45  1  0
  4 45  1  0
  4 46  1  0
 45 46  1  0
 46 47  1  1
 21 48  1  0
 47 48  1  0
 48 49  1  0
 45 50  1  1
 49 50  1  0
M  END
