x0736-x2608
     RDKit          3D

 32 37  0  0  0  0  0  0  0  0999 V2000
    7.3210   -3.0250   18.7990 C   0  0  0  0  0  0  0  0  0  0  0  0
    5.3840   -4.1180   19.7010 O   0  0  0  0  0  0  0  0  0  0  0  0
    6.3870   -3.3820   19.8870 C   0  0  0  0  0  0  0  0  0  0  0  0
    6.0510   -2.5090   25.1240 O   0  0  0  0  0  0  0  0  0  0  0  0
    7.2270   -2.3460   24.7780 C   0  0  0  0  0  0  0  0  0  0  0  0
    8.5780   -0.8710   22.5310 C   0  0  2  0  0  0  0  0  0  0  0  0
   13.0700    1.8300   22.8450 C   0  0  0  0  0  0  0  0  0  0  0  0
    8.6710    1.2300   21.1790 O   0  0  0  0  0  0  0  0  0  0  0  0
    7.0620   -0.5930   21.1300 N   0  0  0  0  0  0  0  0  0  0  0  0
    8.1660    0.1550   21.5070 C   0  0  0  0  0  0  0  0  0  0  0  0
    6.6890   -2.9130   21.1460 N   0  0  0  0  0  0  0  0  0  0  0  0
    7.6960   -1.8490   21.4590 C   0  0  1  0  0  0  0  0  0  0  0  0
    8.3870   -2.3170   22.4590 C   0  0  2  0  0  0  0  0  0  0  0  0
    7.6660   -3.0050   23.6060 N   0  0  0  0  0  0  0  0  0  0  0  0
    6.8440   -4.0710   23.1070 C   0  0  0  0  0  0  0  0  0  0  0  0
    5.9210   -3.5310   22.2400 C   0  0  0  0  0  0  0  0  0  0  0  0
    8.7380   -0.5070   24.8470 O   0  0  0  0  0  0  0  0  0  0  0  0
    8.0930   -1.5060   25.5520 C   0  0  0  0  0  0  0  0  0  0  0  0
    8.4430   -1.4710   26.9350 C   0  0  0  0  0  0  0  0  0  0  0  0
    9.3140   -0.4230   27.0250 C   0  0  0  0  0  0  0  0  0  0  0  0
    9.4880    0.1600   25.7270 C   0  0  0  0  0  0  0  0  0  0  0  0
   12.1070    0.7300   22.7770 C   0  0  0  0  0  0  0  0  0  0  0  0
   12.4030   -0.6240   22.7320 C   0  0  0  0  0  0  0  0  0  0  0  0
   11.2020   -1.3230   22.6430 C   0  0  0  0  0  0  0  0  0  0  0  0
   10.0550   -0.5190   22.6310 C   0  0  0  0  0  0  0  0  0  0  0  0
   10.4170    1.1200   22.7340 S   0  0  0  0  0  0  0  0  0  0  0  0
    6.0840    0.5100   17.7800 N   0  0  0  0  0  0  0  0  0  0  0  0
    6.7460   -0.0430   18.8050 C   0  0  0  0  0  0  0  0  0  0  0  0
    6.3020   -0.0430   20.1140 C   0  0  0  0  0  0  0  0  0  0  0  0
    5.0850    0.5560   20.3830 C   0  0  0  0  0  0  0  0  0  0  0  0
    4.3620    1.1450   19.3540 C   0  0  0  0  0  0  0  0  0  0  0  0
    4.9300    1.0860   18.0940 C   0  0  0  0  0  0  0  0  0  0  0  0
  1  3  1  0
  2  3  2  0
  4  5  2  0
  6 10  1  0
  8 10  2  0
  9 10  1  0
  3 11  1  0
  6 12  1  0
 12  9  1  6
 11 12  1  0
  6 13  1  0
 12 13  1  0
  5 14  1  0
 13 14  1  1
 14 15  1  0
 11 16  1  0
 15 16  1  0
  5 18  1  0
 17 18  1  0
 18 19  2  0
 19 20  1  0
 17 21  1  0
 20 21  2  0
  7 22  1  0
 22 23  2  0
 23 24  1  0
  6 25  1  1
 24 25  2  0
 22 26  1  0
 25 26  1  0
 27 28  2  0
  9 29  1  0
 28 29  1  0
 29 30  2  0
 30 31  1  0
 27 32  1  0
 31 32  2  0
M  END
