x0734-x0107
     RDKit          3D

 31 33  0  0  0  0  0  0  0  0999 V2000
    5.1940   -4.8280   26.2970 N   0  0  0  0  0  0  0  0  0  0  0  0
    4.5160   -5.6150   25.6170 O   0  0  0  0  0  0  0  0  0  0  0  0
    4.7780   -3.7580   26.7630 O   0  0  0  0  0  0  0  0  0  0  0  0
    5.1150   -4.4780   19.8140 O   0  0  0  0  0  0  0  0  0  0  0  0
    6.2460   -4.0430   20.0870 C   0  0  0  0  0  0  0  0  0  0  0  0
    6.9950   -3.2750   19.0750 C   0  0  0  0  0  0  0  0  0  0  0  0
    9.8580   -0.4720   22.4580 C   0  0  0  0  0  0  0  0  0  0  0  0
    8.9570    0.3890   21.6310 C   0  0  0  0  0  0  0  0  0  0  0  0
    9.2330    1.5650   21.3460 O   0  0  0  0  0  0  0  0  0  0  0  0
    7.7390   -0.2950   21.1550 N   0  0  0  0  0  0  0  0  0  0  0  0
    5.4610    1.0470   21.7390 C   0  0  0  0  0  0  0  0  0  0  0  0
    7.2570   -1.8560   19.4800 C   0  0  0  0  0  0  0  0  0  0  0  0
    7.8660   -1.6900   20.8560 C   0  0  0  0  0  0  0  0  0  0  0  0
    6.5970   -5.0540   26.3250 C   0  0  0  0  0  0  0  0  0  0  0  0
    7.3390   -4.8140   25.1960 C   0  0  0  0  0  0  0  0  0  0  0  0
    8.7120   -5.0440   25.2360 C   0  0  0  0  0  0  0  0  0  0  0  0
    9.2670   -5.4980   26.3770 C   0  0  0  0  0  0  0  0  0  0  0  0
    8.5230   -5.7420   27.5350 C   0  0  0  0  0  0  0  0  0  0  0  0
    7.1550   -5.5190   27.5210 C   0  0  0  0  0  0  0  0  0  0  0  0
    6.8530   -4.3140   21.3070 N   0  0  0  0  0  0  0  0  0  0  0  0
    6.5170   -5.5710   21.9610 C   0  0  0  0  0  0  0  0  0  0  0  0
    5.9170   -5.3230   23.2700 C   0  0  0  0  0  0  0  0  0  0  0  0
    6.7330   -4.3540   24.0420 N   0  0  0  0  0  0  0  0  0  0  0  0
    7.2240   -3.1570   23.3420 C   0  0  0  0  0  0  0  0  0  0  0  0
    7.7260   -3.4110   22.0680 C   0  0  0  0  0  0  0  0  0  0  0  0
    6.8820    0.2270   20.1690 C   0  0  0  0  0  0  0  0  0  0  0  0
    5.7620    0.8920   20.2640 C   0  0  0  0  0  0  0  0  0  0  0  0
    4.7800    1.4830   19.5810 C   0  0  0  0  0  0  0  0  0  0  0  0
    5.1020    1.3060   18.2440 C   0  0  0  0  0  0  0  0  0  0  0  0
    6.2370    0.6230   17.8500 N   0  0  0  0  0  0  0  0  0  0  0  0
    7.0920    0.1000   18.7950 C   0  0  0  0  0  0  0  0  0  0  0  0
  1  2  2  0
  1  3  1  0
  4  5  2  0
  5  6  1  0
  7  8  1  0
  8  9  2  0
  8 10  1  0
  6 12  1  0
 10 13  1  0
 12 13  1  0
  1 14  1  0
 14 15  2  0
 15 16  1  0
 16 17  2  0
 17 18  1  0
 14 19  1  0
 18 19  2  0
  5 20  1  0
 20 21  1  0
 21 22  1  0
 15 23  1  0
 22 23  1  0
 23 24  1  0
 20 25  1  0
 24 25  1  0
 10 26  1  0
 11 27  1  0
 26 27  2  0
 27 28  1  0
 28 29  2  0
 29 30  1  0
 26 31  1  0
 30 31  2  0
M  CHG  2   1   1   3  -1
M  END
