x0734-x1493
     RDKit          3D

 18 19  0  0  0  0  0  0  0  0999 V2000
    5.2200   -4.9240   26.2490 N   0  0  0  0  0  0  0  0  0  0  0  0
    4.6490   -5.7480   25.5190 O   0  0  0  0  0  0  0  0  0  0  0  0
    4.6800   -3.9140   26.7240 O   0  0  0  0  0  0  0  0  0  0  0  0
    5.1140   -4.2470   19.7120 O   0  0  0  0  0  0  0  0  0  0  0  0
    6.2420   -3.8240   20.0240 C   0  0  0  0  0  0  0  0  0  0  0  0
    7.1120   -3.1300   19.0460 C   0  0  0  0  0  0  0  0  0  0  0  0
    6.6850   -5.0010   26.3730 C   0  0  0  0  0  0  0  0  0  0  0  0
    7.4430   -4.5960   25.1670 C   0  0  0  0  0  0  0  0  0  0  0  0
    8.9220   -4.6400   25.2300 C   0  0  0  0  0  0  0  0  0  0  0  0
    9.4850   -5.1190   26.5760 C   0  0  0  0  0  0  0  0  0  0  0  0
    8.6140   -5.5200   27.7580 C   0  0  0  0  0  0  0  0  0  0  0  0
    7.2310   -5.4340   27.5860 C   0  0  0  0  0  0  0  0  0  0  0  0
    6.7280   -4.0300   21.2910 N   0  0  0  0  0  0  0  0  0  0  0  0
    6.4920   -5.3270   21.9310 C   0  0  0  0  0  0  0  0  0  0  0  0
    6.0020   -5.1280   23.2180 C   0  0  0  0  0  0  0  0  0  0  0  0
    6.8390   -4.1800   23.9970 N   0  0  0  0  0  0  0  0  0  0  0  0
    7.3960   -3.1320   23.3570 C   0  0  0  0  0  0  0  0  0  0  0  0
    7.5540   -3.1580   21.9760 C   0  0  0  0  0  0  0  0  0  0  0  0
  1  2  2  0
  1  3  1  0
  4  5  2  0
  5  6  1  0
  1  7  1  0
  7  8  2  0
  8  9  1  0
  9 10  2  0
 10 11  1  0
  7 12  1  0
 11 12  2  0
  5 13  1  0
 13 14  1  0
 14 15  1  0
  8 16  1  0
 15 16  1  0
 16 17  1  0
 13 18  1  0
 17 18  1  0
M  CHG  2   1   1   3  -1
M  END
