x0731-x0771-x2705-x3117-x0769
     RDKit          3D

 53 59  0  0  0  0  0  0  0  0999 V2000
    6.8000   -1.3950   21.9130 N   0  0  0  0  0  0  0  0  0  0  0  0
    6.8430   -4.4580   20.3210 C   0  0  2  0  0  0  0  0  0  0  0  0
    4.7700   -2.9690   21.3090 O   0  0  0  0  0  0  0  0  0  0  0  0
    6.9450   -3.6720   21.4830 C   0  0  2  0  0  0  0  0  0  0  0  0
    7.4720    2.0670   23.0260 N   0  0  0  0  0  0  0  0  0  0  0  0
    8.7000    1.2760   21.0430 O   0  0  0  0  0  0  0  0  0  0  0  0
    6.0380   -2.6090   21.5670 C   0  0  0  0  0  0  0  0  0  0  0  0
    6.4560    0.0000   21.5450 C   0  0  1  0  0  0  0  0  0  0  0  0
    7.5660    1.1110   21.9100 C   0  0  0  0  0  0  0  0  0  0  0  0
   10.1810    2.0780   23.9980 C   0  0  0  0  0  0  0  0  0  0  0  0
    9.2860    1.2550   24.9180 C   0  0  0  0  0  0  0  0  0  0  0  0
    6.1520    4.5800   22.0250 C   0  0  0  0  0  0  0  0  0  0  0  0
   11.8930   -1.5670   23.1980 C   0  0  0  0  0  0  0  0  0  0  0  0
   12.4250   -0.2460   23.8000 C   0  0  0  0  0  0  0  0  0  0  0  0
   12.4170   -2.7300   24.0510 C   0  0  0  0  0  0  0  0  0  0  0  0
   12.5230   -1.7510   21.8740 C   0  0  0  0  0  0  0  0  0  0  0  0
   13.3520   -2.4090   25.1890 C   0  0  0  0  0  0  0  0  0  0  0  0
    5.6100   -4.4340   19.6020 O   0  0  0  0  0  0  0  0  0  0  0  0
    0.6780   -1.4340   26.1060 C   0  0  0  0  0  0  0  0  0  0  0  0
    4.5470   -6.8680   25.9000 O   0  0  0  0  0  0  0  0  0  0  0  0
    6.1430   -5.1410   26.7030 O   0  0  0  0  0  0  0  0  0  0  0  0
    2.0400   -6.1180   25.0550 C   0  0  0  0  0  0  0  0  0  0  0  0
    5.1370   -5.5600   25.7650 S   0  0  0  0  0  0  0  0  0  0  0  0
    5.3410   -2.7110   26.5290 F   0  0  0  0  0  0  0  0  0  0  0  0
    6.3280    0.4510   17.8370 N   0  0  0  0  0  0  0  0  0  0  0  0
    5.2160    1.1470   17.7320 C   0  0  0  0  0  0  0  0  0  0  0  0
    4.3790    1.5080   18.8720 C   0  0  0  0  0  0  0  0  0  0  0  0
    4.7920    1.0870   20.2750 C   0  0  0  0  0  0  0  0  0  0  0  0
    5.9740    0.3900   20.2020 C   0  0  0  0  0  0  0  0  0  0  0  0
    6.7500    0.0460   19.0660 C   0  0  0  0  0  0  0  0  0  0  0  0
    9.6550   -1.5590   24.2470 N   0  0  0  0  0  0  0  0  0  0  0  0
    8.3540   -1.5200   23.9090 N   0  0  0  0  0  0  0  0  0  0  0  0
    8.1060   -1.4670   22.5640 C   0  0  0  0  0  0  0  0  0  0  0  0
    9.4520   -1.4800   22.0310 C   0  0  0  0  0  0  0  0  0  0  0  0
   10.3510   -1.5340   23.1100 C   0  0  0  0  0  0  0  0  0  0  0  0
    9.4850    3.3340   23.5200 C   0  0  0  0  0  0  0  0  0  0  0  0
   10.1880    4.5350   23.5620 C   0  0  0  0  0  0  0  0  0  0  0  0
    9.6010    5.7150   23.1250 C   0  0  0  0  0  0  0  0  0  0  0  0
    8.2830    5.7180   22.6250 C   0  0  0  0  0  0  0  0  0  0  0  0
    7.5490    4.5020   22.5760 C   0  0  0  0  0  0  0  0  0  0  0  0
    8.1590    3.3090   23.0350 C   0  0  0  0  0  0  0  0  0  0  0  0
    1.7660   -2.4610   25.9990 C   0  0  0  0  0  0  0  0  0  0  0  0
    1.4430   -3.7680   25.5870 C   0  0  0  0  0  0  0  0  0  0  0  0
    2.4510   -4.7430   25.4950 C   0  0  0  0  0  0  0  0  0  0  0  0
    3.7800   -4.3990   25.8180 C   0  0  0  0  0  0  0  0  0  0  0  0
    4.0930   -3.0960   26.2160 C   0  0  0  0  0  0  0  0  0  0  0  0
    3.0920   -2.1320   26.3070 C   0  0  0  0  0  0  0  0  0  0  0  0
    6.8390   -5.2470   21.5530 C   0  0  1  0  0  0  0  0  0  0  0  0
    5.7170   -6.2140   21.8910 C   0  0  0  0  0  0  0  0  0  0  0  0
    4.8790   -5.7850   23.0770 C   0  0  0  0  0  0  0  0  0  0  0  0
    5.7910   -5.4630   24.2010 N   0  0  0  0  0  0  0  0  0  0  0  0
    6.5550   -4.2300   23.9090 C   0  0  0  0  0  0  0  0  0  0  0  0
    7.3880   -4.4230   22.6620 C   0  0  2  0  0  0  0  0  0  0  0  0
  2  4  1  0
  1  7  1  0
  3  7  2  0
  4  7  1  1
  1  8  1  0
  5  9  1  0
  6  9  2  0
  8  9  1  6
 10 11  1  0
 13 14  1  0
 13 15  1  0
 13 16  1  0
 15 17  1  0
  2 18  1  1
 20 23  2  0
 21 23  2  0
 25 26  2  0
 26 27  1  0
 27 28  2  0
  8 29  1  0
 28 29  1  0
 25 30  1  0
 29 30  2  0
 31 32  1  0
  1 33  1  0
 32 33  1  0
 33 34  2  0
 13 35  1  0
 31 35  2  0
 34 35  1  0
 10 36  1  0
 36 37  2  0
 37 38  1  0
 38 39  2  0
 12 40  1  0
 39 40  1  0
  5 41  1  0
 36 41  1  0
 40 41  2  0
 19 42  1  0
 42 43  2  0
 22 44  1  0
 43 44  1  0
 23 45  1  0
 44 45  2  0
 24 46  1  0
 45 46  1  0
 42 47  1  0
 46 47  2  0
  2 48  1  0
  4 48  1  0
 48 49  1  1
 49 50  1  0
 23 51  1  0
 50 51  1  0
 51 52  1  0
  4 53  1  0
 48 53  1  0
 53 52  1  1
M  END
