x0734-x2097
     RDKit          3D

 18 19  0  0  0  0  0  0  0  0999 V2000
    5.2350   -4.9120   26.2400 N   0  0  0  0  0  0  0  0  0  0  0  0
    4.6620   -5.7350   25.5110 O   0  0  0  0  0  0  0  0  0  0  0  0
    4.6970   -3.9060   26.7240 O   0  0  0  0  0  0  0  0  0  0  0  0
    5.1130   -4.2710   19.7190 O   0  0  0  0  0  0  0  0  0  0  0  0
    6.2440   -3.8420   20.0170 C   0  0  0  0  0  0  0  0  0  0  0  0
    7.1010   -3.1510   19.0250 C   0  0  0  0  0  0  0  0  0  0  0  0
    6.6990   -5.0000   26.3660 C   0  0  0  0  0  0  0  0  0  0  0  0
    7.4540   -4.6090   25.1550 C   0  0  0  0  0  0  0  0  0  0  0  0
    8.9360   -4.6670   25.2160 C   0  0  0  0  0  0  0  0  0  0  0  0
    9.4950   -5.1410   26.5620 C   0  0  0  0  0  0  0  0  0  0  0  0
    8.6260   -5.5260   27.7530 C   0  0  0  0  0  0  0  0  0  0  0  0
    7.2420   -5.4280   27.5800 C   0  0  0  0  0  0  0  0  0  0  0  0
    6.7360   -4.0430   21.2810 N   0  0  0  0  0  0  0  0  0  0  0  0
    6.4970   -5.3340   21.9270 C   0  0  0  0  0  0  0  0  0  0  0  0
    5.9990   -5.1320   23.2100 C   0  0  0  0  0  0  0  0  0  0  0  0
    6.8510   -4.1960   23.9850 N   0  0  0  0  0  0  0  0  0  0  0  0
    7.3810   -3.1320   23.3470 C   0  0  0  0  0  0  0  0  0  0  0  0
    7.5530   -3.1600   21.9680 C   0  0  0  0  0  0  0  0  0  0  0  0
  1  2  2  0
  1  3  1  0
  4  5  2  0
  5  6  1  0
  1  7  1  0
  7  8  2  0
  8  9  1  0
  9 10  2  0
 10 11  1  0
  7 12  1  0
 11 12  2  0
  5 13  1  0
 13 14  1  0
 14 15  1  0
  8 16  1  0
 15 16  1  0
 16 17  1  0
 13 18  1  0
 17 18  1  0
M  CHG  2   1   1   3  -1
M  END
