x0731-x2776
     RDKit          3D

 51 57  0  0  0  0  0  0  0  0999 V2000
    6.7640   -1.4430   21.9600 N   0  0  0  0  0  0  0  0  0  0  0  0
    6.8190   -4.6020   20.2800 C   0  0  2  0  0  0  0  0  0  0  0  0
    4.7630   -2.9350   21.2060 O   0  0  0  0  0  0  0  0  0  0  0  0
    6.9220   -3.7350   21.4330 C   0  0  2  0  0  0  0  0  0  0  0  0
    7.6020    1.8350   22.7740 N   0  0  0  0  0  0  0  0  0  0  0  0
    8.9230    0.5770   21.3530 O   0  0  0  0  0  0  0  0  0  0  0  0
    6.0040   -2.6430   21.5130 C   0  0  0  0  0  0  0  0  0  0  0  0
   10.6530    6.4820   23.7600 O   0  0  0  0  0  0  0  0  0  0  0  0
    6.5710   -0.0440   21.4610 C   0  0  1  0  0  0  0  0  0  0  0  0
   12.4070   -2.8910   24.8930 O   0  0  0  0  0  0  0  0  0  0  0  0
    7.8180    0.7860   21.8410 C   0  0  0  0  0  0  0  0  0  0  0  0
   10.3580    1.5530   23.8480 C   0  0  0  0  0  0  0  0  0  0  0  0
   11.7580    6.4640   24.6710 C   0  0  0  0  0  0  0  0  0  0  0  0
   12.0820   -1.5740   24.4740 C   0  0  1  0  0  0  0  0  0  0  0  0
   13.0060   -1.0960   23.5760 C   0  0  0  0  0  0  0  0  0  0  0  0
   13.6700   -2.9390   25.4810 C   0  0  0  0  0  0  0  0  0  0  0  0
    5.5420   -4.6520   19.6590 O   0  0  0  0  0  0  0  0  0  0  0  0
    1.0180   -0.8970   26.0150 C   0  0  0  0  0  0  0  0  0  0  0  0
    6.3540   -4.8630   26.8070 O   0  0  0  0  0  0  0  0  0  0  0  0
    4.7220   -6.6080   26.0420 O   0  0  0  0  0  0  0  0  0  0  0  0
    5.3870   -5.3370   25.8540 S   0  0  0  0  0  0  0  0  0  0  0  0
    6.3510    0.6950   17.6830 N   0  0  0  0  0  0  0  0  0  0  0  0
    5.1670    1.5850   17.6040 C   0  0  0  0  0  0  0  0  0  0  0  0
    4.5290    1.8510   18.7890 C   0  0  0  0  0  0  0  0  0  0  0  0
    4.9220    1.3480   20.0850 C   0  0  0  0  0  0  0  0  0  0  0  0
    6.0950    0.4910   20.1290 C   0  0  0  0  0  0  0  0  0  0  0  0
    6.6980    0.2430   18.8980 C   0  0  0  0  0  0  0  0  0  0  0  0
    9.7100    2.8730   23.5310 C   0  0  0  0  0  0  0  0  0  0  0  0
   10.4720    4.0470   23.7750 C   0  0  0  0  0  0  0  0  0  0  0  0
    9.9840    5.3000   23.5390 C   0  0  0  0  0  0  0  0  0  0  0  0
    8.7070    5.4230   23.0310 C   0  0  0  0  0  0  0  0  0  0  0  0
    7.9220    4.3070   22.7700 C   0  0  0  0  0  0  0  0  0  0  0  0
    8.4180    3.0150   23.0240 C   0  0  0  0  0  0  0  0  0  0  0  0
    9.2570   -1.9820   21.8760 C   0  0  0  0  0  0  0  0  0  0  0  0
   10.5130   -1.9870   22.5290 C   0  0  0  0  0  0  0  0  0  0  0  0
   10.7220   -1.5550   23.8490 C   0  0  0  0  0  0  0  0  0  0  0  0
    9.6140   -1.1080   24.5440 C   0  0  0  0  0  0  0  0  0  0  0  0
    8.3580   -1.0730   23.9820 C   0  0  0  0  0  0  0  0  0  0  0  0
    8.0980   -1.5240   22.5460 C   0  0  0  0  0  0  0  0  0  0  0  0
    2.0590   -1.9660   25.9540 C   0  0  0  0  0  0  0  0  0  0  0  0
    1.7560   -3.3210   25.3330 C   0  0  0  0  0  0  0  0  0  0  0  0
    2.6980   -4.3320   25.2740 C   0  0  0  0  0  0  0  0  0  0  0  0
    4.1090   -4.1040   25.8540 C   0  0  0  0  0  0  0  0  0  0  0  0
    4.3140   -2.7360   26.4380 C   0  0  0  0  0  0  0  0  0  0  0  0
    3.3320   -1.7520   26.4700 C   0  0  0  0  0  0  0  0  0  0  0  0
    6.9330   -5.2990   21.5930 C   0  0  2  0  0  0  0  0  0  0  0  0
    7.4940   -4.4420   22.5460 C   0  0  2  0  0  0  0  0  0  0  0  0
    6.7910   -4.1750   23.8420 C   0  0  0  0  0  0  0  0  0  0  0  0
    6.0150   -5.3400   24.2860 N   0  0  0  0  0  0  0  0  0  0  0  0
    5.1080   -5.8320   23.2280 C   0  0  0  0  0  0  0  0  0  0  0  0
    5.9210   -6.2970   22.0300 C   0  0  0  0  0  0  0  0  0  0  0  0
  2  4  1  0
  1  7  1  0
  3  7  2  0
  4  7  1  1
  1  9  1  0
  5 11  1  0
  6 11  2  0
  9 11  1  6
  8 13  1  0
 10 14  1  0
 14 15  1  6
 10 16  1  0
  2 17  1  1
 19 21  2  0
 20 21  2  0
 22 23  2  0
 23 24  1  0
 24 25  2  0
  9 26  1  0
 25 26  1  0
 22 27  1  0
 26 27  2  0
 12 28  1  0
 28 29  2  0
  8 30  1  0
 29 30  1  0
 30 31  2  0
 31 32  1  0
  5 33  1  0
 28 33  1  0
 32 33  2  0
 34 35  2  0
 14 36  1  0
 35 36  1  0
 36 37  2  0
 37 38  1  0
  1 39  1  0
 34 39  1  0
 38 39  2  0
 18 40  1  0
 40 41  2  0
 41 42  1  0
 21 43  1  0
 42 43  2  0
 43 44  1  0
 40 45  1  0
 44 45  2  0
  2 46  1  0
  4 46  1  0
  4 47  1  0
 46 47  1  0
 47 48  1  1
 21 49  1  0
 48 49  1  0
 49 50  1  0
 46 51  1  1
 50 51  1  0
M  END
