x0736-x0434
     RDKit          3D

 32 37  0  0  0  0  0  0  0  0999 V2000
    7.3220   -3.0210   18.8510 C   0  0  0  0  0  0  0  0  0  0  0  0
    5.3780   -4.1300   19.7160 O   0  0  0  0  0  0  0  0  0  0  0  0
    6.3510   -3.3560   19.9160 C   0  0  0  0  0  0  0  0  0  0  0  0
    6.1610   -2.4690   24.9570 O   0  0  0  0  0  0  0  0  0  0  0  0
    7.3610   -2.3540   24.6910 C   0  0  0  0  0  0  0  0  0  0  0  0
    8.7440    0.4690   21.0140 O   0  0  0  0  0  0  0  0  0  0  0  0
    8.1070   -0.4750   21.8330 C   0  0  1  0  0  0  0  0  0  0  0  0
    8.9610   -0.9940   22.8750 N   0  0  0  0  0  0  0  0  0  0  0  0
    6.8380   -0.7630   21.4490 N   0  0  0  0  0  0  0  0  0  0  0  0
    6.5630   -2.8080   21.1670 N   0  0  0  0  0  0  0  0  0  0  0  0
    7.7150   -1.8700   21.3820 C   0  0  1  0  0  0  0  0  0  0  0  0
    8.6420   -2.3670   22.5240 C   0  0  2  0  0  0  0  0  0  0  0  0
    7.9340   -3.1100   23.6320 N   0  0  0  0  0  0  0  0  0  0  0  0
    6.9880   -4.0840   23.1000 C   0  0  0  0  0  0  0  0  0  0  0  0
    5.9950   -3.4530   22.3550 C   0  0  0  0  0  0  0  0  0  0  0  0
    8.6430   -0.2820   24.9300 O   0  0  0  0  0  0  0  0  0  0  0  0
    8.1540   -1.4430   25.4890 C   0  0  0  0  0  0  0  0  0  0  0  0
    8.5540   -1.4940   26.8150 C   0  0  0  0  0  0  0  0  0  0  0  0
    9.2650   -0.4050   27.0530 C   0  0  0  0  0  0  0  0  0  0  0  0
    9.3370    0.3680   25.9030 C   0  0  0  0  0  0  0  0  0  0  0  0
   10.5390    0.7100   23.5390 C   0  0  0  0  0  0  0  0  0  0  0  0
   11.8760    1.2790   23.6220 C   0  0  0  0  0  0  0  0  0  0  0  0
   12.9350    0.4660   23.0160 C   0  0  0  0  0  0  0  0  0  0  0  0
   12.6640   -0.7340   22.4200 C   0  0  0  0  0  0  0  0  0  0  0  0
   11.3560   -1.2240   22.3670 C   0  0  0  0  0  0  0  0  0  0  0  0
   10.2800   -0.5020   22.9300 C   0  0  0  0  0  0  0  0  0  0  0  0
    5.1340    0.6610   20.3570 C   0  0  0  0  0  0  0  0  0  0  0  0
    4.6270    1.3130   19.2340 C   0  0  0  0  0  0  0  0  0  0  0  0
    5.3250    1.1930   18.0530 C   0  0  0  0  0  0  0  0  0  0  0  0
    6.4560    0.4860   17.9240 N   0  0  0  0  0  0  0  0  0  0  0  0
    6.9220   -0.1400   19.0400 C   0  0  0  0  0  0  0  0  0  0  0  0
    6.3090   -0.0930   20.2970 C   0  0  0  0  0  0  0  0  0  0  0  0
  1  3  1  0
  2  3  2  0
  4  5  2  0
  7  6  1  1
  7  8  1  0
  7  9  1  0
  3 10  1  0
  7 11  1  0
 11  9  1  6
 10 11  1  0
 12  8  1  1
 11 12  1  0
  5 13  1  0
 12 13  1  0
 13 14  1  0
 10 15  1  0
 14 15  1  0
  5 17  1  0
 16 17  1  0
 17 18  2  0
 18 19  1  0
 16 20  1  0
 19 20  2  0
 21 22  2  0
 22 23  1  0
 23 24  2  0
 24 25  1  0
  8 26  1  0
 21 26  1  0
 25 26  2  0
 27 28  2  0
 28 29  1  0
 29 30  2  0
 30 31  1  0
  9 32  1  0
 27 32  1  0
 31 32  2  0
M  END
