x0736-x0395
     RDKit          3D

 29 33  0  0  0  0  0  0  0  0999 V2000
    7.4120   -3.0150   18.7680 C   0  0  0  0  0  0  0  0  0  0  0  0
    5.2630   -3.9120   19.4720 O   0  0  0  0  0  0  0  0  0  0  0  0
    6.3030   -3.2850   19.7380 C   0  0  0  0  0  0  0  0  0  0  0  0
    6.1750   -2.3240   24.4420 O   0  0  0  0  0  0  0  0  0  0  0  0
    7.3480   -2.5220   24.0820 C   0  0  0  0  0  0  0  0  0  0  0  0
    8.3310   -5.4370   27.2960 C   0  0  0  0  0  0  0  0  0  0  0  0
    8.7730   -0.4220   22.5860 C   0  0  0  0  0  0  0  0  0  0  0  0
   13.3290   -1.8790   21.7380 F   0  0  0  0  0  0  0  0  0  0  0  0
    6.3980   -2.8820   21.0460 N   0  0  0  0  0  0  0  0  0  0  0  0
    7.0730   -1.6290   21.2630 C   0  0  0  0  0  0  0  0  0  0  0  0
    8.3390   -1.7940   22.0490 C   0  0  2  0  0  0  0  0  0  0  0  0
    8.0760   -2.7600   22.9570 C   0  0  2  0  0  0  0  0  0  0  0  0
    7.7040   -3.9810   22.5370 C   0  0  0  0  0  0  0  0  0  0  0  0
    6.4110   -3.8940   22.0850 C   0  0  0  0  0  0  0  0  0  0  0  0
    7.2180   -0.9280   25.8040 N   0  0  0  0  0  0  0  0  0  0  0  0
    8.4240   -1.8560   25.8140 C   0  0  1  0  0  0  0  0  0  0  0  0
    9.4650   -1.0220   26.2900 C   0  0  0  0  0  0  0  0  0  0  0  0
    9.0080    0.1890   26.6270 C   0  0  0  0  0  0  0  0  0  0  0  0
    7.6440    0.1920   26.3090 C   0  0  0  0  0  0  0  0  0  0  0  0
    8.4830   -4.1530   26.4930 C   0  0  0  0  0  0  0  0  0  0  0  0
    8.0970   -2.9370   26.8210 N   0  0  0  0  0  0  0  0  0  0  0  0
    8.6600   -2.6380   24.5470 C   0  0  1  0  0  0  0  0  0  0  0  0
    9.2980   -4.2040   24.9740 S   0  0  0  0  0  0  0  0  0  0  0  0
   10.7810    0.4520   23.7150 C   0  0  0  0  0  0  0  0  0  0  0  0
   11.9780    1.0760   23.3710 C   0  0  0  0  0  0  0  0  0  0  0  0
   12.8550    0.1720   22.8260 C   0  0  0  0  0  0  0  0  0  0  0  0
   12.4260   -1.0400   22.2670 C   0  0  0  0  0  0  0  0  0  0  0  0
   11.0770   -1.3560   22.2500 C   0  0  0  0  0  0  0  0  0  0  0  0
   10.2250   -0.1820   22.5250 N   0  0  0  0  0  0  0  0  0  0  0  0
  1  3  1  0
  2  3  2  0
  4  5  2  0
  3  9  1  0
  9 10  1  0
 11  7  1  1
 10 11  1  0
 12  5  1  0
 11 12  1  0
 12 13  1  6
  9 14  1  0
 13 14  1  0
 16 15  1  0
 16 17  1  1
 17 18  2  0
 15 19  2  0
 18 19  1  0
  6 20  1  0
 16 21  1  0
 20 21  2  0
 22  5  1  1
 12 22  1  0
 16 22  1  0
 20 23  1  0
 22 23  1  0
 24 25  1  0
 25 26  1  0
  8 27  1  0
 26 27  2  0
 27 28  1  0
  7 29  1  0
 24 29  1  0
 28 29  1  0
M  END
