x0731-x0771
     RDKit          3D

 20 21  0  0  0  0  0  0  0  0999 V2000
    0.9330   -1.5520   26.1080 C   0  0  0  0  0  0  0  0  0  0  0  0
    4.3950   -6.8040   25.8010 O   0  0  0  0  0  0  0  0  0  0  0  0
    5.7330   -4.9310   26.8100 O   0  0  0  0  0  0  0  0  0  0  0  0
    5.3050   -4.5330   19.9020 O   0  0  0  0  0  0  0  0  0  0  0  0
    2.3200   -6.4590   24.9140 C   0  0  0  0  0  0  0  0  0  0  0  0
    6.3880   -4.2560   20.4590 C   0  0  0  0  0  0  0  0  0  0  0  0
    7.3300   -3.3310   19.7770 C   0  0  0  0  0  0  0  0  0  0  0  0
    4.8620   -5.4370   25.7720 S   0  0  0  0  0  0  0  0  0  0  0  0
    2.0350   -2.5680   26.0160 C   0  0  0  0  0  0  0  0  0  0  0  0
    1.5460   -3.9470   25.5020 C   0  0  0  0  0  0  0  0  0  0  0  0
    2.5450   -5.0600   25.3750 C   0  0  0  0  0  0  0  0  0  0  0  0
    3.6620   -4.3990   25.8050 C   0  0  0  0  0  0  0  0  0  0  0  0
    4.1590   -3.2180   26.2550 C   0  0  0  0  0  0  0  0  0  0  0  0
    3.4580   -1.9970   26.4710 C   0  0  0  0  0  0  0  0  0  0  0  0
    6.6600   -4.8530   21.7210 N   0  0  0  0  0  0  0  0  0  0  0  0
    6.0530   -6.0870   22.0910 C   0  0  0  0  0  0  0  0  0  0  0  0
    5.1460   -6.1130   23.1580 C   0  0  0  0  0  0  0  0  0  0  0  0
    5.6720   -5.2640   24.2640 N   0  0  0  0  0  0  0  0  0  0  0  0
    6.1180   -3.8950   23.8480 C   0  0  0  0  0  0  0  0  0  0  0  0
    7.1660   -4.0140   22.8160 C   0  0  0  0  0  0  0  0  0  0  0  0
  4  6  2  0
  6  7  1  0
  2  8  2  0
  3  8  2  0
  1  9  1  0
  9 10  2  0
  5 11  1  0
 10 11  1  0
  8 12  1  0
 11 12  2  0
 12 13  1  0
  9 14  1  0
 13 14  2  0
  6 15  1  0
 15 16  1  0
 16 17  1  0
  8 18  1  0
 17 18  1  0
 18 19  1  0
 15 20  1  0
 19 20  1  0
M  END
