x0731-x0540
     RDKit          3D

 39 42  0  0  0  0  0  0  0  0999 V2000
    1.1780   -0.9180   26.1190 C   0  0  0  0  0  0  0  0  0  0  0  0
    6.4440   -4.9800   26.7840 O   0  0  0  0  0  0  0  0  0  0  0  0
    4.7430   -6.6500   25.9830 O   0  0  0  0  0  0  0  0  0  0  0  0
    5.2940   -5.2290   19.9880 O   0  0  0  0  0  0  0  0  0  0  0  0
    6.2460   -4.6250   20.4840 C   0  0  0  0  0  0  0  0  0  0  0  0
    6.8400   -3.4820   19.7490 C   0  0  0  0  0  0  0  0  0  0  0  0
    5.4040   -5.3740   25.8530 S   0  0  0  0  0  0  0  0  0  0  0  0
    3.0480    1.5410   24.5230 N   0  0  0  0  0  0  0  0  0  0  0  0
    2.9750    2.5180   23.4120 C   0  0  0  0  0  0  0  0  0  0  0  0
    4.1380    2.6360   22.6070 N   0  0  0  0  0  0  0  0  0  0  0  0
    5.0450    1.5680   22.5690 C   0  0  0  0  0  0  0  0  0  0  0  0
    4.5300    0.4420   21.6520 C   0  0  0  0  0  0  0  0  0  0  0  0
    1.8920    3.3500   23.0600 N   0  0  0  0  0  0  0  0  0  0  0  0
    1.9920    0.3720   26.3300 C   0  0  0  0  0  0  0  0  0  0  0  0
    1.8470    1.3870   25.3880 C   0  0  0  0  0  0  0  0  0  0  0  0
    2.1690   -2.0420   26.0260 C   0  0  0  0  0  0  0  0  0  0  0  0
    1.9030   -3.2900   25.4490 C   0  0  0  0  0  0  0  0  0  0  0  0
    2.8410   -4.2840   25.3850 C   0  0  0  0  0  0  0  0  0  0  0  0
    4.1570   -4.1240   25.9010 C   0  0  0  0  0  0  0  0  0  0  0  0
    4.4250   -2.8970   26.4670 C   0  0  0  0  0  0  0  0  0  0  0  0
    3.4440   -1.8400   26.5410 C   0  0  0  0  0  0  0  0  0  0  0  0
    6.7500   -5.0470   21.7120 N   0  0  0  0  0  0  0  0  0  0  0  0
    7.4290   -4.2040   22.7160 C   0  0  0  0  0  0  0  0  0  0  0  0
    6.6210   -3.9950   23.8350 C   0  0  0  0  0  0  0  0  0  0  0  0
    6.0590   -5.2620   24.2990 N   0  0  0  0  0  0  0  0  0  0  0  0
    5.5210   -5.9800   23.2990 C   0  0  0  0  0  0  0  0  0  0  0  0
    6.2910   -6.2400   22.1660 C   0  0  0  0  0  0  0  0  0  0  0  0
    6.2560   -0.2980   20.0280 C   0  0  0  0  0  0  0  0  0  0  0  0
    6.8070   -0.2370   18.7680 C   0  0  0  0  0  0  0  0  0  0  0  0
    6.3600    0.5320   17.7490 N   0  0  0  0  0  0  0  0  0  0  0  0
    5.2860    1.2880   18.0070 C   0  0  0  0  0  0  0  0  0  0  0  0
    4.6590    1.2980   19.2390 C   0  0  0  0  0  0  0  0  0  0  0  0
    5.1330    0.5040   20.2830 C   0  0  0  0  0  0  0  0  0  0  0  0
    0.6220    4.6150   24.5570 C   0  0  0  0  0  0  0  0  0  0  0  0
   -0.6100    4.8370   25.2120 C   0  0  0  0  0  0  0  0  0  0  0  0
   -1.7720    4.6910   24.4270 C   0  0  0  0  0  0  0  0  0  0  0  0
   -1.8920    3.5950   23.5670 C   0  0  0  0  0  0  0  0  0  0  0  0
   -0.5640    3.2490   22.8950 C   0  0  0  0  0  0  0  0  0  0  0  0
    0.6310    3.4260   23.8140 C   0  0  0  0  0  0  0  0  0  0  0  0
  4  5  2  0
  5  6  1  0
  2  7  2  0
  3  7  2  0
  8  9  2  3
  9 10  1  0
 10 11  1  0
 11 12  1  0
  9 13  1  0
  1 14  1  0
  8 15  1  0
 14 15  1  0
  1 16  1  0
 16 17  2  0
 17 18  1  0
  7 19  1  0
 18 19  2  0
 19 20  1  0
 16 21  1  0
 20 21  2  0
  5 22  1  0
 22 23  1  0
 23 24  1  0
  7 25  1  0
 24 25  1  0
 25 26  1  0
 22 27  1  0
 26 27  1  0
 28 29  2  0
 29 30  1  0
 30 31  2  0
 31 32  1  0
 12 33  1  0
 28 33  1  0
 32 33  2  0
 34 35  1  0
 35 36  1  0
 36 37  1  0
 37 38  1  0
 13 39  1  0
 34 39  1  0
 38 39  1  0
M  END
