x0731-x1308
     RDKit          3D

 19 20  0  0  0  0  0  0  0  0999 V2000
    1.0490   -0.9190   26.0330 C   0  0  0  0  0  0  0  0  0  0  0  0
    6.4410   -4.6680   26.6780 O   0  0  0  0  0  0  0  0  0  0  0  0
    4.7810   -6.4990   26.0880 O   0  0  0  0  0  0  0  0  0  0  0  0
    5.2830   -5.0670   20.0050 O   0  0  0  0  0  0  0  0  0  0  0  0
    6.2810   -4.5860   20.5040 C   0  0  0  0  0  0  0  0  0  0  0  0
    7.0380   -3.4960   19.7640 C   0  0  0  0  0  0  0  0  0  0  0  0
    5.3810   -5.2030   25.8540 S   0  0  0  0  0  0  0  0  0  0  0  0
    2.0760   -2.0080   25.9510 C   0  0  0  0  0  0  0  0  0  0  0  0
    1.7130   -3.3700   25.3150 C   0  0  0  0  0  0  0  0  0  0  0  0
    2.6960   -4.3520   25.2700 C   0  0  0  0  0  0  0  0  0  0  0  0
    4.0640   -4.0350   25.8480 C   0  0  0  0  0  0  0  0  0  0  0  0
    4.3370   -2.7760   26.4110 C   0  0  0  0  0  0  0  0  0  0  0  0
    3.3600   -1.7900   26.4570 C   0  0  0  0  0  0  0  0  0  0  0  0
    6.7430   -5.0910   21.7100 N   0  0  0  0  0  0  0  0  0  0  0  0
    7.3660   -4.1750   22.6760 C   0  0  0  0  0  0  0  0  0  0  0  0
    6.5480   -3.9500   23.7730 C   0  0  0  0  0  0  0  0  0  0  0  0
    5.9520   -5.2000   24.2870 N   0  0  0  0  0  0  0  0  0  0  0  0
    5.3480   -6.1130   23.3060 C   0  0  0  0  0  0  0  0  0  0  0  0
    6.2220   -6.3430   22.2530 C   0  0  0  0  0  0  0  0  0  0  0  0
  4  5  2  0
  5  6  1  0
  2  7  2  0
  3  7  2  0
  1  8  1  0
  8  9  2  0
  9 10  1  0
  7 11  1  0
 10 11  2  0
 11 12  1  0
  8 13  1  0
 12 13  2  0
  5 14  1  0
 14 15  1  0
 15 16  1  0
  7 17  1  0
 16 17  1  0
 17 18  1  0
 14 19  1  0
 18 19  1  0
M  END
