x0736-x2562
     RDKit          3D

 38 42  0  0  0  0  0  0  0  0999 V2000
    8.3610    0.2140   21.3620 C   0  0  0  0  0  0  0  0  0  0  0  0
    8.4390    1.4560   21.1610 O   0  0  0  0  0  0  0  0  0  0  0  0
    7.0920   -0.5350   21.3250 C   0  0  1  0  0  0  0  0  0  0  0  0
   12.0430    2.8300   23.4370 O   0  0  0  0  0  0  0  0  0  0  0  0
    9.4910   -0.6920   21.6080 N   0  0  0  0  0  0  0  0  0  0  0  0
   12.6710    6.7870   22.6220 O   0  0  0  0  0  0  0  0  0  0  0  0
    7.3130   -3.0380   18.8500 C   0  0  0  0  0  0  0  0  0  0  0  0
    5.3880   -4.1960   19.7390 O   0  0  0  0  0  0  0  0  0  0  0  0
    6.3630   -3.4290   19.9370 C   0  0  0  0  0  0  0  0  0  0  0  0
    5.9090   -2.6520   25.3010 O   0  0  0  0  0  0  0  0  0  0  0  0
    7.2340   -2.3720   24.8210 C   0  0  0  0  0  0  0  0  0  0  0  0
    4.4580    1.4240   19.2780 N   0  0  0  0  0  0  0  0  0  0  0  0
    5.0580    1.2190   18.0360 C   0  0  0  0  0  0  0  0  0  0  0  0
    6.1550    0.5430   17.7190 N   0  0  0  0  0  0  0  0  0  0  0  0
    6.8360   -0.0680   18.8600 C   0  0  0  0  0  0  0  0  0  0  0  0
    6.3290    0.0850   20.1440 C   0  0  0  0  0  0  0  0  0  0  0  0
    5.1770    0.7930   20.3960 C   0  0  0  0  0  0  0  0  0  0  0  0
   12.4350    4.5330   21.8250 N   0  0  0  0  0  0  0  0  0  0  0  0
   13.3120    5.6350   22.2990 C   0  0  2  0  0  0  0  0  0  0  0  0
   13.3820    4.8390   23.3160 C   0  0  0  0  0  0  0  0  0  0  0  0
   12.9990    3.6570   22.7520 C   0  0  1  0  0  0  0  0  0  0  0  0
   11.7080   -1.1870   22.1350 C   0  0  0  0  0  0  0  0  0  0  0  0
   12.9990   -0.7840   22.6120 C   0  0  0  0  0  0  0  0  0  0  0  0
   13.0810    0.6110   23.0480 C   0  0  0  0  0  0  0  0  0  0  0  0
   12.0130    1.5120   23.0440 C   0  0  0  0  0  0  0  0  0  0  0  0
   10.8100    1.0420   22.5800 C   0  0  0  0  0  0  0  0  0  0  0  0
   10.6770   -0.2660   22.1260 C   0  0  0  0  0  0  0  0  0  0  0  0
    6.5840   -2.9480   21.2300 N   0  0  0  0  0  0  0  0  0  0  0  0
    7.5620   -2.0270   21.4080 C   0  0  2  0  0  0  0  0  0  0  0  0
    8.3330   -2.2230   22.5780 C   0  0  0  0  0  0  0  0  0  0  0  0
    7.6950   -2.9920   23.6480 N   0  0  0  0  0  0  0  0  0  0  0  0
    6.8890   -4.0850   23.1700 C   0  0  0  0  0  0  0  0  0  0  0  0
    5.9780   -3.5570   22.2750 C   0  0  0  0  0  0  0  0  0  0  0  0
    8.5610   -0.2780   24.9480 O   0  0  0  0  0  0  0  0  0  0  0  0
    8.0680   -1.4390   25.5400 C   0  0  0  0  0  0  0  0  0  0  0  0
    8.5390   -1.4550   26.8550 C   0  0  0  0  0  0  0  0  0  0  0  0
    9.2960   -0.3460   27.0550 C   0  0  0  0  0  0  0  0  0  0  0  0
    9.3040    0.3700   25.8810 C   0  0  0  0  0  0  0  0  0  0  0  0
  1  2  2  0
  3  1  1  6
  1  5  1  0
  7  9  1  0
  8  9  2  0
 10 11  2  0
 12 13  2  0
 13 14  1  0
 14 15  2  0
  3 16  1  0
 15 16  1  0
 12 17  1  0
 16 17  2  0
 19  6  1  1
 18 19  1  0
 19 20  1  0
 21  4  1  1
 18 21  1  0
 20 21  1  0
 22 23  2  0
 23 24  1  0
  4 25  1  0
 24 25  2  0
 25 26  1  0
  5 27  1  0
 22 27  1  0
 26 27  2  0
  9 28  1  0
  3 29  1  0
 28 29  1  0
 29 30  1  1
 11 31  1  0
 30 31  1  0
 31 32  1  0
 28 33  1  0
 32 33  1  0
 11 35  1  0
 34 35  1  0
 35 36  2  0
 36 37  1  0
 34 38  1  0
 37 38  2  0
M  END
