x0734-x0967
     RDKit          3D

 39 41  0  0  0  0  0  0  0  0999 V2000
    7.4000    4.7360   22.2400 C   0  0  0  0  0  0  0  0  0  0  0  0
    7.8740    2.5850   23.1820 N   0  0  0  0  0  0  0  0  0  0  0  0
    5.8090    3.4730   23.5240 O   0  0  0  0  0  0  0  0  0  0  0  0
    6.9290    3.5520   23.0380 C   0  0  0  0  0  0  0  0  0  0  0  0
    8.9780   -0.8280   22.8440 N   0  0  0  0  0  0  0  0  0  0  0  0
    5.7260    0.8170   17.0570 O   0  0  0  0  0  0  0  0  0  0  0  0
    7.5930    1.1540   23.2370 C   0  0  1  0  0  0  0  0  0  0  0  0
    9.4900    1.1000   21.7450 O   0  0  0  0  0  0  0  0  0  0  0  0
    6.2930    0.6820   22.6880 C   0  0  0  0  0  0  0  0  0  0  0  0
    8.7670    0.4900   22.5260 C   0  0  0  0  0  0  0  0  0  0  0  0
    9.6090   -1.6250   21.8450 C   0  0  1  0  0  0  0  0  0  0  0  0
   11.0990   -1.2750   21.8130 C   0  0  0  0  0  0  0  0  0  0  0  0
   11.9260   -1.7670   22.8240 C   0  0  0  0  0  0  0  0  0  0  0  0
   13.1500   -2.3430   24.1650 Br  0  0  0  0  0  0  0  0  0  0  0  0
    5.1770   -4.8590   26.2940 N   0  0  0  0  0  0  0  0  0  0  0  0
    4.5540   -5.6800   25.5990 O   0  0  0  0  0  0  0  0  0  0  0  0
    4.6870   -3.8190   26.7590 O   0  0  0  0  0  0  0  0  0  0  0  0
    5.3490   -4.1900   19.7750 O   0  0  0  0  0  0  0  0  0  0  0  0
    6.5320   -3.8970   20.1000 C   0  0  0  0  0  0  0  0  0  0  0  0
    7.3990   -3.1630   19.1490 C   0  0  0  0  0  0  0  0  0  0  0  0
    9.4010   -3.0940   22.0090 C   0  0  0  0  0  0  0  0  0  0  0  0
    6.1680    0.6880   21.1860 C   0  0  0  0  0  0  0  0  0  0  0  0
    6.9250   -0.1910   20.4210 C   0  0  0  0  0  0  0  0  0  0  0  0
    6.7870   -0.1670   18.9700 C   0  0  0  0  0  0  0  0  0  0  0  0
    5.8470    0.7950   18.3990 C   0  0  0  0  0  0  0  0  0  0  0  0
    5.0990    1.6630   19.1830 C   0  0  0  0  0  0  0  0  0  0  0  0
    5.2000    1.6740   20.5750 C   0  0  0  0  0  0  0  0  0  0  0  0
    6.6250   -4.9780   26.2990 C   0  0  0  0  0  0  0  0  0  0  0  0
    7.3370   -4.6770   25.1770 C   0  0  0  0  0  0  0  0  0  0  0  0
    8.7270   -4.7890   25.1730 C   0  0  0  0  0  0  0  0  0  0  0  0
    9.3610   -5.2130   26.3390 C   0  0  0  0  0  0  0  0  0  0  0  0
    8.6470   -5.5230   27.4970 C   0  0  0  0  0  0  0  0  0  0  0  0
    7.2550   -5.4050   27.4800 C   0  0  0  0  0  0  0  0  0  0  0  0
    7.0720   -4.3490   21.3270 N   0  0  0  0  0  0  0  0  0  0  0  0
    6.3360   -5.4820   21.9070 C   0  0  0  0  0  0  0  0  0  0  0  0
    5.9440   -5.3260   23.2550 C   0  0  0  0  0  0  0  0  0  0  0  0
    6.6520   -4.2450   24.0210 N   0  0  0  0  0  0  0  0  0  0  0  0
    7.2860   -3.1370   23.2760 C   0  0  0  0  0  0  0  0  0  0  0  0
    8.0290   -3.7730   22.3200 C   0  0  2  0  0  0  0  0  0  0  0  0
  1  4  1  0
  2  4  1  0
  3  4  2  0
  2  7  1  0
  7  9  1  6
  5 10  1  0
  7 10  1  0
  8 10  2  0
  5 11  1  0
 11 12  1  1
 12 13  3  0
 13 14  1  0
 15 16  2  0
 15 17  1  0
 18 19  2  0
 19 20  1  0
 11 21  1  0
  9 22  1  0
 22 23  2  0
 23 24  1  0
  6 25  1  0
 24 25  2  0
 25 26  1  0
 22 27  1  0
 26 27  2  0
 15 28  1  0
 28 29  2  0
 29 30  1  0
 30 31  2  0
 31 32  1  0
 28 33  1  0
 32 33  2  0
 19 34  1  0
 34 35  1  0
 35 36  1  0
 29 37  1  0
 36 37  1  0
 37 38  1  0
 39 21  1  6
 34 39  1  0
 38 39  1  0
M  CHG  2  15   1  17  -1
M  END
