x0731-x0755
     RDKit          3D

 21 22  0  0  0  0  0  0  0  0999 V2000
    4.4520   -6.3860   26.1310 O   0  0  0  0  0  0  0  0  0  0  0  0
    6.2690   -4.7800   26.7290 O   0  0  0  0  0  0  0  0  0  0  0  0
    5.5610   -4.5160   19.9530 O   0  0  0  0  0  0  0  0  0  0  0  0
    6.6080   -4.5900   20.6700 C   0  0  0  0  0  0  0  0  0  0  0  0
    7.8000   -3.7400   20.3720 C   0  0  0  0  0  0  0  0  0  0  0  0
    2.1000   -5.4400   25.6830 F   0  0  0  0  0  0  0  0  0  0  0  0
    5.5600   -1.9100   26.1020 F   0  0  0  0  0  0  0  0  0  0  0  0
    5.1680   -5.1490   25.8760 S   0  0  0  0  0  0  0  0  0  0  0  0
    0.7700   -0.9660   25.9310 C   0  0  0  0  0  0  0  0  0  0  0  0
    2.5090   -4.1620   25.7910 C   0  0  0  0  0  0  0  0  0  0  0  0
    3.9710   -3.8790   25.8880 C   0  0  0  0  0  0  0  0  0  0  0  0
    4.3130   -2.3780   26.0050 C   0  0  0  0  0  0  0  0  0  0  0  0
    3.1450   -1.4040   26.0130 C   0  0  0  0  0  0  0  0  0  0  0  0
    1.8400   -1.8630   25.9170 C   0  0  0  0  0  0  0  0  0  0  0  0
    1.5120   -3.1880   25.8060 C   0  0  0  0  0  0  0  0  0  0  0  0
    6.6520   -5.5390   21.7320 N   0  0  0  0  0  0  0  0  0  0  0  0
    7.5210   -4.8270   22.7180 C   0  0  0  0  0  0  0  0  0  0  0  0
    6.8500   -4.3330   23.8020 C   0  0  0  0  0  0  0  0  0  0  0  0
    5.7490   -5.2290   24.2880 N   0  0  0  0  0  0  0  0  0  0  0  0
    4.9220   -5.7350   23.3070 C   0  0  0  0  0  0  0  0  0  0  0  0
    5.5180   -6.3290   22.2110 C   0  0  0  0  0  0  0  0  0  0  0  0
  3  4  2  0
  4  5  1  0
  1  8  2  0
  2  8  2  0
  6 10  1  0
  8 11  1  0
 10 11  2  0
  7 12  1  0
 11 12  1  0
 12 13  2  0
  9 14  1  0
 13 14  1  0
 10 15  1  0
 14 15  2  0
  4 16  1  0
 16 17  1  0
 17 18  1  0
  8 19  1  0
 18 19  1  0
 19 20  1  0
 16 21  1  0
 20 21  1  0
M  END
