x0736-x0946
     RDKit          3D

 30 32  0  0  0  0  0  0  0  0999 V2000
    7.3360   -3.0440   18.8650 C   0  0  0  0  0  0  0  0  0  0  0  0
    5.3870   -4.1090   19.7200 O   0  0  0  0  0  0  0  0  0  0  0  0
    6.3880   -3.3860   19.9430 C   0  0  0  0  0  0  0  0  0  0  0  0
    6.0910   -2.4970   25.2330 O   0  0  0  0  0  0  0  0  0  0  0  0
    7.2440   -2.2280   24.8780 C   0  0  0  0  0  0  0  0  0  0  0  0
    9.0860    5.4950   22.8310 N   0  0  0  0  0  0  0  0  0  0  0  0
   10.1780    5.7380   25.2900 O   0  0  0  0  0  0  0  0  0  0  0  0
   11.4590    6.5160   23.2360 O   0  0  0  0  0  0  0  0  0  0  0  0
   13.0270   -0.2610   22.8190 Se  0  0  0  0  0  2  0  0  0  0  0  0
   10.5390    5.4460   23.7710 S   0  0  0  0  0  0  0  0  0  0  0  0
    9.6940   -2.5440   22.2440 C   0  0  0  0  0  0  0  0  0  0  0  0
   11.1200   -2.2080   22.0590 C   0  0  0  0  0  0  0  0  0  0  0  0
   11.2180   -0.8570   22.6850 C   0  0  0  0  0  0  0  0  0  0  0  0
    6.6610   -2.9220   21.2270 N   0  0  0  0  0  0  0  0  0  0  0  0
    7.4830   -1.7350   21.6060 C   0  0  0  0  0  0  0  0  0  0  0  0
    8.3870   -1.9710   22.6450 C   0  0  1  0  0  0  0  0  0  0  0  0
    7.7450   -2.8240   23.7130 N   0  0  0  0  0  0  0  0  0  0  0  0
    7.1300   -4.0400   23.2070 C   0  0  0  0  0  0  0  0  0  0  0  0
    6.1090   -3.7160   22.3270 C   0  0  0  0  0  0  0  0  0  0  0  0
    8.4360   -0.2260   25.0870 O   0  0  0  0  0  0  0  0  0  0  0  0
    8.0660   -1.3140   25.6230 C   0  0  0  0  0  0  0  0  0  0  0  0
    8.5960   -1.3690   26.9400 C   0  0  0  0  0  0  0  0  0  0  0  0
    9.3010   -0.2270   27.1020 C   0  0  0  0  0  0  0  0  0  0  0  0
    9.1610    0.4820   25.8660 C   0  0  0  0  0  0  0  0  0  0  0  0
   12.3740    1.4880   23.0740 C   0  0  0  0  0  0  0  0  0  0  0  0
   13.0820    2.6300   22.7190 C   0  0  0  0  0  0  0  0  0  0  0  0
   12.4870    3.8680   22.9420 C   0  0  0  0  0  0  0  0  0  0  0  0
   11.2150    3.9460   23.5130 C   0  0  0  0  0  0  0  0  0  0  0  0
   10.5430    2.8210   23.8530 C   0  0  0  0  0  0  0  0  0  0  0  0
   11.1210    1.6030   23.6350 C   0  0  0  0  0  0  0  0  0  0  0  0
  1  3  1  0
  2  3  2  0
  4  5  2  0
 10  6  1  0
  7 10  2  0
  8 10  2  0
 11 12  1  0
  9 13  1  0
 12 13  1  0
  3 14  1  0
 14 15  1  0
 16 11  1  6
 15 16  1  0
  5 17  1  0
 16 17  1  0
 17 18  1  0
 14 19  1  0
 18 19  1  0
  5 21  1  0
 20 21  1  0
 21 22  2  0
 22 23  1  0
 20 24  1  0
 23 24  2  0
  9 25  1  0
 25 26  2  0
 26 27  1  0
 10 28  1  0
 27 28  2  0
 28 29  1  0
 25 30  1  0
 29 30  2  0
M  END
