x0736-x2572
     RDKit          3D

 35 39  0  0  0  0  0  0  0  0999 V2000
    4.7180    1.3050   21.6190 C   0  0  0  0  0  0  0  0  0  0  0  0
    8.7680    1.2960   21.2720 O   0  0  0  0  0  0  0  0  0  0  0  0
    7.2300   -0.4570   21.2090 N   0  0  0  0  0  0  0  0  0  0  0  0
   13.5750   -3.2650   20.6620 N   0  0  0  0  0  0  0  0  0  0  0  0
    8.2780    0.2290   21.7000 C   0  0  0  0  0  0  0  0  0  0  0  0
    8.7930   -0.5300   22.8750 C   0  0  2  0  0  0  0  0  0  0  0  0
   13.0530   -2.2450   21.4060 C   0  0  0  0  0  0  0  0  0  0  0  0
    7.3410   -3.0140   18.7830 C   0  0  0  0  0  0  0  0  0  0  0  0
    5.4300   -4.1540   19.7210 O   0  0  0  0  0  0  0  0  0  0  0  0
    6.3680   -3.3250   19.8670 C   0  0  0  0  0  0  0  0  0  0  0  0
    5.7090   -2.0980   24.9090 O   0  0  0  0  0  0  0  0  0  0  0  0
    7.0960   -1.9840   24.6330 C   0  0  0  0  0  0  0  0  0  0  0  0
    6.2860    0.4700   17.7230 N   0  0  0  0  0  0  0  0  0  0  0  0
    6.9560   -0.1090   18.8870 C   0  0  0  0  0  0  0  0  0  0  0  0
    6.4560    0.1590   20.1380 C   0  0  0  0  0  0  0  0  0  0  0  0
    5.3350    0.9540   20.3010 C   0  0  0  0  0  0  0  0  0  0  0  0
    4.7320    1.4730   19.2120 C   0  0  0  0  0  0  0  0  0  0  0  0
    5.2190    1.2280   17.9320 C   0  0  0  0  0  0  0  0  0  0  0  0
   10.8580    0.6190   23.6190 C   0  0  0  0  0  0  0  0  0  0  0  0
   12.2970    0.7720   23.6390 C   0  0  0  0  0  0  0  0  0  0  0  0
   13.0370   -0.2240   22.8680 C   0  0  0  0  0  0  0  0  0  0  0  0
   12.4070   -1.2520   22.1660 C   0  0  0  0  0  0  0  0  0  0  0  0
   11.0350   -1.3010   22.2110 C   0  0  0  0  0  0  0  0  0  0  0  0
   10.2690   -0.3990   22.9100 C   0  0  0  0  0  0  0  0  0  0  0  0
    6.5290   -2.6900   21.0900 N   0  0  0  0  0  0  0  0  0  0  0  0
    7.5770   -1.8310   21.3300 C   0  0  2  0  0  0  0  0  0  0  0  0
    8.3480   -1.9590   22.5120 C   0  0  2  0  0  0  0  0  0  0  0  0
    7.6600   -2.7100   23.5820 N   0  0  0  0  0  0  0  0  0  0  0  0
    6.9690   -3.8770   23.0860 C   0  0  0  0  0  0  0  0  0  0  0  0
    6.0640   -3.4100   22.1480 C   0  0  0  0  0  0  0  0  0  0  0  0
    7.4850    0.0860   25.9150 O   0  0  0  0  0  0  0  0  0  0  0  0
    7.9480   -1.1570   25.4300 C   0  0  0  0  0  0  0  0  0  0  0  0
    9.2410   -1.3150   25.8730 C   0  0  0  0  0  0  0  0  0  0  0  0
    9.5530   -0.2330   26.6090 C   0  0  0  0  0  0  0  0  0  0  0  0
    8.5170    0.6250   26.6440 C   0  0  0  0  0  0  0  0  0  0  0  0
  2  5  2  0
  3  5  1  0
  5  6  1  0
  4  7  3  0
  8 10  1  0
  9 10  2  0
 11 12  2  0
 13 14  2  0
  3 15  1  0
 14 15  1  0
  1 16  1  0
 15 16  2  0
 16 17  1  0
 13 18  1  0
 17 18  2  0
 19 20  2  0
 20 21  1  0
  7 22  1  0
 21 22  2  0
 22 23  1  0
  6 24  1  6
 19 24  1  0
 23 24  2  0
 10 25  1  0
 26  3  1  1
 25 26  1  0
  6 27  1  0
 26 27  1  0
 12 28  1  0
 27 28  1  1
 28 29  1  0
 25 30  1  0
 29 30  1  0
 12 32  1  0
 31 32  1  0
 32 33  2  0
 33 34  1  0
 31 35  1  0
 34 35  2  0
M  END
