x0736-x2600
     RDKit          3D

 34 38  0  0  0  0  0  0  0  0999 V2000
    7.2930   -3.0310   18.8560 C   0  0  0  0  0  0  0  0  0  0  0  0
    5.3750   -4.1880   19.7420 O   0  0  0  0  0  0  0  0  0  0  0  0
    6.3430   -3.4110   19.9420 C   0  0  0  0  0  0  0  0  0  0  0  0
    5.9670   -2.2810   24.8890 O   0  0  0  0  0  0  0  0  0  0  0  0
    7.1870   -2.1630   24.7160 C   0  0  0  0  0  0  0  0  0  0  0  0
   13.5980   -3.2050   20.6420 N   0  0  0  0  0  0  0  0  0  0  0  0
    8.2980    0.2230   21.7670 C   0  0  0  0  0  0  0  0  0  0  0  0
    8.7770    1.2960   21.3420 O   0  0  0  0  0  0  0  0  0  0  0  0
    8.8290   -0.5810   22.8930 C   0  0  1  0  0  0  0  0  0  0  0  0
    7.1640   -0.4330   21.2300 N   0  0  0  0  0  0  0  0  0  0  0  0
   13.0910   -2.1340   21.4180 C   0  0  0  0  0  0  0  0  0  0  0  0
    6.5570   -2.9020   21.2150 N   0  0  0  0  0  0  0  0  0  0  0  0
    7.5930   -1.8350   21.3660 C   0  0  2  0  0  0  0  0  0  0  0  0
    8.3890   -2.0250   22.5180 C   0  0  2  0  0  0  0  0  0  0  0  0
    7.7840   -2.8380   23.6390 N   0  0  0  0  0  0  0  0  0  0  0  0
    6.9590   -3.9230   23.1200 C   0  0  0  0  0  0  0  0  0  0  0  0
    5.9440   -3.4180   22.3210 C   0  0  0  0  0  0  0  0  0  0  0  0
    8.3660   -0.0910   25.2050 O   0  0  0  0  0  0  0  0  0  0  0  0
    7.9700   -1.3580   25.6250 C   0  0  0  0  0  0  0  0  0  0  0  0
    8.4500   -1.5680   26.9290 C   0  0  0  0  0  0  0  0  0  0  0  0
    9.1250   -0.4460   27.2840 C   0  0  0  0  0  0  0  0  0  0  0  0
    9.0810    0.5020   26.2020 C   0  0  0  0  0  0  0  0  0  0  0  0
    6.3120    0.6010   17.7540 N   0  0  0  0  0  0  0  0  0  0  0  0
    6.9060    0.0530   18.8180 C   0  0  0  0  0  0  0  0  0  0  0  0
    6.4820    0.1460   20.1280 C   0  0  0  0  0  0  0  0  0  0  0  0
    5.3080    0.8870   20.2520 C   0  0  0  0  0  0  0  0  0  0  0  0
    4.6820    1.4590   19.1300 C   0  0  0  0  0  0  0  0  0  0  0  0
    5.1920    1.3180   17.8710 C   0  0  0  0  0  0  0  0  0  0  0  0
   10.8970    0.5730   23.6650 C   0  0  0  0  0  0  0  0  0  0  0  0
   12.2590    0.6930   23.6560 C   0  0  0  0  0  0  0  0  0  0  0  0
   13.0650   -0.1690   22.9260 C   0  0  0  0  0  0  0  0  0  0  0  0
   12.4340   -1.1710   22.2010 C   0  0  0  0  0  0  0  0  0  0  0  0
   11.0790   -1.3020   22.1940 C   0  0  0  0  0  0  0  0  0  0  0  0
   10.3050   -0.4410   22.9140 C   0  0  0  0  0  0  0  0  0  0  0  0
  1  3  1  0
  2  3  2  0
  4  5  2  0
  7  8  2  0
  7  9  1  0
  7 10  1  0
  6 11  3  0
  3 12  1  0
 13 10  1  1
 12 13  1  0
  9 14  1  0
 13 14  1  0
  5 15  1  0
 14 15  1  1
 15 16  1  0
 12 17  1  0
 16 17  1  0
  5 19  1  0
 18 19  1  0
 19 20  2  0
 20 21  1  0
 18 22  1  0
 21 22  2  0
 23 24  2  0
 10 25  1  0
 24 25  1  0
 25 26  2  0
 26 27  1  0
 23 28  1  0
 27 28  2  0
 29 30  2  0
 30 31  1  0
 11 32  1  0
 31 32  2  0
 32 33  1  0
  9 34  1  6
 29 34  1  0
 33 34  2  0
M  END
