x0736-x2779
     RDKit          3D

 22 24  0  0  0  0  0  0  0  0999 V2000
    7.3510   -2.9720   18.8650 C   0  0  0  0  0  0  0  0  0  0  0  0
    5.4370   -4.0980   19.7370 O   0  0  0  0  0  0  0  0  0  0  0  0
    6.4200   -3.3350   19.9600 C   0  0  0  0  0  0  0  0  0  0  0  0
    6.0070   -2.0930   24.7460 O   0  0  0  0  0  0  0  0  0  0  0  0
    7.2350   -2.1900   24.7220 C   0  0  0  0  0  0  0  0  0  0  0  0
   10.1480   -2.5940   22.9530 C   0  0  0  0  0  0  0  0  0  0  0  0
    6.6170   -2.8730   21.2960 N   0  0  0  0  0  0  0  0  0  0  0  0
    7.7890   -2.0020   21.6550 C   0  0  0  0  0  0  0  0  0  0  0  0
    8.6140   -2.7470   22.7090 C   0  0  2  0  0  0  0  0  0  0  0  0
    7.7920   -3.1540   23.8620 N   0  0  0  0  0  0  0  0  0  0  0  0
    6.9010   -4.1770   23.3460 C   0  0  0  0  0  0  0  0  0  0  0  0
    6.0070   -3.6370   22.4060 C   0  0  0  0  0  0  0  0  0  0  0  0
    8.3160   -0.0310   25.2480 O   0  0  0  0  0  0  0  0  0  0  0  0
    7.9980   -1.3300   25.5990 C   0  0  0  0  0  0  0  0  0  0  0  0
    8.5220   -1.5610   26.8650 C   0  0  0  0  0  0  0  0  0  0  0  0
    9.1300   -0.4540   27.2610 C   0  0  0  0  0  0  0  0  0  0  0  0
    9.0170    0.5140   26.2810 C   0  0  0  0  0  0  0  0  0  0  0  0
   12.1920   -1.0900   22.5270 C   0  0  0  0  0  0  0  0  0  0  0  0
   10.9140   -1.3170   23.1990 C   0  0  0  0  0  0  0  0  0  0  0  0
   10.5400   -0.0190   24.2180 S   0  0  0  0  0  0  0  0  0  0  0  0
   12.0050    0.7440   23.7410 C   0  0  0  0  0  0  0  0  0  0  0  0
   12.7520    0.0170   22.8350 C   0  0  0  0  0  0  0  0  0  0  0  0
  1  3  1  0
  2  3  2  0
  4  5  2  0
  3  7  1  0
  7  8  1  0
  9  6  1  1
  8  9  1  0
  5 10  1  0
  9 10  1  0
 10 11  1  0
  7 12  1  0
 11 12  1  0
  5 14  1  0
 13 14  1  0
 14 15  2  0
 15 16  1  0
 13 17  1  0
 16 17  2  0
  6 19  1  0
 18 19  2  0
 19 20  1  0
 20 21  1  0
 18 22  1  0
 21 22  2  0
M  END
