x0731-x2563-x0771-x2705-x3117
     RDKit          3D

 54 62  0  0  0  0  0  0  0  0999 V2000
    6.3040   -1.3800   22.2430 N   0  0  0  0  0  0  0  0  0  0  0  0
    6.8310   -4.2540   20.2800 C   0  0  2  0  0  0  0  0  0  0  0  0
    4.8180   -3.0320   21.2370 O   0  0  0  0  0  0  0  0  0  0  0  0
    7.0960   -3.5650   21.5260 C   0  0  2  0  0  0  0  0  0  0  0  0
    7.5770    1.8430   22.8430 N   0  0  0  0  0  0  0  0  0  0  0  0
    8.6530    1.2340   21.0890 O   0  0  0  0  0  0  0  0  0  0  0  0
    5.9710   -2.6450   21.6330 C   0  0  0  0  0  0  0  0  0  0  0  0
    6.6690   -0.0540   21.5840 C   0  0  1  0  0  0  0  0  0  0  0  0
    7.9270    0.7900   21.9940 C   0  0  2  0  0  0  0  0  0  0  0  0
   10.2120    2.0430   24.0420 C   0  0  0  0  0  0  0  0  0  0  0  0
    9.3390    1.2260   24.9980 C   0  0  0  0  0  0  0  0  0  0  0  0
    6.1830    4.2340   21.8200 C   0  0  0  0  0  0  0  0  0  0  0  0
   12.2170   -1.5690   23.4060 C   0  0  0  0  0  0  0  0  0  0  0  0
   12.9000   -0.3350   24.0080 C   0  0  0  0  0  0  0  0  0  0  0  0
   12.4970   -2.8020   24.2670 C   0  0  0  0  0  0  0  0  0  0  0  0
   12.8020   -1.7860   21.9890 C   0  0  0  0  0  0  0  0  0  0  0  0
   13.5180   -2.6640   25.3640 C   0  0  0  0  0  0  0  0  0  0  0  0
    5.5730   -4.0770   19.6180 O   0  0  0  0  0  0  0  0  0  0  0  0
    0.6280   -1.4330   26.0620 C   0  0  0  0  0  0  0  0  0  0  0  0
    4.5850   -6.9290   25.7550 O   0  0  0  0  0  0  0  0  0  0  0  0
    6.0720   -5.1590   26.6890 O   0  0  0  0  0  0  0  0  0  0  0  0
    2.0030   -6.0650   24.8870 C   0  0  0  0  0  0  0  0  0  0  0  0
    5.1290   -5.5920   25.6840 S   0  0  0  0  0  0  0  0  0  0  0  0
    5.5100    1.1520   18.5630 C   0  0  1  0  0  0  0  0  0  0  0  0
    4.9860    0.0080   18.2840 C   0  0  0  0  0  0  0  0  0  0  0  0
    5.0050   -0.0890   19.6170 C   0  0  1  0  0  0  0  0  0  0  0  0
    6.1300    0.3000   20.2310 C   0  0  0  0  0  0  0  0  0  0  0  0
    6.7480    1.2070   19.4740 C   0  0  0  0  0  0  0  0  0  0  0  0
    9.7690   -1.8200   23.9820 N   0  0  0  0  0  0  0  0  0  0  0  0
    8.6600   -1.1520   23.5690 N   0  0  0  0  0  0  0  0  0  0  0  0
    8.8970   -0.1480   22.6370 C   0  0  0  0  0  0  0  0  0  0  0  0
   10.2230   -0.1740   22.4330 C   0  0  0  0  0  0  0  0  0  0  0  0
   10.7640   -1.2330   23.3020 C   0  0  0  0  0  0  0  0  0  0  0  0
    9.4740    3.2460   23.5190 C   0  0  0  0  0  0  0  0  0  0  0  0
   10.0840    4.5020   23.6230 C   0  0  0  0  0  0  0  0  0  0  0  0
    9.4490    5.6470   23.1540 C   0  0  0  0  0  0  0  0  0  0  0  0
    8.1800    5.5530   22.5670 C   0  0  0  0  0  0  0  0  0  0  0  0
    7.5510    4.2850   22.4570 C   0  0  0  0  0  0  0  0  0  0  0  0
    8.2000    3.1320   22.9350 C   0  0  0  0  0  0  0  0  0  0  0  0
    1.7170   -2.4530   25.9610 C   0  0  0  0  0  0  0  0  0  0  0  0
    1.4490   -3.7360   25.5040 C   0  0  0  0  0  0  0  0  0  0  0  0
    2.4500   -4.7130   25.4020 C   0  0  0  0  0  0  0  0  0  0  0  0
    3.7780   -4.4280   25.7640 C   0  0  0  0  0  0  0  0  0  0  0  0
    4.0920   -3.1480   26.2260 C   0  0  0  0  0  0  0  0  0  0  0  0
    3.0200   -2.1170   26.3300 C   0  0  0  0  0  0  0  0  0  0  0  0
    6.8820   -5.1440   21.5890 C   0  0  1  0  0  0  0  0  0  0  0  0
    5.5390   -5.7770   21.8450 C   0  0  0  0  0  0  0  0  0  0  0  0
    4.8610   -5.6530   23.0660 C   0  0  0  0  0  0  0  0  0  0  0  0
    5.8520   -5.3810   24.1380 N   0  0  0  0  0  0  0  0  0  0  0  0
    6.5920   -4.1320   23.8740 C   0  0  0  0  0  0  0  0  0  0  0  0
    7.3710   -4.3390   22.7270 C   0  0  2  0  0  0  0  0  0  0  0  0
    4.5190    2.3300   18.8980 C   0  0  0  0  0  0  0  0  0  0  0  0
    3.6380    1.8600   20.0460 C   0  0  0  0  0  0  0  0  0  0  0  0
    3.9330    0.4620   20.4310 C   0  0  0  0  0  0  0  0  0  0  0  0
  2  4  1  0
  1  7  1  0
  3  7  2  0
  4  7  1  1
  8  1  1  6
  5  9  1  0
  9  6  1  6
  8  9  1  0
 10 11  1  0
 13 14  1  0
 13 15  1  0
 13 16  1  0
 15 17  1  0
  2 18  1  1
 20 23  2  0
 21 23  2  0
 24 25  1  6
 24 26  1  0
 26 25  1  6
  8 27  1  0
 26 27  1  0
 24 28  1  0
 27 28  2  0
 29 30  1  0
  9 31  1  0
 30 31  1  0
 31 32  2  0
 13 33  1  0
 29 33  2  0
 32 33  1  0
 10 34  1  0
 34 35  2  0
 35 36  1  0
 36 37  2  0
 12 38  1  0
 37 38  1  0
  5 39  1  0
 34 39  1  0
 38 39  2  0
 19 40  1  0
 40 41  2  0
 22 42  1  0
 41 42  1  0
 23 43  1  0
 42 43  2  0
 43 44  1  0
 40 45  1  0
 44 45  2  0
  2 46  1  0
  4 46  1  0
 46 47  1  1
 47 48  1  0
 23 49  1  0
 48 49  1  0
 49 50  1  0
  4 51  1  0
 46 51  1  0
 51 50  1  1
 24 52  1  0
 52 53  1  0
 26 54  1  0
 53 54  2  0
M  END
