x0731-x0689-x0771-x2705-x3117
     RDKit          3D

 52 58  0  0  0  0  0  0  0  0999 V2000
    6.8260   -1.3950   22.0390 N   0  0  0  0  0  0  0  0  0  0  0  0
    6.8660   -4.4530   20.3470 C   0  0  2  0  0  0  0  0  0  0  0  0
    4.8240   -3.0150   21.2980 O   0  0  0  0  0  0  0  0  0  0  0  0
    7.1260   -3.6530   21.5040 C   0  0  2  0  0  0  0  0  0  0  0  0
    7.3490    2.0570   22.8700 N   0  0  0  0  0  0  0  0  0  0  0  0
    8.7650    0.9540   21.4420 O   0  0  0  0  0  0  0  0  0  0  0  0
    6.1100   -2.6360   21.6010 C   0  0  0  0  0  0  0  0  0  0  0  0
    6.5200    0.0160   21.6020 C   0  0  1  0  0  0  0  0  0  0  0  0
    7.6470    1.0410   21.9780 C   0  0  0  0  0  0  0  0  0  0  0  0
   10.1090    2.0510   24.0030 C   0  0  0  0  0  0  0  0  0  0  0  0
    9.2600    1.2360   24.9760 C   0  0  0  0  0  0  0  0  0  0  0  0
    6.1340    4.5280   21.9080 C   0  0  0  0  0  0  0  0  0  0  0  0
   11.9680   -1.5210   23.2650 C   0  0  0  0  0  0  0  0  0  0  0  0
   12.5190   -0.1960   23.8580 C   0  0  0  0  0  0  0  0  0  0  0  0
   12.3920   -2.7280   24.1470 C   0  0  0  0  0  0  0  0  0  0  0  0
   12.6340   -1.7320   21.8860 C   0  0  0  0  0  0  0  0  0  0  0  0
   13.4190   -2.5270   25.2350 C   0  0  0  0  0  0  0  0  0  0  0  0
    5.5940   -4.3360   19.7100 O   0  0  0  0  0  0  0  0  0  0  0  0
    0.7110   -1.4160   26.2370 C   0  0  0  0  0  0  0  0  0  0  0  0
    4.4590   -6.9650   25.8460 O   0  0  0  0  0  0  0  0  0  0  0  0
    6.0730   -5.2630   26.6970 O   0  0  0  0  0  0  0  0  0  0  0  0
    1.9260   -6.0900   24.9180 C   0  0  0  0  0  0  0  0  0  0  0  0
    5.0470   -5.6480   25.7580 S   0  0  0  0  0  0  0  0  0  0  0  0
    6.2900    0.3520   17.8260 N   0  0  0  0  0  0  0  0  0  0  0  0
    5.1660    1.0780   17.7740 C   0  0  0  0  0  0  0  0  0  0  0  0
    4.4340    1.4620   18.8570 C   0  0  0  0  0  0  0  0  0  0  0  0
    4.8880    1.0900   20.0970 C   0  0  0  0  0  0  0  0  0  0  0  0
    6.0620    0.3440   20.2160 C   0  0  0  0  0  0  0  0  0  0  0  0
    6.7190   -0.0050   19.0480 C   0  0  0  0  0  0  0  0  0  0  0  0
    9.7050   -1.4420   24.3090 N   0  0  0  0  0  0  0  0  0  0  0  0
    8.4120   -1.4190   23.9540 N   0  0  0  0  0  0  0  0  0  0  0  0
    8.1830   -1.4460   22.5890 C   0  0  0  0  0  0  0  0  0  0  0  0
    9.4960   -1.5000   22.0760 C   0  0  0  0  0  0  0  0  0  0  0  0
   10.4160   -1.4900   23.1880 C   0  0  0  0  0  0  0  0  0  0  0  0
    9.4080    3.2890   23.5060 C   0  0  0  0  0  0  0  0  0  0  0  0
   10.0990    4.5150   23.5860 C   0  0  0  0  0  0  0  0  0  0  0  0
    9.5230    5.7020   23.1400 C   0  0  0  0  0  0  0  0  0  0  0  0
    8.2390    5.6870   22.6000 C   0  0  0  0  0  0  0  0  0  0  0  0
    7.5190    4.4810   22.5050 C   0  0  0  0  0  0  0  0  0  0  0  0
    8.1020    3.2750   22.9640 C   0  0  0  0  0  0  0  0  0  0  0  0
    1.7530   -2.4800   26.0870 C   0  0  0  0  0  0  0  0  0  0  0  0
    1.4180   -3.7480   25.5890 C   0  0  0  0  0  0  0  0  0  0  0  0
    2.3830   -4.7600   25.4570 C   0  0  0  0  0  0  0  0  0  0  0  0
    3.7070   -4.4720   25.8390 C   0  0  0  0  0  0  0  0  0  0  0  0
    4.0460   -3.2000   26.3290 C   0  0  0  0  0  0  0  0  0  0  0  0
    3.0710   -2.2240   26.4460 C   0  0  0  0  0  0  0  0  0  0  0  0
    6.8620   -5.2590   21.5970 C   0  0  1  0  0  0  0  0  0  0  0  0
    5.8310   -6.3020   21.8820 C   0  0  0  0  0  0  0  0  0  0  0  0
    4.8940   -5.9600   23.0440 C   0  0  0  0  0  0  0  0  0  0  0  0
    5.7040   -5.4870   24.1980 N   0  0  0  0  0  0  0  0  0  0  0  0
    6.4420   -4.2260   23.9410 C   0  0  0  0  0  0  0  0  0  0  0  0
    7.3080   -4.4170   22.7410 C   0  0  2  0  0  0  0  0  0  0  0  0
  2  4  1  0
  1  7  1  0
  3  7  2  0
  4  7  1  1
  1  8  1  0
  5  9  1  0
  6  9  2  0
  8  9  1  6
 10 11  1  0
 13 14  1  0
 13 15  1  0
 13 16  1  0
 15 17  1  0
  2 18  1  1
 20 23  2  0
 21 23  2  0
 24 25  2  0
 25 26  1  0
 26 27  2  0
  8 28  1  0
 27 28  1  0
 24 29  1  0
 28 29  2  0
 30 31  1  0
  1 32  1  0
 31 32  2  0
 32 33  1  0
 13 34  1  0
 30 34  1  0
 33 34  2  0
 10 35  1  0
 35 36  2  0
 36 37  1  0
 37 38  2  0
 12 39  1  0
 38 39  1  0
  5 40  1  0
 35 40  1  0
 39 40  2  0
 19 41  1  0
 41 42  2  0
 22 43  1  0
 42 43  1  0
 23 44  1  0
 43 44  2  0
 44 45  1  0
 41 46  1  0
 45 46  2  0
  2 47  1  0
  4 47  1  0
 47 48  1  1
 48 49  1  0
 23 50  1  0
 49 50  1  0
 50 51  1  0
  4 52  1  0
 47 52  1  0
 52 51  1  1
M  END
