x0749-x2562
     RDKit          3D

 41 46  0  0  0  0  0  0  0  0999 V2000
    8.1150   -0.0450   21.4330 C   0  0  0  0  0  0  0  0  0  0  0  0
    8.0280    1.1810   21.3990 O   0  0  0  0  0  0  0  0  0  0  0  0
    7.0430   -0.9340   20.8050 C   0  0  2  0  0  0  0  0  0  0  0  0
   12.1000    2.8150   23.4070 O   0  0  0  0  0  0  0  0  0  0  0  0
    9.2430   -0.8170   22.0190 N   0  0  0  0  0  0  0  0  0  0  0  0
   12.6990    6.8620   22.6180 O   0  0  0  0  0  0  0  0  0  0  0  0
    7.3120   -3.2650   19.4360 C   0  0  0  0  0  0  0  0  0  0  0  0
    5.2920   -4.4570   19.8710 O   0  0  0  0  0  0  0  0  0  0  0  0
    6.3780   -4.0320   20.3260 C   0  0  0  0  0  0  0  0  0  0  0  0
    7.8670   -1.9700   20.0470 C   0  0  0  0  0  0  0  0  0  0  0  0
    4.4500    1.4800   19.3040 N   0  0  0  0  0  0  0  0  0  0  0  0
    5.0170    1.4770   18.0430 C   0  0  0  0  0  0  0  0  0  0  0  0
    6.1030    0.7780   17.6650 N   0  0  0  0  0  0  0  0  0  0  0  0
    6.6920    0.0290   18.5970 C   0  0  0  0  0  0  0  0  0  0  0  0
    6.2530   -0.0670   19.8950 C   0  0  0  0  0  0  0  0  0  0  0  0
    5.1480    0.6370   20.2600 C   0  0  0  0  0  0  0  0  0  0  0  0
   12.4720    4.5930   21.7720 N   0  0  0  0  0  0  0  0  0  0  0  0
   13.3550    5.6470   22.3280 C   0  0  2  0  0  0  0  0  0  0  0  0
   13.4830    4.7820   23.2860 C   0  0  0  0  0  0  0  0  0  0  0  0
   13.0690    3.6170   22.7350 C   0  0  1  0  0  0  0  0  0  0  0  0
   11.6220   -1.1530   22.1470 C   0  0  0  0  0  0  0  0  0  0  0  0
   12.9880   -0.6790   22.4150 C   0  0  0  0  0  0  0  0  0  0  0  0
   13.0560    0.7290   22.8500 C   0  0  0  0  0  0  0  0  0  0  0  0
   11.9150    1.5240   22.9950 C   0  0  0  0  0  0  0  0  0  0  0  0
   10.6680    1.0120   22.7260 C   0  0  0  0  0  0  0  0  0  0  0  0
   10.5060   -0.3030   22.3040 C   0  0  0  0  0  0  0  0  0  0  0  0
    6.6540   -4.3510   21.6470 N   0  0  0  0  0  0  0  0  0  0  0  0
    7.8470   -3.8120   22.3120 C   0  0  0  0  0  0  0  0  0  0  0  0
    7.9230   -4.2000   23.6380 C   0  0  1  0  0  0  0  0  0  0  0  0
    7.7800   -5.5620   23.8640 C   0  0  0  0  0  0  0  0  0  0  0  0
    7.3390   -6.2470   22.7230 C   0  0  0  0  0  0  0  0  0  0  0  0
    6.2360   -5.6550   22.1270 C   0  0  0  0  0  0  0  0  0  0  0  0
    9.6870   -2.5130   23.9130 N   0  0  0  0  0  0  0  0  0  0  0  0
    9.2430   -3.7170   24.1430 C   0  0  0  0  0  0  0  0  0  0  0  0
   10.2700   -4.7360   25.0500 S   0  0  0  0  0  0  0  0  0  0  0  0
   11.4500   -3.4850   25.0960 C   0  0  0  0  0  0  0  0  0  0  0  0
   10.9440   -2.3550   24.4420 C   0  0  0  0  0  0  0  0  0  0  0  0
   11.6710   -1.1750   24.3360 C   0  0  0  0  0  0  0  0  0  0  0  0
   12.9430   -1.0600   24.8510 C   0  0  0  0  0  0  0  0  0  0  0  0
   13.5660   -2.2470   25.5570 C   0  0  0  0  0  0  0  0  0  0  0  0
   12.7300   -3.4890   25.6630 C   0  0  0  0  0  0  0  0  0  0  0  0
  1  2  2  0
  1  3  1  0
  1  5  1  0
  7  9  1  0
  8  9  2  0
  3 10  1  6
  7 10  1  0
 11 12  2  0
 12 13  1  0
 13 14  2  0
  3 15  1  0
 14 15  1  0
 11 16  1  0
 15 16  2  0
 18  6  1  1
 17 18  1  0
 18 19  1  0
 20  4  1  1
 17 20  1  0
 19 20  1  0
 21 22  2  0
 22 23  1  0
  4 24  1  0
 23 24  2  0
 24 25  1  0
  5 26  1  0
 21 26  1  0
 25 26  2  0
  9 27  1  0
 27 28  1  0
 28 29  1  0
 29 30  1  0
 30 31  1  0
 27 32  1  0
 31 32  1  0
 29 34  1  6
 33 34  2  0
 34 35  1  0
 35 36  1  0
 33 37  1  0
 36 37  2  0
 37 38  1  0
 38 39  2  0
 39 40  1  0
 36 41  1  0
 40 41  2  0
M  END
