x0749-x0107
     RDKit          3D

 30 33  0  0  0  0  0  0  0  0999 V2000
    7.4980   -3.1490   19.5790 C   0  0  0  0  0  0  0  0  0  0  0  0
    5.3460   -4.2620   19.8070 O   0  0  0  0  0  0  0  0  0  0  0  0
    6.4870   -4.0110   20.2650 C   0  0  0  0  0  0  0  0  0  0  0  0
    9.8700   -0.5870   22.3080 C   0  0  0  0  0  0  0  0  0  0  0  0
    8.8420    0.0060   21.4160 C   0  0  0  0  0  0  0  0  0  0  0  0
    8.9230    1.2310   21.1750 O   0  0  0  0  0  0  0  0  0  0  0  0
    7.8520   -0.8430   20.8630 N   0  0  0  0  0  0  0  0  0  0  0  0
    5.4770    0.5400   21.9180 C   0  0  0  0  0  0  0  0  0  0  0  0
    8.0170   -2.2540   20.7800 C   0  0  0  0  0  0  0  0  0  0  0  0
    6.8800   -4.5860   21.4630 N   0  0  0  0  0  0  0  0  0  0  0  0
    7.8560   -3.8580   22.2830 C   0  0  0  0  0  0  0  0  0  0  0  0
    7.9860   -4.3360   23.5620 C   0  0  1  0  0  0  0  0  0  0  0  0
    7.8690   -5.6810   23.7340 C   0  0  0  0  0  0  0  0  0  0  0  0
    6.8180   -6.3060   23.0360 C   0  0  0  0  0  0  0  0  0  0  0  0
    6.1210   -5.6490   22.0820 C   0  0  0  0  0  0  0  0  0  0  0  0
    9.8260   -2.6990   23.5590 N   0  0  0  0  0  0  0  0  0  0  0  0
    9.3190   -3.8420   24.0450 C   0  0  0  0  0  0  0  0  0  0  0  0
   10.2860   -4.6690   25.2080 S   0  0  0  0  0  0  0  0  0  0  0  0
   11.5060   -3.4630   25.0450 C   0  0  0  0  0  0  0  0  0  0  0  0
   11.0190   -2.4780   24.0880 C   0  0  0  0  0  0  0  0  0  0  0  0
   11.9190   -1.3550   23.8180 C   0  0  0  0  0  0  0  0  0  0  0  0
   13.1420   -1.2730   24.4370 C   0  0  0  0  0  0  0  0  0  0  0  0
   13.5540   -2.2560   25.3390 C   0  0  0  0  0  0  0  0  0  0  0  0
   12.7550   -3.3440   25.6480 C   0  0  0  0  0  0  0  0  0  0  0  0
    6.8820   -0.1960   20.0410 C   0  0  0  0  0  0  0  0  0  0  0  0
    5.7570    0.4700   20.5150 C   0  0  0  0  0  0  0  0  0  0  0  0
    4.9050    1.0730   19.5960 C   0  0  0  0  0  0  0  0  0  0  0  0
    5.1570    1.0220   18.2310 C   0  0  0  0  0  0  0  0  0  0  0  0
    6.2100    0.3970   17.7170 N   0  0  0  0  0  0  0  0  0  0  0  0
    7.0820   -0.2270   18.6850 C   0  0  0  0  0  0  0  0  0  0  0  0
  1  3  1  0
  2  3  2  0
  4  5  1  0
  5  6  2  0
  5  7  1  0
  1  9  1  0
  7  9  1  0
  3 10  1  0
 10 11  1  0
 11 12  1  0
 12 13  1  0
 13 14  1  0
 10 15  1  0
 14 15  1  0
 12 17  1  6
 16 17  2  0
 17 18  1  0
 18 19  1  0
 16 20  1  0
 19 20  2  0
 20 21  1  0
 21 22  2  0
 22 23  1  0
 19 24  1  0
 23 24  2  0
  7 25  1  0
  8 26  1  0
 25 26  2  0
 26 27  1  0
 27 28  2  0
 28 29  1  0
 25 30  1  0
 29 30  2  0
M  END
