x0749-x0540
     RDKit          3D

 39 44  0  0  0  0  0  0  0  0999 V2000
    6.6890    0.4670   23.9340 O   0  0  0  0  0  0  0  0  0  0  0  0
    6.0880    1.5050   23.6930 C   0  0  0  0  0  0  0  0  0  0  0  0
    6.3170    2.2860   22.4350 N   0  0  0  0  0  0  0  0  0  0  0  0
    7.5430    2.1170   21.6170 C   0  0  0  0  0  0  0  0  0  0  0  0
    7.3900    0.9480   20.6130 C   0  0  0  0  0  0  0  0  0  0  0  0
    5.0990    2.0340   24.6480 N   0  0  0  0  0  0  0  0  0  0  0  0
    7.0600   -3.5550   19.5940 C   0  0  0  0  0  0  0  0  0  0  0  0
    4.9370   -4.6470   19.8650 O   0  0  0  0  0  0  0  0  0  0  0  0
    6.1180   -4.5180   20.2720 C   0  0  0  0  0  0  0  0  0  0  0  0
    7.1170   -0.0510   19.6030 C   0  0  0  0  0  0  0  0  0  0  0  0
    7.9180   -1.3360   19.5350 C   0  0  0  0  0  0  0  0  0  0  0  0
    7.3110   -2.2610   20.3820 C   0  0  0  0  0  0  0  0  0  0  0  0
    6.1350    0.3940   18.8800 C   0  0  0  0  0  0  0  0  0  0  0  0
    5.0550    0.8830   18.0850 C   0  0  0  0  0  0  0  0  0  0  0  0
    4.3740    1.9910   18.1190 N   0  0  0  0  0  0  0  0  0  0  0  0
    4.6570    2.8770   19.0190 C   0  0  0  0  0  0  0  0  0  0  0  0
    5.6490    2.6420   19.9180 C   0  0  0  0  0  0  0  0  0  0  0  0
    6.3810    1.4520   19.8820 C   0  0  0  0  0  0  0  0  0  0  0  0
    2.8110    2.6790   25.1870 C   0  0  0  0  0  0  0  0  0  0  0  0
    1.3870    2.4190   24.9230 C   0  0  0  0  0  0  0  0  0  0  0  0
    1.0910    1.9630   23.6400 C   0  0  0  0  0  0  0  0  0  0  0  0
    1.9710    0.9780   23.1790 C   0  0  0  0  0  0  0  0  0  0  0  0
    3.3420    1.2100   23.4030 C   0  0  0  0  0  0  0  0  0  0  0  0
    3.7170    1.5520   24.6780 C   0  0  0  0  0  0  0  0  0  0  0  0
    6.5580   -5.3030   21.3620 N   0  0  0  0  0  0  0  0  0  0  0  0
    7.9600   -5.4200   21.8440 C   0  0  0  0  0  0  0  0  0  0  0  0
    8.0190   -5.8830   23.1480 C   0  0  2  0  0  0  0  0  0  0  0  0
    6.8650   -5.6290   23.8850 C   0  0  0  0  0  0  0  0  0  0  0  0
    5.7390   -6.2470   23.3380 C   0  0  0  0  0  0  0  0  0  0  0  0
    5.6110   -6.2480   21.9500 C   0  0  0  0  0  0  0  0  0  0  0  0
    9.9100   -4.0840   23.1800 N   0  0  0  0  0  0  0  0  0  0  0  0
    9.2000   -5.1940   23.7980 C   0  0  0  0  0  0  0  0  0  0  0  0
    9.8490   -5.6350   25.3240 S   0  0  0  0  0  0  0  0  0  0  0  0
   11.0800   -4.4200   25.2060 C   0  0  0  0  0  0  0  0  0  0  0  0
   10.9520   -3.6930   23.9970 C   0  0  0  0  0  0  0  0  0  0  0  0
   11.8410   -2.6570   23.6770 C   0  0  0  0  0  0  0  0  0  0  0  0
   12.9720   -2.3000   24.6310 C   0  0  0  0  0  0  0  0  0  0  0  0
   13.1330   -3.0710   25.9360 C   0  0  0  0  0  0  0  0  0  0  0  0
   12.1040   -4.1420   26.1400 C   0  0  0  0  0  0  0  0  0  0  0  0
  1  2  2  0
  2  3  1  0
  3  4  1  0
  4  5  1  0
  2  6  1  0
  7  9  1  0
  8  9  2  0
  5 10  1  0
 10 11  1  0
  7 12  1  0
 11 12  1  0
 10 13  2  0
 13 14  1  0
 14 15  2  0
 15 16  1  0
 16 17  2  0
  5 18  2  0
 13 18  1  0
 17 18  1  0
 19 20  1  0
 20 21  1  0
 21 22  1  0
 22 23  1  0
  6 24  1  0
 19 24  1  0
 23 24  1  0
  9 25  1  0
 25 26  1  0
 26 27  1  0
 27 28  1  0
 28 29  1  0
 25 30  1  0
 29 30  1  0
 27 32  1  1
 31 32  2  0
 32 33  1  0
 33 34  1  0
 31 35  1  0
 34 35  2  0
 35 36  1  0
 36 37  2  0
 37 38  1  0
 34 39  1  0
 38 39  2  0
M  END
