x0755-x2705-x0691-x2643
     RDKit          3D

 51 57  0  0  0  0  0  0  0  0999 V2000
    6.9350   -1.4720   21.8890 N   0  0  0  0  0  0  0  0  0  0  0  0
    6.8040   -4.7220   20.4320 C   0  0  2  0  0  0  0  0  0  0  0  0
    4.8350   -3.0040   21.2410 O   0  0  0  0  0  0  0  0  0  0  0  0
    7.0240   -3.8400   21.6300 C   0  0  2  0  0  0  0  0  0  0  0  0
    7.4430    2.0140   22.8430 N   0  0  0  0  0  0  0  0  0  0  0  0
    8.8440    0.8690   21.4670 O   0  0  0  0  0  0  0  0  0  0  0  0
    6.1240   -2.6840   21.5640 C   0  0  0  0  0  0  0  0  0  0  0  0
    6.5590   -0.0390   21.6230 C   0  0  1  0  0  0  0  0  0  0  0  0
    7.7280    0.9720   21.9750 C   0  0  0  0  0  0  0  0  0  0  0  0
   10.1110    2.0580   23.9750 C   0  0  0  0  0  0  0  0  0  0  0  0
    9.2610    1.2510   24.9680 C   0  0  0  0  0  0  0  0  0  0  0  0
    6.1510    4.6240   21.8750 C   0  0  0  0  0  0  0  0  0  0  0  0
   12.0330   -1.5500   23.2530 C   0  0  0  0  0  0  0  0  0  0  0  0
   12.5810   -0.1720   23.6940 C   0  0  0  0  0  0  0  0  0  0  0  0
   12.5180   -2.5770   24.3190 C   0  0  0  0  0  0  0  0  0  0  0  0
   12.6940   -1.8770   21.8920 C   0  0  0  0  0  0  0  0  0  0  0  0
    5.5280   -4.4500   19.8740 O   0  0  0  0  0  0  0  0  0  0  0  0
    4.2310   -6.6080   26.2510 O   0  0  0  0  0  0  0  0  0  0  0  0
    6.1450   -4.8330   26.9570 O   0  0  0  0  0  0  0  0  0  0  0  0
    2.0050   -5.4610   25.6050 F   0  0  0  0  0  0  0  0  0  0  0  0
    5.4770   -2.2420   26.2050 F   0  0  0  0  0  0  0  0  0  0  0  0
    4.9470   -5.2220   25.9270 S   0  0  0  0  0  0  0  0  0  0  0  0
    6.3380    0.4050   17.8020 N   0  0  0  0  0  0  0  0  0  0  0  0
    5.2060    1.1320   17.7710 C   0  0  0  0  0  0  0  0  0  0  0  0
    4.4480    1.4980   18.8630 C   0  0  0  0  0  0  0  0  0  0  0  0
    4.9070    1.0790   20.2000 C   0  0  0  0  0  0  0  0  0  0  0  0
    6.0610    0.3490   20.2750 C   0  0  0  0  0  0  0  0  0  0  0  0
    6.7870    0.0040   18.9900 C   0  0  0  0  0  0  0  0  0  0  0  0
    9.6750   -1.5160   24.2250 N   0  0  0  0  0  0  0  0  0  0  0  0
    8.3470   -1.5020   23.9320 N   0  0  0  0  0  0  0  0  0  0  0  0
    8.2140   -1.5090   22.5930 C   0  0  0  0  0  0  0  0  0  0  0  0
    9.5370   -1.5350   22.1040 C   0  0  0  0  0  0  0  0  0  0  0  0
   10.4980   -1.5370   23.1410 C   0  0  0  0  0  0  0  0  0  0  0  0
    9.4020    3.3070   23.4910 C   0  0  0  0  0  0  0  0  0  0  0  0
   10.0890    4.5180   23.6130 C   0  0  0  0  0  0  0  0  0  0  0  0
    9.5130    5.7280   23.1850 C   0  0  0  0  0  0  0  0  0  0  0  0
    8.2300    5.6950   22.6280 C   0  0  0  0  0  0  0  0  0  0  0  0
    7.5200    4.5050   22.4950 C   0  0  0  0  0  0  0  0  0  0  0  0
    8.1000    3.2810   22.9330 C   0  0  0  0  0  0  0  0  0  0  0  0
    2.4330   -4.1990   25.7430 C   0  0  0  0  0  0  0  0  0  0  0  0
    3.7790   -3.9020   25.9030 C   0  0  0  0  0  0  0  0  0  0  0  0
    4.1900   -2.5800   26.0450 C   0  0  0  0  0  0  0  0  0  0  0  0
    3.2480   -1.5510   26.0270 C   0  0  0  0  0  0  0  0  0  0  0  0
    1.8930   -1.8520   25.8680 C   0  0  0  0  0  0  0  0  0  0  0  0
    1.4830   -3.1760   25.7240 C   0  0  0  0  0  0  0  0  0  0  0  0
    6.8340   -5.4030   21.8020 C   0  0  2  0  0  0  0  0  0  0  0  0
    7.2930   -4.5330   22.8320 C   0  0  2  0  0  0  0  0  0  0  0  0
    6.4540   -4.1730   24.0270 C   0  0  0  0  0  0  0  0  0  0  0  0
    5.6250   -5.3170   24.3910 N   0  0  0  0  0  0  0  0  0  0  0  0
    4.8640   -5.9120   23.2600 C   0  0  0  0  0  0  0  0  0  0  0  0
    5.7820   -6.3970   22.2190 C   0  0  0  0  0  0  0  0  0  0  0  0
  2  4  1  0
  1  7  1  0
  3  7  2  0
  4  7  1  1
  1  8  1  0
  5  9  1  0
  6  9  2  0
  8  9  1  6
 10 11  1  0
 13 14  1  0
 13 15  1  0
 13 16  1  0
  2 17  1  1
 18 22  2  0
 19 22  2  0
 23 24  2  0
 24 25  1  0
 25 26  2  0
  8 27  1  0
 26 27  1  0
 23 28  1  0
 27 28  2  0
 29 30  1  0
  1 31  1  0
 30 31  2  0
 31 32  1  0
 13 33  1  0
 29 33  1  0
 32 33  2  0
 10 34  1  0
 34 35  2  0
 35 36  1  0
 36 37  2  0
 12 38  1  0
 37 38  1  0
  5 39  1  0
 34 39  1  0
 38 39  2  0
 20 40  1  0
 22 41  1  0
 40 41  2  0
 21 42  1  0
 41 42  1  0
 42 43  2  0
 43 44  1  0
 40 45  1  0
 44 45  2  0
  2 46  1  0
  4 46  1  0
  4 47  1  0
 46 47  1  0
 47 48  1  1
 22 49  1  0
 48 49  1  0
 49 50  1  0
 46 51  1  1
 50 51  1  0
M  END
