x0755-x1458
     RDKit          3D

 24 26  0  0  0  0  0  0  0  0999 V2000
    6.8510   -3.8360   26.6270 N   0  0  0  0  0  0  0  0  0  0  0  0
    8.9490   -4.7070   27.3210 C   0  0  0  0  0  0  0  0  0  0  0  0
    5.0000   -3.5330   24.9410 N   0  0  0  0  0  0  0  0  0  0  0  0
    7.5030   -5.0070   26.9500 C   0  0  0  0  0  0  0  0  0  0  0  0
    5.2460   -4.5090   19.8760 O   0  0  0  0  0  0  0  0  0  0  0  0
    6.7920   -5.8560   28.0140 C   0  0  0  0  0  0  0  0  0  0  0  0
    7.0150   -2.5730   27.3720 C   0  0  0  0  0  0  0  0  0  0  0  0
    6.3490   -3.6190   25.2410 C   0  0  1  0  0  0  0  0  0  0  0  0
    6.3500   -4.1120   20.3030 C   0  0  0  0  0  0  0  0  0  0  0  0
    7.2340   -3.2910   19.4390 C   0  0  0  0  0  0  0  0  0  0  0  0
    7.1420   -2.5600   24.9180 O   0  0  0  0  0  0  0  0  0  0  0  0
    1.6790   -5.3610   25.9970 F   0  0  0  0  0  0  0  0  0  0  0  0
    6.7740   -4.4750   21.5750 N   0  0  0  0  0  0  0  0  0  0  0  0
    7.6180   -3.5400   22.3610 C   0  0  0  0  0  0  0  0  0  0  0  0
    7.2240   -3.4530   23.6980 C   0  0  0  0  0  0  0  0  0  0  0  0
    6.8590   -4.7120   24.2220 C   0  0  0  0  0  0  0  0  0  0  0  0
    6.0450   -5.4750   23.4670 C   0  0  0  0  0  0  0  0  0  0  0  0
    6.3870   -5.6480   22.1270 C   0  0  0  0  0  0  0  0  0  0  0  0
    2.2620   -4.1590   25.8720 C   0  0  0  0  0  0  0  0  0  0  0  0
    3.6700   -4.2230   25.3700 C   0  0  0  0  0  0  0  0  0  0  0  0
    3.9760   -2.8130   25.3610 C   0  0  0  0  0  0  0  0  0  0  0  0
    3.2110   -1.7000   25.7130 C   0  0  0  0  0  0  0  0  0  0  0  0
    1.9310   -1.8100   26.1550 C   0  0  0  0  0  0  0  0  0  0  0  0
    1.4520   -3.0810   26.2310 C   0  0  0  0  0  0  0  0  0  0  0  0
  1  4  1  0
  2  4  1  0
  4  6  1  0
  1  7  1  0
  1  8  1  0
  3  8  1  0
  5  9  2  0
  9 10  1  0
  8 11  1  6
  9 13  1  0
 13 14  1  0
 14 15  1  0
  8 16  1  0
 15 16  1  0
 16 17  1  0
 13 18  1  0
 17 18  1  0
 12 19  1  0
  3 20  1  0
 19 20  2  0
  3 21  1  0
 20 21  1  0
 21 22  2  0
 22 23  1  0
 19 24  1  0
 23 24  2  0
M  END
