x0759-x2572
     RDKit          3D

 28 31  0  0  0  0  0  0  0  0999 V2000
    4.7500    1.2990   21.7400 C   0  0  0  0  0  0  0  0  0  0  0  0
    8.9680    1.3050   21.3670 O   0  0  0  0  0  0  0  0  0  0  0  0
    7.3370   -0.3980   21.1750 N   0  0  0  0  0  0  0  0  0  0  0  0
   13.7940   -1.7950   20.6050 N   0  0  0  0  0  0  0  0  0  0  0  0
    8.3850    0.2860   21.7750 C   0  0  0  0  0  0  0  0  0  0  0  0
    8.7120   -0.4560   23.0730 C   0  0  2  0  0  0  0  0  0  0  0  0
   13.1770   -1.5190   21.4770 C   0  0  0  0  0  0  0  0  0  0  0  0
    5.4100   -4.2200   19.7820 O   0  0  0  0  0  0  0  0  0  0  0  0
    6.3230   -3.4090   20.0000 C   0  0  0  0  0  0  0  0  0  0  0  0
    7.2720   -3.0230   18.8730 C   0  0  0  0  0  0  0  0  0  0  0  0
    6.3720    0.4910   17.7120 N   0  0  0  0  0  0  0  0  0  0  0  0
    6.9570    0.0010   18.8260 C   0  0  0  0  0  0  0  0  0  0  0  0
    6.5660    0.1740   20.1400 C   0  0  0  0  0  0  0  0  0  0  0  0
    5.3240    1.0000   20.3940 C   0  0  0  0  0  0  0  0  0  0  0  0
    4.5860    1.5940   19.1970 C   0  0  0  0  0  0  0  0  0  0  0  0
    5.1700    1.3060   17.8480 C   0  0  0  0  0  0  0  0  0  0  0  0
   10.7780   -0.2630   24.5390 C   0  0  0  0  0  0  0  0  0  0  0  0
   12.1400   -0.3700   24.7420 C   0  0  0  0  0  0  0  0  0  0  0  0
   12.9340   -0.7890   23.7190 C   0  0  0  0  0  0  0  0  0  0  0  0
   12.3740   -1.1000   22.5160 C   0  0  0  0  0  0  0  0  0  0  0  0
   10.9060   -1.0020   22.2700 C   0  0  0  0  0  0  0  0  0  0  0  0
   10.1870   -0.5800   23.3090 C   0  0  0  0  0  0  0  0  0  0  0  0
    6.5430   -2.8480   21.2520 N   0  0  0  0  0  0  0  0  0  0  0  0
    7.5550   -1.7990   21.4550 C   0  0  2  0  0  0  0  0  0  0  0  0
    7.9180   -1.7770   22.9320 C   0  0  1  0  0  0  0  0  0  0  0  0
    8.5240   -3.0210   23.3270 O   0  0  0  0  0  0  0  0  0  0  0  0
    7.4760   -4.0180   23.3580 C   0  0  0  0  0  0  0  0  0  0  0  0
    6.2490   -3.6330   22.4790 C   0  0  0  0  0  0  0  0  0  0  0  0
  2  5  2  0
  3  5  1  0
  5  6  1  0
  4  7  3  0
  8  9  2  0
  9 10  1  0
 11 12  2  0
  3 13  1  0
 12 13  1  0
  1 14  1  0
 13 14  2  0
 14 15  1  0
 11 16  1  0
 15 16  2  0
 17 18  2  0
 18 19  1  0
  7 20  1  0
 19 20  2  0
 20 21  1  0
  6 22  1  6
 17 22  1  0
 21 22  2  0
  9 23  1  0
 24  3  1  1
 23 24  1  0
  6 25  1  0
 24 25  1  0
 25 26  1  6
 26 27  1  0
 23 28  1  0
 27 28  1  0
M  END
