x0755-x3124
     RDKit          3D

 44 48  0  0  0  0  0  0  0  0999 V2000
    6.6880   -1.4510   22.0710 N   0  0  0  0  0  0  0  0  0  0  0  0
    6.6940   -4.5440   20.3090 C   0  0  2  0  0  0  0  0  0  0  0  0
    4.7040   -2.9350   21.3570 O   0  0  0  0  0  0  0  0  0  0  0  0
    6.8440   -3.7150   21.4950 C   0  0  1  0  0  0  0  0  0  0  0  0
    7.3680    1.6640   23.0860 N   0  0  0  0  0  0  0  0  0  0  0  0
    8.6590    0.7650   21.4050 O   0  0  0  0  0  0  0  0  0  0  0  0
    5.9410   -2.6390   21.6320 C   0  0  0  0  0  0  0  0  0  0  0  0
    6.4120   -0.0500   21.6600 C   0  0  1  0  0  0  0  0  0  0  0  0
    7.5960    0.8020   22.0230 C   0  0  0  0  0  0  0  0  0  0  0  0
    7.9520    3.0120   23.0480 C   0  0  0  0  0  0  0  0  0  0  0  0
   12.1070   -1.9290   24.1750 C   0  0  0  0  0  0  0  0  0  0  0  0
   12.4140   -0.7770   24.9030 C   0  0  0  0  0  0  0  0  0  0  0  0
   13.2540   -2.1500   23.1730 C   0  0  0  0  0  0  0  0  0  0  0  0
   12.0360   -3.1340   25.1150 C   0  0  0  0  0  0  0  0  0  0  0  0
    5.4610   -4.4790   19.6100 O   0  0  0  0  0  0  0  0  0  0  0  0
    4.3860   -6.4030   26.3260 O   0  0  0  0  0  0  0  0  0  0  0  0
    6.1810   -4.8190   26.9150 O   0  0  0  0  0  0  0  0  0  0  0  0
    2.2360   -5.4520   25.6220 F   0  0  0  0  0  0  0  0  0  0  0  0
    5.4610   -1.9900   26.2140 F   0  0  0  0  0  0  0  0  0  0  0  0
    5.0880   -5.1280   25.9220 S   0  0  0  0  0  0  0  0  0  0  0  0
    6.2970    0.3850   17.8110 N   0  0  0  0  0  0  0  0  0  0  0  0
    5.2250    1.1850   17.7870 C   0  0  0  0  0  0  0  0  0  0  0  0
    4.4320    1.6500   18.8330 C   0  0  0  0  0  0  0  0  0  0  0  0
    4.8580    1.2030   20.0690 C   0  0  0  0  0  0  0  0  0  0  0  0
    6.0250    0.3310   20.2690 C   0  0  0  0  0  0  0  0  0  0  0  0
    6.6900   -0.0350   19.0220 C   0  0  0  0  0  0  0  0  0  0  0  0
    9.1580   -1.6590   21.7210 C   0  0  0  0  0  0  0  0  0  0  0  0
   10.4830   -1.7700   22.1870 C   0  0  0  0  0  0  0  0  0  0  0  0
   10.7110   -1.8170   23.5680 C   0  0  0  0  0  0  0  0  0  0  0  0
    9.6340   -1.7620   24.4050 C   0  0  0  0  0  0  0  0  0  0  0  0
    8.3140   -1.6540   23.9600 C   0  0  0  0  0  0  0  0  0  0  0  0
    8.0440   -1.5950   22.5920 C   0  0  0  0  0  0  0  0  0  0  0  0
    2.5600   -4.1460   25.7570 C   0  0  0  0  0  0  0  0  0  0  0  0
    3.9050   -3.7830   25.9150 C   0  0  0  0  0  0  0  0  0  0  0  0
    4.2020   -2.4170   26.0560 C   0  0  0  0  0  0  0  0  0  0  0  0
    3.1760   -1.4630   26.0360 C   0  0  0  0  0  0  0  0  0  0  0  0
    1.8500   -1.8490   25.8790 C   0  0  0  0  0  0  0  0  0  0  0  0
    1.5330   -3.1980   25.7370 C   0  0  0  0  0  0  0  0  0  0  0  0
    6.5800   -5.1720   21.7150 C   0  0  0  0  0  0  0  0  0  0  0  0
    7.5740   -5.6120   22.7560 C   0  0  0  0  0  0  0  0  0  0  0  0
    7.1830   -5.0990   24.1590 C   0  0  0  0  0  0  0  0  0  0  0  0
    5.7290   -5.2540   24.3660 N   0  0  0  0  0  0  0  0  0  0  0  0
    5.0440   -6.1690   23.4340 C   0  0  0  0  0  0  0  0  0  0  0  0
    5.2030   -5.7120   21.9900 C   0  0  0  0  0  0  0  0  0  0  0  0
  2  4  1  0
  1  7  1  0
  3  7  2  0
  4  7  1  6
  1  8  1  0
  5  9  1  0
  6  9  2  0
  8  9  1  6
  5 10  1  0
 11 12  1  0
 11 13  1  0
 11 14  1  0
  2 15  1  6
 16 20  2  0
 17 20  2  0
 21 22  2  0
 22 23  1  0
 23 24  2  0
  8 25  1  0
 24 25  1  0
 21 26  1  0
 25 26  2  0
 27 28  2  0
 11 29  1  0
 28 29  1  0
 29 30  2  0
 30 31  1  0
  1 32  1  0
 27 32  1  0
 31 32  2  0
 18 33  1  0
 20 34  1  0
 33 34  2  0
 19 35  1  0
 34 35  1  0
 35 36  2  0
 36 37  1  0
 33 38  1  0
 37 38  2  0
  2 39  1  0
  4 39  1  0
 39 40  1  0
 40 41  1  0
 20 42  1  0
 41 42  1  0
 42 43  1  0
 39 44  1  0
 43 44  1  0
M  END
