x0755-x0991
     RDKit          3D

 25 27  0  0  0  0  0  0  0  0999 V2000
    4.8050   -6.2750   26.3990 O   0  0  0  0  0  0  0  0  0  0  0  0
    6.1610   -4.2050   26.7900 O   0  0  0  0  0  0  0  0  0  0  0  0
    5.6430   -4.4010   19.9090 O   0  0  0  0  0  0  0  0  0  0  0  0
    6.6170   -4.5140   20.7170 C   0  0  0  0  0  0  0  0  0  0  0  0
    7.9010   -3.7890   20.5240 C   0  0  0  0  0  0  0  0  0  0  0  0
    1.8470   -5.4050   25.6590 F   0  0  0  0  0  0  0  0  0  0  0  0
    5.7030   -2.5210   26.0500 F   0  0  0  0  0  0  0  0  0  0  0  0
    5.2150   -4.9460   25.9970 S   0  0  0  0  0  0  0  0  0  0  0  0
    9.9490   -5.7870   24.9630 N   0  0  0  0  0  0  0  0  0  0  0  0
    8.7520   -3.1700   23.2660 C   0  0  0  0  0  0  0  0  0  0  0  0
    8.1190   -4.3610   23.8890 C   0  0  2  0  0  0  0  0  0  0  0  0
    8.1780   -4.6510   26.3290 N   0  0  0  0  0  0  0  0  0  0  0  0
    8.7620   -4.9480   25.1050 C   0  0  0  0  0  0  0  0  0  0  0  0
    2.3130   -4.1490   25.7150 C   0  0  0  0  0  0  0  0  0  0  0  0
    3.7830   -4.0010   25.8560 C   0  0  0  0  0  0  0  0  0  0  0  0
    4.4010   -2.7960   25.9250 C   0  0  0  0  0  0  0  0  0  0  0  0
    3.5190   -1.7590   25.8570 C   0  0  0  0  0  0  0  0  0  0  0  0
    2.1190   -2.0080   25.7250 C   0  0  0  0  0  0  0  0  0  0  0  0
    1.2410   -3.1060   25.6260 C   0  0  0  0  0  0  0  0  0  0  0  0
    6.4660   -5.3550   21.8180 N   0  0  0  0  0  0  0  0  0  0  0  0
    7.2030   -5.4220   22.9520 C   0  0  2  0  0  0  0  0  0  0  0  0
    6.7330   -4.4800   23.7630 C   0  0  1  0  0  0  0  0  0  0  0  0
    5.8500   -5.2720   24.4520 N   0  0  0  0  0  0  0  0  0  0  0  0
    4.9380   -5.7870   23.5640 C   0  0  0  0  0  0  0  0  0  0  0  0
    5.2730   -5.8710   22.1240 C   0  0  0  0  0  0  0  0  0  0  0  0
  3  4  2  0
  4  5  1  0
  1  8  2  0
  2  8  2  0
 11 10  1  6
  9 13  2  3
 11 13  1  0
 12 13  1  0
  6 14  1  0
  8 15  1  0
 14 15  2  0
  7 16  1  0
 15 16  1  0
 16 17  2  0
 17 18  1  0
 14 19  1  0
 18 19  2  0
  4 20  1  0
 11 21  1  0
 21 20  1  6
 11 22  1  0
 21 22  1  0
  8 23  1  0
 22 23  1  1
 23 24  1  0
 20 25  1  0
 24 25  1  0
M  END
