x0759-x2097
     RDKit          3D

 16 17  0  0  0  0  0  0  0  0999 V2000
    5.4090   -4.2410   19.7920 O   0  0  0  0  0  0  0  0  0  0  0  0
    6.3820   -3.4750   20.0280 C   0  0  0  0  0  0  0  0  0  0  0  0
    7.2930   -3.0400   18.9390 C   0  0  0  0  0  0  0  0  0  0  0  0
   12.8190    0.7830   23.9110 F   0  0  0  0  0  0  0  0  0  0  0  0
    6.6190   -3.0520   21.3580 N   0  0  0  0  0  0  0  0  0  0  0  0
    7.6520   -2.0820   21.7470 C   0  0  0  0  0  0  0  0  0  0  0  0
    8.7240   -2.7720   22.5010 C   0  0  2  0  0  0  0  0  0  0  0  0
    8.2320   -3.5480   23.5930 O   0  0  0  0  0  0  0  0  0  0  0  0
    7.4820   -4.4550   23.2360 C   0  0  0  0  0  0  0  0  0  0  0  0
    6.2470   -3.9730   22.4370 C   0  0  0  0  0  0  0  0  0  0  0  0
    9.6420   -0.9520   24.0070 C   0  0  0  0  0  0  0  0  0  0  0  0
   10.6740   -0.0730   24.3390 C   0  0  0  0  0  0  0  0  0  0  0  0
   11.8420   -0.0480   23.6120 C   0  0  0  0  0  0  0  0  0  0  0  0
   11.9820   -0.9100   22.5470 C   0  0  0  0  0  0  0  0  0  0  0  0
   10.9860   -1.7470   22.2350 C   0  0  0  0  0  0  0  0  0  0  0  0
    9.7820   -1.7990   22.9460 C   0  0  0  0  0  0  0  0  0  0  0  0
  1  2  2  0
  2  3  1  0
  2  5  1  0
  5  6  1  0
  6  7  1  0
  7  8  1  0
  8  9  1  0
  5 10  1  0
  9 10  1  0
 11 12  2  0
  4 13  1  0
 12 13  1  0
 13 14  2  0
 14 15  1  0
  7 16  1  1
 11 16  1  0
 15 16  2  0
M  END
