x0759-x3298
     RDKit          3D

 37 41  0  0  0  0  0  0  0  0999 V2000
    7.3000    1.9370   21.8950 N   0  0  0  0  0  0  0  0  0  0  0  0
    7.1150   -0.4180   21.2440 C   0  0  2  0  0  0  0  0  0  0  0  0
    6.4820   -0.9010   22.2180 O   0  0  0  0  0  0  0  0  0  0  0  0
    8.0300    0.7530   21.5480 C   0  0  0  0  0  0  0  0  0  0  0  0
    8.8820    0.8970   23.5960 N   0  0  0  0  0  0  0  0  0  0  0  0
    9.2370    0.6580   21.4600 O   0  0  0  0  0  0  0  0  0  0  0  0
    9.7570    1.1010   25.7720 O   0  0  0  0  0  0  0  0  0  0  0  0
    9.3950   -1.2590   25.0300 O   0  0  0  0  0  0  0  0  0  0  0  0
   13.4620   -1.6650   21.0980 F   0  0  0  0  0  0  0  0  0  0  0  0
    9.8630    0.1450   24.7500 S   0  0  0  0  0  0  0  0  0  0  0  0
    5.3330   -4.2640   19.7760 O   0  0  0  0  0  0  0  0  0  0  0  0
    6.2830   -3.4790   20.0130 C   0  0  0  0  0  0  0  0  0  0  0  0
    7.2150   -3.0290   18.9570 C   0  0  0  0  0  0  0  0  0  0  0  0
    6.2460    0.4560   17.6080 N   0  0  0  0  0  0  0  0  0  0  0  0
    6.9910   -0.1070   18.7100 C   0  0  0  0  0  0  0  0  0  0  0  0
    6.3650    0.0770   20.0740 C   0  0  0  0  0  0  0  0  0  0  0  0
    5.0350    0.7800   20.2400 C   0  0  0  0  0  0  0  0  0  0  0  0
    4.4780    1.2430   19.0600 C   0  0  0  0  0  0  0  0  0  0  0  0
    5.0860    1.0750   17.8470 C   0  0  0  0  0  0  0  0  0  0  0  0
    7.9880    4.3570   22.3510 C   0  0  0  0  0  0  0  0  0  0  0  0
    8.8300    5.1450   23.0720 C   0  0  0  0  0  0  0  0  0  0  0  0
    9.7640    4.6280   23.9980 C   0  0  0  0  0  0  0  0  0  0  0  0
    9.7950    3.2320   24.1710 C   0  0  0  0  0  0  0  0  0  0  0  0
    8.9090    2.3590   23.4410 C   0  0  0  0  0  0  0  0  0  0  0  0
    8.0300    2.9820   22.5280 C   0  0  0  0  0  0  0  0  0  0  0  0
   12.5170    0.7550   23.6050 C   0  0  0  0  0  0  0  0  0  0  0  0
   13.2660    0.1180   22.6440 C   0  0  0  0  0  0  0  0  0  0  0  0
   12.7390   -1.0490   22.0320 C   0  0  0  0  0  0  0  0  0  0  0  0
   11.4930   -1.5550   22.3740 C   0  0  0  0  0  0  0  0  0  0  0  0
   10.7090   -0.9290   23.3520 C   0  0  0  0  0  0  0  0  0  0  0  0
   11.3270    0.1680   23.8660 C   0  0  0  0  0  0  0  0  0  0  0  0
    6.4950   -3.0400   21.3130 N   0  0  0  0  0  0  0  0  0  0  0  0
    7.3430   -1.8960   21.6450 C   0  0  1  0  0  0  0  0  0  0  0  0
    8.3630   -2.2830   22.5150 C   0  0  0  0  0  0  0  0  0  0  0  0
    8.3220   -3.7250   22.7780 O   0  0  0  0  0  0  0  0  0  0  0  0
    7.0730   -4.2050   23.2710 C   0  0  0  0  0  0  0  0  0  0  0  0
    5.9990   -3.7610   22.4910 C   0  0  0  0  0  0  0  0  0  0  0  0
  2  3  1  0
  1  4  1  0
  2  4  1  1
  4  6  2  0
 10  5  1  0
  7 10  2  0
  8 10  2  0
 11 12  2  0
 12 13  1  0
 14 15  2  0
  2 16  1  0
 15 16  1  0
 16 17  2  0
 17 18  1  0
 14 19  1  0
 18 19  2  0
 20 21  2  0
 21 22  1  0
 22 23  2  0
  5 24  1  0
 23 24  1  0
  1 25  1  0
 20 25  1  0
 24 25  2  0
 26 27  2  0
  9 28  1  0
 27 28  1  0
 28 29  2  0
 29 30  1  0
 10 31  1  0
 26 31  1  0
 30 31  2  0
 12 32  1  0
  2 33  1  0
 33  3  1  0
 32 33  1  0
 33 34  1  1
 34 35  1  0
 35 36  1  0
 32 37  1  0
 36 37  1  0
M  END
