x0755-x0395
     RDKit          3D

 36 39  0  0  0  0  0  0  0  0999 V2000
    4.1550   -6.1920   26.0230 O   0  0  0  0  0  0  0  0  0  0  0  0
    6.1250   -4.6030   26.6530 N   0  0  0  0  0  0  0  0  0  0  0  0
    5.3010   -4.8670   19.9630 O   0  0  0  0  0  0  0  0  0  0  0  0
    6.3460   -4.5830   20.5700 C   0  0  0  0  0  0  0  0  0  0  0  0
    7.2400   -3.5020   20.0330 C   0  0  0  0  0  0  0  0  0  0  0  0
    2.2110   -5.5890   25.5880 F   0  0  0  0  0  0  0  0  0  0  0  0
    5.7250   -2.2810   26.0530 F   0  0  0  0  0  0  0  0  0  0  0  0
    4.8740   -4.9560   25.8100 S   0  0  2  0  0  0  0  0  0  0  0  0
    9.5510   -5.1830   26.5600 C   0  0  0  0  0  0  0  0  0  0  0  0
    8.9970   -1.1210   22.8060 C   0  0  0  0  0  0  0  0  0  0  0  0
   13.5690   -1.6050   21.6380 F   0  0  0  0  0  0  0  0  0  0  0  0
    7.1140   -5.7020   26.7130 C   0  0  0  0  0  0  0  0  0  0  0  0
    8.3820   -5.3830   27.5110 C   0  0  0  0  0  0  0  0  0  0  0  0
    2.5540   -4.3020   25.7000 C   0  0  0  0  0  0  0  0  0  0  0  0
    3.8220   -3.7690   25.8210 C   0  0  0  0  0  0  0  0  0  0  0  0
    4.4230   -2.5650   25.9460 C   0  0  0  0  0  0  0  0  0  0  0  0
    3.4200   -1.5980   25.9490 C   0  0  0  0  0  0  0  0  0  0  0  0
    2.1090   -1.9890   25.8380 C   0  0  0  0  0  0  0  0  0  0  0  0
    1.5950   -3.3180   25.7080 C   0  0  0  0  0  0  0  0  0  0  0  0
    6.6150   -5.2780   21.7600 N   0  0  0  0  0  0  0  0  0  0  0  0
    7.4500   -4.7200   22.8600 C   0  0  0  0  0  0  0  0  0  0  0  0
    6.5250   -4.1700   23.8810 C   0  0  0  0  0  0  0  0  0  0  0  0
    5.5470   -5.0990   24.2630 N   0  0  0  0  0  0  0  0  0  0  0  0
    4.7450   -5.4270   23.2030 C   0  0  0  0  0  0  0  0  0  0  0  0
    5.6190   -6.0820   22.3380 C   0  0  0  0  0  0  0  0  0  0  0  0
    9.2400   -3.9980   25.7130 C   0  0  0  0  0  0  0  0  0  0  0  0
    8.4620   -3.0630   25.9530 N   0  0  0  0  0  0  0  0  0  0  0  0
    8.2490   -2.0420   25.1360 N   0  0  0  0  0  0  0  0  0  0  0  0
    8.9680   -2.0810   23.9500 C   0  0  0  0  0  0  0  0  0  0  0  0
    9.9310   -3.6170   24.0780 S   0  0  0  0  0  0  0  0  0  0  0  0
   10.7850    0.1720   23.8370 C   0  0  0  0  0  0  0  0  0  0  0  0
   11.7770    1.0390   23.4050 C   0  0  0  0  0  0  0  0  0  0  0  0
   12.8010    0.3350   22.8040 C   0  0  0  0  0  0  0  0  0  0  0  0
   12.5890   -0.9220   22.2370 C   0  0  0  0  0  0  0  0  0  0  0  0
   11.3110   -1.4470   22.3000 C   0  0  0  0  0  0  0  0  0  0  0  0
   10.2930   -0.4720   22.6240 N   0  0  0  0  0  0  0  0  0  0  0  0
  3  4  2  0
  4  5  1  0
  1  8  2  0
  2  8  2  0
  2 12  1  0
  9 13  1  0
 12 13  1  0
  6 14  1  0
  8 15  1  6
 14 15  2  0
  7 16  1  0
 15 16  1  0
 16 17  2  0
 17 18  1  0
 14 19  1  0
 18 19  2  0
  4 20  1  0
 20 21  1  0
 21 22  1  0
  8 23  1  0
 22 23  1  0
 23 24  1  0
 20 25  1  0
 24 25  1  0
  9 26  1  0
 26 27  2  0
 27 28  1  0
 10 29  1  0
 28 29  2  0
 26 30  1  0
 29 30  1  0
 31 32  1  0
 32 33  1  0
 11 34  1  0
 33 34  2  0
 34 35  1  0
 10 36  1  0
 31 36  1  0
 35 36  1  0
M  END
