x0752
     RDKit          3D

 15 16  0  0  0  0  0  0  0  0999 V2000
    7.5620   -4.6360   21.2050 N   0  0  0  0  0  0  0  0  0  0  0  0
    7.1580   -3.0510   19.3910 C   0  0  0  0  0  0  0  0  0  0  0  0
    5.7910   -4.9200   19.8400 O   0  0  0  0  0  0  0  0  0  0  0  0
    6.7880   -4.2850   20.1880 C   0  0  0  0  0  0  0  0  0  0  0  0
    2.9700   -3.0560   25.1960 O   0  0  0  0  0  0  0  0  0  0  0  0
    7.0910   -5.4930   22.2780 C   0  0  0  0  0  0  0  0  0  0  0  0
    2.6520   -5.2440   24.4980 O   0  0  0  0  0  0  0  0  0  0  0  0
    6.0170   -4.8020   23.0750 C   0  0  0  0  0  0  0  0  0  0  0  0
    6.1890   -3.4930   23.4880 C   0  0  0  0  0  0  0  0  0  0  0  0
    5.2150   -2.8070   24.2190 C   0  0  0  0  0  0  0  0  0  0  0  0
    4.0740   -3.4940   24.5040 C   0  0  0  0  0  0  0  0  0  0  0  0
    2.0290   -4.1300   25.1390 C   0  0  0  0  0  0  0  0  0  0  0  0
    3.8850   -4.7930   24.0900 C   0  0  0  0  0  0  0  0  0  0  0  0
    4.8270   -5.4740   23.3710 C   0  0  0  0  0  0  0  0  0  0  0  0
    8.6060   -3.3360   18.3360 R   0  0  0  0  0  0  0  0  0  0  0  0
  1  4  1  0
  2  4  1  0
  3  4  2  0
  1  6  1  0
  6  8  1  0
  8  9  2  0
  9 10  1  0
  5 11  1  0
 10 11  2  0
  5 12  1  0
  7 12  1  0
  7 13  1  0
 11 13  1  0
  8 14  1  0
 13 14  2  0
  2 15  1  0
M  END
