x0759-x2964
     RDKit          3D

 27 29  0  0  0  0  0  0  0  0999 V2000
    3.2770    1.9580   19.2390 N   0  0  0  0  0  0  0  0  0  0  0  0
    8.5230    1.4530   21.0750 O   0  0  0  0  0  0  0  0  0  0  0  0
   13.1810   -2.4660   21.7450 Cl  0  0  0  0  0  0  0  0  0  0  0  0
    7.1940   -0.4490   21.2420 N   0  0  0  0  0  0  0  0  0  0  0  0
    8.9690   -0.1220   22.6490 N   0  0  0  0  0  0  0  0  0  0  0  0
    8.2450    0.3710   21.6310 C   0  0  0  0  0  0  0  0  0  0  0  0
    5.3820   -4.3000   19.7860 O   0  0  0  0  0  0  0  0  0  0  0  0
    6.2410   -3.4330   19.9530 C   0  0  0  0  0  0  0  0  0  0  0  0
    7.2250   -3.0620   18.8430 C   0  0  0  0  0  0  0  0  0  0  0  0
    4.5590    1.2480   19.1670 C   0  0  0  0  0  0  0  0  0  0  0  0
    5.2260    0.7330   20.2950 C   0  0  0  0  0  0  0  0  0  0  0  0
    6.4520    0.0680   20.1300 C   0  0  0  0  0  0  0  0  0  0  0  0
    6.9420   -0.0580   18.8500 C   0  0  0  0  0  0  0  0  0  0  0  0
    6.3340    0.4260   17.7580 N   0  0  0  0  0  0  0  0  0  0  0  0
    5.1720    1.0610   17.9460 C   0  0  0  0  0  0  0  0  0  0  0  0
   10.9550    1.3060   23.0770 C   0  0  0  0  0  0  0  0  0  0  0  0
   12.4550    1.3910   23.0770 C   0  0  0  0  0  0  0  0  0  0  0  0
   13.2380    0.1910   22.6600 C   0  0  0  0  0  0  0  0  0  0  0  0
   12.4390   -1.0440   22.2630 C   0  0  0  0  0  0  0  0  0  0  0  0
   11.0730   -1.0800   22.2870 C   0  0  0  0  0  0  0  0  0  0  0  0
   10.3250    0.0200   22.6730 C   0  0  0  0  0  0  0  0  0  0  0  0
    6.3540   -2.7850   21.1650 N   0  0  0  0  0  0  0  0  0  0  0  0
    7.4950   -1.8620   21.3170 C   0  0  2  0  0  0  0  0  0  0  0  0
    8.3070   -2.2750   22.5350 C   0  0  0  0  0  0  0  0  0  0  0  0
    8.2950   -3.6960   22.8030 O   0  0  0  0  0  0  0  0  0  0  0  0
    7.0000   -4.2140   23.0660 C   0  0  0  0  0  0  0  0  0  0  0  0
    5.8830   -3.3870   22.4170 C   0  0  0  0  0  0  0  0  0  0  0  0
  2  6  2  0
  4  6  1  0
  5  6  1  0
  7  8  2  0
  8  9  1  0
  1 10  1  0
 10 11  2  0
  4 12  1  0
 11 12  1  0
 12 13  2  0
 13 14  1  0
 10 15  1  0
 14 15  2  0
 16 17  2  0
 17 18  1  0
  3 19  1  0
 18 19  2  0
 19 20  1  0
  5 21  1  0
 16 21  1  0
 20 21  2  0
  8 22  1  0
 23  4  1  1
 22 23  1  0
 23 24  1  0
 24 25  1  0
 25 26  1  0
 22 27  1  0
 26 27  1  0
M  END
