x0759-x0540
     RDKit          3D

 37 44  0  0  0  0  0  0  0  0999 V2000
    2.7610    1.5410   24.4570 O   0  0  0  0  0  0  0  0  0  0  0  0
    3.0010    2.3500   23.5040 C   0  0  0  0  0  0  0  0  0  0  0  0
    4.2970    2.4380   22.7640 N   0  0  0  0  0  0  0  0  0  0  0  0
    5.0500    1.2650   22.4880 C   0  0  0  0  0  0  0  0  0  0  0  0
    4.5850    0.3490   21.4220 C   0  0  2  0  0  0  0  0  0  0  0  0
    1.8840    3.2420   23.1450 N   0  0  0  0  0  0  0  0  0  0  0  0
    5.3660   -4.3180   19.8610 O   0  0  0  0  0  0  0  0  0  0  0  0
    6.3390   -3.6020   20.2160 C   0  0  0  0  0  0  0  0  0  0  0  0
    7.2070   -3.0430   19.1430 C   0  0  0  0  0  0  0  0  0  0  0  0
   12.8960    0.6900   23.7690 F   0  0  0  0  0  0  0  0  0  0  0  0
    4.9870   -1.1090   21.6620 C   0  0  0  0  0  0  0  0  0  0  0  0
    6.3960   -1.1760   22.1660 C   0  0  1  0  0  0  0  0  0  0  0  0
    6.7500   -2.7020   22.9560 S   0  0  0  0  0  0  0  0  0  0  0  0
    6.3290   -0.1790   19.7870 C   0  0  0  0  0  0  0  0  0  0  0  0
    6.8740   -0.0270   18.5660 C   0  0  0  0  0  0  0  0  0  0  0  0
    6.3600    0.7650   17.6400 N   0  0  0  0  0  0  0  0  0  0  0  0
    5.2410    1.4590   17.9020 C   0  0  0  0  0  0  0  0  0  0  0  0
    4.6360    1.3610   19.0980 C   0  0  0  0  0  0  0  0  0  0  0  0
    5.1760    0.5290   20.0810 C   0  0  0  0  0  0  0  0  0  0  0  0
    0.5070    4.7500   24.4470 C   0  0  0  0  0  0  0  0  0  0  0  0
   -0.7330    4.9610   25.2100 C   0  0  0  0  0  0  0  0  0  0  0  0
   -1.8560    4.4940   24.3990 C   0  0  0  0  0  0  0  0  0  0  0  0
   -1.6860    3.2640   23.7590 C   0  0  0  0  0  0  0  0  0  0  0  0
   -0.4360    2.9810   23.1920 C   0  0  0  0  0  0  0  0  0  0  0  0
    0.6930    3.3580   23.9580 C   0  0  0  0  0  0  0  0  0  0  0  0
    6.6410   -3.3990   21.6190 C   0  0  2  0  0  0  0  0  0  0  0  0
    7.4490   -2.2450   21.9250 C   0  0  1  0  0  0  0  0  0  0  0  0
    8.5310   -2.5970   22.7190 C   0  0  2  0  0  0  0  0  0  0  0  0
    8.8670   -3.9690   22.5170 O   0  0  0  0  0  0  0  0  0  0  0  0
    7.9500   -4.6430   23.3440 C   0  0  0  0  0  0  0  0  0  0  0  0
    6.7590   -4.3560   22.7000 C   0  0  1  0  0  0  0  0  0  0  0  0
    9.5780   -0.8150   24.0840 C   0  0  0  0  0  0  0  0  0  0  0  0
   10.6680    0.0090   24.3480 C   0  0  0  0  0  0  0  0  0  0  0  0
   11.8250   -0.0760   23.5710 C   0  0  0  0  0  0  0  0  0  0  0  0
   11.8750   -0.9970   22.5330 C   0  0  0  0  0  0  0  0  0  0  0  0
   10.8090   -1.8050   22.2690 C   0  0  0  0  0  0  0  0  0  0  0  0
    9.5400   -1.7140   23.1120 C   0  0  0  0  0  0  0  0  0  0  0  0
  1  2  2  0
  2  3  1  0
  3  4  1  0
  5  4  1  1
  2  6  1  0
  7  8  2  0
  8  9  1  0
  5 11  1  0
 12 11  1  6
 12 13  1  0
 14 15  2  0
 15 16  1  0
 16 17  2  0
 17 18  1  0
  5 19  1  0
 14 19  1  0
 18 19  2  0
 20 21  1  0
 21 22  1  0
 22 23  1  0
 23 24  1  0
  6 25  1  0
 20 25  1  0
 24 25  1  0
 26  8  1  6
 13 26  1  0
 12 27  1  0
 27 13  1  1
 26 27  1  0
 13 28  1  0
 27 28  1  0
 28 29  1  0
 29 30  1  0
 13 31  1  0
 26 31  1  0
 31 30  1  6
 32 33  2  0
 10 34  1  0
 33 34  1  0
 34 35  2  0
 35 36  1  0
 28 37  1  1
 32 37  1  0
 36 37  2  0
M  END
