x0755-x0771
     RDKit          3D

 21 22  0  0  0  0  0  0  0  0999 V2000
    4.3350   -6.4060   25.8010 O   0  0  0  0  0  0  0  0  0  0  0  0
    6.0930   -4.8100   26.6320 O   0  0  0  0  0  0  0  0  0  0  0  0
    5.4810   -4.4880   19.9140 O   0  0  0  0  0  0  0  0  0  0  0  0
    6.5310   -4.5110   20.6110 C   0  0  0  0  0  0  0  0  0  0  0  0
    7.7160   -3.6570   20.2840 C   0  0  0  0  0  0  0  0  0  0  0  0
    1.9890   -5.4790   25.6270 F   0  0  0  0  0  0  0  0  0  0  0  0
    5.4000   -1.9270   26.0610 F   0  0  0  0  0  0  0  0  0  0  0  0
    5.0330   -5.1440   25.7130 S   0  0  0  0  0  0  0  0  0  0  0  0
    0.6640   -0.9860   26.1230 C   0  0  0  0  0  0  0  0  0  0  0  0
    2.3910   -4.2090   25.7710 C   0  0  0  0  0  0  0  0  0  0  0  0
    3.8270   -3.8760   25.8290 C   0  0  0  0  0  0  0  0  0  0  0  0
    4.1450   -2.3850   25.9940 C   0  0  0  0  0  0  0  0  0  0  0  0
    2.9900   -1.3890   26.0910 C   0  0  0  0  0  0  0  0  0  0  0  0
    1.6940   -1.9200   26.0200 C   0  0  0  0  0  0  0  0  0  0  0  0
    1.3980   -3.2480   25.8660 C   0  0  0  0  0  0  0  0  0  0  0  0
    6.6120   -5.3720   21.7280 N   0  0  0  0  0  0  0  0  0  0  0  0
    7.5810   -5.1700   22.7850 C   0  0  0  0  0  0  0  0  0  0  0  0
    7.0330   -5.0020   24.0040 C   0  0  0  0  0  0  0  0  0  0  0  0
    5.5690   -4.9680   24.0830 N   0  0  0  0  0  0  0  0  0  0  0  0
    4.8290   -5.7110   23.1620 C   0  0  0  0  0  0  0  0  0  0  0  0
    5.5490   -6.2070   22.0850 C   0  0  0  0  0  0  0  0  0  0  0  0
  3  4  2  0
  4  5  1  0
  1  8  2  0
  2  8  2  0
  6 10  1  0
  8 11  1  0
 10 11  2  0
  7 12  1  0
 11 12  1  0
 12 13  2  0
  9 14  1  0
 13 14  1  0
 10 15  1  0
 14 15  2  0
  4 16  1  0
 16 17  1  0
 17 18  1  0
  8 19  1  0
 18 19  1  0
 19 20  1  0
 16 21  1  0
 20 21  1  0
M  END
