x0755-x2705-x0691-x2572
     RDKit          3D

 53 59  0  0  0  0  0  0  0  0999 V2000
    6.9090   -1.5070   21.9190 N   0  0  0  0  0  0  0  0  0  0  0  0
    6.6550   -4.6110   20.3120 C   0  0  2  0  0  0  0  0  0  0  0  0
    4.7500   -2.9700   21.3510 O   0  0  0  0  0  0  0  0  0  0  0  0
    6.8450   -3.8920   21.4900 C   0  0  2  0  0  0  0  0  0  0  0  0
    7.3910    2.0000   22.8160 N   0  0  0  0  0  0  0  0  0  0  0  0
    8.9070    0.8050   21.5480 O   0  0  0  0  0  0  0  0  0  0  0  0
    6.0320   -2.7080   21.6050 C   0  0  0  0  0  0  0  0  0  0  0  0
    6.5940   -0.0640   21.6030 C   0  0  1  0  0  0  0  0  0  0  0  0
    7.7580    0.9310   21.9820 C   0  0  0  0  0  0  0  0  0  0  0  0
   10.1570    2.0360   23.9800 C   0  0  0  0  0  0  0  0  0  0  0  0
    9.2940    1.2280   24.9550 C   0  0  0  0  0  0  0  0  0  0  0  0
    6.1420    4.4900   21.8700 C   0  0  0  0  0  0  0  0  0  0  0  0
   12.0090   -1.5740   23.3260 C   0  0  0  0  0  0  0  0  0  0  0  0
   12.4780   -0.2040   23.8760 C   0  0  0  0  0  0  0  0  0  0  0  0
   12.5140   -2.6540   24.3360 C   0  0  0  0  0  0  0  0  0  0  0  0
   12.7020   -1.7730   21.9620 C   0  0  0  0  0  0  0  0  0  0  0  0
    5.4540   -4.3700   19.5820 O   0  0  0  0  0  0  0  0  0  0  0  0
    4.3460   -6.4590   26.2340 O   0  0  0  0  0  0  0  0  0  0  0  0
    6.0740   -4.7050   26.7050 O   0  0  0  0  0  0  0  0  0  0  0  0
    1.8940   -5.4730   25.5810 F   0  0  0  0  0  0  0  0  0  0  0  0
    5.5260   -2.1470   26.1860 F   0  0  0  0  0  0  0  0  0  0  0  0
    4.9910   -5.2070   25.8990 S   0  0  0  0  0  0  0  0  0  0  0  0
    4.1390    1.5550   21.2960 C   0  0  0  0  0  0  0  0  0  0  0  0
   13.3280   -1.8770   20.9860 N   0  0  0  0  0  0  0  0  0  0  0  0
    6.3430    0.3130   17.8650 N   0  0  0  0  0  0  0  0  0  0  0  0
    5.2380    1.0630   17.7910 C   0  0  0  0  0  0  0  0  0  0  0  0
    4.5060    1.4710   18.8660 C   0  0  0  0  0  0  0  0  0  0  0  0
    4.9380    1.0950   20.1160 C   0  0  0  0  0  0  0  0  0  0  0  0
    6.0790    0.3270   20.2520 C   0  0  0  0  0  0  0  0  0  0  0  0
    6.7490   -0.0470   19.0930 C   0  0  0  0  0  0  0  0  0  0  0  0
    9.7210   -1.6180   24.3210 N   0  0  0  0  0  0  0  0  0  0  0  0
    8.4250   -1.6050   23.9430 N   0  0  0  0  0  0  0  0  0  0  0  0
    8.2200   -1.5610   22.5900 C   0  0  0  0  0  0  0  0  0  0  0  0
    9.5830   -1.5530   22.0980 C   0  0  0  0  0  0  0  0  0  0  0  0
   10.4590   -1.5830   23.2010 C   0  0  0  0  0  0  0  0  0  0  0  0
    9.4260    3.2610   23.4830 C   0  0  0  0  0  0  0  0  0  0  0  0
   10.1010    4.4960   23.5830 C   0  0  0  0  0  0  0  0  0  0  0  0
    9.5110    5.6770   23.1470 C   0  0  0  0  0  0  0  0  0  0  0  0
    8.2290    5.6460   22.5960 C   0  0  0  0  0  0  0  0  0  0  0  0
    7.5200    4.4320   22.4790 C   0  0  0  0  0  0  0  0  0  0  0  0
    8.1210    3.2260   22.9300 C   0  0  0  0  0  0  0  0  0  0  0  0
    2.3350   -4.2180   25.7220 C   0  0  0  0  0  0  0  0  0  0  0  0
    3.7970   -3.9070   25.8820 C   0  0  0  0  0  0  0  0  0  0  0  0
    4.2410   -2.4900   26.0360 C   0  0  0  0  0  0  0  0  0  0  0  0
    3.2770   -1.4870   26.0270 C   0  0  0  0  0  0  0  0  0  0  0  0
    1.8010   -1.8510   25.8640 C   0  0  0  0  0  0  0  0  0  0  0  0
    1.4000   -3.1820   25.7190 C   0  0  0  0  0  0  0  0  0  0  0  0
    6.5100   -5.3000   21.6590 C   0  0  2  0  0  0  0  0  0  0  0  0
    7.3320   -5.1640   22.5990 C   0  0  2  0  0  0  0  0  0  0  0  0
    6.9800   -5.1230   23.9580 C   0  0  0  0  0  0  0  0  0  0  0  0
    5.5420   -5.3650   24.2830 N   0  0  0  0  0  0  0  0  0  0  0  0
    4.6360   -4.9540   23.2050 C   0  0  0  0  0  0  0  0  0  0  0  0
    5.4220   -4.4450   22.1720 C   0  0  0  0  0  0  0  0  0  0  0  0
  2  4  1  0
  1  7  1  0
  3  7  2  0
  4  7  1  1
  1  8  1  0
  5  9  1  0
  6  9  2  0
  8  9  1  6
 10 11  1  0
 13 14  1  0
 13 15  1  0
 13 16  1  0
  2 17  1  1
 18 22  2  0
 19 22  2  0
 16 24  3  0
 25 26  2  0
 26 27  1  0
 23 28  1  0
 27 28  2  0
  8 29  1  0
 28 29  1  0
 25 30  1  0
 29 30  2  0
 31 32  1  0
  1 33  1  0
 32 33  1  0
 33 34  2  0
 13 35  1  0
 31 35  2  0
 34 35  1  0
 10 36  1  0
 36 37  2  0
 37 38  1  0
 38 39  2  0
 12 40  1  0
 39 40  1  0
  5 41  1  0
 36 41  1  0
 40 41  2  0
 20 42  1  0
 22 43  1  0
 42 43  2  0
 21 44  1  0
 43 44  1  0
 44 45  2  0
 45 46  1  0
 42 47  1  0
 46 47  2  0
  2 48  1  0
  4 48  1  0
  4 49  1  0
 48 49  1  0
 49 50  1  1
 22 51  1  0
 50 51  1  0
 51 52  1  0
 48 53  1  1
 52 53  1  0
M  END
