x0755-x0397
     RDKit          3D

 29 31  0  0  0  0  0  0  0  0999 V2000
    4.6950   -6.2760   26.2540 O   0  0  0  0  0  0  0  0  0  0  0  0
    6.0370   -4.2270   26.6900 O   0  0  0  0  0  0  0  0  0  0  0  0
    5.5280   -4.4850   19.9080 O   0  0  0  0  0  0  0  0  0  0  0  0
    6.5840   -4.4750   20.5990 C   0  0  0  0  0  0  0  0  0  0  0  0
    7.7560   -3.5980   20.2790 C   0  0  0  0  0  0  0  0  0  0  0  0
    1.7150   -5.3580   25.7220 F   0  0  0  0  0  0  0  0  0  0  0  0
    5.6400   -2.5210   25.9460 F   0  0  0  0  0  0  0  0  0  0  0  0
    5.1030   -4.9440   25.8610 S   0  0  0  0  0  0  0  0  0  0  0  0
    7.9510   -1.2300   20.9440 C   0  0  0  0  0  0  0  0  0  0  0  0
    7.2380   -2.2060   20.1060 N   0  0  0  0  0  0  0  0  0  0  0  0
    6.8880   -1.7640   18.7210 C   0  0  0  0  0  0  0  0  0  0  0  0
    3.7140    2.1640   19.4750 C   0  0  0  0  0  0  0  0  0  0  0  0
    2.2070   -4.1130   25.7770 C   0  0  0  0  0  0  0  0  0  0  0  0
    3.6850   -3.9880   25.8350 C   0  0  0  0  0  0  0  0  0  0  0  0
    4.3290   -2.7910   25.8940 C   0  0  0  0  0  0  0  0  0  0  0  0
    3.4290   -1.7700   25.8950 C   0  0  0  0  0  0  0  0  0  0  0  0
    2.0180   -1.9220   25.8410 C   0  0  0  0  0  0  0  0  0  0  0  0
    1.1620   -3.0340   25.7740 C   0  0  0  0  0  0  0  0  0  0  0  0
    6.6950   -5.3060   21.7260 N   0  0  0  0  0  0  0  0  0  0  0  0
    7.4280   -4.8970   22.8250 C   0  0  0  0  0  0  0  0  0  0  0  0
    6.7050   -4.3000   23.8560 C   0  0  0  0  0  0  0  0  0  0  0  0
    5.7580   -5.1230   24.3210 N   0  0  0  0  0  0  0  0  0  0  0  0
    4.8910   -5.4190   23.3020 C   0  0  0  0  0  0  0  0  0  0  0  0
    5.6500   -6.0030   22.1860 C   0  0  0  0  0  0  0  0  0  0  0  0
    5.1040   -0.0740   19.5030 C   0  0  0  0  0  0  0  0  0  0  0  0
    6.1350   -0.4410   18.6520 C   0  0  0  0  0  0  0  0  0  0  0  0
    6.3980    0.4220   17.7950 N   0  0  0  0  0  0  0  0  0  0  0  0
    5.5330    1.4740   18.0150 O   0  0  0  0  0  0  0  0  0  0  0  0
    4.7360    1.1680   19.0630 C   0  0  0  0  0  0  0  0  0  0  0  0
  3  4  2  0
  4  5  1  0
  1  8  2  0
  2  8  2  0
  5 10  1  0
  9 10  1  0
 10 11  1  0
  6 13  1  0
  8 14  1  0
 13 14  2  0
  7 15  1  0
 14 15  1  0
 15 16  2  0
 16 17  1  0
 13 18  1  0
 17 18  2  0
  4 19  1  0
 19 20  1  0
 20 21  1  0
  8 22  1  0
 21 22  1  0
 22 23  1  0
 19 24  1  0
 23 24  1  0
 11 26  1  0
 25 26  1  0
 26 27  2  0
 27 28  1  0
 12 29  1  0
 25 29  2  0
 28 29  1  0
M  END
