x0759-x0991
     RDKit          3D

 20 22  0  0  0  0  0  0  0  0999 V2000
    5.4390   -4.2230   19.7860 O   0  0  0  0  0  0  0  0  0  0  0  0
    6.4430   -3.5020   20.0310 C   0  0  0  0  0  0  0  0  0  0  0  0
    7.3490   -3.0630   18.9370 C   0  0  0  0  0  0  0  0  0  0  0  0
   13.0230    0.7840   23.4720 F   0  0  0  0  0  0  0  0  0  0  0  0
    9.8100   -5.8750   24.9520 N   0  0  0  0  0  0  0  0  0  0  0  0
    7.8980   -4.2270   24.4160 C   0  0  1  0  0  0  0  0  0  0  0  0
    8.2510   -5.0700   26.6610 N   0  0  0  0  0  0  0  0  0  0  0  0
    8.6600   -5.0750   25.3690 C   0  0  0  0  0  0  0  0  0  0  0  0
    6.7520   -3.1400   21.3290 N   0  0  0  0  0  0  0  0  0  0  0  0
    7.6840   -2.0380   21.6930 C   0  0  0  0  0  0  0  0  0  0  0  0
    8.3770   -2.2770   23.0470 C   0  0  1  0  0  0  0  0  0  0  0  0
    8.7000   -3.6880   23.2910 N   0  0  0  0  0  0  0  0  0  0  0  0
    7.5940   -4.6000   22.9870 C   0  0  2  0  0  0  0  0  0  0  0  0
    6.4330   -4.0980   22.3900 C   0  0  0  0  0  0  0  0  0  0  0  0
    9.7180   -0.3990   24.0390 C   0  0  0  0  0  0  0  0  0  0  0  0
   10.8780    0.3550   24.1340 C   0  0  0  0  0  0  0  0  0  0  0  0
   11.9350    0.0420   23.3530 C   0  0  0  0  0  0  0  0  0  0  0  0
   11.9700   -1.0090   22.4210 C   0  0  0  0  0  0  0  0  0  0  0  0
   10.8180   -1.7770   22.3020 C   0  0  0  0  0  0  0  0  0  0  0  0
    9.6480   -1.4680   23.1370 C   0  0  0  0  0  0  0  0  0  0  0  0
  1  2  2  0
  2  3  1  0
  5  8  2  3
  6  8  1  1
  7  8  1  0
  2  9  1  0
  9 10  1  0
 10 11  1  0
  6 12  1  0
 11 12  1  0
  6 13  1  0
 12 13  1  0
  9 14  1  0
 13 14  1  6
 15 16  2  0
  4 17  1  0
 16 17  1  0
 17 18  2  0
 18 19  1  0
 11 20  1  6
 15 20  1  0
 19 20  2  0
M  END
