x0759-x2908
     RDKit          3D

 27 30  0  0  0  0  0  0  0  0999 V2000
    4.9570    0.9430   21.7100 C   0  0  0  0  0  0  0  0  0  0  0  0
    8.6320    1.2260   21.0630 O   0  0  0  0  0  0  0  0  0  0  0  0
   13.1630   -2.4320   21.3420 Cl  0  0  0  0  0  0  0  0  0  0  0  0
    7.2490   -0.6790   20.8460 N   0  0  0  0  0  0  0  0  0  0  0  0
    8.7030   -0.6110   22.4930 N   0  0  0  0  0  0  0  0  0  0  0  0
    8.2280    0.1040   21.4200 C   0  0  0  0  0  0  0  0  0  0  0  0
    5.3540   -4.1430   19.7450 O   0  0  0  0  0  0  0  0  0  0  0  0
    6.3150   -3.4200   20.0340 C   0  0  0  0  0  0  0  0  0  0  0  0
    7.2620   -2.9930   18.9270 C   0  0  0  0  0  0  0  0  0  0  0  0
    6.2060    0.5540   17.5630 N   0  0  0  0  0  0  0  0  0  0  0  0
    6.8310   -0.0740   18.5780 C   0  0  0  0  0  0  0  0  0  0  0  0
    6.4690    0.0200   19.9040 C   0  0  0  0  0  0  0  0  0  0  0  0
    5.3770    0.8130   20.2280 C   0  0  0  0  0  0  0  0  0  0  0  0
    4.6570    1.5010   19.2690 C   0  0  0  0  0  0  0  0  0  0  0  0
    5.1580    1.3230   17.8630 C   0  0  0  0  0  0  0  0  0  0  0  0
   10.5640    0.4280   23.6570 C   0  0  0  0  0  0  0  0  0  0  0  0
   12.0450    0.5510   23.9160 C   0  0  0  0  0  0  0  0  0  0  0  0
   12.8870   -0.4350   23.1180 C   0  0  0  0  0  0  0  0  0  0  0  0
   12.2740   -1.3250   22.2620 C   0  0  0  0  0  0  0  0  0  0  0  0
   10.9150   -1.3680   22.0890 C   0  0  0  0  0  0  0  0  0  0  0  0
   10.0660   -0.5170   22.7590 C   0  0  0  0  0  0  0  0  0  0  0  0
    6.5660   -3.0650   21.3600 N   0  0  0  0  0  0  0  0  0  0  0  0
    6.8060   -1.6800   21.8340 C   0  0  1  0  0  0  0  0  0  0  0  0
    7.7910   -1.7050   22.7960 C   0  0  1  0  0  0  0  0  0  0  0  0
    8.4670   -2.9750   22.9730 O   0  0  0  0  0  0  0  0  0  0  0  0
    7.5580   -3.9840   23.4270 C   0  0  0  0  0  0  0  0  0  0  0  0
    6.4080   -4.0520   22.4240 C   0  0  0  0  0  0  0  0  0  0  0  0
  2  6  2  0
  4  6  1  0
  5  6  1  0
  7  8  2  0
  8  9  1  0
 10 11  2  0
  4 12  1  0
 11 12  1  0
  1 13  1  0
 12 13  2  0
 13 14  1  0
 10 15  1  0
 14 15  2  0
 16 17  2  0
 17 18  1  0
  3 19  1  0
 18 19  2  0
 19 20  1  0
  5 21  1  0
 16 21  1  0
 20 21  2  0
  8 22  1  0
 23  4  1  6
 22 23  1  0
  5 24  1  0
 23 24  1  0
 24 25  1  6
 25 26  1  0
 22 27  1  0
 26 27  1  0
M  END
