x0759-x0830
     RDKit          3D

 20 22  0  0  0  0  0  0  0  0999 V2000
    7.7110   -3.5850   19.5480 C   0  0  0  0  0  0  0  0  0  0  0  0
    5.4670   -3.2130   19.1650 O   0  0  0  0  0  0  0  0  0  0  0  0
    6.4880   -2.9060   19.8650 C   0  0  0  0  0  0  0  0  0  0  0  0
    9.7600   -2.4300   23.7690 C   0  0  0  0  0  0  0  0  0  0  0  0
    6.5230   -2.0250   20.9690 N   0  0  0  0  0  0  0  0  0  0  0  0
    6.3240   -2.6820   22.2900 C   0  0  0  0  0  0  0  0  0  0  0  0
    7.6050   -3.2330   22.8500 C   0  0  0  0  0  0  0  0  0  0  0  0
    8.6780   -2.2200   22.9010 N   0  0  0  0  0  0  0  0  0  0  0  0
    8.8430   -1.4210   21.6860 C   0  0  0  0  0  0  0  0  0  0  0  0
    7.5400   -0.9700   21.0250 C   0  0  0  0  0  0  0  0  0  0  0  0
   12.0730   -1.9580   22.8140 C   0  0  0  0  0  0  0  0  0  0  0  0
   13.0970   -1.1080   22.4970 C   0  0  0  0  0  0  0  0  0  0  0  0
   12.9790    0.2420   22.7900 C   0  0  0  0  0  0  0  0  0  0  0  0
   11.8530    0.6820   23.3820 C   0  0  0  0  0  0  0  0  0  0  0  0
   10.7910   -0.1550   23.7370 C   0  0  0  0  0  0  0  0  0  0  0  0
   10.9040   -1.4900   23.4390 C   0  0  0  0  0  0  0  0  0  0  0  0
   11.7620    2.0400   23.6330 C   0  0  0  0  0  0  0  0  0  0  0  0
   10.5610    2.5640   24.2710 C   0  0  0  0  0  0  0  0  0  0  0  0
    9.5360    1.6970   24.6320 C   0  0  0  0  0  0  0  0  0  0  0  0
    9.6490    0.3380   24.3640 C   0  0  0  0  0  0  0  0  0  0  0  0
  1  3  1  0
  2  3  2  0
  3  5  1  0
  5  6  1  0
  6  7  1  0
  4  8  1  0
  7  8  1  0
  8  9  1  0
  5 10  1  0
  9 10  1  0
 11 12  2  0
 12 13  1  0
 13 14  2  0
 14 15  1  0
  4 16  1  0
 11 16  1  0
 15 16  2  0
 14 17  1  0
 17 18  2  0
 18 19  1  0
 15 20  1  0
 19 20  2  0
M  END
