x0759-x2600
     RDKit          3D

 27 30  0  0  0  0  0  0  0  0999 V2000
   13.9580   -1.5820   20.4510 N   0  0  0  0  0  0  0  0  0  0  0  0
    8.4820    0.0760   21.6970 C   0  0  0  0  0  0  0  0  0  0  0  0
    9.1510    1.3060   21.3760 O   0  0  0  0  0  0  0  0  0  0  0  0
    8.7270   -0.5270   23.0670 C   0  0  2  0  0  0  0  0  0  0  0  0
    7.5350   -0.7320   20.9720 N   0  0  0  0  0  0  0  0  0  0  0  0
   13.0450   -1.4210   21.4970 C   0  0  0  0  0  0  0  0  0  0  0  0
    5.4420   -4.1580   19.7850 O   0  0  0  0  0  0  0  0  0  0  0  0
    6.4500   -3.4410   20.0660 C   0  0  0  0  0  0  0  0  0  0  0  0
    7.3890   -3.0290   19.0020 C   0  0  0  0  0  0  0  0  0  0  0  0
    6.1330    0.5810   17.6180 N   0  0  0  0  0  0  0  0  0  0  0  0
    6.9650   -0.1020   18.5800 C   0  0  0  0  0  0  0  0  0  0  0  0
    6.6590   -0.0620   20.0320 C   0  0  0  0  0  0  0  0  0  0  0  0
    5.5220    0.6610   20.3990 C   0  0  0  0  0  0  0  0  0  0  0  0
    4.7340    1.3110   19.4600 C   0  0  0  0  0  0  0  0  0  0  0  0
    5.0770    1.2470   18.1090 C   0  0  0  0  0  0  0  0  0  0  0  0
   10.6790   -0.2690   24.8770 C   0  0  0  0  0  0  0  0  0  0  0  0
   12.0680   -0.4130   24.9260 C   0  0  0  0  0  0  0  0  0  0  0  0
   12.7350   -0.7890   23.7890 C   0  0  0  0  0  0  0  0  0  0  0  0
   12.0990   -1.0630   22.4980 C   0  0  0  0  0  0  0  0  0  0  0  0
   10.6320   -0.9120   22.4650 C   0  0  0  0  0  0  0  0  0  0  0  0
   10.0870   -0.5280   23.6620 C   0  0  0  0  0  0  0  0  0  0  0  0
    6.7410   -3.0710   21.3980 N   0  0  0  0  0  0  0  0  0  0  0  0
    7.1190   -1.8340   21.8580 C   0  0  1  0  0  0  0  0  0  0  0  0
    7.9830   -1.8820   23.0030 C   0  0  1  0  0  0  0  0  0  0  0  0
    8.7360   -3.1060   22.8950 O   0  0  0  0  0  0  0  0  0  0  0  0
    7.8010   -4.2240   22.9700 C   0  0  0  0  0  0  0  0  0  0  0  0
    6.5440   -3.9370   22.4360 C   0  0  0  0  0  0  0  0  0  0  0  0
  2  3  2  0
  2  4  1  0
  2  5  1  0
  1  6  3  0
  7  8  2  0
  8  9  1  0
 10 11  2  0
  5 12  1  0
 11 12  1  0
 12 13  2  0
 13 14  1  0
 10 15  1  0
 14 15  2  0
 16 17  2  0
 17 18  1  0
  6 19  1  0
 18 19  2  0
 19 20  1  0
  4 21  1  6
 16 21  1  0
 20 21  2  0
  8 22  1  0
 23  5  1  6
 22 23  1  0
  4 24  1  0
 23 24  1  0
 24 25  1  6
 25 26  1  0
 22 27  1  0
 26 27  1  0
M  END
