x0759-x1336
     RDKit          3D

 27 29  0  0  0  0  0  0  0  0999 V2000
    6.0500   -5.4210   29.1480 C   0  0  0  0  0  0  0  0  0  0  0  0
    8.7610   -0.9330   25.2620 N   0  0  0  0  0  0  0  0  0  0  0  0
    6.1620   -1.3620   25.6100 O   0  0  0  0  0  0  0  0  0  0  0  0
    5.3740   -4.1710   19.7190 O   0  0  0  0  0  0  0  0  0  0  0  0
   10.1110   -3.7920   25.2350 C   0  0  0  0  0  0  0  0  0  0  0  0
    6.4070   -3.4790   19.8960 C   0  0  0  0  0  0  0  0  0  0  0  0
    7.2870   -3.0620   18.7880 C   0  0  0  0  0  0  0  0  0  0  0  0
    7.4990   -1.8130   25.2890 S   0  0  2  0  0  0  0  0  0  0  0  0
   12.9410    0.6950   23.5360 F   0  0  0  0  0  0  0  0  0  0  0  0
    7.0520   -4.9660   28.1350 C   0  0  0  0  0  0  0  0  0  0  0  0
    6.8340   -3.7390   27.2750 C   0  0  0  0  0  0  0  0  0  0  0  0
    7.8430   -3.2750   26.2520 C   0  0  0  0  0  0  0  0  0  0  0  0
    8.9910   -4.0880   26.1810 C   0  0  0  0  0  0  0  0  0  0  0  0
    9.1730   -5.2090   26.9740 C   0  0  0  0  0  0  0  0  0  0  0  0
    8.2420   -5.6390   27.9200 C   0  0  0  0  0  0  0  0  0  0  0  0
    6.7960   -3.1000   21.1400 N   0  0  0  0  0  0  0  0  0  0  0  0
    6.7150   -4.0910   22.2080 C   0  0  0  0  0  0  0  0  0  0  0  0
    6.3640   -3.4250   23.3920 C   0  0  0  0  0  0  0  0  0  0  0  0
    7.3170   -2.3430   23.6890 N   0  0  0  0  0  0  0  0  0  0  0  0
    7.4670   -1.3620   22.6110 C   0  0  0  0  0  0  0  0  0  0  0  0
    7.7660   -2.0330   21.3570 C   0  0  0  0  0  0  0  0  0  0  0  0
    9.8330   -1.0250   24.2620 C   0  0  0  0  0  0  0  0  0  0  0  0
   10.8890   -0.1360   24.3510 C   0  0  0  0  0  0  0  0  0  0  0  0
   11.9370   -0.1660   23.4370 C   0  0  0  0  0  0  0  0  0  0  0  0
   11.9240   -1.1120   22.4110 C   0  0  0  0  0  0  0  0  0  0  0  0
   10.8830   -1.9850   22.3220 C   0  0  0  0  0  0  0  0  0  0  0  0
    9.8310   -1.9660   23.2310 C   0  0  0  0  0  0  0  0  0  0  0  0
  4  6  2  0
  6  7  1  0
  2  8  2  0
  3  8  2  0
  1 10  1  0
 10 11  2  0
  8 12  1  1
 11 12  1  0
  5 13  1  0
 12 13  2  0
 13 14  1  0
 10 15  1  0
 14 15  2  0
  6 16  1  0
 16 17  1  0
 17 18  1  0
  8 19  1  0
 18 19  1  0
 19 20  1  0
 16 21  1  0
 20 21  1  0
  2 22  1  0
 22 23  2  0
  9 24  1  0
 23 24  1  0
 24 25  2  0
 25 26  1  0
 22 27  1  0
 26 27  2  0
M  END
