x0755-x1351
     RDKit          3D

 28 30  0  0  0  0  0  0  0  0999 V2000
    4.4320   -6.4540   26.1770 O   0  0  0  0  0  0  0  0  0  0  0  0
    6.3310   -4.9170   26.7340 O   0  0  0  0  0  0  0  0  0  0  0  0
    5.5980   -4.4420   19.9120 O   0  0  0  0  0  0  0  0  0  0  0  0
    6.6320   -4.5000   20.6400 C   0  0  0  0  0  0  0  0  0  0  0  0
    7.8590   -3.6900   20.3830 C   0  0  0  0  0  0  0  0  0  0  0  0
    2.1650   -5.4890   25.5990 F   0  0  0  0  0  0  0  0  0  0  0  0
    5.7420   -1.9140   26.1860 N   0  0  0  0  0  0  0  0  0  0  0  0
    5.2150   -5.2730   25.8900 S   0  0  0  0  0  0  0  0  0  0  0  0
    8.0090   -3.2700   26.3040 O   0  0  0  0  0  0  0  0  0  0  0  0
    6.8750   -2.8320   26.1700 C   0  0  0  0  0  0  0  0  0  0  0  0
    2.6070   -4.2300   25.7330 C   0  0  0  0  0  0  0  0  0  0  0  0
    4.0610   -3.9380   25.8820 C   0  0  0  0  0  0  0  0  0  0  0  0
    4.3660   -2.4280   26.0240 C   0  0  0  0  0  0  0  0  0  0  0  0
    3.2330   -1.4020   26.0070 C   0  0  0  0  0  0  0  0  0  0  0  0
    1.9420   -1.9010   25.8590 C   0  0  0  0  0  0  0  0  0  0  0  0
    1.6430   -3.2310   25.7280 C   0  0  0  0  0  0  0  0  0  0  0  0
    6.6840   -5.3510   21.7500 N   0  0  0  0  0  0  0  0  0  0  0  0
    7.4970   -5.0080   22.9090 C   0  0  0  0  0  0  0  0  0  0  0  0
    6.6980   -4.5370   23.9170 C   0  0  0  0  0  0  0  0  0  0  0  0
    5.7990   -5.4460   24.3210 N   0  0  0  0  0  0  0  0  0  0  0  0
    4.8900   -5.6720   23.3300 C   0  0  0  0  0  0  0  0  0  0  0  0
    5.4890   -6.1120   22.1640 C   0  0  0  0  0  0  0  0  0  0  0  0
    6.6760   -0.6250   28.0450 C   0  0  0  0  0  0  0  0  0  0  0  0
    6.8180    0.6480   28.7680 C   0  0  0  0  0  0  0  0  0  0  0  0
    6.1290    1.7210   28.2160 C   0  0  0  0  0  0  0  0  0  0  0  0
    5.3540    1.6360   27.0620 C   0  0  0  0  0  0  0  0  0  0  0  0
    5.2430    0.4130   26.4010 C   0  0  0  0  0  0  0  0  0  0  0  0
    5.8830   -0.6870   26.8780 C   0  0  0  0  0  0  0  0  0  0  0  0
  3  4  2  0
  4  5  1  0
  1  8  2  0
  2  8  2  0
  7 10  1  0
  9 10  2  0
  6 11  1  0
  8 12  1  0
 11 12  2  0
  7 13  1  0
 12 13  1  0
 13 14  2  0
 14 15  1  0
 11 16  1  0
 15 16  2  0
  4 17  1  0
 17 18  1  0
 18 19  1  0
  8 20  1  0
 19 20  1  0
 20 21  1  0
 17 22  1  0
 21 22  1  0
 23 24  2  0
 24 25  1  0
 25 26  2  0
 26 27  1  0
  7 28  1  0
 23 28  1  0
 27 28  2  0
M  END
