x0759-x0759
     RDKit          3D

 16 17  0  0  0  0  0  0  0  0999 V2000
    5.3700   -4.2020   19.7820 O   0  0  0  0  0  0  0  0  0  0  0  0
    6.3340   -3.4910   20.0840 C   0  0  0  0  0  0  0  0  0  0  0  0
    7.3080   -3.0610   18.9930 C   0  0  0  0  0  0  0  0  0  0  0  0
   12.7520    0.9290   23.9630 F   0  0  0  0  0  0  0  0  0  0  0  0
    6.5590   -3.1240   21.4100 N   0  0  0  0  0  0  0  0  0  0  0  0
    7.6730   -2.2460   21.7260 C   0  0  0  0  0  0  0  0  0  0  0  0
    8.6950   -2.8120   22.5090 C   0  0  2  0  0  0  0  0  0  0  0  0
    8.2290   -3.5690   23.6300 O   0  0  0  0  0  0  0  0  0  0  0  0
    7.2850   -4.5690   23.2420 C   0  0  0  0  0  0  0  0  0  0  0  0
    6.2430   -3.9880   22.4920 C   0  0  0  0  0  0  0  0  0  0  0  0
    9.5710   -0.9240   23.9890 C   0  0  0  0  0  0  0  0  0  0  0  0
   10.5230    0.0070   24.3860 C   0  0  0  0  0  0  0  0  0  0  0  0
   11.8280    0.0610   23.6320 C   0  0  0  0  0  0  0  0  0  0  0  0
   12.1020   -0.8820   22.4740 C   0  0  0  0  0  0  0  0  0  0  0  0
   11.0420   -1.8740   22.0750 C   0  0  0  0  0  0  0  0  0  0  0  0
    9.7580   -1.8250   22.9150 C   0  0  0  0  0  0  0  0  0  0  0  0
  1  2  2  0
  2  3  1  0
  2  5  1  0
  5  6  1  0
  6  7  1  0
  7  8  1  0
  8  9  1  0
  5 10  1  0
  9 10  1  0
 11 12  2  0
  4 13  1  0
 12 13  1  0
 13 14  2  0
 14 15  1  0
  7 16  1  1
 11 16  1  0
 15 16  2  0
M  END
