x0755-x0305
     RDKit          3D

 33 35  0  0  0  0  0  0  0  0999 V2000
    4.1210   -6.2040   25.9600 O   0  0  0  0  0  0  0  0  0  0  0  0
    6.1330   -4.8910   26.6770 O   0  0  0  0  0  0  0  0  0  0  0  0
    5.5720   -4.5930   19.9670 O   0  0  0  0  0  0  0  0  0  0  0  0
    6.5810   -4.6300   20.7360 C   0  0  0  0  0  0  0  0  0  0  0  0
    7.7990   -3.7970   20.4710 C   0  0  0  0  0  0  0  0  0  0  0  0
    2.8290   -5.5450   25.4070 F   0  0  0  0  0  0  0  0  0  0  0  0
    5.6270   -1.6730   26.4700 O   0  0  0  0  0  0  0  0  0  0  0  0
    4.9790   -5.0520   25.8170 S   0  0  0  0  0  0  0  0  0  0  0  0
    8.5310   -0.1760   27.7470 C   0  0  0  0  0  0  0  0  0  0  0  0
    8.7020   -0.6520   26.3490 C   0  0  2  0  0  0  0  0  0  0  0  0
    9.6890    0.1880   25.7290 N   0  0  0  0  0  0  0  0  0  0  0  0
   13.0980   -1.4060   21.5100 C   0  0  0  0  0  0  0  0  0  0  0  0
   13.9580   -1.5780   20.4370 N   0  0  0  0  0  0  0  0  0  0  0  0
    6.5280   -1.8780   25.6720 C   0  0  0  0  0  0  0  0  0  0  0  0
    7.3940   -0.6300   25.5430 C   0  0  0  0  0  0  0  0  0  0  0  0
    2.9170   -4.2270   25.6280 C   0  0  0  0  0  0  0  0  0  0  0  0
    4.0810   -3.5260   25.9200 C   0  0  0  0  0  0  0  0  0  0  0  0
    4.3590   -2.2460   26.1680 C   0  0  0  0  0  0  0  0  0  0  0  0
    3.2680   -1.5670   26.1050 C   0  0  0  0  0  0  0  0  0  0  0  0
    1.9860   -2.0520   25.8300 C   0  0  0  0  0  0  0  0  0  0  0  0
    1.5880   -3.4150   25.5520 C   0  0  0  0  0  0  0  0  0  0  0  0
    6.5990   -5.4590   21.8610 N   0  0  0  0  0  0  0  0  0  0  0  0
    7.4040   -5.1370   22.8950 C   0  0  0  0  0  0  0  0  0  0  0  0
    6.6020   -4.3320   23.8440 C   0  0  0  0  0  0  0  0  0  0  0  0
    5.5760   -5.1730   24.2230 N   0  0  0  0  0  0  0  0  0  0  0  0
    4.7270   -5.5600   23.2390 C   0  0  0  0  0  0  0  0  0  0  0  0
    5.5000   -6.1280   22.2180 C   0  0  0  0  0  0  0  0  0  0  0  0
   10.4950   -0.2260   24.6740 C   0  0  0  0  0  0  0  0  0  0  0  0
   11.6740    0.4610   24.4040 N   0  0  0  0  0  0  0  0  0  0  0  0
   12.4470    0.0580   23.4120 C   0  0  0  0  0  0  0  0  0  0  0  0
   12.1530   -1.0150   22.6210 C   0  0  0  0  0  0  0  0  0  0  0  0
   10.9900   -1.6820   22.8800 C   0  0  0  0  0  0  0  0  0  0  0  0
   10.1350   -1.3190   23.8960 C   0  0  0  0  0  0  0  0  0  0  0  0
  3  4  2  0
  4  5  1  0
  1  8  2  0
  2  8  2  0
 10  9  1  1
 10 11  1  0
 12 13  3  0
  7 14  1  0
 10 15  1  0
 14 15  1  0
  6 16  1  0
  8 17  1  0
 16 17  2  0
  7 18  1  0
 17 18  1  0
 18 19  2  0
 19 20  1  0
 16 21  1  0
 20 21  2  0
  4 22  1  0
 22 23  1  0
 23 24  1  0
  8 25  1  0
 24 25  1  0
 25 26  1  0
 22 27  1  0
 26 27  1  0
 11 28  1  0
 28 29  2  0
 29 30  1  0
 12 31  1  0
 30 31  2  0
 31 32  1  0
 28 33  1  0
 32 33  2  0
M  END
