x0755-x2705-x0691-x2649
     RDKit          3D

 52 58  0  0  0  0  0  0  0  0999 V2000
    6.8590   -1.4640   22.0110 N   0  0  0  0  0  0  0  0  0  0  0  0
    6.7420   -4.6090   20.3440 C   0  0  2  0  0  0  0  0  0  0  0  0
    4.7200   -2.9620   21.4100 O   0  0  0  0  0  0  0  0  0  0  0  0
    6.8600   -3.7410   21.5120 C   0  0  2  0  0  0  0  0  0  0  0  0
    7.3780    2.0720   22.7480 N   0  0  0  0  0  0  0  0  0  0  0  0
    8.8950    0.8270   21.5190 O   0  0  0  0  0  0  0  0  0  0  0  0
    5.9930   -2.6590   21.6530 C   0  0  0  0  0  0  0  0  0  0  0  0
    6.5910   -0.0310   21.6420 C   0  0  1  0  0  0  0  0  0  0  0  0
    7.7580    0.9760   21.9610 C   0  0  0  0  0  0  0  0  0  0  0  0
   10.1600    2.0770   23.9610 C   0  0  0  0  0  0  0  0  0  0  0  0
    9.3390    1.2190   24.9220 C   0  0  0  0  0  0  0  0  0  0  0  0
    6.1610    4.5650   21.8700 C   0  0  0  0  0  0  0  0  0  0  0  0
   11.9900   -1.5550   23.2790 C   0  0  0  0  0  0  0  0  0  0  0  0
   12.5180   -0.1840   23.7560 C   0  0  0  0  0  0  0  0  0  0  0  0
   12.5060   -2.6050   24.2830 C   0  0  0  0  0  0  0  0  0  0  0  0
   12.6300   -1.8340   21.9660 C   0  0  0  0  0  0  0  0  0  0  0  0
    5.5200   -4.5780   19.6310 O   0  0  0  0  0  0  0  0  0  0  0  0
    4.4570   -6.3740   25.9030 O   0  0  0  0  0  0  0  0  0  0  0  0
    6.1000   -4.6810   26.7420 O   0  0  0  0  0  0  0  0  0  0  0  0
    2.0500   -5.4570   25.5380 F   0  0  0  0  0  0  0  0  0  0  0  0
    5.4960   -1.9970   26.1470 F   0  0  0  0  0  0  0  0  0  0  0  0
    5.1160   -5.0960   25.7750 S   0  0  0  0  0  0  0  0  0  0  0  0
    4.0310    1.6310   21.2310 C   0  0  0  0  0  0  0  0  0  0  0  0
    6.3500    0.2470   17.9080 N   0  0  0  0  0  0  0  0  0  0  0  0
    5.2370    0.9940   17.7980 C   0  0  0  0  0  0  0  0  0  0  0  0
    4.4920    1.4300   18.8450 C   0  0  0  0  0  0  0  0  0  0  0  0
    4.8920    1.1050   20.1270 C   0  0  0  0  0  0  0  0  0  0  0  0
    6.0400    0.3430   20.2980 C   0  0  0  0  0  0  0  0  0  0  0  0
    6.7350   -0.0680   19.1540 C   0  0  0  0  0  0  0  0  0  0  0  0
    9.7260   -1.5770   24.3170 N   0  0  0  0  0  0  0  0  0  0  0  0
    8.4260   -1.5610   23.9740 N   0  0  0  0  0  0  0  0  0  0  0  0
    8.1880   -1.5270   22.6340 C   0  0  0  0  0  0  0  0  0  0  0  0
    9.5030   -1.5330   22.0990 C   0  0  0  0  0  0  0  0  0  0  0  0
   10.4390   -1.5570   23.2030 C   0  0  0  0  0  0  0  0  0  0  0  0
    9.4270    3.3090   23.4850 C   0  0  0  0  0  0  0  0  0  0  0  0
   10.0960    4.5510   23.6210 C   0  0  0  0  0  0  0  0  0  0  0  0
    9.5010    5.7370   23.2030 C   0  0  0  0  0  0  0  0  0  0  0  0
    8.2300    5.7190   22.6410 C   0  0  0  0  0  0  0  0  0  0  0  0
    7.5330    4.5000   22.4920 C   0  0  0  0  0  0  0  0  0  0  0  0
    8.1310    3.2790   22.9190 C   0  0  0  0  0  0  0  0  0  0  0  0
    2.4360   -4.1840   25.6980 C   0  0  0  0  0  0  0  0  0  0  0  0
    3.8770   -3.8550   25.8300 C   0  0  0  0  0  0  0  0  0  0  0  0
    4.2350   -2.4170   26.0140 C   0  0  0  0  0  0  0  0  0  0  0  0
    3.1520   -1.4150   26.0510 C   0  0  0  0  0  0  0  0  0  0  0  0
    1.7060   -1.8540   25.9070 C   0  0  0  0  0  0  0  0  0  0  0  0
    1.4050   -3.2150   25.7370 C   0  0  0  0  0  0  0  0  0  0  0  0
    6.6520   -5.3270   21.5860 C   0  0  2  0  0  0  0  0  0  0  0  0
    7.5100   -4.7660   22.4610 C   0  0  2  0  0  0  0  0  0  0  0  0
    7.2010   -4.8430   23.8450 C   0  0  0  0  0  0  0  0  0  0  0  0
    5.7460   -5.0010   24.1820 N   0  0  0  0  0  0  0  0  0  0  0  0
    4.8130   -5.3690   23.0930 C   0  0  0  0  0  0  0  0  0  0  0  0
    5.4970   -6.0760   22.1040 C   0  0  0  0  0  0  0  0  0  0  0  0
  2  4  1  0
  1  7  1  0
  3  7  2  0
  4  7  1  1
  1  8  1  0
  5  9  1  0
  6  9  2  0
  8  9  1  6
 10 11  1  0
 13 14  1  0
 13 15  1  0
 13 16  1  0
  2 17  1  1
 18 22  2  0
 19 22  2  0
 24 25  2  0
 25 26  1  0
 23 27  1  0
 26 27  2  0
  8 28  1  0
 27 28  1  0
 24 29  1  0
 28 29  2  0
 30 31  1  0
  1 32  1  0
 31 32  2  0
 32 33  1  0
 13 34  1  0
 30 34  1  0
 33 34  2  0
 10 35  1  0
 35 36  2  0
 36 37  1  0
 37 38  2  0
 12 39  1  0
 38 39  1  0
  5 40  1  0
 35 40  1  0
 39 40  2  0
 20 41  1  0
 22 42  1  0
 41 42  2  0
 21 43  1  0
 42 43  1  0
 43 44  2  0
 44 45  1  0
 41 46  1  0
 45 46  2  0
  2 47  1  0
  4 47  1  0
  4 48  1  0
 47 48  1  0
 48 49  1  1
 22 50  1  0
 49 50  1  0
 50 51  1  0
 47 52  1  1
 51 52  1  0
M  END
