x0769-x2910
     RDKit          3D

 45 49  0  0  0  0  0  0  0  0999 V2000
    7.3610   -1.2060   21.2530 N   0  0  0  0  0  0  0  0  0  0  0  0
   10.2950    2.7510   23.6220 C   0  0  0  0  0  0  0  0  0  0  0  0
   10.2220    1.5270   23.7610 O   0  0  0  0  0  0  0  0  0  0  0  0
    9.7760   -0.8830   23.1570 O   0  0  0  0  0  0  0  0  0  0  0  0
    5.3140   -2.4710   21.0950 O   0  0  0  0  0  0  0  0  0  0  0  0
    6.3340    1.3440   16.7180 O   0  0  0  0  0  0  0  0  0  0  0  0
    9.5210   -1.9100   22.2640 C   0  0  0  0  0  0  0  0  0  0  0  0
    8.0730   -2.1110   22.0910 C   0  0  2  0  0  0  0  0  0  0  0  0
    5.9750   -1.4630   20.8580 C   0  0  0  0  0  0  0  0  0  0  0  0
    5.9730   -5.0490   26.8420 O   0  0  0  0  0  0  0  0  0  0  0  0
    3.9960   -6.4770   26.0750 O   0  0  0  0  0  0  0  0  0  0  0  0
    5.3130   -4.8510   19.9520 O   0  0  0  0  0  0  0  0  0  0  0  0
    6.3690   -4.7230   20.5890 C   0  0  0  0  0  0  0  0  0  0  0  0
    7.3560   -3.6760   20.2490 C   0  0  0  0  0  0  0  0  0  0  0  0
    5.6980   -2.4700   25.9260 F   0  0  0  0  0  0  0  0  0  0  0  0
    4.8100   -5.2940   25.9140 S   0  0  0  0  0  0  0  0  0  0  0  0
    7.9230   -3.4660   21.6210 C   0  0  0  0  0  0  0  0  0  0  0  0
   11.2770    0.8020   23.2850 C   0  0  0  0  0  0  0  0  0  0  0  0
   11.0180   -0.4870   22.9700 C   0  0  0  0  0  0  0  0  0  0  0  0
   11.9880   -1.3340   22.4780 C   0  0  0  0  0  0  0  0  0  0  0  0
   13.2120   -0.8730   22.3050 C   0  0  0  0  0  0  0  0  0  0  0  0
   13.5260    0.4540   22.6150 C   0  0  0  0  0  0  0  0  0  0  0  0
   12.5510    1.2830   23.1060 C   0  0  0  0  0  0  0  0  0  0  0  0
    4.7570    1.6700   18.4700 N   0  0  0  0  0  0  0  0  0  0  0  0
    4.0610    1.4550   19.7050 C   0  0  0  0  0  0  0  0  0  0  0  0
    4.4010    0.4090   20.5970 C   0  0  0  0  0  0  0  0  0  0  0  0
    5.4320   -0.2950   20.0790 C   0  0  0  0  0  0  0  0  0  0  0  0
    6.0180    0.0220   18.8540 C   0  0  0  0  0  0  0  0  0  0  0  0
    5.7710    1.0460   17.8710 C   0  0  0  0  0  0  0  0  0  0  0  0
    3.0070    2.3130   20.0440 C   0  0  0  0  0  0  0  0  0  0  0  0
    2.3210    2.1410   21.2250 C   0  0  0  0  0  0  0  0  0  0  0  0
    2.6510    1.1320   22.0930 C   0  0  0  0  0  0  0  0  0  0  0  0
    3.6850    0.2510   21.8070 C   0  0  0  0  0  0  0  0  0  0  0  0
    4.3690   -2.5920   26.0060 C   0  0  0  0  0  0  0  0  0  0  0  0
    3.7810   -3.8720   26.0160 C   0  0  0  0  0  0  0  0  0  0  0  0
    2.3790   -3.9960   26.1100 C   0  0  0  0  0  0  0  0  0  0  0  0
    1.5330   -2.8740   26.1900 C   0  0  0  0  0  0  0  0  0  0  0  0
    2.0630   -1.5910   26.1760 C   0  0  0  0  0  0  0  0  0  0  0  0
    3.5830   -1.4320   26.0790 C   0  0  0  0  0  0  0  0  0  0  0  0
    6.6010   -5.5570   21.6990 N   0  0  0  0  0  0  0  0  0  0  0  0
    5.6710   -6.5550   22.1660 C   0  0  0  0  0  0  0  0  0  0  0  0
    4.7130   -6.0130   23.2390 C   0  0  0  0  0  0  0  0  0  0  0  0
    5.4190   -5.2970   24.3300 N   0  0  0  0  0  0  0  0  0  0  0  0
    6.5810   -4.4370   23.9740 C   0  0  0  0  0  0  0  0  0  0  0  0
    7.4120   -5.0620   22.8280 C   0  0  0  0  0  0  0  0  0  0  0  0
  2  3  1  0
  4  7  1  0
  1  8  1  0
  8  7  1  6
  1  9  1  0
  5  9  2  0
 12 13  2  0
 13 14  1  0
 10 16  2  0
 11 16  2  0
  8 17  1  0
 14 17  1  0
  3 18  1  0
  4 19  1  0
 18 19  2  0
 19 20  1  0
 20 21  2  0
 21 22  1  0
 18 23  1  0
 22 23  2  0
 24 25  2  0
 25 26  1  0
  9 27  1  0
 26 27  2  0
 27 28  1  0
  6 29  1  0
 24 29  1  0
 28 29  2  0
 25 30  1  0
 30 31  2  0
 31 32  1  0
 26 33  1  0
 32 33  2  0
 15 34  1  0
 16 35  1  0
 34 35  2  0
 35 36  1  0
 36 37  2  0
 37 38  1  0
 34 39  1  0
 38 39  2  0
 13 40  1  0
 40 41  1  0
 41 42  1  0
 16 43  1  0
 42 43  1  0
 43 44  1  0
 40 45  1  0
 44 45  1  0
M  END
