x0769-x3115
     RDKit          3D

 46 50  0  0  0  0  0  0  0  0999 V2000
    6.8440   -1.7740   22.0240 N   0  0  0  0  0  0  0  0  0  0  0  0
    7.0590   -4.9700   20.3310 C   0  0  0  0  0  0  0  0  0  0  0  0
    4.7990   -3.0470   21.3320 O   0  0  0  0  0  0  0  0  0  0  0  0
    6.8000   -4.2260   21.5650 C   0  0  2  0  0  0  0  0  0  0  0  0
    7.5020    1.6180   22.8880 N   0  0  0  0  0  0  0  0  0  0  0  0
    8.7820    0.4080   21.4150 O   0  0  0  0  0  0  0  0  0  0  0  0
    6.0430   -2.9540   21.6300 C   0  0  0  0  0  0  0  0  0  0  0  0
    8.6830    5.1250   22.9950 O   0  0  0  0  0  0  0  0  0  0  0  0
    6.5090   -0.3200   21.7420 C   0  0  1  0  0  0  0  0  0  0  0  0
    7.7120    0.5670   21.9940 C   0  0  0  0  0  0  0  0  0  0  0  0
    8.3940    2.7510   22.5030 C   0  0  0  0  0  0  0  0  0  0  0  0
    7.7230    4.0670   22.8900 C   0  0  0  0  0  0  0  0  0  0  0  0
    8.3640    6.1440   22.3630 C   0  0  0  0  0  0  0  0  0  0  0  0
   12.3620   -1.9190   24.1710 C   0  0  0  0  0  0  0  0  0  0  0  0
   13.3000   -1.9770   23.1500 C   0  0  0  0  0  0  0  0  0  0  0  0
   12.7330   -3.0280   25.1640 C   0  0  0  0  0  0  0  0  0  0  0  0
   12.5340   -0.5990   24.9260 C   0  0  0  0  0  0  0  0  0  0  0  0
    5.8490   -5.3290   19.6970 O   0  0  0  0  0  0  0  0  0  0  0  0
    5.9960   -4.9100   27.0750 O   0  0  0  0  0  0  0  0  0  0  0  0
    4.0550   -6.4050   26.2610 O   0  0  0  0  0  0  0  0  0  0  0  0
    5.6080   -2.3030   26.4200 F   0  0  0  0  0  0  0  0  0  0  0  0
    4.8790   -5.2220   26.1190 S   0  0  0  0  0  0  0  0  0  0  0  0
    6.3180    0.2770   17.8710 N   0  0  0  0  0  0  0  0  0  0  0  0
    5.1430    1.1190   17.8790 C   0  0  0  0  0  0  0  0  0  0  0  0
    4.4130    1.4680   19.0720 C   0  0  0  0  0  0  0  0  0  0  0  0
    4.9050    0.9470   20.3370 C   0  0  0  0  0  0  0  0  0  0  0  0
    6.0520    0.1340   20.3650 C   0  0  0  0  0  0  0  0  0  0  0  0
    6.7520   -0.2120   19.1900 C   0  0  0  0  0  0  0  0  0  0  0  0
    9.4080   -1.6740   21.7270 C   0  0  0  0  0  0  0  0  0  0  0  0
   10.6540   -1.7200   22.2830 C   0  0  0  0  0  0  0  0  0  0  0  0
   10.9400   -1.9180   23.6200 C   0  0  0  0  0  0  0  0  0  0  0  0
    9.8330   -2.0980   24.4450 C   0  0  0  0  0  0  0  0  0  0  0  0
    8.5030   -2.0700   23.9730 C   0  0  0  0  0  0  0  0  0  0  0  0
    8.1920   -1.8560   22.6210 C   0  0  0  0  0  0  0  0  0  0  0  0
    4.3000   -2.5200   26.2340 C   0  0  0  0  0  0  0  0  0  0  0  0
    3.7820   -3.8170   26.0760 C   0  0  0  0  0  0  0  0  0  0  0  0
    2.4090   -4.0020   25.8810 C   0  0  0  0  0  0  0  0  0  0  0  0
    1.4490   -2.9960   25.8310 C   0  0  0  0  0  0  0  0  0  0  0  0
    1.9440   -1.5540   26.0030 C   0  0  0  0  0  0  0  0  0  0  0  0
    3.4440   -1.4070   26.2040 C   0  0  0  0  0  0  0  0  0  0  0  0
    6.2720   -5.4820   21.9780 N   0  0  0  0  0  0  0  0  0  0  0  0
    4.9190   -5.6490   22.4450 C   0  0  0  0  0  0  0  0  0  0  0  0
    4.5660   -4.9150   23.5300 C   0  0  0  0  0  0  0  0  0  0  0  0
    5.5230   -5.2280   24.5650 N   0  0  0  0  0  0  0  0  0  0  0  0
    6.8680   -4.6860   24.2710 C   0  0  0  0  0  0  0  0  0  0  0  0
    7.2630   -5.0270   22.8630 C   0  0  2  0  0  0  0  0  0  0  0  0
  4  2  1  6
  1  7  1  0
  3  7  2  0
  4  7  1  0
  1  9  1  0
  5 10  1  0
  6 10  2  0
  9 10  1  6
  5 11  1  0
  8 12  1  0
 11 12  1  0
  8 13  1  0
 14 15  1  0
 14 16  1  0
 14 17  1  0
  2 18  2  0
 19 22  2  0
 20 22  2  0
 23 24  2  0
 24 25  1  0
 25 26  2  0
  9 27  1  0
 26 27  1  0
 23 28  1  0
 27 28  2  0
 29 30  2  0
 14 31  1  0
 30 31  1  0
 31 32  2  0
 32 33  1  0
  1 34  1  0
 29 34  1  0
 33 34  2  0
 21 35  1  0
 22 36  1  0
 35 36  2  0
 36 37  1  0
 37 38  2  0
 38 39  1  0
 35 40  1  0
 39 40  2  0
  4 41  1  0
 41 42  1  0
 42 43  1  0
 22 44  1  0
 43 44  1  0
 44 45  1  0
  4 46  1  0
 41 46  1  0
 46 45  1  1
M  END
