x0769-x0305
     RDKit          3D

 32 34  0  0  0  0  0  0  0  0999 V2000
    5.7870   -5.0700   26.8310 O   0  0  0  0  0  0  0  0  0  0  0  0
    3.8940   -6.5050   26.0190 O   0  0  0  0  0  0  0  0  0  0  0  0
    5.4770   -4.5040   19.9270 O   0  0  0  0  0  0  0  0  0  0  0  0
    6.4810   -4.5120   20.6940 C   0  0  0  0  0  0  0  0  0  0  0  0
    7.6660   -3.6590   20.4590 C   0  0  0  0  0  0  0  0  0  0  0  0
    5.7820   -2.7560   25.8220 O   0  0  0  0  0  0  0  0  0  0  0  0
    4.7390   -5.3450   25.8680 S   0  0  0  0  0  0  0  0  0  0  0  0
    8.2990   -0.0200   27.6450 C   0  0  0  0  0  0  0  0  0  0  0  0
    8.3520    0.0370   26.1590 C   0  0  1  0  0  0  0  0  0  0  0  0
    9.6850    0.1840   25.8180 N   0  0  0  0  0  0  0  0  0  0  0  0
   13.0170   -1.5340   21.6120 C   0  0  0  0  0  0  0  0  0  0  0  0
   13.8320   -1.7180   20.5620 N   0  0  0  0  0  0  0  0  0  0  0  0
    6.4900   -1.6800   26.4470 C   0  0  0  0  0  0  0  0  0  0  0  0
    7.5920   -1.1470   25.5200 C   0  0  0  0  0  0  0  0  0  0  0  0
    4.3470   -2.6860   25.8630 C   0  0  0  0  0  0  0  0  0  0  0  0
    3.7330   -3.9170   25.8790 C   0  0  0  0  0  0  0  0  0  0  0  0
    2.3450   -3.9550   25.9120 C   0  0  0  0  0  0  0  0  0  0  0  0
    1.6160   -2.8150   25.9320 C   0  0  0  0  0  0  0  0  0  0  0  0
    2.2140   -1.5400   25.9230 C   0  0  0  0  0  0  0  0  0  0  0  0
    3.6060   -1.4900   25.8850 C   0  0  0  0  0  0  0  0  0  0  0  0
    6.5120   -5.3340   21.8160 N   0  0  0  0  0  0  0  0  0  0  0  0
    5.5910   -6.2520   22.0980 C   0  0  0  0  0  0  0  0  0  0  0  0
    4.6920   -5.9490   23.2180 C   0  0  0  0  0  0  0  0  0  0  0  0
    5.4660   -5.4320   24.3540 N   0  0  0  0  0  0  0  0  0  0  0  0
    6.3560   -4.3020   23.9510 C   0  0  0  0  0  0  0  0  0  0  0  0
    7.2300   -4.8040   22.9910 C   0  0  0  0  0  0  0  0  0  0  0  0
   10.4790   -0.3250   24.7480 C   0  0  0  0  0  0  0  0  0  0  0  0
   11.5830    0.4090   24.3710 N   0  0  0  0  0  0  0  0  0  0  0  0
   12.3450   -0.0270   23.3810 C   0  0  0  0  0  0  0  0  0  0  0  0
   12.0950   -1.1770   22.7020 C   0  0  0  0  0  0  0  0  0  0  0  0
   11.0050   -1.9340   23.0530 C   0  0  0  0  0  0  0  0  0  0  0  0
   10.1710   -1.5230   24.0870 C   0  0  0  0  0  0  0  0  0  0  0  0
  3  4  2  0
  4  5  1  0
  1  7  2  0
  2  7  2  0
  9  8  1  1
  9 10  1  0
 11 12  3  0
  6 13  1  0
  9 14  1  0
 13 14  1  0
  6 15  1  0
  7 16  1  0
 15 16  1  0
 16 17  2  0
 17 18  1  0
 18 19  2  0
 15 20  2  0
 19 20  1  0
  4 21  1  0
 21 22  1  0
 22 23  1  0
  7 24  1  0
 23 24  1  0
 24 25  1  0
 21 26  1  0
 25 26  1  0
 10 27  1  0
 27 28  2  0
 28 29  1  0
 11 30  1  0
 29 30  2  0
 30 31  1  0
 27 32  1  0
 31 32  2  0
M  END
