x0769-x2754
     RDKit          3D

 28 30  0  0  0  0  0  0  0  0999 V2000
    5.6760   -5.2390   27.1100 N   0  0  0  0  0  0  0  0  0  0  0  0
    3.8660   -6.6580   25.8330 O   0  0  0  0  0  0  0  0  0  0  0  0
    5.3150   -5.0680   19.9880 O   0  0  0  0  0  0  0  0  0  0  0  0
    6.2990   -4.5790   20.5580 C   0  0  0  0  0  0  0  0  0  0  0  0
    7.0320   -3.4660   19.8860 C   0  0  0  0  0  0  0  0  0  0  0  0
    5.1440   -2.4290   26.4560 N   0  0  0  0  0  0  0  0  0  0  0  0
    4.6750   -5.4600   25.9310 S   0  0  1  0  0  0  0  0  0  0  0  0
    5.5200   -1.9070   25.2480 C   0  0  0  0  0  0  0  0  0  0  0  0
    4.7950   -1.9400   24.2600 O   0  0  0  0  0  0  0  0  0  0  0  0
    5.4420   -1.8590   27.4240 C   0  0  0  0  0  0  0  0  0  0  0  0
    3.8120   -2.6410   26.2660 C   0  0  0  0  0  0  0  0  0  0  0  0
    3.4990   -4.1210   25.9910 C   0  0  0  0  0  0  0  0  0  0  0  0
    2.0480   -4.3340   25.7700 C   0  0  0  0  0  0  0  0  0  0  0  0
    1.2900   -3.2060   25.8530 C   0  0  0  0  0  0  0  0  0  0  0  0
    1.6990   -1.9240   26.1110 C   0  0  0  0  0  0  0  0  0  0  0  0
    2.9710   -1.3520   26.3640 C   0  0  0  0  0  0  0  0  0  0  0  0
    6.6490   -5.1150   21.8030 N   0  0  0  0  0  0  0  0  0  0  0  0
    5.9750   -6.2040   22.2580 C   0  0  0  0  0  0  0  0  0  0  0  0
    5.0120   -6.1210   23.2960 C   0  0  0  0  0  0  0  0  0  0  0  0
    5.5650   -5.4410   24.4780 N   0  0  0  0  0  0  0  0  0  0  0  0
    6.2120   -4.2140   23.9860 C   0  0  0  0  0  0  0  0  0  0  0  0
    7.0710   -4.3500   22.8150 C   0  0  0  0  0  0  0  0  0  0  0  0
    7.0090   -4.7170   26.8870 C   0  0  0  0  0  0  0  0  0  0  0  0
    8.1500   -5.3380   27.4370 C   0  0  0  0  0  0  0  0  0  0  0  0
    9.4550   -4.8860   27.2460 C   0  0  0  0  0  0  0  0  0  0  0  0
    9.5530   -3.7470   26.4490 C   0  0  0  0  0  0  0  0  0  0  0  0
    8.4640   -3.1380   25.9230 C   0  0  0  0  0  0  0  0  0  0  0  0
    7.1750   -3.5660   26.1040 C   0  0  0  0  0  0  0  0  0  0  0  0
  3  4  2  0
  4  5  1  0
  1  7  2  0
  2  7  2  0
  6  8  1  0
  8  9  2  0
  6 10  1  0
  6 11  1  0
  7 12  1  6
 11 12  2  0
 12 13  1  0
 13 14  2  0
 14 15  1  0
 11 16  1  0
 15 16  2  0
  4 17  1  0
 17 18  1  0
 18 19  1  0
  7 20  1  0
 19 20  1  0
 20 21  1  0
 17 22  1  0
 21 22  1  0
  1 23  1  0
 23 24  2  0
 24 25  1  0
 25 26  2  0
 26 27  1  0
 23 28  1  0
 27 28  2  0
M  END
