x0769-x2703
     RDKit          3D

 50 56  0  0  0  0  0  0  0  0999 V2000
    6.7270   -1.5390   22.0920 N   0  0  0  0  0  0  0  0  0  0  0  0
    6.6830   -4.6270   20.3710 C   0  0  2  0  0  0  0  0  0  0  0  0
    4.7250   -2.9590   21.3560 O   0  0  0  0  0  0  0  0  0  0  0  0
    6.8380   -3.8440   21.5990 C   0  0  2  0  0  0  0  0  0  0  0  0
    7.3220    1.8130   22.7490 N   0  0  0  0  0  0  0  0  0  0  0  0
    8.7720    0.5350   21.4890 O   0  0  0  0  0  0  0  0  0  0  0  0
    5.9560   -2.7190   21.6700 C   0  0  0  0  0  0  0  0  0  0  0  0
    6.4590   -0.1690   21.5600 C   0  0  1  0  0  0  0  0  0  0  0  0
    7.6380    0.7220   21.9200 C   0  0  0  0  0  0  0  0  0  0  0  0
   10.0100    1.8880   23.9940 C   0  0  0  0  0  0  0  0  0  0  0  0
    9.0380    1.3690   25.0520 C   0  0  0  0  0  0  0  0  0  0  0  0
    6.1120    4.2290   21.7820 C   0  0  0  0  0  0  0  0  0  0  0  0
   12.1210   -2.1380   24.1100 C   0  0  0  0  0  0  0  0  0  0  0  0
   12.0630   -3.0880   25.1080 C   0  0  0  0  0  0  0  0  0  0  0  0
   12.7250   -0.8350   24.6750 C   0  0  0  0  0  0  0  0  0  0  0  0
    5.4210   -4.5950   19.7150 O   0  0  0  0  0  0  0  0  0  0  0  0
    5.9340   -5.2660   26.8680 O   0  0  0  0  0  0  0  0  0  0  0  0
    4.0600   -6.5770   25.9680 O   0  0  0  0  0  0  0  0  0  0  0  0
    5.6140   -2.2850   26.2730 F   0  0  0  0  0  0  0  0  0  0  0  0
    4.8810   -5.3240   25.7860 S   0  0  0  0  0  0  0  0  0  0  0  0
    6.3300    0.5920   17.7990 N   0  0  0  0  0  0  0  0  0  0  0  0
    5.1160    1.4340   17.6900 C   0  0  0  0  0  0  0  0  0  0  0  0
    4.3880    1.6840   18.8390 C   0  0  0  0  0  0  0  0  0  0  0  0
    4.7980    1.1570   20.1300 C   0  0  0  0  0  0  0  0  0  0  0  0
    6.0030    0.3490   20.2100 C   0  0  0  0  0  0  0  0  0  0  0  0
    6.6660    0.1320   19.0090 C   0  0  0  0  0  0  0  0  0  0  0  0
   10.5800   -1.9100   22.2570 N   0  0  0  0  0  0  0  0  0  0  0  0
   10.7160   -1.9820   23.5830 C   0  0  0  0  0  0  0  0  0  0  0  0
    9.6190   -1.9200   24.4560 C   0  0  0  0  0  0  0  0  0  0  0  0
    8.3520   -1.7810   23.9540 C   0  0  0  0  0  0  0  0  0  0  0  0
    8.1410   -1.7010   22.5930 C   0  0  0  0  0  0  0  0  0  0  0  0
    9.2900   -1.7720   21.8280 C   0  0  0  0  0  0  0  0  0  0  0  0
    9.3610    3.0670   23.5050 C   0  0  0  0  0  0  0  0  0  0  0  0
   10.0250    4.3050   23.6210 C   0  0  0  0  0  0  0  0  0  0  0  0
    9.4060    5.4580   23.1450 C   0  0  0  0  0  0  0  0  0  0  0  0
    8.1520    5.4200   22.5580 C   0  0  0  0  0  0  0  0  0  0  0  0
    7.4730    4.2070   22.4310 C   0  0  0  0  0  0  0  0  0  0  0  0
    8.0720    3.0190   22.9060 C   0  0  0  0  0  0  0  0  0  0  0  0
    4.3080   -2.5200   26.0980 C   0  0  0  0  0  0  0  0  0  0  0  0
    3.7950   -3.9390   25.8490 C   0  0  0  0  0  0  0  0  0  0  0  0
    2.2810   -4.0730   25.6660 C   0  0  0  0  0  0  0  0  0  0  0  0
    1.4840   -2.9430   25.7360 C   0  0  0  0  0  0  0  0  0  0  0  0
    1.9820   -1.5150   25.9860 C   0  0  0  0  0  0  0  0  0  0  0  0
    3.4580   -1.4100   26.1570 C   0  0  0  0  0  0  0  0  0  0  0  0
    6.7020   -5.3990   21.6450 C   0  0  1  0  0  0  0  0  0  0  0  0
    5.6190   -6.2080   22.0690 C   0  0  0  0  0  0  0  0  0  0  0  0
    4.8570   -5.5970   23.0270 C   0  0  0  0  0  0  0  0  0  0  0  0
    5.6410   -5.3570   24.2640 N   0  0  0  0  0  0  0  0  0  0  0  0
    6.8610   -4.5260   24.0750 C   0  0  0  0  0  0  0  0  0  0  0  0
    7.4420   -4.6300   22.6840 C   0  0  2  0  0  0  0  0  0  0  0  0
  2  4  1  0
  1  7  1  0
  3  7  2  0
  4  7  1  1
  1  8  1  0
  5  9  1  0
  6  9  2  0
  8  9  1  6
 10 11  1  0
 13 14  1  0
 13 15  1  0
  2 16  1  1
 17 20  2  0
 18 20  2  0
 21 22  2  0
 22 23  1  0
 23 24  2  0
  8 25  1  0
 24 25  1  0
 21 26  1  0
 25 26  2  0
 13 28  1  0
 27 28  2  0
 28 29  1  0
 29 30  2  0
  1 31  1  0
 30 31  1  0
 27 32  1  0
 31 32  2  0
 10 33  1  0
 33 34  2  0
 34 35  1  0
 35 36  2  0
 12 37  1  0
 36 37  1  0
  5 38  1  0
 33 38  1  0
 37 38  2  0
 19 39  1  0
 20 40  1  0
 39 40  2  0
 40 41  1  0
 41 42  2  0
 42 43  1  0
 39 44  1  0
 43 44  2  0
  2 45  1  0
  4 45  1  0
 45 46  1  1
 46 47  1  0
 20 48  1  0
 47 48  1  0
 48 49  1  0
  4 50  1  0
 45 50  1  0
 50 49  1  1
M  END
