x0769-x3077
     RDKit          3D

 30 33  0  0  0  0  0  0  0  0999 V2000
    5.7000   -5.0750   27.2470 O   0  0  0  0  0  0  0  0  0  0  0  0
    4.1380   -6.4910   25.9850 O   0  0  0  0  0  0  0  0  0  0  0  0
    5.7200   -5.1550   20.0110 O   0  0  0  0  0  0  0  0  0  0  0  0
    6.3610   -4.1950   20.4700 C   0  0  0  0  0  0  0  0  0  0  0  0
    7.1040   -3.2910   19.5510 C   0  0  0  0  0  0  0  0  0  0  0  0
    5.5850   -2.2710   26.3090 F   0  0  0  0  0  0  0  0  0  0  0  0
    4.9430   -5.2920   26.0380 S   0  0  0  0  0  0  0  0  0  0  0  0
   13.2630   -1.9200   21.1440 Cl  0  0  0  0  0  0  0  0  0  0  0  0
    8.9540   -2.3880   23.9890 C   0  0  0  0  0  0  0  0  0  0  0  0
    4.2790   -2.5270   26.1340 C   0  0  0  0  0  0  0  0  0  0  0  0
    3.8360   -3.9460   25.9860 C   0  0  0  0  0  0  0  0  0  0  0  0
    2.3140   -4.0630   25.7940 C   0  0  0  0  0  0  0  0  0  0  0  0
    1.4480   -2.8250   25.7760 C   0  0  0  0  0  0  0  0  0  0  0  0
    2.0640   -1.5920   25.9350 C   0  0  0  0  0  0  0  0  0  0  0  0
    3.4160   -1.4230   26.1050 C   0  0  0  0  0  0  0  0  0  0  0  0
    6.2240   -3.9840   21.9870 C   0  0  1  0  0  0  0  0  0  0  0  0
    5.3420   -4.9720   22.2740 C   0  0  0  0  0  0  0  0  0  0  0  0
    4.6330   -4.9360   23.4480 C   0  0  0  0  0  0  0  0  0  0  0  0
    5.6220   -5.1940   24.5090 N   0  0  0  0  0  0  0  0  0  0  0  0
    6.8680   -4.3930   24.3990 C   0  0  0  0  0  0  0  0  0  0  0  0
    7.3530   -4.1040   23.0280 C   0  0  2  0  0  0  0  0  0  0  0  0
    8.2000   -2.8730   22.8800 N   0  0  0  0  0  0  0  0  0  0  0  0
    7.2730   -1.9130   22.2600 C   0  0  0  0  0  0  0  0  0  0  0  0
    5.9580   -2.4820   22.2260 C   0  0  0  0  0  0  0  0  0  0  0  0
   10.4350   -0.3010   24.3340 C   0  0  0  0  0  0  0  0  0  0  0  0
   11.6170    0.3730   23.9310 C   0  0  0  0  0  0  0  0  0  0  0  0
   12.4670   -0.0950   22.9900 C   0  0  0  0  0  0  0  0  0  0  0  0
   12.2460   -1.2800   22.3340 C   0  0  0  0  0  0  0  0  0  0  0  0
   11.1030   -1.9400   22.7120 C   0  0  0  0  0  0  0  0  0  0  0  0
   10.1910   -1.5130   23.6760 C   0  0  0  0  0  0  0  0  0  0  0  0
  3  4  2  0
  4  5  1  0
  1  7  2  0
  2  7  2  0
  6 10  1  0
  7 11  1  0
 10 11  2  0
 11 12  1  0
 12 13  2  0
 13 14  1  0
 10 15  1  0
 14 15  2  0
 16  4  1  6
 16 17  1  0
 17 18  1  0
  7 19  1  0
 18 19  1  0
 19 20  1  0
 16 21  1  0
 21 20  1  1
  9 22  1  0
 21 22  1  0
 22 23  1  0
 16 24  1  0
 23 24  1  0
 25 26  2  0
 26 27  1  0
  8 28  1  0
 27 28  2  0
 28 29  1  0
  9 30  1  0
 25 30  1  0
 29 30  2  0
M  END
