x0769-x0946
     RDKit          3D

 34 36  0  0  0  0  0  0  0  0999 V2000
    5.7930   -5.1250   26.7610 O   0  0  0  0  0  0  0  0  0  0  0  0
    3.8150   -6.3890   25.9130 O   0  0  0  0  0  0  0  0  0  0  0  0
    5.7420   -4.0680   19.7690 O   0  0  0  0  0  0  0  0  0  0  0  0
    6.6270   -4.2160   20.6630 C   0  0  0  0  0  0  0  0  0  0  0  0
    8.0790   -3.9080   20.5080 C   0  0  0  0  0  0  0  0  0  0  0  0
    5.5270   -2.2790   26.1810 F   0  0  0  0  0  0  0  0  0  0  0  0
    4.6980   -5.2500   25.8150 S   0  0  0  0  0  0  0  0  0  0  0  0
    8.9770    5.4280   22.8070 N   0  0  0  0  0  0  0  0  0  0  0  0
   10.2460    5.6740   25.0380 O   0  0  0  0  0  0  0  0  0  0  0  0
   11.4280    6.2850   23.0720 O   0  0  0  0  0  0  0  0  0  0  0  0
   13.0090   -0.6480   23.0610 Se  0  0  0  0  0  2  0  0  0  0  0  0
   10.4690    5.2820   23.6630 S   0  0  0  0  0  0  0  0  0  0  0  0
    8.3980   -2.5660   21.0790 C   0  0  0  0  0  0  0  0  0  0  0  0
    9.7100   -2.6000   21.7900 C   0  0  0  0  0  0  0  0  0  0  0  0
   10.4750   -1.3570   22.0220 C   0  0  0  0  0  0  0  0  0  0  0  0
   11.9280   -1.8660   22.0380 C   0  0  0  0  0  0  0  0  0  0  0  0
    4.2110   -2.4980   26.0650 C   0  0  0  0  0  0  0  0  0  0  0  0
    3.6870   -3.8000   25.8940 C   0  0  0  0  0  0  0  0  0  0  0  0
    2.3260   -3.9900   25.7770 C   0  0  0  0  0  0  0  0  0  0  0  0
    1.4800   -2.9030   25.8290 C   0  0  0  0  0  0  0  0  0  0  0  0
    1.9940   -1.6790   25.9920 C   0  0  0  0  0  0  0  0  0  0  0  0
    3.3640   -1.4180   26.1150 C   0  0  0  0  0  0  0  0  0  0  0  0
    6.2830   -4.7140   21.9090 N   0  0  0  0  0  0  0  0  0  0  0  0
    5.7150   -6.0370   21.9940 C   0  0  0  0  0  0  0  0  0  0  0  0
    5.0010   -6.2220   23.2620 C   0  0  0  0  0  0  0  0  0  0  0  0
    5.4390   -5.2540   24.2920 N   0  0  0  0  0  0  0  0  0  0  0  0
    6.7610   -4.9210   24.2090 C   0  0  0  0  0  0  0  0  0  0  0  0
    7.1110   -4.5070   22.9310 C   0  0  0  0  0  0  0  0  0  0  0  0
   12.1820    1.0490   23.2620 C   0  0  0  0  0  0  0  0  0  0  0  0
   12.8810    2.1920   22.8740 C   0  0  0  0  0  0  0  0  0  0  0  0
   12.3590    3.4420   22.9880 C   0  0  0  0  0  0  0  0  0  0  0  0
   11.1020    3.6610   23.5080 C   0  0  0  0  0  0  0  0  0  0  0  0
   10.3910    2.5360   23.8990 C   0  0  0  0  0  0  0  0  0  0  0  0
   10.9330    1.2610   23.7720 C   0  0  0  0  0  0  0  0  0  0  0  0
  3  4  2  0
  4  5  1  0
  1  7  2  0
  2  7  2  0
 12  8  1  0
  9 12  2  0
 10 12  2  0
  5 13  1  0
 13 14  1  0
 14 15  1  0
 11 16  1  0
 15 16  1  0
  6 17  1  0
  7 18  1  0
 17 18  2  0
 18 19  1  0
 19 20  2  0
 20 21  1  0
 17 22  1  0
 21 22  2  0
  4 23  1  0
 23 24  1  0
 24 25  1  0
  7 26  1  0
 25 26  1  0
 26 27  1  0
 23 28  1  0
 27 28  1  0
 11 29  1  0
 29 30  2  0
 30 31  1  0
 12 32  1  0
 31 32  2  0
 32 33  1  0
 29 34  1  0
 33 34  2  0
M  END
