x0771-x2705-x0691-x0755
     RDKit          3D

 53 59  0  0  0  0  0  0  0  0999 V2000
    6.8530   -1.4340   21.9850 N   0  0  0  0  0  0  0  0  0  0  0  0
    6.7790   -4.4870   20.2680 C   0  0  2  0  0  0  0  0  0  0  0  0
    4.7530   -2.9740   21.3640 O   0  0  0  0  0  0  0  0  0  0  0  0
    6.9190   -3.7280   21.4930 C   0  0  2  0  0  0  0  0  0  0  0  0
    7.4020    1.9940   22.8730 N   0  0  0  0  0  0  0  0  0  0  0  0
    8.8160    0.8480   21.4490 O   0  0  0  0  0  0  0  0  0  0  0  0
    6.0310   -2.6550   21.6160 C   0  0  0  0  0  0  0  0  0  0  0  0
    6.5240   -0.0210   21.6160 C   0  0  1  0  0  0  0  0  0  0  0  0
    7.7040    0.9680   21.9750 C   0  0  0  0  0  0  0  0  0  0  0  0
   10.1050    2.0320   23.9900 C   0  0  0  0  0  0  0  0  0  0  0  0
    9.2540    1.2470   24.9800 C   0  0  0  0  0  0  0  0  0  0  0  0
    6.1330    4.5450   21.8840 C   0  0  0  0  0  0  0  0  0  0  0  0
   11.9820   -1.5590   23.2560 C   0  0  0  0  0  0  0  0  0  0  0  0
   12.5360   -0.2080   23.7670 C   0  0  0  0  0  0  0  0  0  0  0  0
   12.4640   -2.6070   24.2810 C   0  0  0  0  0  0  0  0  0  0  0  0
   12.6470   -1.8750   21.9030 C   0  0  0  0  0  0  0  0  0  0  0  0
    5.5240   -4.5030   19.6000 O   0  0  0  0  0  0  0  0  0  0  0  0
    0.5550   -1.4010   26.1810 C   0  0  0  0  0  0  0  0  0  0  0  0
    4.4400   -6.8230   25.6740 O   0  0  0  0  0  0  0  0  0  0  0  0
    6.0250   -5.1190   26.6130 O   0  0  0  0  0  0  0  0  0  0  0  0
    1.9190   -6.1360   25.2560 C   0  0  0  0  0  0  0  0  0  0  0  0
    5.0030   -5.4890   25.6600 S   0  0  0  0  0  0  0  0  0  0  0  0
    5.2370   -2.5580   26.2850 F   0  0  0  0  0  0  0  0  0  0  0  0
    3.2540   -0.7840   26.4980 F   0  0  0  0  0  0  0  0  0  0  0  0
    6.3650    0.3580   17.8880 N   0  0  0  0  0  0  0  0  0  0  0  0
    5.2080    1.0760   17.7850 C   0  0  0  0  0  0  0  0  0  0  0  0
    4.4190    1.4450   18.8420 C   0  0  0  0  0  0  0  0  0  0  0  0
    4.8440    1.0720   20.0950 C   0  0  0  0  0  0  0  0  0  0  0  0
    6.0220    0.3540   20.2640 C   0  0  0  0  0  0  0  0  0  0  0  0
    6.7450    0.0140   19.1250 C   0  0  0  0  0  0  0  0  0  0  0  0
    9.6740   -1.5380   24.2920 N   0  0  0  0  0  0  0  0  0  0  0  0
    8.3440   -1.5150   24.0870 N   0  0  0  0  0  0  0  0  0  0  0  0
    8.1630   -1.4970   22.6380 C   0  0  0  0  0  0  0  0  0  0  0  0
    9.5060   -1.5210   22.0920 C   0  0  0  0  0  0  0  0  0  0  0  0
   10.4410   -1.5420   23.1570 C   0  0  0  0  0  0  0  0  0  0  0  0
    9.4020    3.2780   23.4960 C   0  0  0  0  0  0  0  0  0  0  0  0
   10.0920    4.5070   23.5920 C   0  0  0  0  0  0  0  0  0  0  0  0
    9.5100    5.6960   23.1490 C   0  0  0  0  0  0  0  0  0  0  0  0
    8.2290    5.6680   22.6030 C   0  0  0  0  0  0  0  0  0  0  0  0
    7.5090    4.4570   22.4940 C   0  0  0  0  0  0  0  0  0  0  0  0
    8.0940    3.2460   22.9480 C   0  0  0  0  0  0  0  0  0  0  0  0
    1.6300   -2.4300   26.0340 C   0  0  0  0  0  0  0  0  0  0  0  0
    1.3190   -3.7590   25.7220 C   0  0  0  0  0  0  0  0  0  0  0  0
    2.3270   -4.7270   25.5940 C   0  0  0  0  0  0  0  0  0  0  0  0
    3.6630   -4.3270   25.7910 C   0  0  0  0  0  0  0  0  0  0  0  0
    3.9800   -2.9900   26.0970 C   0  0  0  0  0  0  0  0  0  0  0  0
    2.9590   -2.0630   26.2100 C   0  0  0  0  0  0  0  0  0  0  0  0
    6.8390   -5.3050   21.4910 C   0  0  1  0  0  0  0  0  0  0  0  0
    5.7610   -6.2160   21.8890 C   0  0  0  0  0  0  0  0  0  0  0  0
    4.8100   -5.6460   22.9340 C   0  0  0  0  0  0  0  0  0  0  0  0
    5.5700   -5.1110   24.0940 N   0  0  0  0  0  0  0  0  0  0  0  0
    7.0040   -4.7630   23.9450 C   0  0  0  0  0  0  0  0  0  0  0  0
    7.5110   -4.5430   22.5600 C   0  0  2  0  0  0  0  0  0  0  0  0
  2  4  1  0
  1  7  1  0
  3  7  2  0
  4  7  1  1
  1  8  1  0
  5  9  1  0
  6  9  2  0
  8  9  1  6
 10 11  1  0
 13 14  1  0
 13 15  1  0
 13 16  1  0
  2 17  1  1
 19 22  2  0
 20 22  2  0
 25 26  2  0
 26 27  1  0
 27 28  2  0
  8 29  1  0
 28 29  1  0
 25 30  1  0
 29 30  2  0
 31 32  1  0
  1 33  1  0
 32 33  2  0
 33 34  1  0
 13 35  1  0
 31 35  1  0
 34 35  2  0
 10 36  1  0
 36 37  2  0
 37 38  1  0
 38 39  2  0
 12 40  1  0
 39 40  1  0
  5 41  1  0
 36 41  1  0
 40 41  2  0
 18 42  1  0
 42 43  2  0
 21 44  1  0
 43 44  1  0
 22 45  1  0
 44 45  2  0
 23 46  1  0
 45 46  1  0
 24 47  1  0
 42 47  1  0
 46 47  2  0
  2 48  1  0
  4 48  1  0
 48 49  1  1
 49 50  1  0
 22 51  1  0
 50 51  1  0
 51 52  1  0
  4 53  1  0
 48 53  1  0
 53 52  1  1
M  END
