x0771-x2705-x3117-x2908
     RDKit          3D

 53 59  0  0  0  0  0  0  0  0999 V2000
    6.8780   -1.3990   22.0020 N   0  0  0  0  0  0  0  0  0  0  0  0
    6.8580   -4.5010   20.3490 C   0  0  2  0  0  0  0  0  0  0  0  0
    4.8350   -3.0250   21.3010 O   0  0  0  0  0  0  0  0  0  0  0  0
    7.1190   -3.6960   21.5000 C   0  0  2  0  0  0  0  0  0  0  0  0
    7.4970    1.9680   22.8570 N   0  0  0  0  0  0  0  0  0  0  0  0
    8.6350    1.1890   21.0420 O   0  0  0  0  0  0  0  0  0  0  0  0
    6.1390   -2.6460   21.5930 C   0  0  0  0  0  0  0  0  0  0  0  0
    6.5390   -0.0060   21.5510 C   0  0  1  0  0  0  0  0  0  0  0  0
    7.6540    1.0850   21.8050 C   0  0  0  0  0  0  0  0  0  0  0  0
   10.1590    2.0610   23.9790 C   0  0  0  0  0  0  0  0  0  0  0  0
    9.3070    1.2130   24.9240 C   0  0  0  0  0  0  0  0  0  0  0  0
    6.1520    4.5260   21.8820 C   0  0  0  0  0  0  0  0  0  0  0  0
   11.9800   -1.5530   23.2560 C   0  0  0  0  0  0  0  0  0  0  0  0
   12.5610   -0.2260   23.8200 C   0  0  0  0  0  0  0  0  0  0  0  0
   12.4650   -2.7530   24.1180 C   0  0  0  0  0  0  0  0  0  0  0  0
   12.5840   -1.7650   21.8500 C   0  0  0  0  0  0  0  0  0  0  0  0
   13.4150   -2.5160   25.2650 C   0  0  0  0  0  0  0  0  0  0  0  0
    5.5780   -4.3930   19.7300 O   0  0  0  0  0  0  0  0  0  0  0  0
    0.6700   -1.4140   26.0300 C   0  0  0  0  0  0  0  0  0  0  0  0
    4.4410   -6.8900   25.9300 O   0  0  0  0  0  0  0  0  0  0  0  0
    6.0500   -5.1520   26.7640 O   0  0  0  0  0  0  0  0  0  0  0  0
    1.9780   -6.1070   24.9440 C   0  0  0  0  0  0  0  0  0  0  0  0
    5.0540   -5.5860   25.8120 S   0  0  0  0  0  0  0  0  0  0  0  0
    3.8480    1.4480   21.1970 C   0  0  0  0  0  0  0  0  0  0  0  0
    6.3740    0.4570   17.8590 N   0  0  0  0  0  0  0  0  0  0  0  0
    5.2170    1.1110   17.7530 C   0  0  0  0  0  0  0  0  0  0  0  0
    4.4010    1.4250   18.8100 C   0  0  0  0  0  0  0  0  0  0  0  0
    4.7750    1.0680   20.0910 C   0  0  0  0  0  0  0  0  0  0  0  0
    5.9640    0.4080   20.2430 C   0  0  0  0  0  0  0  0  0  0  0  0
    6.7260    0.1160   19.1010 C   0  0  0  0  0  0  0  0  0  0  0  0
    9.7290   -1.5850   24.3060 N   0  0  0  0  0  0  0  0  0  0  0  0
    8.4280   -1.5500   23.9490 N   0  0  0  0  0  0  0  0  0  0  0  0
    8.1930   -1.4780   22.6030 C   0  0  0  0  0  0  0  0  0  0  0  0
    9.5350   -1.4770   22.0690 C   0  0  0  0  0  0  0  0  0  0  0  0
   10.4430   -1.5380   23.1740 C   0  0  0  0  0  0  0  0  0  0  0  0
    9.4340    3.2980   23.5010 C   0  0  0  0  0  0  0  0  0  0  0  0
   10.1020    4.5210   23.6240 C   0  0  0  0  0  0  0  0  0  0  0  0
    9.5010    5.7030   23.1980 C   0  0  0  0  0  0  0  0  0  0  0  0
    8.2160    5.6790   22.6350 C   0  0  0  0  0  0  0  0  0  0  0  0
    7.5220    4.4490   22.5020 C   0  0  0  0  0  0  0  0  0  0  0  0
    8.1340    3.2490   22.9440 C   0  0  0  0  0  0  0  0  0  0  0  0
    1.7360   -2.4710   25.9570 C   0  0  0  0  0  0  0  0  0  0  0  0
    1.4090   -3.7630   25.5030 C   0  0  0  0  0  0  0  0  0  0  0  0
    2.4090   -4.7530   25.4400 C   0  0  0  0  0  0  0  0  0  0  0  0
    3.7230   -4.4500   25.8300 C   0  0  0  0  0  0  0  0  0  0  0  0
    4.0330   -3.1730   26.2710 C   0  0  0  0  0  0  0  0  0  0  0  0
    3.0470   -2.1870   26.3350 C   0  0  0  0  0  0  0  0  0  0  0  0
    6.8710   -5.2790   21.6240 C   0  0  1  0  0  0  0  0  0  0  0  0
    5.8620   -6.3700   21.9310 C   0  0  0  0  0  0  0  0  0  0  0  0
    4.9620   -6.1080   23.1390 C   0  0  0  0  0  0  0  0  0  0  0  0
    5.7220   -5.4590   24.2570 N   0  0  0  0  0  0  0  0  0  0  0  0
    6.3990   -4.1910   23.9370 C   0  0  0  0  0  0  0  0  0  0  0  0
    7.2980   -4.4350   22.7670 C   0  0  2  0  0  0  0  0  0  0  0  0
  2  4  1  0
  1  7  1  0
  3  7  2  0
  4  7  1  1
  1  8  1  0
  5  9  1  0
  6  9  2  0
  8  9  1  6
 10 11  1  0
 13 14  1  0
 13 15  1  0
 13 16  1  0
 15 17  1  0
  2 18  1  1
 20 23  2  0
 21 23  2  0
 25 26  2  0
 26 27  1  0
 24 28  1  0
 27 28  2  0
  8 29  1  0
 28 29  1  0
 25 30  1  0
 29 30  2  0
 31 32  1  0
  1 33  1  0
 32 33  1  0
 33 34  2  0
 13 35  1  0
 31 35  2  0
 34 35  1  0
 10 36  1  0
 36 37  2  0
 37 38  1  0
 38 39  2  0
 12 40  1  0
 39 40  1  0
  5 41  1  0
 36 41  1  0
 40 41  2  0
 19 42  1  0
 42 43  2  0
 22 44  1  0
 43 44  1  0
 23 45  1  0
 44 45  2  0
 45 46  1  0
 42 47  1  0
 46 47  2  0
  2 48  1  0
  4 48  1  0
 48 49  1  1
 49 50  1  0
 23 51  1  0
 50 51  1  0
 51 52  1  0
  4 53  1  0
 48 53  1  0
 53 52  1  1
M  END
