x0771-x2705-x0786-x3117
     RDKit          3D

 58 65  0  0  0  0  0  0  0  0999 V2000
    6.8470   -1.4110   21.9520 N   0  0  0  0  0  0  0  0  0  0  0  0
    6.8220   -4.4290   20.2780 C   0  0  2  0  0  0  0  0  0  0  0  0
    4.7820   -2.9800   21.3130 O   0  0  0  0  0  0  0  0  0  0  0  0
    7.0030   -3.7060   21.5460 C   0  0  2  0  0  0  0  0  0  0  0  0
    7.4370    2.0480   22.8320 N   0  0  0  0  0  0  0  0  0  0  0  0
    8.6330    1.1810   21.0790 O   0  0  0  0  0  0  0  0  0  0  0  0
    6.0580   -2.6560   21.5900 C   0  0  0  0  0  0  0  0  0  0  0  0
    6.5100    0.0150   21.6000 C   0  0  1  0  0  0  0  0  0  0  0  0
    7.6340    1.1240   21.8260 C   0  0  0  0  0  0  0  0  0  0  0  0
   10.2070    2.0980   23.9950 C   0  0  0  0  0  0  0  0  0  0  0  0
    9.3530    1.2210   24.9040 C   0  0  0  0  0  0  0  0  0  0  0  0
    6.1470    4.5710   21.8990 C   0  0  0  0  0  0  0  0  0  0  0  0
   11.9720   -1.5300   23.2250 C   0  0  0  0  0  0  0  0  0  0  0  0
   12.4910   -0.2220   23.8740 C   0  0  0  0  0  0  0  0  0  0  0  0
   12.3940   -2.7190   24.0960 C   0  0  0  0  0  0  0  0  0  0  0  0
   12.6650   -1.7300   21.8630 C   0  0  0  0  0  0  0  0  0  0  0  0
   13.3880   -2.4830   25.2130 C   0  0  0  0  0  0  0  0  0  0  0  0
    5.5550   -4.3170   19.6340 O   0  0  0  0  0  0  0  0  0  0  0  0
    0.6420   -1.3350   26.1540 C   0  0  0  0  0  0  0  0  0  0  0  0
    4.4780   -6.9170   25.7380 O   0  0  0  0  0  0  0  0  0  0  0  0
    5.9160   -5.1580   26.7830 O   0  0  0  0  0  0  0  0  0  0  0  0
    1.9270   -6.2660   25.5210 C   0  0  0  0  0  0  0  0  0  0  0  0
    4.9990   -5.5730   25.7480 S   0  0  0  0  0  0  0  0  0  0  0  0
    6.3060    0.4100   17.8480 N   0  0  0  0  0  0  0  0  0  0  0  0
    5.1730    1.1100   17.7540 C   0  0  0  0  0  0  0  0  0  0  0  0
    4.3980    1.4740   18.8150 C   0  0  0  0  0  0  0  0  0  0  0  0
    4.8240    1.1050   20.0590 C   0  0  0  0  0  0  0  0  0  0  0  0
    6.0190    0.3760   20.2440 C   0  0  0  0  0  0  0  0  0  0  0  0
    6.6970    0.0620   19.0810 C   0  0  0  0  0  0  0  0  0  0  0  0
    9.6180   -1.5600   24.2430 N   0  0  0  0  0  0  0  0  0  0  0  0
    8.2890   -1.5390   23.9710 N   0  0  0  0  0  0  0  0  0  0  0  0
    8.1430   -1.4790   22.6250 C   0  0  0  0  0  0  0  0  0  0  0  0
    9.4750   -1.4720   22.1240 C   0  0  0  0  0  0  0  0  0  0  0  0
   10.4360   -1.5190   23.1360 C   0  0  0  0  0  0  0  0  0  0  0  0
    9.4700    3.3290   23.5190 C   0  0  0  0  0  0  0  0  0  0  0  0
   10.1350    4.5770   23.6350 C   0  0  0  0  0  0  0  0  0  0  0  0
    9.5250    5.7870   23.2060 C   0  0  0  0  0  0  0  0  0  0  0  0
    8.2500    5.7770   22.6520 C   0  0  0  0  0  0  0  0  0  0  0  0
    7.5250    4.5210   22.5120 C   0  0  0  0  0  0  0  0  0  0  0  0
    8.1720    3.2630   22.9730 C   0  0  0  0  0  0  0  0  0  0  0  0
    1.7050   -2.3840   26.0500 C   0  0  0  0  0  0  0  0  0  0  0  0
    1.3270   -3.8360   25.8290 C   0  0  0  0  0  0  0  0  0  0  0  0
    2.3120   -4.8070   25.7350 C   0  0  0  0  0  0  0  0  0  0  0  0
    3.6450   -4.4200   25.8480 C   0  0  0  0  0  0  0  0  0  0  0  0
    4.0040   -3.0740   26.0520 C   0  0  0  0  0  0  0  0  0  0  0  0
    3.0470   -2.0600   26.1520 C   0  0  0  0  0  0  0  0  0  0  0  0
    6.8930   -5.1810   21.5720 C   0  0  1  0  0  0  0  0  0  0  0  0
    5.7720   -5.9550   21.9070 C   0  0  0  0  0  0  0  0  0  0  0  0
    4.9130   -5.3550   23.0130 C   0  0  0  0  0  0  0  0  0  0  0  0
    5.6500   -5.2090   24.2630 N   0  0  0  0  0  0  0  0  0  0  0  0
    7.0510   -4.9140   24.1100 C   0  0  0  0  0  0  0  0  0  0  0  0
    7.6080   -4.7040   22.7090 C   0  0  2  0  0  0  0  0  0  0  0  0
    1.3920   -5.8230   23.2170 C   0  0  0  0  0  0  0  0  0  0  0  0
    0.0390   -5.1720   23.5390 C   0  0  0  0  0  0  0  0  0  0  0  0
   -1.2680   -6.2620   24.2190 S   0  0  0  0  0  0  0  0  0  0  0  0
   -0.3880   -7.7800   24.7560 C   0  0  0  0  0  0  0  0  0  0  0  0
    0.9660   -7.9810   24.0870 C   0  0  0  0  0  0  0  0  0  0  0  0
    1.7690   -6.7690   24.2530 N   0  0  0  0  0  0  0  0  0  0  0  0
  2  4  1  0
  1  7  1  0
  3  7  2  0
  4  7  1  1
  1  8  1  0
  5  9  1  0
  6  9  2  0
  8  9  1  6
 10 11  1  0
 13 14  1  0
 13 15  1  0
 13 16  1  0
 15 17  1  0
  2 18  1  1
 20 23  2  0
 21 23  2  0
 24 25  2  0
 25 26  1  0
 26 27  2  0
  8 28  1  0
 27 28  1  0
 24 29  1  0
 28 29  2  0
 30 31  1  0
  1 32  1  0
 31 32  2  0
 32 33  1  0
 13 34  1  0
 30 34  1  0
 33 34  2  0
 10 35  1  0
 35 36  2  0
 36 37  1  0
 37 38  2  0
 12 39  1  0
 38 39  1  0
  5 40  1  0
 35 40  1  0
 39 40  2  0
 19 41  1  0
 41 42  2  0
 22 43  1  0
 42 43  1  0
 23 44  1  0
 43 44  2  0
 44 45  1  0
 41 46  1  0
 45 46  2  0
  2 47  1  0
  4 47  1  0
 47 48  1  1
 48 49  1  0
 23 50  1  0
 49 50  1  0
 50 51  1  0
  4 52  1  0
 47 52  1  0
 52 51  1  1
 53 54  1  0
 54 55  1  0
 55 56  1  0
 56 57  1  0
 22 58  1  0
 53 58  1  0
 57 58  1  0
M  END
