x0771-x0691
     RDKit          3D

 21 22  0  0  0  0  0  0  0  0999 V2000
    0.7140   -1.2560   26.1020 C   0  0  0  0  0  0  0  0  0  0  0  0
    4.5270   -6.9390   25.7620 O   0  0  0  0  0  0  0  0  0  0  0  0
    5.9530   -5.1530   26.7900 O   0  0  0  0  0  0  0  0  0  0  0  0
    5.3020   -4.5500   19.9100 O   0  0  0  0  0  0  0  0  0  0  0  0
    2.1340   -6.2970   25.1930 C   0  0  0  0  0  0  0  0  0  0  0  0
    6.3960   -4.2500   20.4370 C   0  0  0  0  0  0  0  0  0  0  0  0
    7.3040   -3.3250   19.7180 C   0  0  0  0  0  0  0  0  0  0  0  0
    5.0310   -5.5860   25.7680 S   0  0  0  0  0  0  0  0  0  0  0  0
    3.4620   -0.8640   26.5050 F   0  0  0  0  0  0  0  0  0  0  0  0
    1.7150   -2.3620   25.9810 C   0  0  0  0  0  0  0  0  0  0  0  0
    1.2530   -3.7770   25.6150 C   0  0  0  0  0  0  0  0  0  0  0  0
    2.3460   -4.8370   25.5330 C   0  0  0  0  0  0  0  0  0  0  0  0
    3.6630   -4.4330   25.7990 C   0  0  0  0  0  0  0  0  0  0  0  0
    4.0000   -3.1340   26.1110 C   0  0  0  0  0  0  0  0  0  0  0  0
    3.0630   -2.1060   26.2010 C   0  0  0  0  0  0  0  0  0  0  0  0
    6.7310   -4.8230   21.6920 N   0  0  0  0  0  0  0  0  0  0  0  0
    6.0610   -6.1080   22.0250 C   0  0  0  0  0  0  0  0  0  0  0  0
    5.1490   -5.9910   23.0830 C   0  0  0  0  0  0  0  0  0  0  0  0
    5.7800   -5.3360   24.2600 N   0  0  0  0  0  0  0  0  0  0  0  0
    6.2650   -3.9750   23.9170 C   0  0  0  0  0  0  0  0  0  0  0  0
    7.2100   -3.9760   22.7920 C   0  0  0  0  0  0  0  0  0  0  0  0
  4  6  2  0
  6  7  1  0
  2  8  2  0
  3  8  2  0
  1 10  1  0
 10 11  2  0
  5 12  1  0
 11 12  1  0
  8 13  1  0
 12 13  2  0
 13 14  1  0
  9 15  1  0
 10 15  1  0
 14 15  2  0
  6 16  1  0
 16 17  1  0
 17 18  1  0
  8 19  1  0
 18 19  1  0
 19 20  1  0
 16 21  1  0
 20 21  1  0
M  END
