x0771-x2705-x2776-x2643
     RDKit          3D

 54 60  0  0  0  0  0  0  0  0999 V2000
    6.8880   -1.3700   21.8860 N   0  0  0  0  0  0  0  0  0  0  0  0
    6.8240   -4.5340   20.3580 C   0  0  2  0  0  0  0  0  0  0  0  0
    4.8410   -3.0020   21.2380 O   0  0  0  0  0  0  0  0  0  0  0  0
    7.0900   -3.7350   21.6100 C   0  0  2  0  0  0  0  0  0  0  0  0
    7.4290    2.1180   22.7720 N   0  0  0  0  0  0  0  0  0  0  0  0
    8.6950    1.2190   21.1040 O   0  0  0  0  0  0  0  0  0  0  0  0
    6.1330   -2.6200   21.5570 C   0  0  0  0  0  0  0  0  0  0  0  0
    6.5400    0.0620   21.5580 C   0  0  1  0  0  0  0  0  0  0  0  0
    7.6680    1.1660   21.7930 C   0  0  0  0  0  0  0  0  0  0  0  0
   10.1550    1.9440   23.9760 C   0  0  0  0  0  0  0  0  0  0  0  0
    9.2680    1.1790   24.9720 C   0  0  0  0  0  0  0  0  0  0  0  0
    6.3410    4.7020   21.9900 C   0  0  0  0  0  0  0  0  0  0  0  0
   11.9750   -1.5470   23.2990 C   0  0  0  0  0  0  0  0  0  0  0  0
   12.5010   -0.2410   23.9410 C   0  0  0  0  0  0  0  0  0  0  0  0
   12.4050   -2.7530   24.1720 C   0  0  0  0  0  0  0  0  0  0  0  0
   12.6980   -1.6890   21.9390 C   0  0  0  0  0  0  0  0  0  0  0  0
   13.4360   -2.5360   25.2590 C   0  0  0  0  0  0  0  0  0  0  0  0
   10.4010    6.8030   23.6090 O   0  0  0  0  0  0  0  0  0  0  0  0
   11.5440    6.7660   24.4780 C   0  0  0  0  0  0  0  0  0  0  0  0
    5.5950   -4.3320   19.6750 O   0  0  0  0  0  0  0  0  0  0  0  0
    0.5620   -1.4750   26.2370 C   0  0  0  0  0  0  0  0  0  0  0  0
    4.2920   -7.1470   25.7330 O   0  0  0  0  0  0  0  0  0  0  0  0
    5.9870   -5.3480   26.7640 O   0  0  0  0  0  0  0  0  0  0  0  0
    1.9660   -6.0890   25.0120 C   0  0  0  0  0  0  0  0  0  0  0  0
    5.0090   -5.6870   25.7610 S   0  0  0  0  0  0  0  0  0  0  0  0
    6.3170    0.4320   17.8370 N   0  0  0  0  0  0  0  0  0  0  0  0
    5.1650    1.1040   17.7510 C   0  0  0  0  0  0  0  0  0  0  0  0
    4.3280    1.4770   18.8900 C   0  0  0  0  0  0  0  0  0  0  0  0
    4.7890    1.1120   20.1200 C   0  0  0  0  0  0  0  0  0  0  0  0
    5.9950    0.4260   20.2190 C   0  0  0  0  0  0  0  0  0  0  0  0
    6.7070    0.1060   19.0760 C   0  0  0  0  0  0  0  0  0  0  0  0
    9.5950   -1.4900   24.2350 N   0  0  0  0  0  0  0  0  0  0  0  0
    8.2770   -1.4510   23.9110 N   0  0  0  0  0  0  0  0  0  0  0  0
    8.1930   -1.4350   22.5640 C   0  0  0  0  0  0  0  0  0  0  0  0
    9.5330   -1.4720   22.1010 C   0  0  0  0  0  0  0  0  0  0  0  0
   10.4430   -1.5050   23.1680 C   0  0  0  0  0  0  0  0  0  0  0  0
    9.5020    3.2390   23.5540 C   0  0  0  0  0  0  0  0  0  0  0  0
   10.3030    4.3990   23.7900 C   0  0  0  0  0  0  0  0  0  0  0  0
    9.7430    5.6070   23.4240 C   0  0  0  0  0  0  0  0  0  0  0  0
    8.4670    5.6800   22.8440 C   0  0  0  0  0  0  0  0  0  0  0  0
    7.6990    4.5360   22.6180 C   0  0  0  0  0  0  0  0  0  0  0  0
    8.2160    3.2980   22.9820 C   0  0  0  0  0  0  0  0  0  0  0  0
    1.6790   -2.4690   26.1220 C   0  0  0  0  0  0  0  0  0  0  0  0
    1.4040   -3.7620   25.6500 C   0  0  0  0  0  0  0  0  0  0  0  0
    2.3950   -4.7430   25.5300 C   0  0  0  0  0  0  0  0  0  0  0  0
    3.7270   -4.4470   25.8910 C   0  0  0  0  0  0  0  0  0  0  0  0
    4.0790   -3.0720   26.3950 C   0  0  0  0  0  0  0  0  0  0  0  0
    2.9710   -2.0990   26.4900 C   0  0  0  0  0  0  0  0  0  0  0  0
    6.8970   -5.3150   21.6400 C   0  0  1  0  0  0  0  0  0  0  0  0
    5.9080   -6.3850   21.9670 C   0  0  0  0  0  0  0  0  0  0  0  0
    4.9410   -6.0360   23.0940 C   0  0  0  0  0  0  0  0  0  0  0  0
    5.6940   -5.4940   24.2490 N   0  0  0  0  0  0  0  0  0  0  0  0
    6.4320   -4.2550   23.9910 C   0  0  0  0  0  0  0  0  0  0  0  0
    7.3250   -4.4840   22.8150 C   0  0  2  0  0  0  0  0  0  0  0  0
  2  4  1  0
  1  7  1  0
  3  7  2  0
  4  7  1  1
  1  8  1  0
  5  9  1  0
  6  9  2  0
  8  9  1  6
 10 11  1  0
 13 14  1  0
 13 15  1  0
 13 16  1  0
 15 17  1  0
 18 19  1  0
  2 20  1  1
 22 25  2  0
 23 25  2  0
 26 27  2  0
 27 28  1  0
 28 29  2  0
  8 30  1  0
 29 30  1  0
 26 31  1  0
 30 31  2  0
 32 33  1  0
  1 34  1  0
 33 34  2  0
 34 35  1  0
 13 36  1  0
 32 36  1  0
 35 36  2  0
 10 37  1  0
 37 38  2  0
 18 39  1  0
 38 39  1  0
 39 40  2  0
 12 41  1  0
 40 41  1  0
  5 42  1  0
 37 42  1  0
 41 42  2  0
 21 43  1  0
 43 44  2  0
 24 45  1  0
 44 45  1  0
 25 46  1  0
 45 46  2  0
 46 47  1  0
 43 48  1  0
 47 48  2  0
  2 49  1  0
  4 49  1  0
 49 50  1  1
 50 51  1  0
 25 52  1  0
 51 52  1  0
 52 53  1  0
  4 54  1  0
 49 54  1  0
 54 53  1  1
M  END
