x0770-x0161
     RDKit          3D

 28 30  0  0  0  0  0  0  0  0999 V2000
   13.3450   -1.7980   24.5920 C   0  0  0  0  0  0  0  0  0  0  0  0
   13.3480   -0.5660   24.3880 O   0  0  0  0  0  0  0  0  0  0  0  0
   13.4980   -0.2060   22.9980 C   0  0  0  0  0  0  0  0  0  0  0  0
   13.2700   -0.2130   21.8350 O   0  0  0  0  0  0  0  0  0  0  0  0
   10.5260    4.9520   23.5930 S   0  0  0  0  0  0  0  0  0  0  0  0
   11.4600    5.8260   22.9220 O   0  0  0  0  0  0  0  0  0  0  0  0
   10.0160    5.3300   24.8930 O   0  0  0  0  0  0  0  0  0  0  0  0
    9.1540    4.9020   22.6220 N   0  0  0  0  0  0  0  0  0  0  0  0
    7.1770   -2.9790   18.8190 C   0  0  0  0  0  0  0  0  0  0  0  0
    5.2620   -4.2800   19.7740 O   0  0  0  0  0  0  0  0  0  0  0  0
    6.1770   -3.4280   19.8280 C   0  0  0  0  0  0  0  0  0  0  0  0
    9.0120   -2.4360   24.1350 C   0  0  0  0  0  0  0  0  0  0  0  0
   11.8570    0.4610   23.3840 C   0  0  0  0  0  0  0  0  0  0  0  0
   12.8370    1.6060   23.0610 C   0  0  0  0  0  0  0  0  0  0  0  0
   12.3520    2.9430   23.1410 C   0  0  0  0  0  0  0  0  0  0  0  0
   11.0730    3.3220   23.5040 C   0  0  0  0  0  0  0  0  0  0  0  0
   10.2430    2.2450   23.7910 C   0  0  0  0  0  0  0  0  0  0  0  0
   10.5780    0.9140   23.7330 C   0  0  0  0  0  0  0  0  0  0  0  0
    6.4240   -2.7200   20.9950 N   0  0  0  0  0  0  0  0  0  0  0  0
    7.3080   -1.6380   21.0960 C   0  0  0  0  0  0  0  0  0  0  0  0
    8.4660   -1.7660   21.8470 C   0  0  0  0  0  0  0  0  0  0  0  0
    8.0780   -2.4160   23.1180 N   0  0  0  0  0  0  0  0  0  0  0  0
    7.3500   -3.6900   23.0010 C   0  0  0  0  0  0  0  0  0  0  0  0
    6.1180   -3.4220   22.2540 C   0  0  0  0  0  0  0  0  0  0  0  0
    9.6450   -0.0140   24.0090 C   0  0  0  0  0  0  0  0  0  0  0  0
   12.4230   -1.0590   23.2610 C   0  0  0  0  0  0  0  0  0  0  0  0
   11.2260   -1.7490   23.5600 C   0  0  0  0  0  0  0  0  0  0  0  0
   10.0000   -1.3150   23.8970 C   0  0  0  0  0  0  0  0  0  0  0  0
  1  2  1  0
  2  3  1  0
  3  4  2  0
  5  6  2  0
  5  7  2  0
  5  8  1  0
  9 11  1  0
 10 11  2  0
 13 14  2  0
 14 15  1  0
  5 16  1  0
 15 16  2  0
 16 17  1  0
 13 18  1  0
 17 18  2  0
 11 19  1  0
 19 20  1  0
 20 21  1  0
 12 22  1  0
 21 22  1  0
 22 23  1  0
 19 24  1  0
 23 24  1  0
 18 25  1  0
  3 26  1  0
 13 26  1  0
 26 27  2  0
 12 28  1  0
 25 28  2  0
 27 28  1  0
M  END
