x0771-x2705-x2649-x2643
     RDKit          3D

 52 58  0  0  0  0  0  0  0  0999 V2000
    6.8650   -1.3660   21.9420 N   0  0  0  0  0  0  0  0  0  0  0  0
    6.7450   -4.5140   20.2850 C   0  0  2  0  0  0  0  0  0  0  0  0
    4.7320   -2.9310   21.3440 O   0  0  0  0  0  0  0  0  0  0  0  0
    6.8490   -3.6900   21.4750 C   0  0  2  0  0  0  0  0  0  0  0  0
    7.5490    2.0980   22.8600 N   0  0  0  0  0  0  0  0  0  0  0  0
    8.6700    1.3330   21.1110 O   0  0  0  0  0  0  0  0  0  0  0  0
    6.0190   -2.5830   21.5960 C   0  0  0  0  0  0  0  0  0  0  0  0
    6.5770    0.0770   21.5810 C   0  0  1  0  0  0  0  0  0  0  0  0
    7.6710    1.1850   21.8410 C   0  0  0  0  0  0  0  0  0  0  0  0
   10.1880    2.0890   23.9790 C   0  0  0  0  0  0  0  0  0  0  0  0
    9.3520    1.2210   24.9190 C   0  0  0  0  0  0  0  0  0  0  0  0
    6.2070    4.5720   21.9120 C   0  0  0  0  0  0  0  0  0  0  0  0
   11.9950   -1.5730   23.2440 C   0  0  0  0  0  0  0  0  0  0  0  0
   12.5000   -0.1620   23.6470 C   0  0  0  0  0  0  0  0  0  0  0  0
   12.5090   -2.5850   24.3220 C   0  0  0  0  0  0  0  0  0  0  0  0
   12.6460   -1.9220   21.8820 C   0  0  0  0  0  0  0  0  0  0  0  0
    5.4900   -4.5300   19.6220 O   0  0  0  0  0  0  0  0  0  0  0  0
    0.5640   -1.3990   26.1220 C   0  0  0  0  0  0  0  0  0  0  0  0
    4.4140   -6.8950   25.5880 O   0  0  0  0  0  0  0  0  0  0  0  0
    5.9410   -5.2120   26.6670 O   0  0  0  0  0  0  0  0  0  0  0  0
    1.8870   -6.0630   24.9130 C   0  0  0  0  0  0  0  0  0  0  0  0
    4.9660   -5.5570   25.6610 S   0  0  0  0  0  0  0  0  0  0  0  0
    4.0820    1.4550   21.2780 C   0  0  0  0  0  0  0  0  0  0  0  0
    6.3200    0.3310   17.8340 N   0  0  0  0  0  0  0  0  0  0  0  0
    5.1590    1.0060   17.7810 C   0  0  0  0  0  0  0  0  0  0  0  0
    4.4210    1.3720   18.8630 C   0  0  0  0  0  0  0  0  0  0  0  0
    4.8980    1.0410   20.0960 C   0  0  0  0  0  0  0  0  0  0  0  0
    6.0980    0.3570   20.2050 C   0  0  0  0  0  0  0  0  0  0  0  0
    6.7730    0.0130   19.0510 C   0  0  0  0  0  0  0  0  0  0  0  0
    9.7170   -1.6840   24.2980 N   0  0  0  0  0  0  0  0  0  0  0  0
    8.4270   -1.6310   23.9190 N   0  0  0  0  0  0  0  0  0  0  0  0
    8.1980   -1.4800   22.5690 C   0  0  0  0  0  0  0  0  0  0  0  0
    9.5200   -1.4430   22.0660 C   0  0  0  0  0  0  0  0  0  0  0  0
   10.4330   -1.5670   23.1790 C   0  0  0  0  0  0  0  0  0  0  0  0
    9.5100    3.3670   23.5220 C   0  0  0  0  0  0  0  0  0  0  0  0
   10.1640    4.6100   23.6360 C   0  0  0  0  0  0  0  0  0  0  0  0
    9.5490    5.7880   23.2090 C   0  0  0  0  0  0  0  0  0  0  0  0
    8.2700    5.7410   22.6570 C   0  0  0  0  0  0  0  0  0  0  0  0
    7.5840    4.5170   22.5260 C   0  0  0  0  0  0  0  0  0  0  0  0
    8.2130    3.3360   22.9680 C   0  0  0  0  0  0  0  0  0  0  0  0
    1.6380   -2.4370   26.0060 C   0  0  0  0  0  0  0  0  0  0  0  0
    1.3290   -3.7250   25.5420 C   0  0  0  0  0  0  0  0  0  0  0  0
    2.3190   -4.7180   25.4210 C   0  0  0  0  0  0  0  0  0  0  0  0
    3.6360   -4.3850   25.7800 C   0  0  0  0  0  0  0  0  0  0  0  0
    3.9520   -3.1020   26.2430 C   0  0  0  0  0  0  0  0  0  0  0  0
    2.9540   -2.1320   26.3550 C   0  0  0  0  0  0  0  0  0  0  0  0
    6.8380   -5.1900   21.5910 C   0  0  1  0  0  0  0  0  0  0  0  0
    6.0960   -6.3730   21.9720 C   0  0  0  0  0  0  0  0  0  0  0  0
    4.9820   -5.9100   22.9350 C   0  0  0  0  0  0  0  0  0  0  0  0
    5.5550   -5.1450   24.1020 N   0  0  0  0  0  0  0  0  0  0  0  0
    7.0310   -4.8850   24.0520 C   0  0  0  0  0  0  0  0  0  0  0  0
    7.4390   -4.4300   22.6990 C   0  0  2  0  0  0  0  0  0  0  0  0
  2  4  1  0
  1  7  1  0
  3  7  2  0
  4  7  1  1
  1  8  1  0
  5  9  1  0
  6  9  2  0
  8  9  1  6
 10 11  1  0
 13 14  1  0
 13 15  1  0
 13 16  1  0
  2 17  1  1
 19 22  2  0
 20 22  2  0
 24 25  2  0
 25 26  1  0
 23 27  1  0
 26 27  2  0
  8 28  1  0
 27 28  1  0
 24 29  1  0
 28 29  2  0
 30 31  1  0
  1 32  1  0
 31 32  1  0
 32 33  2  0
 13 34  1  0
 30 34  2  0
 33 34  1  0
 10 35  1  0
 35 36  2  0
 36 37  1  0
 37 38  2  0
 12 39  1  0
 38 39  1  0
  5 40  1  0
 35 40  1  0
 39 40  2  0
 18 41  1  0
 41 42  2  0
 21 43  1  0
 42 43  1  0
 22 44  1  0
 43 44  2  0
 44 45  1  0
 41 46  1  0
 45 46  2  0
  2 47  1  0
  4 47  1  0
 47 48  1  1
 48 49  1  0
 22 50  1  0
 49 50  1  0
 50 51  1  0
  4 52  1  0
 47 52  1  0
 52 51  1  1
M  END
