x0771-x2705-x3117-x0755
     RDKit          3D

 53 59  0  0  0  0  0  0  0  0999 V2000
    7.0110   -1.3900   21.7330 N   0  0  0  0  0  0  0  0  0  0  0  0
    6.6750   -4.2620   20.2300 C   0  0  2  0  0  0  0  0  0  0  0  0
    4.9680   -3.2940   21.3820 O   0  0  0  0  0  0  0  0  0  0  0  0
    6.6900   -3.4180   21.4250 C   0  0  2  0  0  0  0  0  0  0  0  0
    7.6240    2.0440   22.8650 N   0  0  0  0  0  0  0  0  0  0  0  0
    8.8070    1.3100   21.1450 O   0  0  0  0  0  0  0  0  0  0  0  0
    5.8030   -2.2820   21.5630 C   0  0  0  0  0  0  0  0  0  0  0  0
    6.6940    0.0710   21.5060 C   0  0  1  0  0  0  0  0  0  0  0  0
    7.7790    1.1480   21.8350 C   0  0  0  0  0  0  0  0  0  0  0  0
   10.2470    2.1090   23.9550 C   0  0  0  0  0  0  0  0  0  0  0  0
    9.3740    1.2530   24.8670 C   0  0  0  0  0  0  0  0  0  0  0  0
    6.2100    4.5550   21.9470 C   0  0  0  0  0  0  0  0  0  0  0  0
   11.9580   -1.5920   23.2490 C   0  0  0  0  0  0  0  0  0  0  0  0
   12.4810   -0.2720   23.8580 C   0  0  0  0  0  0  0  0  0  0  0  0
   12.4850   -2.7590   24.0900 C   0  0  0  0  0  0  0  0  0  0  0  0
   12.5650   -1.7550   21.9050 C   0  0  0  0  0  0  0  0  0  0  0  0
   13.4020   -2.4360   25.2520 C   0  0  0  0  0  0  0  0  0  0  0  0
    5.4850   -4.2470   19.4620 O   0  0  0  0  0  0  0  0  0  0  0  0
    0.5250   -1.3920   26.2780 C   0  0  0  0  0  0  0  0  0  0  0  0
    4.5690   -6.7680   25.7040 O   0  0  0  0  0  0  0  0  0  0  0  0
    6.0050   -4.9400   26.6210 O   0  0  0  0  0  0  0  0  0  0  0  0
    1.9500   -6.0660   25.1070 C   0  0  0  0  0  0  0  0  0  0  0  0
    5.0340   -5.3990   25.6610 S   0  0  0  0  0  0  0  0  0  0  0  0
    5.2240   -2.6080   26.4600 F   0  0  0  0  0  0  0  0  0  0  0  0
    6.3470    0.3840   17.8170 N   0  0  0  0  0  0  0  0  0  0  0  0
    5.1990    1.0540   17.7640 C   0  0  0  0  0  0  0  0  0  0  0  0
    4.4100    1.4500   18.7940 C   0  0  0  0  0  0  0  0  0  0  0  0
    4.8430    1.1400   20.0720 C   0  0  0  0  0  0  0  0  0  0  0  0
    6.0500    0.4490   20.2110 C   0  0  0  0  0  0  0  0  0  0  0  0
    6.7560    0.0890   19.0500 C   0  0  0  0  0  0  0  0  0  0  0  0
    9.6620   -1.8260   24.2120 N   0  0  0  0  0  0  0  0  0  0  0  0
    8.3880   -1.7740   23.7740 N   0  0  0  0  0  0  0  0  0  0  0  0
    8.2570   -1.5340   22.4500 C   0  0  0  0  0  0  0  0  0  0  0  0
    9.5770   -1.4300   22.0050 C   0  0  0  0  0  0  0  0  0  0  0  0
   10.4240   -1.6140   23.1360 C   0  0  0  0  0  0  0  0  0  0  0  0
    9.5300    3.3610   23.5080 C   0  0  0  0  0  0  0  0  0  0  0  0
   10.1790    4.6030   23.6340 C   0  0  0  0  0  0  0  0  0  0  0  0
    9.5510    5.7800   23.2250 C   0  0  0  0  0  0  0  0  0  0  0  0
    8.2690    5.7290   22.6850 C   0  0  0  0  0  0  0  0  0  0  0  0
    7.5920    4.5000   22.5460 C   0  0  0  0  0  0  0  0  0  0  0  0
    8.2320    3.3120   22.9650 C   0  0  0  0  0  0  0  0  0  0  0  0
    1.5980   -2.4120   26.1050 C   0  0  0  0  0  0  0  0  0  0  0  0
    1.3090   -3.7210   25.6990 C   0  0  0  0  0  0  0  0  0  0  0  0
    2.3270   -4.6800   25.5450 C   0  0  0  0  0  0  0  0  0  0  0  0
    3.6560   -4.2920   25.8110 C   0  0  0  0  0  0  0  0  0  0  0  0
    3.9540   -2.9790   26.2140 C   0  0  0  0  0  0  0  0  0  0  0  0
    2.9220   -2.0730   26.3510 C   0  0  0  0  0  0  0  0  0  0  0  0
    6.5770   -4.9300   21.5240 C   0  0  1  0  0  0  0  0  0  0  0  0
    6.0170   -6.2010   21.9390 C   0  0  0  0  0  0  0  0  0  0  0  0
    4.9880   -5.9540   23.0390 C   0  0  0  0  0  0  0  0  0  0  0  0
    5.5770   -5.0590   24.0910 N   0  0  0  0  0  0  0  0  0  0  0  0
    7.0470   -4.6870   23.9140 C   0  0  0  0  0  0  0  0  0  0  0  0
    7.3630   -4.1680   22.5350 C   0  0  2  0  0  0  0  0  0  0  0  0
  2  4  1  0
  1  7  1  0
  3  7  2  0
  4  7  1  6
  1  8  1  0
  5  9  1  0
  6  9  2  0
  8  9  1  6
 10 11  1  0
 13 14  1  0
 13 15  1  0
 13 16  1  0
 15 17  1  0
  2 18  1  6
 20 23  2  0
 21 23  2  0
 25 26  2  0
 26 27  1  0
 27 28  2  0
  8 29  1  0
 28 29  1  0
 25 30  1  0
 29 30  2  0
 31 32  1  0
  1 33  1  0
 32 33  1  0
 33 34  2  0
 13 35  1  0
 31 35  2  0
 34 35  1  0
 10 36  1  0
 36 37  2  0
 37 38  1  0
 38 39  2  0
 12 40  1  0
 39 40  1  0
  5 41  1  0
 36 41  1  0
 40 41  2  0
 19 42  1  0
 42 43  2  0
 22 44  1  0
 43 44  1  0
 23 45  1  0
 44 45  2  0
 24 46  1  0
 45 46  1  0
 42 47  1  0
 46 47  2  0
  2 48  1  0
  4 48  1  0
 48 49  1  6
 49 50  1  0
 23 51  1  0
 50 51  1  0
 51 52  1  0
  4 53  1  0
 48 53  1  0
 53 52  1  1
M  END
