x0771-x2705-x0691-x0731
     RDKit          3D

 52 58  0  0  0  0  0  0  0  0999 V2000
    6.9000   -1.4180   21.9330 N   0  0  0  0  0  0  0  0  0  0  0  0
    6.7900   -4.4820   20.2880 C   0  0  2  0  0  0  0  0  0  0  0  0
    4.8170   -3.0030   21.2760 O   0  0  0  0  0  0  0  0  0  0  0  0
    7.0460   -3.7950   21.5250 C   0  0  2  0  0  0  0  0  0  0  0  0
    7.4090    1.9270   22.8690 N   0  0  0  0  0  0  0  0  0  0  0  0
    8.6860    0.8140   21.3620 O   0  0  0  0  0  0  0  0  0  0  0  0
    6.1180   -2.7030   21.5610 C   0  0  0  0  0  0  0  0  0  0  0  0
    6.4870   -0.0450   21.6340 C   0  0  1  0  0  0  0  0  0  0  0  0
    7.5920    0.9320   21.9760 C   0  0  0  0  0  0  0  0  0  0  0  0
   10.1010    1.9980   23.9840 C   0  0  0  0  0  0  0  0  0  0  0  0
    9.2550    1.1950   24.9640 C   0  0  0  0  0  0  0  0  0  0  0  0
    6.1110    4.4760   21.8750 C   0  0  0  0  0  0  0  0  0  0  0  0
   12.0080   -1.5410   23.2440 C   0  0  0  0  0  0  0  0  0  0  0  0
   12.5600   -0.2150   23.7770 C   0  0  0  0  0  0  0  0  0  0  0  0
   12.4710   -2.5780   24.2700 C   0  0  0  0  0  0  0  0  0  0  0  0
   12.6620   -1.8870   21.9470 C   0  0  0  0  0  0  0  0  0  0  0  0
    5.5130   -4.3430   19.6750 O   0  0  0  0  0  0  0  0  0  0  0  0
    0.6590   -1.4460   26.1230 C   0  0  0  0  0  0  0  0  0  0  0  0
    4.4240   -6.9300   25.8160 O   0  0  0  0  0  0  0  0  0  0  0  0
    6.0530   -5.2360   26.7110 O   0  0  0  0  0  0  0  0  0  0  0  0
    2.0000   -6.1380   25.2560 C   0  0  0  0  0  0  0  0  0  0  0  0
    5.0400   -5.6250   25.7540 S   0  0  0  0  0  0  0  0  0  0  0  0
    3.3430   -0.8720   26.5070 F   0  0  0  0  0  0  0  0  0  0  0  0
    6.3460    0.4430   17.7960 N   0  0  0  0  0  0  0  0  0  0  0  0
    5.2210    1.1870   17.7590 C   0  0  0  0  0  0  0  0  0  0  0  0
    4.4670    1.5390   18.8630 C   0  0  0  0  0  0  0  0  0  0  0  0
    4.8930    1.1050   20.1880 C   0  0  0  0  0  0  0  0  0  0  0  0
    6.0350    0.3610   20.2770 C   0  0  0  0  0  0  0  0  0  0  0  0
    6.7720    0.0220   18.9990 C   0  0  0  0  0  0  0  0  0  0  0  0
    9.7500   -1.5920   24.2940 N   0  0  0  0  0  0  0  0  0  0  0  0
    8.4520   -1.5630   23.9230 N   0  0  0  0  0  0  0  0  0  0  0  0
    8.2260   -1.4860   22.5620 C   0  0  0  0  0  0  0  0  0  0  0  0
    9.5590   -1.4740   22.0710 C   0  0  0  0  0  0  0  0  0  0  0  0
   10.4620   -1.5370   23.1720 C   0  0  0  0  0  0  0  0  0  0  0  0
    9.3870    3.2370   23.4870 C   0  0  0  0  0  0  0  0  0  0  0  0
   10.0660    4.4470   23.5850 C   0  0  0  0  0  0  0  0  0  0  0  0
    9.4720    5.6050   23.1440 C   0  0  0  0  0  0  0  0  0  0  0  0
    8.2120    5.5630   22.6080 C   0  0  0  0  0  0  0  0  0  0  0  0
    7.4830    4.3700   22.4870 C   0  0  0  0  0  0  0  0  0  0  0  0
    8.0730    3.2010   22.9340 C   0  0  0  0  0  0  0  0  0  0  0  0
    1.7070   -2.5030   25.9980 C   0  0  0  0  0  0  0  0  0  0  0  0
    1.3310   -3.8110   25.6750 C   0  0  0  0  0  0  0  0  0  0  0  0
    2.3660   -4.7250   25.5990 C   0  0  0  0  0  0  0  0  0  0  0  0
    3.7040   -4.3880   25.8300 C   0  0  0  0  0  0  0  0  0  0  0  0
    4.0550   -3.0840   26.1360 C   0  0  0  0  0  0  0  0  0  0  0  0
    3.0390   -2.1490   26.2140 C   0  0  0  0  0  0  0  0  0  0  0  0
    6.9600   -5.3300   21.6210 C   0  0  1  0  0  0  0  0  0  0  0  0
    5.8050   -6.0720   21.9070 C   0  0  0  0  0  0  0  0  0  0  0  0
    4.9690   -5.7860   22.9980 C   0  0  0  0  0  0  0  0  0  0  0  0
    5.7440   -5.4480   24.2080 N   0  0  0  0  0  0  0  0  0  0  0  0
    6.4840   -4.2190   23.9620 C   0  0  0  0  0  0  0  0  0  0  0  0
    7.3670   -4.4720   22.7450 C   0  0  2  0  0  0  0  0  0  0  0  0
  2  4  1  0
  1  7  1  0
  3  7  2  0
  4  7  1  1
  1  8  1  0
  5  9  1  0
  6  9  2  0
  8  9  1  6
 10 11  1  0
 13 14  1  0
 13 15  1  0
 13 16  1  0
  2 17  1  1
 19 22  2  0
 20 22  2  0
 24 25  2  0
 25 26  1  0
 26 27  2  0
  8 28  1  0
 27 28  1  0
 24 29  1  0
 28 29  2  0
 30 31  1  0
  1 32  1  0
 31 32  1  0
 32 33  2  0
 13 34  1  0
 30 34  2  0
 33 34  1  0
 10 35  1  0
 35 36  2  0
 36 37  1  0
 37 38  2  0
 12 39  1  0
 38 39  1  0
  5 40  1  0
 35 40  1  0
 39 40  2  0
 18 41  1  0
 41 42  2  0
 21 43  1  0
 42 43  1  0
 22 44  1  0
 43 44  2  0
 44 45  1  0
 23 46  1  0
 41 46  1  0
 45 46  2  0
  2 47  1  0
  4 47  1  0
 47 48  1  1
 48 49  1  0
 22 50  1  0
 49 50  1  0
 50 51  1  0
  4 52  1  0
 47 52  1  0
 52 51  1  1
M  END
