x0771-x2705-x0691-x0769
     RDKit          3D

 53 59  0  0  0  0  0  0  0  0999 V2000
    6.8990   -1.4150   21.9890 N   0  0  0  0  0  0  0  0  0  0  0  0
    6.8510   -4.4790   20.2600 C   0  0  2  0  0  0  0  0  0  0  0  0
    4.7980   -2.9870   21.2970 O   0  0  0  0  0  0  0  0  0  0  0  0
    7.0230   -3.6880   21.4420 C   0  0  2  0  0  0  0  0  0  0  0  0
    7.5100    2.0340   22.8470 N   0  0  0  0  0  0  0  0  0  0  0  0
    8.7170    1.2690   21.0600 O   0  0  0  0  0  0  0  0  0  0  0  0
    6.0900   -2.6300   21.5700 C   0  0  0  0  0  0  0  0  0  0  0  0
    6.6020    0.0280   21.5910 C   0  0  1  0  0  0  0  0  0  0  0  0
    7.7350    1.1530   21.7980 C   0  0  0  0  0  0  0  0  0  0  0  0
   10.1330    2.0940   23.9940 C   0  0  0  0  0  0  0  0  0  0  0  0
    9.2790    1.2610   24.9320 C   0  0  0  0  0  0  0  0  0  0  0  0
    6.1800    4.6290   21.8860 C   0  0  0  0  0  0  0  0  0  0  0  0
   11.9390   -1.5410   23.2210 C   0  0  0  0  0  0  0  0  0  0  0  0
   12.4690   -0.1470   23.6210 C   0  0  0  0  0  0  0  0  0  0  0  0
   12.4550   -2.5500   24.2580 C   0  0  0  0  0  0  0  0  0  0  0  0
   12.5720   -1.8970   21.8580 C   0  0  0  0  0  0  0  0  0  0  0  0
    5.5760   -4.3890   19.6310 O   0  0  0  0  0  0  0  0  0  0  0  0
    0.6420   -1.4750   26.1430 C   0  0  0  0  0  0  0  0  0  0  0  0
    4.4610   -6.9320   25.8220 O   0  0  0  0  0  0  0  0  0  0  0  0
    6.0490   -5.2130   26.7460 O   0  0  0  0  0  0  0  0  0  0  0  0
    1.9830   -6.1670   25.2840 C   0  0  0  0  0  0  0  0  0  0  0  0
    5.0630   -5.6140   25.7690 S   0  0  0  0  0  0  0  0  0  0  0  0
    3.3510   -0.8410   26.5130 F   0  0  0  0  0  0  0  0  0  0  0  0
    5.3250   -2.6600   26.3600 F   0  0  0  0  0  0  0  0  0  0  0  0
    6.2880    0.3120   17.8360 N   0  0  0  0  0  0  0  0  0  0  0  0
    5.1480    1.0110   17.7950 C   0  0  0  0  0  0  0  0  0  0  0  0
    4.4270    1.3930   18.8970 C   0  0  0  0  0  0  0  0  0  0  0  0
    4.8920    1.0580   20.1520 C   0  0  0  0  0  0  0  0  0  0  0  0
    6.0790    0.3450   20.2310 C   0  0  0  0  0  0  0  0  0  0  0  0
    6.7340   -0.0100   19.0580 C   0  0  0  0  0  0  0  0  0  0  0  0
    9.6790   -1.5590   24.2980 N   0  0  0  0  0  0  0  0  0  0  0  0
    8.3610   -1.5320   24.0000 N   0  0  0  0  0  0  0  0  0  0  0  0
    8.2000   -1.4810   22.6560 C   0  0  0  0  0  0  0  0  0  0  0  0
    9.4500   -1.4810   22.0700 C   0  0  0  0  0  0  0  0  0  0  0  0
   10.3690   -1.5300   23.2230 C   0  0  0  0  0  0  0  0  0  0  0  0
    9.4310    3.3500   23.5230 C   0  0  0  0  0  0  0  0  0  0  0  0
   10.1100    4.5830   23.6620 C   0  0  0  0  0  0  0  0  0  0  0  0
    9.5180    5.7670   23.2400 C   0  0  0  0  0  0  0  0  0  0  0  0
    8.2440    5.7350   22.6720 C   0  0  0  0  0  0  0  0  0  0  0  0
    7.5420    4.5160   22.5210 C   0  0  0  0  0  0  0  0  0  0  0  0
    8.1340    3.3070   22.9520 C   0  0  0  0  0  0  0  0  0  0  0  0
    1.7290   -2.4890   26.0270 C   0  0  0  0  0  0  0  0  0  0  0  0
    1.4040   -3.8000   25.7160 C   0  0  0  0  0  0  0  0  0  0  0  0
    2.4100   -4.7630   25.6210 C   0  0  0  0  0  0  0  0  0  0  0  0
    3.7460   -4.4040   25.8440 C   0  0  0  0  0  0  0  0  0  0  0  0
    4.0660   -3.0700   26.1440 C   0  0  0  0  0  0  0  0  0  0  0  0
    3.0490   -2.1160   26.2310 C   0  0  0  0  0  0  0  0  0  0  0  0
    6.9130   -5.1680   21.5860 C   0  0  1  0  0  0  0  0  0  0  0  0
    5.7260   -6.0920   21.8740 C   0  0  0  0  0  0  0  0  0  0  0  0
    4.8420   -5.7220   23.0580 C   0  0  0  0  0  0  0  0  0  0  0  0
    5.6990   -5.4400   24.2120 N   0  0  0  0  0  0  0  0  0  0  0  0
    6.5230   -4.2640   23.9700 C   0  0  0  0  0  0  0  0  0  0  0  0
    7.4210   -4.4980   22.7570 C   0  0  2  0  0  0  0  0  0  0  0  0
  2  4  1  0
  1  7  1  0
  3  7  2  0
  4  7  1  1
  1  8  1  0
  5  9  1  0
  6  9  2  0
  8  9  1  6
 10 11  1  0
 13 14  1  0
 13 15  1  0
 13 16  1  0
  2 17  1  1
 19 22  2  0
 20 22  2  0
 25 26  2  0
 26 27  1  0
 27 28  2  0
  8 29  1  0
 28 29  1  0
 25 30  1  0
 29 30  2  0
 31 32  1  0
  1 33  1  0
 32 33  1  0
 33 34  2  0
 13 35  1  0
 31 35  2  0
 34 35  1  0
 10 36  1  0
 36 37  2  0
 37 38  1  0
 38 39  2  0
 12 40  1  0
 39 40  1  0
  5 41  1  0
 36 41  1  0
 40 41  2  0
 18 42  1  0
 42 43  2  0
 21 44  1  0
 43 44  1  0
 22 45  1  0
 44 45  2  0
 24 46  1  0
 45 46  1  0
 23 47  1  0
 42 47  1  0
 46 47  2  0
  2 48  1  0
  4 48  1  0
 48 49  1  1
 49 50  1  0
 22 51  1  0
 50 51  1  0
 51 52  1  0
  4 53  1  0
 48 53  1  0
 53 52  1  1
M  END
