x0771-x2705-x2649-x2572
     RDKit          3D

 53 59  0  0  0  0  0  0  0  0999 V2000
    6.9070   -1.4170   21.9630 N   0  0  0  0  0  0  0  0  0  0  0  0
    6.7730   -4.5120   20.3810 C   0  0  2  0  0  0  0  0  0  0  0  0
    4.8010   -2.9720   21.2680 O   0  0  0  0  0  0  0  0  0  0  0  0
    6.9770   -3.7340   21.5830 C   0  0  2  0  0  0  0  0  0  0  0  0
    7.4650    2.0840   22.7910 N   0  0  0  0  0  0  0  0  0  0  0  0
    8.7770    1.2430   21.1040 O   0  0  0  0  0  0  0  0  0  0  0  0
    6.0870   -2.6280   21.5870 C   0  0  0  0  0  0  0  0  0  0  0  0
    6.6280    0.0330   21.5930 C   0  0  1  0  0  0  0  0  0  0  0  0
    7.7590    1.1610   21.7940 C   0  0  0  0  0  0  0  0  0  0  0  0
   10.2120    2.1180   23.9590 C   0  0  0  0  0  0  0  0  0  0  0  0
    9.3680    1.2260   24.8530 C   0  0  0  0  0  0  0  0  0  0  0  0
    6.1750    4.5200   21.9040 C   0  0  0  0  0  0  0  0  0  0  0  0
   12.0600   -1.5210   23.3050 C   0  0  0  0  0  0  0  0  0  0  0  0
   12.5840   -0.1820   23.8590 C   0  0  0  0  0  0  0  0  0  0  0  0
   12.4880   -2.6240   24.2790 C   0  0  0  0  0  0  0  0  0  0  0  0
   12.7700   -1.7590   21.9560 C   0  0  0  0  0  0  0  0  0  0  0  0
    5.5040   -4.3900   19.7420 O   0  0  0  0  0  0  0  0  0  0  0  0
    0.6240   -1.4370   26.0200 C   0  0  0  0  0  0  0  0  0  0  0  0
    4.4330   -6.9870   25.7940 O   0  0  0  0  0  0  0  0  0  0  0  0
    6.0480   -5.2880   26.7100 O   0  0  0  0  0  0  0  0  0  0  0  0
    2.0150   -6.0990   24.9320 C   0  0  0  0  0  0  0  0  0  0  0  0
    5.0540   -5.6790   25.7360 S   0  0  0  0  0  0  0  0  0  0  0  0
    3.8940    1.4270   21.2760 C   0  0  0  0  0  0  0  0  0  0  0  0
   13.3580   -1.9030   20.9650 N   0  0  0  0  0  0  0  0  0  0  0  0
    6.3260    0.3330   17.8350 N   0  0  0  0  0  0  0  0  0  0  0  0
    5.1510    0.9630   17.7910 C   0  0  0  0  0  0  0  0  0  0  0  0
    4.3560    1.3130   18.8780 C   0  0  0  0  0  0  0  0  0  0  0  0
    4.7900    1.0130   20.1500 C   0  0  0  0  0  0  0  0  0  0  0  0
    5.9920    0.3800   20.2950 C   0  0  0  0  0  0  0  0  0  0  0  0
    6.7580    0.0370   19.0470 C   0  0  0  0  0  0  0  0  0  0  0  0
    9.6850   -1.5240   24.2740 N   0  0  0  0  0  0  0  0  0  0  0  0
    8.3560   -1.5030   23.9830 N   0  0  0  0  0  0  0  0  0  0  0  0
    8.1870   -1.4690   22.6560 C   0  0  0  0  0  0  0  0  0  0  0  0
    9.5690   -1.4790   22.1370 C   0  0  0  0  0  0  0  0  0  0  0  0
   10.5220   -1.5100   23.1860 C   0  0  0  0  0  0  0  0  0  0  0  0
    9.4710    3.3540   23.4960 C   0  0  0  0  0  0  0  0  0  0  0  0
   10.1280    4.5750   23.6320 C   0  0  0  0  0  0  0  0  0  0  0  0
    9.5150    5.7590   23.2190 C   0  0  0  0  0  0  0  0  0  0  0  0
    8.2230    5.7320   22.6560 C   0  0  0  0  0  0  0  0  0  0  0  0
    7.5570    4.4940   22.5180 C   0  0  0  0  0  0  0  0  0  0  0  0
    8.1730    3.3110   22.9390 C   0  0  0  0  0  0  0  0  0  0  0  0
    1.7160   -2.4650   25.9490 C   0  0  0  0  0  0  0  0  0  0  0  0
    1.4410   -3.7570   25.5030 C   0  0  0  0  0  0  0  0  0  0  0  0
    2.4380   -4.7430   25.4260 C   0  0  0  0  0  0  0  0  0  0  0  0
    3.7580   -4.4500   25.8030 C   0  0  0  0  0  0  0  0  0  0  0  0
    4.1200   -3.1800   26.2590 C   0  0  0  0  0  0  0  0  0  0  0  0
    3.0130   -2.1350   26.3280 C   0  0  0  0  0  0  0  0  0  0  0  0
    6.9120   -5.3200   21.6460 C   0  0  1  0  0  0  0  0  0  0  0  0
    5.9090   -6.4160   21.9790 C   0  0  0  0  0  0  0  0  0  0  0  0
    4.9990   -6.0800   23.0110 C   0  0  0  0  0  0  0  0  0  0  0  0
    5.7510   -5.5530   24.1840 N   0  0  0  0  0  0  0  0  0  0  0  0
    6.4310   -4.2710   23.9100 C   0  0  0  0  0  0  0  0  0  0  0  0
    7.2770   -4.4350   22.8050 C   0  0  2  0  0  0  0  0  0  0  0  0
  2  4  1  0
  1  7  1  0
  3  7  2  0
  4  7  1  1
  1  8  1  0
  5  9  1  0
  6  9  2  0
  8  9  1  6
 10 11  1  0
 13 14  1  0
 13 15  1  0
 13 16  1  0
  2 17  1  1
 19 22  2  0
 20 22  2  0
 16 24  3  0
 25 26  2  0
 26 27  1  0
 23 28  1  0
 27 28  2  0
  8 29  1  0
 28 29  1  0
 25 30  1  0
 29 30  2  0
 31 32  1  0
  1 33  1  0
 32 33  1  0
 33 34  2  0
 13 35  1  0
 31 35  2  0
 34 35  1  0
 10 36  1  0
 36 37  2  0
 37 38  1  0
 38 39  2  0
 12 40  1  0
 39 40  1  0
  5 41  1  0
 36 41  1  0
 40 41  2  0
 18 42  1  0
 42 43  2  0
 21 44  1  0
 43 44  1  0
 22 45  1  0
 44 45  2  0
 45 46  1  0
 42 47  1  0
 46 47  2  0
  2 48  1  0
  4 48  1  0
 48 49  1  1
 49 50  1  0
 22 51  1  0
 50 51  1  0
 51 52  1  0
  4 53  1  0
 48 53  1  0
 53 52  1  1
M  END
