x0770-x0376
     RDKit          3D

 17 18  0  0  0  0  0  0  0  0999 V2000
    6.0550   -2.0520   18.6750 C   0  0  0  0  0  0  0  0  0  0  0  0
    5.3410   -4.0770   19.7250 O   0  0  0  0  0  0  0  0  0  0  0  0
   13.3600   -1.7300   21.2260 Cl  0  0  0  0  0  0  0  0  0  0  0  0
    5.8650   -2.9630   19.8600 C   0  0  0  0  0  0  0  0  0  0  0  0
    9.2840   -2.2930   24.2270 C   0  0  0  0  0  0  0  0  0  0  0  0
    6.3600   -2.4900   21.0560 N   0  0  0  0  0  0  0  0  0  0  0  0
    7.3390   -1.3750   21.0980 C   0  0  0  0  0  0  0  0  0  0  0  0
    8.5590   -1.6420   21.9840 C   0  0  0  0  0  0  0  0  0  0  0  0
    8.1900   -2.2270   23.2710 N   0  0  0  0  0  0  0  0  0  0  0  0
    7.5010   -3.5070   23.0640 C   0  0  0  0  0  0  0  0  0  0  0  0
    6.1980   -3.3310   22.2560 C   0  0  0  0  0  0  0  0  0  0  0  0
   10.7200   -0.2230   24.4580 C   0  0  0  0  0  0  0  0  0  0  0  0
   11.8150    0.5480   24.0670 C   0  0  0  0  0  0  0  0  0  0  0  0
   12.6620    0.1050   23.0670 C   0  0  0  0  0  0  0  0  0  0  0  0
   12.3900   -1.1140   22.4660 C   0  0  0  0  0  0  0  0  0  0  0  0
   11.3150   -1.8840   22.8350 C   0  0  0  0  0  0  0  0  0  0  0  0
   10.4640   -1.4500   23.8360 C   0  0  0  0  0  0  0  0  0  0  0  0
  1  4  1  0
  2  4  2  0
  4  6  1  0
  6  7  1  0
  7  8  1  0
  5  9  1  0
  8  9  1  0
  9 10  1  0
  6 11  1  0
 10 11  1  0
 12 13  2  0
 13 14  1  0
  3 15  1  0
 14 15  2  0
 15 16  1  0
  5 17  1  0
 12 17  1  0
 16 17  2  0
M  END
