x0771-x2705-x2649-x3124
     RDKit          3D

 53 59  0  0  0  0  0  0  0  0999 V2000
    6.8870   -1.4000   21.8950 N   0  0  0  0  0  0  0  0  0  0  0  0
    6.8120   -4.5780   20.3660 C   0  0  2  0  0  0  0  0  0  0  0  0
    4.8300   -2.9950   21.2410 O   0  0  0  0  0  0  0  0  0  0  0  0
    7.0560   -3.7620   21.6160 C   0  0  2  0  0  0  0  0  0  0  0  0
    7.5050    2.0260   22.8320 N   0  0  0  0  0  0  0  0  0  0  0  0
    8.6930    1.2130   21.0760 O   0  0  0  0  0  0  0  0  0  0  0  0
    6.1160   -2.6370   21.5600 C   0  0  0  0  0  0  0  0  0  0  0  0
    6.5600    0.0310   21.5600 C   0  0  1  0  0  0  0  0  0  0  0  0
    7.6950    1.1220   21.8020 C   0  0  0  0  0  0  0  0  0  0  0  0
   10.2400    2.0960   23.9250 C   0  0  0  0  0  0  0  0  0  0  0  0
    9.3640    1.2570   24.8690 C   0  0  0  0  0  0  0  0  0  0  0  0
    6.1970    4.4660   21.9220 C   0  0  0  0  0  0  0  0  0  0  0  0
   11.9900   -1.5370   23.2130 C   0  0  0  0  0  0  0  0  0  0  0  0
   12.5150   -0.2260   23.8610 C   0  0  0  0  0  0  0  0  0  0  0  0
   12.4430   -2.7460   24.0620 C   0  0  0  0  0  0  0  0  0  0  0  0
   12.6910   -1.6860   21.8450 C   0  0  0  0  0  0  0  0  0  0  0  0
   13.3840   -2.4890   25.2070 C   0  0  0  0  0  0  0  0  0  0  0  0
    5.5470   -4.2700   19.8150 O   0  0  0  0  0  0  0  0  0  0  0  0
    0.5680   -1.4210   26.0550 C   0  0  0  0  0  0  0  0  0  0  0  0
    4.3570   -7.1210   25.9060 O   0  0  0  0  0  0  0  0  0  0  0  0
    6.1390   -5.3130   26.8730 O   0  0  0  0  0  0  0  0  0  0  0  0
    1.9770   -6.0910   24.9720 C   0  0  0  0  0  0  0  0  0  0  0  0
    4.9950   -5.6660   25.7720 S   0  0  0  0  0  0  0  0  0  0  0  0
    3.9940    1.4350   21.3280 C   0  0  0  0  0  0  0  0  0  0  0  0
    6.3350    0.4180   17.8420 N   0  0  0  0  0  0  0  0  0  0  0  0
    5.1790    1.0840   17.7620 C   0  0  0  0  0  0  0  0  0  0  0  0
    4.3450    1.4440   18.9080 C   0  0  0  0  0  0  0  0  0  0  0  0
    4.8180    1.0720   20.1330 C   0  0  0  0  0  0  0  0  0  0  0  0
    6.0210    0.3950   20.2220 C   0  0  0  0  0  0  0  0  0  0  0  0
    6.7280    0.0870   19.0780 C   0  0  0  0  0  0  0  0  0  0  0  0
    9.6300   -1.5030   24.1980 N   0  0  0  0  0  0  0  0  0  0  0  0
    8.3060   -1.4740   23.9020 N   0  0  0  0  0  0  0  0  0  0  0  0
    8.1970   -1.4570   22.5560 C   0  0  0  0  0  0  0  0  0  0  0  0
    9.5270   -1.4810   22.0680 C   0  0  0  0  0  0  0  0  0  0  0  0
   10.4570   -1.5090   23.1160 C   0  0  0  0  0  0  0  0  0  0  0  0
    9.5110    3.3380   23.4630 C   0  0  0  0  0  0  0  0  0  0  0  0
   10.2640    4.5600   23.6050 C   0  0  0  0  0  0  0  0  0  0  0  0
    9.5550    5.6770   23.1580 C   0  0  0  0  0  0  0  0  0  0  0  0
    8.2660    5.6150   22.6290 C   0  0  0  0  0  0  0  0  0  0  0  0
    7.5820    4.4260   22.5110 C   0  0  0  0  0  0  0  0  0  0  0  0
    8.2030    3.2670   22.9360 C   0  0  0  0  0  0  0  0  0  0  0  0
    1.6480   -2.4420   25.9870 C   0  0  0  0  0  0  0  0  0  0  0  0
    1.3940   -3.7500   25.5420 C   0  0  0  0  0  0  0  0  0  0  0  0
    2.3890   -4.7320   25.4690 C   0  0  0  0  0  0  0  0  0  0  0  0
    3.7100   -4.4260   25.8550 C   0  0  0  0  0  0  0  0  0  0  0  0
    4.0450   -3.0390   26.3380 C   0  0  0  0  0  0  0  0  0  0  0  0
    2.9320   -2.0670   26.3810 C   0  0  0  0  0  0  0  0  0  0  0  0
    6.9210   -5.3510   21.6520 C   0  0  1  0  0  0  0  0  0  0  0  0
    5.9400   -6.4340   21.9750 C   0  0  0  0  0  0  0  0  0  0  0  0
    4.9780   -6.1290   23.1270 C   0  0  0  0  0  0  0  0  0  0  0  0
    5.7040   -5.5260   24.2670 N   0  0  0  0  0  0  0  0  0  0  0  0
    6.3570   -4.2560   23.9700 C   0  0  0  0  0  0  0  0  0  0  0  0
    7.2840   -4.4870   22.8260 C   0  0  2  0  0  0  0  0  0  0  0  0
  2  4  1  0
  1  7  1  0
  3  7  2  0
  4  7  1  1
  1  8  1  0
  5  9  1  0
  6  9  2  0
  8  9  1  6
 10 11  1  0
 13 14  1  0
 13 15  1  0
 13 16  1  0
 15 17  1  0
  2 18  1  1
 20 23  2  0
 21 23  2  0
 25 26  2  0
 26 27  1  0
 24 28  1  0
 27 28  2  0
  8 29  1  0
 28 29  1  0
 25 30  1  0
 29 30  2  0
 31 32  1  0
  1 33  1  0
 32 33  2  0
 33 34  1  0
 13 35  1  0
 31 35  1  0
 34 35  2  0
 10 36  1  0
 36 37  2  0
 37 38  1  0
 38 39  2  0
 12 40  1  0
 39 40  1  0
  5 41  1  0
 36 41  1  0
 40 41  2  0
 19 42  1  0
 42 43  2  0
 22 44  1  0
 43 44  1  0
 23 45  1  0
 44 45  2  0
 45 46  1  0
 42 47  1  0
 46 47  2  0
  2 48  1  0
  4 48  1  0
 48 49  1  1
 49 50  1  0
 23 51  1  0
 50 51  1  0
 51 52  1  0
  4 53  1  0
 48 53  1  0
 53 52  1  1
M  END
