x0771-x2705-x0691-x0991
     RDKit          3D

 57 64  0  0  0  0  0  0  0  0999 V2000
    6.9250   -1.4100   21.9120 N   0  0  0  0  0  0  0  0  0  0  0  0
    6.8640   -4.5470   20.4030 C   0  0  2  0  0  0  0  0  0  0  0  0
    4.8270   -3.0040   21.2780 O   0  0  0  0  0  0  0  0  0  0  0  0
    7.0050   -3.7730   21.6150 C   0  0  2  0  0  0  0  0  0  0  0  0
    7.3700    2.0610   22.7910 N   0  0  0  0  0  0  0  0  0  0  0  0
    8.8130    0.8890   21.4260 O   0  0  0  0  0  0  0  0  0  0  0  0
    6.1260   -2.6590   21.5890 C   0  0  0  0  0  0  0  0  0  0  0  0
    6.5370   -0.0150   21.5700 C   0  0  1  0  0  0  0  0  0  0  0  0
    7.6910    1.0120   21.9290 C   0  0  0  0  0  0  0  0  0  0  0  0
   10.1750    2.0680   23.8650 C   0  0  0  0  0  0  0  0  0  0  0  0
    9.2940    1.2520   24.7940 C   0  0  0  0  0  0  0  0  0  0  0  0
    6.1110    4.4940   21.9230 C   0  0  0  0  0  0  0  0  0  0  0  0
   12.0560   -1.4980   23.2440 C   0  0  0  0  0  0  0  0  0  0  0  0
   12.6000   -0.1640   23.7890 C   0  0  0  0  0  0  0  0  0  0  0  0
   12.5040   -2.5760   24.2540 C   0  0  0  0  0  0  0  0  0  0  0  0
   12.7380   -1.7890   21.8980 C   0  0  0  0  0  0  0  0  0  0  0  0
    5.6850   -4.3490   19.6140 O   0  0  0  0  0  0  0  0  0  0  0  0
    0.6220   -1.4280   26.0430 C   0  0  0  0  0  0  0  0  0  0  0  0
    4.4330   -6.9980   26.0560 O   0  0  0  0  0  0  0  0  0  0  0  0
    6.0460   -5.2630   26.8670 O   0  0  0  0  0  0  0  0  0  0  0  0
    1.8190   -6.1910   25.2550 C   0  0  0  0  0  0  0  0  0  0  0  0
    5.0780   -5.7140   25.8970 S   0  0  0  0  0  0  0  0  0  0  0  0
    3.2990   -0.7920   26.5110 F   0  0  0  0  0  0  0  0  0  0  0  0
    9.6700   -6.0820   24.8360 N   0  0  0  0  0  0  0  0  0  0  0  0
    8.7090   -3.2120   24.3140 C   0  0  0  0  0  0  0  0  0  0  0  0
    8.1400   -4.4230   24.1270 C   0  0  1  0  0  0  0  0  0  0  0  0
    7.9970   -5.5460   26.2350 N   0  0  0  0  0  0  0  0  0  0  0  0
    8.6410   -5.3850   25.0390 C   0  0  0  0  0  0  0  0  0  0  0  0
    6.3120    0.3910   17.8350 N   0  0  0  0  0  0  0  0  0  0  0  0
    5.2030    1.1320   17.7570 C   0  0  0  0  0  0  0  0  0  0  0  0
    4.4660    1.5140   18.8240 C   0  0  0  0  0  0  0  0  0  0  0  0
    4.9340    1.1030   20.0380 C   0  0  0  0  0  0  0  0  0  0  0  0
    6.1080    0.3290   20.1820 C   0  0  0  0  0  0  0  0  0  0  0  0
    6.8070   -0.0420   19.0350 C   0  0  0  0  0  0  0  0  0  0  0  0
    9.7120   -1.1370   24.1960 N   0  0  0  0  0  0  0  0  0  0  0  0
    8.3700   -1.1040   23.9130 N   0  0  0  0  0  0  0  0  0  0  0  0
    8.2150   -1.3800   22.5980 C   0  0  0  0  0  0  0  0  0  0  0  0
    9.5480   -1.5790   22.1370 C   0  0  0  0  0  0  0  0  0  0  0  0
   10.5220   -1.4240   23.1360 C   0  0  0  0  0  0  0  0  0  0  0  0
    9.4450    3.3060   23.4110 C   0  0  0  0  0  0  0  0  0  0  0  0
   10.1330    4.5390   23.5080 C   0  0  0  0  0  0  0  0  0  0  0  0
    9.5040    5.7360   23.0920 C   0  0  0  0  0  0  0  0  0  0  0  0
    8.1980    5.7060   22.5790 C   0  0  0  0  0  0  0  0  0  0  0  0
    7.5120    4.4840   22.4830 C   0  0  0  0  0  0  0  0  0  0  0  0
    8.1190    3.2800   22.8980 C   0  0  0  0  0  0  0  0  0  0  0  0
    1.7060   -2.4460   25.9770 C   0  0  0  0  0  0  0  0  0  0  0  0
    1.3730   -3.7750   25.6640 C   0  0  0  0  0  0  0  0  0  0  0  0
    2.3050   -4.8060   25.6000 C   0  0  0  0  0  0  0  0  0  0  0  0
    3.7800   -4.4820   25.8950 C   0  0  0  0  0  0  0  0  0  0  0  0
    4.1580   -3.0870   26.2080 C   0  0  0  0  0  0  0  0  0  0  0  0
    3.0190   -2.0750   26.2310 C   0  0  0  0  0  0  0  0  0  0  0  0
    6.6090   -5.2730   21.6790 C   0  0  1  0  0  0  0  0  0  0  0  0
    5.2920   -5.8860   21.9990 C   0  0  0  0  0  0  0  0  0  0  0  0
    5.0420   -6.3850   23.2900 C   0  0  0  0  0  0  0  0  0  0  0  0
    5.8480   -5.7360   24.3670 N   0  0  0  0  0  0  0  0  0  0  0  0
    6.6970   -4.6010   23.9570 C   0  0  2  0  0  0  0  0  0  0  0  0
    7.4140   -4.6460   22.7370 C   0  0  2  0  0  0  0  0  0  0  0  0
  2  4  1  0
  1  7  1  0
  3  7  2  0
  4  7  1  6
  1  8  1  0
  5  9  1  0
  6  9  2  0
  8  9  1  6
 10 11  1  0
 13 14  1  0
 13 15  1  0
 13 16  1  0
  2 17  1  6
 19 22  2  0
 20 22  2  0
 26 25  1  6
 24 28  2  3
 26 28  1  0
 27 28  1  0
 29 30  2  0
 30 31  1  0
 31 32  2  0
  8 33  1  0
 32 33  1  0
 29 34  1  0
 33 34  2  0
 35 36  1  0
  1 37  1  0
 36 37  2  0
 37 38  1  0
 13 39  1  0
 35 39  1  0
 38 39  2  0
 10 40  1  0
 40 41  2  0
 41 42  1  0
 42 43  2  0
 12 44  1  0
 43 44  1  0
  5 45  1  0
 40 45  1  0
 44 45  2  0
 18 46  1  0
 46 47  2  0
 21 48  1  0
 47 48  1  0
 22 49  1  0
 48 49  2  0
 49 50  1  0
 23 51  1  0
 46 51  1  0
 50 51  2  0
  2 52  1  0
  4 52  1  0
 52 53  1  6
 53 54  1  0
 22 55  1  0
 54 55  1  0
 26 56  1  0
 56 55  1  1
  4 57  1  0
 57 26  1  6
 52 57  1  0
 56 57  1  0
M  END
