x0771-x0426
     RDKit          3D

 40 43  0  0  0  0  0  0  0  0999 V2000
    0.7560   -1.4530   26.5230 C   0  0  0  0  0  0  0  0  0  0  0  0
    4.4800   -6.9330   25.7660 O   0  0  0  0  0  0  0  0  0  0  0  0
    6.1490   -5.3430   26.7470 O   0  0  0  0  0  0  0  0  0  0  0  0
    5.2910   -4.6480   19.9270 O   0  0  0  0  0  0  0  0  0  0  0  0
    1.9800   -6.1900   25.6900 C   0  0  0  0  0  0  0  0  0  0  0  0
    6.3530   -4.3190   20.4870 C   0  0  0  0  0  0  0  0  0  0  0  0
    7.2250   -3.3050   19.8330 C   0  0  0  0  0  0  0  0  0  0  0  0
    5.1170   -5.6350   25.7880 S   0  0  0  0  0  0  0  0  0  0  0  0
    2.3660    1.9110   23.8610 C   0  0  0  0  0  0  0  0  0  0  0  0
    2.4210    0.6260   23.9540 N   0  0  0  0  0  0  0  0  0  0  0  0
    3.3060    2.6360   23.1480 N   0  0  0  0  0  0  0  0  0  0  0  0
    4.3150    1.8050   22.4670 C   0  0  0  0  0  0  0  0  0  0  0  0
    3.6730    1.1820   21.2320 C   0  0  0  0  0  0  0  0  0  0  0  0
    2.7480    4.2730   25.3060 F   0  0  0  0  0  0  0  0  0  0  0  0
    1.1750   -0.0490   25.9490 C   0  0  0  0  0  0  0  0  0  0  0  0
    1.5190   -0.1970   24.6450 C   0  0  0  0  0  0  0  0  0  0  0  0
    1.8250   -2.4750   26.3430 C   0  0  0  0  0  0  0  0  0  0  0  0
    1.5140   -3.7720   26.1240 C   0  0  0  0  0  0  0  0  0  0  0  0
    2.4680   -4.7910   25.9370 C   0  0  0  0  0  0  0  0  0  0  0  0
    3.8120   -4.4360   25.9910 C   0  0  0  0  0  0  0  0  0  0  0  0
    4.2600   -3.0510   26.2270 C   0  0  0  0  0  0  0  0  0  0  0  0
    3.1620   -2.0880   26.3990 C   0  0  0  0  0  0  0  0  0  0  0  0
    6.6940   -4.9130   21.7270 N   0  0  0  0  0  0  0  0  0  0  0  0
    6.1340   -6.0940   22.0670 C   0  0  0  0  0  0  0  0  0  0  0  0
    5.1710   -6.0040   23.0730 C   0  0  0  0  0  0  0  0  0  0  0  0
    5.7920   -5.3670   24.2570 N   0  0  0  0  0  0  0  0  0  0  0  0
    6.3050   -4.0090   23.9210 C   0  0  0  0  0  0  0  0  0  0  0  0
    7.1060   -4.0790   22.7960 C   0  0  0  0  0  0  0  0  0  0  0  0
    1.5020    3.7810   25.2610 C   0  0  0  0  0  0  0  0  0  0  0  0
    1.2480    2.6130   24.5610 C   0  0  0  0  0  0  0  0  0  0  0  0
   -0.0510    2.1010   24.5120 C   0  0  0  0  0  0  0  0  0  0  0  0
   -1.0890    2.7620   25.1680 C   0  0  0  0  0  0  0  0  0  0  0  0
   -0.8380    3.9440   25.8800 C   0  0  0  0  0  0  0  0  0  0  0  0
    0.4710    4.4450   25.9180 C   0  0  0  0  0  0  0  0  0  0  0  0
    5.6710   -0.0010   20.2380 C   0  0  0  0  0  0  0  0  0  0  0  0
    6.5570   -0.2280   19.1830 C   0  0  0  0  0  0  0  0  0  0  0  0
    6.5110    0.3930   17.9880 N   0  0  0  0  0  0  0  0  0  0  0  0
    5.4830    1.3920   17.7170 C   0  0  0  0  0  0  0  0  0  0  0  0
    4.4740    1.7090   18.7960 C   0  0  0  0  0  0  0  0  0  0  0  0
    4.6360    0.9320   20.1000 C   0  0  0  0  0  0  0  0  0  0  0  0
  4  6  2  0
  6  7  1  0
  2  8  2  0
  3  8  2  0
  9 10  2  3
  9 11  1  0
 11 12  1  0
 12 13  1  0
  1 15  1  0
 10 16  1  0
 15 16  1  0
  1 17  1  0
 17 18  2  0
  5 19  1  0
 18 19  1  0
  8 20  1  0
 19 20  2  0
 20 21  1  0
 17 22  1  0
 21 22  2  0
  6 23  1  0
 23 24  1  0
 24 25  1  0
  8 26  1  0
 25 26  1  0
 26 27  1  0
 23 28  1  0
 27 28  1  0
 14 29  1  0
  9 30  1  0
 29 30  2  0
 30 31  1  0
 31 32  2  0
 32 33  1  0
 29 34  1  0
 33 34  2  0
 35 36  2  0
 36 37  1  0
 37 38  2  0
 38 39  1  0
 13 40  1  0
 35 40  1  0
 39 40  2  0
M  END
