x0771-x2705-x2912-x2643
     RDKit          3D

 53 59  0  0  0  0  0  0  0  0999 V2000
    6.8840   -1.4150   21.9860 N   0  0  0  0  0  0  0  0  0  0  0  0
    6.8550   -4.5060   20.2950 C   0  0  2  0  0  0  0  0  0  0  0  0
    4.7950   -2.9960   21.3180 O   0  0  0  0  0  0  0  0  0  0  0  0
    7.0140   -3.6980   21.4410 C   0  0  2  0  0  0  0  0  0  0  0  0
    7.4810    2.0660   22.8510 N   0  0  0  0  0  0  0  0  0  0  0  0
    8.6400    1.2780   21.1170 O   0  0  0  0  0  0  0  0  0  0  0  0
    6.0830   -2.6450   21.5800 C   0  0  0  0  0  0  0  0  0  0  0  0
    6.5630    0.0050   21.5740 C   0  0  1  0  0  0  0  0  0  0  0  0
    7.6300    1.1320   21.8470 C   0  0  0  0  0  0  0  0  0  0  0  0
   10.2180    2.1060   23.9760 C   0  0  0  0  0  0  0  0  0  0  0  0
    9.3500    1.2590   24.8930 C   0  0  0  0  0  0  0  0  0  0  0  0
    6.2000    4.4360   21.9250 C   0  0  0  0  0  0  0  0  0  0  0  0
   11.9750   -1.5430   23.2740 C   0  0  0  0  0  0  0  0  0  0  0  0
   12.4830   -0.2040   23.8490 C   0  0  0  0  0  0  0  0  0  0  0  0
   12.4550   -2.6420   24.2440 C   0  0  0  0  0  0  0  0  0  0  0  0
   12.6810   -1.7470   21.9850 C   0  0  0  0  0  0  0  0  0  0  0  0
    5.5760   -4.4090   19.6690 O   0  0  0  0  0  0  0  0  0  0  0  0
    0.8190   -1.2890   26.0890 C   0  0  0  0  0  0  0  0  0  0  0  0
    4.7170   -6.9120   26.0380 O   0  0  0  0  0  0  0  0  0  0  0  0
    6.0330   -4.9140   26.7600 O   0  0  0  0  0  0  0  0  0  0  0  0
    1.6260   -6.0670   24.7890 C   0  0  0  0  0  0  0  0  0  0  0  0
    5.1040   -5.5300   25.8340 S   0  0  0  0  0  0  0  0  0  0  0  0
   13.3010   -1.8720   21.0020 N   0  0  0  0  0  0  0  0  0  0  0  0
    4.0490    1.5180   21.2940 C   0  0  0  0  0  0  0  0  0  0  0  0
    6.3480    0.3600   17.8030 N   0  0  0  0  0  0  0  0  0  0  0  0
    5.2210    1.0670   17.7610 C   0  0  0  0  0  0  0  0  0  0  0  0
    4.4530    1.4510   18.8480 C   0  0  0  0  0  0  0  0  0  0  0  0
    4.8660    1.0990   20.1070 C   0  0  0  0  0  0  0  0  0  0  0  0
    6.0630    0.3600   20.2180 C   0  0  0  0  0  0  0  0  0  0  0  0
    6.7490    0.0150   19.0740 C   0  0  0  0  0  0  0  0  0  0  0  0
    9.6450   -1.4820   24.3490 N   0  0  0  0  0  0  0  0  0  0  0  0
    8.3360   -1.4570   24.0060 N   0  0  0  0  0  0  0  0  0  0  0  0
    8.2100   -1.4690   22.6380 C   0  0  0  0  0  0  0  0  0  0  0  0
    9.5560   -1.5140   22.0570 C   0  0  0  0  0  0  0  0  0  0  0  0
   10.4340   -1.5160   23.1530 C   0  0  0  0  0  0  0  0  0  0  0  0
    9.4930    3.3410   23.4940 C   0  0  0  0  0  0  0  0  0  0  0  0
   10.1640    4.5610   23.5970 C   0  0  0  0  0  0  0  0  0  0  0  0
    9.5530    5.7490   23.1610 C   0  0  0  0  0  0  0  0  0  0  0  0
    8.2530    5.6740   22.6180 C   0  0  0  0  0  0  0  0  0  0  0  0
    7.5870    4.4340   22.5210 C   0  0  0  0  0  0  0  0  0  0  0  0
    8.1890    3.2960   22.9530 C   0  0  0  0  0  0  0  0  0  0  0  0
    1.7710   -2.4390   25.9610 C   0  0  0  0  0  0  0  0  0  0  0  0
    1.3040   -3.6280   25.4720 C   0  0  0  0  0  0  0  0  0  0  0  0
    2.1740   -4.7770   25.3280 C   0  0  0  0  0  0  0  0  0  0  0  0
    3.5210   -4.5660   25.7290 C   0  0  0  0  0  0  0  0  0  0  0  0
    4.1040   -3.4200   26.2290 C   0  0  0  0  0  0  0  0  0  0  0  0
    3.1200   -2.2830   26.3400 C   0  0  0  0  0  0  0  0  0  0  0  0
    6.9000   -5.1690   21.6320 C   0  0  1  0  0  0  0  0  0  0  0  0
    5.7190   -6.1050   21.9240 C   0  0  0  0  0  0  0  0  0  0  0  0
    4.9010   -5.6700   23.1350 C   0  0  0  0  0  0  0  0  0  0  0  0
    5.7690   -5.4160   24.2930 N   0  0  0  0  0  0  0  0  0  0  0  0
    6.5440   -4.2300   23.9950 C   0  0  0  0  0  0  0  0  0  0  0  0
    7.4340   -4.4910   22.7750 C   0  0  2  0  0  0  0  0  0  0  0  0
  2  4  1  0
  1  7  1  0
  3  7  2  0
  4  7  1  1
  1  8  1  0
  5  9  1  0
  6  9  2  0
  8  9  1  6
 10 11  1  0
 13 14  1  0
 13 15  1  0
 13 16  1  0
  2 17  1  1
 19 22  2  0
 20 22  2  0
 16 23  3  0
 25 26  2  0
 26 27  1  0
 24 28  1  0
 27 28  2  0
  8 29  1  0
 28 29  1  0
 25 30  1  0
 29 30  2  0
 31 32  1  0
  1 33  1  0
 32 33  2  0
 33 34  1  0
 13 35  1  0
 31 35  1  0
 34 35  2  0
 10 36  1  0
 36 37  2  0
 37 38  1  0
 38 39  2  0
 12 40  1  0
 39 40  1  0
  5 41  1  0
 36 41  1  0
 40 41  2  0
 18 42  1  0
 42 43  2  0
 21 44  1  0
 43 44  1  0
 22 45  1  0
 44 45  2  0
 45 46  1  0
 42 47  1  0
 46 47  2  0
  2 48  1  0
  4 48  1  0
 48 49  1  1
 49 50  1  0
 22 51  1  0
 50 51  1  0
 51 52  1  0
  4 53  1  0
 48 53  1  0
 53 52  1  1
M  END
