x0770-x2572
     RDKit          3D

 29 34  0  0  0  0  0  0  0  0999 V2000
    4.9090    1.0580   21.7380 C   0  0  0  0  0  0  0  0  0  0  0  0
    8.8310    0.9410   21.1990 O   0  0  0  0  0  0  0  0  0  0  0  0
    6.8890   -0.5410   21.1110 N   0  0  0  0  0  0  0  0  0  0  0  0
   13.6050   -3.0010   20.6510 N   0  0  0  0  0  0  0  0  0  0  0  0
    8.0370   -0.0380   21.8620 C   0  0  2  0  0  0  0  0  0  0  0  0
    8.7000   -0.7210   23.0380 C   0  0  1  0  0  0  0  0  0  0  0  0
   13.0810   -1.9760   21.4670 C   0  0  0  0  0  0  0  0  0  0  0  0
    7.3110   -3.0600   18.8420 C   0  0  0  0  0  0  0  0  0  0  0  0
    5.3620   -4.2650   19.8190 O   0  0  0  0  0  0  0  0  0  0  0  0
    6.3310   -3.4600   19.8850 C   0  0  0  0  0  0  0  0  0  0  0  0
    9.4780   -2.9730   23.5890 C   0  0  0  0  0  0  0  0  0  0  0  0
    6.2630    0.6970   17.6470 N   0  0  0  0  0  0  0  0  0  0  0  0
    6.9070   -0.0570   18.6990 C   0  0  0  0  0  0  0  0  0  0  0  0
    6.4010    0.1290   19.9400 C   0  0  0  0  0  0  0  0  0  0  0  0
    5.3600    0.9460   20.3140 C   0  0  0  0  0  0  0  0  0  0  0  0
    4.7440    1.6610   19.3410 C   0  0  0  0  0  0  0  0  0  0  0  0
    5.1540    1.5760   17.9940 C   0  0  0  0  0  0  0  0  0  0  0  0
   10.6750    0.7930   23.8070 C   0  0  0  0  0  0  0  0  0  0  0  0
   12.1150    1.0230   23.7240 C   0  0  0  0  0  0  0  0  0  0  0  0
   12.9740    0.1370   22.9630 C   0  0  0  0  0  0  0  0  0  0  0  0
   12.4320   -0.9380   22.3070 C   0  0  0  0  0  0  0  0  0  0  0  0
   11.0710   -1.1050   22.4120 C   0  0  0  0  0  0  0  0  0  0  0  0
   10.1960   -0.2880   23.1240 C   0  0  0  0  0  0  0  0  0  0  0  0
    6.6130   -2.8130   21.1090 N   0  0  0  0  0  0  0  0  0  0  0  0
    7.4440   -1.7670   20.9290 C   0  0  2  0  0  0  0  0  0  0  0  0
    8.5010   -1.5840   21.7780 C   0  0  2  0  0  0  0  0  0  0  0  0
    8.3540   -2.1400   23.0550 C   0  0  2  0  0  0  0  0  0  0  0  0
    7.1130   -2.6620   23.3840 C   0  0  0  0  0  0  0  0  0  0  0  0
    6.5030   -3.3770   22.3430 C   0  0  0  0  0  0  0  0  0  0  0  0
  5  2  1  1
  3  5  1  0
  5  6  1  0
  4  7  3  0
  8 10  1  0
  9 10  2  0
 12 13  2  0
  3 14  1  0
 13 14  1  0
  1 15  1  0
 14 15  2  0
 15 16  1  0
 12 17  1  0
 16 17  2  0
 18 19  2  0
 19 20  1  0
  7 21  1  0
 20 21  2  0
 21 22  1  0
  6 23  1  1
 18 23  1  0
 22 23  2  0
 10 24  1  0
 25  3  1  1
 24 25  1  0
 26  5  1  0
  6 26  1  0
 26 25  1  1
  6 27  1  0
 27 11  1  1
 26 27  1  0
 27 28  1  0
 24 29  1  0
 28 29  1  0
M  END
