x0771-x2705-x0691-x2703
     RDKit          3D

 53 59  0  0  0  0  0  0  0  0999 V2000
    6.8320   -1.4020   22.0260 N   0  0  0  0  0  0  0  0  0  0  0  0
    6.8660   -4.4670   20.3370 C   0  0  2  0  0  0  0  0  0  0  0  0
    4.8290   -3.0180   21.2880 O   0  0  0  0  0  0  0  0  0  0  0  0
    7.1320   -3.6570   21.4870 C   0  0  2  0  0  0  0  0  0  0  0  0
    7.3610    2.0450   22.8680 N   0  0  0  0  0  0  0  0  0  0  0  0
    8.7750    0.9380   21.4380 O   0  0  0  0  0  0  0  0  0  0  0  0
    6.1180   -2.6400   21.5860 C   0  0  0  0  0  0  0  0  0  0  0  0
    6.5250    0.0080   21.5940 C   0  0  1  0  0  0  0  0  0  0  0  0
    7.6560    1.0300   21.9720 C   0  0  0  0  0  0  0  0  0  0  0  0
   10.1200    2.0510   23.9880 C   0  0  0  0  0  0  0  0  0  0  0  0
    9.2680    1.2390   24.9650 C   0  0  0  0  0  0  0  0  0  0  0  0
    6.1310    4.5190   21.9160 C   0  0  0  0  0  0  0  0  0  0  0  0
   11.9640   -1.5270   23.2580 C   0  0  0  0  0  0  0  0  0  0  0  0
   12.5140   -0.2050   23.8640 C   0  0  0  0  0  0  0  0  0  0  0  0
   12.3920   -2.7430   24.1270 C   0  0  0  0  0  0  0  0  0  0  0  0
   12.6280   -1.7300   21.8780 C   0  0  0  0  0  0  0  0  0  0  0  0
   13.4020   -2.5560   25.2300 C   0  0  0  0  0  0  0  0  0  0  0  0
    5.5960   -4.3570   19.7000 O   0  0  0  0  0  0  0  0  0  0  0  0
    0.6560   -1.4300   26.1460 C   0  0  0  0  0  0  0  0  0  0  0  0
    4.4690   -6.9360   25.8370 O   0  0  0  0  0  0  0  0  0  0  0  0
    6.0790   -5.2270   26.6830 O   0  0  0  0  0  0  0  0  0  0  0  0
    1.9060   -6.1850   25.2190 C   0  0  0  0  0  0  0  0  0  0  0  0
    5.0530   -5.6170   25.7430 S   0  0  0  0  0  0  0  0  0  0  0  0
    3.3840   -0.8890   26.5250 F   0  0  0  0  0  0  0  0  0  0  0  0
    6.2910    0.3540   17.8210 N   0  0  0  0  0  0  0  0  0  0  0  0
    5.1650    1.0810   17.7700 C   0  0  0  0  0  0  0  0  0  0  0  0
    4.4340    1.4620   18.8560 C   0  0  0  0  0  0  0  0  0  0  0  0
    4.8880    1.0880   20.0940 C   0  0  0  0  0  0  0  0  0  0  0  0
    6.0630    0.3420   20.2090 C   0  0  0  0  0  0  0  0  0  0  0  0
    6.7200   -0.0040   19.0400 C   0  0  0  0  0  0  0  0  0  0  0  0
    9.7100   -1.4610   24.3150 N   0  0  0  0  0  0  0  0  0  0  0  0
    8.4190   -1.4350   23.9420 N   0  0  0  0  0  0  0  0  0  0  0  0
    8.1880   -1.4510   22.5770 C   0  0  0  0  0  0  0  0  0  0  0  0
    9.4970   -1.4980   22.0700 C   0  0  0  0  0  0  0  0  0  0  0  0
   10.4120   -1.4970   23.1820 C   0  0  0  0  0  0  0  0  0  0  0  0
    9.4130    3.2890   23.4990 C   0  0  0  0  0  0  0  0  0  0  0  0
   10.1000    4.5200   23.5840 C   0  0  0  0  0  0  0  0  0  0  0  0
    9.5130    5.7050   23.1450 C   0  0  0  0  0  0  0  0  0  0  0  0
    8.2300    5.6850   22.6080 C   0  0  0  0  0  0  0  0  0  0  0  0
    7.5150    4.4740   22.5100 C   0  0  0  0  0  0  0  0  0  0  0  0
    8.1070    3.2680   22.9620 C   0  0  0  0  0  0  0  0  0  0  0  0
    1.7140   -2.4780   26.0140 C   0  0  0  0  0  0  0  0  0  0  0  0
    1.3830   -3.7980   25.6850 C   0  0  0  0  0  0  0  0  0  0  0  0
    2.3610   -4.8000   25.5750 C   0  0  0  0  0  0  0  0  0  0  0  0
    3.7060   -4.4450   25.8130 C   0  0  0  0  0  0  0  0  0  0  0  0
    4.0460   -3.1180   26.1300 C   0  0  0  0  0  0  0  0  0  0  0  0
    3.0500   -2.1540   26.2240 C   0  0  0  0  0  0  0  0  0  0  0  0
    6.8620   -5.2620   21.5940 C   0  0  1  0  0  0  0  0  0  0  0  0
    5.8260   -6.2990   21.8820 C   0  0  0  0  0  0  0  0  0  0  0  0
    4.8930   -5.9560   23.0450 C   0  0  0  0  0  0  0  0  0  0  0  0
    5.7090   -5.4700   24.1880 N   0  0  0  0  0  0  0  0  0  0  0  0
    6.4270   -4.2020   23.9160 C   0  0  0  0  0  0  0  0  0  0  0  0
    7.3080   -4.4090   22.7310 C   0  0  2  0  0  0  0  0  0  0  0  0
  2  4  1  0
  1  7  1  0
  3  7  2  0
  4  7  1  1
  1  8  1  0
  5  9  1  0
  6  9  2  0
  8  9  1  6
 10 11  1  0
 13 14  1  0
 13 15  1  0
 13 16  1  0
 15 17  1  0
  2 18  1  1
 20 23  2  0
 21 23  2  0
 25 26  2  0
 26 27  1  0
 27 28  2  0
  8 29  1  0
 28 29  1  0
 25 30  1  0
 29 30  2  0
 31 32  1  0
  1 33  1  0
 32 33  1  0
 33 34  2  0
 13 35  1  0
 31 35  2  0
 34 35  1  0
 10 36  1  0
 36 37  2  0
 37 38  1  0
 38 39  2  0
 12 40  1  0
 39 40  1  0
  5 41  1  0
 36 41  1  0
 40 41  2  0
 19 42  1  0
 42 43  2  0
 22 44  1  0
 43 44  1  0
 23 45  1  0
 44 45  2  0
 45 46  1  0
 24 47  1  0
 42 47  1  0
 46 47  2  0
  2 48  1  0
  4 48  1  0
 48 49  1  1
 49 50  1  0
 23 51  1  0
 50 51  1  0
 51 52  1  0
  4 53  1  0
 48 53  1  0
 53 52  1  1
M  END
