x0771-x2705-x0691-x2912
     RDKit          3D

 54 60  0  0  0  0  0  0  0  0999 V2000
    6.9130   -1.4070   21.9280 N   0  0  0  0  0  0  0  0  0  0  0  0
    6.7320   -4.5400   20.2590 C   0  0  2  0  0  0  0  0  0  0  0  0
    4.7560   -2.9420   21.3130 O   0  0  0  0  0  0  0  0  0  0  0  0
    6.8080   -3.7590   21.4570 C   0  0  2  0  0  0  0  0  0  0  0  0
    7.6040    2.0330   22.8700 N   0  0  0  0  0  0  0  0  0  0  0  0
    8.6990    1.2560   21.1170 O   0  0  0  0  0  0  0  0  0  0  0  0
    6.0550   -2.6160   21.5740 C   0  0  0  0  0  0  0  0  0  0  0  0
    6.5920    0.0340   21.5770 C   0  0  1  0  0  0  0  0  0  0  0  0
    7.7020    1.1140   21.8520 C   0  0  0  0  0  0  0  0  0  0  0  0
   10.2440    2.0910   23.9440 C   0  0  0  0  0  0  0  0  0  0  0  0
    9.3730    1.2580   24.8780 C   0  0  0  0  0  0  0  0  0  0  0  0
    6.2170    4.5480   21.9220 C   0  0  0  0  0  0  0  0  0  0  0  0
   12.0050   -1.5400   23.2900 C   0  0  0  0  0  0  0  0  0  0  0  0
   12.5250   -0.1870   23.8220 C   0  0  0  0  0  0  0  0  0  0  0  0
   12.5350   -2.6010   24.2790 C   0  0  0  0  0  0  0  0  0  0  0  0
   12.6650   -1.7800   21.9800 C   0  0  0  0  0  0  0  0  0  0  0  0
    5.5080   -4.4330   19.5450 O   0  0  0  0  0  0  0  0  0  0  0  0
    0.5890   -1.3760   26.1160 C   0  0  0  0  0  0  0  0  0  0  0  0
    4.5050   -6.8870   25.6950 O   0  0  0  0  0  0  0  0  0  0  0  0
    5.9550   -5.0920   26.6830 O   0  0  0  0  0  0  0  0  0  0  0  0
    1.8770   -6.1440   25.2150 C   0  0  0  0  0  0  0  0  0  0  0  0
    4.9920   -5.5260   25.7040 S   0  0  0  0  0  0  0  0  0  0  0  0
    3.3050   -0.8260   26.4910 F   0  0  0  0  0  0  0  0  0  0  0  0
   13.2390   -1.9520   20.9810 N   0  0  0  0  0  0  0  0  0  0  0  0
    4.0090    1.6380   21.2230 C   0  0  0  0  0  0  0  0  0  0  0  0
    6.3010    0.2860   17.8620 N   0  0  0  0  0  0  0  0  0  0  0  0
    5.1800    1.0090   17.7700 C   0  0  0  0  0  0  0  0  0  0  0  0
    4.4370    1.4390   18.8260 C   0  0  0  0  0  0  0  0  0  0  0  0
    4.8540    1.1290   20.1050 C   0  0  0  0  0  0  0  0  0  0  0  0
    6.0130    0.3920   20.2560 C   0  0  0  0  0  0  0  0  0  0  0  0
    6.6980   -0.0110   19.1050 C   0  0  0  0  0  0  0  0  0  0  0  0
    9.7260   -1.6340   24.3010 N   0  0  0  0  0  0  0  0  0  0  0  0
    8.4320   -1.6010   23.9130 N   0  0  0  0  0  0  0  0  0  0  0  0
    8.2320   -1.4880   22.5540 C   0  0  0  0  0  0  0  0  0  0  0  0
    9.5530   -1.4550   22.0590 C   0  0  0  0  0  0  0  0  0  0  0  0
   10.4550   -1.5430   23.1880 C   0  0  0  0  0  0  0  0  0  0  0  0
    9.5340    3.3400   23.4870 C   0  0  0  0  0  0  0  0  0  0  0  0
   10.1990    4.5770   23.5970 C   0  0  0  0  0  0  0  0  0  0  0  0
    9.5800    5.7540   23.1770 C   0  0  0  0  0  0  0  0  0  0  0  0
    8.2940    5.7090   22.6420 C   0  0  0  0  0  0  0  0  0  0  0  0
    7.6010    4.4860   22.5200 C   0  0  0  0  0  0  0  0  0  0  0  0
    8.2320    3.2950   22.9520 C   0  0  0  0  0  0  0  0  0  0  0  0
    1.6430   -2.4280   25.9920 C   0  0  0  0  0  0  0  0  0  0  0  0
    1.3160   -3.7510   25.6720 C   0  0  0  0  0  0  0  0  0  0  0  0
    2.3050   -4.7460   25.5650 C   0  0  0  0  0  0  0  0  0  0  0  0
    3.6400   -4.3770   25.7920 C   0  0  0  0  0  0  0  0  0  0  0  0
    3.9780   -3.0510   26.1050 C   0  0  0  0  0  0  0  0  0  0  0  0
    2.9780   -2.0930   26.1980 C   0  0  0  0  0  0  0  0  0  0  0  0
    6.6400   -5.2440   21.5520 C   0  0  1  0  0  0  0  0  0  0  0  0
    5.9630   -6.4330   21.9890 C   0  0  0  0  0  0  0  0  0  0  0  0
    4.9540   -6.0620   23.0780 C   0  0  0  0  0  0  0  0  0  0  0  0
    5.5810   -5.2030   24.1350 N   0  0  0  0  0  0  0  0  0  0  0  0
    7.0490   -4.8790   23.9730 C   0  0  0  0  0  0  0  0  0  0  0  0
    7.4250   -4.5030   22.5770 C   0  0  2  0  0  0  0  0  0  0  0  0
  2  4  1  0
  1  7  1  0
  3  7  2  0
  4  7  1  6
  1  8  1  0
  5  9  1  0
  6  9  2  0
  8  9  1  6
 10 11  1  0
 13 14  1  0
 13 15  1  0
 13 16  1  0
  2 17  1  6
 19 22  2  0
 20 22  2  0
 16 24  3  0
 26 27  2  0
 27 28  1  0
 25 29  1  0
 28 29  2  0
  8 30  1  0
 29 30  1  0
 26 31  1  0
 30 31  2  0
 32 33  1  0
  1 34  1  0
 33 34  1  0
 34 35  2  0
 13 36  1  0
 32 36  2  0
 35 36  1  0
 10 37  1  0
 37 38  2  0
 38 39  1  0
 39 40  2  0
 12 41  1  0
 40 41  1  0
  5 42  1  0
 37 42  1  0
 41 42  2  0
 18 43  1  0
 43 44  2  0
 21 45  1  0
 44 45  1  0
 22 46  1  0
 45 46  2  0
 46 47  1  0
 23 48  1  0
 43 48  1  0
 47 48  2  0
  2 49  1  0
  4 49  1  0
 49 50  1  6
 50 51  1  0
 22 52  1  0
 51 52  1  0
 52 53  1  0
  4 54  1  0
 49 54  1  0
 54 53  1  1
M  END
