x0771-x2705-x0691-x2908
     RDKit          3D

 53 59  0  0  0  0  0  0  0  0999 V2000
    6.9150   -1.3830   21.8310 N   0  0  0  0  0  0  0  0  0  0  0  0
    6.4990   -4.4690   20.3930 C   0  0  2  0  0  0  0  0  0  0  0  0
    4.7300   -2.8780   21.2220 O   0  0  0  0  0  0  0  0  0  0  0  0
    6.6940   -3.7140   21.7100 C   0  0  2  0  0  0  0  0  0  0  0  0
    7.5080    2.0150   22.9440 N   0  0  0  0  0  0  0  0  0  0  0  0
    8.8670    0.9160   21.4530 O   0  0  0  0  0  0  0  0  0  0  0  0
    5.9850   -2.5400   21.5660 C   0  0  0  0  0  0  0  0  0  0  0  0
    6.5670    0.0570   21.6890 C   0  0  1  0  0  0  0  0  0  0  0  0
    7.7680    1.0120   22.0130 C   0  0  0  0  0  0  0  0  0  0  0  0
   10.1250    2.0660   23.9990 C   0  0  0  0  0  0  0  0  0  0  0  0
    9.2510    1.2440   24.9520 C   0  0  0  0  0  0  0  0  0  0  0  0
    6.1250    4.6640   21.9020 C   0  0  0  0  0  0  0  0  0  0  0  0
   12.0450   -1.5540   23.2640 C   0  0  0  0  0  0  0  0  0  0  0  0
   12.5420   -0.1790   23.7840 C   0  0  0  0  0  0  0  0  0  0  0  0
   12.4880   -2.6260   24.3130 C   0  0  0  0  0  0  0  0  0  0  0  0
   12.7370   -1.8250   21.9150 C   0  0  0  0  0  0  0  0  0  0  0  0
    5.4400   -4.0310   19.5490 O   0  0  0  0  0  0  0  0  0  0  0  0
    0.6240   -1.3790   25.9700 C   0  0  0  0  0  0  0  0  0  0  0  0
    4.5180   -6.9230   25.7540 O   0  0  0  0  0  0  0  0  0  0  0  0
    6.1120   -5.1770   26.5710 O   0  0  0  0  0  0  0  0  0  0  0  0
    2.0000   -6.1670   25.0700 C   0  0  0  0  0  0  0  0  0  0  0  0
    5.1260   -5.6160   25.6180 S   0  0  0  0  0  0  0  0  0  0  0  0
    3.3560   -0.8640   26.4170 F   0  0  0  0  0  0  0  0  0  0  0  0
    4.0650    1.4950   21.2410 C   0  0  0  0  0  0  0  0  0  0  0  0
    6.3850    0.4070   17.7990 N   0  0  0  0  0  0  0  0  0  0  0  0
    5.1600    1.1450   17.7360 C   0  0  0  0  0  0  0  0  0  0  0  0
    4.4280    1.4780   18.8250 C   0  0  0  0  0  0  0  0  0  0  0  0
    4.9010    1.0980   20.0650 C   0  0  0  0  0  0  0  0  0  0  0  0
    6.0820    0.3980   20.2560 C   0  0  0  0  0  0  0  0  0  0  0  0
    6.7590    0.0860   19.0370 C   0  0  0  0  0  0  0  0  0  0  0  0
    9.6510   -1.6890   24.1820 N   0  0  0  0  0  0  0  0  0  0  0  0
    8.3390   -1.6550   23.8480 N   0  0  0  0  0  0  0  0  0  0  0  0
    8.2220   -1.4910   22.5050 C   0  0  0  0  0  0  0  0  0  0  0  0
    9.5640   -1.4370   22.0730 C   0  0  0  0  0  0  0  0  0  0  0  0
   10.5010   -1.5570   23.1320 C   0  0  0  0  0  0  0  0  0  0  0  0
    9.4350    3.3270   23.5150 C   0  0  0  0  0  0  0  0  0  0  0  0
   10.1270    4.5410   23.6040 C   0  0  0  0  0  0  0  0  0  0  0  0
    9.5500    5.7490   23.1630 C   0  0  0  0  0  0  0  0  0  0  0  0
    8.2430    5.7460   22.6140 C   0  0  0  0  0  0  0  0  0  0  0  0
    7.4960    4.5600   22.4990 C   0  0  0  0  0  0  0  0  0  0  0  0
    8.1200    3.2720   22.9800 C   0  0  0  0  0  0  0  0  0  0  0  0
    1.6880   -2.4330   25.8660 C   0  0  0  0  0  0  0  0  0  0  0  0
    1.3620   -3.7340   25.5320 C   0  0  0  0  0  0  0  0  0  0  0  0
    2.4560   -4.7870   25.4370 C   0  0  0  0  0  0  0  0  0  0  0  0
    3.7830   -4.4320   25.6900 C   0  0  0  0  0  0  0  0  0  0  0  0
    4.0460   -3.0930   26.0190 C   0  0  0  0  0  0  0  0  0  0  0  0
    3.0270   -2.1190   26.1030 C   0  0  0  0  0  0  0  0  0  0  0  0
    6.0400   -5.1180   21.6200 C   0  0  1  0  0  0  0  0  0  0  0  0
    5.8650   -6.4260   21.8340 C   0  0  0  0  0  0  0  0  0  0  0  0
    5.2280   -6.5680   23.0570 C   0  0  0  0  0  0  0  0  0  0  0  0
    5.7290   -5.5070   24.0050 N   0  0  0  0  0  0  0  0  0  0  0  0
    7.1000   -4.9280   23.7310 C   0  0  0  0  0  0  0  0  0  0  0  0
    7.2540   -4.8260   22.3110 C   0  0  2  0  0  0  0  0  0  0  0  0
  2  4  1  0
  1  7  1  0
  3  7  2  0
  4  7  1  6
  1  8  1  0
  5  9  1  0
  6  9  2  0
  8  9  1  6
 10 11  1  0
 13 14  1  0
 13 15  1  0
 13 16  1  0
  2 17  1  6
 19 22  2  0
 20 22  2  0
 25 26  2  0
 26 27  1  0
 24 28  1  0
 27 28  2  0
  8 29  1  0
 28 29  1  0
 25 30  1  0
 29 30  2  0
 31 32  1  0
  1 33  1  0
 32 33  1  0
 33 34  2  0
 13 35  1  0
 31 35  2  0
 34 35  1  0
 10 36  1  0
 36 37  2  0
 37 38  1  0
 38 39  2  0
 12 40  1  0
 39 40  1  0
  5 41  1  0
 36 41  1  0
 40 41  2  0
 18 42  1  0
 42 43  2  0
 21 44  1  0
 43 44  1  0
 22 45  1  0
 44 45  2  0
 45 46  1  0
 23 47  1  0
 42 47  1  0
 46 47  2  0
  2 48  1  0
  4 48  1  0
 48 49  1  1
 49 50  1  0
 22 51  1  0
 50 51  1  0
 51 52  1  0
  4 53  1  0
 48 53  1  0
 53 52  1  1
M  END
