x0774-x1382
     RDKit          3D

 29 33  0  0  0  0  0  0  0  0999 V2000
    6.6700   -4.4590   19.8770 C   0  0  0  0  0  0  0  0  0  0  0  0
    5.3100   -5.2150   21.3570 O   0  0  0  0  0  0  0  0  0  0  0  0
    6.1040   -4.3120   21.1760 C   0  0  1  0  0  0  0  0  0  0  0  0
    8.0940   -1.0920   24.8840 O   0  0  0  0  0  0  0  0  0  0  0  0
    8.7840   -2.8600   22.7680 N   0  0  0  0  0  0  0  0  0  0  0  0
    5.8360   -1.4130   25.8470 O   0  0  0  0  0  0  0  0  0  0  0  0
    9.0660   -3.9070   23.7050 C   0  0  0  0  0  0  0  0  0  0  0  0
    6.8960   -1.8840   24.9820 S   0  0  0  0  0  0  0  0  0  0  0  0
    7.2270   -3.1400   20.1150 C   0  0  0  0  0  0  0  0  0  0  0  0
    7.1800   -2.6570   18.9470 O   0  0  0  0  0  0  0  0  0  0  0  0
   13.4140   -1.7460   21.1300 Cl  0  0  0  0  0  0  0  0  0  0  0  0
    6.8650   -4.0740   22.0240 N   0  0  0  0  0  0  0  0  0  0  0  0
    6.1310   -4.1600   23.1790 C   0  0  0  0  0  0  0  0  0  0  0  0
    5.4050   -2.8350   23.4450 C   0  0  0  0  0  0  0  0  0  0  0  0
    6.1760   -1.9790   23.4490 N   0  0  0  0  0  0  0  0  0  0  0  0
    6.8720   -1.7520   22.2950 C   0  0  0  0  0  0  0  0  0  0  0  0
    7.5300   -2.8840   21.8010 C   0  0  1  0  0  0  0  0  0  0  0  0
    7.1910   -3.6090   27.0840 C   0  0  0  0  0  0  0  0  0  0  0  0
    7.8640   -4.7020   27.6740 C   0  0  0  0  0  0  0  0  0  0  0  0
    9.1480   -4.8780   27.2620 C   0  0  0  0  0  0  0  0  0  0  0  0
    9.6020   -4.2270   26.0870 C   0  0  0  0  0  0  0  0  0  0  0  0
    8.5440   -4.1570   25.1730 C   0  0  1  0  0  0  0  0  0  0  0  0
    7.3540   -3.4610   25.6890 C   0  0  2  0  0  0  0  0  0  0  0  0
    9.8910   -1.9190   22.8110 C   0  0  0  0  0  0  0  0  0  0  0  0
   11.0240   -2.1350   22.0680 C   0  0  0  0  0  0  0  0  0  0  0  0
   12.1170   -1.3070   22.1060 C   0  0  0  0  0  0  0  0  0  0  0  0
   12.1510   -0.1660   22.9060 C   0  0  0  0  0  0  0  0  0  0  0  0
   11.0460    0.0990   23.6550 C   0  0  0  0  0  0  0  0  0  0  0  0
    9.9220   -0.7450   23.6280 C   0  0  0  0  0  0  0  0  0  0  0  0
  1  3  1  0
  3  2  1  1
  5  7  1  0
  8  4  1  0
  6  8  1  0
  1  9  1  0
  9 10  2  0
  3 12  1  0
 12 13  1  0
 13 14  1  0
  8 15  1  0
 14 15  1  0
 15 16  1  0
  5 17  1  0
 17  9  1  6
 12 17  1  0
 16 17  1  0
 18 19  1  0
 19 20  1  0
 20 21  1  0
 22  7  1  6
 21 22  1  0
  8 23  1  0
 23 18  1  1
 22 23  1  0
  5 24  1  0
 24 25  2  0
 11 26  1  0
 25 26  1  0
 26 27  2  0
 27 28  1  0
 24 29  1  0
 28 29  2  0
M  END
