x0771-x2705-x2572-x2908
     RDKit          3D

 53 59  0  0  0  0  0  0  0  0999 V2000
    6.8890   -1.4150   21.9360 N   0  0  0  0  0  0  0  0  0  0  0  0
    6.8290   -4.3490   20.2750 C   0  0  2  0  0  0  0  0  0  0  0  0
    4.8470   -3.0390   21.2780 O   0  0  0  0  0  0  0  0  0  0  0  0
    7.1430   -3.7280   21.5370 C   0  0  2  0  0  0  0  0  0  0  0  0
    7.5020    2.0250   22.8830 N   0  0  0  0  0  0  0  0  0  0  0  0
    8.6640    1.3050   21.1260 O   0  0  0  0  0  0  0  0  0  0  0  0
    6.1370   -2.6840   21.5670 C   0  0  0  0  0  0  0  0  0  0  0  0
    6.5570    0.0220   21.5540 C   0  0  1  0  0  0  0  0  0  0  0  0
    7.6590    1.1360   21.8440 C   0  0  0  0  0  0  0  0  0  0  0  0
   10.1750    2.0620   23.9730 C   0  0  0  0  0  0  0  0  0  0  0  0
    9.2980    1.2550   24.9280 C   0  0  0  0  0  0  0  0  0  0  0  0
    6.1660    4.4500   21.9320 C   0  0  0  0  0  0  0  0  0  0  0  0
   12.0700   -1.5470   23.3530 C   0  0  0  0  0  0  0  0  0  0  0  0
   12.5960   -0.1940   23.8870 C   0  0  0  0  0  0  0  0  0  0  0  0
   12.5690   -2.6240   24.3570 C   0  0  0  0  0  0  0  0  0  0  0  0
   12.7570   -1.7640   21.9870 C   0  0  0  0  0  0  0  0  0  0  0  0
    5.5740   -4.0980   19.6340 O   0  0  0  0  0  0  0  0  0  0  0  0
    0.5970   -1.4130   26.0130 C   0  0  0  0  0  0  0  0  0  0  0  0
    4.5760   -6.9560   25.9160 O   0  0  0  0  0  0  0  0  0  0  0  0
    6.0920   -5.1410   26.7530 O   0  0  0  0  0  0  0  0  0  0  0  0
    1.9840   -6.0610   24.9560 C   0  0  0  0  0  0  0  0  0  0  0  0
    5.1010   -5.6140   25.8160 S   0  0  0  0  0  0  0  0  0  0  0  0
    4.0310    1.4000   21.3000 C   0  0  0  0  0  0  0  0  0  0  0  0
   13.3250   -1.9040   20.9780 N   0  0  0  0  0  0  0  0  0  0  0  0
    6.3130    0.2470   17.8670 N   0  0  0  0  0  0  0  0  0  0  0  0
    5.1550    0.9180   17.8010 C   0  0  0  0  0  0  0  0  0  0  0  0
    4.3920    1.2990   18.8600 C   0  0  0  0  0  0  0  0  0  0  0  0
    4.8460    0.9830   20.1110 C   0  0  0  0  0  0  0  0  0  0  0  0
    6.0410    0.3060   20.1860 C   0  0  0  0  0  0  0  0  0  0  0  0
    6.8040   -0.0910   19.0630 C   0  0  0  0  0  0  0  0  0  0  0  0
    9.6770   -1.5260   24.2910 N   0  0  0  0  0  0  0  0  0  0  0  0
    8.3580   -1.5010   23.9560 N   0  0  0  0  0  0  0  0  0  0  0  0
    8.2290   -1.4800   22.6020 C   0  0  0  0  0  0  0  0  0  0  0  0
    9.5270   -1.5050   22.0810 C   0  0  0  0  0  0  0  0  0  0  0  0
   10.5300   -1.5310   23.2320 C   0  0  0  0  0  0  0  0  0  0  0  0
    9.4740    3.3130   23.5010 C   0  0  0  0  0  0  0  0  0  0  0  0
   10.1430    4.5410   23.5980 C   0  0  0  0  0  0  0  0  0  0  0  0
    9.5330    5.7170   23.1670 C   0  0  0  0  0  0  0  0  0  0  0  0
    8.2400    5.6820   22.6260 C   0  0  0  0  0  0  0  0  0  0  0  0
    7.5540    4.4460   22.5230 C   0  0  0  0  0  0  0  0  0  0  0  0
    8.1760    3.2730   22.9670 C   0  0  0  0  0  0  0  0  0  0  0  0
    1.6930   -2.4290   25.9610 C   0  0  0  0  0  0  0  0  0  0  0  0
    1.4480   -3.7190   25.5230 C   0  0  0  0  0  0  0  0  0  0  0  0
    2.4340   -4.7180   25.4540 C   0  0  0  0  0  0  0  0  0  0  0  0
    3.7580   -4.4390   25.8410 C   0  0  0  0  0  0  0  0  0  0  0  0
    4.0740   -3.1520   26.2880 C   0  0  0  0  0  0  0  0  0  0  0  0
    2.9950   -2.1230   26.3440 C   0  0  0  0  0  0  0  0  0  0  0  0
    6.8170   -5.2810   21.5550 C   0  0  1  0  0  0  0  0  0  0  0  0
    5.4390   -5.7590   21.8380 C   0  0  0  0  0  0  0  0  0  0  0  0
    5.1980   -6.3090   23.0910 C   0  0  0  0  0  0  0  0  0  0  0  0
    5.7510   -5.5230   24.2290 N   0  0  0  0  0  0  0  0  0  0  0  0
    6.4540   -4.2830   23.8270 C   0  0  0  0  0  0  0  0  0  0  0  0
    7.3020   -4.5350   22.7360 C   0  0  2  0  0  0  0  0  0  0  0  0
  2  4  1  0
  1  7  1  0
  3  7  2  0
  4  7  1  1
  1  8  1  0
  5  9  1  0
  6  9  2  0
  8  9  1  6
 10 11  1  0
 13 14  1  0
 13 15  1  0
 13 16  1  0
  2 17  1  1
 19 22  2  0
 20 22  2  0
 16 24  3  0
 25 26  2  0
 26 27  1  0
 23 28  1  0
 27 28  2  0
  8 29  1  0
 28 29  1  0
 25 30  1  0
 29 30  2  0
 31 32  1  0
  1 33  1  0
 32 33  2  0
 33 34  1  0
 13 35  1  0
 31 35  1  0
 34 35  2  0
 10 36  1  0
 36 37  2  0
 37 38  1  0
 38 39  2  0
 12 40  1  0
 39 40  1  0
  5 41  1  0
 36 41  1  0
 40 41  2  0
 18 42  1  0
 42 43  2  0
 21 44  1  0
 43 44  1  0
 22 45  1  0
 44 45  2  0
 45 46  1  0
 42 47  1  0
 46 47  2  0
  2 48  1  0
  4 48  1  0
 48 49  1  1
 49 50  1  0
 22 51  1  0
 50 51  1  0
 51 52  1  0
  4 53  1  0
 48 53  1  0
 53 52  1  1
M  END
