x0771-x2705-x3117-x0769
     RDKit          3D

 53 59  0  0  0  0  0  0  0  0999 V2000
    6.9900   -1.3710   21.7730 N   0  0  0  0  0  0  0  0  0  0  0  0
    6.8020   -4.2240   20.3170 C   0  0  2  0  0  0  0  0  0  0  0  0
    5.0470   -3.3790   21.3140 O   0  0  0  0  0  0  0  0  0  0  0  0
    6.9600   -3.3250   21.4590 C   0  0  2  0  0  0  0  0  0  0  0  0
    7.4950    2.0340   22.8740 N   0  0  0  0  0  0  0  0  0  0  0  0
    8.7830    1.2710   21.1430 O   0  0  0  0  0  0  0  0  0  0  0  0
    5.8480   -2.3260   21.5400 C   0  0  0  0  0  0  0  0  0  0  0  0
    6.6810    0.0760   21.4790 C   0  0  1  0  0  0  0  0  0  0  0  0
    7.7540    1.1600   21.8350 C   0  0  0  0  0  0  0  0  0  0  0  0
   10.2110    2.0880   23.9810 C   0  0  0  0  0  0  0  0  0  0  0  0
    9.3650    1.2260   24.9220 C   0  0  0  0  0  0  0  0  0  0  0  0
    6.1610    4.4970   21.9490 C   0  0  0  0  0  0  0  0  0  0  0  0
   12.0130   -1.5470   23.2720 C   0  0  0  0  0  0  0  0  0  0  0  0
   12.5130   -0.2100   23.8910 C   0  0  0  0  0  0  0  0  0  0  0  0
   12.4570   -2.7550   24.1390 C   0  0  0  0  0  0  0  0  0  0  0  0
   12.7010   -1.7260   21.9010 C   0  0  0  0  0  0  0  0  0  0  0  0
   13.4250   -2.5350   25.2720 C   0  0  0  0  0  0  0  0  0  0  0  0
    5.5640   -4.2300   19.6110 O   0  0  0  0  0  0  0  0  0  0  0  0
    0.6650   -1.4110   26.2590 C   0  0  0  0  0  0  0  0  0  0  0  0
    4.5340   -6.8840   25.8040 O   0  0  0  0  0  0  0  0  0  0  0  0
    6.1190   -5.1790   26.7090 O   0  0  0  0  0  0  0  0  0  0  0  0
    1.9600   -6.1030   25.0790 C   0  0  0  0  0  0  0  0  0  0  0  0
    5.1030   -5.5550   25.7520 S   0  0  0  0  0  0  0  0  0  0  0  0
    5.3140   -2.7160   26.5600 F   0  0  0  0  0  0  0  0  0  0  0  0
    6.2930    0.4360   17.7490 N   0  0  0  0  0  0  0  0  0  0  0  0
    5.1560    1.1500   17.7430 C   0  0  0  0  0  0  0  0  0  0  0  0
    4.4580    1.5230   18.8540 C   0  0  0  0  0  0  0  0  0  0  0  0
    4.9610    1.1510   20.0720 C   0  0  0  0  0  0  0  0  0  0  0  0
    6.1450    0.4200   20.1360 C   0  0  0  0  0  0  0  0  0  0  0  0
    6.7610    0.0840   18.9520 C   0  0  0  0  0  0  0  0  0  0  0  0
    9.6990   -1.6480   24.2300 N   0  0  0  0  0  0  0  0  0  0  0  0
    8.4220   -1.6110   23.8100 N   0  0  0  0  0  0  0  0  0  0  0  0
    8.2780   -1.4820   22.4370 C   0  0  0  0  0  0  0  0  0  0  0  0
    9.6130   -1.4500   22.0060 C   0  0  0  0  0  0  0  0  0  0  0  0
   10.4650   -1.5490   23.1500 C   0  0  0  0  0  0  0  0  0  0  0  0
    9.4850    3.3240   23.5130 C   0  0  0  0  0  0  0  0  0  0  0  0
   10.1420    4.5660   23.6130 C   0  0  0  0  0  0  0  0  0  0  0  0
    9.5270    5.7430   23.1890 C   0  0  0  0  0  0  0  0  0  0  0  0
    8.2420    5.7010   22.6540 C   0  0  0  0  0  0  0  0  0  0  0  0
    7.5540    4.4760   22.5410 C   0  0  0  0  0  0  0  0  0  0  0  0
    8.1830    3.2800   22.9780 C   0  0  0  0  0  0  0  0  0  0  0  0
    1.7280   -2.4540   26.1040 C   0  0  0  0  0  0  0  0  0  0  0  0
    1.4120   -3.7510   25.6760 C   0  0  0  0  0  0  0  0  0  0  0  0
    2.4050   -4.7440   25.5400 C   0  0  0  0  0  0  0  0  0  0  0  0
    3.7410   -4.4030   25.8470 C   0  0  0  0  0  0  0  0  0  0  0  0
    4.0640   -3.1000   26.2630 C   0  0  0  0  0  0  0  0  0  0  0  0
    3.0550   -2.1610   26.3830 C   0  0  0  0  0  0  0  0  0  0  0  0
    6.7850   -4.9550   21.5980 C   0  0  1  0  0  0  0  0  0  0  0  0
    5.8600   -6.0950   21.8820 C   0  0  0  0  0  0  0  0  0  0  0  0
    4.9360   -5.8400   23.0660 C   0  0  0  0  0  0  0  0  0  0  0  0
    5.7560   -5.3370   24.1980 N   0  0  0  0  0  0  0  0  0  0  0  0
    6.4040   -4.0140   23.9550 C   0  0  0  0  0  0  0  0  0  0  0  0
    7.2350   -4.0800   22.7100 C   0  0  2  0  0  0  0  0  0  0  0  0
  2  4  1  0
  1  7  1  0
  3  7  2  0
  4  7  1  1
  1  8  1  0
  5  9  1  0
  6  9  2  0
  8  9  1  6
 10 11  1  0
 13 14  1  0
 13 15  1  0
 13 16  1  0
 15 17  1  0
  2 18  1  1
 20 23  2  0
 21 23  2  0
 25 26  2  0
 26 27  1  0
 27 28  2  0
  8 29  1  0
 28 29  1  0
 25 30  1  0
 29 30  2  0
 31 32  1  0
  1 33  1  0
 32 33  2  0
 33 34  1  0
 13 35  1  0
 31 35  1  0
 34 35  2  0
 10 36  1  0
 36 37  2  0
 37 38  1  0
 38 39  2  0
 12 40  1  0
 39 40  1  0
  5 41  1  0
 36 41  1  0
 40 41  2  0
 19 42  1  0
 42 43  2  0
 22 44  1  0
 43 44  1  0
 23 45  1  0
 44 45  2  0
 24 46  1  0
 45 46  1  0
 42 47  1  0
 46 47  2  0
  2 48  1  0
  4 48  1  0
 48 49  1  1
 49 50  1  0
 23 51  1  0
 50 51  1  0
 51 52  1  0
  4 53  1  0
 48 53  1  0
 53 52  1  1
M  END
