x0774-x0194
     RDKit          3D

 20 21  0  0  0  0  0  0  0  0999 V2000
    6.2180   -2.1830   18.9480 C   0  0  0  0  0  0  0  0  0  0  0  0
    5.3060   -4.3220   19.6040 O   0  0  0  0  0  0  0  0  0  0  0  0
    5.9610   -3.3370   19.9280 C   0  0  0  0  0  0  0  0  0  0  0  0
    8.1320   -0.7700   25.2790 O   0  0  0  0  0  0  0  0  0  0  0  0
   10.8190   -2.4960   24.0020 N   0  0  0  0  0  0  0  0  0  0  0  0
    5.8190   -1.5730   25.8380 O   0  0  0  0  0  0  0  0  0  0  0  0
    9.9650   -3.1130   24.8800 C   0  0  0  0  0  0  0  0  0  0  0  0
    7.1460   -1.8310   25.3340 S   0  0  0  0  0  0  0  0  0  0  0  0
    6.5230   -3.2750   21.1680 N   0  0  0  0  0  0  0  0  0  0  0  0
    6.1070   -4.1700   22.2350 C   0  0  0  0  0  0  0  0  0  0  0  0
    5.8610   -3.3950   23.5210 C   0  0  0  0  0  0  0  0  0  0  0  0
    7.0120   -2.4890   23.7790 N   0  0  0  0  0  0  0  0  0  0  0  0
    7.4500   -1.6280   22.6170 C   0  0  0  0  0  0  0  0  0  0  0  0
    7.6660   -2.3920   21.4400 C   0  0  0  0  0  0  0  0  0  0  0  0
    7.1050   -3.8140   27.2110 C   0  0  0  0  0  0  0  0  0  0  0  0
    7.6170   -4.8890   27.9230 C   0  0  0  0  0  0  0  0  0  0  0  0
    8.8860   -5.3730   27.6300 C   0  0  0  0  0  0  0  0  0  0  0  0
    9.6450   -4.7590   26.6040 C   0  0  0  0  0  0  0  0  0  0  0  0
    9.1320   -3.6820   25.8950 C   0  0  0  0  0  0  0  0  0  0  0  0
    7.8660   -3.2090   26.1950 C   0  0  0  0  0  0  0  0  0  0  0  0
  1  3  1  0
  2  3  2  0
  5  7  3  0
  4  8  2  0
  6  8  2  0
  3  9  1  0
  9 10  1  0
 10 11  1  0
  8 12  1  0
 11 12  1  0
 12 13  1  0
  9 14  1  0
 13 14  1  0
 15 16  2  0
 16 17  1  0
 17 18  2  0
  7 19  1  0
 18 19  1  0
  8 20  1  0
 15 20  1  0
 19 20  2  0
M  END
