x0770-x0072
     RDKit          3D

 22 24  0  0  0  0  0  0  0  0999 V2000
    7.2540   -3.0500   18.9570 C   0  0  0  0  0  0  0  0  0  0  0  0
    5.4740   -4.3060   19.8710 O   0  0  0  0  0  0  0  0  0  0  0  0
   13.4470   -1.5640   21.2220 Cl  0  0  0  0  0  0  0  0  0  0  0  0
    6.3460   -3.4060   20.0920 C   0  0  0  0  0  0  0  0  0  0  0  0
    9.6000   -2.9820   23.9280 C   0  0  1  0  0  0  0  0  0  0  0  0
    6.4550   -4.6800   25.8490 C   0  0  0  0  0  0  0  0  0  0  0  0
    8.1240   -4.3020   25.6500 S   0  0  0  0  0  0  0  0  0  0  0  0
    8.8160   -5.5170   26.0210 O   0  0  0  0  0  0  0  0  0  0  0  0
    8.1100   -3.4090   26.7150 O   0  0  0  0  0  0  0  0  0  0  0  0
    8.2290   -3.3610   24.3340 N   0  0  0  0  0  0  0  0  0  0  0  0
    6.5320   -2.7100   21.3220 N   0  0  0  0  0  0  0  0  0  0  0  0
    7.3040   -1.5540   21.4220 C   0  0  0  0  0  0  0  0  0  0  0  0
    8.7230   -1.9240   21.9030 C   0  0  0  0  0  0  0  0  0  0  0  0
    8.8250   -3.1700   22.7220 N   0  0  0  0  0  0  0  0  0  0  0  0
    7.6850   -3.7290   23.1730 C   0  0  2  0  0  0  0  0  0  0  0  0
    6.4720   -3.3800   22.5290 C   0  0  0  0  0  0  0  0  0  0  0  0
   10.4970   -0.5660   24.5300 C   0  0  0  0  0  0  0  0  0  0  0  0
   11.4900    0.3550   24.1550 C   0  0  0  0  0  0  0  0  0  0  0  0
   12.3850    0.0900   23.1840 C   0  0  0  0  0  0  0  0  0  0  0  0
   12.3630   -1.1230   22.4930 C   0  0  0  0  0  0  0  0  0  0  0  0
   11.4160   -2.0440   22.8220 C   0  0  0  0  0  0  0  0  0  0  0  0
   10.4380   -1.7930   23.8670 C   0  0  0  0  0  0  0  0  0  0  0  0
  1  4  1  0
  2  4  2  0
  7  6  1  0
  7  8  2  0
  7  9  2  0
  5 10  1  0
  7 10  1  0
  4 11  1  0
 11 12  1  0
 12 13  1  0
  5 14  1  0
 13 14  1  0
 10 15  1  0
 14 15  1  0
 11 16  1  0
 15 16  1  6
 17 18  2  0
 18 19  1  0
  3 20  1  0
 19 20  2  0
 20 21  1  0
  5 22  1  1
 17 22  1  0
 21 22  2  0
M  END
