x0771-x2705-x0691-x2649
     RDKit          3D

 53 59  0  0  0  0  0  0  0  0999 V2000
    6.9080   -1.4280   21.9440 N   0  0  0  0  0  0  0  0  0  0  0  0
    6.7320   -4.5390   20.3730 C   0  0  2  0  0  0  0  0  0  0  0  0
    4.7920   -2.9640   21.2700 O   0  0  0  0  0  0  0  0  0  0  0  0
    6.9490   -3.7540   21.5730 C   0  0  2  0  0  0  0  0  0  0  0  0
    7.4450    2.0870   22.8000 N   0  0  0  0  0  0  0  0  0  0  0  0
    8.7710    1.2370   21.1260 O   0  0  0  0  0  0  0  0  0  0  0  0
    6.0780   -2.6340   21.5810 C   0  0  0  0  0  0  0  0  0  0  0  0
    6.6180    0.0210   21.5960 C   0  0  1  0  0  0  0  0  0  0  0  0
    7.7440    1.1540   21.8100 C   0  0  0  0  0  0  0  0  0  0  0  0
   10.2050    2.1160   23.9640 C   0  0  0  0  0  0  0  0  0  0  0  0
    9.3630    1.2300   24.8670 C   0  0  0  0  0  0  0  0  0  0  0  0
    6.1650    4.5320   21.9210 C   0  0  0  0  0  0  0  0  0  0  0  0
   12.0670   -1.5370   23.2560 C   0  0  0  0  0  0  0  0  0  0  0  0
   12.6140   -0.1740   23.7270 C   0  0  0  0  0  0  0  0  0  0  0  0
   12.5000   -2.5900   24.2830 C   0  0  0  0  0  0  0  0  0  0  0  0
   12.7320   -1.8790   21.9020 C   0  0  0  0  0  0  0  0  0  0  0  0
    5.4700   -4.4010   19.7270 O   0  0  0  0  0  0  0  0  0  0  0  0
    0.6020   -1.4380   25.9620 C   0  0  0  0  0  0  0  0  0  0  0  0
    4.4380   -6.9630   25.7670 O   0  0  0  0  0  0  0  0  0  0  0  0
    6.0390   -5.2700   26.7180 O   0  0  0  0  0  0  0  0  0  0  0  0
    1.9900   -6.1470   25.1200 C   0  0  0  0  0  0  0  0  0  0  0  0
    5.0590   -5.6550   25.7260 S   0  0  0  0  0  0  0  0  0  0  0  0
    3.2650   -0.8010   26.4920 F   0  0  0  0  0  0  0  0  0  0  0  0
    3.9250    1.4980   21.2500 C   0  0  0  0  0  0  0  0  0  0  0  0
    6.4220    0.3140   17.8240 N   0  0  0  0  0  0  0  0  0  0  0  0
    5.1710    1.0480   17.7480 C   0  0  0  0  0  0  0  0  0  0  0  0
    4.4330    1.3800   18.8600 C   0  0  0  0  0  0  0  0  0  0  0  0
    4.8230    1.0640   20.1360 C   0  0  0  0  0  0  0  0  0  0  0  0
    6.0100    0.3870   20.2890 C   0  0  0  0  0  0  0  0  0  0  0  0
    6.8130    0.0030   19.0630 C   0  0  0  0  0  0  0  0  0  0  0  0
    9.7010   -1.5330   24.2530 N   0  0  0  0  0  0  0  0  0  0  0  0
    8.3520   -1.5120   23.9850 N   0  0  0  0  0  0  0  0  0  0  0  0
    8.1860   -1.4820   22.6430 C   0  0  0  0  0  0  0  0  0  0  0  0
    9.5590   -1.4940   22.1410 C   0  0  0  0  0  0  0  0  0  0  0  0
   10.5310   -1.5230   23.1600 C   0  0  0  0  0  0  0  0  0  0  0  0
    9.4650    3.3520   23.4980 C   0  0  0  0  0  0  0  0  0  0  0  0
   10.1280    4.5710   23.6290 C   0  0  0  0  0  0  0  0  0  0  0  0
    9.5160    5.7570   23.2160 C   0  0  0  0  0  0  0  0  0  0  0  0
    8.2210    5.7320   22.6600 C   0  0  0  0  0  0  0  0  0  0  0  0
    7.5470    4.4980   22.5260 C   0  0  0  0  0  0  0  0  0  0  0  0
    8.1630    3.3130   22.9470 C   0  0  0  0  0  0  0  0  0  0  0  0
    1.7070   -2.4550   25.8990 C   0  0  0  0  0  0  0  0  0  0  0  0
    1.4240   -3.7770   25.5610 C   0  0  0  0  0  0  0  0  0  0  0  0
    2.4250   -4.7580   25.4980 C   0  0  0  0  0  0  0  0  0  0  0  0
    3.7590   -4.4280   25.7820 C   0  0  0  0  0  0  0  0  0  0  0  0
    4.1290   -3.1260   26.1230 C   0  0  0  0  0  0  0  0  0  0  0  0
    3.0180   -2.0800   26.1790 C   0  0  0  0  0  0  0  0  0  0  0  0
    6.8590   -5.3350   21.6480 C   0  0  1  0  0  0  0  0  0  0  0  0
    5.8530   -6.4350   21.9770 C   0  0  0  0  0  0  0  0  0  0  0  0
    4.9910   -6.0440   23.0270 C   0  0  0  0  0  0  0  0  0  0  0  0
    5.7430   -5.4910   24.1840 N   0  0  0  0  0  0  0  0  0  0  0  0
    6.4600   -4.2370   23.9100 C   0  0  0  0  0  0  0  0  0  0  0  0
    7.2840   -4.4480   22.7940 C   0  0  2  0  0  0  0  0  0  0  0  0
  2  4  1  0
  1  7  1  0
  3  7  2  0
  4  7  1  1
  1  8  1  0
  5  9  1  0
  6  9  2  0
  8  9  1  6
 10 11  1  0
 13 14  1  0
 13 15  1  0
 13 16  1  0
  2 17  1  1
 19 22  2  0
 20 22  2  0
 25 26  2  0
 26 27  1  0
 24 28  1  0
 27 28  2  0
  8 29  1  0
 28 29  1  0
 25 30  1  0
 29 30  2  0
 31 32  1  0
  1 33  1  0
 32 33  2  0
 33 34  1  0
 13 35  1  0
 31 35  1  0
 34 35  2  0
 10 36  1  0
 36 37  2  0
 37 38  1  0
 38 39  2  0
 12 40  1  0
 39 40  1  0
  5 41  1  0
 36 41  1  0
 40 41  2  0
 18 42  1  0
 42 43  2  0
 21 44  1  0
 43 44  1  0
 22 45  1  0
 44 45  2  0
 45 46  1  0
 23 47  1  0
 42 47  1  0
 46 47  2  0
  2 48  1  0
  4 48  1  0
 48 49  1  1
 49 50  1  0
 22 51  1  0
 50 51  1  0
 51 52  1  0
  4 53  1  0
 48 53  1  0
 53 52  1  1
M  END
