x0771-x2705-x1311-x3110
     RDKit          3D

 62 69  0  0  0  0  0  0  0  0999 V2000
    8.0050    1.6600   23.0990 C   0  0  1  0  0  0  0  0  0  0  0  0
   13.1720    5.3010   22.9740 C   0  0  0  0  0  0  0  0  0  0  0  0
   12.6280    2.9420   23.3060 O   0  0  0  0  0  0  0  0  0  0  0  0
   13.1570    3.9160   22.3850 C   0  0  0  0  0  0  0  0  0  0  0  0
    6.9230   -1.5540   21.7850 N   0  0  0  0  0  0  0  0  0  0  0  0
   10.8300    3.7310   22.3680 N   0  0  0  0  0  0  0  0  0  0  0  0
   11.3030    2.9320   23.2770 C   0  0  0  0  0  0  0  0  0  0  0  0
    8.6700    1.2620   20.9460 O   0  0  0  0  0  0  0  0  0  0  0  0
   10.3000    2.1060   24.1750 C   0  0  0  0  0  0  0  0  0  0  0  0
    4.7630   -2.9490   21.2700 O   0  0  0  0  0  0  0  0  0  0  0  0
    7.8380    0.9420   21.7940 C   0  0  0  0  0  0  0  0  0  0  0  0
    6.6510   -0.0580   21.5220 C   0  0  1  0  0  0  0  0  0  0  0  0
    6.0690   -2.7290   21.3320 C   0  0  0  0  0  0  0  0  0  0  0  0
    6.7940   -4.0490   20.8320 C   0  0  2  0  0  0  0  0  0  0  0  0
    8.3020   -3.8540   20.4730 C   0  0  0  0  0  0  0  0  0  0  0  0
   12.2560   -1.9010   24.2780 C   0  0  0  0  0  0  0  0  0  0  0  0
   12.4000   -0.6080   25.0830 C   0  0  0  0  0  0  0  0  0  0  0  0
   13.3210   -1.8920   23.2250 C   0  0  0  0  0  0  0  0  0  0  0  0
   12.6270   -3.0390   25.2370 C   0  0  0  0  0  0  0  0  0  0  0  0
    5.6300    4.3020   22.8610 C   0  0  0  0  0  0  0  0  0  0  0  0
    9.2170    1.4080   24.9230 C   0  0  0  0  0  0  0  0  0  0  0  0
   12.9440   -1.4630   21.8390 C   0  0  0  0  0  0  0  0  0  0  0  0
    5.8770   -4.4920   19.8080 O   0  0  0  0  0  0  0  0  0  0  0  0
    0.6560   -1.2530   26.3240 C   0  0  0  0  0  0  0  0  0  0  0  0
    4.2550   -6.9930   26.0060 O   0  0  0  0  0  0  0  0  0  0  0  0
    5.8970   -5.3280   26.9330 O   0  0  0  0  0  0  0  0  0  0  0  0
    1.8240   -6.1330   24.9790 C   0  0  0  0  0  0  0  0  0  0  0  0
    4.8970   -5.6980   25.9520 S   0  0  0  0  0  0  0  0  0  0  0  0
    6.3100    0.4260   17.8030 N   0  0  0  0  0  0  0  0  0  0  0  0
    5.2120    1.1890   17.8130 C   0  0  0  0  0  0  0  0  0  0  0  0
    4.4740    1.6010   18.9490 C   0  0  0  0  0  0  0  0  0  0  0  0
    4.9480    1.1730   20.1800 C   0  0  0  0  0  0  0  0  0  0  0  0
    6.1190    0.3700   20.1840 C   0  0  0  0  0  0  0  0  0  0  0  0
    6.7440    0.0280   18.9880 C   0  0  0  0  0  0  0  0  0  0  0  0
    9.3820   -1.4140   21.7430 C   0  0  0  0  0  0  0  0  0  0  0  0
   10.6460   -1.4970   22.3190 C   0  0  0  0  0  0  0  0  0  0  0  0
   10.8240   -1.8510   23.6630 C   0  0  0  0  0  0  0  0  0  0  0  0
    9.6580   -2.1300   24.4090 C   0  0  0  0  0  0  0  0  0  0  0  0
    8.3620   -2.0470   23.8120 C   0  0  0  0  0  0  0  0  0  0  0  0
    8.2150   -1.6810   22.4590 C   0  0  0  0  0  0  0  0  0  0  0  0
    9.1430    2.7170   23.3330 C   0  0  1  0  0  0  0  0  0  0  0  0
    9.4840    3.8520   22.5710 C   0  0  1  0  0  0  0  0  0  0  0  0
    9.1760    5.1340   23.0560 C   0  0  0  0  0  0  0  0  0  0  0  0
    7.8250    5.3450   22.9980 C   0  0  0  0  0  0  0  0  0  0  0  0
    7.1500    4.1460   22.7690 C   0  0  1  0  0  0  0  0  0  0  0  0
    7.6690    3.0340   23.5800 C   0  0  1  0  0  0  0  0  0  0  0  0
    1.6510   -2.3690   26.1920 C   0  0  0  0  0  0  0  0  0  0  0  0
    1.2330   -3.7200   25.6300 C   0  0  0  0  0  0  0  0  0  0  0  0
    2.2350   -4.7980   25.5330 C   0  0  0  0  0  0  0  0  0  0  0  0
    3.6050   -4.4730   26.0050 C   0  0  0  0  0  0  0  0  0  0  0  0
    3.9330   -3.2000   26.5050 C   0  0  0  0  0  0  0  0  0  0  0  0
    2.9790   -2.1760   26.5950 C   0  0  0  0  0  0  0  0  0  0  0  0
    6.6530   -5.0670   21.9130 N   0  0  0  0  0  0  0  0  0  0  0  0
    5.7260   -6.1970   22.0080 C   0  0  0  0  0  0  0  0  0  0  0  0
    4.8500   -6.1240   23.2620 C   0  0  0  0  0  0  0  0  0  0  0  0
    5.5380   -5.3970   24.4050 N   0  0  0  0  0  0  0  0  0  0  0  0
    6.9600   -5.1930   24.3120 C   0  0  0  0  0  0  0  0  0  0  0  0
    7.4840   -5.0230   23.0490 C   0  0  0  0  0  0  0  0  0  0  0  0
    8.8390   -4.8160   22.9360 C   0  0  0  0  0  0  0  0  0  0  0  0
    9.6890   -4.7920   24.0320 C   0  0  0  0  0  0  0  0  0  0  0  0
    9.1870   -4.9730   25.2830 C   0  0  0  0  0  0  0  0  0  0  0  0
    7.8230   -5.1660   25.4290 C   0  0  0  0  0  0  0  0  0  0  0  0
  2  4  1  0
  3  4  1  0
  3  7  1  0
  6  7  1  0
  7  9  2  0
  1 11  1  6
  8 11  2  0
  5 12  1  0
 12 11  1  6
  5 13  1  0
 10 13  2  0
 13 14  1  0
 14 15  1  6
 16 17  1  0
 16 18  1  0
 16 19  1  0
  9 21  1  0
 18 22  1  0
 14 23  1  0
 25 28  2  0
 26 28  2  0
 29 30  2  0
 30 31  1  0
 31 32  2  0
 12 33  1  0
 32 33  1  0
 29 34  1  0
 33 34  2  0
 35 36  2  0
 16 37  1  0
 36 37  1  0
 37 38  2  0
 38 39  1  0
  5 40  1  0
 35 40  1  0
 39 40  2  0
  1 41  1  0
 41  9  1  1
  6 42  1  0
 41 42  1  0
 42 43  1  1
 43 44  1  0
 45 20  1  1
 44 45  1  0
  1 46  1  0
 41 46  1  0
 46 45  1  6
 24 47  1  0
 47 48  2  0
 27 49  1  0
 48 49  1  0
 28 50  1  0
 49 50  2  0
 50 51  1  0
 47 52  1  0
 51 52  2  0
 14 53  1  0
 53 54  1  0
 54 55  1  0
 28 56  1  0
 55 56  1  0
 56 57  1  0
 53 58  1  0
 57 58  2  0
 58 59  1  0
 59 60  2  0
 60 61  1  0
 57 62  1  0
 61 62  2  0
M  END
