x0771-x2705-x3117-x2572
     RDKit          3D

 54 60  0  0  0  0  0  0  0  0999 V2000
    6.8550   -1.4110   22.0200 N   0  0  0  0  0  0  0  0  0  0  0  0
    6.8300   -4.4300   20.3260 C   0  0  2  0  0  0  0  0  0  0  0  0
    4.8100   -3.0120   21.3180 O   0  0  0  0  0  0  0  0  0  0  0  0
    7.0780   -3.6480   21.4870 C   0  0  2  0  0  0  0  0  0  0  0  0
    7.3730    2.0620   22.8460 N   0  0  0  0  0  0  0  0  0  0  0  0
    8.8230    0.9310   21.4570 O   0  0  0  0  0  0  0  0  0  0  0  0
    6.0950   -2.6290   21.6030 C   0  0  0  0  0  0  0  0  0  0  0  0
    6.5720   -0.0060   21.6030 C   0  0  1  0  0  0  0  0  0  0  0  0
    7.7040    1.0280   21.9680 C   0  0  0  0  0  0  0  0  0  0  0  0
   10.1420    2.0820   23.9970 C   0  0  0  0  0  0  0  0  0  0  0  0
    9.2930    1.2400   24.9490 C   0  0  0  0  0  0  0  0  0  0  0  0
    6.1410    4.5250   21.9020 C   0  0  0  0  0  0  0  0  0  0  0  0
   11.9250   -1.5040   23.2910 C   0  0  2  0  0  0  0  0  0  0  0  0
   12.4540   -0.1870   23.9110 C   0  0  0  0  0  0  0  0  0  0  0  0
   12.4050   -2.7410   24.0910 C   0  0  0  0  0  0  0  0  0  0  0  0
   12.6700   -1.6840   21.9350 C   0  0  0  0  0  0  0  0  0  0  0  0
   13.3970   -2.5700   25.2190 C   0  0  0  0  0  0  0  0  0  0  0  0
    5.5570   -4.3510   19.7040 O   0  0  0  0  0  0  0  0  0  0  0  0
    0.6160   -1.3410   26.0890 C   0  0  0  0  0  0  0  0  0  0  0  0
    4.4410   -6.9320   25.8100 O   0  0  0  0  0  0  0  0  0  0  0  0
    6.0390   -5.2330   26.7130 O   0  0  0  0  0  0  0  0  0  0  0  0
    1.9200   -6.1140   24.9030 C   0  0  0  0  0  0  0  0  0  0  0  0
    5.0410   -5.6180   25.7450 S   0  0  0  0  0  0  0  0  0  0  0  0
    4.0740    1.4190   21.2790 C   0  0  0  0  0  0  0  0  0  0  0  0
   13.3120   -1.8400   20.9790 N   0  0  0  0  0  0  0  0  0  0  0  0
    6.3250    0.2880   17.8880 N   0  0  0  0  0  0  0  0  0  0  0  0
    5.1760    0.9760   17.8240 C   0  0  0  0  0  0  0  0  0  0  0  0
    4.4340    1.3430   18.8950 C   0  0  0  0  0  0  0  0  0  0  0  0
    4.9190    0.9880   20.1140 C   0  0  0  0  0  0  0  0  0  0  0  0
    6.1150    0.2870   20.2080 C   0  0  0  0  0  0  0  0  0  0  0  0
    6.8340   -0.0840   19.0680 C   0  0  0  0  0  0  0  0  0  0  0  0
    9.7180   -1.4360   24.3360 N   0  0  0  0  0  0  0  0  0  0  0  0
    8.4210   -1.4180   23.9610 N   0  0  0  0  0  0  0  0  0  0  0  0
    8.1800   -1.4480   22.6310 C   0  0  0  0  0  0  0  0  0  0  0  0
    9.5230   -1.5000   22.0800 C   0  0  0  0  0  0  0  0  0  0  0  0
   10.3810   -1.4840   23.1770 C   0  0  0  0  0  0  0  0  0  0  0  0
    9.4220    3.3140   23.4980 C   0  0  0  0  0  0  0  0  0  0  0  0
   10.1040    4.5510   23.5850 C   0  0  0  0  0  0  0  0  0  0  0  0
    9.5200    5.7410   23.1430 C   0  0  0  0  0  0  0  0  0  0  0  0
    8.2360    5.7060   22.6030 C   0  0  0  0  0  0  0  0  0  0  0  0
    7.5250    4.4880   22.5010 C   0  0  0  0  0  0  0  0  0  0  0  0
    8.1190    3.2810   22.9550 C   0  0  0  0  0  0  0  0  0  0  0  0
    1.6750   -2.4260   25.9850 C   0  0  0  0  0  0  0  0  0  0  0  0
    1.4170   -3.7260   25.5280 C   0  0  0  0  0  0  0  0  0  0  0  0
    2.3610   -4.7680   25.4140 C   0  0  0  0  0  0  0  0  0  0  0  0
    3.6810   -4.4650   25.7980 C   0  0  0  0  0  0  0  0  0  0  0  0
    3.9590   -3.1650   26.2570 C   0  0  0  0  0  0  0  0  0  0  0  0
    2.9940   -2.1670   26.3520 C   0  0  0  0  0  0  0  0  0  0  0  0
    6.9030   -5.2520   21.5700 C   0  0  1  0  0  0  0  0  0  0  0  0
    5.9240   -6.3300   21.9110 C   0  0  0  0  0  0  0  0  0  0  0  0
    4.9980   -6.0710   23.1060 C   0  0  0  0  0  0  0  0  0  0  0  0
    5.7780   -5.4710   24.2180 N   0  0  0  0  0  0  0  0  0  0  0  0
    6.4790   -4.2190   23.9000 C   0  0  0  0  0  0  0  0  0  0  0  0
    7.3490   -4.4090   22.7070 C   0  0  2  0  0  0  0  0  0  0  0  0
  2  4  1  0
  1  7  1  0
  3  7  2  0
  4  7  1  1
  1  8  1  0
  5  9  1  0
  6  9  2  0
  8  9  1  6
 10 11  1  0
 13 14  1  1
 13 15  1  0
 13 16  1  0
 15 17  1  0
  2 18  1  1
 20 23  2  0
 21 23  2  0
 16 25  3  0
 26 27  2  0
 27 28  1  0
 24 29  1  0
 28 29  2  0
  8 30  1  0
 29 30  1  0
 26 31  1  0
 30 31  2  0
 32 33  1  0
  1 34  1  0
 33 34  1  0
 34 35  2  0
 13 36  1  0
 32 36  2  0
 35 36  1  0
 10 37  1  0
 37 38  2  0
 38 39  1  0
 39 40  2  0
 12 41  1  0
 40 41  1  0
  5 42  1  0
 37 42  1  0
 41 42  2  0
 19 43  1  0
 43 44  2  0
 22 45  1  0
 44 45  1  0
 23 46  1  0
 45 46  2  0
 46 47  1  0
 43 48  1  0
 47 48  2  0
  2 49  1  0
  4 49  1  0
 49 50  1  1
 50 51  1  0
 23 52  1  0
 51 52  1  0
 52 53  1  0
  4 54  1  0
 49 54  1  0
 54 53  1  1
M  END
