x0771-x2705-x3117-x1493
     RDKit          3D

 53 59  0  0  0  0  0  0  0  0999 V2000
    6.9810   -1.4630   21.8310 N   0  0  0  0  0  0  0  0  0  0  0  0
    6.7460   -4.2900   20.2950 C   0  0  2  0  0  0  0  0  0  0  0  0
    4.9890   -3.4310   21.5030 O   0  0  0  0  0  0  0  0  0  0  0  0
    6.8200   -3.5290   21.5190 C   0  0  2  0  0  0  0  0  0  0  0  0
    7.5310    1.9620   22.8540 N   0  0  0  0  0  0  0  0  0  0  0  0
    8.7880    1.1610   21.1120 O   0  0  0  0  0  0  0  0  0  0  0  0
    5.8150   -2.4350   21.6710 C   0  0  0  0  0  0  0  0  0  0  0  0
    6.6400   -0.0090   21.5730 C   0  0  1  0  0  0  0  0  0  0  0  0
    7.7730    1.0650   21.8180 C   0  0  0  0  0  0  0  0  0  0  0  0
   10.2690    2.0540   23.9200 C   0  0  0  0  0  0  0  0  0  0  0  0
    9.3870    1.1300   24.7630 C   0  0  0  0  0  0  0  0  0  0  0  0
    6.1350    4.4680   21.9290 C   0  0  0  0  0  0  0  0  0  0  0  0
   11.9940   -1.5810   23.1960 C   0  0  0  0  0  0  0  0  0  0  0  0
   12.5210   -0.2580   23.8140 C   0  0  0  0  0  0  0  0  0  0  0  0
   12.4810   -2.7730   24.0550 C   0  0  0  0  0  0  0  0  0  0  0  0
   12.6560   -1.7520   21.8140 C   0  0  0  0  0  0  0  0  0  0  0  0
   13.4030   -2.5070   25.2180 C   0  0  0  0  0  0  0  0  0  0  0  0
    5.5130   -4.2070   19.5830 O   0  0  0  0  0  0  0  0  0  0  0  0
    0.4120   -1.4780   26.2280 C   0  0  0  0  0  0  0  0  0  0  0  0
    6.2200   -5.6410   24.6740 O   0  0  0  0  0  0  0  0  0  0  0  0
    6.1570   -5.8010   26.8650 C   0  0  0  0  0  0  0  0  0  0  0  0
    2.3140   -6.0350   24.8980 C   0  0  0  0  0  0  0  0  0  0  0  0
    5.3070   -4.9890   25.5610 S   0  0  2  0  0  0  0  0  0  0  0  0
    6.7900   -6.3730   27.6490 O   0  0  0  0  0  0  0  0  0  0  0  0
    6.3270    0.3540   17.8710 N   0  0  0  0  0  0  0  0  0  0  0  0
    5.2090    1.0620   17.8060 C   0  0  0  0  0  0  0  0  0  0  0  0
    4.4680    1.4540   18.8790 C   0  0  0  0  0  0  0  0  0  0  0  0
    4.8970    1.1120   20.1250 C   0  0  0  0  0  0  0  0  0  0  0  0
    6.1080    0.3570   20.2210 C   0  0  0  0  0  0  0  0  0  0  0  0
    6.7930   -0.0110   19.0670 C   0  0  0  0  0  0  0  0  0  0  0  0
    9.7680   -1.7600   24.2820 N   0  0  0  0  0  0  0  0  0  0  0  0
    8.4570   -1.7340   23.8890 N   0  0  0  0  0  0  0  0  0  0  0  0
    8.2550   -1.5700   22.5190 C   0  0  0  0  0  0  0  0  0  0  0  0
    9.6010   -1.5020   22.0790 C   0  0  0  0  0  0  0  0  0  0  0  0
   10.4520   -1.6130   23.1510 C   0  0  0  0  0  0  0  0  0  0  0  0
    9.5160    3.2860   23.4660 C   0  0  0  0  0  0  0  0  0  0  0  0
   10.1730    4.5380   23.5670 C   0  0  0  0  0  0  0  0  0  0  0  0
    9.5490    5.7540   23.1550 C   0  0  0  0  0  0  0  0  0  0  0  0
    8.2490    5.7790   22.6220 C   0  0  0  0  0  0  0  0  0  0  0  0
    7.5270    4.4620   22.5040 C   0  0  0  0  0  0  0  0  0  0  0  0
    8.2060    3.2090   22.9510 C   0  0  0  0  0  0  0  0  0  0  0  0
    1.6140   -2.3460   26.0520 C   0  0  0  0  0  0  0  0  0  0  0  0
    1.5020   -3.7730   25.5650 C   0  0  0  0  0  0  0  0  0  0  0  0
    2.5730   -4.6340   25.3870 C   0  0  0  0  0  0  0  0  0  0  0  0
    3.8320   -4.0780   25.7000 C   0  0  0  0  0  0  0  0  0  0  0  0
    3.9800   -2.7540   26.1520 C   0  0  0  0  0  0  0  0  0  0  0  0
    2.8930   -1.8960   26.3270 C   0  0  0  0  0  0  0  0  0  0  0  0
    6.7930   -5.1280   21.5060 C   0  0  1  0  0  0  0  0  0  0  0  0
    5.7860   -6.0170   21.8700 C   0  0  0  0  0  0  0  0  0  0  0  0
    4.9050   -5.6980   22.9110 C   0  0  0  0  0  0  0  0  0  0  0  0
    5.4160   -4.6990   23.8710 N   0  0  0  0  0  0  0  0  0  0  0  0
    6.3570   -3.6730   23.2760 C   0  0  0  0  0  0  0  0  0  0  0  0
    7.3980   -4.3820   22.6380 C   0  0  2  0  0  0  0  0  0  0  0  0
  2  4  1  0
  1  7  1  0
  3  7  2  0
  4  7  1  1
  1  8  1  0
  5  9  1  0
  6  9  2  0
  8  9  1  6
 10 11  1  0
 13 14  1  0
 13 15  1  0
 13 16  1  0
 15 17  1  0
  2 18  1  1
 20 23  2  0
 21 23  2  0
 21 24  2  0
 25 26  2  0
 26 27  1  0
 27 28  2  0
  8 29  1  0
 28 29  1  0
 25 30  1  0
 29 30  2  0
 31 32  1  0
  1 33  1  0
 32 33  1  0
 33 34  2  0
 13 35  1  0
 31 35  2  0
 34 35  1  0
 10 36  1  0
 36 37  2  0
 37 38  1  0
 38 39  2  0
 12 40  1  0
 39 40  1  0
  5 41  1  0
 36 41  1  0
 40 41  2  0
 19 42  1  0
 42 43  2  0
 22 44  1  0
 43 44  1  0
 23 45  1  6
 44 45  2  0
 45 46  1  0
 42 47  1  0
 46 47  2  0
  2 48  1  0
  4 48  1  0
 48 49  1  1
 49 50  1  0
 23 51  1  0
 50 51  1  0
 51 52  1  0
  4 53  1  0
 48 53  1  0
 53 52  1  1
M  END
