x0770-x0946
     RDKit          3D

 26 28  0  0  0  0  0  0  0  0999 V2000
    7.3640   -3.0030   18.8560 C   0  0  0  0  0  0  0  0  0  0  0  0
    5.3950   -4.2140   19.8000 O   0  0  0  0  0  0  0  0  0  0  0  0
   13.3970   -1.1350   21.6030 Cl  0  0  0  0  0  0  0  0  0  0  0  0
    6.3340   -3.3720   19.8650 C   0  0  0  0  0  0  0  0  0  0  0  0
    9.6310   -2.8050   23.8220 C   0  0  0  0  0  0  0  0  0  0  0  0
   10.0210    5.4290   22.8340 N   0  0  0  0  0  0  0  0  0  0  0  0
    9.9580    5.0250   24.6770 O   0  0  0  0  0  0  0  0  0  0  0  0
   11.8680    5.8570   23.2630 O   0  0  0  0  0  0  0  0  0  0  0  0
   10.6880    5.0420   23.4350 S   0  0  0  0  0  0  0  0  0  0  0  0
    6.5700   -2.5920   21.0160 N   0  0  0  0  0  0  0  0  0  0  0  0
    7.5270   -1.4990   21.0520 C   0  0  0  0  0  0  0  0  0  0  0  0
    8.7530   -1.8720   21.8230 C   0  0  0  0  0  0  0  0  0  0  0  0
    8.4400   -2.2720   23.1380 N   0  0  0  0  0  0  0  0  0  0  0  0
    7.6090   -3.3590   23.0620 C   0  0  0  0  0  0  0  0  0  0  0  0
    6.3070   -3.1370   22.2890 C   0  0  0  0  0  0  0  0  0  0  0  0
   10.7340   -0.7040   24.9700 C   0  0  0  0  0  0  0  0  0  0  0  0
   11.2140    0.4570   24.4090 C   0  0  0  0  0  0  0  0  0  0  0  0
   11.7630    0.4290   23.1730 C   0  0  2  0  0  0  0  0  0  0  0  0
   12.2130   -0.8230   22.7740 C   0  0  0  0  0  0  0  0  0  0  0  0
   11.7690   -2.0160   23.3130 C   0  0  0  0  0  0  0  0  0  0  0  0
   10.8390   -1.9490   24.3110 C   0  0  2  0  0  0  0  0  0  0  0  0
   12.7280    1.5950   23.0410 C   0  0  0  0  0  0  0  0  0  0  0  0
   12.3530    3.0160   22.8320 C   0  0  0  0  0  0  0  0  0  0  0  0
   11.0100    3.4150   22.6850 C   0  0  1  0  0  0  0  0  0  0  0  0
   10.1180    2.3310   22.4680 C   0  0  0  0  0  0  0  0  0  0  0  0
   10.4430    0.9460   22.6500 C   0  0  0  0  0  0  0  0  0  0  0  0
  1  4  1  0
  2  4  2  0
  9  6  1  0
  7  9  2  0
  8  9  2  0
  4 10  1  0
 10 11  1  0
 11 12  1  0
  5 13  1  0
 12 13  1  0
 13 14  1  0
 10 15  1  0
 14 15  1  0
 16 17  2  0
 18 17  1  1
  3 19  1  0
 18 19  1  0
 19 20  2  0
 21  5  1  6
 16 21  1  0
 20 21  1  0
 18 22  1  0
 22 23  2  0
 24  9  1  1
 23 24  1  0
 24 25  1  0
 18 26  1  0
 25 26  2  0
M  END
