x0771-x2705-x2649-x0072
     RDKit          3D

 57 65  0  0  0  0  0  0  0  0999 V2000
    7.1350   -1.6460   22.0160 N   0  0  0  0  0  0  0  0  0  0  0  0
    6.6640   -4.2360   20.2070 C   0  0  2  0  0  0  0  0  0  0  0  0
    4.9920   -3.3520   21.3980 O   0  0  0  0  0  0  0  0  0  0  0  0
    6.8010   -3.5270   21.4750 C   0  0  2  0  0  0  0  0  0  0  0  0
    7.6470    2.0050   22.7580 N   0  0  0  0  0  0  0  0  0  0  0  0
    9.2230    0.8460   21.5340 O   0  0  0  0  0  0  0  0  0  0  0  0
    5.8730   -2.4180   21.7200 C   0  0  0  0  0  0  0  0  0  0  0  0
    6.9570   -0.1560   21.6890 C   0  0  1  0  0  0  0  0  0  0  0  0
    8.0890    0.9310   21.9740 C   0  0  0  0  0  0  0  0  0  0  0  0
   10.1910    2.0740   23.9460 C   0  0  0  0  0  0  0  0  0  0  0  0
    9.3430    1.3330   24.9690 C   0  0  0  0  0  0  0  0  0  0  0  0
    6.2530    4.4170   21.8080 C   0  0  0  0  0  0  0  0  0  0  0  0
   12.1540   -1.3920   23.1850 C   0  0  0  0  0  0  0  0  0  0  0  0
   12.5940    0.0480   23.5070 C   0  0  0  0  0  0  0  0  0  0  0  0
   12.7490   -2.3320   24.2440 C   0  0  0  0  0  0  0  0  0  0  0  0
   12.7640   -1.7900   21.8240 C   0  0  0  0  0  0  0  0  0  0  0  0
    5.4780   -4.0560   19.4490 O   0  0  0  0  0  0  0  0  0  0  0  0
    0.4830   -1.5640   25.9590 C   0  0  0  0  0  0  0  0  0  0  0  0
    4.6950   -6.8500   26.0240 O   0  0  0  0  0  0  0  0  0  0  0  0
    6.4250   -4.9750   26.5980 N   0  0  0  0  0  0  0  0  0  0  0  0
    2.2690   -6.1090   25.0510 C   0  0  0  0  0  0  0  0  0  0  0  0
    5.2970   -5.5510   25.7850 S   0  0  2  0  0  0  0  0  0  0  0  0
    4.1660    1.4170   21.3770 C   0  0  0  0  0  0  0  0  0  0  0  0
    7.7830   -4.5460   26.0140 S   0  0  0  0  0  0  0  0  0  0  0  0
    8.6830   -5.5980   25.5380 O   0  0  0  0  0  0  0  0  0  0  0  0
    8.5030   -3.5840   26.8280 O   0  0  0  0  0  0  0  0  0  0  0  0
    7.4190   -3.6560   24.5950 N   0  0  0  0  0  0  0  0  0  0  0  0
    8.4750   -3.2430   23.8690 C   0  0  0  0  0  0  0  0  0  0  0  0
    6.4250    0.1670   18.0020 N   0  0  0  0  0  0  0  0  0  0  0  0
    5.2790    0.8350   17.9280 C   0  0  0  0  0  0  0  0  0  0  0  0
    4.5040    1.2610   18.9630 C   0  0  0  0  0  0  0  0  0  0  0  0
    4.9820    0.9640   20.2180 C   0  0  0  0  0  0  0  0  0  0  0  0
    6.3000    0.2080   20.3520 C   0  0  0  0  0  0  0  0  0  0  0  0
    6.9330   -0.1490   19.2150 C   0  0  0  0  0  0  0  0  0  0  0  0
    9.8980   -1.0960   24.2320 N   0  0  0  0  0  0  0  0  0  0  0  0
    8.5980   -0.9470   23.7590 N   0  0  0  0  0  0  0  0  0  0  0  0
    8.3210   -2.0590   22.7840 C   0  0  2  0  0  0  0  0  0  0  0  0
    9.6680   -2.1090   22.2750 C   0  0  0  0  0  0  0  0  0  0  0  0
   10.6260   -1.5570   23.1710 C   0  0  0  0  0  0  0  0  0  0  0  0
    9.5020    3.3400   23.4640 C   0  0  0  0  0  0  0  0  0  0  0  0
   10.1790    4.5460   23.6330 C   0  0  0  0  0  0  0  0  0  0  0  0
    9.5830    5.7420   23.2060 C   0  0  0  0  0  0  0  0  0  0  0  0
    8.3040    5.6960   22.6130 C   0  0  0  0  0  0  0  0  0  0  0  0
    7.6130    4.4850   22.4380 C   0  0  0  0  0  0  0  0  0  0  0  0
    8.2330    3.3080   22.8720 C   0  0  0  0  0  0  0  0  0  0  0  0
    1.6740   -2.4720   25.9280 C   0  0  0  0  0  0  0  0  0  0  0  0
    1.5780   -3.8190   25.5430 C   0  0  0  0  0  0  0  0  0  0  0  0
    2.6480   -4.7260   25.4950 C   0  0  0  0  0  0  0  0  0  0  0  0
    3.9570   -4.3720   25.8360 C   0  0  0  0  0  0  0  0  0  0  0  0
    4.2350   -2.9450   26.2730 C   0  0  0  0  0  0  0  0  0  0  0  0
    3.0560   -1.9850   26.3140 C   0  0  0  0  0  0  0  0  0  0  0  0
    6.4970   -5.1080   21.3780 C   0  0  1  0  0  0  0  0  0  0  0  0
    5.3730   -5.8270   21.7430 C   0  0  0  0  0  0  0  0  0  0  0  0
    5.2280   -6.3280   23.1500 C   0  0  0  0  0  0  0  0  0  0  0  0
    5.8960   -5.5300   24.1970 N   0  0  0  0  0  0  0  0  0  0  0  0
    6.5090   -4.3190   23.7170 C   0  0  2  0  0  0  0  0  0  0  0  0
    7.2010   -4.5120   22.4930 C   0  0  2  0  0  0  0  0  0  0  0  0
  2  4  1  0
  1  7  1  0
  3  7  2  0
  4  7  1  1
  1  8  1  0
  5  9  1  0
  6  9  2  0
  8  9  1  6
 10 11  1  0
 13 14  1  0
 13 15  1  0
 13 16  1  0
  2 17  1  1
 19 22  2  0
 20 22  2  0
 24 20  1  0
 24 25  2  0
 24 26  2  0
 24 27  1  0
 27 28  1  0
 29 30  2  0
 30 31  1  0
 23 32  1  0
 31 32  2  0
  8 33  1  0
 32 33  1  0
 29 34  1  0
 33 34  2  0
 35 36  2  0
  1 37  1  0
 37 28  1  1
 37 36  1  0
 37 38  1  0
 13 39  1  0
 35 39  1  0
 38 39  2  0
 10 40  1  0
 40 41  2  0
 41 42  1  0
 42 43  2  0
 12 44  1  0
 43 44  1  0
  5 45  1  0
 40 45  1  0
 44 45  2  0
 18 46  1  0
 46 47  2  0
 21 48  1  0
 47 48  1  0
 22 49  1  6
 48 49  2  0
 49 50  1  0
 46 51  1  0
 50 51  2  0
  2 52  1  0
  4 52  1  0
 52 53  1  1
 53 54  1  0
 22 55  1  0
 54 55  1  0
 56 27  1  1
 55 56  1  0
  4 57  1  0
 52 57  1  0
 57 56  1  1
M  END
