x0771-x2705-x0691-x2572
     RDKit          3D

 54 60  0  0  0  0  0  0  0  0999 V2000
    6.8610   -1.4310   21.8930 N   0  0  0  0  0  0  0  0  0  0  0  0
    6.8150   -4.5180   20.3210 C   0  0  2  0  0  0  0  0  0  0  0  0
    4.7880   -2.9860   21.3120 O   0  0  0  0  0  0  0  0  0  0  0  0
    6.9560   -3.7260   21.4760 C   0  0  2  0  0  0  0  0  0  0  0  0
    7.4780    2.0690   23.0240 N   0  0  0  0  0  0  0  0  0  0  0  0
    8.7280    1.2860   21.0500 O   0  0  0  0  0  0  0  0  0  0  0  0
    6.0690   -2.6410   21.5630 C   0  0  0  0  0  0  0  0  0  0  0  0
    6.5110   -0.0300   21.5440 C   0  0  1  0  0  0  0  0  0  0  0  0
    7.5970    1.1010   21.9150 C   0  0  0  0  0  0  0  0  0  0  0  0
   10.1750    2.1100   24.0190 C   0  0  0  0  0  0  0  0  0  0  0  0
    9.2870    1.2980   24.9530 C   0  0  0  0  0  0  0  0  0  0  0  0
    6.1470    4.5780   22.0130 C   0  0  0  0  0  0  0  0  0  0  0  0
   11.9640   -1.5510   23.2850 C   0  0  0  0  0  0  0  0  0  0  0  0
   12.4300   -0.1880   23.8530 C   0  0  0  0  0  0  0  0  0  0  0  0
   12.4910   -2.6200   24.2700 C   0  0  0  0  0  0  0  0  0  0  0  0
   12.6630   -1.7640   21.9970 C   0  0  0  0  0  0  0  0  0  0  0  0
    5.5720   -4.4340   19.6230 O   0  0  0  0  0  0  0  0  0  0  0  0
    0.6060   -1.4230   26.0540 C   0  0  0  0  0  0  0  0  0  0  0  0
    4.5490   -6.8720   25.8820 O   0  0  0  0  0  0  0  0  0  0  0  0
    6.1220   -5.1240   26.7040 O   0  0  0  0  0  0  0  0  0  0  0  0
    2.0220   -6.2230   25.1940 C   0  0  0  0  0  0  0  0  0  0  0  0
    5.1180   -5.5530   25.7680 S   0  0  0  0  0  0  0  0  0  0  0  0
    3.3660   -0.8250   26.4910 F   0  0  0  0  0  0  0  0  0  0  0  0
    4.1300    1.5700   21.5140 C   0  0  0  0  0  0  0  0  0  0  0  0
   13.2930   -1.9010   21.0300 N   0  0  0  0  0  0  0  0  0  0  0  0
    6.3400    0.3860   17.7920 N   0  0  0  0  0  0  0  0  0  0  0  0
    5.2660    1.1510   17.7090 C   0  0  0  0  0  0  0  0  0  0  0  0
    4.4850    1.5760   18.8740 C   0  0  0  0  0  0  0  0  0  0  0  0
    4.8860    1.1540   20.2910 C   0  0  0  0  0  0  0  0  0  0  0  0
    6.0120    0.3850   20.2140 C   0  0  0  0  0  0  0  0  0  0  0  0
    6.6800    0.0270   19.0350 C   0  0  0  0  0  0  0  0  0  0  0  0
    9.5760   -1.6240   24.2140 N   0  0  0  0  0  0  0  0  0  0  0  0
    8.2740   -1.6040   23.9070 N   0  0  0  0  0  0  0  0  0  0  0  0
    8.1610   -1.5060   22.5760 C   0  0  0  0  0  0  0  0  0  0  0  0
    9.5220   -1.4710   22.0580 C   0  0  0  0  0  0  0  0  0  0  0  0
   10.4210   -1.5480   23.1450 C   0  0  0  0  0  0  0  0  0  0  0  0
    9.4750    3.3570   23.5310 C   0  0  0  0  0  0  0  0  0  0  0  0
   10.1770    4.5570   23.5790 C   0  0  0  0  0  0  0  0  0  0  0  0
    9.5810    5.7310   23.1340 C   0  0  0  0  0  0  0  0  0  0  0  0
    8.2660    5.7270   22.6260 C   0  0  0  0  0  0  0  0  0  0  0  0
    7.5390    4.5090   22.5720 C   0  0  0  0  0  0  0  0  0  0  0  0
    8.1540    3.3200   23.0360 C   0  0  0  0  0  0  0  0  0  0  0  0
    1.7060   -2.4460   25.9590 C   0  0  0  0  0  0  0  0  0  0  0  0
    1.4340   -3.7860   25.6390 C   0  0  0  0  0  0  0  0  0  0  0  0
    2.4070   -4.7910   25.5490 C   0  0  0  0  0  0  0  0  0  0  0  0
    3.7420   -4.4150   25.8040 C   0  0  0  0  0  0  0  0  0  0  0  0
    4.0250   -3.0800   26.1130 C   0  0  0  0  0  0  0  0  0  0  0  0
    3.0380   -2.0920   26.1920 C   0  0  0  0  0  0  0  0  0  0  0  0
    6.8300   -5.2920   21.5600 C   0  0  1  0  0  0  0  0  0  0  0  0
    5.7140   -6.2690   21.9050 C   0  0  0  0  0  0  0  0  0  0  0  0
    4.8960   -5.7730   23.0690 C   0  0  0  0  0  0  0  0  0  0  0  0
    5.7850   -5.4300   24.2020 N   0  0  0  0  0  0  0  0  0  0  0  0
    6.6150   -4.2310   23.9010 C   0  0  0  0  0  0  0  0  0  0  0  0
    7.4420   -4.4700   22.6490 C   0  0  2  0  0  0  0  0  0  0  0  0
  2  4  1  0
  1  7  1  0
  3  7  2  0
  4  7  1  1
  1  8  1  0
  5  9  1  0
  6  9  2  0
  8  9  1  6
 10 11  1  0
 13 14  1  0
 13 15  1  0
 13 16  1  0
  2 17  1  1
 19 22  2  0
 20 22  2  0
 16 25  3  0
 26 27  2  0
 27 28  1  0
 24 29  1  0
 28 29  2  0
  8 30  1  0
 29 30  1  0
 26 31  1  0
 30 31  2  0
 32 33  1  0
  1 34  1  0
 33 34  1  0
 34 35  2  0
 13 36  1  0
 32 36  2  0
 35 36  1  0
 10 37  1  0
 37 38  2  0
 38 39  1  0
 39 40  2  0
 12 41  1  0
 40 41  1  0
  5 42  1  0
 37 42  1  0
 41 42  2  0
 18 43  1  0
 43 44  2  0
 21 45  1  0
 44 45  1  0
 22 46  1  0
 45 46  2  0
 46 47  1  0
 23 48  1  0
 43 48  1  0
 47 48  2  0
  2 49  1  0
  4 49  1  0
 49 50  1  1
 50 51  1  0
 22 52  1  0
 51 52  1  0
 52 53  1  0
  4 54  1  0
 49 54  1  0
 54 53  1  1
M  END
