x0771-x2705-x2572-x0755
     RDKit          3D

 54 60  0  0  0  0  0  0  0  0999 V2000
    6.8720   -1.4730   22.0020 N   0  0  0  0  0  0  0  0  0  0  0  0
    6.7870   -4.5030   20.2780 C   0  0  2  0  0  0  0  0  0  0  0  0
    4.7540   -2.9780   21.3640 O   0  0  0  0  0  0  0  0  0  0  0  0
    6.9140   -3.7730   21.4870 C   0  0  2  0  0  0  0  0  0  0  0  0
    7.3860    2.0360   22.8270 N   0  0  0  0  0  0  0  0  0  0  0  0
    8.8560    0.8760   21.4800 O   0  0  0  0  0  0  0  0  0  0  0  0
    6.0360   -2.6700   21.6230 C   0  0  0  0  0  0  0  0  0  0  0  0
    6.5950   -0.0470   21.6060 C   0  0  1  0  0  0  0  0  0  0  0  0
    7.7290    0.9870   21.9720 C   0  0  0  0  0  0  0  0  0  0  0  0
   10.1490    2.0520   23.9760 C   0  0  0  0  0  0  0  0  0  0  0  0
    9.2820    1.2520   24.9480 C   0  0  0  0  0  0  0  0  0  0  0  0
    6.1420    4.4880   21.8930 C   0  0  0  0  0  0  0  0  0  0  0  0
   12.0070   -1.5350   23.3370 C   0  0  0  0  0  0  0  0  0  0  0  0
   12.4980   -0.1730   23.8740 C   0  0  0  0  0  0  0  0  0  0  0  0
   12.4830   -2.6710   24.2940 C   0  0  0  0  0  0  0  0  0  0  0  0
   12.7420   -1.7600   21.9830 C   0  0  0  0  0  0  0  0  0  0  0  0
    5.5350   -4.3850   19.6110 O   0  0  0  0  0  0  0  0  0  0  0  0
    0.5320   -1.3870   26.0920 C   0  0  0  0  0  0  0  0  0  0  0  0
    4.4770   -6.8350   25.6690 O   0  0  0  0  0  0  0  0  0  0  0  0
    6.0110   -5.0830   26.6250 O   0  0  0  0  0  0  0  0  0  0  0  0
    1.9380   -6.0540   25.0480 C   0  0  0  0  0  0  0  0  0  0  0  0
    5.0240   -5.4890   25.6620 S   0  0  0  0  0  0  0  0  0  0  0  0
    5.2140   -2.5940   26.4670 F   0  0  0  0  0  0  0  0  0  0  0  0
    4.1070    1.3950   21.3430 C   0  0  0  0  0  0  0  0  0  0  0  0
   13.3310   -1.9060   20.9900 N   0  0  0  0  0  0  0  0  0  0  0  0
    6.3360    0.2880   17.8440 N   0  0  0  0  0  0  0  0  0  0  0  0
    5.1950    0.9800   17.8070 C   0  0  0  0  0  0  0  0  0  0  0  0
    4.4410    1.3500   18.9320 C   0  0  0  0  0  0  0  0  0  0  0  0
    4.9200    0.9830   20.1600 C   0  0  0  0  0  0  0  0  0  0  0  0
    6.1010    0.2810   20.2300 C   0  0  0  0  0  0  0  0  0  0  0  0
    6.7760   -0.0540   19.0600 C   0  0  0  0  0  0  0  0  0  0  0  0
    9.6360   -1.5020   24.2730 N   0  0  0  0  0  0  0  0  0  0  0  0
    8.3280   -1.4910   23.9760 N   0  0  0  0  0  0  0  0  0  0  0  0
    8.2050   -1.5060   22.6300 C   0  0  0  0  0  0  0  0  0  0  0  0
    9.5190   -1.5350   22.1000 C   0  0  0  0  0  0  0  0  0  0  0  0
   10.4600   -1.5270   23.1910 C   0  0  0  0  0  0  0  0  0  0  0  0
    9.4280    3.2850   23.4880 C   0  0  0  0  0  0  0  0  0  0  0  0
   10.1010    4.5010   23.5890 C   0  0  0  0  0  0  0  0  0  0  0  0
    9.4900    5.6930   23.1460 C   0  0  0  0  0  0  0  0  0  0  0  0
    8.2060    5.6710   22.5980 C   0  0  0  0  0  0  0  0  0  0  0  0
    7.5220    4.4570   22.4940 C   0  0  0  0  0  0  0  0  0  0  0  0
    8.1240    3.2540   22.9410 C   0  0  0  0  0  0  0  0  0  0  0  0
    1.6150   -2.4140   25.9800 C   0  0  0  0  0  0  0  0  0  0  0  0
    1.3340   -3.7200   25.5860 C   0  0  0  0  0  0  0  0  0  0  0  0
    2.3500   -4.6750   25.4830 C   0  0  0  0  0  0  0  0  0  0  0  0
    3.6800   -4.3270   25.7770 C   0  0  0  0  0  0  0  0  0  0  0  0
    3.9660   -3.0050   26.1730 C   0  0  0  0  0  0  0  0  0  0  0  0
    2.9340   -2.0560   26.2730 C   0  0  0  0  0  0  0  0  0  0  0  0
    6.7970   -5.3400   21.4820 C   0  0  1  0  0  0  0  0  0  0  0  0
    5.7770   -6.2010   21.8610 C   0  0  0  0  0  0  0  0  0  0  0  0
    4.8330   -5.7290   22.9070 C   0  0  0  0  0  0  0  0  0  0  0  0
    5.5700   -5.1280   24.0860 N   0  0  0  0  0  0  0  0  0  0  0  0
    7.0440   -4.7760   23.9660 C   0  0  0  0  0  0  0  0  0  0  0  0
    7.5190   -4.6040   22.5480 C   0  0  2  0  0  0  0  0  0  0  0  0
  2  4  1  0
  1  7  1  0
  3  7  2  0
  4  7  1  1
  1  8  1  0
  5  9  1  0
  6  9  2  0
  8  9  1  6
 10 11  1  0
 13 14  1  0
 13 15  1  0
 13 16  1  0
  2 17  1  1
 19 22  2  0
 20 22  2  0
 16 25  3  0
 26 27  2  0
 27 28  1  0
 24 29  1  0
 28 29  2  0
  8 30  1  0
 29 30  1  0
 26 31  1  0
 30 31  2  0
 32 33  1  0
  1 34  1  0
 33 34  2  0
 34 35  1  0
 13 36  1  0
 32 36  1  0
 35 36  2  0
 10 37  1  0
 37 38  2  0
 38 39  1  0
 39 40  2  0
 12 41  1  0
 40 41  1  0
  5 42  1  0
 37 42  1  0
 41 42  2  0
 18 43  1  0
 43 44  2  0
 21 45  1  0
 44 45  1  0
 22 46  1  0
 45 46  2  0
 23 47  1  0
 46 47  1  0
 43 48  1  0
 47 48  2  0
  2 49  1  0
  4 49  1  0
 49 50  1  1
 50 51  1  0
 22 52  1  0
 51 52  1  0
 52 53  1  0
  4 54  1  0
 49 54  1  0
 54 53  1  1
M  END
