x0770-x0669
     RDKit          3D

 17 18  0  0  0  0  0  0  0  0999 V2000
    6.0470   -2.0500   18.6810 C   0  0  0  0  0  0  0  0  0  0  0  0
    5.3260   -4.0700   19.7310 O   0  0  0  0  0  0  0  0  0  0  0  0
   13.3560   -1.7210   21.2170 Cl  0  0  0  0  0  0  0  0  0  0  0  0
    5.8550   -2.9590   19.8660 C   0  0  0  0  0  0  0  0  0  0  0  0
    9.2890   -2.2950   24.2320 C   0  0  0  0  0  0  0  0  0  0  0  0
    6.3620   -2.4920   21.0590 N   0  0  0  0  0  0  0  0  0  0  0  0
    7.3310   -1.3780   21.1050 C   0  0  0  0  0  0  0  0  0  0  0  0
    8.5550   -1.6520   21.9840 C   0  0  0  0  0  0  0  0  0  0  0  0
    8.1890   -2.2290   23.2740 N   0  0  0  0  0  0  0  0  0  0  0  0
    7.4960   -3.5090   23.0690 C   0  0  0  0  0  0  0  0  0  0  0  0
    6.1940   -3.3340   22.2620 C   0  0  0  0  0  0  0  0  0  0  0  0
   10.7210   -0.2210   24.4560 C   0  0  0  0  0  0  0  0  0  0  0  0
   11.8140    0.5520   24.0630 C   0  0  0  0  0  0  0  0  0  0  0  0
   12.6570    0.1090   23.0600 C   0  0  0  0  0  0  0  0  0  0  0  0
   12.3860   -1.1090   22.4590 C   0  0  0  0  0  0  0  0  0  0  0  0
   11.3130   -1.8850   22.8310 C   0  0  0  0  0  0  0  0  0  0  0  0
   10.4660   -1.4510   23.8340 C   0  0  0  0  0  0  0  0  0  0  0  0
  1  4  1  0
  2  4  2  0
  4  6  1  0
  6  7  1  0
  7  8  1  0
  5  9  1  0
  8  9  1  0
  9 10  1  0
  6 11  1  0
 10 11  1  0
 12 13  2  0
 13 14  1  0
  3 15  1  0
 14 15  2  0
 15 16  1  0
  5 17  1  0
 12 17  1  0
 16 17  2  0
M  END
