x0771-x2705-x2649-x2703
     RDKit          3D

 53 59  0  0  0  0  0  0  0  0999 V2000
    6.8680   -1.4190   21.8490 N   0  0  0  0  0  0  0  0  0  0  0  0
    6.8270   -4.5300   20.3800 C   0  0  2  0  0  0  0  0  0  0  0  0
    4.8160   -2.9930   21.2690 O   0  0  0  0  0  0  0  0  0  0  0  0
    6.9820   -3.7400   21.5460 C   0  0  2  0  0  0  0  0  0  0  0  0
    7.5310    2.0840   22.9720 N   0  0  0  0  0  0  0  0  0  0  0  0
    8.7210    1.2300   21.0170 O   0  0  0  0  0  0  0  0  0  0  0  0
    6.0990   -2.6410   21.5490 C   0  0  0  0  0  0  0  0  0  0  0  0
    6.4860   -0.0300   21.5660 C   0  0  1  0  0  0  0  0  0  0  0  0
    7.5970    1.0870   21.8950 C   0  0  0  0  0  0  0  0  0  0  0  0
   10.1660    2.1300   24.0110 C   0  0  0  0  0  0  0  0  0  0  0  0
    9.2950    1.2750   24.9290 C   0  0  0  0  0  0  0  0  0  0  0  0
    6.1710    4.6930   21.9720 C   0  0  0  0  0  0  0  0  0  0  0  0
   11.9700   -1.5640   23.2090 C   0  0  0  0  0  0  0  0  0  0  0  0
   12.5200   -0.2540   23.8210 C   0  0  0  0  0  0  0  0  0  0  0  0
   12.4530   -2.7530   24.0510 C   0  0  0  0  0  0  0  0  0  0  0  0
   12.5950   -1.7520   21.8830 C   0  0  0  0  0  0  0  0  0  0  0  0
   13.3810   -2.4880   25.2070 C   0  0  0  0  0  0  0  0  0  0  0  0
    5.5660   -4.4840   19.7070 O   0  0  0  0  0  0  0  0  0  0  0  0
    0.6240   -1.3780   26.0110 C   0  0  0  0  0  0  0  0  0  0  0  0
    4.4490   -7.0090   25.8250 O   0  0  0  0  0  0  0  0  0  0  0  0
    6.0460   -5.3390   26.7720 O   0  0  0  0  0  0  0  0  0  0  0  0
    1.9780   -6.1090   24.9350 C   0  0  0  0  0  0  0  0  0  0  0  0
    5.0570   -5.7050   25.7910 S   0  0  0  0  0  0  0  0  0  0  0  0
    3.9660    1.3980   21.2650 C   0  0  0  0  0  0  0  0  0  0  0  0
    6.3890    0.4130   17.8810 N   0  0  0  0  0  0  0  0  0  0  0  0
    5.2130    1.1160   17.7550 C   0  0  0  0  0  0  0  0  0  0  0  0
    4.2640    1.5100   18.8950 C   0  0  0  0  0  0  0  0  0  0  0  0
    4.7890    1.0670   20.0590 C   0  0  0  0  0  0  0  0  0  0  0  0
    5.9760    0.3720   20.2210 C   0  0  0  0  0  0  0  0  0  0  0  0
    6.7220    0.0690   19.1130 C   0  0  0  0  0  0  0  0  0  0  0  0
    9.5990   -1.6240   24.2070 N   0  0  0  0  0  0  0  0  0  0  0  0
    8.2820   -1.5950   23.8830 N   0  0  0  0  0  0  0  0  0  0  0  0
    8.1700   -1.5020   22.5170 C   0  0  0  0  0  0  0  0  0  0  0  0
    9.4960   -1.4840   22.0710 C   0  0  0  0  0  0  0  0  0  0  0  0
   10.4320   -1.5570   23.1270 C   0  0  0  0  0  0  0  0  0  0  0  0
    9.4620    3.3890   23.5370 C   0  0  0  0  0  0  0  0  0  0  0  0
   10.1690    4.5790   23.6340 C   0  0  0  0  0  0  0  0  0  0  0  0
    9.5820    5.7860   23.2000 C   0  0  0  0  0  0  0  0  0  0  0  0
    8.2690    5.7830   22.6610 C   0  0  0  0  0  0  0  0  0  0  0  0
    7.5460    4.5660   22.5640 C   0  0  0  0  0  0  0  0  0  0  0  0
    8.1370    3.3710   23.0050 C   0  0  0  0  0  0  0  0  0  0  0  0
    1.6840   -2.4370   25.9430 C   0  0  0  0  0  0  0  0  0  0  0  0
    1.4420   -3.7570   25.4990 C   0  0  0  0  0  0  0  0  0  0  0  0
    2.4220   -4.7600   25.4330 C   0  0  0  0  0  0  0  0  0  0  0  0
    3.7260   -4.5020   25.8150 C   0  0  0  0  0  0  0  0  0  0  0  0
    4.0730   -3.2400   26.2610 C   0  0  0  0  0  0  0  0  0  0  0  0
    3.0670   -2.1080   26.3560 C   0  0  0  0  0  0  0  0  0  0  0  0
    6.8580   -5.2860   21.6810 C   0  0  1  0  0  0  0  0  0  0  0  0
    5.8670   -6.3930   22.0060 C   0  0  0  0  0  0  0  0  0  0  0  0
    4.9450   -5.9600   23.1090 C   0  0  0  0  0  0  0  0  0  0  0  0
    5.7620   -5.4980   24.2650 N   0  0  0  0  0  0  0  0  0  0  0  0
    6.4540   -4.2210   24.0260 C   0  0  0  0  0  0  0  0  0  0  0  0
    7.3020   -4.3840   22.8010 C   0  0  2  0  0  0  0  0  0  0  0  0
  2  4  1  0
  1  7  1  0
  3  7  2  0
  4  7  1  1
  1  8  1  0
  5  9  1  0
  6  9  2  0
  8  9  1  6
 10 11  1  0
 13 14  1  0
 13 15  1  0
 13 16  1  0
 15 17  1  0
  2 18  1  1
 20 23  2  0
 21 23  2  0
 25 26  2  0
 26 27  1  0
 24 28  1  0
 27 28  2  0
  8 29  1  0
 28 29  1  0
 25 30  1  0
 29 30  2  0
 31 32  1  0
  1 33  1  0
 32 33  1  0
 33 34  2  0
 13 35  1  0
 31 35  2  0
 34 35  1  0
 10 36  1  0
 36 37  2  0
 37 38  1  0
 38 39  2  0
 12 40  1  0
 39 40  1  0
  5 41  1  0
 36 41  1  0
 40 41  2  0
 19 42  1  0
 42 43  2  0
 22 44  1  0
 43 44  1  0
 23 45  1  0
 44 45  2  0
 45 46  1  0
 42 47  1  0
 46 47  2  0
  2 48  1  0
  4 48  1  0
 48 49  1  1
 49 50  1  0
 23 51  1  0
 50 51  1  0
 51 52  1  0
  4 53  1  0
 48 53  1  0
 53 52  1  1
M  END
