x0771-x2703
     RDKit          3D

 51 57  0  0  0  0  0  0  0  0999 V2000
    6.7760   -1.4970   21.9970 N   0  0  0  0  0  0  0  0  0  0  0  0
    6.7560   -4.5100   20.3060 C   0  0  2  0  0  0  0  0  0  0  0  0
    4.7900   -3.0000   21.2940 O   0  0  0  0  0  0  0  0  0  0  0  0
    7.0370   -3.7070   21.4900 C   0  0  2  0  0  0  0  0  0  0  0  0
    7.3200    1.8740   22.8540 N   0  0  0  0  0  0  0  0  0  0  0  0
    8.7500    0.6860   21.4870 O   0  0  0  0  0  0  0  0  0  0  0  0
    6.0410   -2.6830   21.5780 C   0  0  0  0  0  0  0  0  0  0  0  0
    6.4650   -0.0750   21.6520 C   0  0  1  0  0  0  0  0  0  0  0  0
    7.6320    0.8300   21.9810 C   0  0  0  0  0  0  0  0  0  0  0  0
    9.9930    1.9280   24.0500 C   0  0  0  0  0  0  0  0  0  0  0  0
    9.1320    1.2570   25.1150 C   0  0  0  0  0  0  0  0  0  0  0  0
    6.0690    4.5680   21.7560 C   0  0  0  0  0  0  0  0  0  0  0  0
   11.9900   -1.6510   24.5260 C   0  0  0  0  0  0  0  0  0  0  0  0
   12.5600   -2.9020   24.6790 C   0  0  0  0  0  0  0  0  0  0  0  0
   12.9820   -0.7800   23.7650 C   0  0  0  0  0  0  0  0  0  0  0  0
    5.5030   -4.3020   19.6600 O   0  0  0  0  0  0  0  0  0  0  0  0
    0.5880   -1.3660   26.2210 C   0  0  0  0  0  0  0  0  0  0  0  0
    4.3280   -7.0280   25.8950 O   0  0  0  0  0  0  0  0  0  0  0  0
    6.0200   -5.5240   26.8200 O   0  0  0  0  0  0  0  0  0  0  0  0
    2.0120   -6.0980   25.0080 C   0  0  0  0  0  0  0  0  0  0  0  0
    4.9740   -5.6700   25.7530 S   0  0  0  0  0  0  0  0  0  0  0  0
    6.2730    0.4440   17.7870 N   0  0  0  0  0  0  0  0  0  0  0  0
    5.1330    1.1490   17.7660 C   0  0  0  0  0  0  0  0  0  0  0  0
    4.3740    1.4560   18.9600 C   0  0  0  0  0  0  0  0  0  0  0  0
    4.8190    1.0340   20.1840 C   0  0  0  0  0  0  0  0  0  0  0  0
    6.0000    0.3130   20.2830 C   0  0  0  0  0  0  0  0  0  0  0  0
    6.7130    0.0130   19.1090 C   0  0  0  0  0  0  0  0  0  0  0  0
   10.5230   -1.8780   22.3780 N   0  0  0  0  0  0  0  0  0  0  0  0
   10.6500   -1.6520   23.8290 C   0  0  0  0  0  0  0  0  0  0  0  0
    9.4870   -1.4160   24.5470 C   0  0  0  0  0  0  0  0  0  0  0  0
    8.2480   -1.3840   23.9320 C   0  0  0  0  0  0  0  0  0  0  0  0
    8.1030   -1.5800   22.5750 C   0  0  0  0  0  0  0  0  0  0  0  0
    9.2540   -1.8290   21.8360 C   0  0  0  0  0  0  0  0  0  0  0  0
    9.3030    3.1600   23.5060 C   0  0  0  0  0  0  0  0  0  0  0  0
   10.0000    4.3790   23.5930 C   0  0  0  0  0  0  0  0  0  0  0  0
    9.4490    5.5780   23.1140 C   0  0  0  0  0  0  0  0  0  0  0  0
    8.1780    5.6010   22.5270 C   0  0  0  0  0  0  0  0  0  0  0  0
    7.4210    4.4290   22.4030 C   0  0  0  0  0  0  0  0  0  0  0  0
    8.0090    3.1240   22.9240 C   0  0  0  0  0  0  0  0  0  0  0  0
    1.6430   -2.4200   26.0830 C   0  0  0  0  0  0  0  0  0  0  0  0
    1.3260   -3.6840   25.6230 C   0  0  0  0  0  0  0  0  0  0  0  0
    2.4180   -4.7410   25.5090 C   0  0  0  0  0  0  0  0  0  0  0  0
    3.7360   -4.4010   25.8780 C   0  0  0  0  0  0  0  0  0  0  0  0
    4.0130   -3.1060   26.3280 C   0  0  0  0  0  0  0  0  0  0  0  0
    2.9620   -2.1370   26.4220 C   0  0  0  0  0  0  0  0  0  0  0  0
    6.8390   -5.3120   21.5620 C   0  0  1  0  0  0  0  0  0  0  0  0
    5.8600   -6.3700   21.8860 C   0  0  0  0  0  0  0  0  0  0  0  0
    4.9310   -6.0600   23.0450 C   0  0  0  0  0  0  0  0  0  0  0  0
    5.6780   -5.5350   24.2140 N   0  0  0  0  0  0  0  0  0  0  0  0
    6.4000   -4.2790   23.9180 C   0  0  0  0  0  0  0  0  0  0  0  0
    7.2660   -4.4710   22.7160 C   0  0  2  0  0  0  0  0  0  0  0  0
  2  4  1  0
  1  7  1  0
  3  7  2  0
  4  7  1  1
  1  8  1  0
  5  9  1  0
  6  9  2  0
  8  9  1  6
 10 11  1  0
 13 14  1  0
 13 15  1  0
  2 16  1  1
 18 21  2  0
 19 21  2  0
 22 23  2  0
 23 24  1  0
 24 25  2  0
  8 26  1  0
 25 26  1  0
 22 27  1  0
 26 27  2  0
 13 29  1  0
 28 29  2  0
 29 30  1  0
 30 31  2  0
  1 32  1  0
 31 32  1  0
 28 33  1  0
 32 33  2  0
 10 34  1  0
 34 35  2  0
 35 36  1  0
 36 37  2  0
 12 38  1  0
 37 38  1  0
  5 39  1  0
 34 39  1  0
 38 39  2  0
 17 40  1  0
 40 41  2  0
 20 42  1  0
 41 42  1  0
 21 43  1  0
 42 43  2  0
 43 44  1  0
 40 45  1  0
 44 45  2  0
  2 46  1  0
  4 46  1  0
 46 47  1  1
 47 48  1  0
 21 49  1  0
 48 49  1  0
 49 50  1  0
  4 51  1  0
 46 51  1  0
 51 50  1  1
M  END
