x0771-x0991
     RDKit          3D

 25 28  0  0  0  0  0  0  0  0999 V2000
    0.6440   -1.4530   26.0820 C   0  0  0  0  0  0  0  0  0  0  0  0
    4.4410   -6.9820   25.8280 O   0  0  0  0  0  0  0  0  0  0  0  0
    6.0490   -5.2570   26.7050 O   0  0  0  0  0  0  0  0  0  0  0  0
    5.4500   -4.3900   19.8810 O   0  0  0  0  0  0  0  0  0  0  0  0
    2.0250   -6.1130   24.9740 C   0  0  0  0  0  0  0  0  0  0  0  0
    6.5560   -4.2430   20.4620 C   0  0  0  0  0  0  0  0  0  0  0  0
    7.6090   -3.3500   19.8720 C   0  0  0  0  0  0  0  0  0  0  0  0
    5.0440   -5.6710   25.7540 S   0  0  0  0  0  0  0  0  0  0  0  0
    9.5870   -6.1000   24.3440 N   0  0  0  0  0  0  0  0  0  0  0  0
    8.6620   -3.7880   23.0890 C   0  0  0  0  0  0  0  0  0  0  0  0
    7.9550   -4.2860   24.3580 C   0  0  1  0  0  0  0  0  0  0  0  0
    8.2520   -5.8340   26.2740 N   0  0  0  0  0  0  0  0  0  0  0  0
    8.6620   -5.5030   24.9990 C   0  0  0  0  0  0  0  0  0  0  0  0
    1.8220   -2.4900   26.0030 C   0  0  0  0  0  0  0  0  0  0  0  0
    1.5010   -3.7500   25.5610 C   0  0  0  0  0  0  0  0  0  0  0  0
    2.4610   -4.7590   25.4600 C   0  0  0  0  0  0  0  0  0  0  0  0
    3.7370   -4.4520   25.8180 C   0  0  0  0  0  0  0  0  0  0  0  0
    4.1040   -3.1680   26.2670 C   0  0  0  0  0  0  0  0  0  0  0  0
    3.1330   -2.1750   26.3590 C   0  0  0  0  0  0  0  0  0  0  0  0
    6.7760   -4.9430   21.6780 N   0  0  0  0  0  0  0  0  0  0  0  0
    6.0570   -6.0690   21.9200 C   0  0  0  0  0  0  0  0  0  0  0  0
    5.0560   -5.9220   22.9990 C   0  0  0  0  0  0  0  0  0  0  0  0
    5.7620   -5.5260   24.2300 N   0  0  0  0  0  0  0  0  0  0  0  0
    6.6150   -4.3530   24.0240 C   0  0  2  0  0  0  0  0  0  0  0  0
    7.1810   -4.1540   22.8510 C   0  0  2  0  0  0  0  0  0  0  0  0
  4  6  2  0
  6  7  1  0
  2  8  2  0
  3  8  2  0
 10 11  1  0
  9 13  2  3
 11 13  1  1
 12 13  1  0
  1 14  1  0
 14 15  2  0
  5 16  1  0
 15 16  1  0
  8 17  1  0
 16 17  2  0
 17 18  1  0
 14 19  1  0
 18 19  2  0
  6 20  1  0
 20 21  1  0
 21 22  1  0
  8 23  1  0
 22 23  1  0
 11 24  1  0
 24 23  1  6
 25 10  1  6
 11 25  1  0
 25 20  1  0
 24 25  1  0
M  END
