x0771-x2705-x0395-x2643
     RDKit          3D

 56 63  0  0  0  0  0  0  0  0999 V2000
    7.1770   -1.4930   21.8620 N   0  0  0  0  0  0  0  0  0  0  0  0
    6.7990   -4.3280   20.3530 C   0  0  2  0  0  0  0  0  0  0  0  0
    5.0480   -3.3670   21.3030 O   0  0  0  0  0  0  0  0  0  0  0  0
    7.0050   -3.4380   21.5610 C   0  0  2  0  0  0  0  0  0  0  0  0
    7.5000    1.9370   22.7540 N   0  0  0  0  0  0  0  0  0  0  0  0
    9.0240    0.7770   21.4570 O   0  0  0  0  0  0  0  0  0  0  0  0
    5.9360   -2.3660   21.5690 C   0  0  0  0  0  0  0  0  0  0  0  0
    6.8920   -0.0090   21.6120 C   0  0  1  0  0  0  0  0  0  0  0  0
    7.8950    0.8870   21.9220 C   0  0  0  0  0  0  0  0  0  0  0  0
   10.1680    2.0280   23.9100 C   0  0  0  0  0  0  0  0  0  0  0  0
    9.4140    1.1360   24.9300 C   0  0  0  0  0  0  0  0  0  0  0  0
    6.1760    4.4400   21.8640 C   0  0  0  0  0  0  0  0  0  0  0  0
   12.1740   -1.3410   23.0690 C   0  0  0  0  0  0  0  0  0  0  0  0
   12.5360    0.1260   23.3810 C   0  0  0  0  0  0  0  0  0  0  0  0
   12.8000   -2.2250   24.1740 C   0  0  0  0  0  0  0  0  0  0  0  0
   12.8150   -1.7440   21.7970 C   0  0  0  0  0  0  0  0  0  0  0  0
    5.5550   -4.1060   19.7180 O   0  0  0  0  0  0  0  0  0  0  0  0
    0.8130   -1.0940   26.3830 C   0  0  0  0  0  0  0  0  0  0  0  0
    4.6140   -7.1410   25.9020 O   0  0  0  0  0  0  0  0  0  0  0  0
    5.9740   -5.1600   26.7180 O   0  0  0  0  0  0  0  0  0  0  0  0
    1.4780   -6.1100   24.7170 C   0  0  0  0  0  0  0  0  0  0  0  0
    5.0620   -5.6300   25.7010 S   0  0  0  0  0  0  0  0  0  0  0  0
    9.2930   -5.2250   26.3160 C   0  0  0  0  0  0  0  0  0  0  0  0
    6.3920    0.3040   17.8900 N   0  0  0  0  0  0  0  0  0  0  0  0
    5.1930    1.1320   17.8070 C   0  0  0  0  0  0  0  0  0  0  0  0
    4.6180    1.5110   19.0160 C   0  0  0  0  0  0  0  0  0  0  0  0
    5.1280    1.1550   20.2510 C   0  0  0  0  0  0  0  0  0  0  0  0
    6.2810    0.3740   20.2870 C   0  0  0  0  0  0  0  0  0  0  0  0
    6.8540   -0.0200   19.0980 C   0  0  0  0  0  0  0  0  0  0  0  0
   10.0810   -2.1150   24.0960 N   0  0  0  0  0  0  0  0  0  0  0  0
    8.7620   -2.3190   23.8480 C   0  0  2  0  0  0  0  0  0  0  0  0
    8.4620   -1.7190   22.5730 C   0  0  0  0  0  0  0  0  0  0  0  0
    9.7070   -1.2960   22.0500 C   0  0  0  0  0  0  0  0  0  0  0  0
   10.6410   -1.5920   23.0630 C   0  0  0  0  0  0  0  0  0  0  0  0
    9.4400    3.2760   23.4510 C   0  0  0  0  0  0  0  0  0  0  0  0
   10.0830    4.5290   23.5920 C   0  0  0  0  0  0  0  0  0  0  0  0
    9.4780    5.7190   23.1880 C   0  0  0  0  0  0  0  0  0  0  0  0
    8.2000    5.6330   22.6300 C   0  0  0  0  0  0  0  0  0  0  0  0
    7.5480    4.3920   22.4840 C   0  0  0  0  0  0  0  0  0  0  0  0
    8.1670    3.1830   22.9010 C   0  0  0  0  0  0  0  0  0  0  0  0
    1.6940   -2.2760   26.1430 C   0  0  0  0  0  0  0  0  0  0  0  0
    1.1260   -3.6300   25.5290 C   0  0  0  0  0  0  0  0  0  0  0  0
    2.0500   -4.8480   25.2950 C   0  0  0  0  0  0  0  0  0  0  0  0
    3.4750   -4.6760   25.6750 C   0  0  0  0  0  0  0  0  0  0  0  0
    4.0980   -3.4380   26.2520 C   0  0  0  0  0  0  0  0  0  0  0  0
    3.1870   -2.2520   26.4760 C   0  0  0  0  0  0  0  0  0  0  0  0
    6.7570   -5.0930   21.6270 C   0  0  1  0  0  0  0  0  0  0  0  0
    5.7790   -6.0850   21.8400 C   0  0  0  0  0  0  0  0  0  0  0  0
    4.9480   -5.9520   22.9760 C   0  0  0  0  0  0  0  0  0  0  0  0
    5.6950   -5.4190   24.1470 N   0  0  0  0  0  0  0  0  0  0  0  0
    6.2790   -4.1050   23.8720 C   0  0  0  0  0  0  0  0  0  0  0  0
    7.1390   -4.2370   22.7770 C   0  0  2  0  0  0  0  0  0  0  0  0
    8.7950   -4.0540   25.5320 C   0  0  0  0  0  0  0  0  0  0  0  0
    8.3500   -2.9480   26.0350 N   0  0  0  0  0  0  0  0  0  0  0  0
    7.9920   -2.0730   25.0640 N   0  0  0  0  0  0  0  0  0  0  0  0
    8.7820   -4.1260   23.8040 S   0  0  0  0  0  0  0  0  0  0  0  0
  2  4  1  0
  1  7  1  0
  3  7  2  0
  4  7  1  1
  1  8  1  0
  5  9  1  0
  6  9  2  0
  8  9  1  6
 10 11  1  0
 13 14  1  0
 13 15  1  0
 13 16  1  0
  2 17  1  1
 19 22  2  0
 20 22  2  0
 24 25  2  0
 25 26  1  0
 26 27  2  0
  8 28  1  0
 27 28  1  0
 24 29  1  0
 28 29  2  0
 31 30  1  1
  1 32  1  0
 31 32  1  0
 32 33  2  0
 13 34  1  0
 30 34  2  0
 33 34  1  0
 10 35  1  0
 35 36  2  0
 36 37  1  0
 37 38  2  0
 12 39  1  0
 38 39  1  0
  5 40  1  0
 35 40  1  0
 39 40  2  0
 18 41  1  0
 41 42  2  0
 21 43  1  0
 42 43  1  0
 22 44  1  0
 43 44  2  0
 44 45  1  0
 41 46  1  0
 45 46  2  0
  2 47  1  0
  4 47  1  0
 47 48  1  1
 48 49  1  0
 22 50  1  0
 49 50  1  0
 50 51  1  0
  4 52  1  0
 47 52  1  0
 52 51  1  1
 23 53  1  0
 53 54  2  0
 31 55  1  0
 54 55  1  0
 31 56  1  0
 53 56  1  0
M  END
