x0771-x2705-x2649-x1493
     RDKit          3D

 53 59  0  0  0  0  0  0  0  0999 V2000
    6.8960   -1.5220   22.0070 N   0  0  0  0  0  0  0  0  0  0  0  0
    6.8350   -4.5580   20.3440 C   0  0  2  0  0  0  0  0  0  0  0  0
    4.7780   -3.0550   21.4550 O   0  0  0  0  0  0  0  0  0  0  0  0
    6.9440   -3.8970   21.5970 C   0  0  2  0  0  0  0  0  0  0  0  0
    7.3680    1.9720   22.8440 N   0  0  0  0  0  0  0  0  0  0  0  0
    8.8120    0.8490   21.4440 O   0  0  0  0  0  0  0  0  0  0  0  0
    6.0580   -2.7570   21.7090 C   0  0  0  0  0  0  0  0  0  0  0  0
    6.5250   -0.0990   21.6580 C   0  0  1  0  0  0  0  0  0  0  0  0
    7.6920    0.9270   21.9640 C   0  0  0  0  0  0  0  0  0  0  0  0
   10.1260    2.0040   23.9940 C   0  0  0  0  0  0  0  0  0  0  0  0
    9.2670    1.2260   24.9940 C   0  0  0  0  0  0  0  0  0  0  0  0
    6.1040    4.5020   21.8640 C   0  0  0  0  0  0  0  0  0  0  0  0
   12.0080   -1.5610   23.2090 C   0  0  0  0  0  0  0  0  0  0  0  0
   12.5410   -0.1640   23.6310 C   0  0  0  0  0  0  0  0  0  0  0  0
   12.5240   -2.5750   24.2800 C   0  0  0  0  0  0  0  0  0  0  0  0
   12.6580   -1.8910   21.8520 C   0  0  0  0  0  0  0  0  0  0  0  0
    5.5620   -4.4210   19.7070 O   0  0  0  0  0  0  0  0  0  0  0  0
    0.1600   -1.4860   26.4940 C   0  0  0  0  0  0  0  0  0  0  0  0
    4.6340   -4.9110   24.0660 O   0  0  0  0  0  0  0  0  0  0  0  0
    6.2560   -5.4740   26.5870 C   0  0  0  0  0  0  0  0  0  0  0  0
    2.0080   -6.0410   24.9850 C   0  0  0  0  0  0  0  0  0  0  0  0
    4.9740   -4.9160   25.4430 S   0  0  0  0  0  0  0  0  0  0  0  0
    4.1030    1.5830   21.3240 C   0  0  0  0  0  0  0  0  0  0  0  0
    7.1210   -5.8570   27.2640 O   0  0  0  0  0  0  0  0  0  0  0  0
    6.3770    0.2470   17.9140 N   0  0  0  0  0  0  0  0  0  0  0  0
    5.3000    1.0150   17.8110 C   0  0  0  0  0  0  0  0  0  0  0  0
    4.5600    1.4450   18.8630 C   0  0  0  0  0  0  0  0  0  0  0  0
    4.9320    1.0870   20.1230 C   0  0  0  0  0  0  0  0  0  0  0  0
    6.0900    0.2700   20.2630 C   0  0  0  0  0  0  0  0  0  0  0  0
    6.7910   -0.1400   19.1260 C   0  0  0  0  0  0  0  0  0  0  0  0
    9.7970   -1.4800   24.3380 N   0  0  0  0  0  0  0  0  0  0  0  0
    8.4800   -1.4800   23.9770 N   0  0  0  0  0  0  0  0  0  0  0  0
    8.2280   -1.5480   22.6060 C   0  0  0  0  0  0  0  0  0  0  0  0
    9.5660   -1.6050   22.1220 C   0  0  0  0  0  0  0  0  0  0  0  0
   10.4570   -1.5550   23.1830 C   0  0  0  0  0  0  0  0  0  0  0  0
    9.4100    3.2390   23.4970 C   0  0  0  0  0  0  0  0  0  0  0  0
   10.1040    4.4730   23.5960 C   0  0  0  0  0  0  0  0  0  0  0  0
    9.5270    5.7010   23.1520 C   0  0  0  0  0  0  0  0  0  0  0  0
    8.2430    5.7570   22.5880 C   0  0  0  0  0  0  0  0  0  0  0  0
    7.4820    4.4610   22.4710 C   0  0  0  0  0  0  0  0  0  0  0  0
    8.1060    3.1920   22.9490 C   0  0  0  0  0  0  0  0  0  0  0  0
    1.3440   -2.3660   26.2440 C   0  0  0  0  0  0  0  0  0  0  0  0
    1.2000   -3.7890   25.7450 C   0  0  0  0  0  0  0  0  0  0  0  0
    2.2560   -4.6430   25.4890 C   0  0  0  0  0  0  0  0  0  0  0  0
    3.5100   -4.0750   25.7310 C   0  0  0  0  0  0  0  0  0  0  0  0
    3.6960   -2.7650   26.2030 C   0  0  0  0  0  0  0  0  0  0  0  0
    2.6300   -1.9140   26.4590 C   0  0  0  0  0  0  0  0  0  0  0  0
    6.9440   -5.4660   21.5100 C   0  0  1  0  0  0  0  0  0  0  0  0
    5.9610   -6.3630   21.9180 C   0  0  0  0  0  0  0  0  0  0  0  0
    5.1960   -6.0910   23.0540 C   0  0  0  0  0  0  0  0  0  0  0  0
    5.9120   -5.3010   24.0780 N   0  0  0  0  0  0  0  0  0  0  0  0
    6.5670   -4.1450   23.3720 C   0  0  0  0  0  0  0  0  0  0  0  0
    7.5940   -4.7490   22.6490 C   0  0  2  0  0  0  0  0  0  0  0  0
  2  4  1  0
  1  7  1  0
  3  7  2  0
  4  7  1  1
  1  8  1  0
  5  9  1  0
  6  9  2  0
  8  9  1  6
 10 11  1  0
 13 14  1  0
 13 15  1  0
 13 16  1  0
  2 17  1  1
 19 22  2  0
 20 22  2  0
 20 24  2  0
 25 26  2  0
 26 27  1  0
 23 28  1  0
 27 28  2  0
  8 29  1  0
 28 29  1  0
 25 30  1  0
 29 30  2  0
 31 32  1  0
  1 33  1  0
 32 33  1  0
 33 34  2  0
 13 35  1  0
 31 35  2  0
 34 35  1  0
 10 36  1  0
 36 37  2  0
 37 38  1  0
 38 39  2  0
 12 40  1  0
 39 40  1  0
  5 41  1  0
 36 41  1  0
 40 41  2  0
 18 42  1  0
 42 43  2  0
 21 44  1  0
 43 44  1  0
 22 45  1  0
 44 45  2  0
 45 46  1  0
 42 47  1  0
 46 47  2  0
  2 48  1  0
  4 48  1  0
 48 49  1  1
 49 50  1  0
 22 51  1  0
 50 51  1  0
 51 52  1  0
  4 53  1  0
 48 53  1  0
 53 52  1  1
M  END
