x0771-x2705-x2572-x0305
     RDKit          3D

 55 61  0  0  0  0  0  0  0  0999 V2000
    7.0440   -1.4430   21.6830 N   0  0  0  0  0  0  0  0  0  0  0  0
    6.7520   -4.2190   20.2390 C   0  0  2  0  0  0  0  0  0  0  0  0
    4.9990   -3.3670   21.4030 O   0  0  0  0  0  0  0  0  0  0  0  0
    6.8460   -3.3880   21.4100 C   0  0  2  0  0  0  0  0  0  0  0  0
    7.4120    2.1140   22.8070 N   0  0  0  0  0  0  0  0  0  0  0  0
    8.7310    1.3310   21.1800 O   0  0  0  0  0  0  0  0  0  0  0  0
    5.8280   -2.3440   21.5580 C   0  0  0  0  0  0  0  0  0  0  0  0
    6.6690    0.0100   21.5530 C   0  0  1  0  0  0  0  0  0  0  0  0
    7.6780    1.1680   21.8430 C   0  0  0  0  0  0  0  0  0  0  0  0
    9.9490    1.9490   24.1230 C   0  0  0  0  0  0  0  0  0  0  0  0
    8.9280    1.3690   25.1080 C   0  0  0  0  0  0  0  0  0  0  0  0
    6.3240    4.5410   21.7970 C   0  0  0  0  0  0  0  0  0  0  0  0
   12.0520   -1.5740   23.2770 C   0  0  0  0  0  0  0  0  0  0  0  0
   12.4800   -0.1750   23.7710 C   0  0  0  0  0  0  0  0  0  0  0  0
   12.6120   -2.6000   24.2850 C   0  0  0  0  0  0  0  0  0  0  0  0
   12.7360   -1.7930   21.9820 C   0  0  0  0  0  0  0  0  0  0  0  0
    5.5340   -4.1310   19.5090 O   0  0  0  0  0  0  0  0  0  0  0  0
    0.5120   -1.3700   26.1870 C   0  0  0  0  0  0  0  0  0  0  0  0
    4.5380   -6.8010   25.6850 O   0  0  0  0  0  0  0  0  0  0  0  0
    6.0630   -5.0310   26.5870 O   0  0  0  0  0  0  0  0  0  0  0  0
    1.8370   -6.0690   24.9100 C   0  0  0  0  0  0  0  0  0  0  0  0
    5.0490   -5.4420   25.6450 S   0  0  0  0  0  0  0  0  0  0  0  0
    4.0830    1.5580   21.3180 C   0  0  0  0  0  0  0  0  0  0  0  0
   13.3290   -1.9210   20.9890 N   0  0  0  0  0  0  0  0  0  0  0  0
    8.5840   -0.0210   27.0170 C   0  0  0  0  0  0  0  0  0  0  0  0
    9.2500    0.0230   25.7720 C   0  0  0  0  0  0  0  0  0  0  0  0
    6.3590    0.4400   17.8040 N   0  0  0  0  0  0  0  0  0  0  0  0
    5.2310    1.1400   17.7630 C   0  0  0  0  0  0  0  0  0  0  0  0
    4.4820    1.5030   18.8840 C   0  0  0  0  0  0  0  0  0  0  0  0
    4.9020    1.1470   20.1370 C   0  0  0  0  0  0  0  0  0  0  0  0
    6.1080    0.4110   20.2270 C   0  0  0  0  0  0  0  0  0  0  0  0
    6.7670    0.0940   19.0190 C   0  0  0  0  0  0  0  0  0  0  0  0
    9.7560   -2.0630   24.1590 N   0  0  0  0  0  0  0  0  0  0  0  0
    8.4550   -2.0250   23.7300 N   0  0  0  0  0  0  0  0  0  0  0  0
    8.2960   -1.6150   22.4260 C   0  0  0  0  0  0  0  0  0  0  0  0
    9.6410   -1.4010   22.0770 C   0  0  0  0  0  0  0  0  0  0  0  0
   10.5160   -1.6670   23.1350 C   0  0  0  0  0  0  0  0  0  0  0  0
    9.4100    3.2610   23.5880 C   0  0  0  0  0  0  0  0  0  0  0  0
   10.1510    4.4600   23.7280 C   0  0  0  0  0  0  0  0  0  0  0  0
    9.6380    5.6820   23.2370 C   0  0  0  0  0  0  0  0  0  0  0  0
    8.4290    5.7060   22.6270 C   0  0  0  0  0  0  0  0  0  0  0  0
    7.6650    4.4630   22.4820 C   0  0  0  0  0  0  0  0  0  0  0  0
    8.1650    3.3030   22.9540 C   0  0  0  0  0  0  0  0  0  0  0  0
    1.6070   -2.3850   26.0420 C   0  0  0  0  0  0  0  0  0  0  0  0
    1.2950   -3.7280   25.5640 C   0  0  0  0  0  0  0  0  0  0  0  0
    2.2810   -4.7240   25.4120 C   0  0  0  0  0  0  0  0  0  0  0  0
    3.7060   -4.3960   25.7530 C   0  0  0  0  0  0  0  0  0  0  0  0
    4.0340   -3.0400   26.2350 C   0  0  0  0  0  0  0  0  0  0  0  0
    2.9230   -2.0380   26.3670 C   0  0  0  0  0  0  0  0  0  0  0  0
    6.6790   -4.9290   21.4900 C   0  0  1  0  0  0  0  0  0  0  0  0
    5.8540   -6.1540   21.8880 C   0  0  0  0  0  0  0  0  0  0  0  0
    4.9020   -5.9610   23.0310 C   0  0  0  0  0  0  0  0  0  0  0  0
    5.5450   -5.0860   24.0720 N   0  0  0  0  0  0  0  0  0  0  0  0
    7.0210   -4.7070   23.8570 C   0  0  0  0  0  0  0  0  0  0  0  0
    7.3860   -4.2080   22.5650 C   0  0  2  0  0  0  0  0  0  0  0  0
  2  4  1  0
  1  7  1  0
  3  7  2  0
  4  7  1  1
  1  8  1  0
  5  9  1  0
  6  9  2  0
  8  9  1  6
 10 11  1  0
 13 14  1  0
 13 15  1  0
 13 16  1  0
  2 17  1  1
 19 22  2  0
 20 22  2  0
 16 24  3  0
 11 26  1  0
 25 26  1  0
 27 28  2  0
 28 29  1  0
 23 30  1  0
 29 30  2  0
  8 31  1  0
 30 31  1  0
 27 32  1  0
 31 32  2  0
 33 34  1  0
  1 35  1  0
 34 35  1  0
 35 36  2  0
 13 37  1  0
 33 37  2  0
 36 37  1  0
 10 38  1  0
 38 39  2  0
 39 40  1  0
 40 41  2  0
 12 42  1  0
 41 42  1  0
  5 43  1  0
 38 43  1  0
 42 43  2  0
 18 44  1  0
 44 45  2  0
 21 46  1  0
 45 46  1  0
 22 47  1  0
 46 47  2  0
 47 48  1  0
 44 49  1  0
 48 49  2  0
  2 50  1  0
  4 50  1  0
 50 51  1  1
 51 52  1  0
 22 53  1  0
 52 53  1  0
 53 54  1  0
  4 55  1  0
 50 55  1  0
 55 54  1  1
M  END
