x0771-x1249
     RDKit          3D

 40 43  0  0  0  0  0  0  0  0999 V2000
    1.0200   -1.3070   26.3700 C   0  0  0  0  0  0  0  0  0  0  0  0
    4.4330   -7.0480   25.6520 O   0  0  0  0  0  0  0  0  0  0  0  0
    6.1100   -5.4470   26.6340 O   0  0  0  0  0  0  0  0  0  0  0  0
    5.2600   -4.5550   19.8950 O   0  0  0  0  0  0  0  0  0  0  0  0
    1.9910   -6.2380   25.6580 C   0  0  0  0  0  0  0  0  0  0  0  0
    6.3500   -4.2720   20.4300 C   0  0  0  0  0  0  0  0  0  0  0  0
    7.2550   -3.3290   19.7190 C   0  0  0  0  0  0  0  0  0  0  0  0
    5.0510   -5.7440   25.7050 S   0  0  0  0  0  0  0  0  0  0  0  0
    8.0740    0.4770   24.9640 N   0  0  0  0  0  0  0  0  0  0  0  0
    7.4010    1.3330   24.0890 C   0  0  0  0  0  0  0  0  0  0  0  0
    7.9450    2.2890   23.5350 O   0  0  0  0  0  0  0  0  0  0  0  0
    9.4030    0.8140   25.3760 C   0  0  0  0  0  0  0  0  0  0  0  0
   13.8340   -1.7610   20.5820 N   0  0  0  0  0  0  0  0  0  0  0  0
   13.0340   -1.3400   21.6900 C   0  0  0  0  0  0  0  0  0  0  0  0
    1.3990   -0.1610   25.3560 C   0  0  0  0  0  0  0  0  0  0  0  0
    2.6170    0.4300   25.6470 C   0  0  0  0  0  0  0  0  0  0  0  0
    1.9890   -2.4300   26.2400 C   0  0  0  0  0  0  0  0  0  0  0  0
    1.5830   -3.7090   26.0570 C   0  0  0  0  0  0  0  0  0  0  0  0
    2.4320   -4.8280   25.8830 C   0  0  0  0  0  0  0  0  0  0  0  0
    3.7950   -4.5270   25.9230 C   0  0  0  0  0  0  0  0  0  0  0  0
    4.2940   -3.1760   26.1370 C   0  0  0  0  0  0  0  0  0  0  0  0
    3.3300   -2.1200   26.2960 C   0  0  0  0  0  0  0  0  0  0  0  0
    6.6800   -4.8470   21.6630 N   0  0  0  0  0  0  0  0  0  0  0  0
    6.0920   -6.0410   21.9450 C   0  0  0  0  0  0  0  0  0  0  0  0
    5.1760   -6.1690   22.9940 C   0  0  0  0  0  0  0  0  0  0  0  0
    5.5690   -5.3070   24.1500 N   0  0  0  0  0  0  0  0  0  0  0  0
    6.9030   -4.6630   24.0070 C   0  0  0  0  0  0  0  0  0  0  0  0
    7.0680   -4.1380   22.7530 C   0  0  0  0  0  0  0  0  0  0  0  0
    3.2920    0.9530   23.4150 O   0  0  0  0  0  0  0  0  0  0  0  0
    4.2120    0.8700   22.3340 C   0  0  0  0  0  0  0  0  0  0  0  0
    5.3960    1.5090   22.6540 C   0  0  0  0  0  0  0  0  0  0  0  0
    5.9940    1.0020   23.8870 N   0  0  0  0  0  0  0  0  0  0  0  0
    5.0700    0.5800   24.9600 C   0  0  0  0  0  0  0  0  0  0  0  0
    3.7450    0.2650   24.5840 C   0  0  1  0  0  0  0  0  0  0  0  0
   11.4800    1.0420   23.9470 C   0  0  0  0  0  0  0  0  0  0  0  0
   12.3590    0.4740   23.0440 C   0  0  0  0  0  0  0  0  0  0  0  0
   12.1590   -0.8280   22.6100 C   0  0  0  0  0  0  0  0  0  0  0  0
   11.1230   -1.6390   23.0300 C   0  0  0  0  0  0  0  0  0  0  0  0
   10.2090   -1.1520   23.9310 C   0  0  0  0  0  0  0  0  0  0  0  0
   10.3940    0.2660   24.4130 C   0  0  0  0  0  0  0  0  0  0  0  0
  4  6  2  0
  6  7  1  0
  2  8  2  0
  3  8  2  0
  9 10  1  0
 10 11  2  0
  9 12  1  0
 13 14  3  0
  1 15  1  0
 15 16  1  0
  1 17  1  0
 17 18  2  0
  5 19  1  0
 18 19  1  0
  8 20  1  0
 19 20  2  0
 20 21  1  0
 17 22  1  0
 21 22  2  0
  6 23  1  0
 23 24  1  0
 24 25  1  0
  8 26  1  0
 25 26  1  0
 26 27  1  0
 23 28  1  0
 27 28  1  0
 29 30  1  0
 30 31  1  0
 10 32  1  0
 31 32  1  0
 32 33  1  0
 34 16  1  1
 29 34  1  0
 33 34  1  0
 35 36  2  0
 14 37  1  0
 36 37  1  0
 37 38  2  0
 38 39  1  0
 12 40  1  0
 35 40  1  0
 39 40  2  0
M  END
