x0771-x2705-x3117-x2649
     RDKit          3D

 53 59  0  0  0  0  0  0  0  0999 V2000
    7.0140   -1.4360   21.6480 N   0  0  0  0  0  0  0  0  0  0  0  0
    6.7680   -4.3230   20.3370 C   0  0  2  0  0  0  0  0  0  0  0  0
    5.0280   -3.3670   21.3400 O   0  0  0  0  0  0  0  0  0  0  0  0
    6.8520   -3.4450   21.4850 C   0  0  2  0  0  0  0  0  0  0  0  0
    7.6220    2.0810   22.9400 N   0  0  0  0  0  0  0  0  0  0  0  0
    8.9020    1.2570   21.0420 O   0  0  0  0  0  0  0  0  0  0  0  0
    5.8700   -2.3560   21.4880 C   0  0  0  0  0  0  0  0  0  0  0  0
    6.6680   -0.0190   21.4800 C   0  0  1  0  0  0  0  0  0  0  0  0
    7.7500    1.0930   21.8640 C   0  0  0  0  0  0  0  0  0  0  0  0
   10.2650    2.1380   23.9290 C   0  0  0  0  0  0  0  0  0  0  0  0
    9.3820    1.2250   24.7760 C   0  0  0  0  0  0  0  0  0  0  0  0
    6.2110    4.6900   22.0010 C   0  0  0  0  0  0  0  0  0  0  0  0
   12.0060   -1.5630   23.2250 C   0  0  0  0  0  0  0  0  0  0  0  0
   12.5130   -0.2490   23.8730 C   0  0  0  0  0  0  0  0  0  0  0  0
   12.5190   -2.7580   24.0370 C   0  0  0  0  0  0  0  0  0  0  0  0
   12.6400   -1.7010   21.8970 C   0  0  0  0  0  0  0  0  0  0  0  0
   13.4100   -2.5040   25.2270 C   0  0  0  0  0  0  0  0  0  0  0  0
    5.5460   -4.4040   19.6080 O   0  0  0  0  0  0  0  0  0  0  0  0
    0.5980   -1.3880   26.0220 C   0  0  0  0  0  0  0  0  0  0  0  0
    4.5260   -6.9440   25.7880 O   0  0  0  0  0  0  0  0  0  0  0  0
    6.0880   -5.2580   26.7710 O   0  0  0  0  0  0  0  0  0  0  0  0
    2.0180   -6.0940   24.9430 C   0  0  0  0  0  0  0  0  0  0  0  0
    5.1110   -5.6270   25.7790 S   0  0  0  0  0  0  0  0  0  0  0  0
    4.0920    1.3880   21.3300 C   0  0  0  0  0  0  0  0  0  0  0  0
    6.3660    0.4810   17.8220 N   0  0  0  0  0  0  0  0  0  0  0  0
    5.1750    1.1650   17.7570 C   0  0  0  0  0  0  0  0  0  0  0  0
    4.2770    1.5320   18.9490 C   0  0  0  0  0  0  0  0  0  0  0  0
    4.8650    1.0840   20.0830 C   0  0  0  0  0  0  0  0  0  0  0  0
    6.0710    0.4060   20.1780 C   0  0  0  0  0  0  0  0  0  0  0  0
    6.7620    0.1290   19.0320 C   0  0  0  0  0  0  0  0  0  0  0  0
    9.5970   -1.7690   24.1470 N   0  0  0  0  0  0  0  0  0  0  0  0
    8.2800   -1.7570   23.7880 N   0  0  0  0  0  0  0  0  0  0  0  0
    8.2400   -1.5630   22.4270 C   0  0  0  0  0  0  0  0  0  0  0  0
    9.5760   -1.4760   22.0410 C   0  0  0  0  0  0  0  0  0  0  0  0
   10.4690   -1.5990   23.1120 C   0  0  0  0  0  0  0  0  0  0  0  0
    9.5430    3.3950   23.4870 C   0  0  0  0  0  0  0  0  0  0  0  0
   10.2420    4.5870   23.5880 C   0  0  0  0  0  0  0  0  0  0  0  0
    9.6380    5.7940   23.1840 C   0  0  0  0  0  0  0  0  0  0  0  0
    8.3150    5.7900   22.6690 C   0  0  0  0  0  0  0  0  0  0  0  0
    7.5980    4.5680   22.5660 C   0  0  0  0  0  0  0  0  0  0  0  0
    8.2100    3.3730   22.9790 C   0  0  0  0  0  0  0  0  0  0  0  0
    1.6750   -2.4290   25.9500 C   0  0  0  0  0  0  0  0  0  0  0  0
    1.4520   -3.7530   25.5080 C   0  0  0  0  0  0  0  0  0  0  0  0
    2.4480   -4.7400   25.4370 C   0  0  0  0  0  0  0  0  0  0  0  0
    3.7510   -4.4560   25.8110 C   0  0  0  0  0  0  0  0  0  0  0  0
    4.0780   -3.1890   26.2540 C   0  0  0  0  0  0  0  0  0  0  0  0
    3.0530   -2.0760   26.3560 C   0  0  0  0  0  0  0  0  0  0  0  0
    6.7880   -5.0090   21.6610 C   0  0  1  0  0  0  0  0  0  0  0  0
    5.8980   -6.2030   21.9840 C   0  0  0  0  0  0  0  0  0  0  0  0
    4.9860   -5.8620   23.1190 C   0  0  0  0  0  0  0  0  0  0  0  0
    5.8080   -5.3640   24.2550 N   0  0  0  0  0  0  0  0  0  0  0  0
    6.4140   -4.0290   24.0210 C   0  0  0  0  0  0  0  0  0  0  0  0
    7.2280   -4.0800   22.7530 C   0  0  2  0  0  0  0  0  0  0  0  0
  2  4  1  0
  1  7  1  0
  3  7  2  0
  4  7  1  1
  1  8  1  0
  5  9  1  0
  6  9  2  0
  8  9  1  6
 10 11  1  0
 13 14  1  0
 13 15  1  0
 13 16  1  0
 15 17  1  0
  2 18  1  1
 20 23  2  0
 21 23  2  0
 25 26  2  0
 26 27  1  0
 24 28  1  0
 27 28  2  0
  8 29  1  0
 28 29  1  0
 25 30  1  0
 29 30  2  0
 31 32  1  0
  1 33  1  0
 32 33  2  0
 33 34  1  0
 13 35  1  0
 31 35  1  0
 34 35  2  0
 10 36  1  0
 36 37  2  0
 37 38  1  0
 38 39  2  0
 12 40  1  0
 39 40  1  0
  5 41  1  0
 36 41  1  0
 40 41  2  0
 19 42  1  0
 42 43  2  0
 22 44  1  0
 43 44  1  0
 23 45  1  0
 44 45  2  0
 45 46  1  0
 42 47  1  0
 46 47  2  0
  2 48  1  0
  4 48  1  0
 48 49  1  1
 49 50  1  0
 23 51  1  0
 50 51  1  0
 51 52  1  0
  4 53  1  0
 48 53  1  0
 53 52  1  1
M  END
