x0771-x2705-x2600-x2643
     RDKit          3D

 52 58  0  0  0  0  0  0  0  0999 V2000
    6.8740   -1.3640   21.9150 N   0  0  0  0  0  0  0  0  0  0  0  0
    6.8260   -4.4800   20.2700 C   0  0  2  0  0  0  0  0  0  0  0  0
    4.7880   -2.9670   21.2820 O   0  0  0  0  0  0  0  0  0  0  0  0
    6.9910   -3.6710   21.4130 C   0  0  2  0  0  0  0  0  0  0  0  0
    7.5420    2.0260   22.8690 N   0  0  0  0  0  0  0  0  0  0  0  0
    8.6930    1.1820   21.0820 O   0  0  0  0  0  0  0  0  0  0  0  0
    6.0780   -2.5940   21.5350 C   0  0  0  0  0  0  0  0  0  0  0  0
    6.5570    0.0650   21.5750 C   0  0  1  0  0  0  0  0  0  0  0  0
    7.7060    1.1210   21.8300 C   0  0  0  0  0  0  0  0  0  0  0  0
   10.1670    2.1190   23.9850 C   0  0  0  0  0  0  0  0  0  0  0  0
    9.3070    1.2840   24.9340 C   0  0  0  0  0  0  0  0  0  0  0  0
    6.1630    4.6210   21.9140 C   0  0  0  0  0  0  0  0  0  0  0  0
   11.9590   -1.5270   23.3030 C   0  0  0  0  0  0  0  0  0  0  0  0
   12.4430   -0.1630   23.8460 C   0  0  0  0  0  0  0  0  0  0  0  0
   12.4450   -2.6570   24.2620 C   0  0  0  0  0  0  0  0  0  0  0  0
   12.7320   -1.7430   21.9700 C   0  0  0  0  0  0  0  0  0  0  0  0
    5.5690   -4.3720   19.6120 O   0  0  0  0  0  0  0  0  0  0  0  0
    0.7230   -1.4510   26.2080 C   0  0  0  0  0  0  0  0  0  0  0  0
    4.4010   -7.0140   25.8160 O   0  0  0  0  0  0  0  0  0  0  0  0
    6.0220   -5.3700   26.8120 O   0  0  0  0  0  0  0  0  0  0  0  0
    1.9870   -6.1200   24.9800 C   0  0  0  0  0  0  0  0  0  0  0  0
    5.0390   -5.7160   25.8160 S   0  0  0  0  0  0  0  0  0  0  0  0
   13.3460   -1.8800   20.9950 N   0  0  0  0  0  0  0  0  0  0  0  0
    6.3600    0.3820   17.8970 N   0  0  0  0  0  0  0  0  0  0  0  0
    5.1400    1.0350   17.7660 C   0  0  0  0  0  0  0  0  0  0  0  0
    4.3160    1.3700   18.8350 C   0  0  0  0  0  0  0  0  0  0  0  0
    4.7320    1.0520   20.1230 C   0  0  0  0  0  0  0  0  0  0  0  0
    5.9400    0.4230   20.2690 C   0  0  0  0  0  0  0  0  0  0  0  0
    6.7070    0.1020   19.1570 C   0  0  0  0  0  0  0  0  0  0  0  0
    9.6180   -1.6580   24.1980 N   0  0  0  0  0  0  0  0  0  0  0  0
    8.3120   -1.6280   23.9100 N   0  0  0  0  0  0  0  0  0  0  0  0
    8.1790   -1.4690   22.5860 C   0  0  0  0  0  0  0  0  0  0  0  0
    9.5080   -1.4060   22.0650 C   0  0  0  0  0  0  0  0  0  0  0  0
   10.4170   -1.5270   23.1420 C   0  0  0  0  0  0  0  0  0  0  0  0
    9.4430    3.3640   23.5180 C   0  0  0  0  0  0  0  0  0  0  0  0
   10.1160    4.5760   23.6560 C   0  0  0  0  0  0  0  0  0  0  0  0
    9.5150    5.7560   23.2410 C   0  0  0  0  0  0  0  0  0  0  0  0
    8.2220    5.7170   22.6780 C   0  0  0  0  0  0  0  0  0  0  0  0
    7.5320    4.5070   22.5350 C   0  0  0  0  0  0  0  0  0  0  0  0
    8.1380    3.3190   22.9580 C   0  0  0  0  0  0  0  0  0  0  0  0
    1.7840   -2.5070   26.0860 C   0  0  0  0  0  0  0  0  0  0  0  0
    1.4350   -3.7900   25.5980 C   0  0  0  0  0  0  0  0  0  0  0  0
    2.4190   -4.7750   25.5010 C   0  0  0  0  0  0  0  0  0  0  0  0
    3.7380   -4.4850   25.8880 C   0  0  0  0  0  0  0  0  0  0  0  0
    4.0920   -3.2070   26.3630 C   0  0  0  0  0  0  0  0  0  0  0  0
    3.0950   -2.2170   26.4580 C   0  0  0  0  0  0  0  0  0  0  0  0
    6.7760   -5.1180   21.6320 C   0  0  1  0  0  0  0  0  0  0  0  0
    5.5040   -5.6200   21.9370 C   0  0  0  0  0  0  0  0  0  0  0  0
    5.2660   -6.2850   23.1480 C   0  0  0  0  0  0  0  0  0  0  0  0
    5.7870   -5.5180   24.3050 N   0  0  0  0  0  0  0  0  0  0  0  0
    6.5100   -4.2830   23.9850 C   0  0  0  0  0  0  0  0  0  0  0  0
    7.3700   -4.4880   22.7500 C   0  0  2  0  0  0  0  0  0  0  0  0
  2  4  1  0
  1  7  1  0
  3  7  2  0
  4  7  1  1
  1  8  1  0
  5  9  1  0
  6  9  2  0
  8  9  1  6
 10 11  1  0
 13 14  1  0
 13 15  1  0
 13 16  1  0
  2 17  1  1
 19 22  2  0
 20 22  2  0
 16 23  3  0
 24 25  2  0
 25 26  1  0
 26 27  2  0
  8 28  1  0
 27 28  1  0
 24 29  1  0
 28 29  2  0
 30 31  1  0
  1 32  1  0
 31 32  1  0
 32 33  2  0
 13 34  1  0
 30 34  2  0
 33 34  1  0
 10 35  1  0
 35 36  2  0
 36 37  1  0
 37 38  2  0
 12 39  1  0
 38 39  1  0
  5 40  1  0
 35 40  1  0
 39 40  2  0
 18 41  1  0
 41 42  2  0
 21 43  1  0
 42 43  1  0
 22 44  1  0
 43 44  2  0
 44 45  1  0
 41 46  1  0
 45 46  2  0
  2 47  1  0
  4 47  1  0
 47 48  1  1
 48 49  1  0
 22 50  1  0
 49 50  1  0
 50 51  1  0
  4 52  1  0
 47 52  1  0
 52 51  1  1
M  END
