x0771-x2705-x0691-x2569
     RDKit          3D

 53 59  0  0  0  0  0  0  0  0999 V2000
    6.9190   -1.4310   21.9440 N   0  0  0  0  0  0  0  0  0  0  0  0
    6.7900   -4.5100   20.2880 C   0  0  2  0  0  0  0  0  0  0  0  0
    4.8290   -3.0190   21.2820 O   0  0  0  0  0  0  0  0  0  0  0  0
    7.0640   -3.8180   21.5140 C   0  0  2  0  0  0  0  0  0  0  0  0
    7.4010    1.9270   22.8760 N   0  0  0  0  0  0  0  0  0  0  0  0
    8.6790    0.8310   21.3550 O   0  0  0  0  0  0  0  0  0  0  0  0
    6.1360   -2.7220   21.5670 C   0  0  0  0  0  0  0  0  0  0  0  0
    6.4970   -0.0610   21.6410 C   0  0  1  0  0  0  0  0  0  0  0  0
    7.5900    0.9320   21.9800 C   0  0  0  0  0  0  0  0  0  0  0  0
   10.0990    2.0050   23.9740 C   0  0  0  0  0  0  0  0  0  0  0  0
    9.2520    1.2010   24.9490 C   0  0  0  0  0  0  0  0  0  0  0  0
    6.0920    4.4880   21.8930 C   0  0  0  0  0  0  0  0  0  0  0  0
   11.9740   -1.5220   23.2800 C   0  0  0  0  0  0  0  0  0  0  0  0
   12.5010   -0.2310   23.9090 C   0  0  0  0  0  0  0  0  0  0  0  0
   12.4270   -2.6110   24.2530 C   0  0  0  0  0  0  0  0  0  0  0  0
   12.6900   -1.7650   21.9950 C   0  0  0  0  0  0  0  0  0  0  0  0
    5.5040   -4.3630   19.6890 O   0  0  0  0  0  0  0  0  0  0  0  0
    0.6270   -1.4460   26.1580 C   0  0  0  0  0  0  0  0  0  0  0  0
    4.4440   -6.9380   25.6820 O   0  0  0  0  0  0  0  0  0  0  0  0
    6.0400   -5.2800   26.7240 O   0  0  0  0  0  0  0  0  0  0  0  0
    1.9710   -6.1430   25.2660 C   0  0  0  0  0  0  0  0  0  0  0  0
    5.0370   -5.6210   25.7390 S   0  0  0  0  0  0  0  0  0  0  0  0
    3.3330   -0.8700   26.5200 F   0  0  0  0  0  0  0  0  0  0  0  0
   13.3060   -1.9260   21.0210 N   0  0  0  0  0  0  0  0  0  0  0  0
    6.3570    0.4290   17.8060 N   0  0  0  0  0  0  0  0  0  0  0  0
    5.2350    1.1710   17.7670 C   0  0  0  0  0  0  0  0  0  0  0  0
    4.4650    1.5330   18.8630 C   0  0  0  0  0  0  0  0  0  0  0  0
    4.9070    1.0870   20.1810 C   0  0  0  0  0  0  0  0  0  0  0  0
    6.0470    0.3420   20.2810 C   0  0  0  0  0  0  0  0  0  0  0  0
    6.7800    0.0070   19.0030 C   0  0  0  0  0  0  0  0  0  0  0  0
    9.6270   -1.5240   24.3190 N   0  0  0  0  0  0  0  0  0  0  0  0
    8.3360   -1.5080   23.9140 N   0  0  0  0  0  0  0  0  0  0  0  0
    8.2450   -1.4870   22.5830 C   0  0  0  0  0  0  0  0  0  0  0  0
    9.5480   -1.4980   22.0340 C   0  0  0  0  0  0  0  0  0  0  0  0
   10.4290   -1.5170   23.1600 C   0  0  0  0  0  0  0  0  0  0  0  0
    9.3810    3.2400   23.4810 C   0  0  0  0  0  0  0  0  0  0  0  0
   10.0640    4.4490   23.5750 C   0  0  0  0  0  0  0  0  0  0  0  0
    9.4630    5.6050   23.1390 C   0  0  0  0  0  0  0  0  0  0  0  0
    8.2000    5.5700   22.6100 C   0  0  0  0  0  0  0  0  0  0  0  0
    7.4690    4.3760   22.4940 C   0  0  0  0  0  0  0  0  0  0  0  0
    8.0610    3.2030   22.9360 C   0  0  0  0  0  0  0  0  0  0  0  0
    1.6870   -2.4960   26.0230 C   0  0  0  0  0  0  0  0  0  0  0  0
    1.3310   -3.8080   25.7020 C   0  0  0  0  0  0  0  0  0  0  0  0
    2.3520   -4.7340   25.6110 C   0  0  0  0  0  0  0  0  0  0  0  0
    3.6900   -4.3930   25.8310 C   0  0  0  0  0  0  0  0  0  0  0  0
    4.0370   -3.0850   26.1370 C   0  0  0  0  0  0  0  0  0  0  0  0
    3.0210   -2.1430   26.2280 C   0  0  0  0  0  0  0  0  0  0  0  0
    6.9820   -5.3520   21.6190 C   0  0  1  0  0  0  0  0  0  0  0  0
    5.8410   -6.1090   21.9410 C   0  0  0  0  0  0  0  0  0  0  0  0
    4.9610   -5.7760   22.9860 C   0  0  0  0  0  0  0  0  0  0  0  0
    5.7180   -5.3920   24.1890 N   0  0  0  0  0  0  0  0  0  0  0  0
    6.5570   -4.2170   23.9470 C   0  0  0  0  0  0  0  0  0  0  0  0
    7.4270   -4.4900   22.7280 C   0  0  2  0  0  0  0  0  0  0  0  0
  2  4  1  0
  1  7  1  0
  3  7  2  0
  4  7  1  1
  1  8  1  0
  5  9  1  0
  6  9  2  0
  8  9  1  6
 10 11  1  0
 13 14  1  0
 13 15  1  0
 13 16  1  0
  2 17  1  1
 19 22  2  0
 20 22  2  0
 16 24  3  0
 25 26  2  0
 26 27  1  0
 27 28  2  0
  8 29  1  0
 28 29  1  0
 25 30  1  0
 29 30  2  0
 31 32  1  0
  1 33  1  0
 32 33  2  0
 33 34  1  0
 13 35  1  0
 31 35  1  0
 34 35  2  0
 10 36  1  0
 36 37  2  0
 37 38  1  0
 38 39  2  0
 12 40  1  0
 39 40  1  0
  5 41  1  0
 36 41  1  0
 40 41  2  0
 18 42  1  0
 42 43  2  0
 21 44  1  0
 43 44  1  0
 22 45  1  0
 44 45  2  0
 45 46  1  0
 23 47  1  0
 42 47  1  0
 46 47  2  0
  2 48  1  0
  4 48  1  0
 48 49  1  1
 49 50  1  0
 22 51  1  0
 50 51  1  0
 51 52  1  0
  4 53  1  0
 48 53  1  0
 53 52  1  1
M  END
