x0771-x2705-x2649-x0755
     RDKit          3D

 53 59  0  0  0  0  0  0  0  0999 V2000
    6.9050   -1.4030   21.9440 N   0  0  0  0  0  0  0  0  0  0  0  0
    6.7240   -4.5360   20.2610 C   0  0  2  0  0  0  0  0  0  0  0  0
    4.7590   -2.9430   21.3160 O   0  0  0  0  0  0  0  0  0  0  0  0
    6.8130   -3.7550   21.4590 C   0  0  2  0  0  0  0  0  0  0  0  0
    7.5800    2.0330   22.8690 N   0  0  0  0  0  0  0  0  0  0  0  0
    8.7000    1.2490   21.1270 O   0  0  0  0  0  0  0  0  0  0  0  0
    6.0540   -2.6140   21.5800 C   0  0  0  0  0  0  0  0  0  0  0  0
    6.5860    0.0300   21.5740 C   0  0  1  0  0  0  0  0  0  0  0  0
    7.6930    1.1140   21.8530 C   0  0  0  0  0  0  0  0  0  0  0  0
   10.1970    2.0920   23.9790 C   0  0  0  0  0  0  0  0  0  0  0  0
    9.3210    1.2560   24.9070 C   0  0  0  0  0  0  0  0  0  0  0  0
    6.1970    4.5400   21.9060 C   0  0  0  0  0  0  0  0  0  0  0  0
   11.9840   -1.5590   23.2790 C   0  0  0  0  0  0  0  0  0  0  0  0
   12.5350   -0.1900   23.7360 C   0  0  0  0  0  0  0  0  0  0  0  0
   12.5180   -2.5890   24.2980 C   0  0  0  0  0  0  0  0  0  0  0  0
   12.5840   -1.8740   21.9560 C   0  0  0  0  0  0  0  0  0  0  0  0
    5.5000   -4.4170   19.5510 O   0  0  0  0  0  0  0  0  0  0  0  0
    0.5520   -1.3650   26.1940 C   0  0  0  0  0  0  0  0  0  0  0  0
    4.5260   -6.8180   25.7480 O   0  0  0  0  0  0  0  0  0  0  0  0
    5.9840   -4.9970   26.6410 O   0  0  0  0  0  0  0  0  0  0  0  0
    1.9210   -6.0770   25.1020 C   0  0  0  0  0  0  0  0  0  0  0  0
    5.0090   -5.4570   25.6860 S   0  0  0  0  0  0  0  0  0  0  0  0
    5.2370   -2.6490   26.4510 F   0  0  0  0  0  0  0  0  0  0  0  0
    3.9590    1.5740   21.1870 C   0  0  0  0  0  0  0  0  0  0  0  0
    6.3470    0.2780   17.8580 N   0  0  0  0  0  0  0  0  0  0  0  0
    5.2130    0.9760   17.7800 C   0  0  0  0  0  0  0  0  0  0  0  0
    4.4240    1.3980   18.7980 C   0  0  0  0  0  0  0  0  0  0  0  0
    4.8340    1.0910   20.0800 C   0  0  0  0  0  0  0  0  0  0  0  0
    6.0130    0.3770   20.2430 C   0  0  0  0  0  0  0  0  0  0  0  0
    6.7360   -0.0150   19.1030 C   0  0  0  0  0  0  0  0  0  0  0  0
    9.7070   -1.6100   24.3010 N   0  0  0  0  0  0  0  0  0  0  0  0
    8.4200   -1.5730   23.9030 N   0  0  0  0  0  0  0  0  0  0  0  0
    8.2240   -1.4860   22.5660 C   0  0  0  0  0  0  0  0  0  0  0  0
    9.5390   -1.4730   22.0620 C   0  0  0  0  0  0  0  0  0  0  0  0
   10.4360   -1.5490   23.1870 C   0  0  0  0  0  0  0  0  0  0  0  0
    9.4920    3.3450   23.5160 C   0  0  0  0  0  0  0  0  0  0  0  0
   10.1480    4.5870   23.6390 C   0  0  0  0  0  0  0  0  0  0  0  0
    9.5330    5.7640   23.2150 C   0  0  0  0  0  0  0  0  0  0  0  0
    8.2550    5.7140   22.6590 C   0  0  0  0  0  0  0  0  0  0  0  0
    7.5720    4.4860   22.5240 C   0  0  0  0  0  0  0  0  0  0  0  0
    8.2000    3.2980   22.9620 C   0  0  0  0  0  0  0  0  0  0  0  0
    1.6160   -2.4050   26.0480 C   0  0  0  0  0  0  0  0  0  0  0  0
    1.3160   -3.7170   25.6560 C   0  0  0  0  0  0  0  0  0  0  0  0
    2.3240   -4.6920   25.5280 C   0  0  0  0  0  0  0  0  0  0  0  0
    3.6520   -4.3210   25.8060 C   0  0  0  0  0  0  0  0  0  0  0  0
    3.9660   -3.0050   26.1940 C   0  0  0  0  0  0  0  0  0  0  0  0
    2.9440   -2.0830   26.3060 C   0  0  0  0  0  0  0  0  0  0  0  0
    6.6310   -5.2360   21.5510 C   0  0  1  0  0  0  0  0  0  0  0  0
    5.9300   -6.4180   21.9720 C   0  0  0  0  0  0  0  0  0  0  0  0
    4.9310   -6.0480   23.0720 C   0  0  0  0  0  0  0  0  0  0  0  0
    5.5670   -5.1680   24.1140 N   0  0  0  0  0  0  0  0  0  0  0  0
    7.0570   -4.9190   23.9610 C   0  0  0  0  0  0  0  0  0  0  0  0
    7.4270   -4.5070   22.5740 C   0  0  2  0  0  0  0  0  0  0  0  0
  2  4  1  0
  1  7  1  0
  3  7  2  0
  4  7  1  6
  1  8  1  0
  5  9  1  0
  6  9  2  0
  8  9  1  6
 10 11  1  0
 13 14  1  0
 13 15  1  0
 13 16  1  0
  2 17  1  6
 19 22  2  0
 20 22  2  0
 25 26  2  0
 26 27  1  0
 24 28  1  0
 27 28  2  0
  8 29  1  0
 28 29  1  0
 25 30  1  0
 29 30  2  0
 31 32  1  0
  1 33  1  0
 32 33  1  0
 33 34  2  0
 13 35  1  0
 31 35  2  0
 34 35  1  0
 10 36  1  0
 36 37  2  0
 37 38  1  0
 38 39  2  0
 12 40  1  0
 39 40  1  0
  5 41  1  0
 36 41  1  0
 40 41  2  0
 18 42  1  0
 42 43  2  0
 21 44  1  0
 43 44  1  0
 22 45  1  0
 44 45  2  0
 23 46  1  0
 45 46  1  0
 42 47  1  0
 46 47  2  0
  2 48  1  0
  4 48  1  0
 48 49  1  6
 49 50  1  0
 22 51  1  0
 50 51  1  0
 51 52  1  0
  4 53  1  0
 48 53  1  0
 53 52  1  1
M  END
