x0771-x2705-x1308-x2705
     RDKit          3D

 51 57  0  0  0  0  0  0  0  0999 V2000
    6.8270   -1.3950   22.0480 N   0  0  0  0  0  0  0  0  0  0  0  0
    6.7450   -4.4070   20.2330 C   0  0  2  0  0  0  0  0  0  0  0  0
    4.7370   -2.9580   21.3840 O   0  0  0  0  0  0  0  0  0  0  0  0
    6.9160   -3.6560   21.4540 C   0  0  2  0  0  0  0  0  0  0  0  0
    7.3610    2.0630   22.8150 N   0  0  0  0  0  0  0  0  0  0  0  0
    8.7960    0.9020   21.4200 O   0  0  0  0  0  0  0  0  0  0  0  0
    6.0180   -2.6090   21.6350 C   0  0  0  0  0  0  0  0  0  0  0  0
    6.4990    0.0130   21.6610 C   0  0  1  0  0  0  0  0  0  0  0  0
    7.6840    1.0120   21.9440 C   0  0  0  0  0  0  0  0  0  0  0  0
   10.1340    2.0630   23.9920 C   0  0  0  0  0  0  0  0  0  0  0  0
    9.3170    1.2080   24.9550 C   0  0  0  0  0  0  0  0  0  0  0  0
    6.1380    4.5340   21.8870 C   0  0  0  0  0  0  0  0  0  0  0  0
   11.9720   -1.5470   23.2540 C   0  0  0  0  0  0  0  0  0  0  0  0
   12.5290   -0.1870   23.7340 C   0  0  0  0  0  0  0  0  0  0  0  0
   12.4310   -2.5920   24.2930 C   0  0  0  0  0  0  0  0  0  0  0  0
   12.6570   -1.8660   21.9080 C   0  0  0  0  0  0  0  0  0  0  0  0
    5.5190   -4.2620   19.5360 O   0  0  0  0  0  0  0  0  0  0  0  0
    0.5920   -1.4160   26.3160 C   0  0  0  0  0  0  0  0  0  0  0  0
    4.5040   -6.8970   25.6060 O   0  0  0  0  0  0  0  0  0  0  0  0
    5.9910   -5.1240   26.6180 O   0  0  0  0  0  0  0  0  0  0  0  0
    1.9020   -6.0550   24.9390 C   0  0  0  0  0  0  0  0  0  0  0  0
    5.0040   -5.5370   25.6480 S   0  0  0  0  0  0  0  0  0  0  0  0
    6.3720    0.3340   17.9120 N   0  0  0  0  0  0  0  0  0  0  0  0
    5.2300    1.0290   17.7940 C   0  0  0  0  0  0  0  0  0  0  0  0
    4.4340    1.4120   18.8350 C   0  0  0  0  0  0  0  0  0  0  0  0
    4.8310    1.0740   20.1020 C   0  0  0  0  0  0  0  0  0  0  0  0
    6.0120    0.3630   20.2870 C   0  0  0  0  0  0  0  0  0  0  0  0
    6.7470    0.0090   19.1610 C   0  0  0  0  0  0  0  0  0  0  0  0
    9.6480   -1.5680   24.2560 N   0  0  0  0  0  0  0  0  0  0  0  0
    8.3240   -1.5380   24.0160 N   0  0  0  0  0  0  0  0  0  0  0  0
    8.1550   -1.4760   22.6880 C   0  0  0  0  0  0  0  0  0  0  0  0
    9.4870   -1.4760   22.1060 C   0  0  0  0  0  0  0  0  0  0  0  0
   10.4340   -1.5310   23.1470 C   0  0  0  0  0  0  0  0  0  0  0  0
    9.4150    3.3020   23.5020 C   0  0  0  0  0  0  0  0  0  0  0  0
   10.0920    4.5380   23.6090 C   0  0  0  0  0  0  0  0  0  0  0  0
    9.5020    5.7240   23.1750 C   0  0  0  0  0  0  0  0  0  0  0  0
    8.2250    5.6950   22.6220 C   0  0  0  0  0  0  0  0  0  0  0  0
    7.5170    4.4830   22.5000 C   0  0  0  0  0  0  0  0  0  0  0  0
    8.1120    3.2700   22.9460 C   0  0  0  0  0  0  0  0  0  0  0  0
    1.6600   -2.4510   26.1340 C   0  0  0  0  0  0  0  0  0  0  0  0
    1.3420   -3.7250   25.6420 C   0  0  0  0  0  0  0  0  0  0  0  0
    2.3270   -4.7150   25.4700 C   0  0  0  0  0  0  0  0  0  0  0  0
    3.6510   -4.3920   25.8080 C   0  0  0  0  0  0  0  0  0  0  0  0
    3.9740   -3.1160   26.2960 C   0  0  0  0  0  0  0  0  0  0  0  0
    2.9830   -2.1530   26.4570 C   0  0  0  0  0  0  0  0  0  0  0  0
    6.6750   -5.1600   21.4860 C   0  0  1  0  0  0  0  0  0  0  0  0
    5.8990   -6.3140   21.8650 C   0  0  0  0  0  0  0  0  0  0  0  0
    4.8840   -5.8560   22.9210 C   0  0  0  0  0  0  0  0  0  0  0  0
    5.5450   -5.1460   24.0730 N   0  0  0  0  0  0  0  0  0  0  0  0
    7.0380   -4.9180   23.9270 C   0  0  0  0  0  0  0  0  0  0  0  0
    7.4570   -4.4960   22.5570 C   0  0  2  0  0  0  0  0  0  0  0  0
  2  4  1  0
  1  7  1  0
  3  7  2  0
  4  7  1  1
  1  8  1  0
  5  9  1  0
  6  9  2  0
  8  9  1  6
 10 11  1  0
 13 14  1  0
 13 15  1  0
 13 16  1  0
  2 17  1  1
 19 22  2  0
 20 22  2  0
 23 24  2  0
 24 25  1  0
 25 26  2  0
  8 27  1  0
 26 27  1  0
 23 28  1  0
 27 28  2  0
 29 30  1  0
  1 31  1  0
 30 31  2  0
 31 32  1  0
 13 33  1  0
 29 33  1  0
 32 33  2  0
 10 34  1  0
 34 35  2  0
 35 36  1  0
 36 37  2  0
 12 38  1  0
 37 38  1  0
  5 39  1  0
 34 39  1  0
 38 39  2  0
 18 40  1  0
 40 41  2  0
 21 42  1  0
 41 42  1  0
 22 43  1  0
 42 43  2  0
 43 44  1  0
 40 45  1  0
 44 45  2  0
  2 46  1  0
  4 46  1  0
 46 47  1  1
 47 48  1  0
 22 49  1  0
 48 49  1  0
 49 50  1  0
  4 51  1  0
 46 51  1  0
 51 50  1  1
M  END
