x0771-x2705-x3117-x2646
     RDKit          3D

 53 59  0  0  0  0  0  0  0  0999 V2000
    6.8670   -1.4070   22.0190 N   0  0  0  0  0  0  0  0  0  0  0  0
    6.8130   -4.4720   20.3500 C   0  0  2  0  0  0  0  0  0  0  0  0
    4.7910   -2.9890   21.3270 O   0  0  0  0  0  0  0  0  0  0  0  0
    7.0460   -3.6560   21.5100 C   0  0  2  0  0  0  0  0  0  0  0  0
    7.3070    1.9580   22.8180 N   0  0  0  0  0  0  0  0  0  0  0  0
    8.7250    0.7630   21.4120 O   0  0  0  0  0  0  0  0  0  0  0  0
    6.0910   -2.6360   21.6110 C   0  0  0  0  0  0  0  0  0  0  0  0
    6.5650    0.0200   21.6990 C   0  0  1  0  0  0  0  0  0  0  0  0
    7.6160    0.8950   21.9460 C   0  0  0  0  0  0  0  0  0  0  0  0
   10.1110    1.9750   23.9550 C   0  0  0  0  0  0  0  0  0  0  0  0
    9.2380    1.1940   24.9680 C   0  0  0  0  0  0  0  0  0  0  0  0
    6.0940    4.4270   21.8990 C   0  0  0  0  0  0  0  0  0  0  0  0
   11.9560   -1.5270   23.2160 C   0  0  0  0  0  0  0  0  0  0  0  0
   12.5620   -0.2320   23.8010 C   0  0  0  0  0  0  0  0  0  0  0  0
   12.3810   -2.7170   24.0880 C   0  0  0  0  0  0  0  0  0  0  0  0
   12.5790   -1.7650   21.8290 C   0  0  0  0  0  0  0  0  0  0  0  0
   13.3700   -2.4280   25.2370 C   0  0  0  0  0  0  0  0  0  0  0  0
    5.5400   -4.3250   19.7150 O   0  0  0  0  0  0  0  0  0  0  0  0
    0.5510   -1.3370   26.0600 C   0  0  0  0  0  0  0  0  0  0  0  0
    4.4900   -6.9970   25.7570 O   0  0  0  0  0  0  0  0  0  0  0  0
    6.2070   -5.2590   26.8360 O   0  0  0  0  0  0  0  0  0  0  0  0
    1.8640   -6.1520   24.8700 C   0  0  0  0  0  0  0  0  0  0  0  0
    5.1020   -5.6870   25.7070 S   0  0  0  0  0  0  0  0  0  0  0  0
    4.0030    1.4420   21.2900 C   0  0  0  0  0  0  0  0  0  0  0  0
    6.4150    0.4250   17.9050 N   0  0  0  0  0  0  0  0  0  0  0  0
    5.1780    1.1570   17.7370 C   0  0  0  0  0  0  0  0  0  0  0  0
    4.4830    1.4240   18.8810 C   0  0  0  0  0  0  0  0  0  0  0  0
    4.8920    1.0590   20.1490 C   0  0  0  0  0  0  0  0  0  0  0  0
    6.0860    0.3770   20.3260 C   0  0  0  0  0  0  0  0  0  0  0  0
    6.7740    0.0940   19.1580 C   0  0  0  0  0  0  0  0  0  0  0  0
    9.7640   -1.5060   24.3340 N   0  0  0  0  0  0  0  0  0  0  0  0
    8.4460   -1.4800   23.9700 N   0  0  0  0  0  0  0  0  0  0  0  0
    8.1890   -1.4620   22.6330 C   0  0  0  0  0  0  0  0  0  0  0  0
    9.5000   -1.4880   22.1120 C   0  0  0  0  0  0  0  0  0  0  0  0
   10.4060   -1.5080   23.1660 C   0  0  0  0  0  0  0  0  0  0  0  0
    9.3800    3.2070   23.4620 C   0  0  0  0  0  0  0  0  0  0  0  0
   10.0670    4.4200   23.5560 C   0  0  0  0  0  0  0  0  0  0  0  0
    9.4710    5.6090   23.1210 C   0  0  0  0  0  0  0  0  0  0  0  0
    8.1720    5.6070   22.5790 C   0  0  0  0  0  0  0  0  0  0  0  0
    7.4810    4.3780   22.4870 C   0  0  0  0  0  0  0  0  0  0  0  0
    8.0660    3.1760   22.9250 C   0  0  0  0  0  0  0  0  0  0  0  0
    1.6340   -2.3670   25.9710 C   0  0  0  0  0  0  0  0  0  0  0  0
    1.3240   -3.6540   25.5150 C   0  0  0  0  0  0  0  0  0  0  0  0
    2.3300   -4.8180   25.3720 C   0  0  0  0  0  0  0  0  0  0  0  0
    3.7890   -4.4860   25.7810 C   0  0  0  0  0  0  0  0  0  0  0  0
    4.1060   -3.0530   26.2790 C   0  0  0  0  0  0  0  0  0  0  0  0
    2.9320   -2.0300   26.3430 C   0  0  0  0  0  0  0  0  0  0  0  0
    6.8930   -5.2710   21.6130 C   0  0  1  0  0  0  0  0  0  0  0  0
    5.8430   -6.3290   21.9270 C   0  0  0  0  0  0  0  0  0  0  0  0
    4.9920   -6.0190   23.0030 C   0  0  0  0  0  0  0  0  0  0  0  0
    5.7850   -5.5050   24.1560 N   0  0  0  0  0  0  0  0  0  0  0  0
    6.4700   -4.2200   23.8740 C   0  0  0  0  0  0  0  0  0  0  0  0
    7.2920   -4.3940   22.7490 C   0  0  2  0  0  0  0  0  0  0  0  0
  2  4  1  0
  1  7  1  0
  3  7  2  0
  4  7  1  1
  1  8  1  0
  5  9  1  0
  6  9  2  0
  8  9  1  6
 10 11  1  0
 13 14  1  0
 13 15  1  0
 13 16  1  0
 15 17  1  0
  2 18  1  1
 20 23  2  0
 21 23  2  0
 25 26  2  0
 26 27  1  0
 24 28  1  0
 27 28  2  0
  8 29  1  0
 28 29  1  0
 25 30  1  0
 29 30  2  0
 31 32  1  0
  1 33  1  0
 32 33  1  0
 33 34  2  0
 13 35  1  0
 31 35  2  0
 34 35  1  0
 10 36  1  0
 36 37  2  0
 37 38  1  0
 38 39  2  0
 12 40  1  0
 39 40  1  0
  5 41  1  0
 36 41  1  0
 40 41  2  0
 19 42  1  0
 42 43  2  0
 22 44  1  0
 43 44  1  0
 23 45  1  0
 44 45  2  0
 45 46  1  0
 42 47  1  0
 46 47  2  0
  2 48  1  0
  4 48  1  0
 48 49  1  1
 49 50  1  0
 23 51  1  0
 50 51  1  0
 51 52  1  0
  4 53  1  0
 48 53  1  0
 53 52  1  1
M  END
