x0770-x0831
     RDKit          3D

 17 18  0  0  0  0  0  0  0  0999 V2000
    7.2680   -2.9820   18.7920 C   0  0  0  0  0  0  0  0  0  0  0  0
    5.3390   -4.1970   19.7780 O   0  0  0  0  0  0  0  0  0  0  0  0
   13.3440   -1.7710   21.1830 Cl  0  0  0  0  0  0  0  0  0  0  0  0
    6.2890   -3.3690   19.8320 C   0  0  0  0  0  0  0  0  0  0  0  0
    9.2670   -2.3430   24.1130 C   0  0  0  0  0  0  0  0  0  0  0  0
    6.4730   -2.7210   21.0850 N   0  0  0  0  0  0  0  0  0  0  0  0
    7.3510   -1.5200   21.1380 C   0  0  0  0  0  0  0  0  0  0  0  0
    8.6140   -1.8060   21.8790 C   0  0  0  0  0  0  0  0  0  0  0  0
    8.2180   -2.3850   23.0900 N   0  0  0  0  0  0  0  0  0  0  0  0
    7.4630   -3.5260   23.2260 C   0  0  0  0  0  0  0  0  0  0  0  0
    6.1990   -3.3410   22.3840 C   0  0  0  0  0  0  0  0  0  0  0  0
   10.7790   -0.2650   24.4760 C   0  0  0  0  0  0  0  0  0  0  0  0
   11.8950    0.4210   24.0740 C   0  0  0  0  0  0  0  0  0  0  0  0
   12.7120   -0.0190   23.0610 C   0  0  0  0  0  0  0  0  0  0  0  0
   12.3900   -1.1710   22.4450 C   0  0  0  0  0  0  0  0  0  0  0  0
   11.2770   -1.9420   22.7750 C   0  0  0  0  0  0  0  0  0  0  0  0
   10.4840   -1.4570   23.8020 C   0  0  0  0  0  0  0  0  0  0  0  0
  1  4  1  0
  2  4  2  0
  4  6  1  0
  6  7  1  0
  7  8  1  0
  5  9  1  0
  8  9  1  0
  9 10  1  0
  6 11  1  0
 10 11  1  0
 12 13  2  0
 13 14  1  0
  3 15  1  0
 14 15  2  0
 15 16  1  0
  5 17  1  0
 12 17  1  0
 16 17  2  0
M  END
