x0771-x2705-x0691-x3124
     RDKit          3D

 53 59  0  0  0  0  0  0  0  0999 V2000
    6.8230   -1.4040   22.0100 N   0  0  0  0  0  0  0  0  0  0  0  0
    6.7640   -4.4720   20.2770 C   0  0  2  0  0  0  0  0  0  0  0  0
    4.7190   -2.9490   21.3900 O   0  0  0  0  0  0  0  0  0  0  0  0
    6.8630   -3.7500   21.5090 C   0  0  2  0  0  0  0  0  0  0  0  0
    7.3600    1.9200   22.8100 N   0  0  0  0  0  0  0  0  0  0  0  0
    8.6670    0.7500   21.2980 O   0  0  0  0  0  0  0  0  0  0  0  0
    6.0110   -2.6490   21.6440 C   0  0  0  0  0  0  0  0  0  0  0  0
    6.5210    0.0310   21.6690 C   0  0  1  0  0  0  0  0  0  0  0  0
    7.5940    0.8850   21.8930 C   0  0  0  0  0  0  0  0  0  0  0  0
   10.0710    1.9730   23.9650 C   0  0  0  0  0  0  0  0  0  0  0  0
    9.2350    1.1640   24.9890 C   0  0  0  0  0  0  0  0  0  0  0  0
    6.0980    4.5240   21.8380 C   0  0  0  0  0  0  0  0  0  0  0  0
   11.9220   -1.5680   23.2030 C   0  0  0  0  0  0  0  0  0  0  0  0
   12.5160   -0.2630   23.7910 C   0  0  0  0  0  0  0  0  0  0  0  0
   12.3940   -2.7350   24.0770 C   0  0  0  0  0  0  0  0  0  0  0  0
   12.5750   -1.7930   21.8260 C   0  0  0  0  0  0  0  0  0  0  0  0
   13.3760   -2.3980   25.2160 C   0  0  0  0  0  0  0  0  0  0  0  0
    5.5150   -4.3490   19.6020 O   0  0  0  0  0  0  0  0  0  0  0  0
    0.4810   -1.3790   26.0720 C   0  0  0  0  0  0  0  0  0  0  0  0
    4.4600   -6.9120   25.5430 O   0  0  0  0  0  0  0  0  0  0  0  0
    6.1460   -5.2100   26.7310 O   0  0  0  0  0  0  0  0  0  0  0  0
    1.7650   -6.0940   25.1510 C   0  0  0  0  0  0  0  0  0  0  0  0
    5.0460   -5.5890   25.5840 S   0  0  0  0  0  0  0  0  0  0  0  0
    3.1480   -0.6780   26.4660 F   0  0  0  0  0  0  0  0  0  0  0  0
    6.3810    0.3140   17.8920 N   0  0  0  0  0  0  0  0  0  0  0  0
    5.2520    1.0230   17.8080 C   0  0  0  0  0  0  0  0  0  0  0  0
    4.4610    1.4360   18.8390 C   0  0  0  0  0  0  0  0  0  0  0  0
    4.8650    1.1020   20.1190 C   0  0  0  0  0  0  0  0  0  0  0  0
    6.0500    0.3660   20.2820 C   0  0  0  0  0  0  0  0  0  0  0  0
    6.7640   -0.0070   19.1390 C   0  0  0  0  0  0  0  0  0  0  0  0
    9.6820   -1.5740   24.2900 N   0  0  0  0  0  0  0  0  0  0  0  0
    8.3640   -1.5410   23.9700 N   0  0  0  0  0  0  0  0  0  0  0  0
    8.1370   -1.4890   22.6090 C   0  0  0  0  0  0  0  0  0  0  0  0
    9.4480   -1.5030   22.1040 C   0  0  0  0  0  0  0  0  0  0  0  0
   10.3840   -1.5490   23.1480 C   0  0  0  0  0  0  0  0  0  0  0  0
    9.3520    3.2140   23.4730 C   0  0  0  0  0  0  0  0  0  0  0  0
   10.0400    4.4290   23.5930 C   0  0  0  0  0  0  0  0  0  0  0  0
    9.4680    5.6220   23.1650 C   0  0  0  0  0  0  0  0  0  0  0  0
    8.1900    5.6000   22.6040 C   0  0  0  0  0  0  0  0  0  0  0  0
    7.4600    4.3960   22.4640 C   0  0  0  0  0  0  0  0  0  0  0  0
    8.0390    3.1850   22.9060 C   0  0  0  0  0  0  0  0  0  0  0  0
    1.5880   -2.3770   25.9560 C   0  0  0  0  0  0  0  0  0  0  0  0
    1.2830   -3.7010   25.6350 C   0  0  0  0  0  0  0  0  0  0  0  0
    2.2480   -4.7160   25.5050 C   0  0  0  0  0  0  0  0  0  0  0  0
    3.7430   -4.4020   25.7200 C   0  0  0  0  0  0  0  0  0  0  0  0
    4.0880   -2.9370   26.0720 C   0  0  0  0  0  0  0  0  0  0  0  0
    2.8980   -1.9630   26.1680 C   0  0  0  0  0  0  0  0  0  0  0  0
    6.7800   -5.3160   21.4750 C   0  0  1  0  0  0  0  0  0  0  0  0
    5.6900   -6.2730   21.8500 C   0  0  0  0  0  0  0  0  0  0  0  0
    4.8040   -5.5630   22.8470 C   0  0  0  0  0  0  0  0  0  0  0  0
    5.6170   -5.2040   24.0240 N   0  0  0  0  0  0  0  0  0  0  0  0
    6.9920   -4.6880   23.8800 C   0  0  0  0  0  0  0  0  0  0  0  0
    7.4810   -4.5810   22.5610 C   0  0  2  0  0  0  0  0  0  0  0  0
  2  4  1  0
  1  7  1  0
  3  7  2  0
  4  7  1  1
  1  8  1  0
  5  9  1  0
  6  9  2  0
  8  9  1  6
 10 11  1  0
 13 14  1  0
 13 15  1  0
 13 16  1  0
 15 17  1  0
  2 18  1  1
 20 23  2  0
 21 23  2  0
 25 26  2  0
 26 27  1  0
 27 28  2  0
  8 29  1  0
 28 29  1  0
 25 30  1  0
 29 30  2  0
 31 32  1  0
  1 33  1  0
 32 33  2  0
 33 34  1  0
 13 35  1  0
 31 35  1  0
 34 35  2  0
 10 36  1  0
 36 37  2  0
 37 38  1  0
 38 39  2  0
 12 40  1  0
 39 40  1  0
  5 41  1  0
 36 41  1  0
 40 41  2  0
 19 42  1  0
 42 43  2  0
 22 44  1  0
 43 44  1  0
 23 45  1  0
 44 45  2  0
 45 46  1  0
 24 47  1  0
 42 47  1  0
 46 47  2  0
  2 48  1  0
  4 48  1  0
 48 49  1  1
 49 50  1  0
 23 51  1  0
 50 51  1  0
 51 52  1  0
  4 53  1  0
 48 53  1  0
 53 52  1  1
M  END
