x0771-x2705-x2705-x0691
     RDKit          3D

 52 58  0  0  0  0  0  0  0  0999 V2000
    6.8410   -1.4090   22.0320 N   0  0  0  0  0  0  0  0  0  0  0  0
    6.7510   -4.4600   20.2500 C   0  0  2  0  0  0  0  0  0  0  0  0
    4.7440   -2.9640   21.3700 O   0  0  0  0  0  0  0  0  0  0  0  0
    6.9250   -3.6770   21.4520 C   0  0  2  0  0  0  0  0  0  0  0  0
    7.3470    2.0670   22.7920 N   0  0  0  0  0  0  0  0  0  0  0  0
    8.8070    0.8790   21.4480 O   0  0  0  0  0  0  0  0  0  0  0  0
    6.0290   -2.6220   21.6230 C   0  0  0  0  0  0  0  0  0  0  0  0
    6.5020    0.0000   21.6560 C   0  0  1  0  0  0  0  0  0  0  0  0
    7.6850    1.0010   21.9450 C   0  0  0  0  0  0  0  0  0  0  0  0
   10.1170    2.0440   23.9780 C   0  0  0  0  0  0  0  0  0  0  0  0
    9.3050    1.2080   24.9640 C   0  0  0  0  0  0  0  0  0  0  0  0
    6.1430    4.5500   21.8780 C   0  0  0  0  0  0  0  0  0  0  0  0
   11.9800   -1.5450   23.2570 C   0  0  0  0  0  0  0  0  0  0  0  0
   12.5310   -0.1820   23.7370 C   0  0  0  0  0  0  0  0  0  0  0  0
   12.4420   -2.5890   24.2960 C   0  0  0  0  0  0  0  0  0  0  0  0
   12.6670   -1.8600   21.9110 C   0  0  0  0  0  0  0  0  0  0  0  0
    5.5130   -4.3940   19.5710 O   0  0  0  0  0  0  0  0  0  0  0  0
    0.5560   -1.4090   26.1960 C   0  0  0  0  0  0  0  0  0  0  0  0
    4.5060   -6.8710   25.6300 O   0  0  0  0  0  0  0  0  0  0  0  0
    5.9790   -5.0810   26.6270 O   0  0  0  0  0  0  0  0  0  0  0  0
    1.8750   -6.1460   25.2380 C   0  0  0  0  0  0  0  0  0  0  0  0
    4.9990   -5.5100   25.6580 S   0  0  0  0  0  0  0  0  0  0  0  0
    3.2900   -0.8140   26.5170 F   0  0  0  0  0  0  0  0  0  0  0  0
    6.3700    0.3380   17.9120 N   0  0  0  0  0  0  0  0  0  0  0  0
    5.2290    1.0350   17.7950 C   0  0  0  0  0  0  0  0  0  0  0  0
    4.4330    1.4140   18.8370 C   0  0  0  0  0  0  0  0  0  0  0  0
    4.8320    1.0680   20.1030 C   0  0  0  0  0  0  0  0  0  0  0  0
    6.0130    0.3560   20.2870 C   0  0  0  0  0  0  0  0  0  0  0  0
    6.7460    0.0070   19.1580 C   0  0  0  0  0  0  0  0  0  0  0  0
    9.6520   -1.5800   24.2540 N   0  0  0  0  0  0  0  0  0  0  0  0
    8.3280   -1.5550   24.0060 N   0  0  0  0  0  0  0  0  0  0  0  0
    8.1640   -1.4870   22.6790 C   0  0  0  0  0  0  0  0  0  0  0  0
    9.4990   -1.4790   22.1020 C   0  0  0  0  0  0  0  0  0  0  0  0
   10.4400   -1.5340   23.1470 C   0  0  0  0  0  0  0  0  0  0  0  0
    9.4070    3.2900   23.4940 C   0  0  0  0  0  0  0  0  0  0  0  0
   10.0890    4.5240   23.6100 C   0  0  0  0  0  0  0  0  0  0  0  0
    9.5070    5.7160   23.1810 C   0  0  0  0  0  0  0  0  0  0  0  0
    8.2330    5.6970   22.6250 C   0  0  0  0  0  0  0  0  0  0  0  0
    7.5190    4.4880   22.4930 C   0  0  0  0  0  0  0  0  0  0  0  0
    8.1070    3.2700   22.9350 C   0  0  0  0  0  0  0  0  0  0  0  0
    1.6330   -2.4370   26.0450 C   0  0  0  0  0  0  0  0  0  0  0  0
    1.3110   -3.7630   25.7240 C   0  0  0  0  0  0  0  0  0  0  0  0
    2.3040   -4.7490   25.5870 C   0  0  0  0  0  0  0  0  0  0  0  0
    3.6410   -4.3690   25.7860 C   0  0  0  0  0  0  0  0  0  0  0  0
    3.9710   -3.0400   26.0990 C   0  0  0  0  0  0  0  0  0  0  0  0
    2.9680   -2.0810   26.2240 C   0  0  0  0  0  0  0  0  0  0  0  0
    6.7080   -5.1860   21.5200 C   0  0  1  0  0  0  0  0  0  0  0  0
    5.9470   -6.3410   21.9240 C   0  0  0  0  0  0  0  0  0  0  0  0
    4.9020   -5.9090   22.9590 C   0  0  0  0  0  0  0  0  0  0  0  0
    5.5400   -5.1400   24.0820 N   0  0  0  0  0  0  0  0  0  0  0  0
    7.0280   -4.8760   23.9460 C   0  0  0  0  0  0  0  0  0  0  0  0
    7.4760   -4.4850   22.5740 C   0  0  2  0  0  0  0  0  0  0  0  0
  2  4  1  0
  1  7  1  0
  3  7  2  0
  4  7  1  1
  1  8  1  0
  5  9  1  0
  6  9  2  0
  8  9  1  6
 10 11  1  0
 13 14  1  0
 13 15  1  0
 13 16  1  0
  2 17  1  1
 19 22  2  0
 20 22  2  0
 24 25  2  0
 25 26  1  0
 26 27  2  0
  8 28  1  0
 27 28  1  0
 24 29  1  0
 28 29  2  0
 30 31  1  0
  1 32  1  0
 31 32  2  0
 32 33  1  0
 13 34  1  0
 30 34  1  0
 33 34  2  0
 10 35  1  0
 35 36  2  0
 36 37  1  0
 37 38  2  0
 12 39  1  0
 38 39  1  0
  5 40  1  0
 35 40  1  0
 39 40  2  0
 18 41  1  0
 41 42  2  0
 21 43  1  0
 42 43  1  0
 22 44  1  0
 43 44  2  0
 44 45  1  0
 23 46  1  0
 41 46  1  0
 45 46  2  0
  2 47  1  0
  4 47  1  0
 47 48  1  1
 48 49  1  0
 22 50  1  0
 49 50  1  0
 50 51  1  0
  4 52  1  0
 47 52  1  0
 52 51  1  1
M  END
