x0771-x2705-x2572-x2703
     RDKit          3D

 54 60  0  0  0  0  0  0  0  0999 V2000
    6.8870   -1.4000   21.9710 N   0  0  0  0  0  0  0  0  0  0  0  0
    6.8880   -4.4990   20.3450 C   0  0  2  0  0  0  0  0  0  0  0  0
    4.8500   -3.0360   21.2920 O   0  0  0  0  0  0  0  0  0  0  0  0
    7.1500   -3.7010   21.4930 C   0  0  2  0  0  0  0  0  0  0  0  0
    7.4660    1.9740   22.8650 N   0  0  0  0  0  0  0  0  0  0  0  0
    8.6060    1.2090   21.0440 O   0  0  0  0  0  0  0  0  0  0  0  0
    6.1560   -2.6560   21.5800 C   0  0  0  0  0  0  0  0  0  0  0  0
    6.5270   -0.0110   21.5410 C   0  0  1  0  0  0  0  0  0  0  0  0
    7.6260    1.0920   21.8060 C   0  0  0  0  0  0  0  0  0  0  0  0
   10.1510    2.0580   23.9660 C   0  0  0  0  0  0  0  0  0  0  0  0
    9.3000    1.2230   24.9270 C   0  0  0  0  0  0  0  0  0  0  0  0
    6.1270    4.5420   21.9140 C   0  0  0  0  0  0  0  0  0  0  0  0
   11.9890   -1.5280   23.3050 C   0  0  2  0  0  0  0  0  0  0  0  0
   12.5330   -0.2200   23.9480 C   0  0  0  0  0  0  0  0  0  0  0  0
   12.4350   -2.7580   24.1350 C   0  0  0  0  0  0  0  0  0  0  0  0
   12.6910   -1.6910   21.9400 C   0  0  0  0  0  0  0  0  0  0  0  0
   13.4330   -2.5800   25.2490 C   0  0  0  0  0  0  0  0  0  0  0  0
    5.5980   -4.4010   19.7380 O   0  0  0  0  0  0  0  0  0  0  0  0
    0.6140   -1.4120   26.1120 C   0  0  0  0  0  0  0  0  0  0  0  0
    4.3850   -6.8540   25.9200 O   0  0  0  0  0  0  0  0  0  0  0  0
    5.9840   -5.1380   26.7630 O   0  0  0  0  0  0  0  0  0  0  0  0
    1.9320   -6.0830   24.9550 C   0  0  0  0  0  0  0  0  0  0  0  0
    5.0080   -5.5570   25.7790 S   0  0  0  0  0  0  0  0  0  0  0  0
    3.8260    1.4380   21.1940 C   0  0  0  0  0  0  0  0  0  0  0  0
   13.2970   -1.8360   20.9540 N   0  0  0  0  0  0  0  0  0  0  0  0
    6.3460    0.4620   17.8450 N   0  0  0  0  0  0  0  0  0  0  0  0
    5.1870    1.1170   17.7490 C   0  0  0  0  0  0  0  0  0  0  0  0
    4.3710    1.4280   18.8100 C   0  0  0  0  0  0  0  0  0  0  0  0
    4.7550    1.0630   20.0850 C   0  0  0  0  0  0  0  0  0  0  0  0
    5.9460    0.4040   20.2320 C   0  0  0  0  0  0  0  0  0  0  0  0
    6.7020    0.1180   19.0850 C   0  0  0  0  0  0  0  0  0  0  0  0
    9.7260   -1.5470   24.3060 N   0  0  0  0  0  0  0  0  0  0  0  0
    8.4230   -1.5180   23.9370 N   0  0  0  0  0  0  0  0  0  0  0  0
    8.1960   -1.4690   22.5850 C   0  0  0  0  0  0  0  0  0  0  0  0
    9.5500   -1.4780   22.0820 C   0  0  0  0  0  0  0  0  0  0  0  0
   10.4570   -1.5180   23.1870 C   0  0  0  0  0  0  0  0  0  0  0  0
    9.4250    3.2950   23.4910 C   0  0  0  0  0  0  0  0  0  0  0  0
   10.1050    4.5140   23.6040 C   0  0  0  0  0  0  0  0  0  0  0  0
    9.5040    5.6980   23.1820 C   0  0  0  0  0  0  0  0  0  0  0  0
    8.2150    5.6750   22.6380 C   0  0  0  0  0  0  0  0  0  0  0  0
    7.5050    4.4540   22.5140 C   0  0  0  0  0  0  0  0  0  0  0  0
    8.1120    3.2490   22.9480 C   0  0  0  0  0  0  0  0  0  0  0  0
    1.6850   -2.4620   26.0210 C   0  0  0  0  0  0  0  0  0  0  0  0
    1.3600   -3.7500   25.5540 C   0  0  0  0  0  0  0  0  0  0  0  0
    2.3620   -4.7340   25.4670 C   0  0  0  0  0  0  0  0  0  0  0  0
    3.6750   -4.4290   25.8470 C   0  0  0  0  0  0  0  0  0  0  0  0
    3.9870   -3.1590   26.3060 C   0  0  0  0  0  0  0  0  0  0  0  0
    2.9990   -2.1780   26.3930 C   0  0  0  0  0  0  0  0  0  0  0  0
    6.9190   -5.2930   21.6070 C   0  0  1  0  0  0  0  0  0  0  0  0
    5.9050   -6.3650   21.9280 C   0  0  0  0  0  0  0  0  0  0  0  0
    5.0160   -6.0440   23.1310 C   0  0  0  0  0  0  0  0  0  0  0  0
    5.7690   -5.5110   24.2790 N   0  0  0  0  0  0  0  0  0  0  0  0
    6.3880   -4.2400   23.9090 C   0  0  0  0  0  0  0  0  0  0  0  0
    7.2970   -4.4510   22.7550 C   0  0  2  0  0  0  0  0  0  0  0  0
  2  4  1  0
  1  7  1  0
  3  7  2  0
  4  7  1  1
  1  8  1  0
  5  9  1  0
  6  9  2  0
  8  9  1  6
 10 11  1  0
 13 14  1  1
 13 15  1  0
 13 16  1  0
 15 17  1  0
  2 18  1  1
 20 23  2  0
 21 23  2  0
 16 25  3  0
 26 27  2  0
 27 28  1  0
 24 29  1  0
 28 29  2  0
  8 30  1  0
 29 30  1  0
 26 31  1  0
 30 31  2  0
 32 33  1  0
  1 34  1  0
 33 34  1  0
 34 35  2  0
 13 36  1  0
 32 36  2  0
 35 36  1  0
 10 37  1  0
 37 38  2  0
 38 39  1  0
 39 40  2  0
 12 41  1  0
 40 41  1  0
  5 42  1  0
 37 42  1  0
 41 42  2  0
 19 43  1  0
 43 44  2  0
 22 45  1  0
 44 45  1  0
 23 46  1  0
 45 46  2  0
 46 47  1  0
 43 48  1  0
 47 48  2  0
  2 49  1  0
  4 49  1  0
 49 50  1  1
 50 51  1  0
 23 52  1  0
 51 52  1  0
 52 53  1  0
  4 54  1  0
 49 54  1  0
 54 53  1  1
M  END
