x0786-x0731-x0771-x2705-x3117
     RDKit          3D

 58 65  0  0  0  0  0  0  0  0999 V2000
    7.0110   -1.3990   21.6960 N   0  0  0  0  0  0  0  0  0  0  0  0
    6.7780   -4.2070   20.2700 C   0  0  2  0  0  0  0  0  0  0  0  0
    5.0420   -3.3570   21.2680 O   0  0  0  0  0  0  0  0  0  0  0  0
    6.9040   -3.3410   21.4740 C   0  0  2  0  0  0  0  0  0  0  0  0
    7.5140    2.0660   22.7900 N   0  0  0  0  0  0  0  0  0  0  0  0
    8.8130    1.2240   21.1010 O   0  0  0  0  0  0  0  0  0  0  0  0
    5.8420   -2.3240   21.4690 C   0  0  0  0  0  0  0  0  0  0  0  0
    6.6940    0.0540   21.5020 C   0  0  1  0  0  0  0  0  0  0  0  0
    7.7850    1.1560   21.7910 C   0  0  0  0  0  0  0  0  0  0  0  0
   10.2500    2.1190   23.9790 C   0  0  0  0  0  0  0  0  0  0  0  0
    9.3910    1.2230   24.8680 C   0  0  0  0  0  0  0  0  0  0  0  0
    6.1820    4.5740   21.8900 C   0  0  0  0  0  0  0  0  0  0  0  0
   12.0250   -1.5660   23.2190 C   0  0  0  0  0  0  0  0  0  0  0  0
   12.5010   -0.2400   23.8700 C   0  0  0  0  0  0  0  0  0  0  0  0
   12.4800   -2.7460   24.0830 C   0  0  0  0  0  0  0  0  0  0  0  0
   12.7200   -1.7470   21.8580 C   0  0  0  0  0  0  0  0  0  0  0  0
   13.4050   -2.4760   25.2460 C   0  0  0  0  0  0  0  0  0  0  0  0
    5.5380   -4.1900   19.5660 O   0  0  0  0  0  0  0  0  0  0  0  0
    0.6830   -1.4040   26.1000 C   0  0  0  0  0  0  0  0  0  0  0  0
    4.6500   -6.8970   25.9490 O   0  0  0  0  0  0  0  0  0  0  0  0
    6.0800   -5.0540   26.8500 O   0  0  0  0  0  0  0  0  0  0  0  0
    2.0970   -6.3060   25.4750 C   0  0  0  0  0  0  0  0  0  0  0  0
    5.1620   -5.5520   25.8530 S   0  0  0  0  0  0  0  0  0  0  0  0
    6.3000    0.4930   17.7820 N   0  0  0  0  0  0  0  0  0  0  0  0
    5.1680    1.2010   17.7440 C   0  0  0  0  0  0  0  0  0  0  0  0
    4.4470    1.5630   18.8440 C   0  0  0  0  0  0  0  0  0  0  0  0
    4.9300    1.1830   20.0670 C   0  0  0  0  0  0  0  0  0  0  0  0
    6.1260    0.4460   20.1870 C   0  0  0  0  0  0  0  0  0  0  0  0
    6.7420    0.1370   18.9930 C   0  0  0  0  0  0  0  0  0  0  0  0
    9.6280   -1.8200   24.1460 N   0  0  0  0  0  0  0  0  0  0  0  0
    8.3160   -1.7940   23.8000 N   0  0  0  0  0  0  0  0  0  0  0  0
    8.2300   -1.5460   22.4740 C   0  0  0  0  0  0  0  0  0  0  0  0
    9.5800   -1.4310   22.0590 C   0  0  0  0  0  0  0  0  0  0  0  0
   10.4940   -1.5960   23.0970 C   0  0  0  0  0  0  0  0  0  0  0  0
    9.5090    3.3550   23.5140 C   0  0  0  0  0  0  0  0  0  0  0  0
   10.1600    4.6070   23.6540 C   0  0  0  0  0  0  0  0  0  0  0  0
    9.5360    5.8160   23.2350 C   0  0  0  0  0  0  0  0  0  0  0  0
    8.2650    5.8000   22.6730 C   0  0  0  0  0  0  0  0  0  0  0  0
    7.5580    4.5380   22.5100 C   0  0  0  0  0  0  0  0  0  0  0  0
    8.2220    3.2850   22.9570 C   0  0  0  0  0  0  0  0  0  0  0  0
    1.7720   -2.4310   26.0280 C   0  0  0  0  0  0  0  0  0  0  0  0
    1.4360   -3.8890   25.7780 C   0  0  0  0  0  0  0  0  0  0  0  0
    2.4470   -4.8410   25.7190 C   0  0  0  0  0  0  0  0  0  0  0  0
    3.7700   -4.4290   25.8950 C   0  0  0  0  0  0  0  0  0  0  0  0
    4.0860   -3.0770   26.1230 C   0  0  0  0  0  0  0  0  0  0  0  0
    3.1030   -2.0830   26.1900 C   0  0  0  0  0  0  0  0  0  0  0  0
    6.8080   -4.8330   21.6230 C   0  0  1  0  0  0  0  0  0  0  0  0
    5.6970   -5.6750   21.8620 C   0  0  0  0  0  0  0  0  0  0  0  0
    4.9400   -5.5050   23.1840 C   0  0  0  0  0  0  0  0  0  0  0  0
    5.8070   -5.3050   24.3380 N   0  0  0  0  0  0  0  0  0  0  0  0
    6.5960   -4.1300   24.0640 C   0  0  0  0  0  0  0  0  0  0  0  0
    7.4090   -4.2480   22.7750 C   0  0  2  0  0  0  0  0  0  0  0  0
    1.3450   -5.7800   23.2430 C   0  0  0  0  0  0  0  0  0  0  0  0
    0.0080   -5.1540   23.6710 C   0  0  0  0  0  0  0  0  0  0  0  0
   -1.3050   -6.3370   24.1410 S   0  0  0  0  0  0  0  0  0  0  0  0
   -0.3560   -7.7490   24.8180 C   0  0  0  0  0  0  0  0  0  0  0  0
    0.9690   -7.9730   24.0980 C   0  0  0  0  0  0  0  0  0  0  0  0
    1.7950   -6.7660   24.2170 N   0  0  0  0  0  0  0  0  0  0  0  0
  2  4  1  0
  1  7  1  0
  3  7  2  0
  4  7  1  1
  1  8  1  0
  5  9  1  0
  6  9  2  0
  8  9  1  6
 10 11  1  0
 13 14  1  0
 13 15  1  0
 13 16  1  0
 15 17  1  0
  2 18  1  1
 20 23  2  0
 21 23  2  0
 24 25  2  0
 25 26  1  0
 26 27  2  0
  8 28  1  0
 27 28  1  0
 24 29  1  0
 28 29  2  0
 30 31  1  0
  1 32  1  0
 31 32  1  0
 32 33  2  0
 13 34  1  0
 30 34  2  0
 33 34  1  0
 10 35  1  0
 35 36  2  0
 36 37  1  0
 37 38  2  0
 12 39  1  0
 38 39  1  0
  5 40  1  0
 35 40  1  0
 39 40  2  0
 19 41  1  0
 41 42  2  0
 22 43  1  0
 42 43  1  0
 23 44  1  0
 43 44  2  0
 44 45  1  0
 41 46  1  0
 45 46  2  0
  2 47  1  0
  4 47  1  0
 47 48  1  1
 48 49  1  0
 23 50  1  0
 49 50  1  0
 50 51  1  0
  4 52  1  0
 47 52  1  0
 52 51  1  1
 53 54  1  0
 54 55  1  0
 55 56  1  0
 56 57  1  0
 22 58  1  0
 53 58  1  0
 57 58  1  0
M  END
