x0786-x2705-x0691-x2572
     RDKit          3D

 59 65  0  0  0  0  0  0  0  0999 V2000
    6.5560   -1.7820   22.2840 N   0  0  0  0  0  0  0  0  0  0  0  0
    6.6270   -4.5520   20.2620 C   0  0  2  0  0  0  0  0  0  0  0  0
    4.6110   -3.1180   21.7440 O   0  0  0  0  0  0  0  0  0  0  0  0
    6.7550   -4.0270   21.5610 C   0  0  1  0  0  0  0  0  0  0  0  0
    7.9450    1.0760   23.5100 N   0  0  0  0  0  0  0  0  0  0  0  0
    8.0710    1.1560   21.0600 O   0  0  0  0  0  0  0  0  0  0  0  0
    5.8480   -2.9350   21.8790 C   0  0  0  0  0  0  0  0  0  0  0  0
    6.2140   -0.3810   21.8950 C   0  0  1  0  0  0  0  0  0  0  0  0
    7.4130    0.6120   22.2110 C   0  0  0  0  0  0  0  0  0  0  0  0
   10.2030   -0.0350   25.0730 C   0  0  0  0  0  0  0  0  0  0  0  0
    9.2870    0.2450   26.2550 C   0  0  0  0  0  0  0  0  0  0  0  0
    8.2770    3.4330   21.7860 C   0  0  0  0  0  0  0  0  0  0  0  0
   11.6990   -1.9550   23.0010 C   0  0  0  0  0  0  0  0  0  0  0  0
   12.1250   -0.4900   23.1790 C   0  0  0  0  0  0  0  0  0  0  0  0
   12.3950   -2.7700   24.1170 C   0  0  0  0  0  0  0  0  0  0  0  0
   12.2870   -2.3410   21.7150 C   0  0  0  0  0  0  0  0  0  0  0  0
    5.4200   -4.3340   19.5300 O   0  0  0  0  0  0  0  0  0  0  0  0
    2.6300   -5.8880   24.8040 C   0  0  0  0  0  0  0  0  0  0  0  0
    3.9340   -8.0830   25.2120 O   0  0  0  0  0  0  0  0  0  0  0  0
    6.6370   -6.4140   29.6410 F   0  0  0  0  0  0  0  0  0  0  0  0
    4.1900   -6.6700   25.0560 S   0  0  2  0  0  0  0  0  0  0  0  0
    1.2900   -5.2150   24.5870 C   0  0  0  0  0  0  0  0  0  0  0  0
    4.0240    1.5930   21.7190 C   0  0  0  0  0  0  0  0  0  0  0  0
   12.8400   -2.5710   20.7280 N   0  0  0  0  0  0  0  0  0  0  0  0
    5.9700   -0.1770   18.0510 N   0  0  0  0  0  0  0  0  0  0  0  0
    4.9990    0.7090   17.9070 C   0  0  0  0  0  0  0  0  0  0  0  0
    4.3120    1.3250   19.0690 C   0  0  0  0  0  0  0  0  0  0  0  0
    4.6990    0.9660   20.5300 C   0  0  0  0  0  0  0  0  0  0  0  0
    5.7200    0.0330   20.5130 C   0  0  0  0  0  0  0  0  0  0  0  0
    6.3030   -0.4930   19.3310 C   0  0  0  0  0  0  0  0  0  0  0  0
    9.4730   -2.7760   23.9890 N   0  0  0  0  0  0  0  0  0  0  0  0
    8.1410   -2.7590   23.8490 N   0  0  0  0  0  0  0  0  0  0  0  0
    7.8910   -2.0270   22.7530 C   0  0  0  0  0  0  0  0  0  0  0  0
    9.1460   -1.5820   22.2030 C   0  0  0  0  0  0  0  0  0  0  0  0
   10.1630   -2.0770   23.0270 C   0  0  0  0  0  0  0  0  0  0  0  0
   10.3080    1.1630   24.1430 C   0  0  0  0  0  0  0  0  0  0  0  0
   11.5520    1.7610   24.0090 C   0  0  0  0  0  0  0  0  0  0  0  0
   11.7400    2.8590   23.1900 C   0  0  0  0  0  0  0  0  0  0  0  0
   10.6660    3.3990   22.4710 C   0  0  0  0  0  0  0  0  0  0  0  0
    9.3860    2.8080   22.5830 C   0  0  0  0  0  0  0  0  0  0  0  0
    9.2150    1.6820   23.4190 C   0  0  0  0  0  0  0  0  0  0  0  0
    6.1650   -5.7850   28.5580 C   0  0  0  0  0  0  0  0  0  0  0  0
    5.5250   -6.5100   27.5320 C   0  0  0  0  0  0  0  0  0  0  0  0
    5.0330   -5.8210   26.4050 C   0  0  0  0  0  0  0  0  0  0  0  0
    5.1850   -4.4230   26.3100 C   0  0  0  0  0  0  0  0  0  0  0  0
    5.8220   -3.7140   27.3330 C   0  0  0  0  0  0  0  0  0  0  0  0
    6.3030   -4.4000   28.4440 C   0  0  0  0  0  0  0  0  0  0  0  0
    6.6070   -5.5650   21.3250 C   0  0  0  0  0  0  0  0  0  0  0  0
    5.5160   -6.5780   21.4470 C   0  0  0  0  0  0  0  0  0  0  0  0
    4.5200   -6.1360   22.4610 C   0  0  0  0  0  0  0  0  0  0  0  0
    5.2020   -6.1870   23.7650 N   0  0  0  0  0  0  0  0  0  0  0  0
    6.2940   -5.1550   23.8820 C   0  0  0  0  0  0  0  0  0  0  0  0
    7.1190   -4.9530   22.6040 C   0  0  0  0  0  0  0  0  0  0  0  0
   -0.1750   -6.6240   23.2300 C   0  0  0  0  0  0  0  0  0  0  0  0
   -0.2860   -5.8250   22.1540 C   0  0  0  0  0  0  0  0  0  0  0  0
   -1.7970   -4.8150   22.1920 S   0  0  0  0  0  0  0  0  0  0  0  0
   -1.5750   -4.0910   23.8450 C   0  0  0  0  0  0  0  0  0  0  0  0
   -1.1560   -5.1370   24.8850 C   0  0  0  0  0  0  0  0  0  0  0  0
    0.0160   -5.9560   24.5340 N   0  0  0  0  0  0  0  0  0  0  0  0
  2  4  1  0
  1  7  1  0
  3  7  2  0
  4  7  1  1
  1  8  1  0
  5  9  1  0
  6  9  2  0
  8  9  1  6
 10 11  1  0
 13 14  1  0
 13 15  1  0
 13 16  1  0
  2 17  1  1
 18 21  2  0
 19 21  2  0
 18 22  2  0
 16 24  3  0
 25 26  2  0
 26 27  1  0
 23 28  1  0
 27 28  2  0
  8 29  1  0
 28 29  1  0
 25 30  1  0
 29 30  2  0
 31 32  1  0
  1 33  1  0
 32 33  2  0
 33 34  1  0
 13 35  1  0
 31 35  1  0
 34 35  2  0
 10 36  1  0
 36 37  2  0
 37 38  1  0
 38 39  2  0
 12 40  1  0
 39 40  1  0
  5 41  1  0
 36 41  1  0
 40 41  2  0
 20 42  1  0
 42 43  2  0
 21 44  1  1
 43 44  1  0
 44 45  2  0
 45 46  1  0
 42 47  1  0
 46 47  2  0
  2 48  1  0
  4 48  1  0
 48 49  1  0
 49 50  1  0
 21 51  1  0
 50 51  1  0
 51 52  1  0
 48 53  1  0
 52 53  1  0
 54 55  1  0
 55 56  1  0
 56 57  1  0
 57 58  1  0
 22 59  1  0
 54 59  1  0
 58 59  1  0
M  END
