x0786-x0874
     RDKit          3D

 31 34  0  0  0  0  0  0  0  0999 V2000
    6.7090   -3.9210   21.9060 N   0  0  0  0  0  0  0  0  0  0  0  0
    6.5030   -2.5990   19.8300 C   0  0  0  0  0  0  0  0  0  0  0  0
    5.4950   -4.6990   20.1630 O   0  0  0  0  0  0  0  0  0  0  0  0
    6.2050   -3.8040   20.6490 C   0  0  0  0  0  0  0  0  0  0  0  0
    3.9500   -7.9430   24.7170 O   0  0  0  0  0  0  0  0  0  0  0  0
    3.4340   -6.9220   24.2720 C   0  0  0  0  0  0  0  0  0  0  0  0
    9.8000    3.3700   22.2350 N   0  0  0  0  0  0  0  0  0  0  0  0
    9.1540    2.1720   22.1200 C   0  0  0  0  0  0  0  0  0  0  0  0
    8.6290    1.8530   21.0610 O   0  0  0  0  0  0  0  0  0  0  0  0
    7.9330   -3.1210   22.2010 C   0  0  0  0  0  0  0  0  0  0  0  0
    7.7410   -1.7370   22.2420 C   0  0  0  0  0  0  0  0  0  0  0  0
    5.8720   -4.2400   23.0440 C   0  0  0  0  0  0  0  0  0  0  0  0
    5.0730   -5.4050   23.1150 C   0  0  0  0  0  0  0  0  0  0  0  0
    4.2580   -5.6910   24.2400 C   0  0  0  0  0  0  0  0  0  0  0  0
    4.2140   -4.8300   25.3290 C   0  0  0  0  0  0  0  0  0  0  0  0
    5.0710   -3.5860   25.2510 C   0  0  0  0  0  0  0  0  0  0  0  0
    5.8530   -3.3440   24.1320 C   0  0  0  0  0  0  0  0  0  0  0  0
    1.5350   -5.5500   23.4100 C   0  0  0  0  0  0  0  0  0  0  0  0
    0.4670   -5.0220   24.3700 C   0  0  0  0  0  0  0  0  0  0  0  0
   -0.9420   -6.1740   24.4030 S   0  0  0  0  0  0  0  0  0  0  0  0
    0.0230   -7.6340   24.9360 C   0  0  0  0  0  0  0  0  0  0  0  0
    1.2010   -7.9550   23.9970 C   0  0  0  0  0  0  0  0  0  0  0  0
    2.1210   -6.8290   23.8050 N   0  0  0  0  0  0  0  0  0  0  0  0
    9.1680    1.2730   23.3340 C   0  0  1  0  0  0  0  0  0  0  0  0
    8.1090    0.3350   23.3860 C   0  0  0  0  0  0  0  0  0  0  0  0
    8.5560   -0.9820   23.3100 C   0  0  2  0  0  0  0  0  0  0  0  0
    9.9500   -0.9060   23.1430 C   0  0  0  0  0  0  0  0  0  0  0  0
   10.3710    0.3990   23.1690 C   0  0  0  0  0  0  0  0  0  0  0  0
   11.7520    0.6390   23.0340 C   0  0  0  0  0  0  0  0  0  0  0  0
   11.3110   -1.9080   22.9210 S   0  0  0  0  0  0  0  0  0  0  0  0
   12.4150   -0.5580   22.8880 C   0  0  0  0  0  0  0  0  0  0  0  0
  1  4  1  0
  2  4  1  0
  3  4  2  0
  5  6  2  0
  7  8  1  0
  8  9  2  0
  1 10  1  0
 10 11  1  0
  1 12  1  0
 12 13  2  0
  6 14  1  0
 13 14  1  0
 14 15  2  0
 15 16  1  0
 12 17  1  0
 16 17  2  0
 18 19  1  0
 19 20  1  0
 20 21  1  0
 21 22  1  0
  6 23  1  0
 18 23  1  0
 22 23  1  0
 24  8  1  6
 24 25  1  0
 26 11  1  6
 25 26  1  0
 26 27  1  0
 24 28  1  0
 27 28  2  0
 28 29  1  0
 27 30  1  0
 29 31  2  0
 30 31  1  0
M  END
