x0786-x0395
     RDKit          3D

 34 37  0  0  0  0  0  0  0  0999 V2000
    6.3570   -3.5430   21.9790 N   0  0  0  0  0  0  0  0  0  0  0  0
    8.0040   -4.5240   20.6970 C   0  0  0  0  0  0  0  0  0  0  0  0
    5.6390   -4.3760   19.9140 O   0  0  0  0  0  0  0  0  0  0  0  0
    6.5650   -4.1680   20.7700 C   0  0  0  0  0  0  0  0  0  0  0  0
    3.9330   -7.9020   24.5930 O   0  0  0  0  0  0  0  0  0  0  0  0
    3.3680   -6.8960   24.1620 C   0  0  0  0  0  0  0  0  0  0  0  0
    9.5560   -5.4860   26.3770 C   0  0  0  0  0  0  0  0  0  0  0  0
    8.9640   -1.2090   23.2480 C   0  0  1  0  0  0  0  0  0  0  0  0
   13.5000   -1.6110   21.6090 F   0  0  0  0  0  0  0  0  0  0  0  0
    7.6450   -3.0900   22.5120 C   0  0  0  0  0  0  0  0  0  0  0  0
    8.1830   -1.7480   22.0340 C   0  0  0  0  0  0  0  0  0  0  0  0
    5.5740   -4.0340   23.0160 C   0  0  0  0  0  0  0  0  0  0  0  0
    4.8930   -5.2420   22.9920 C   0  0  0  0  0  0  0  0  0  0  0  0
    4.1330   -5.6390   24.1070 C   0  0  0  0  0  0  0  0  0  0  0  0
    4.0920   -4.8210   25.1850 C   0  0  0  0  0  0  0  0  0  0  0  0
    4.7620   -3.6020   25.2540 C   0  0  0  0  0  0  0  0  0  0  0  0
    5.4970   -3.2280   24.1560 C   0  0  0  0  0  0  0  0  0  0  0  0
    1.4660   -5.6970   23.2890 C   0  0  0  0  0  0  0  0  0  0  0  0
    0.5540   -5.1150   24.2800 C   0  0  0  0  0  0  0  0  0  0  0  0
   -0.8950   -6.2000   24.4130 S   0  0  0  0  0  0  0  0  0  0  0  0
    0.0300   -7.6790   24.9500 C   0  0  0  0  0  0  0  0  0  0  0  0
    1.0080   -7.9830   23.9840 C   0  0  0  0  0  0  0  0  0  0  0  0
    1.9680   -6.8980   23.7250 N   0  0  0  0  0  0  0  0  0  0  0  0
    9.1990   -4.2030   25.7280 C   0  0  0  0  0  0  0  0  0  0  0  0
    8.2440   -3.2270   26.2560 N   0  0  0  0  0  0  0  0  0  0  0  0
    8.1470   -2.1540   25.4050 N   0  0  0  0  0  0  0  0  0  0  0  0
    8.9360   -2.2700   24.3270 C   0  0  0  0  0  0  0  0  0  0  0  0
    9.8800   -3.7210   24.2610 S   0  0  0  0  0  0  0  0  0  0  0  0
   10.8010    0.0590   23.9580 C   0  0  0  0  0  0  0  0  0  0  0  0
   11.7490    0.9410   23.4730 C   0  0  0  0  0  0  0  0  0  0  0  0
   12.7720    0.2880   22.8070 C   0  0  0  0  0  0  0  0  0  0  0  0
   12.5260   -0.9720   22.2690 C   0  0  0  0  0  0  0  0  0  0  0  0
   11.2750   -1.5820   22.3930 C   0  0  0  0  0  0  0  0  0  0  0  0
   10.2810   -0.6180   22.9200 N   0  0  0  0  0  0  0  0  0  0  0  0
  1  4  1  0
  2  4  1  0
  3  4  2  0
  5  6  2  0
  1 10  1  0
  8 11  1  6
 10 11  1  0
  1 12  1  0
 12 13  2  0
  6 14  1  0
 13 14  1  0
 14 15  2  0
 15 16  1  0
 12 17  1  0
 16 17  2  0
 18 19  1  0
 19 20  1  0
 20 21  1  0
 21 22  1  0
  6 23  1  0
 18 23  1  0
 22 23  1  0
  7 24  1  0
 24 25  2  0
 25 26  1  0
  8 27  1  0
 26 27  2  0
 24 28  1  0
 27 28  1  0
 29 30  1  0
 30 31  1  0
  9 32  1  0
 31 32  2  0
 32 33  1  0
  8 34  1  0
 29 34  1  0
 33 34  1  0
M  END
