x0786-x3298
     RDKit          3D

 48 52  0  0  0  0  0  0  0  0999 V2000
    7.1690    2.3100   21.9980 N   0  0  0  0  0  0  0  0  0  0  0  0
    7.4610   -0.0070   21.1900 C   0  0  2  0  0  0  0  0  0  0  0  0
    6.7790   -0.2930   22.1400 O   0  0  0  0  0  0  0  0  0  0  0  0
    8.0680    1.3360   21.3980 C   0  0  0  0  0  0  0  0  0  0  0  0
    8.6990    1.3110   23.9140 N   0  0  0  0  0  0  0  0  0  0  0  0
    9.1750    1.5980   21.0650 O   0  0  0  0  0  0  0  0  0  0  0  0
   10.8230    1.9860   24.6260 O   0  0  0  0  0  0  0  0  0  0  0  0
    9.8070   -0.1300   25.8350 O   0  0  0  0  0  0  0  0  0  0  0  0
   13.5600   -1.8950   20.9470 F   0  0  0  0  0  0  0  0  0  0  0  0
   10.1330    0.7320   24.6290 S   0  0  0  0  0  0  0  0  0  0  0  0
    5.8980   -3.8060   21.8570 N   0  0  0  0  0  0  0  0  0  0  0  0
    7.5090   -4.7460   20.5410 C   0  0  0  0  0  0  0  0  0  0  0  0
    5.1320   -4.6950   19.9450 O   0  0  0  0  0  0  0  0  0  0  0  0
    6.1020   -4.4760   20.6810 C   0  0  0  0  0  0  0  0  0  0  0  0
    3.7430   -8.1110   24.8210 O   0  0  0  0  0  0  0  0  0  0  0  0
    3.2970   -7.0780   24.3400 C   0  0  0  0  0  0  0  0  0  0  0  0
    6.7950   -1.6490   22.4720 C   0  0  0  0  0  0  0  0  0  0  0  0
    5.7350   -2.3960   21.7250 C   0  0  0  0  0  0  0  0  0  0  0  0
    6.1900    0.1630   17.6430 N   0  0  0  0  0  0  0  0  0  0  0  0
    6.9690   -0.1310   18.7990 C   0  0  0  0  0  0  0  0  0  0  0  0
    6.5940    0.2740   20.0350 C   0  0  0  0  0  0  0  0  0  0  0  0
    5.4090    0.9800   20.2080 C   0  0  0  0  0  0  0  0  0  0  0  0
    4.6610    1.2590   19.1300 C   0  0  0  0  0  0  0  0  0  0  0  0
    5.0790    0.8470   17.8730 C   0  0  0  0  0  0  0  0  0  0  0  0
    7.8040    4.6490   22.4420 C   0  0  0  0  0  0  0  0  0  0  0  0
    8.6410    5.5450   23.2580 C   0  0  0  0  0  0  0  0  0  0  0  0
    9.4840    4.9290   24.2880 C   0  0  0  0  0  0  0  0  0  0  0  0
    9.4730    3.5410   24.4660 C   0  0  0  0  0  0  0  0  0  0  0  0
    8.6690    2.7640   23.6780 C   0  0  0  0  0  0  0  0  0  0  0  0
    7.8720    3.2920   22.7020 C   0  0  0  0  0  0  0  0  0  0  0  0
   12.3560    0.4480   23.3480 C   0  0  0  0  0  0  0  0  0  0  0  0
   13.1980   -0.1640   22.4700 C   0  0  0  0  0  0  0  0  0  0  0  0
   12.7610   -1.3010   21.8150 C   0  0  0  0  0  0  0  0  0  0  0  0
   11.5000   -1.8430   22.0210 C   0  0  0  0  0  0  0  0  0  0  0  0
   10.6460   -1.2300   22.9070 C   0  0  0  0  0  0  0  0  0  0  0  0
   11.0860   -0.0910   23.5550 C   0  0  0  0  0  0  0  0  0  0  0  0
    5.4620   -4.3030   23.0810 C   0  0  0  0  0  0  0  0  0  0  0  0
    4.6370   -5.4170   23.1390 C   0  0  0  0  0  0  0  0  0  0  0  0
    4.1780   -5.9000   24.3620 C   0  0  0  0  0  0  0  0  0  0  0  0
    4.5300   -5.2920   25.5660 C   0  0  0  0  0  0  0  0  0  0  0  0
    5.4320   -4.0750   25.5980 C   0  0  0  0  0  0  0  0  0  0  0  0
    5.8800   -3.6190   24.2210 C   0  0  0  0  0  0  0  0  0  0  0  0
    1.5170   -5.6130   23.3940 C   0  0  0  0  0  0  0  0  0  0  0  0
    0.3980   -5.0830   24.3030 C   0  0  0  0  0  0  0  0  0  0  0  0
   -0.9800   -6.2620   24.4690 S   0  0  0  0  0  0  0  0  0  0  0  0
   -0.0580   -7.6310   24.9220 C   0  0  0  0  0  0  0  0  0  0  0  0
    0.9050   -7.9630   23.9710 C   0  0  0  0  0  0  0  0  0  0  0  0
    1.9620   -6.9540   23.7720 N   0  0  0  0  0  0  0  0  0  0  0  0
  2  3  1  1
  1  4  1  0
  2  4  1  0
  4  6  2  0
 10  5  1  0
  7 10  2  0
  8 10  2  0
 11 14  1  0
 12 14  1  0
 13 14  2  0
 15 16  2  0
  3 17  1  0
 11 18  1  0
 17 18  1  0
 19 20  2  0
  2 21  1  0
 20 21  1  0
 21 22  2  0
 22 23  1  0
 19 24  1  0
 23 24  2  0
 25 26  2  0
 26 27  1  0
 27 28  2  0
  5 29  1  0
 28 29  1  0
  1 30  1  0
 25 30  1  0
 29 30  2  0
 31 32  2  0
  9 33  1  0
 32 33  1  0
 33 34  2  0
 34 35  1  0
 10 36  1  0
 31 36  1  0
 35 36  2  0
 11 37  1  0
 37 38  2  0
 16 39  1  0
 38 39  1  0
 39 40  2  0
 40 41  1  0
 37 42  1  0
 41 42  2  0
 43 44  1  0
 44 45  1  0
 45 46  1  0
 46 47  1  0
 16 48  1  0
 43 48  1  0
 47 48  1  0
M  END
