x0786-x2119
     RDKit          3D

 23 25  0  0  0  0  0  0  0  0999 V2000
    6.3110   -4.0250   22.0420 N   0  0  0  0  0  0  0  0  0  0  0  0
    7.8750   -4.7740   20.5870 C   0  0  0  0  0  0  0  0  0  0  0  0
    5.5090   -4.9780   20.0580 O   0  0  0  0  0  0  0  0  0  0  0  0
    6.4580   -4.6400   20.8390 C   0  0  0  0  0  0  0  0  0  0  0  0
    3.5780   -8.2460   24.8460 O   0  0  0  0  0  0  0  0  0  0  0  0
    3.1980   -7.1850   24.3870 C   0  0  0  0  0  0  0  0  0  0  0  0
    5.6540   -4.4770   23.2270 C   0  0  0  0  0  0  0  0  0  0  0  0
    4.7940   -5.6420   23.0970 C   0  0  0  0  0  0  0  0  0  0  0  0
    4.1160   -6.0200   24.4000 C   0  0  0  0  0  0  0  0  0  0  0  0
    4.3710   -5.2160   25.6690 C   0  0  0  0  0  0  0  0  0  0  0  0
    5.2360   -4.1210   25.6370 C   0  0  0  0  0  0  0  0  0  0  0  0
    5.8920   -3.6920   24.5190 C   0  0  0  0  0  0  0  0  0  0  0  0
    1.3720   -5.6810   23.3500 C   0  0  0  0  0  0  0  0  0  0  0  0
    0.5680   -5.1230   24.2900 C   0  0  0  0  0  0  0  0  0  0  0  0
   -0.8460   -6.1780   24.2150 S   0  0  0  0  0  0  0  0  0  0  0  0
   -0.2170   -7.5930   24.8500 C   0  0  0  0  0  0  0  0  0  0  0  0
    0.8000   -7.9670   23.9670 C   0  0  0  0  0  0  0  0  0  0  0  0
    1.8650   -6.9770   23.8290 N   0  0  0  0  0  0  0  0  0  0  0  0
    6.3180   -2.6420   22.0020 C   0  0  0  0  0  0  0  0  0  0  0  0
    5.0870   -1.9180   22.1930 N   0  0  0  0  0  0  0  0  0  0  0  0
    5.4720   -0.6580   22.1110 C   0  0  0  0  0  0  0  0  0  0  0  0
    6.8350   -0.5130   21.8870 C   0  0  0  0  0  0  0  0  0  0  0  0
    7.4320   -1.7370   21.8040 N   0  0  0  0  0  0  0  0  0  0  0  0
  1  4  1  0
  2  4  1  0
  3  4  2  0
  5  6  2  0
  1  7  1  0
  7  8  2  0
  6  9  1  0
  8  9  1  0
  9 10  2  0
 10 11  1  0
  7 12  1  0
 11 12  2  0
 13 14  1  0
 14 15  1  0
 15 16  1  0
 16 17  1  0
  6 18  1  0
 13 18  1  0
 17 18  1  0
  1 19  1  0
 19 20  1  0
 20 21  1  0
 21 22  2  0
 19 23  2  0
 22 23  1  0
M  END
