x0786-x2569
     RDKit          3D

 39 42  0  0  0  0  0  0  0  0999 V2000
    6.4250   -3.7920   21.8620 N   0  0  0  0  0  0  0  0  0  0  0  0
    7.3090   -5.1680   20.2830 C   0  0  0  0  0  0  0  0  0  0  0  0
    5.1210   -4.3740   19.9110 O   0  0  0  0  0  0  0  0  0  0  0  0
    6.1450   -4.4470   20.6420 C   0  0  0  0  0  0  0  0  0  0  0  0
    3.7980   -8.0170   24.6460 O   0  0  0  0  0  0  0  0  0  0  0  0
    3.2550   -7.0380   24.1530 C   0  0  0  0  0  0  0  0  0  0  0  0
    8.1980    0.5480   21.7120 C   0  0  0  0  0  0  0  0  0  0  0  0
    8.9280    1.4340   21.2340 O   0  0  0  0  0  0  0  0  0  0  0  0
    8.7040   -0.3920   22.7270 C   0  0  1  0  0  0  0  0  0  0  0  0
   13.6000   -2.7480   20.7100 N   0  0  0  0  0  0  0  0  0  0  0  0
    6.8920    0.3040   21.3860 N   0  0  0  0  0  0  0  0  0  0  0  0
   13.0340   -1.8840   21.5610 C   0  0  0  0  0  0  0  0  0  0  0  0
    7.7640   -3.6020   22.4290 C   0  0  0  0  0  0  0  0  0  0  0  0
    7.9730   -2.3130   22.8400 C   0  0  0  0  0  0  0  0  0  0  0  0
    8.3090   -1.5030   21.8140 C   0  0  0  0  0  0  0  0  0  0  0  0
    5.5450   -4.2080   22.9370 C   0  0  0  0  0  0  0  0  0  0  0  0
    4.8970   -5.3960   22.9090 C   0  0  0  0  0  0  0  0  0  0  0  0
    4.0600   -5.7880   23.9840 C   0  0  0  0  0  0  0  0  0  0  0  0
    3.9640   -4.8830   25.0360 C   0  0  0  0  0  0  0  0  0  0  0  0
    4.6170   -3.5890   25.1610 C   0  0  0  0  0  0  0  0  0  0  0  0
    5.4400   -3.3020   24.0030 C   0  0  0  0  0  0  0  0  0  0  0  0
    1.3620   -5.6890   23.2410 C   0  0  0  0  0  0  0  0  0  0  0  0
    0.5160   -5.1320   24.2090 C   0  0  0  0  0  0  0  0  0  0  0  0
   -0.9280   -6.2220   24.4170 S   0  0  0  0  0  0  0  0  0  0  0  0
    0.0020   -7.7050   24.9380 C   0  0  0  0  0  0  0  0  0  0  0  0
    0.8840   -8.0660   23.9430 C   0  0  0  0  0  0  0  0  0  0  0  0
    1.8540   -6.9750   23.7310 N   0  0  0  0  0  0  0  0  0  0  0  0
   12.2020    0.5910   24.1470 N   0  0  0  0  0  0  0  0  0  0  0  0
   12.9040   -0.2270   23.3330 C   0  0  0  0  0  0  0  0  0  0  0  0
   12.3190   -1.0420   22.4000 C   0  0  0  0  0  0  0  0  0  0  0  0
   10.9700   -1.0650   22.2420 C   0  0  0  0  0  0  0  0  0  0  0  0
   10.1600   -0.2760   23.0080 C   0  0  0  0  0  0  0  0  0  0  0  0
   10.7500    0.5450   23.9540 C   0  0  0  0  0  0  0  0  0  0  0  0
    6.3410    0.5680   17.7340 N   0  0  0  0  0  0  0  0  0  0  0  0
    6.8610    0.2370   18.9360 C   0  0  0  0  0  0  0  0  0  0  0  0
    6.3250    0.6320   20.1650 C   0  0  0  0  0  0  0  0  0  0  0  0
    5.1660    1.4030   20.2290 C   0  0  0  0  0  0  0  0  0  0  0  0
    4.5870    1.7670   19.0360 C   0  0  0  0  0  0  0  0  0  0  0  0
    5.2360    1.3150   17.7660 C   0  0  0  0  0  0  0  0  0  0  0  0
  1  4  1  0
  2  4  1  0
  3  4  2  0
  5  6  2  0
  7  8  2  0
  7  9  1  0
  7 11  1  0
 10 12  3  0
  1 13  1  0
 13 14  1  0
  9 15  1  6
 14 15  1  0
  1 16  1  0
 16 17  2  0
  6 18  1  0
 17 18  1  0
 18 19  2  0
 19 20  1  0
 16 21  1  0
 20 21  2  0
 22 23  1  0
 23 24  1  0
 24 25  1  0
 25 26  1  0
  6 27  1  0
 22 27  1  0
 26 27  1  0
 28 29  2  0
 12 30  1  0
 29 30  1  0
 30 31  2  0
  9 32  1  0
 31 32  1  0
 28 33  1  0
 32 33  2  0
 34 35  2  0
 11 36  1  0
 35 36  1  0
 36 37  2  0
 37 38  1  0
 34 39  1  0
 38 39  2  0
M  END
