x0786-x0691
     RDKit          3D

 26 28  0  0  0  0  0  0  0  0999 V2000
    3.7530   -6.7560   24.8790 C   0  0  0  0  0  0  0  0  0  0  0  0
    6.2640   -6.0650   26.2010 O   0  0  0  0  0  0  0  0  0  0  0  0
    5.4820   -4.7420   20.0000 O   0  0  0  0  0  0  0  0  0  0  0  0
    6.3720   -4.5810   20.9020 C   0  0  0  0  0  0  0  0  0  0  0  0
    7.6070   -3.7880   20.6460 C   0  0  0  0  0  0  0  0  0  0  0  0
    3.6430   -0.4920   25.7240 F   0  0  0  0  0  0  0  0  0  0  0  0
    5.0800   -5.7960   25.4400 S   0  0  2  0  0  0  0  0  0  0  0  0
    2.4710   -6.7220   24.1600 C   0  0  0  0  0  0  0  0  0  0  0  0
    3.3070   -1.7830   25.6290 C   0  0  0  0  0  0  0  0  0  0  0  0
    4.3750   -2.8830   25.5630 C   0  0  0  0  0  0  0  0  0  0  0  0
    3.9740   -4.3440   25.4630 C   0  0  0  0  0  0  0  0  0  0  0  0
    2.5600   -4.4940   25.4420 C   0  0  0  0  0  0  0  0  0  0  0  0
    1.6250   -3.4720   25.5010 C   0  0  0  0  0  0  0  0  0  0  0  0
    2.0080   -2.1380   25.5970 C   0  0  0  0  0  0  0  0  0  0  0  0
    6.1470   -5.1600   22.2050 N   0  0  0  0  0  0  0  0  0  0  0  0
    4.8080   -5.4410   22.6740 C   0  0  0  0  0  0  0  0  0  0  0  0
    4.3190   -4.3940   23.4740 C   0  0  0  0  0  0  0  0  0  0  0  0
    5.2080   -4.3270   24.6830 N   0  0  0  0  0  0  0  0  0  0  0  0
    6.4820   -3.8340   24.2930 C   0  0  0  0  0  0  0  0  0  0  0  0
    7.0260   -4.9000   23.3590 C   0  0  0  0  0  0  0  0  0  0  0  0
    0.7020   -6.9500   22.7870 C   0  0  0  0  0  0  0  0  0  0  0  0
    0.1760   -5.7420   23.2780 C   0  0  0  0  0  0  0  0  0  0  0  0
   -0.9700   -6.2340   24.4120 S   0  0  0  0  0  0  0  0  0  0  0  0
   -0.0870   -7.2290   25.4420 C   0  0  0  0  0  0  0  0  0  0  0  0
    0.6670   -8.2230   24.7740 C   0  0  0  0  0  0  0  0  0  0  0  0
    1.5400   -7.6050   23.7840 N   0  0  0  0  0  0  0  0  0  0  0  0
  3  4  2  0
  4  5  1  0
  1  7  2  0
  2  7  2  0
  1  8  2  0
  6  9  1  0
  9 10  2  0
  7 11  1  1
 10 11  1  0
 11 12  2  0
 12 13  1  0
  9 14  1  0
 13 14  2  0
  4 15  1  0
 15 16  1  0
 16 17  1  0
  7 18  1  0
 17 18  1  0
 18 19  1  0
 15 20  1  0
 19 20  1  0
 21 22  1  0
 22 23  1  0
 23 24  1  0
 24 25  1  0
  8 26  1  0
 21 26  1  0
 25 26  1  0
M  END
