x0820-x3303
     RDKit          3D

 40 45  0  0  0  0  0  0  0  0999 V2000
    6.8630   -4.9100   21.7740 N   0  0  0  0  0  0  0  0  0  0  0  0
    5.3970   -5.2140   20.0360 O   0  0  0  0  0  0  0  0  0  0  0  0
    7.2740   -4.0810   22.7980 C   0  0  2  0  0  0  0  0  0  0  0  0
    6.3460   -4.5550   20.5120 C   0  0  0  0  0  0  0  0  0  0  0  0
    6.9140   -3.4700   19.6660 C   0  0  0  0  0  0  0  0  0  0  0  0
    6.1370   -1.5140   21.0750 C   0  0  0  0  0  0  0  0  0  0  0  0
    5.2890   -2.3960   21.1420 O   0  0  0  0  0  0  0  0  0  0  0  0
    6.3690    1.0960   16.9160 O   0  0  0  0  0  0  0  0  0  0  0  0
    6.3870   -4.1610   23.8090 C   0  0  0  0  0  0  0  0  0  0  0  0
    6.9420   -4.2900   25.2320 C   0  0  0  0  0  0  0  0  0  0  0  0
    5.9540   -4.3890   26.3770 C   0  0  0  0  0  0  0  0  0  0  0  0
    4.5910   -4.3570   26.0300 C   0  0  0  0  0  0  0  0  0  0  0  0
    4.1390   -4.2410   24.7190 C   0  0  0  0  0  0  0  0  0  0  0  0
    5.0060   -4.1440   23.6250 C   0  0  0  0  0  0  0  0  0  0  0  0
    6.3800   -4.5090   27.7090 C   0  0  0  0  0  0  0  0  0  0  0  0
    7.7510   -4.5470   28.0430 C   0  0  0  0  0  0  0  0  0  0  0  0
    8.7010   -4.4600   27.0190 C   0  0  0  0  0  0  0  0  0  0  0  0
    8.3060   -4.3300   25.6050 C   0  0  0  0  0  0  0  0  0  0  0  0
    8.4820   -0.6300   21.3250 C   0  0  0  0  0  0  0  0  0  0  0  0
    9.1290   -0.0900   22.4450 C   0  0  0  0  0  0  0  0  0  0  0  0
    9.5030   -1.1700   23.3760 N   0  0  0  0  0  0  0  0  0  0  0  0
    8.4890   -2.2210   23.5700 C   0  0  0  0  0  0  0  0  0  0  0  0
    8.0150   -2.7330   22.3660 C   0  0  2  0  0  0  0  0  0  0  0  0
    7.4020   -1.5490   21.7400 N   0  0  0  0  0  0  0  0  0  0  0  0
    5.0010    1.8000   18.5990 N   0  0  0  0  0  0  0  0  0  0  0  0
    4.5050    1.6590   19.8160 C   0  0  0  0  0  0  0  0  0  0  0  0
    4.8370    0.6040   20.6930 C   0  0  0  0  0  0  0  0  0  0  0  0
    5.7380   -0.3510   20.2310 C   0  0  0  0  0  0  0  0  0  0  0  0
    6.2800   -0.2210   18.9490 C   0  0  0  0  0  0  0  0  0  0  0  0
    5.8610    0.8840   18.2040 C   0  0  0  0  0  0  0  0  0  0  0  0
   11.7720   -1.3170   22.5990 C   0  0  0  0  0  0  0  0  0  0  0  0
   13.0840   -1.7470   22.7930 C   0  0  0  0  0  0  0  0  0  0  0  0
   13.4390   -2.4460   23.9530 C   0  0  0  0  0  0  0  0  0  0  0  0
   12.5200   -2.7300   24.9480 C   0  0  0  0  0  0  0  0  0  0  0  0
   11.1970   -2.3290   24.8210 C   0  0  0  0  0  0  0  0  0  0  0  0
   10.8070   -1.5780   23.5590 C   0  0  0  0  0  0  0  0  0  0  0  0
    4.2610    0.5520   21.9810 C   0  0  0  0  0  0  0  0  0  0  0  0
    3.3670    1.5410   22.3840 C   0  0  0  0  0  0  0  0  0  0  0  0
    3.0140    2.6590   21.4230 C   0  0  0  0  0  0  0  0  0  0  0  0
    3.6090    2.6540   20.1820 C   0  0  0  0  0  0  0  0  0  0  0  0
  3  1  1  6
  1  4  1  0
  2  4  2  0
  4  5  1  0
  6  7  2  0
  3  9  1  0
  9 10  2  0
 10 11  1  0
 11 12  2  0
 12 13  1  0
  9 14  1  0
 13 14  2  0
 11 15  1  0
 15 16  2  0
 16 17  1  0
 10 18  1  0
 17 18  2  0
 19 20  1  0
 20 21  1  0
 21 22  1  0
  3 23  1  0
 23 22  1  1
  6 24  1  0
 19 24  1  0
 23 24  1  0
 25 26  2  0
 26 27  1  0
  6 28  1  0
 27 28  2  0
 28 29  1  0
  8 30  1  0
 25 30  1  0
 29 30  2  0
 31 32  2  0
 32 33  1  0
 33 34  2  0
 34 35  1  0
 21 36  1  0
 31 36  1  0
 35 36  2  0
 27 37  1  0
 37 38  2  0
 38 39  1  0
 26 40  1  0
 39 40  2  0
M  END
