x0820-x0161
     RDKit          3D

 34 36  0  0  0  0  0  0  0  0999 V2000
    6.8250   -4.8130   21.8100 N   0  0  0  0  0  0  0  0  0  0  0  0
    7.1780   -2.4690   22.3610 C   0  0  0  0  0  0  0  0  0  0  0  0
    5.3960   -5.1970   20.0420 O   0  0  0  0  0  0  0  0  0  0  0  0
    7.1410   -3.9110   22.8250 C   0  0  1  0  0  0  0  0  0  0  0  0
    6.3320   -4.5180   20.5190 C   0  0  0  0  0  0  0  0  0  0  0  0
    6.9110   -3.4600   19.6500 C   0  0  0  0  0  0  0  0  0  0  0  0
   13.5630   -2.3210   24.6890 C   0  0  0  0  0  0  0  0  0  0  0  0
   12.5600   -1.4000   24.3650 N   0  0  0  0  0  0  0  0  0  0  0  0
   12.8760   -0.4380   23.4760 C   0  0  0  0  0  0  0  0  0  0  0  0
   13.6640   -0.6280   22.5620 O   0  0  0  0  0  0  0  0  0  0  0  0
   10.2840    5.1330   23.6300 S   0  0  0  0  0  0  0  0  0  0  0  0
   11.1950    6.0940   23.0380 O   0  0  0  0  0  0  0  0  0  0  0  0
    9.7550    5.3820   24.9530 O   0  0  0  0  0  0  0  0  0  0  0  0
    8.9460    4.9750   22.6400 N   0  0  0  0  0  0  0  0  0  0  0  0
    8.6070   -2.1200   22.1040 C   0  0  0  0  0  0  0  0  0  0  0  0
    9.3300   -1.7360   23.2140 C   0  0  0  0  0  0  0  0  0  0  0  0
   10.6470   -1.5330   22.9750 C   0  0  0  0  0  0  0  0  0  0  0  0
   11.4180   -2.2240   23.8700 C   0  0  0  0  0  0  0  0  0  0  0  0
    6.3010   -4.1620   24.0120 C   0  0  0  0  0  0  0  0  0  0  0  0
    6.8790   -4.2900   25.3070 C   0  0  0  0  0  0  0  0  0  0  0  0
    6.0230   -4.5190   26.4010 C   0  0  0  0  0  0  0  0  0  0  0  0
    4.5730   -4.6220   26.1840 C   0  0  0  0  0  0  0  0  0  0  0  0
    4.0450   -4.4860   24.8380 C   0  0  0  0  0  0  0  0  0  0  0  0
    4.9140   -4.2600   23.7830 C   0  0  0  0  0  0  0  0  0  0  0  0
    6.5260   -4.6530   27.7100 C   0  0  0  0  0  0  0  0  0  0  0  0
    7.9080   -4.5610   27.9300 C   0  0  0  0  0  0  0  0  0  0  0  0
    8.7470   -4.3420   26.8800 C   0  0  0  0  0  0  0  0  0  0  0  0
    8.2750   -4.2040   25.5890 C   0  0  0  0  0  0  0  0  0  0  0  0
   12.2130    0.9390   23.5080 C   0  0  0  0  0  0  0  0  0  0  0  0
   12.8680    2.0370   22.9900 C   0  0  0  0  0  0  0  0  0  0  0  0
   12.2980    3.3050   23.0090 C   0  0  0  0  0  0  0  0  0  0  0  0
   11.0320    3.5070   23.5640 C   0  0  0  0  0  0  0  0  0  0  0  0
   10.3760    2.3670   24.0790 C   0  0  0  0  0  0  0  0  0  0  0  0
   10.9930    1.0980   24.0360 C   0  0  0  0  0  0  0  0  0  0  0  0
  1  4  1  0
  4  2  1  6
  1  5  1  0
  3  5  2  0
  5  6  1  0
  7  8  1  0
  8  9  1  0
  9 10  2  0
 11 12  2  0
 11 13  2  0
 11 14  1  0
  2 15  1  0
 15 16  1  0
 16 17  1  0
  8 18  1  0
 17 18  1  0
  4 19  1  0
 19 20  2  0
 20 21  1  0
 21 22  2  0
 22 23  1  0
 19 24  1  0
 23 24  2  0
 21 25  1  0
 25 26  2  0
 26 27  1  0
 20 28  1  0
 27 28  2  0
  9 29  1  0
 29 30  2  0
 30 31  1  0
 11 32  1  0
 31 32  2  0
 32 33  1  0
 29 34  1  0
 33 34  2  0
M  END
