x0820-x3110
     RDKit          3D

 44 48  0  0  0  0  0  0  0  0999 V2000
    7.8690    1.2610   23.3580 N   0  0  0  0  0  0  0  0  0  0  0  0
   13.5320    5.2390   22.5990 C   0  0  0  0  0  0  0  0  0  0  0  0
   12.0070    3.2150   22.4020 O   0  0  0  0  0  0  0  0  0  0  0  0
   12.4070    4.4860   21.9020 C   0  0  0  0  0  0  0  0  0  0  0  0
    6.9830   -1.6150   21.9130 C   0  0  2  0  0  0  0  0  0  0  0  0
   11.1220    4.3350   24.1340 O   0  0  0  0  0  0  0  0  0  0  0  0
   11.1330    3.3400   23.4280 C   0  0  0  0  0  0  0  0  0  0  0  0
    8.4400    1.3240   21.1310 O   0  0  0  0  0  0  0  0  0  0  0  0
   10.1720    2.1790   23.6240 C   0  0  0  0  0  0  0  0  0  0  0  0
    4.9500   -3.0950   20.8600 O   0  0  0  0  0  0  0  0  0  0  0  0
    8.6700    2.4150   23.7260 C   0  0  0  0  0  0  0  0  0  0  0  0
    7.7310    0.8460   22.0460 C   0  0  0  0  0  0  0  0  0  0  0  0
    6.6110   -0.2300   21.8280 C   0  0  1  0  0  0  0  0  0  0  0  0
    6.1160   -2.7860   21.2790 C   0  0  0  0  0  0  0  0  0  0  0  0
    7.3830   -3.5060   21.4470 C   0  0  2  0  0  0  0  0  0  0  0  0
    7.2100   -4.6520   20.4980 C   0  0  0  0  0  0  0  0  0  0  0  0
   12.4790   -1.6440   24.1610 C   0  0  0  0  0  0  0  0  0  0  0  0
   12.5760   -0.5580   24.9980 C   0  0  0  0  0  0  0  0  0  0  0  0
   13.4050   -1.4930   22.9700 C   0  0  0  0  0  0  0  0  0  0  0  0
   12.9630   -2.8800   24.9330 C   0  0  0  0  0  0  0  0  0  0  0  0
    6.1570   -5.0900   20.0160 O   0  0  0  0  0  0  0  0  0  0  0  0
    6.9860   -3.0080   22.8580 C   0  0  2  0  0  0  0  0  0  0  0  0
    6.3940    0.2930   18.0140 N   0  0  0  0  0  0  0  0  0  0  0  0
    5.3040    1.0700   17.9500 C   0  0  0  0  0  0  0  0  0  0  0  0
    4.5840    1.4590   19.0490 C   0  0  0  0  0  0  0  0  0  0  0  0
    4.9990    1.0330   20.3190 C   0  0  0  0  0  0  0  0  0  0  0  0
    6.1360    0.2230   20.4390 C   0  0  0  0  0  0  0  0  0  0  0  0
    6.7940   -0.1180   19.2410 C   0  0  0  0  0  0  0  0  0  0  0  0
    9.6280   -2.1280   21.7800 C   0  0  0  0  0  0  0  0  0  0  0  0
   10.8800   -2.1320   22.3120 C   0  0  0  0  0  0  0  0  0  0  0  0
   11.0890   -1.6400   23.5850 C   0  0  0  0  0  0  0  0  0  0  0  0
   10.0240   -1.1420   24.3050 C   0  0  0  0  0  0  0  0  0  0  0  0
    8.7650   -1.1430   23.7560 C   0  0  0  0  0  0  0  0  0  0  0  0
    8.5280   -1.6350   22.4760 C   0  0  0  0  0  0  0  0  0  0  0  0
    5.9420   -3.5420   23.9790 C   0  0  0  0  0  0  0  0  0  0  0  0
    6.3530   -4.3090   25.1070 C   0  0  0  0  0  0  0  0  0  0  0  0
    5.4090   -4.7010   26.1050 C   0  0  0  0  0  0  0  0  0  0  0  0
    4.0760   -4.3660   25.9610 C   0  0  0  0  0  0  0  0  0  0  0  0
    3.6530   -3.6520   24.8590 C   0  0  0  0  0  0  0  0  0  0  0  0
    4.5720   -3.2500   23.8970 C   0  0  0  0  0  0  0  0  0  0  0  0
    5.7840   -5.4260   27.2460 C   0  0  0  0  0  0  0  0  0  0  0  0
    7.0870   -5.8180   27.4460 C   0  0  0  0  0  0  0  0  0  0  0  0
    8.0190   -5.4920   26.4970 C   0  0  0  0  0  0  0  0  0  0  0  0
    7.6670   -4.7430   25.3510 C   0  0  0  0  0  0  0  0  0  0  0  0
  2  4  1  0
  3  4  1  0
  3  7  1  0
  6  7  2  0
  7  9  1  0
  1 11  1  0
  9 11  1  0
  1 12  1  0
  8 12  2  0
  5 13  1  0
 13 12  1  6
  5 14  1  0
 10 14  2  0
 14 15  1  0
 15 16  1  1
 17 18  1  0
 17 19  1  0
 17 20  1  0
 16 21  2  0
  5 22  1  0
 15 22  1  0
 23 24  2  0
 24 25  1  0
 25 26  2  0
 13 27  1  0
 26 27  1  0
 23 28  1  0
 27 28  2  0
 29 30  2  0
 17 31  1  0
 30 31  1  0
 31 32  2  0
 32 33  1  0
  5 34  1  6
 29 34  1  0
 33 34  2  0
 22 35  1  6
 35 36  2  0
 36 37  1  0
 37 38  2  0
 38 39  1  0
 35 40  1  0
 39 40  2  0
 37 41  1  0
 41 42  2  0
 42 43  1  0
 36 44  1  0
 43 44  2  0
M  END
