x0820-x1249
     RDKit          3D

 36 39  0  0  0  0  0  0  0  0999 V2000
    7.1450   -4.8130   21.7740 N   0  0  0  0  0  0  0  0  0  0  0  0
    7.4590   -2.4610   22.4590 C   0  0  0  0  0  0  0  0  0  0  0  0
    5.5060   -5.1380   20.0830 O   0  0  0  0  0  0  0  0  0  0  0  0
    7.3380   -3.9340   22.8480 C   0  0  1  0  0  0  0  0  0  0  0  0
    6.5040   -4.5020   20.5400 C   0  0  0  0  0  0  0  0  0  0  0  0
    7.0550   -3.4490   19.6680 C   0  0  0  0  0  0  0  0  0  0  0  0
    8.2140    0.4190   24.7540 N   0  0  0  0  0  0  0  0  0  0  0  0
    7.5000    1.3730   24.0490 C   0  0  0  0  0  0  0  0  0  0  0  0
    7.9870    2.4060   23.5810 O   0  0  0  0  0  0  0  0  0  0  0  0
    9.4120    0.8270   25.1330 C   0  0  0  0  0  0  0  0  0  0  0  0
   13.7460   -2.0500   20.6510 N   0  0  0  0  0  0  0  0  0  0  0  0
   13.0650   -1.4730   21.5610 C   0  0  0  0  0  0  0  0  0  0  0  0
    7.1810   -1.4640   23.6640 C   0  0  0  0  0  0  0  0  0  0  0  0
    8.2970   -0.8120   24.1580 C   0  0  0  0  0  0  0  0  0  0  0  0
    6.3510   -4.1070   23.9530 C   0  0  0  0  0  0  0  0  0  0  0  0
    6.7330   -4.3830   25.2310 C   0  0  0  0  0  0  0  0  0  0  0  0
    5.8040   -4.5310   26.2890 C   0  0  0  0  0  0  0  0  0  0  0  0
    4.4460   -4.3960   25.9920 C   0  0  0  0  0  0  0  0  0  0  0  0
    3.9480   -4.1070   24.6330 C   0  0  0  0  0  0  0  0  0  0  0  0
    4.9970   -3.9660   23.6150 C   0  0  0  0  0  0  0  0  0  0  0  0
    6.1930   -4.8060   27.5980 C   0  0  0  0  0  0  0  0  0  0  0  0
    7.5380   -4.9550   27.8960 C   0  0  0  0  0  0  0  0  0  0  0  0
    8.4850   -4.8290   26.8840 C   0  0  0  0  0  0  0  0  0  0  0  0
    8.1090   -4.5460   25.5950 C   0  0  0  0  0  0  0  0  0  0  0  0
    3.5570    1.1120   23.6820 O   0  0  0  0  0  0  0  0  0  0  0  0
    4.3550    1.1590   22.4820 C   0  0  0  0  0  0  0  0  0  0  0  0
    5.5760    1.7490   22.7450 C   0  0  0  0  0  0  0  0  0  0  0  0
    6.2010    1.0770   23.9120 N   0  0  0  0  0  0  0  0  0  0  0  0
    5.3430    0.9600   25.1000 C   0  0  0  0  0  0  0  0  0  0  0  0
    4.1530    0.3460   24.7300 C   0  0  0  0  0  0  0  0  0  0  0  0
   11.6140    0.9090   23.9260 C   0  0  0  0  0  0  0  0  0  0  0  0
   12.5260    0.3430   23.0460 C   0  0  0  0  0  0  0  0  0  0  0  0
   12.2140   -0.8720   22.4420 C   0  0  0  0  0  0  0  0  0  0  0  0
   11.0560   -1.5720   22.6480 C   0  0  0  0  0  0  0  0  0  0  0  0
   10.1210   -1.0770   23.5050 C   0  0  0  0  0  0  0  0  0  0  0  0
   10.4210    0.2410   24.1810 C   0  0  0  0  0  0  0  0  0  0  0  0
  1  4  1  0
  4  2  1  6
  1  5  1  0
  3  5  2  0
  5  6  1  0
  7  8  1  0
  8  9  2  0
  7 10  1  0
 11 12  3  0
  2 13  1  0
  7 14  1  0
 13 14  1  0
  4 15  1  0
 15 16  2  0
 16 17  1  0
 17 18  2  0
 18 19  1  0
 15 20  1  0
 19 20  2  0
 17 21  1  0
 21 22  2  0
 22 23  1  0
 16 24  1  0
 23 24  2  0
 25 26  1  0
 26 27  1  0
  8 28  1  0
 27 28  1  0
 28 29  1  0
 25 30  1  0
 29 30  1  0
 31 32  2  0
 12 33  1  0
 32 33  1  0
 33 34  2  0
 34 35  1  0
 10 36  1  0
 31 36  1  0
 35 36  2  0
M  END
