x0820-x2646
     RDKit          3D

 35 38  0  0  0  0  0  0  0  0999 V2000
    6.7860   -4.8430   21.8330 N   0  0  0  0  0  0  0  0  0  0  0  0
    6.9130   -2.4810   22.4740 C   0  0  0  0  0  0  0  0  0  0  0  0
    5.3930   -5.2370   20.0410 O   0  0  0  0  0  0  0  0  0  0  0  0
    7.1250   -3.9340   22.8360 C   0  0  1  0  0  0  0  0  0  0  0  0
    6.3040   -4.5430   20.5410 C   0  0  0  0  0  0  0  0  0  0  0  0
    6.8680   -3.4620   19.6980 C   0  0  0  0  0  0  0  0  0  0  0  0
    4.6210    1.4180   21.4680 C   0  0  0  0  0  0  0  0  0  0  0  0
    8.7830    1.1270   21.2370 O   0  0  0  0  0  0  0  0  0  0  0  0
   13.3600   -2.1550   21.1640 Cl  0  0  0  0  0  0  0  0  0  0  0  0
    6.9460   -0.2030   21.0790 N   0  0  0  0  0  0  0  0  0  0  0  0
    8.1610    0.0740   21.4830 C   0  0  0  0  0  0  0  0  0  0  0  0
    8.7700   -1.0470   22.2840 C   0  0  2  0  0  0  0  0  0  0  0  0
    7.8910   -1.5090   23.2220 C   0  0  0  0  0  0  0  0  0  0  0  0
    6.2910   -4.2140   24.0700 C   0  0  0  0  0  0  0  0  0  0  0  0
    6.8310   -4.3140   25.3570 C   0  0  0  0  0  0  0  0  0  0  0  0
    5.9840   -4.5540   26.4130 C   0  0  0  0  0  0  0  0  0  0  0  0
    4.5840   -4.7130   26.2780 C   0  0  0  0  0  0  0  0  0  0  0  0
    4.0500   -4.6180   24.9980 C   0  0  0  0  0  0  0  0  0  0  0  0
    4.9240   -4.3620   23.8620 C   0  0  0  0  0  0  0  0  0  0  0  0
    6.4890   -4.6550   27.7190 C   0  0  0  0  0  0  0  0  0  0  0  0
    7.8460   -4.5220   27.9780 C   0  0  0  0  0  0  0  0  0  0  0  0
    8.7280   -4.2820   26.9330 C   0  0  0  0  0  0  0  0  0  0  0  0
    8.2240   -4.1760   25.6300 C   0  0  0  0  0  0  0  0  0  0  0  0
    6.3030    0.6940   17.6280 N   0  0  0  0  0  0  0  0  0  0  0  0
    6.8400    0.1550   18.7260 C   0  0  0  0  0  0  0  0  0  0  0  0
    6.3390    0.3630   19.9820 C   0  0  0  0  0  0  0  0  0  0  0  0
    5.2280    1.1510   20.1280 C   0  0  0  0  0  0  0  0  0  0  0  0
    4.6440    1.7230   19.0120 C   0  0  0  0  0  0  0  0  0  0  0  0
    5.2180    1.4710   17.7780 C   0  0  0  0  0  0  0  0  0  0  0  0
   10.5380    0.1780   23.7180 C   0  0  0  0  0  0  0  0  0  0  0  0
   11.9220    0.3430   23.9210 C   0  0  0  0  0  0  0  0  0  0  0  0
   12.8530   -0.3620   23.1540 C   0  0  0  0  0  0  0  0  0  0  0  0
   12.4080   -1.2440   22.1780 C   0  0  0  0  0  0  0  0  0  0  0  0
   11.1100   -1.4480   21.9410 C   0  0  0  0  0  0  0  0  0  0  0  0
   10.1310   -0.7090   22.7270 C   0  0  0  0  0  0  0  0  0  0  0  0
  1  4  1  0
  4  2  1  6
  1  5  1  0
  3  5  2  0
  5  6  1  0
  8 11  2  0
 10 11  1  0
 11 12  1  0
  2 13  1  0
 12 13  1  1
  4 14  1  0
 14 15  2  0
 15 16  1  0
 16 17  2  0
 17 18  1  0
 14 19  1  0
 18 19  2  0
 16 20  1  0
 20 21  2  0
 21 22  1  0
 15 23  1  0
 22 23  2  0
 24 25  2  0
 10 26  1  0
 25 26  1  0
  7 27  1  0
 26 27  2  0
 27 28  1  0
 24 29  1  0
 28 29  2  0
 30 31  2  0
 31 32  1  0
  9 33  1  0
 32 33  2  0
 33 34  1  0
 12 35  1  0
 30 35  1  0
 34 35  2  0
M  END
