x0820-x2703
     RDKit          3D

 45 50  0  0  0  0  0  0  0  0999 V2000
    6.9150   -1.8540   22.0140 C   0  0  1  0  0  0  0  0  0  0  0  0
    6.7220   -4.6790   20.4090 C   0  0  0  0  0  0  0  0  0  0  0  0
    4.9590   -3.1110   20.6320 O   0  0  0  0  0  0  0  0  0  0  0  0
    6.9210   -4.0980   21.8070 C   0  0  1  0  0  0  0  0  0  0  0  0
    7.2570    1.8430   22.7540 N   0  0  0  0  0  0  0  0  0  0  0  0
    8.7530    0.5290   21.5700 O   0  0  0  0  0  0  0  0  0  0  0  0
    6.0180   -3.0140   21.2940 C   0  0  0  0  0  0  0  0  0  0  0  0
    6.4820   -0.3310   21.7820 C   0  0  1  0  0  0  0  0  0  0  0  0
    7.6290    0.7080   22.0260 C   0  0  0  0  0  0  0  0  0  0  0  0
   10.0480    1.8750   24.0260 C   0  0  0  0  0  0  0  0  0  0  0  0
    9.2360    1.1180   25.0780 C   0  0  0  0  0  0  0  0  0  0  0  0
    6.0890    4.3350   21.7900 C   0  0  0  0  0  0  0  0  0  0  0  0
   12.4810   -1.9180   24.0880 C   0  0  0  0  0  0  0  0  0  0  0  0
   12.8760   -2.9660   25.1160 C   0  0  0  0  0  0  0  0  0  0  0  0
   12.7540   -0.5380   24.6350 C   0  0  0  0  0  0  0  0  0  0  0  0
    5.7200   -5.0660   19.8320 O   0  0  0  0  0  0  0  0  0  0  0  0
    6.1420   -3.0850   22.7370 C   0  0  1  0  0  0  0  0  0  0  0  0
    6.3320    0.2690   17.9980 N   0  0  0  0  0  0  0  0  0  0  0  0
    5.1800    0.9590   17.9190 C   0  0  0  0  0  0  0  0  0  0  0  0
    4.3890    1.2550   18.9950 C   0  0  0  0  0  0  0  0  0  0  0  0
    4.7970    0.8290   20.2480 C   0  0  0  0  0  0  0  0  0  0  0  0
    5.9950    0.1140   20.3970 C   0  0  0  0  0  0  0  0  0  0  0  0
    6.7200   -0.1410   19.2270 C   0  0  0  0  0  0  0  0  0  0  0  0
   10.8600   -2.0790   22.2980 N   0  0  0  0  0  0  0  0  0  0  0  0
   11.0480   -1.9420   23.6220 C   0  0  0  0  0  0  0  0  0  0  0  0
    9.9830   -1.8100   24.4930 C   0  0  0  0  0  0  0  0  0  0  0  0
    8.6870   -1.7970   23.9760 C   0  0  0  0  0  0  0  0  0  0  0  0
    8.4350   -1.9170   22.6010 C   0  0  0  0  0  0  0  0  0  0  0  0
    9.5830   -2.0630   21.8490 C   0  0  0  0  0  0  0  0  0  0  0  0
    9.3160    3.0830   23.4860 C   0  0  0  0  0  0  0  0  0  0  0  0
    9.9930    4.3250   23.5860 C   0  0  0  0  0  0  0  0  0  0  0  0
    9.4260    5.5080   23.1240 C   0  0  0  0  0  0  0  0  0  0  0  0
    8.1630    5.4750   22.5490 C   0  0  0  0  0  0  0  0  0  0  0  0
    7.4550    4.2640   22.4300 C   0  0  0  0  0  0  0  0  0  0  0  0
    8.0290    3.0430   22.9030 C   0  0  0  0  0  0  0  0  0  0  0  0
    5.8530   -3.6410   24.2370 C   0  0  0  0  0  0  0  0  0  0  0  0
    6.6920   -3.9440   25.3910 C   0  0  0  0  0  0  0  0  0  0  0  0
    6.0450   -4.4300   26.5750 C   0  0  0  0  0  0  0  0  0  0  0  0
    4.6650   -4.6200   26.6160 C   0  0  0  0  0  0  0  0  0  0  0  0
    3.8800   -4.3440   25.5250 C   0  0  0  0  0  0  0  0  0  0  0  0
    4.4700   -3.8700   24.3830 C   0  0  0  0  0  0  0  0  0  0  0  0
    6.7700   -4.7380   27.7360 C   0  0  0  0  0  0  0  0  0  0  0  0
    8.1440   -4.5890   27.7780 C   0  0  0  0  0  0  0  0  0  0  0  0
    8.8080   -4.1320   26.6530 C   0  0  0  0  0  0  0  0  0  0  0  0
    8.0990   -3.8140   25.4820 C   0  0  0  0  0  0  0  0  0  0  0  0
  4  2  1  1
  1  7  1  0
  3  7  2  0
  4  7  1  0
  1  8  1  0
  5  9  1  0
  6  9  2  0
  8  9  1  6
 10 11  1  0
 13 14  1  0
 13 15  1  0
  2 16  2  0
  1 17  1  0
  4 17  1  0
 18 19  2  0
 19 20  1  0
 20 21  2  0
  8 22  1  0
 21 22  1  0
 18 23  1  0
 22 23  2  0
 13 25  1  0
 24 25  2  0
 25 26  1  0
 26 27  2  0
  1 28  1  6
 27 28  1  0
 24 29  1  0
 28 29  2  0
 10 30  1  0
 30 31  2  0
 31 32  1  0
 32 33  2  0
 12 34  1  0
 33 34  1  0
  5 35  1  0
 30 35  1  0
 34 35  2  0
 17 36  1  1
 36 37  2  0
 37 38  1  0
 38 39  2  0
 39 40  1  0
 36 41  1  0
 40 41  2  0
 38 42  1  0
 42 43  2  0
 43 44  1  0
 37 45  1  0
 44 45  2  0
M  END
