x0820-x1093
     RDKit          3D

 36 40  0  0  0  0  0  0  0  0999 V2000
    6.8330   -4.8930   21.8030 N   0  0  0  0  0  0  0  0  0  0  0  0
    6.8660   -2.5370   22.2670 C   0  0  0  0  0  0  0  0  0  0  0  0
    5.3900   -5.2740   20.0420 O   0  0  0  0  0  0  0  0  0  0  0  0
    7.1480   -3.9390   22.7580 C   0  0  1  0  0  0  0  0  0  0  0  0
    6.3350   -4.6070   20.5190 C   0  0  0  0  0  0  0  0  0  0  0  0
    6.9280   -3.5560   19.6540 C   0  0  0  0  0  0  0  0  0  0  0  0
   13.3620   -1.8070   23.5090 C   0  0  0  0  0  0  0  0  0  0  0  0
    9.0990    1.5700   21.2090 O   0  0  0  0  0  0  0  0  0  0  0  0
    9.0940    0.4370   21.7070 C   0  0  0  0  0  0  0  0  0  0  0  0
    7.8340   -0.4080   21.6100 C   0  0  2  0  0  0  0  0  0  0  0  0
    8.1260   -1.7430   21.7880 C   0  0  0  0  0  0  0  0  0  0  0  0
    6.3140   -4.1930   24.0060 C   0  0  0  0  0  0  0  0  0  0  0  0
    6.8440   -4.2950   25.3080 C   0  0  0  0  0  0  0  0  0  0  0  0
    5.9880   -4.5160   26.3670 C   0  0  0  0  0  0  0  0  0  0  0  0
    4.5860   -4.6520   26.2370 C   0  0  0  0  0  0  0  0  0  0  0  0
    4.0860   -4.5510   24.9490 C   0  0  0  0  0  0  0  0  0  0  0  0
    4.9410   -4.3190   23.7950 C   0  0  0  0  0  0  0  0  0  0  0  0
    6.5100   -4.6150   27.6650 C   0  0  0  0  0  0  0  0  0  0  0  0
    7.8600   -4.5060   27.9530 C   0  0  0  0  0  0  0  0  0  0  0  0
    8.7430   -4.2870   26.9070 C   0  0  0  0  0  0  0  0  0  0  0  0
    8.2390   -4.1800   25.5970 C   0  0  0  0  0  0  0  0  0  0  0  0
   12.1640   -1.1040   23.6420 N   0  0  0  0  0  0  0  0  0  0  0  0
   12.1230    0.3250   23.3120 C   0  0  0  0  0  0  0  0  0  0  0  0
   10.8080    0.7750   23.2730 C   0  0  0  0  0  0  0  0  0  0  0  0
   10.0320    0.0210   22.2810 N   0  0  0  0  0  0  0  0  0  0  0  0
   10.3830   -1.3710   22.1950 C   0  0  0  0  0  0  0  0  0  0  0  0
   10.9290   -1.7350   23.4170 C   0  0  0  0  0  0  0  0  0  0  0  0
    6.3170   -0.0100   18.1930 N   0  0  0  0  0  0  0  0  0  0  0  0
    7.3020   -0.5450   18.9880 C   0  0  0  0  0  0  0  0  0  0  0  0
    7.0810   -0.1380   20.3120 C   0  0  0  0  0  0  0  0  0  0  0  0
    5.9610    0.6130   20.2320 C   0  0  0  0  0  0  0  0  0  0  0  0
    5.4650    0.7220   18.9630 C   0  0  0  0  0  0  0  0  0  0  0  0
    4.3870    1.3870   18.5450 N   0  0  0  0  0  0  0  0  0  0  0  0
    3.7250    2.0160   19.5460 C   0  0  0  0  0  0  0  0  0  0  0  0
    4.0860    2.0120   20.9050 C   0  0  0  0  0  0  0  0  0  0  0  0
    5.3270    1.2370   21.2950 C   0  0  0  0  0  0  0  0  0  0  0  0
  1  4  1  0
  4  2  1  6
  1  5  1  0
  3  5  2  0
  5  6  1  0
  8  9  2  0
  9 10  1  0
  2 11  1  0
 10 11  1  6
  4 12  1  0
 12 13  2  0
 13 14  1  0
 14 15  2  0
 15 16  1  0
 12 17  1  0
 16 17  2  0
 14 18  1  0
 18 19  2  0
 19 20  1  0
 13 21  1  0
 20 21  2  0
  7 22  1  0
 22 23  1  0
 23 24  1  0
  9 25  1  0
 24 25  1  0
 25 26  1  0
 22 27  1  0
 26 27  1  0
 28 29  1  0
 10 30  1  0
 29 30  2  0
 30 31  1  0
 28 32  1  0
 31 32  2  0
 32 33  1  0
 33 34  2  0
 34 35  1  0
 31 36  1  0
 35 36  2  0
M  END
