x0820-x2776
     RDKit          3D

 46 51  0  0  0  0  0  0  0  0999 V2000
    6.9590   -1.6680   21.8400 C   0  0  1  0  0  0  0  0  0  0  0  0
    6.7440   -4.8300   20.6160 C   0  0  0  0  0  0  0  0  0  0  0  0
    4.9840   -3.2190   20.2600 O   0  0  0  0  0  0  0  0  0  0  0  0
    6.1740   -3.7210   21.4920 C   0  0  2  0  0  0  0  0  0  0  0  0
    7.6190    1.7920   22.6500 N   0  0  0  0  0  0  0  0  0  0  0  0
    9.1910    0.4250   21.4820 O   0  0  0  0  0  0  0  0  0  0  0  0
    5.7870   -2.4380   20.8640 C   0  0  0  0  0  0  0  0  0  0  0  0
   10.6040    6.5710   23.9610 O   0  0  0  0  0  0  0  0  0  0  0  0
    6.7580   -0.2760   21.7930 C   0  0  1  0  0  0  0  0  0  0  0  0
   12.3910   -2.5370   25.2940 O   0  0  0  0  0  0  0  0  0  0  0  0
    8.0660    0.6230   21.9120 C   0  0  0  0  0  0  0  0  0  0  0  0
   10.4170    1.6170   23.8510 C   0  0  0  0  0  0  0  0  0  0  0  0
   11.7830    6.5180   24.7710 C   0  0  0  0  0  0  0  0  0  0  0  0
   12.4300   -1.8640   24.1150 C   0  0  2  0  0  0  0  0  0  0  0  0
   12.8590   -0.5710   24.3020 C   0  0  0  0  0  0  0  0  0  0  0  0
   13.5520   -3.1440   25.5740 C   0  0  0  0  0  0  0  0  0  0  0  0
    5.6740   -5.4920   19.9540 O   0  0  0  0  0  0  0  0  0  0  0  0
    6.7990   -3.0870   22.6970 C   0  0  2  0  0  0  0  0  0  0  0  0
    6.4610    0.3080   17.9950 N   0  0  0  0  0  0  0  0  0  0  0  0
    5.3100    1.0960   18.0050 C   0  0  0  0  0  0  0  0  0  0  0  0
    4.5350    1.5010   19.1780 C   0  0  0  0  0  0  0  0  0  0  0  0
    5.0880    0.9910   20.4560 C   0  0  0  0  0  0  0  0  0  0  0  0
    6.2470    0.1920   20.5180 C   0  0  0  0  0  0  0  0  0  0  0  0
    6.9310   -0.1560   19.3330 C   0  0  0  0  0  0  0  0  0  0  0  0
    9.7180    2.9170   23.5520 C   0  0  0  0  0  0  0  0  0  0  0  0
   10.4280    4.0470   23.8610 C   0  0  0  0  0  0  0  0  0  0  0  0
    9.9380    5.3180   23.6580 C   0  0  0  0  0  0  0  0  0  0  0  0
    8.6710    5.4080   23.1050 C   0  0  0  0  0  0  0  0  0  0  0  0
    7.9240    4.2540   22.7760 C   0  0  0  0  0  0  0  0  0  0  0  0
    8.4210    2.9500   22.9930 C   0  0  0  0  0  0  0  0  0  0  0  0
    9.6040   -2.2670   21.6560 C   0  0  0  0  0  0  0  0  0  0  0  0
   10.8640   -2.2790   22.2510 C   0  0  0  0  0  0  0  0  0  0  0  0
   11.0550   -1.8180   23.5460 C   0  0  0  0  0  0  0  0  0  0  0  0
   10.0010   -1.3240   24.2970 C   0  0  0  0  0  0  0  0  0  0  0  0
    8.7350   -1.2850   23.7450 C   0  0  0  0  0  0  0  0  0  0  0  0
    8.5210   -1.7880   22.3260 C   0  0  0  0  0  0  0  0  0  0  0  0
    6.1430   -3.5340   24.1090 C   0  0  0  0  0  0  0  0  0  0  0  0
    6.7660   -3.8540   25.3220 C   0  0  0  0  0  0  0  0  0  0  0  0
    5.9120   -4.2710   26.5100 C   0  0  0  0  0  0  0  0  0  0  0  0
    4.5260   -4.3350   26.3720 C   0  0  0  0  0  0  0  0  0  0  0  0
    3.8990   -4.0250   25.1690 C   0  0  0  0  0  0  0  0  0  0  0  0
    4.7320   -3.6340   24.0790 C   0  0  0  0  0  0  0  0  0  0  0  0
    6.4980   -4.5940   27.7410 C   0  0  0  0  0  0  0  0  0  0  0  0
    7.8780   -4.5490   27.9090 C   0  0  0  0  0  0  0  0  0  0  0  0
    8.6950   -4.1800   26.8470 C   0  0  0  0  0  0  0  0  0  0  0  0
    8.1580   -3.8400   25.5930 C   0  0  0  0  0  0  0  0  0  0  0  0
  4  2  1  6
  1  7  1  0
  3  7  2  0
  4  7  1  0
  1  9  1  0
  5 11  1  0
  6 11  2  0
  9 11  1  6
  8 13  1  0
 10 14  1  0
 14 15  1  1
 10 16  1  0
  2 17  2  0
  1 18  1  0
  4 18  1  0
 19 20  2  0
 20 21  1  0
 21 22  2  0
  9 23  1  0
 22 23  1  0
 19 24  1  0
 23 24  2  0
 12 25  1  0
 25 26  2  0
  8 27  1  0
 26 27  1  0
 27 28  2  0
 28 29  1  0
  5 30  1  0
 25 30  1  0
 29 30  2  0
 31 32  2  0
 14 33  1  0
 32 33  1  0
 33 34  2  0
 34 35  1  0
  1 36  1  6
 31 36  1  0
 35 36  2  0
 18 37  1  1
 37 38  2  0
 38 39  1  0
 39 40  2  0
 40 41  1  0
 37 42  1  0
 41 42  2  0
 39 43  1  0
 43 44  2  0
 44 45  1  0
 38 46  1  0
 45 46  2  0
M  END
