x0831-x0107
     RDKit          3D

 27 31  0  0  0  0  0  0  0  0999 V2000
   12.3980   -1.9870   21.8880 C   0  0  0  0  0  0  0  0  0  0  0  0
    5.3640   -4.3250   19.8360 O   0  0  0  0  0  0  0  0  0  0  0  0
    9.5430   -1.4650   22.4030 C   0  0  1  0  0  0  0  0  0  0  0  0
    6.3180   -3.5560   20.1370 C   0  0  0  0  0  0  0  0  0  0  0  0
    7.2510   -3.0960   19.0600 C   0  0  0  0  0  0  0  0  0  0  0  0
    8.5720   -0.6130   22.0160 C   0  0  2  0  0  0  0  0  0  0  0  0
    9.0680    0.2580   21.2980 O   0  0  0  0  0  0  0  0  0  0  0  0
    5.0280    0.9990   21.7530 C   0  0  0  0  0  0  0  0  0  0  0  0
   11.9370   -0.7690   22.6350 C   0  0  0  0  0  0  0  0  0  0  0  0
   10.5870   -0.5450   22.9100 C   0  0  0  0  0  0  0  0  0  0  0  0
   10.1610    0.5470   23.6000 C   0  0  0  0  0  0  0  0  0  0  0  0
   11.1040    1.4350   23.9750 C   0  0  0  0  0  0  0  0  0  0  0  0
   12.3870    1.2400   23.6840 C   0  0  0  0  0  0  0  0  0  0  0  0
   12.8590    0.1210   23.0160 C   0  0  0  0  0  0  0  0  0  0  0  0
    6.5060   -3.1820   21.5180 N   0  0  0  0  0  0  0  0  0  0  0  0
    6.1380   -1.8700   21.9760 C   0  0  0  0  0  0  0  0  0  0  0  0
    7.1670   -0.9440   21.4820 C   0  0  2  0  0  0  0  0  0  0  0  0
    8.0390   -1.8620   21.5410 C   0  0  2  0  0  0  0  0  0  0  0  0
    8.4360   -2.1850   22.9170 N   0  0  0  0  0  0  0  0  0  0  0  0
    8.3990   -3.4940   23.0900 C   0  0  0  0  0  0  0  0  0  0  0  0
    7.2870   -4.0010   22.3960 C   0  0  0  0  0  0  0  0  0  0  0  0
    6.6290   -0.1810   20.2750 C   0  0  0  0  0  0  0  0  0  0  0  0
    5.6180    0.7230   20.4050 C   0  0  0  0  0  0  0  0  0  0  0  0
    5.0920    1.4180   19.3350 C   0  0  0  0  0  0  0  0  0  0  0  0
    5.5910    1.2180   18.0740 C   0  0  0  0  0  0  0  0  0  0  0  0
    6.5880    0.3640   17.8350 N   0  0  0  0  0  0  0  0  0  0  0  0
    7.0930   -0.3180   18.8870 C   0  0  0  0  0  0  0  0  0  0  0  0
  2  4  2  0
  4  5  1  0
  3  6  1  0
  6  7  1  1
  1  9  1  0
  3 10  1  1
  9 10  2  0
 10 11  1  0
 11 12  2  0
 12 13  1  0
  9 14  1  0
 13 14  2  0
  4 15  1  0
 15 16  1  0
  6 17  1  0
 16 17  1  0
  6 18  1  0
 17 18  1  0
  3 19  1  0
 18 19  1  1
 19 20  1  0
 15 21  1  0
 20 21  1  0
 17 22  1  6
  8 23  1  0
 22 23  2  0
 23 24  1  0
 24 25  2  0
 25 26  1  0
 22 27  1  0
 26 27  2  0
M  END
