x0830-x0678
     RDKit          3D

 29 33  0  0  0  0  0  0  0  0999 V2000
    7.6570   -3.6190   19.6730 C   0  0  0  0  0  0  0  0  0  0  0  0
    5.4020   -3.3540   19.3690 O   0  0  0  0  0  0  0  0  0  0  0  0
    6.4150   -3.0180   20.0910 C   0  0  0  0  0  0  0  0  0  0  0  0
    9.9610   -2.3880   23.4570 C   0  0  0  0  0  0  0  0  0  0  0  0
    8.5350    1.0410   21.9390 O   0  0  0  0  0  0  0  0  0  0  0  0
    8.0220   -0.2370   22.3370 C   0  0  2  0  0  0  0  0  0  0  0  0
    7.7250   -0.4410   23.7690 C   0  0  0  0  0  0  0  0  0  0  0  0
    6.4610   -2.1970   21.2680 N   0  0  0  0  0  0  0  0  0  0  0  0
    6.4970   -2.8340   22.5620 C   0  0  0  0  0  0  0  0  0  0  0  0
    7.8620   -3.4590   22.8080 C   0  0  0  0  0  0  0  0  0  0  0  0
    9.0120   -2.5970   22.3190 N   0  0  0  0  0  0  0  0  0  0  0  0
    8.5840   -1.3740   21.5230 C   0  0  1  0  0  0  0  0  0  0  0  0
    7.3720   -1.1330   21.2010 C   0  0  2  0  0  0  0  0  0  0  0  0
   12.1050   -1.9860   22.6400 C   0  0  0  0  0  0  0  0  0  0  0  0
   13.1360   -1.1730   22.3740 C   0  0  0  0  0  0  0  0  0  0  0  0
   13.1310    0.1900   22.6640 C   0  0  0  0  0  0  0  0  0  0  0  0
   12.0000    0.7040   23.2470 C   0  0  0  0  0  0  0  0  0  0  0  0
   10.8330   -0.1050   23.5950 C   0  0  0  0  0  0  0  0  0  0  0  0
   10.9560   -1.5060   23.2370 C   0  0  0  0  0  0  0  0  0  0  0  0
   11.9380    1.9290   23.4940 C   0  0  0  0  0  0  0  0  0  0  0  0
   10.8450    2.5260   24.0700 C   0  0  0  0  0  0  0  0  0  0  0  0
    9.7180    1.7900   24.4490 C   0  0  0  0  0  0  0  0  0  0  0  0
    9.7070    0.4530   24.2110 C   0  0  0  0  0  0  0  0  0  0  0  0
    5.7130    0.6650   20.3450 C   0  0  0  0  0  0  0  0  0  0  0  0
    5.1940    1.4100   19.3170 C   0  0  0  0  0  0  0  0  0  0  0  0
    5.6890    1.2960   18.0450 C   0  0  0  0  0  0  0  0  0  0  0  0
    6.6860    0.4810   17.7070 N   0  0  0  0  0  0  0  0  0  0  0  0
    7.2210   -0.3140   18.8150 C   0  0  0  0  0  0  0  0  0  0  0  0
    6.7660   -0.2440   20.1140 C   0  0  0  0  0  0  0  0  0  0  0  0
  1  3  1  0
  2  3  2  0
  6  5  1  0
  6  7  1  1
  3  8  1  0
  8  9  1  0
  9 10  1  0
  4 11  1  0
 10 11  1  0
  6 12  1  0
 12 11  1  1
  6 13  1  0
  8 13  1  0
 12 13  1  0
 14 15  2  0
 15 16  1  0
 16 17  2  0
 17 18  1  0
  4 19  1  0
 14 19  1  0
 18 19  2  0
 17 20  1  0
 20 21  2  0
 21 22  1  0
 18 23  1  0
 22 23  2  0
 24 25  2  0
 25 26  1  0
 26 27  2  0
 27 28  1  0
 13 29  1  6
 24 29  1  0
 28 29  2  0
M  END
