x0830-x2779
     RDKit          3D

 20 22  0  0  0  0  0  0  0  0999 V2000
    7.5300   -3.6080   19.5790 C   0  0  0  0  0  0  0  0  0  0  0  0
    5.3070   -3.2570   19.1340 O   0  0  0  0  0  0  0  0  0  0  0  0
    6.2690   -3.0030   19.9130 C   0  0  0  0  0  0  0  0  0  0  0  0
    9.7580   -2.0650   23.4190 C   0  0  0  0  0  0  0  0  0  0  0  0
    6.1790   -2.2940   21.1190 N   0  0  0  0  0  0  0  0  0  0  0  0
    6.2530   -3.0940   22.3770 C   0  0  0  0  0  0  0  0  0  0  0  0
    7.6710   -3.3180   22.8160 C   0  0  0  0  0  0  0  0  0  0  0  0
    8.3490   -2.0530   23.0800 N   0  0  0  0  0  0  0  0  0  0  0  0
    8.3620   -1.3180   21.7920 C   0  0  0  0  0  0  0  0  0  0  0  0
    7.0120   -1.0880   21.1450 C   0  0  0  0  0  0  0  0  0  0  0  0
   12.1190   -2.0220   22.7450 C   0  0  0  0  0  0  0  0  0  0  0  0
   13.2030   -1.2240   22.5490 C   0  0  0  0  0  0  0  0  0  0  0  0
   13.1720    0.1240   22.8060 C   0  0  0  0  0  0  0  0  0  0  0  0
   12.0680    0.6870   23.2670 C   0  0  0  0  0  0  0  0  0  0  0  0
   10.9170   -0.0620   23.5160 C   0  0  0  0  0  0  0  0  0  0  0  0
   10.9720   -1.4040   23.2290 C   0  0  0  0  0  0  0  0  0  0  0  0
   11.9790    2.0690   23.5190 C   0  0  0  0  0  0  0  0  0  0  0  0
   10.7570    2.6600   24.0230 C   0  0  0  0  0  0  0  0  0  0  0  0
    9.6570    1.8610   24.2790 C   0  0  0  0  0  0  0  0  0  0  0  0
    9.7230    0.5080   24.0270 C   0  0  0  0  0  0  0  0  0  0  0  0
  1  3  1  0
  2  3  2  0
  3  5  1  0
  5  6  1  0
  6  7  1  0
  4  8  1  0
  7  8  1  0
  8  9  1  0
  5 10  1  0
  9 10  1  0
 11 12  2  0
 12 13  1  0
 13 14  2  0
 14 15  1  0
  4 16  1  0
 11 16  1  0
 15 16  2  0
 14 17  1  0
 17 18  2  0
 18 19  1  0
 15 20  1  0
 19 20  2  0
M  END
