x0831-x3077
     RDKit          3D

 18 20  0  0  0  0  0  0  0  0999 V2000
    6.9670   -3.2130   19.2050 C   0  0  0  0  0  0  0  0  0  0  0  0
    5.4650   -4.8730   19.9990 O   0  0  0  0  0  0  0  0  0  0  0  0
   13.3230   -1.8520   21.1220 Cl  0  0  0  0  0  0  0  0  0  0  0  0
    6.2830   -3.9630   20.2880 C   0  0  0  0  0  0  0  0  0  0  0  0
    9.2030   -2.1000   24.3700 C   0  0  0  0  0  0  0  0  0  0  0  0
    6.5680   -3.6560   21.6350 N   0  0  0  0  0  0  0  0  0  0  0  0
    7.1010   -4.6040   22.6180 C   0  0  0  0  0  0  0  0  0  0  0  0
    7.5650   -3.6290   23.6750 C   0  0  2  0  0  0  0  0  0  0  0  0
    6.3770   -2.6820   23.6860 C   0  0  0  0  0  0  0  0  0  0  0  0
    6.6160   -2.3530   22.2410 C   0  0  1  0  0  0  0  0  0  0  0  0
    8.6170   -2.8300   23.3060 N   0  0  0  0  0  0  0  0  0  0  0  0
    7.9880   -1.9480   22.2780 C   0  0  0  0  0  0  0  0  0  0  0  0
   10.7860   -0.0760   24.3830 C   0  0  0  0  0  0  0  0  0  0  0  0
   11.9080    0.6020   23.8960 C   0  0  0  0  0  0  0  0  0  0  0  0
   12.7010    0.0950   22.9150 C   0  0  0  0  0  0  0  0  0  0  0  0
   12.3860   -1.1670   22.3520 C   0  0  0  0  0  0  0  0  0  0  0  0
   11.2790   -1.8190   22.8410 C   0  0  0  0  0  0  0  0  0  0  0  0
   10.4150   -1.3190   23.8810 C   0  0  0  0  0  0  0  0  0  0  0  0
  1  4  1  0
  2  4  2  0
  4  6  1  0
  6  7  1  0
  8  7  1  6
  8  9  1  0
  6 10  1  0
  9 10  1  0
  5 11  1  0
  8 11  1  0
 10 12  1  1
 11 12  1  0
 13 14  2  0
 14 15  1  0
  3 16  1  0
 15 16  2  0
 16 17  1  0
  5 18  1  0
 13 18  1  0
 17 18  2  0
M  END
