x0830-x0831
     RDKit          3D

 20 22  0  0  0  0  0  0  0  0999 V2000
    7.5710   -3.5540   19.5530 C   0  0  0  0  0  0  0  0  0  0  0  0
    5.3130   -3.2820   19.1620 O   0  0  0  0  0  0  0  0  0  0  0  0
    6.2880   -3.0060   19.9180 C   0  0  0  0  0  0  0  0  0  0  0  0
    9.7690   -2.0680   23.4250 C   0  0  0  0  0  0  0  0  0  0  0  0
    6.1980   -2.3100   21.1320 N   0  0  0  0  0  0  0  0  0  0  0  0
    6.2790   -3.1140   22.3820 C   0  0  0  0  0  0  0  0  0  0  0  0
    7.6980   -3.3230   22.8170 C   0  0  0  0  0  0  0  0  0  0  0  0
    8.3620   -2.0550   23.0930 N   0  0  0  0  0  0  0  0  0  0  0  0
    8.3610   -1.2960   21.8190 C   0  0  0  0  0  0  0  0  0  0  0  0
    7.0090   -1.0920   21.1660 C   0  0  0  0  0  0  0  0  0  0  0  0
   12.1290   -2.0240   22.7450 C   0  0  0  0  0  0  0  0  0  0  0  0
   13.2120   -1.2240   22.5480 C   0  0  0  0  0  0  0  0  0  0  0  0
   13.1790    0.1240   22.8050 C   0  0  0  0  0  0  0  0  0  0  0  0
   12.0790    0.6840   23.2650 C   0  0  0  0  0  0  0  0  0  0  0  0
   10.9290   -0.0670   23.5140 C   0  0  0  0  0  0  0  0  0  0  0  0
   10.9870   -1.4080   23.2280 C   0  0  0  0  0  0  0  0  0  0  0  0
   11.9840    2.0670   23.5180 C   0  0  0  0  0  0  0  0  0  0  0  0
   10.7590    2.6560   24.0230 C   0  0  0  0  0  0  0  0  0  0  0  0
    9.6650    1.8490   24.2760 C   0  0  0  0  0  0  0  0  0  0  0  0
    9.7340    0.5000   24.0250 C   0  0  0  0  0  0  0  0  0  0  0  0
  1  3  1  0
  2  3  2  0
  3  5  1  0
  5  6  1  0
  6  7  1  0
  4  8  1  0
  7  8  1  0
  8  9  1  0
  5 10  1  0
  9 10  1  0
 11 12  2  0
 12 13  1  0
 13 14  2  0
 14 15  1  0
  4 16  1  0
 11 16  1  0
 15 16  2  0
 14 17  1  0
 17 18  2  0
 18 19  1  0
 15 20  1  0
 19 20  2  0
M  END
