x0830-x0336
     RDKit          3D

 15 15  0  0  0  0  0  0  0  0999 V2000
    5.3080  -30.0110   10.8000 C   0  0  0  0  0  0  0  0  0  0  0  0
    4.8790  -29.8710    9.3600 C   0  0  0  0  0  0  0  0  0  0  0  0
    4.7750  -30.8000    8.6420 O   0  0  0  0  0  0  0  0  0  0  0  0
    4.5970  -28.5700    8.9100 N   0  0  0  0  0  0  0  0  0  0  0  0
    5.0630  -27.4090    9.6540 C   0  0  0  0  0  0  0  0  0  0  0  0
    1.3820  -22.5470    9.1580 S   0  0  0  0  0  0  0  0  0  0  0  0
    1.7810  -21.5130   10.0690 O   0  0  0  0  0  0  0  0  0  0  0  0
    0.0190  -23.0210    9.1480 O   0  0  0  0  0  0  0  0  0  0  0  0
    1.7650  -21.9700    7.6170 N   0  0  0  0  0  0  0  0  0  0  0  0
    4.1570  -26.2060    9.6040 C   0  0  0  0  0  0  0  0  0  0  0  0
    3.7320  -25.7360    8.2620 C   0  0  0  0  0  0  0  0  0  0  0  0
    2.9020  -24.6290    8.1740 C   0  0  0  0  0  0  0  0  0  0  0  0
    2.4500  -23.9520    9.3080 C   0  0  0  0  0  0  0  0  0  0  0  0
    2.8540  -24.4110   10.5700 C   0  0  0  0  0  0  0  0  0  0  0  0
    3.7050  -25.5240   10.7300 C   0  0  0  0  0  0  0  0  0  0  0  0
  1  2  1  0
  2  3  2  0
  2  4  1  0
  4  5  1  0
  6  7  2  0
  6  8  2  0
  6  9  1  0
  5 10  1  0
 10 11  2  0
 11 12  1  0
  6 13  1  0
 12 13  2  0
 13 14  1  0
 10 15  1  0
 14 15  2  0
M  END
