x0831-x1382
     RDKit          3D

 20 26  0  0  0  0  0  0  0  0999 V2000
   13.3280   -2.4490   21.0710 Cl  0  0  0  0  0  0  0  0  0  0  0  0
    7.2020   -1.6630   23.9550 C   0  0  0  0  0  0  0  0  0  0  0  0
    8.6930   -2.0140   21.1500 N   0  0  0  0  0  0  0  0  0  0  0  0
    7.7750   -1.7070   20.0130 C   0  0  2  0  0  0  0  0  0  0  0  0
    7.2100   -2.9780   19.3470 C   0  0  0  0  0  0  0  0  0  0  0  0
    5.5150   -4.6100   19.9340 O   0  0  0  0  0  0  0  0  0  0  0  0
    6.2380   -3.6370   20.2640 C   0  0  0  0  0  0  0  0  0  0  0  0
   10.1480   -1.1010   23.0070 C   0  0  0  0  0  0  0  0  0  0  0  0
   10.9830   -1.8620   22.0390 C   0  0  0  0  0  0  0  0  0  0  0  0
   12.3880   -1.6050   22.1700 C   0  0  0  0  0  0  0  0  0  0  0  0
   12.7090   -0.7150   23.1570 C   0  0  0  0  0  0  0  0  0  0  0  0
   11.8370   -0.0690   24.0100 C   0  0  0  0  0  0  0  0  0  0  0  0
   10.4080   -0.1170   24.1270 C   0  0  0  0  0  0  0  0  0  0  0  0
    6.1460   -3.0390   21.4930 N   0  0  0  0  0  0  0  0  0  0  0  0
    5.6950   -1.6510   21.4310 C   0  0  0  0  0  0  0  0  0  0  0  0
    6.6150   -0.9170   20.6730 C   0  0  1  0  0  0  0  0  0  0  0  0
    7.7880   -1.0630   21.2740 C   0  0  2  0  0  0  0  0  0  0  0  0
    8.4720   -1.4550   22.7000 S   0  0  0  0  0  0  0  0  0  0  0  0
    7.7690   -2.8960   23.4510 C   0  0  2  0  0  0  0  0  0  0  0  0
    6.8080   -3.6970   22.6640 C   0  0  0  0  0  0  0  0  0  0  0  0
  4  3  1  0
  4  5  1  6
  5  7  1  0
  6  7  2  0
  8  9  2  0
  1 10  1  0
  9 10  1  0
 10 11  2  0
 11 12  1  0
  8 13  1  0
 12 13  2  0
  7 14  1  0
 14 15  1  0
  4 16  1  0
 16 15  1  1
 17  3  1  1
  4 17  1  0
 16 17  1  0
  2 18  1  0
  3 18  1  0
  8 18  1  0
 17 18  1  0
 19  2  1  1
 18 19  1  0
 14 20  1  0
 19 20  1  0
M  END
