x0830-x0692
     RDKit          3D

 20 22  0  0  0  0  0  0  0  0999 V2000
    7.5730   -3.5560   19.5220 C   0  0  0  0  0  0  0  0  0  0  0  0
    5.3160   -3.2670   19.1410 O   0  0  0  0  0  0  0  0  0  0  0  0
    6.2940   -2.9980   19.8960 C   0  0  0  0  0  0  0  0  0  0  0  0
    9.7600   -2.0630   23.4410 C   0  0  0  0  0  0  0  0  0  0  0  0
    6.2060   -2.3030   21.1130 N   0  0  0  0  0  0  0  0  0  0  0  0
    6.2760   -3.1150   22.3620 C   0  0  0  0  0  0  0  0  0  0  0  0
    7.6910   -3.3240   22.8100 C   0  0  0  0  0  0  0  0  0  0  0  0
    8.3510   -2.0570   23.1020 N   0  0  0  0  0  0  0  0  0  0  0  0
    8.3670   -1.2980   21.8260 C   0  0  0  0  0  0  0  0  0  0  0  0
    7.0260   -1.0900   21.1530 C   0  0  0  0  0  0  0  0  0  0  0  0
   12.1190   -2.0220   22.7550 C   0  0  0  0  0  0  0  0  0  0  0  0
   13.2030   -1.2270   22.5510 C   0  0  0  0  0  0  0  0  0  0  0  0
   13.1700    0.1230   22.8050 C   0  0  0  0  0  0  0  0  0  0  0  0
   12.0710    0.6860   23.2670 C   0  0  0  0  0  0  0  0  0  0  0  0
   10.9190   -0.0630   23.5230 C   0  0  0  0  0  0  0  0  0  0  0  0
   10.9760   -1.4060   23.2400 C   0  0  0  0  0  0  0  0  0  0  0  0
   11.9820    2.0690   23.5150 C   0  0  0  0  0  0  0  0  0  0  0  0
   10.7620    2.6620   24.0200 C   0  0  0  0  0  0  0  0  0  0  0  0
    9.6600    1.8640   24.2830 C   0  0  0  0  0  0  0  0  0  0  0  0
    9.7250    0.5120   24.0360 C   0  0  0  0  0  0  0  0  0  0  0  0
  1  3  1  0
  2  3  2  0
  3  5  1  0
  5  6  1  0
  6  7  1  0
  4  8  1  0
  7  8  1  0
  8  9  1  0
  5 10  1  0
  9 10  1  0
 11 12  2  0
 12 13  1  0
 13 14  2  0
 14 15  1  0
  4 16  1  0
 11 16  1  0
 15 16  2  0
 14 17  1  0
 17 18  2  0
 18 19  1  0
 15 20  1  0
 19 20  2  0
M  END
