x0831-x0387
     RDKit          3D

 25 27  0  0  0  0  0  0  0  0999 V2000
   12.5160   -2.1170   22.4720 C   0  0  0  0  0  0  0  0  0  0  0  0
    5.3790   -4.2350   19.7520 O   0  0  0  0  0  0  0  0  0  0  0  0
    9.7380   -2.1160   23.5480 C   0  0  2  0  0  0  0  0  0  0  0  0
    6.3140   -3.4160   19.9240 C   0  0  0  0  0  0  0  0  0  0  0  0
    7.2600   -3.0480   18.8380 C   0  0  0  0  0  0  0  0  0  0  0  0
    8.9630   -4.4900   27.7880 O   0  0  0  0  0  0  0  0  0  0  0  0
   11.9910   -0.7960   23.0120 C   0  0  0  0  0  0  0  0  0  0  0  0
   10.5500   -0.8740   23.5490 C   0  0  0  0  0  0  0  0  0  0  0  0
   10.1050    0.4510   24.0420 C   0  0  0  0  0  0  0  0  0  0  0  0
   11.0330    1.4230   23.9240 C   0  0  0  0  0  0  0  0  0  0  0  0
   12.3040    1.4080   23.4340 C   0  0  0  0  0  0  0  0  0  0  0  0
   13.0260    0.3100   22.8890 C   0  0  0  0  0  0  0  0  0  0  0  0
    6.4690   -2.8690   21.2040 N   0  0  0  0  0  0  0  0  0  0  0  0
    6.2890   -1.4230   21.4100 C   0  0  0  0  0  0  0  0  0  0  0  0
    7.4770   -0.7260   21.0840 C   0  0  0  0  0  0  0  0  0  0  0  0
    8.5620   -1.4510   21.5750 C   0  0  0  0  0  0  0  0  0  0  0  0
    8.5030   -1.8140   22.9960 N   0  0  0  0  0  0  0  0  0  0  0  0
    7.4610   -2.7830   23.3370 C   0  0  0  0  0  0  0  0  0  0  0  0
    7.1100   -3.6630   22.2360 C   0  0  0  0  0  0  0  0  0  0  0  0
    9.1060   -5.0090   26.5300 C   0  0  0  0  0  0  0  0  0  0  0  0
    8.2020   -4.5490   25.5990 C   0  0  0  0  0  0  0  0  0  0  0  0
    8.2190   -3.1870   25.3040 C   0  0  0  0  0  0  0  0  0  0  0  0
    9.5900   -2.7530   24.8830 N   0  0  0  0  0  0  0  0  0  0  0  0
   10.6750   -3.6690   25.1690 C   0  0  0  0  0  0  0  0  0  0  0  0
   10.5110   -4.7520   26.0370 C   0  0  0  0  0  0  0  0  0  0  0  0
  2  4  2  0
  4  5  1  0
  1  7  1  0
  3  8  1  1
  7  8  2  0
  8  9  1  0
  9 10  2  0
 10 11  1  0
  7 12  1  0
 11 12  2  0
  4 13  1  0
 13 14  1  0
 14 15  1  0
 15 16  1  0
  3 17  1  0
 16 17  1  0
 17 18  1  0
 13 19  1  0
 18 19  1  0
  6 20  1  0
 20 21  1  0
 21 22  1  0
  3 23  1  0
 22 23  1  0
 23 24  1  0
 20 25  1  0
 24 25  1  0
M  END
