x0831-x0991
     RDKit          3D

 22 23  0  0  0  0  0  0  0  0999 V2000
   12.5630   -2.1550   22.0060 C   0  0  0  0  0  0  0  0  0  0  0  0
    5.3530   -4.1920   19.7270 O   0  0  0  0  0  0  0  0  0  0  0  0
    9.8360   -2.4650   23.2890 C   0  0  2  0  0  0  0  0  0  0  0  0
    6.2970   -3.4010   19.9610 C   0  0  0  0  0  0  0  0  0  0  0  0
    7.2970   -3.0440   18.9120 C   0  0  0  0  0  0  0  0  0  0  0  0
    9.2570   -5.8510   24.3040 N   0  0  0  0  0  0  0  0  0  0  0  0
   10.0010   -3.3790   24.5170 C   0  0  0  0  0  0  0  0  0  0  0  0
    8.1850   -4.3970   25.8980 N   0  0  0  0  0  0  0  0  0  0  0  0
    9.0850   -4.5610   24.9320 C   0  0  0  0  0  0  0  0  0  0  0  0
   11.9310   -1.0510   22.7920 C   0  0  0  0  0  0  0  0  0  0  0  0
   10.6580   -1.1810   23.3990 C   0  0  0  0  0  0  0  0  0  0  0  0
   10.1860   -0.0860   24.0920 C   0  0  0  0  0  0  0  0  0  0  0  0
   10.9050    1.0940   24.1930 C   0  0  0  0  0  0  0  0  0  0  0  0
   12.1120    1.1670   23.5970 C   0  0  0  0  0  0  0  0  0  0  0  0
   12.6570    0.0990   22.8870 C   0  0  0  0  0  0  0  0  0  0  0  0
    6.3900   -2.8990   21.2380 N   0  0  0  0  0  0  0  0  0  0  0  0
    6.2000   -1.5590   21.3690 C   0  0  0  0  0  0  0  0  0  0  0  0
    7.3650   -0.6640   21.2530 C   0  0  0  0  0  0  0  0  0  0  0  0
    8.5060   -1.4690   21.6780 C   0  0  0  0  0  0  0  0  0  0  0  0
    8.5100   -1.9580   22.9360 N   0  0  0  0  0  0  0  0  0  0  0  0
    7.4120   -2.8320   23.3640 C   0  0  0  0  0  0  0  0  0  0  0  0
    6.8900   -3.5560   22.2990 C   0  0  0  0  0  0  0  0  0  0  0  0
  2  4  2  0
  4  5  1  0
  3  7  1  1
  6  9  2  3
  7  9  1  0
  8  9  1  0
  1 10  1  0
  3 11  1  0
 10 11  2  0
 11 12  1  0
 12 13  2  0
 13 14  1  0
 10 15  1  0
 14 15  2  0
  4 16  1  0
 16 17  1  0
 17 18  1  0
 18 19  1  0
  3 20  1  0
 19 20  1  0
 20 21  1  0
 16 22  1  0
 21 22  1  0
M  END
