x0831-x1093
     RDKit          3D

 29 33  0  0  0  0  0  0  0  0999 V2000
   12.7530   -1.9740   22.1440 C   0  0  0  0  0  0  0  0  0  0  0  0
    5.2560   -4.3280   19.8170 O   0  0  0  0  0  0  0  0  0  0  0  0
   10.0370   -2.4050   23.3710 C   0  0  0  0  0  0  0  0  0  0  0  0
    6.1440   -3.4800   20.0860 C   0  0  0  0  0  0  0  0  0  0  0  0
    7.0590   -3.0320   19.0010 C   0  0  0  0  0  0  0  0  0  0  0  0
    8.1850    1.2790   21.5820 O   0  0  0  0  0  0  0  0  0  0  0  0
    8.5080    0.0960   21.6770 C   0  0  0  0  0  0  0  0  0  0  0  0
   12.1020   -0.8460   22.8860 C   0  0  0  0  0  0  0  0  0  0  0  0
   10.7390   -1.1150   23.4870 C   0  0  0  0  0  0  0  0  0  0  0  0
   10.2450   -0.0290   24.1270 C   0  0  0  0  0  0  0  0  0  0  0  0
   10.9420    1.1110   24.1630 C   0  0  0  0  0  0  0  0  0  0  0  0
   12.1970    1.2550   23.5690 C   0  0  0  0  0  0  0  0  0  0  0  0
   13.0020    0.3810   22.8620 C   0  0  0  0  0  0  0  0  0  0  0  0
    6.2640   -3.0190   21.4430 N   0  0  0  0  0  0  0  0  0  0  0  0
    6.2850   -1.6460   21.8140 C   0  0  0  0  0  0  0  0  0  0  0  0
    7.3580   -1.0460   21.1850 C   0  0  2  0  0  0  0  0  0  0  0  0
    8.6040   -1.3990   21.6680 C   0  0  2  0  0  0  0  0  0  0  0  0
    8.7420   -2.2350   22.8950 N   0  0  0  0  0  0  0  0  0  0  0  0
    7.7660   -3.1870   23.4630 C   0  0  0  0  0  0  0  0  0  0  0  0
    6.9910   -3.8700   22.3590 C   0  0  0  0  0  0  0  0  0  0  0  0
    6.5430    0.2710   17.8520 N   0  0  0  0  0  0  0  0  0  0  0  0
    7.2920   -0.4970   18.7080 C   0  0  0  0  0  0  0  0  0  0  0  0
    6.9000   -0.4100   20.0210 C   0  0  0  0  0  0  0  0  0  0  0  0
    5.8800    0.4410   20.0060 C   0  0  0  0  0  0  0  0  0  0  0  0
    5.5980    0.8590   18.7390 C   0  0  0  0  0  0  0  0  0  0  0  0
    4.5350    1.7180   18.5140 N   0  0  0  0  0  0  0  0  0  0  0  0
    3.7720    2.2100   19.6890 C   0  0  0  0  0  0  0  0  0  0  0  0
    4.1030    1.7760   20.9840 C   0  0  0  0  0  0  0  0  0  0  0  0
    5.1660    0.8740   21.1200 C   0  0  0  0  0  0  0  0  0  0  0  0
  2  4  2  0
  4  5  1  0
  6  7  2  0
  1  8  1  0
  3  9  1  0
  8  9  2  0
  9 10  1  0
 10 11  2  0
 11 12  1  0
  8 13  1  0
 12 13  2  0
  4 14  1  0
 14 15  1  0
  7 16  1  0
 15 16  1  0
 17  7  1  1
 16 17  1  0
  3 18  1  0
 17 18  1  0
 18 19  1  0
 14 20  1  0
 19 20  1  0
 21 22  1  0
 16 23  1  6
 22 23  2  0
 23 24  1  0
 21 25  2  0
 24 25  1  0
 25 26  1  0
 26 27  1  0
 27 28  2  0
 24 29  2  0
 28 29  1  0
M  END
