x0831-x1386
     RDKit          3D

 18 19  0  0  0  0  0  0  0  0999 V2000
   12.6840   -2.0900   22.2660 C   0  0  0  0  0  0  0  0  0  0  0  0
    5.2790   -4.3000   19.7780 O   0  0  0  0  0  0  0  0  0  0  0  0
    9.9600   -2.2600   23.5930 C   0  0  0  0  0  0  0  0  0  0  0  0
    6.1650   -3.4410   19.9930 C   0  0  0  0  0  0  0  0  0  0  0  0
    7.1440   -3.0570   18.9420 C   0  0  0  0  0  0  0  0  0  0  0  0
   12.1210   -0.8380   22.9430 C   0  0  0  0  0  0  0  0  0  0  0  0
   10.7510   -0.9870   23.5950 C   0  0  0  0  0  0  0  0  0  0  0  0
   10.1760    0.1910   24.2460 C   0  0  0  0  0  0  0  0  0  0  0  0
   10.9930    1.2660   24.1410 C   0  0  0  0  0  0  0  0  0  0  0  0
   12.2350    1.3430   23.5320 C   0  0  0  0  0  0  0  0  0  0  0  0
   13.0420    0.3840   22.8470 C   0  0  0  0  0  0  0  0  0  0  0  0
    6.2530   -2.8680   21.2790 N   0  0  0  0  0  0  0  0  0  0  0  0
    6.4050   -1.6100   21.3170 C   0  0  0  0  0  0  0  0  0  0  0  0
    7.4100   -0.6390   21.4470 C   0  0  0  0  0  0  0  0  0  0  0  0
    8.5920   -1.3510   21.6200 C   0  0  0  0  0  0  0  0  0  0  0  0
    8.7260   -2.0260   22.9160 N   0  0  0  0  0  0  0  0  0  0  0  0
    7.5850   -2.8310   23.3810 C   0  0  0  0  0  0  0  0  0  0  0  0
    6.8680   -3.6270   22.3740 C   0  0  0  0  0  0  0  0  0  0  0  0
  2  4  2  0
  4  5  1  0
  1  6  1  0
  3  7  1  0
  6  7  2  0
  7  8  1  0
  8  9  2  0
  9 10  1  0
  6 11  1  0
 10 11  2  0
  4 12  1  0
 12 13  1  0
 13 14  1  0
 14 15  1  0
  3 16  1  0
 15 16  1  0
 16 17  1  0
 12 18  1  0
 17 18  1  0
M  END
