x0831-x0072
     RDKit          3D

 24 27  0  0  0  0  0  0  0  0999 V2000
   12.7220   -2.0540   21.9130 C   0  0  0  0  0  0  0  0  0  0  0  0
    5.3200   -4.2850   19.7920 O   0  0  0  0  0  0  0  0  0  0  0  0
   10.0770   -2.2550   23.2190 C   0  0  2  0  0  0  0  0  0  0  0  0
    6.2700   -3.4950   20.0070 C   0  0  0  0  0  0  0  0  0  0  0  0
    7.1500   -3.0370   18.9110 C   0  0  0  0  0  0  0  0  0  0  0  0
    6.4180   -4.9980   25.8540 C   0  0  0  0  0  0  0  0  0  0  0  0
    8.0720   -4.3730   25.9490 S   0  0  0  0  0  0  0  0  0  0  0  0
    8.9570   -5.5000   26.1220 O   0  0  0  0  0  0  0  0  0  0  0  0
    8.0930   -3.2960   26.9080 O   0  0  0  0  0  0  0  0  0  0  0  0
    8.4100   -3.7610   24.3950 N   0  0  0  0  0  0  0  0  0  0  0  0
    9.1430   -2.4780   24.2940 C   0  0  2  0  0  0  0  0  0  0  0  0
   12.1290   -0.9000   22.6780 C   0  0  0  0  0  0  0  0  0  0  0  0
   10.8800   -0.9890   23.2900 C   0  0  0  0  0  0  0  0  0  0  0  0
   10.3990    0.1070   23.9660 C   0  0  0  0  0  0  0  0  0  0  0  0
   11.1110    1.2820   24.0470 C   0  0  0  0  0  0  0  0  0  0  0  0
   12.3110    1.3330   23.4470 C   0  0  0  0  0  0  0  0  0  0  0  0
   12.8550    0.2450   22.7520 C   0  0  0  0  0  0  0  0  0  0  0  0
    6.5720   -3.0300   21.2840 N   0  0  0  0  0  0  0  0  0  0  0  0
    5.9930   -1.7580   21.6150 C   0  0  0  0  0  0  0  0  0  0  0  0
    6.8230   -0.6690   22.1740 C   0  0  0  0  0  0  0  0  0  0  0  0
    8.2360   -1.0320   22.0880 C   0  0  0  0  0  0  0  0  0  0  0  0
    8.5670   -2.2610   22.9250 C   0  0  1  0  0  0  0  0  0  0  0  0
    7.5520   -3.1090   23.3360 C   0  0  1  0  0  0  0  0  0  0  0  0
    6.9890   -3.9600   22.3700 C   0  0  0  0  0  0  0  0  0  0  0  0
  2  4  2  0
  4  5  1  0
  7  6  1  0
  7  8  2  0
  7  9  2  0
  7 10  1  0
  3 11  1  0
 11 10  1  6
  1 12  1  0
  3 13  1  1
 12 13  2  0
 13 14  1  0
 14 15  2  0
 15 16  1  0
 12 17  1  0
 16 17  2  0
  4 18  1  0
 18 19  1  0
 19 20  1  0
 20 21  1  0
  3 22  1  0
 11 22  1  0
 22 21  1  1
 10 23  1  0
 22 23  1  0
 18 24  1  0
 23 24  1  6
M  END
