x0830-x0770
     RDKit          3D

 21 23  0  0  0  0  0  0  0  0999 V2000
    7.4620   -3.5680   19.5470 C   0  0  0  0  0  0  0  0  0  0  0  0
    5.2360   -3.2490   19.0600 O   0  0  0  0  0  0  0  0  0  0  0  0
    6.1690   -3.0150   19.8650 C   0  0  0  0  0  0  0  0  0  0  0  0
    9.3220   -1.9120   23.6000 C   0  0  0  0  0  0  0  0  0  0  0  0
   13.4530   -2.1730   21.2140 Cl  0  0  0  0  0  0  0  0  0  0  0  0
    6.0070   -2.3700   21.0950 N   0  0  0  0  0  0  0  0  0  0  0  0
    6.0640   -3.2200   22.3160 C   0  0  0  0  0  0  0  0  0  0  0  0
    7.4500   -3.3200   22.8610 C   0  0  0  0  0  0  0  0  0  0  0  0
    7.9390   -2.0080   23.2580 N   0  0  0  0  0  0  0  0  0  0  0  0
    8.0030   -1.2140   22.0020 C   0  0  0  0  0  0  0  0  0  0  0  0
    6.7270   -1.1020   21.2030 C   0  0  0  0  0  0  0  0  0  0  0  0
   11.3980   -1.9180   22.5520 C   0  0  0  0  0  0  0  0  0  0  0  0
   12.4860   -1.2640   22.1660 C   0  0  0  0  0  0  0  0  0  0  0  0
   12.7470    0.0490   22.4890 C   0  0  0  0  0  0  0  0  0  0  0  0
   11.8020    0.6650   23.1730 C   0  0  0  0  0  0  0  0  0  0  0  0
   10.6270    0.0420   23.6040 C   0  0  0  0  0  0  0  0  0  0  0  0
   10.4830   -1.2620   23.2680 C   0  0  0  0  0  0  0  0  0  0  0  0
   11.9030    2.0250   23.4840 C   0  0  0  0  0  0  0  0  0  0  0  0
   10.8350    2.6780   24.1800 C   0  0  0  0  0  0  0  0  0  0  0  0
    9.6890    2.0240   24.6130 C   0  0  0  0  0  0  0  0  0  0  0  0
    9.6000    0.6890   24.3210 C   0  0  0  0  0  0  0  0  0  0  0  0
  1  3  1  0
  2  3  2  0
  3  6  1  0
  6  7  1  0
  7  8  1  0
  4  9  1  0
  8  9  1  0
  9 10  1  0
  6 11  1  0
 10 11  1  0
  5 13  1  0
 12 13  2  0
 13 14  1  0
 14 15  2  0
 15 16  1  0
  4 17  1  0
 12 17  1  0
 16 17  2  0
 15 18  1  0
 18 19  2  0
 19 20  1  0
 16 21  1  0
 20 21  2  0
M  END
