x0830-x0387
     RDKit          3D

 27 30  0  0  0  0  0  0  0  0999 V2000
    7.6350   -3.5770   19.6050 C   0  0  0  0  0  0  0  0  0  0  0  0
    5.4500   -3.1370   19.0200 O   0  0  0  0  0  0  0  0  0  0  0  0
    6.3810   -2.8180   19.7830 C   0  0  0  0  0  0  0  0  0  0  0  0
    9.6860   -2.4080   23.3500 C   0  0  1  0  0  0  0  0  0  0  0  0
    9.1120   -5.5770   27.8890 O   0  0  0  0  0  0  0  0  0  0  0  0
    6.3640   -1.8950   20.8350 N   0  0  0  0  0  0  0  0  0  0  0  0
    6.2260   -2.4290   22.1880 C   0  0  0  0  0  0  0  0  0  0  0  0
    7.4320   -2.9610   22.6230 C   0  0  0  0  0  0  0  0  0  0  0  0
    8.4130   -1.8740   22.8330 N   0  0  0  0  0  0  0  0  0  0  0  0
    8.7120   -1.3180   21.4950 C   0  0  0  0  0  0  0  0  0  0  0  0
    7.4320   -0.8940   20.7620 C   0  0  0  0  0  0  0  0  0  0  0  0
   12.0060   -1.9390   22.6170 C   0  0  0  0  0  0  0  0  0  0  0  0
   13.1960   -1.0700   22.3850 C   0  0  0  0  0  0  0  0  0  0  0  0
   13.1330    0.2570   22.7200 C   0  0  0  0  0  0  0  0  0  0  0  0
   11.8290    0.7740   23.3070 C   0  0  0  0  0  0  0  0  0  0  0  0
   10.7550   -0.1020   23.5010 C   0  0  0  0  0  0  0  0  0  0  0  0
   10.8370   -1.4480   23.1600 C   0  0  0  0  0  0  0  0  0  0  0  0
   11.7840    2.1180   23.6150 C   0  0  0  0  0  0  0  0  0  0  0  0
   10.5550    2.7740   24.2120 C   0  0  0  0  0  0  0  0  0  0  0  0
    9.3670    1.8690   24.4570 C   0  0  0  0  0  0  0  0  0  0  0  0
    9.5680    0.4250   24.0540 C   0  0  0  0  0  0  0  0  0  0  0  0
    9.2350   -4.6580   26.8310 C   0  0  0  0  0  0  0  0  0  0  0  0
    8.1390   -4.7070   25.8010 C   0  0  0  0  0  0  0  0  0  0  0  0
    8.2030   -3.3700   25.0780 C   0  0  0  0  0  0  0  0  0  0  0  0
    9.5550   -2.8790   24.7150 N   0  0  0  0  0  0  0  0  0  0  0  0
   10.7700   -3.5320   25.2040 C   0  0  0  0  0  0  0  0  0  0  0  0
   10.5520   -4.7270   26.1170 C   0  0  0  0  0  0  0  0  0  0  0  0
  1  3  1  0
  2  3  2  0
  3  6  1  0
  6  7  1  0
  7  8  1  0
  4  9  1  0
  8  9  1  0
  9 10  1  0
  6 11  1  0
 10 11  1  0
 12 13  2  0
 13 14  1  0
 14 15  2  0
 15 16  1  0
  4 17  1  1
 12 17  1  0
 16 17  2  0
 15 18  1  0
 18 19  2  0
 19 20  1  0
 16 21  1  0
 20 21  2  0
  5 22  1  0
 22 23  1  0
 23 24  1  0
  4 25  1  0
 24 25  1  0
 25 26  1  0
 22 27  1  0
 26 27  1  0
M  END
