x0831-x2097
     RDKit          3D

 18 19  0  0  0  0  0  0  0  0999 V2000
   12.5380   -2.1000   22.2580 C   0  0  0  0  0  0  0  0  0  0  0  0
    5.3780   -4.2230   19.7670 O   0  0  0  0  0  0  0  0  0  0  0  0
    9.8840   -2.2700   23.5320 C   0  0  0  0  0  0  0  0  0  0  0  0
    6.3180   -3.4090   19.9710 C   0  0  0  0  0  0  0  0  0  0  0  0
    7.2450   -3.0170   18.8760 C   0  0  0  0  0  0  0  0  0  0  0  0
   12.0210   -0.8390   22.9410 C   0  0  0  0  0  0  0  0  0  0  0  0
   10.6320   -1.0070   23.5870 C   0  0  0  0  0  0  0  0  0  0  0  0
   10.1790    0.2460   24.2280 C   0  0  0  0  0  0  0  0  0  0  0  0
   11.0630    1.2600   24.1010 C   0  0  0  0  0  0  0  0  0  0  0  0
   12.2890    1.3310   23.5010 C   0  0  0  0  0  0  0  0  0  0  0  0
   13.0030    0.3110   22.8210 C   0  0  0  0  0  0  0  0  0  0  0  0
    6.5080   -2.8910   21.2750 N   0  0  0  0  0  0  0  0  0  0  0  0
    6.3050   -1.4580   21.5290 C   0  0  0  0  0  0  0  0  0  0  0  0
    7.5080   -0.7610   21.2800 C   0  0  0  0  0  0  0  0  0  0  0  0
    8.5710   -1.5860   21.6380 C   0  0  0  0  0  0  0  0  0  0  0  0
    8.6060   -2.0290   23.0380 N   0  0  0  0  0  0  0  0  0  0  0  0
    7.5890   -3.0050   23.4520 C   0  0  0  0  0  0  0  0  0  0  0  0
    6.9500   -3.7650   22.3650 C   0  0  0  0  0  0  0  0  0  0  0  0
  2  4  2  0
  4  5  1  0
  1  6  1  0
  3  7  1  0
  6  7  2  0
  7  8  1  0
  8  9  2  0
  9 10  1  0
  6 11  1  0
 10 11  2  0
  4 12  1  0
 12 13  1  0
 13 14  1  0
 14 15  1  0
  3 16  1  0
 15 16  1  0
 16 17  1  0
 12 18  1  0
 17 18  1  0
M  END
