x0831-x0736
     RDKit          3D

 25 27  0  0  0  0  0  0  0  0999 V2000
   12.4510   -2.0780   22.1070 C   0  0  0  0  0  0  0  0  0  0  0  0
    5.4000   -4.3820   19.8200 O   0  0  0  0  0  0  0  0  0  0  0  0
    9.6680   -2.0540   23.4420 C   0  0  0  0  0  0  0  0  0  0  0  0
    6.2000   -3.4260   19.9600 C   0  0  0  0  0  0  0  0  0  0  0  0
    7.1550   -3.0440   18.8820 C   0  0  0  0  0  0  0  0  0  0  0  0
    6.4500   -3.3420   25.3970 O   0  0  0  0  0  0  0  0  0  0  0  0
    7.1410   -2.4740   24.8880 C   0  0  0  0  0  0  0  0  0  0  0  0
   11.9740   -0.8460   22.8190 C   0  0  0  0  0  0  0  0  0  0  0  0
   10.5910   -0.8950   23.4570 C   0  0  0  0  0  0  0  0  0  0  0  0
   10.2880    0.2780   24.0460 C   0  0  0  0  0  0  0  0  0  0  0  0
   11.1310    1.3020   24.0350 C   0  0  0  0  0  0  0  0  0  0  0  0
   12.3770    1.2490   23.4300 C   0  0  0  0  0  0  0  0  0  0  0  0
   13.0350    0.2500   22.7460 C   0  0  0  0  0  0  0  0  0  0  0  0
    6.1880   -2.7020   21.1670 N   0  0  0  0  0  0  0  0  0  0  0  0
    6.1580   -1.2900   21.1030 C   0  0  0  0  0  0  0  0  0  0  0  0
    7.4180   -0.7470   20.7750 C   0  0  0  0  0  0  0  0  0  0  0  0
    8.5940   -1.3180   21.4590 C   0  0  0  0  0  0  0  0  0  0  0  0
    8.4730   -1.6380   22.8670 N   0  0  0  0  0  0  0  0  0  0  0  0
    7.2090   -2.2040   23.3390 C   0  0  1  0  0  0  0  0  0  0  0  0
    6.7640   -3.2840   22.3820 C   0  0  0  0  0  0  0  0  0  0  0  0
    8.4080   -0.3150   25.1520 O   0  0  0  0  0  0  0  0  0  0  0  0
    7.9760   -1.5240   25.6970 C   0  0  0  0  0  0  0  0  0  0  0  0
    8.4610   -1.5890   27.0010 C   0  0  0  0  0  0  0  0  0  0  0  0
    9.1610   -0.4890   27.2590 C   0  0  0  0  0  0  0  0  0  0  0  0
    9.1370    0.2940   26.1380 C   0  0  0  0  0  0  0  0  0  0  0  0
  2  4  2  0
  4  5  1  0
  6  7  2  0
  1  8  1  0
  3  9  1  0
  8  9  2  0
  9 10  1  0
 10 11  2  0
 11 12  1  0
  8 13  1  0
 12 13  2  0
  4 14  1  0
 14 15  1  0
 15 16  1  0
 16 17  1  0
  3 18  1  0
 17 18  1  0
 19  7  1  1
 18 19  1  0
 14 20  1  0
 19 20  1  0
  7 22  1  0
 21 22  1  0
 22 23  2  0
 23 24  1  0
 21 25  1  0
 24 25  2  0
M  END
