x0830-x0736
     RDKit          3D

 27 30  0  0  0  0  0  0  0  0999 V2000
    7.6330   -3.6890   19.6730 C   0  0  0  0  0  0  0  0  0  0  0  0
    5.4170   -3.2840   19.2460 O   0  0  0  0  0  0  0  0  0  0  0  0
    6.4010   -3.0410   20.0170 C   0  0  0  0  0  0  0  0  0  0  0  0
   10.1310   -2.4080   23.2110 C   0  0  0  0  0  0  0  0  0  0  0  0
    5.2920   -2.6840   25.8770 O   0  0  0  0  0  0  0  0  0  0  0  0
    5.7160   -1.3720   26.2110 C   0  0  0  0  0  0  0  0  0  0  0  0
    6.3950   -2.2900   21.2100 N   0  0  0  0  0  0  0  0  0  0  0  0
    6.4620   -3.1470   22.3750 C   0  0  0  0  0  0  0  0  0  0  0  0
    7.8720   -3.4590   22.9580 C   0  0  0  0  0  0  0  0  0  0  0  0
    8.6680   -2.3440   22.9990 N   0  0  0  0  0  0  0  0  0  0  0  0
    8.5350   -1.4090   21.8450 C   0  0  0  0  0  0  0  0  0  0  0  0
    7.2550   -1.1030   21.3680 C   0  0  0  0  0  0  0  0  0  0  0  0
   12.4280   -1.9680   22.2460 C   0  0  0  0  0  0  0  0  0  0  0  0
   13.3210   -0.9510   22.0960 C   0  0  0  0  0  0  0  0  0  0  0  0
   13.1210    0.3050   22.5810 C   0  0  0  0  0  0  0  0  0  0  0  0
   11.9980    0.6990   23.2830 C   0  0  0  0  0  0  0  0  0  0  0  0
   11.1530   -0.3540   23.4500 C   0  0  0  0  0  0  0  0  0  0  0  0
   11.3000   -1.6660   22.9330 C   0  0  0  0  0  0  0  0  0  0  0  0
   11.6660    1.9210   23.7700 C   0  0  0  0  0  0  0  0  0  0  0  0
   10.4440    2.0380   24.4910 C   0  0  0  0  0  0  0  0  0  0  0  0
    9.7060    0.8980   24.6820 C   0  0  0  0  0  0  0  0  0  0  0  0
   10.0500   -0.2410   24.1500 C   0  0  0  0  0  0  0  0  0  0  0  0
    7.3860    0.2270   24.5610 O   0  0  0  0  0  0  0  0  0  0  0  0
    6.7360   -0.5720   25.5470 C   0  0  0  0  0  0  0  0  0  0  0  0
    7.4780   -0.8280   26.6680 C   0  0  0  0  0  0  0  0  0  0  0  0
    8.6690   -0.2520   26.4840 C   0  0  0  0  0  0  0  0  0  0  0  0
    8.6560    0.3580   25.2390 C   0  0  0  0  0  0  0  0  0  0  0  0
  1  3  1  0
  2  3  2  0
  5  6  2  0
  3  7  1  0
  7  8  1  0
  8  9  1  0
  4 10  1  0
  9 10  1  0
 10 11  1  0
  7 12  1  0
 11 12  1  0
 13 14  2  0
 14 15  1  0
 15 16  2  0
 16 17  1  0
  4 18  1  0
 13 18  1  0
 17 18  2  0
 16 19  1  0
 19 20  2  0
 20 21  1  0
 17 22  1  0
 21 22  2  0
  6 24  1  0
 23 24  1  0
 24 25  2  0
 25 26  1  0
 21 27  1  0
 23 27  1  0
 26 27  2  0
M  END
