x0830-x0104
     RDKit          3D

 26 28  0  0  0  0  0  0  0  0999 V2000
    9.0540    6.5240   22.6500 C   0  0  0  0  0  0  0  0  0  0  0  0
   10.2970    6.1220   23.3950 C   0  0  0  0  0  0  0  0  0  0  0  0
   10.4500    6.2480   24.6080 O   0  0  0  0  0  0  0  0  0  0  0  0
   11.2890    5.5870   22.6160 N   0  0  0  0  0  0  0  0  0  0  0  0
   12.4560    4.9410   23.2270 C   0  0  0  0  0  0  0  0  0  0  0  0
   12.6850    3.5700   22.6780 C   0  0  0  0  0  0  0  0  0  0  0  0
   13.6330   -2.0470   21.9530 F   0  0  0  0  0  0  0  0  0  0  0  0
    7.7540   -3.5780   19.5480 C   0  0  0  0  0  0  0  0  0  0  0  0
    5.5280   -3.1590   19.1270 O   0  0  0  0  0  0  0  0  0  0  0  0
    6.5430   -2.8740   19.8480 C   0  0  0  0  0  0  0  0  0  0  0  0
    9.4470   -1.6270   23.9930 C   0  0  0  0  0  0  0  0  0  0  0  0
   11.7370    2.4790   23.1370 C   0  0  0  0  0  0  0  0  0  0  0  0
   10.5360    2.6570   23.7440 C   0  0  0  0  0  0  0  0  0  0  0  0
    9.8910    1.4900   24.0090 N   0  0  0  0  0  0  0  0  0  0  0  0
   10.7300    0.4580   23.5360 C   0  0  0  0  0  0  0  0  0  0  0  0
   11.8680    1.0480   23.0220 C   0  0  0  0  0  0  0  0  0  0  0  0
   10.5290   -0.9520   23.5350 C   0  0  0  0  0  0  0  0  0  0  0  0
   11.5160   -1.7250   23.0040 C   0  0  0  0  0  0  0  0  0  0  0  0
   12.7450   -1.2420   22.4510 C   0  0  0  0  0  0  0  0  0  0  0  0
   12.8660    0.2040   22.5050 C   0  0  0  0  0  0  0  0  0  0  0  0
    6.6260   -2.0200   20.9240 N   0  0  0  0  0  0  0  0  0  0  0  0
    6.3930   -2.6410   22.2450 C   0  0  0  0  0  0  0  0  0  0  0  0
    7.5720   -2.8850   22.9680 C   0  0  0  0  0  0  0  0  0  0  0  0
    8.3690   -1.6550   23.0040 N   0  0  0  0  0  0  0  0  0  0  0  0
    8.7400   -1.3170   21.7520 C   0  0  0  0  0  0  0  0  0  0  0  0
    7.6180   -1.0720   20.9790 C   0  0  0  0  0  0  0  0  0  0  0  0
  1  2  1  0
  2  3  2  0
  2  4  1  0
  4  5  1  0
  5  6  1  0
  8 10  1  0
  9 10  2  0
  6 12  1  0
 12 13  2  0
 13 14  1  0
 14 15  1  0
 12 16  1  0
 15 16  2  0
 11 17  1  0
 15 17  1  0
 17 18  2  0
  7 19  1  0
 18 19  1  0
 16 20  1  0
 19 20  2  0
 10 21  1  0
 21 22  1  0
 22 23  1  0
 11 24  1  0
 23 24  1  0
 24 25  1  0
 21 26  1  0
 25 26  1  0
M  END
