x0831-x2779
     RDKit          3D

 18 19  0  0  0  0  0  0  0  0999 V2000
   12.5250   -2.0960   22.2780 C   0  0  0  0  0  0  0  0  0  0  0  0
    5.3610   -4.2370   19.7680 O   0  0  0  0  0  0  0  0  0  0  0  0
    9.8600   -2.2310   23.5190 C   0  0  0  0  0  0  0  0  0  0  0  0
    6.2880   -3.4080   19.9740 C   0  0  0  0  0  0  0  0  0  0  0  0
    7.2210   -3.0150   18.8860 C   0  0  0  0  0  0  0  0  0  0  0  0
   12.0140   -0.8240   22.9470 C   0  0  0  0  0  0  0  0  0  0  0  0
   10.6180   -0.9720   23.5780 C   0  0  0  0  0  0  0  0  0  0  0  0
   10.1680    0.2870   24.2100 C   0  0  0  0  0  0  0  0  0  0  0  0
   11.0650    1.2930   24.0870 C   0  0  0  0  0  0  0  0  0  0  0  0
   12.2990    1.3470   23.5000 C   0  0  0  0  0  0  0  0  0  0  0  0
   13.0100    0.3140   22.8320 C   0  0  0  0  0  0  0  0  0  0  0  0
    6.4540   -2.8800   21.2800 N   0  0  0  0  0  0  0  0  0  0  0  0
    6.2960   -1.4370   21.5100 C   0  0  0  0  0  0  0  0  0  0  0  0
    7.5050   -0.7760   21.2090 C   0  0  0  0  0  0  0  0  0  0  0  0
    8.5580   -1.6030   21.6040 C   0  0  0  0  0  0  0  0  0  0  0  0
    8.5860   -1.9910   23.0180 N   0  0  0  0  0  0  0  0  0  0  0  0
    7.5770   -2.9690   23.4500 C   0  0  0  0  0  0  0  0  0  0  0  0
    6.9210   -3.7380   22.3730 C   0  0  0  0  0  0  0  0  0  0  0  0
  2  4  2  0
  4  5  1  0
  1  6  1  0
  3  7  1  0
  6  7  2  0
  7  8  1  0
  8  9  2  0
  9 10  1  0
  6 11  1  0
 10 11  2  0
  4 12  1  0
 12 13  1  0
 13 14  1  0
 14 15  1  0
  3 16  1  0
 15 16  1  0
 16 17  1  0
 12 18  1  0
 17 18  1  0
M  END
