x0830-x0991
     RDKit          3D

 24 26  0  0  0  0  0  0  0  0999 V2000
    7.7650   -3.5310   19.5270 C   0  0  0  0  0  0  0  0  0  0  0  0
    5.5370   -3.1300   19.0980 O   0  0  0  0  0  0  0  0  0  0  0  0
    6.5500   -2.8200   19.8130 C   0  0  0  0  0  0  0  0  0  0  0  0
    9.5880   -2.3420   24.0400 C   0  0  2  0  0  0  0  0  0  0  0  0
    9.7210   -5.8240   25.7860 N   0  0  0  0  0  0  0  0  0  0  0  0
    9.7810   -3.8110   24.1120 C   0  0  0  0  0  0  0  0  0  0  0  0
    8.1460   -4.1540   25.9910 N   0  0  0  0  0  0  0  0  0  0  0  0
    9.2430   -4.5910   25.2680 C   0  0  0  0  0  0  0  0  0  0  0  0
    6.5980   -1.9500   20.8860 N   0  0  0  0  0  0  0  0  0  0  0  0
    6.3120   -2.5980   22.1420 C   0  0  0  0  0  0  0  0  0  0  0  0
    7.4450   -3.0750   23.0360 C   0  0  0  0  0  0  0  0  0  0  0  0
    8.4840   -2.0630   23.0900 N   0  0  0  0  0  0  0  0  0  0  0  0
    8.8210   -1.6350   21.7140 C   0  0  0  0  0  0  0  0  0  0  0  0
    7.7340   -1.0100   21.0800 C   0  0  0  0  0  0  0  0  0  0  0  0
   11.7960   -2.1230   23.0240 C   0  0  0  0  0  0  0  0  0  0  0  0
   12.8360   -1.3300   22.6450 C   0  0  0  0  0  0  0  0  0  0  0  0
   12.8990    0.0550   22.8220 C   0  0  0  0  0  0  0  0  0  0  0  0
   11.8020    0.6410   23.4330 C   0  0  0  0  0  0  0  0  0  0  0  0
   10.6280   -0.1410   23.8900 C   0  0  0  0  0  0  0  0  0  0  0  0
   10.6750   -1.5680   23.6480 C   0  0  0  0  0  0  0  0  0  0  0  0
   11.7840    1.9000   23.6090 C   0  0  0  0  0  0  0  0  0  0  0  0
   10.7130    2.5460   24.2120 C   0  0  0  0  0  0  0  0  0  0  0  0
    9.6160    1.8060   24.6550 C   0  0  0  0  0  0  0  0  0  0  0  0
    9.5380    0.4710   24.5130 C   0  0  0  0  0  0  0  0  0  0  0  0
  1  3  1  0
  2  3  2  0
  4  6  1  6
  5  8  2  3
  6  8  1  0
  7  8  1  0
  3  9  1  0
  9 10  1  0
 10 11  1  0
  4 12  1  0
 11 12  1  0
 12 13  1  0
  9 14  1  0
 13 14  1  0
 15 16  2  0
 16 17  1  0
 17 18  2  0
 18 19  1  0
  4 20  1  0
 15 20  1  0
 19 20  2  0
 18 21  1  0
 21 22  2  0
 22 23  1  0
 19 24  1  0
 23 24  2  0
M  END
