x0830-x1308
     RDKit          3D

 36 40  0  0  0  0  0  0  0  0999 V2000
    7.1680   -3.5390   19.8520 C   0  0  0  0  0  0  0  0  0  0  0  0
    5.4830   -5.1720   20.0390 O   0  0  0  0  0  0  0  0  0  0  0  0
    0.7600   -1.2540   26.3420 Cl  0  0  0  0  0  0  0  0  0  0  0  0
    6.4780   -4.6520   20.6020 C   0  0  0  0  0  0  0  0  0  0  0  0
    6.2870   -5.1710   27.0930 O   0  0  0  0  0  0  0  0  0  0  0  0
    4.6160   -6.9200   26.1420 O   0  0  0  0  0  0  0  0  0  0  0  0
    5.2200   -5.5470   26.1160 S   0  0  0  0  0  0  0  0  0  0  0  0
    9.7240   -2.4170   23.6520 C   0  0  0  0  0  0  0  0  0  0  0  0
    6.8850   -5.1560   21.8910 N   0  0  0  0  0  0  0  0  0  0  0  0
    7.3940   -4.2630   22.9860 C   0  0  2  0  0  0  0  0  0  0  0  0
    6.4230   -4.1490   24.1100 C   0  0  0  0  0  0  0  0  0  0  0  0
    5.8870   -5.4270   24.5810 N   0  0  0  0  0  0  0  0  0  0  0  0
    5.2060   -6.0880   23.4610 C   0  0  0  0  0  0  0  0  0  0  0  0
    6.1440   -6.3550   22.3000 C   0  0  0  0  0  0  0  0  0  0  0  0
    4.2930   -3.0510   26.4930 C   0  0  0  0  0  0  0  0  0  0  0  0
    3.3120   -2.1010   26.5460 C   0  0  0  0  0  0  0  0  0  0  0  0
    1.9980   -2.4410   26.2560 C   0  0  0  0  0  0  0  0  0  0  0  0
    1.7020   -3.7210   25.9060 C   0  0  0  0  0  0  0  0  0  0  0  0
    2.6900   -4.7320   25.8390 C   0  0  0  0  0  0  0  0  0  0  0  0
    4.0030   -4.3710   26.1480 C   0  0  0  0  0  0  0  0  0  0  0  0
    6.6970   -1.2660   20.9200 N   0  0  0  0  0  0  0  0  0  0  0  0
    6.3770   -2.2560   21.9320 C   0  0  0  0  0  0  0  0  0  0  0  0
    7.5910   -2.9470   22.3340 C   0  0  1  0  0  0  0  0  0  0  0  0
    8.5330   -1.9880   22.9100 N   0  0  0  0  0  0  0  0  0  0  0  0
    8.9170   -1.0830   21.8050 C   0  0  0  0  0  0  0  0  0  0  0  0
    7.8140   -0.3850   21.2720 C   0  0  0  0  0  0  0  0  0  0  0  0
   12.0860   -2.0020   22.7340 C   0  0  0  0  0  0  0  0  0  0  0  0
   13.0860   -1.1070   22.4800 C   0  0  0  0  0  0  0  0  0  0  0  0
   13.0110    0.2390   22.7850 C   0  0  0  0  0  0  0  0  0  0  0  0
   11.8550    0.6770   23.3770 C   0  0  0  0  0  0  0  0  0  0  0  0
   10.8140   -0.2070   23.6720 C   0  0  0  0  0  0  0  0  0  0  0  0
   10.9240   -1.5440   23.3410 C   0  0  0  0  0  0  0  0  0  0  0  0
   11.7170    2.0290   23.6760 C   0  0  0  0  0  0  0  0  0  0  0  0
   10.5630    2.5050   24.2730 C   0  0  0  0  0  0  0  0  0  0  0  0
    9.5550    1.6230   24.5840 C   0  0  0  0  0  0  0  0  0  0  0  0
    9.6500    0.2750   24.2970 C   0  0  0  0  0  0  0  0  0  0  0  0
  1  4  1  0
  2  4  2  0
  5  7  2  0
  6  7  2  0
  4  9  1  0
  9 10  1  0
 10 11  1  1
  7 12  1  0
 11 12  1  0
 12 13  1  0
  9 14  1  0
 13 14  1  0
 15 16  2  0
  3 17  1  0
 16 17  1  0
 17 18  2  0
 18 19  1  0
  7 20  1  0
 15 20  1  0
 19 20  2  0
 21 22  1  0
 10 23  1  0
 23 22  1  1
  8 24  1  0
 23 24  1  0
 24 25  1  0
 21 26  1  0
 25 26  1  0
 27 28  2  0
 28 29  1  0
 29 30  2  0
 30 31  1  0
  8 32  1  0
 27 32  1  0
 31 32  2  0
 30 33  1  0
 33 34  2  0
 34 35  1  0
 31 36  1  0
 35 36  2  0
M  END
