x0830-x2569
     RDKit          3D

 32 39  0  0  0  0  0  0  0  0999 V2000
    7.6860   -3.6500   19.5360 C   0  0  0  0  0  0  0  0  0  0  0  0
    5.4130   -3.3510   19.2900 O   0  0  0  0  0  0  0  0  0  0  0  0
    6.4600   -3.0380   19.9460 C   0  0  0  0  0  0  0  0  0  0  0  0
    9.7150   -2.4680   23.9580 C   0  0  0  0  0  0  0  0  0  0  0  0
    8.2950   -0.1320   22.0440 S   0  0  0  0  0  0  0  0  0  0  0  0
    9.4370    0.6940   21.7560 O   0  0  0  0  0  0  0  0  0  0  0  0
    7.8080   -1.3010   23.2370 C   0  0  2  0  0  0  0  0  0  0  0  0
    7.1210   -0.0350   20.8610 N   0  0  0  0  0  0  0  0  0  0  0  0
   14.1500   -1.4070   20.2940 N   0  0  0  0  0  0  0  0  0  0  0  0
   13.4870   -1.2150   21.4260 C   0  0  0  0  0  0  0  0  0  0  0  0
    6.6000   -2.2380   21.0440 N   0  0  0  0  0  0  0  0  0  0  0  0
    6.4370   -2.9220   22.2960 C   0  0  0  0  0  0  0  0  0  0  0  0
    7.4610   -2.8400   23.4350 C   0  0  0  0  0  0  0  0  0  0  0  0
    8.7420   -2.4700   22.9810 C   0  0  2  0  0  0  0  0  0  0  0  0
    8.8620   -1.6230   22.0710 C   0  0  2  0  0  0  0  0  0  0  0  0
    7.7550   -1.3870   21.1230 C   0  0  2  0  0  0  0  0  0  0  0  0
   11.6610   -1.8140   22.7510 C   0  0  0  0  0  0  0  0  0  0  0  0
   12.5270   -0.8710   22.3120 C   0  0  0  0  0  0  0  0  0  0  0  0
   12.4280    0.4490   22.6840 C   0  0  0  0  0  0  0  0  0  0  0  0
   11.3520    0.8770   23.5280 C   0  0  0  0  0  0  0  0  0  0  0  0
   10.4510   -0.1890   23.9640 C   0  0  0  0  0  0  0  0  0  0  0  0
   10.6340   -1.5070   23.5620 C   0  0  0  0  0  0  0  0  0  0  0  0
   11.1570    2.1280   23.8700 C   0  0  0  0  0  0  0  0  0  0  0  0
   10.0720    2.4680   24.6550 C   0  0  0  0  0  0  0  0  0  0  0  0
    9.2260    1.4960   25.0990 C   0  0  0  0  0  0  0  0  0  0  0  0
    9.3980    0.1680   24.7710 C   0  0  0  0  0  0  0  0  0  0  0  0
    6.1850    0.9030   17.5230 N   0  0  0  0  0  0  0  0  0  0  0  0
    6.8250    0.3540   18.5290 C   0  0  0  0  0  0  0  0  0  0  0  0
    6.4230    0.5510   19.8130 C   0  0  0  0  0  0  0  0  0  0  0  0
    5.3080    1.3380   20.0390 C   0  0  0  0  0  0  0  0  0  0  0  0
    4.6390    1.9140   18.9710 C   0  0  0  0  0  0  0  0  0  0  0  0
    5.1340    1.6650   17.6970 C   0  0  0  0  0  0  0  0  0  0  0  0
  1  3  1  0
  2  3  2  0
  5  6  2  0
  7  5  1  1
  5  8  1  0
  9 10  3  0
  3 11  1  0
 11 12  1  0
 12 13  1  0
 14  4  1  1
  7 14  1  0
 13 14  1  0
 15  5  1  6
  7 15  1  0
 14 15  1  0
  5 16  1  0
 16  8  1  6
 11 16  1  0
 15 16  1  0
 10 18  1  0
 17 18  2  0
 18 19  1  0
 19 20  2  0
 20 21  1  0
  4 22  1  0
 17 22  1  0
 21 22  2  0
 20 23  1  0
 23 24  2  0
 24 25  1  0
 21 26  1  0
 25 26  2  0
 27 28  2  0
  8 29  1  0
 28 29  1  0
 29 30  2  0
 30 31  1  0
 27 32  1  0
 31 32  2  0
M  END
