x0830
     RDKit          3D

 21 23  0  0  0  0  0  0  0  0999 V2000
    6.8840   -2.1970   20.7830 N   0  0  0  0  0  0  0  0  0  0  0  0
    8.3460   -3.0500   19.1200 C   0  0  0  0  0  0  0  0  0  0  0  0
    5.9850   -3.4070   19.0860 O   0  0  0  0  0  0  0  0  0  0  0  0
    6.9540   -2.9010   19.6420 C   0  0  0  0  0  0  0  0  0  0  0  0
    8.8050   -2.1300   22.9310 N   0  0  0  0  0  0  0  0  0  0  0  0
    7.8380   -1.0900   20.9160 C   0  0  0  0  0  0  0  0  0  0  0  0
    9.1040   -1.4820   21.6510 C   0  0  0  0  0  0  0  0  0  0  0  0
   10.0390   -2.4710   23.6480 C   0  0  0  0  0  0  0  0  0  0  0  0
   11.1220   -1.4380   23.4490 C   0  0  0  0  0  0  0  0  0  0  0  0
   12.1410   -1.6470   22.5550 C   0  0  0  0  0  0  0  0  0  0  0  0
   13.1440   -0.6870   22.3370 C   0  0  0  0  0  0  0  0  0  0  0  0
   13.1060    0.4960   22.9990 C   0  0  0  0  0  0  0  0  0  0  0  0
   12.0650    0.7780   23.9130 C   0  0  0  0  0  0  0  0  0  0  0  0
   12.0060    2.0090   24.6030 C   0  0  0  0  0  0  0  0  0  0  0  0
   10.9950    2.2730   25.4700 C   0  0  0  0  0  0  0  0  0  0  0  0
   10.0040    1.3150   25.7210 C   0  0  0  0  0  0  0  0  0  0  0  0
   10.0280    0.1170   25.0740 C   0  0  0  0  0  0  0  0  0  0  0  0
   11.0550   -0.1980   24.1450 C   0  0  0  0  0  0  0  0  0  0  0  0
    7.9860   -3.3160   22.6930 C   0  0  0  0  0  0  0  0  0  0  0  0
    6.6790   -2.9450   22.0260 C   0  0  0  0  0  0  0  0  0  0  0  0
    9.0420   -3.2730   17.4810 R   0  0  0  0  0  0  0  0  0  0  0  0
  1  4  1  0
  2  4  1  0
  3  4  2  0
  1  6  1  0
  5  7  1  0
  6  7  1  0
  5  8  1  0
  8  9  1  0
  9 10  2  0
 10 11  1  0
 11 12  2  0
 12 13  1  0
 13 14  1  0
 14 15  2  0
 15 16  1  0
 16 17  2  0
  9 18  1  0
 13 18  2  0
 17 18  1  0
  5 19  1  0
  1 20  1  0
 19 20  1  0
  2 21  1  0
M  END
