x0874-x0678
     RDKit          3D

 20 23  0  0  0  0  0  0  0  0999 V2000
    9.6130   -0.2040   21.1010 O   0  0  0  0  0  0  0  0  0  0  0  0
    8.6440   -0.2890   21.7750 C   0  0  2  0  0  0  0  0  0  0  0  0
    8.9630   -0.9450   23.0080 C   0  0  1  0  0  0  0  0  0  0  0  0
    7.3590   -0.7830   21.2100 N   0  0  0  0  0  0  0  0  0  0  0  0
    8.5730    0.5800   22.9560 N   0  0  0  0  0  0  0  0  0  0  0  0
   11.0600    0.2860   22.9840 C   0  0  1  0  0  0  0  0  0  0  0  0
   12.5540    0.1880   23.0210 C   0  0  0  0  0  0  0  0  0  0  0  0
   12.9790   -1.1880   23.3030 C   0  0  0  0  0  0  0  0  0  0  0  0
   12.3940   -1.3180   24.6920 C   0  0  0  0  0  0  0  0  0  0  0  0
   10.8830   -1.4350   24.7320 C   0  0  0  0  0  0  0  0  0  0  0  0
   10.2650   -0.6640   23.7540 C   0  0  2  0  0  0  0  0  0  0  0  0
    5.5680    0.7100   20.4220 C   0  0  0  0  0  0  0  0  0  0  0  0
    4.9510    1.3570   19.3470 C   0  0  0  0  0  0  0  0  0  0  0  0
    5.4710    1.1630   18.1180 C   0  0  0  0  0  0  0  0  0  0  0  0
    6.5310    0.3990   17.8430 N   0  0  0  0  0  0  0  0  0  0  0  0
    7.1190   -0.2250   18.8700 C   0  0  0  0  0  0  0  0  0  0  0  0
    6.6910   -0.1070   20.1740 C   0  0  0  0  0  0  0  0  0  0  0  0
   10.4140    1.6430   23.4380 C   0  0  0  0  0  0  0  0  0  0  0  0
    9.1160    1.3050   24.0510 C   0  0  0  0  0  0  0  0  0  0  0  0
    8.9540   -0.0450   24.1940 C   0  0  1  0  0  0  0  0  0  0  0  0
  2  1  1  0
  3  2  1  6
  2  4  1  0
  2  5  1  1
  6  7  1  1
  7  8  1  0
  8  9  1  0
  9 10  1  0
  3 11  1  0
  6 11  1  0
 11 10  1  1
 12 13  2  0
 13 14  1  0
 14 15  2  0
 15 16  1  0
  4 17  1  0
 12 17  1  0
 16 17  2  0
  6 18  1  0
 18 19  1  0
  3 20  1  0
 11 20  1  0
 20 19  1  6
M  END
