x0887-x1308
     RDKit          3D

 19 20  0  0  0  0  0  0  0  0999 V2000
    7.3650   -2.9680   20.6580 C   0  0  0  0  0  0  0  0  0  0  0  0
    5.6120   -4.4790   19.9350 O   0  0  0  0  0  0  0  0  0  0  0  0
    0.8100   -1.1970   26.4500 Cl  0  0  0  0  0  0  0  0  0  0  0  0
    6.4530   -4.1670   20.7930 C   0  0  0  0  0  0  0  0  0  0  0  0
    6.2200   -5.1150   27.0340 O   0  0  0  0  0  0  0  0  0  0  0  0
    4.6430   -6.8260   26.0990 O   0  0  0  0  0  0  0  0  0  0  0  0
    5.2420   -5.5130   26.0470 S   0  0  0  0  0  0  0  0  0  0  0  0
    6.6580   -4.9160   22.0090 N   0  0  0  0  0  0  0  0  0  0  0  0
    7.3730   -4.2780   23.1150 C   0  0  0  0  0  0  0  0  0  0  0  0
    6.4070   -4.0580   24.2600 C   0  0  0  0  0  0  0  0  0  0  0  0
    5.8420   -5.3090   24.5070 N   0  0  0  0  0  0  0  0  0  0  0  0
    5.0670   -5.8140   23.4720 C   0  0  0  0  0  0  0  0  0  0  0  0
    5.8670   -6.1020   22.3390 C   0  0  0  0  0  0  0  0  0  0  0  0
    4.2100   -2.9880   26.5130 C   0  0  0  0  0  0  0  0  0  0  0  0
    3.3310   -2.1790   26.5810 C   0  0  0  0  0  0  0  0  0  0  0  0
    1.9930   -2.4350   26.3010 C   0  0  0  0  0  0  0  0  0  0  0  0
    1.6360   -3.7280   25.9000 C   0  0  0  0  0  0  0  0  0  0  0  0
    2.6440   -4.6930   25.8130 C   0  0  0  0  0  0  0  0  0  0  0  0
    3.9460   -4.3100   26.1300 C   0  0  0  0  0  0  0  0  0  0  0  0
  1  4  1  0
  2  4  2  0
  5  7  2  0
  6  7  2  0
  4  8  1  0
  8  9  1  0
  9 10  1  0
  7 11  1  0
 10 11  1  0
 11 12  1  0
  8 13  1  0
 12 13  1  0
 14 15  2  0
  3 16  1  0
 15 16  1  0
 16 17  2  0
 17 18  1  0
  7 19  1  0
 14 19  1  0
 18 19  2  0
M  END
