x0946-x1374
     RDKit          3D

 18 19  0  0  0  0  0  0  0  0999 V2000
   10.7950   -4.1720   25.8300 C   0  0  0  0  0  0  0  0  0  0  0  0
    6.2560   -4.5300   22.3070 N   0  0  0  0  0  0  0  0  0  0  0  0
    6.0460   -4.0230   21.0130 C   0  0  0  0  0  0  0  0  0  0  0  0
    5.5340   -4.7010   20.0980 O   0  0  0  0  0  0  0  0  0  0  0  0
    6.4490   -2.5930   20.7330 C   0  0  0  0  0  0  0  0  0  0  0  0
    2.5180   -7.5830   22.9250 O   0  0  0  0  0  0  0  0  0  0  0  0
    4.1230   -7.6980   24.9820 O   0  0  0  0  0  0  0  0  0  0  0  0
    9.6630   -4.1860   24.8810 C   0  0  0  0  0  0  0  0  0  0  0  0
    9.3100   -2.9810   23.9880 C   0  0  0  0  0  0  0  0  0  0  0  0
    8.2230   -3.0700   23.1370 C   0  0  0  0  0  0  0  0  0  0  0  0
    7.4260   -4.3590   23.1250 C   0  0  0  0  0  0  0  0  0  0  0  0
    7.8000   -5.4180   23.9440 C   0  0  0  0  0  0  0  0  0  0  0  0
    8.8890   -5.3380   24.8060 C   0  0  0  0  0  0  0  0  0  0  0  0
    4.2080   -4.4720   23.6250 C   0  0  0  0  0  0  0  0  0  0  0  0
    5.2240   -5.2240   23.0660 C   0  0  1  0  0  0  0  0  0  0  0  0
    4.9660   -6.5070   22.6640 C   0  0  0  0  0  0  0  0  0  0  0  0
    3.6130   -6.8090   23.7620 S   0  0  0  0  0  0  0  0  0  0  0  0
    3.2030   -5.2160   24.1060 C   0  0  0  0  0  0  0  0  0  0  0  0
  2  3  1  0
  3  4  2  0
  3  5  1  0
  1  8  1  0
  8  9  2  0
  9 10  1  0
  2 11  1  0
 10 11  2  0
 11 12  1  0
  8 13  1  0
 12 13  2  0
 15  2  1  6
 14 15  1  0
 15 16  1  0
 17  6  1  0
  7 17  1  0
 16 17  1  0
 14 18  2  0
 17 18  1  0
M  END
