x0946-x2052
     RDKit          3D

 35 37  0  0  0  0  0  0  0  0999 V2000
    5.7830   -1.5820   24.9590 C   0  0  0  0  0  0  0  0  0  0  0  0
    4.5710   -1.5030   25.1110 O   0  0  0  0  0  0  0  0  0  0  0  0
    6.7450   -1.0220   25.9570 N   0  0  0  0  0  0  0  0  0  0  0  0
    5.5210   -4.6090   19.9740 O   0  0  0  0  0  0  0  0  0  0  0  0
    5.4030    2.1920   30.4330 O   0  0  0  0  0  0  0  0  0  0  0  0
    6.3910   -3.7510   20.2960 C   0  0  0  0  0  0  0  0  0  0  0  0
    7.1730   -3.1010   19.2160 C   0  0  0  0  0  0  0  0  0  0  0  0
    6.1170    3.1890   30.5930 C   0  0  0  0  0  0  0  0  0  0  0  0
    9.0100    5.3240   22.7200 N   0  0  0  0  0  0  0  0  0  0  0  0
   10.0560    5.6780   25.0680 O   0  0  0  0  0  0  0  0  0  0  0  0
   11.4860    6.3130   23.1890 O   0  0  0  0  0  0  0  0  0  0  0  0
   13.1560   -0.5670   23.0090 Se  0  0  0  0  0  2  0  0  0  0  0  0
   10.4570    5.3160   23.6600 S   0  0  0  0  0  0  0  0  0  0  0  0
    8.2510   -1.5820   22.2840 C   0  0  0  0  0  0  0  0  0  0  0  0
    9.7420   -1.5760   21.9200 C   0  0  0  0  0  0  0  0  0  0  0  0
   10.7890   -1.7850   22.9940 C   0  0  0  0  0  0  0  0  0  0  0  0
   12.0040   -1.9490   22.3460 C   0  0  0  0  0  0  0  0  0  0  0  0
    6.6290   -3.4310   21.6710 N   0  0  0  0  0  0  0  0  0  0  0  0
    7.8760   -2.8320   22.1660 C   0  0  2  0  0  0  0  0  0  0  0  0
    7.5040   -1.9890   23.2250 C   0  0  0  0  0  0  0  0  0  0  0  0
    6.2740   -2.2700   23.7170 C   0  0  1  0  0  0  0  0  0  0  0  0
    5.9410   -3.6370   23.7560 C   0  0  0  0  0  0  0  0  0  0  0  0
    6.2440   -4.3690   22.5970 C   0  0  0  0  0  0  0  0  0  0  0  0
    6.2730    1.9030   28.2790 N   0  0  0  0  0  0  0  0  0  0  0  0
    6.5810    1.1100   27.2230 C   0  0  0  0  0  0  0  0  0  0  0  0
    6.3360   -0.3210   27.1910 C   0  0  0  0  0  0  0  0  0  0  0  0
    5.7490   -0.8660   28.3160 C   0  0  0  0  0  0  0  0  0  0  0  0
    5.4230   -0.0500   29.4170 C   0  0  0  0  0  0  0  0  0  0  0  0
    5.6890    1.3430   29.3970 C   0  0  0  0  0  0  0  0  0  0  0  0
   12.2510    1.1000   23.2360 C   0  0  0  0  0  0  0  0  0  0  0  0
   12.9210    2.2430   22.8690 C   0  0  0  0  0  0  0  0  0  0  0  0
   12.3130    3.4490   23.0200 C   0  0  0  0  0  0  0  0  0  0  0  0
   11.0540    3.6510   23.5270 C   0  0  0  0  0  0  0  0  0  0  0  0
   10.3280    2.5220   23.9140 C   0  0  0  0  0  0  0  0  0  0  0  0
   10.8360    1.2140   23.8070 C   0  0  0  0  0  0  0  0  0  0  0  0
  1  2  2  0
  1  3  1  0
  4  6  2  0
  6  7  1  0
  5  8  1  0
 13  9  1  0
 10 13  2  0
 11 13  2  0
 14 15  1  0
 15 16  1  0
 12 17  1  0
 16 17  1  0
  6 18  1  0
 19 14  1  6
 18 19  1  0
 19 20  1  0
 21  1  1  1
 20 21  1  0
 21 22  1  0
 18 23  1  0
 22 23  1  0
 24 25  2  0
  3 26  1  0
 25 26  1  0
 26 27  2  0
 27 28  1  0
  5 29  1  0
 24 29  1  0
 28 29  2  0
 12 30  1  0
 30 31  2  0
 31 32  1  0
 13 33  1  0
 32 33  2  0
 33 34  1  0
 30 35  1  0
 34 35  2  0
M  END
