x0946-x1402
     RDKit          3D

 34 36  0  0  0  0  0  0  0  0999 V2000
    8.0470   -3.9140   20.5550 C   0  0  0  0  0  0  0  0  0  0  0  0
    5.6980   -4.2870   19.8790 O   0  0  0  0  0  0  0  0  0  0  0  0
    0.8490   -1.1710   26.2870 Cl  0  0  0  0  0  0  0  0  0  0  0  0
    6.6590   -4.4700   20.6920 C   0  0  0  0  0  0  0  0  0  0  0  0
    4.0590   -6.6850   25.8700 O   0  0  0  0  0  0  0  0  0  0  0  0
    6.0310   -5.5040   26.9310 O   0  0  0  0  0  0  0  0  0  0  0  0
    4.9810   -5.5730   25.9040 S   0  0  0  0  0  0  0  0  0  0  0  0
    9.0650    5.5390   22.7840 N   0  0  0  0  0  0  0  0  0  0  0  0
   10.0750    5.7120   25.1130 O   0  0  0  0  0  0  0  0  0  0  0  0
   11.4660    6.4840   23.3330 O   0  0  0  0  0  0  0  0  0  0  0  0
   13.0240   -0.3670   22.8340 Se  0  0  0  0  0  2  0  0  0  0  0  0
   10.4550    5.4310   23.7540 S   0  0  0  0  0  0  0  0  0  0  0  0
    8.0950   -2.5200   21.0580 C   0  0  0  0  0  0  0  0  0  0  0  0
    9.0860   -2.3020   22.1680 C   0  0  0  0  0  0  0  0  0  0  0  0
   10.5130   -2.1780   21.7660 C   0  0  0  0  0  0  0  0  0  0  0  0
   11.4020   -2.6200   22.9300 C   0  0  0  0  0  0  0  0  0  0  0  0
   11.7970   -1.4580   23.7820 C   0  0  0  0  0  0  0  0  0  0  0  0
    6.5140   -5.2600   21.8410 N   0  0  0  0  0  0  0  0  0  0  0  0
    7.2390   -4.9380   23.0180 C   0  0  0  0  0  0  0  0  0  0  0  0
    6.5350   -4.3630   24.0530 C   0  0  0  0  0  0  0  0  0  0  0  0
    5.6510   -5.4550   24.3280 N   0  0  0  0  0  0  0  0  0  0  0  0
    4.8780   -5.9080   23.3090 C   0  0  0  0  0  0  0  0  0  0  0  0
    5.4190   -5.9670   22.0750 C   0  0  0  0  0  0  0  0  0  0  0  0
    2.3680   -3.8790   26.0940 S   0  0  0  0  0  0  0  0  0  0  0  0
    4.0530   -4.0730   25.9690 C   0  0  0  0  0  0  0  0  0  0  0  0
    4.5400   -2.7690   25.9430 C   0  0  0  0  0  0  0  0  0  0  0  0
    3.5860   -1.6610   26.0310 C   0  0  0  0  0  0  0  0  0  0  0  0
    2.2210   -2.1860   26.1390 C   0  0  0  0  0  0  0  0  0  0  0  0
   12.2770    1.3460   23.0970 C   0  0  0  0  0  0  0  0  0  0  0  0
   12.9650    2.5030   22.7750 C   0  0  0  0  0  0  0  0  0  0  0  0
   12.3550    3.7200   22.9940 C   0  0  0  0  0  0  0  0  0  0  0  0
   11.1130    3.8400   23.5160 C   0  0  0  0  0  0  0  0  0  0  0  0
   10.4090    2.6940   23.8470 C   0  0  0  0  0  0  0  0  0  0  0  0
   10.9810    1.4550   23.6400 C   0  0  0  0  0  0  0  0  0  0  0  0
  1  4  1  0
  2  4  2  0
  5  7  2  0
  6  7  2  0
 12  8  1  0
  9 12  2  0
 10 12  2  0
  1 13  1  0
 13 14  1  0
 14 15  1  0
 15 16  1  0
 11 17  1  0
 16 17  1  0
  4 18  1  0
 18 19  1  0
 19 20  1  0
  7 21  1  0
 20 21  1  0
 21 22  1  0
 18 23  1  0
 22 23  1  0
  7 25  1  0
 24 25  1  0
 25 26  2  0
 26 27  1  0
  3 28  1  0
 24 28  1  0
 27 28  2  0
 11 29  1  0
 29 30  2  0
 30 31  1  0
 12 32  1  0
 31 32  2  0
 32 33  1  0
 29 34  1  0
 33 34  2  0
M  END
