x0946-x2600
     RDKit          3D

 27 29  0  0  0  0  0  0  0  0999 V2000
   13.4160   -3.1760   20.8330 N   0  0  0  0  0  0  0  0  0  0  0  0
    8.4630    0.5230   21.6620 C   0  0  0  0  0  0  0  0  0  0  0  0
    8.9870    1.7170   21.1080 O   0  0  0  0  0  0  0  0  0  0  0  0
    9.0760   -0.0490   22.9160 C   0  0  0  0  0  0  0  0  0  0  0  0
    7.3360   -0.2490   21.1490 N   0  0  0  0  0  0  0  0  0  0  0  0
   13.1060   -2.1680   21.5720 C   0  0  0  0  0  0  0  0  0  0  0  0
    8.9580    5.1130   22.6630 N   0  0  0  0  0  0  0  0  0  0  0  0
    9.2260    4.9540   25.1170 O   0  0  0  0  0  0  0  0  0  0  0  0
   11.1240    5.9670   23.7930 O   0  0  0  0  0  0  0  0  0  0  0  0
   10.0580    4.9370   23.9310 S   0  0  0  0  0  0  0  0  0  0  0  0
    6.2250    0.5570   17.6820 N   0  0  0  0  0  0  0  0  0  0  0  0
    6.9110    0.0390   18.7010 C   0  0  0  0  0  0  0  0  0  0  0  0
    6.6260    0.2460   20.0910 C   0  0  0  0  0  0  0  0  0  0  0  0
    5.4300    1.1170   20.3840 C   0  0  0  0  0  0  0  0  0  0  0  0
    4.7100    1.6630   19.1580 C   0  0  0  0  0  0  0  0  0  0  0  0
    5.1350    1.3700   17.8400 C   0  0  0  0  0  0  0  0  0  0  0  0
   11.4080    0.7870   23.6100 C   0  0  2  0  0  0  0  0  0  0  0  0
   12.1300   -0.0720   24.4620 C   0  0  0  0  0  0  0  0  0  0  0  0
   12.8370   -1.0100   23.7340 C   0  0  0  0  0  0  0  0  0  0  0  0
   12.6930   -0.9880   22.3240 C   0  0  2  0  0  0  0  0  0  0  0  0
   11.3320   -1.0560   22.1620 C   0  0  0  0  0  0  0  0  0  0  0  0
   10.5870   -0.0740   22.8970 C   0  0  0  0  0  0  0  0  0  0  0  0
   12.7180    1.2490   23.1470 C   0  0  0  0  0  0  0  0  0  0  0  0
   12.8730    2.5480   22.7450 C   0  0  0  0  0  0  0  0  0  0  0  0
   11.9270    3.5070   22.6670 C   0  0  0  0  0  0  0  0  0  0  0  0
   10.8950    3.3850   23.5600 C   0  0  0  0  0  0  0  0  0  0  0  0
   10.6150    2.0730   24.0690 C   0  0  0  0  0  0  0  0  0  0  0  0
  2  3  2  0
  2  4  1  0
  2  5  1  0
  1  6  3  0
 10  7  1  0
  8 10  2  0
  9 10  2  0
 11 12  2  0
  5 13  1  0
 12 13  1  0
 13 14  2  0
 14 15  1  0
 11 16  1  0
 15 16  2  0
 17 18  1  1
 18 19  2  0
 20  6  1  6
 19 20  1  0
 20 21  1  0
  4 22  1  0
 17 22  1  0
 21 22  2  0
 17 23  1  0
 23 24  2  0
 24 25  1  0
 10 26  1  0
 25 26  1  0
 17 27  1  0
 26 27  2  0
M  END
