x0946-x3110
     RDKit          3D

 38 40  0  0  0  0  0  0  0  0999 V2000
    7.9560    1.0130   23.4340 N   0  0  0  0  0  0  0  0  0  0  0  0
   13.3230    5.2430   21.6210 C   0  0  0  0  0  0  0  0  0  0  0  0
   13.2000    4.7030   23.0210 C   0  0  0  0  0  0  0  0  0  0  0  0
    6.9970   -1.7000   21.6400 N   0  0  0  0  0  0  0  0  0  0  0  0
   10.4370    5.0140   23.7580 C   0  0  0  0  0  0  0  0  0  0  0  0
    8.4290    1.3250   20.9110 O   0  0  0  0  0  0  0  0  0  0  0  0
    4.8040   -2.9820   21.2080 O   0  0  0  0  0  0  0  0  0  0  0  0
    8.6340    2.2590   23.9180 C   0  0  0  0  0  0  0  0  0  0  0  0
    7.7400    0.7020   22.0100 C   0  0  0  0  0  0  0  0  0  0  0  0
    6.6260   -0.3500   21.5930 C   0  0  1  0  0  0  0  0  0  0  0  0
    6.0970   -2.8660   21.3210 C   0  0  0  0  0  0  0  0  0  0  0  0
    6.7380   -4.2080   21.0860 C   0  0  0  0  0  0  0  0  0  0  0  0
    8.2060   -4.2310   20.8570 C   0  0  0  0  0  0  0  0  0  0  0  0
   12.3210   -1.8220   24.1060 C   0  0  0  0  0  0  0  0  0  0  0  0
   12.4650   -0.7160   24.8690 C   0  0  0  0  0  0  0  0  0  0  0  0
   13.3810   -1.7820   23.0070 C   0  0  0  0  0  0  0  0  0  0  0  0
   12.7090   -3.0210   24.9680 C   0  0  0  0  0  0  0  0  0  0  0  0
    8.9900    5.0960   23.7550 N   0  0  0  0  0  0  0  0  0  0  0  0
   10.8720    5.9520   22.8620 O   0  0  0  0  0  0  0  0  0  0  0  0
   11.0030    5.6640   24.8780 O   0  0  0  0  0  0  0  0  0  0  0  0
    6.3670    0.3890   17.7830 N   0  0  0  0  0  0  0  0  0  0  0  0
    5.2840    1.1690   17.8300 C   0  0  0  0  0  0  0  0  0  0  0  0
    4.5790    1.4830   19.0620 C   0  0  0  0  0  0  0  0  0  0  0  0
    5.0420    0.9620   20.2640 C   0  0  0  0  0  0  0  0  0  0  0  0
    6.1820    0.1390   20.2730 C   0  0  0  0  0  0  0  0  0  0  0  0
    6.8320   -0.1500   19.0680 C   0  0  0  0  0  0  0  0  0  0  0  0
    9.4540   -1.3410   21.6680 C   0  0  0  0  0  0  0  0  0  0  0  0
   10.7280   -1.3650   22.2360 C   0  0  0  0  0  0  0  0  0  0  0  0
   10.9000   -1.8480   23.5060 C   0  0  0  0  0  0  0  0  0  0  0  0
    9.7970   -2.3230   24.1900 C   0  0  0  0  0  0  0  0  0  0  0  0
    8.5170   -2.3040   23.6210 C   0  0  0  0  0  0  0  0  0  0  0  0
    8.3250   -1.7990   22.3330 C   0  0  0  0  0  0  0  0  0  0  0  0
   12.2120    1.0610   22.9160 C   0  0  0  0  0  0  0  0  0  0  0  0
   12.8920    2.2640   22.8550 C   0  0  0  0  0  0  0  0  0  0  0  0
   12.3000    3.4930   23.1240 C   0  0  0  0  0  0  0  0  0  0  0  0
   10.9730    3.6000   23.4750 C   0  0  0  0  0  0  0  0  0  0  0  0
   10.1170    2.3350   23.5650 C   0  0  0  0  0  0  0  0  0  0  0  0
   10.8780    1.0510   23.2540 C   0  0  0  0  0  0  0  0  0  0  0  0
  2  3  1  0
  1  8  1  0
  1  9  1  0
  6  9  2  0
  4 10  1  0
 10  9  1  6
  4 11  1  0
  7 11  2  0
 11 12  1  0
 12 13  1  0
 14 15  1  0
 14 16  1  0
 14 17  1  0
  5 18  1  0
  5 19  1  0
  5 20  1  0
 21 22  2  0
 22 23  1  0
 23 24  2  0
 10 25  1  0
 24 25  1  0
 21 26  1  0
 25 26  2  0
 27 28  2  0
 14 29  1  0
 28 29  1  0
 29 30  2  0
 30 31  1  0
  4 32  1  0
 27 32  1  0
 31 32  2  0
 33 34  2  0
  3 35  1  0
 34 35  1  0
  5 36  1  0
 35 36  2  0
  8 37  1  0
 36 37  1  0
 33 38  1  0
 37 38  2  0
M  END
