x0946-x1093
     RDKit          3D

 27 30  0  0  0  0  0  0  0  0999 V2000
   13.0920   -1.4290   23.7900 C   0  0  0  0  0  0  0  0  0  0  0  0
    8.7310    1.3340   21.1590 O   0  0  0  0  0  0  0  0  0  0  0  0
    8.7810    0.2220   21.7330 C   0  0  0  0  0  0  0  0  0  0  0  0
    7.9670   -0.9240   21.1450 C   0  0  0  0  0  0  0  0  0  0  0  0
    9.3170    5.0510   22.7070 N   0  0  0  0  0  0  0  0  0  0  0  0
   10.4090    5.1660   24.9560 O   0  0  0  0  0  0  0  0  0  0  0  0
   11.6900    5.9950   22.8980 O   0  0  0  0  0  0  0  0  0  0  0  0
   10.8070    5.0120   23.5660 S   0  0  0  0  0  0  0  0  0  0  0  0
   12.2920   -0.7880   22.7380 N   0  0  0  0  0  0  0  0  0  0  0  0
   11.9530    0.5730   22.8750 C   0  0  0  0  0  0  0  0  0  0  0  0
   10.5610    1.0260   22.9750 C   0  0  0  0  0  0  0  0  0  0  0  0
    9.5690    0.0120   22.8620 N   0  0  0  0  0  0  0  0  0  0  0  0
   10.1460   -1.1880   23.0760 C   0  0  0  0  0  0  0  0  0  0  0  0
   11.3360   -1.5990   22.2270 C   0  0  0  0  0  0  0  0  0  0  0  0
    6.3610    0.0620   17.9310 N   0  0  0  0  0  0  0  0  0  0  0  0
    7.2540   -0.5590   18.7330 C   0  0  0  0  0  0  0  0  0  0  0  0
    7.1080   -0.3830   20.0530 C   0  0  0  0  0  0  0  0  0  0  0  0
    5.9990    0.4090   20.1650 C   0  0  0  0  0  0  0  0  0  0  0  0
    5.5900    0.6680   18.8710 C   0  0  0  0  0  0  0  0  0  0  0  0
    4.5080    1.4660   18.6070 N   0  0  0  0  0  0  0  0  0  0  0  0
    3.7790    1.9720   19.5890 C   0  0  0  0  0  0  0  0  0  0  0  0
    4.0330    1.8040   20.9290 C   0  0  0  0  0  0  0  0  0  0  0  0
    5.1940    1.0020   21.3060 C   0  0  0  0  0  0  0  0  0  0  0  0
   12.9100    1.5940   22.9300 C   0  0  0  0  0  0  0  0  0  0  0  0
   12.5810    2.9530   23.1050 C   0  0  0  0  0  0  0  0  0  0  0  0
   11.2450    3.3670   23.2550 C   0  0  0  0  0  0  0  0  0  0  0  0
   10.2400    2.3870   23.1670 C   0  0  0  0  0  0  0  0  0  0  0  0
  2  3  2  0
  3  4  1  0
  8  5  1  0
  6  8  2  0
  7  8  2  0
  1  9  1  0
  9 10  1  0
 10 11  2  0
  3 12  1  0
 11 12  1  0
 12 13  1  0
  9 14  1  0
 13 14  1  0
 15 16  1  0
  4 17  1  0
 16 17  2  0
 17 18  1  0
 15 19  2  0
 18 19  1  0
 19 20  1  0
 20 21  1  0
 21 22  2  0
 18 23  2  0
 22 23  1  0
 10 24  1  0
 24 25  2  0
  8 26  1  0
 25 26  1  0
 11 27  1  0
 26 27  2  0
M  END
