x0946-x1412
     RDKit          3D

 31 34  0  0  0  0  0  0  0  0999 V2000
    7.2040   -3.0180   18.8420 C   0  0  0  0  0  0  0  0  0  0  0  0
    5.3560   -4.2180   19.7670 O   0  0  0  0  0  0  0  0  0  0  0  0
    6.3180   -3.4370   19.9610 C   0  0  0  0  0  0  0  0  0  0  0  0
    7.4480   -1.6610   25.2900 O   0  0  0  0  0  0  0  0  0  0  0  0
    8.0350   -2.6030   24.7940 C   0  0  2  0  0  0  0  0  0  0  0  0
    9.3240    4.7370   22.8240 N   0  0  0  0  0  0  0  0  0  0  0  0
    9.8910    5.5810   25.2220 O   0  0  0  0  0  0  0  0  0  0  0  0
   11.2690    6.5440   23.2870 O   0  0  0  0  0  0  0  0  0  0  0  0
   13.2240   -0.3320   22.6210 Se  0  0  0  0  0  2  0  0  0  0  0  0
   10.5060    5.3900   23.8920 S   0  0  0  0  0  0  0  0  0  0  0  0
    9.4210   -2.0540   24.1120 C   0  0  1  0  0  0  0  0  0  0  0  0
   10.6470   -2.7700   24.4880 C   0  0  0  0  0  0  0  0  0  0  0  0
   11.8080   -1.8220   24.2290 C   0  0  0  0  0  0  0  0  0  0  0  0
   12.2040   -1.9060   22.7810 C   0  0  0  0  0  0  0  0  0  0  0  0
    6.6340   -2.9520   21.2350 N   0  0  0  0  0  0  0  0  0  0  0  0
    7.4130   -1.7790   21.4060 C   0  0  0  0  0  0  0  0  0  0  0  0
    7.7760   -1.4310   22.6810 C   0  0  0  0  0  0  0  0  0  0  0  0
    8.2770   -2.5060   23.4120 C   0  0  0  0  0  0  0  0  0  0  0  0
    8.1770   -3.6610   22.7280 C   0  0  0  0  0  0  0  0  0  0  0  0
    6.9070   -3.9240   22.1810 C   0  0  0  0  0  0  0  0  0  0  0  0
    9.3700   -4.7960   25.6330 C   0  0  0  0  0  0  0  0  0  0  0  0
    8.3450   -3.7390   25.7320 C   0  0  0  0  0  0  0  0  0  0  0  0
    7.5670   -4.1370   27.2290 S   0  0  0  0  0  0  0  0  0  0  0  0
    8.5190   -5.4980   27.5850 C   0  0  0  0  0  0  0  0  0  0  0  0
    9.4400   -5.6680   26.5660 C   0  0  0  0  0  0  0  0  0  0  0  0
   12.3020    1.2690   23.0460 C   0  0  0  0  0  0  0  0  0  0  0  0
   12.9460    2.4770   22.7820 C   0  0  0  0  0  0  0  0  0  0  0  0
   12.3800    3.6700   23.0360 C   0  0  0  0  0  0  0  0  0  0  0  0
   11.1300    3.7960   23.5860 C   0  0  0  0  0  0  0  0  0  0  0  0
   10.4610    2.6080   23.8640 C   0  0  0  0  0  0  0  0  0  0  0  0
   11.0500    1.3710   23.5930 C   0  0  0  0  0  0  0  0  0  0  0  0
  1  3  1  0
  2  3  2  0
  5  4  1  1
 10  6  1  0
  7 10  2  0
  8 10  2  0
  5 11  1  0
 11 12  1  6
 12 13  1  0
  9 14  1  0
 13 14  1  0
  3 15  1  0
 15 16  1  0
 16 17  1  0
  5 18  1  0
 11 18  1  0
 18 17  1  0
 18 19  1  0
 15 20  1  0
 19 20  1  0
  5 22  1  0
 21 22  2  0
 22 23  1  0
 23 24  1  0
 21 25  1  0
 24 25  2  0
  9 26  1  0
 26 27  2  0
 27 28  1  0
 10 29  1  0
 28 29  2  0
 29 30  1  0
 26 31  1  0
 30 31  2  0
M  END
