x0946-x0689
     RDKit          3D

 33 35  0  0  0  0  0  0  0  0999 V2000
    7.3390   -3.3770   19.7590 C   0  0  0  0  0  0  0  0  0  0  0  0
    5.3040   -4.5990   19.9200 O   0  0  0  0  0  0  0  0  0  0  0  0
    6.3950   -4.3420   20.4610 C   0  0  0  0  0  0  0  0  0  0  0  0
    3.9690   -6.3780   25.7150 O   0  0  0  0  0  0  0  0  0  0  0  0
    5.7700   -4.8240   26.5100 O   0  0  0  0  0  0  0  0  0  0  0  0
    4.7420   -5.1720   25.5560 S   0  0  0  0  0  0  0  0  0  0  0  0
    8.9840    5.2500   22.6920 N   0  0  0  0  0  0  0  0  0  0  0  0
   10.1580    5.5780   25.0200 O   0  0  0  0  0  0  0  0  0  0  0  0
   11.4140    6.2850   23.0780 O   0  0  0  0  0  0  0  0  0  0  0  0
   13.1870   -0.5350   23.1190 Se  0  0  0  0  0  2  0  0  0  0  0  0
   10.4570    5.2430   23.5760 S   0  0  0  0  0  0  0  0  0  0  0  0
    7.7440   -2.2100   20.6260 C   0  0  0  0  0  0  0  0  0  0  0  0
    8.4940   -2.4020   21.9070 C   0  0  0  0  0  0  0  0  0  0  0  0
    9.9370   -2.7290   21.8840 C   0  0  0  0  0  0  0  0  0  0  0  0
   10.7710   -1.4780   22.0470 C   0  0  0  0  0  0  0  0  0  0  0  0
   12.2540   -1.7400   21.9560 C   0  0  0  0  0  0  0  0  0  0  0  0
    6.6670   -5.0270   21.6610 N   0  0  0  0  0  0  0  0  0  0  0  0
    5.7010   -6.0960   21.9520 C   0  0  0  0  0  0  0  0  0  0  0  0
    4.8160   -5.7220   22.9420 C   0  0  0  0  0  0  0  0  0  0  0  0
    5.5650   -5.3040   24.1060 N   0  0  0  0  0  0  0  0  0  0  0  0
    6.3760   -4.2340   23.8980 C   0  0  0  0  0  0  0  0  0  0  0  0
    7.2380   -4.5330   22.8800 C   0  0  0  0  0  0  0  0  0  0  0  0
    3.8870   -2.1650   25.9050 S   0  0  0  0  0  0  0  0  0  0  0  0
    3.6870   -3.8230   25.6010 C   0  0  0  0  0  0  0  0  0  0  0  0
    2.3410   -4.0070   25.3580 C   0  0  0  0  0  0  0  0  0  0  0  0
    1.4850   -2.8240   25.4230 C   0  0  0  0  0  0  0  0  0  0  0  0
    2.2690   -1.6160   25.7470 C   0  0  0  0  0  0  0  0  0  0  0  0
   12.3260    1.1520   23.2440 C   0  0  0  0  0  0  0  0  0  0  0  0
   12.9870    2.2740   22.7490 C   0  0  0  0  0  0  0  0  0  0  0  0
   12.3900    3.5410   22.8510 C   0  0  0  0  0  0  0  0  0  0  0  0
   11.1610    3.6530   23.4420 C   0  0  0  0  0  0  0  0  0  0  0  0
   10.5080    2.5280   23.9190 C   0  0  0  0  0  0  0  0  0  0  0  0
   11.0620    1.2670   23.8360 C   0  0  0  0  0  0  0  0  0  0  0  0
  1  3  1  0
  2  3  2  0
  4  6  2  0
  5  6  2  0
 11  7  1  0
  8 11  2  0
  9 11  2  0
  1 12  1  0
 12 13  1  0
 13 14  1  0
 14 15  1  0
 10 16  1  0
 15 16  1  0
  3 17  1  0
 17 18  1  0
 18 19  1  0
  6 20  1  0
 19 20  1  0
 20 21  1  0
 17 22  1  0
 21 22  1  0
  6 24  1  0
 23 24  1  0
 24 25  2  0
 25 26  1  0
 23 27  1  0
 26 27  2  0
 10 28  1  0
 28 29  2  0
 29 30  1  0
 11 31  1  0
 30 31  2  0
 31 32  1  0
 28 33  1  0
 32 33  2  0
M  END
