x0946-x0161
     RDKit          3D

 14 14  0  0  0  0  0  0  0  0999 V2000
   13.4030   -2.4780   24.3720 C   0  0  0  0  0  0  0  0  0  0  0  0
   12.9260   -1.1440   24.4920 O   0  0  0  0  0  0  0  0  0  0  0  0
   12.9300   -0.4840   23.4430 C   0  0  0  0  0  0  0  0  0  0  0  0
   13.4820   -0.8240   22.4030 O   0  0  0  0  0  0  0  0  0  0  0  0
   10.2210    5.2110   23.6100 S   0  0  0  0  0  0  0  0  0  0  0  0
   11.1570    6.2060   23.1300 O   0  0  0  0  0  0  0  0  0  0  0  0
    9.7390    5.5260   24.9400 O   0  0  0  0  0  0  0  0  0  0  0  0
    8.8330    5.1460   22.6070 N   0  0  0  0  0  0  0  0  0  0  0  0
   12.1980    0.8580   23.4920 C   0  0  0  0  0  0  0  0  0  0  0  0
   12.8970    2.0300   22.9780 C   0  0  0  0  0  0  0  0  0  0  0  0
   12.3430    3.3950   22.9700 C   0  0  0  0  0  0  0  0  0  0  0  0
   10.9360    3.5890   23.5490 C   0  0  0  0  0  0  0  0  0  0  0  0
   10.1990    2.3420   24.0740 C   0  0  0  0  0  0  0  0  0  0  0  0
   10.8120    1.0840   24.0360 C   0  0  0  0  0  0  0  0  0  0  0  0
  1  2  1  0
  2  3  1  0
  3  4  2  0
  5  6  2  0
  5  7  2  0
  5  8  1  0
  3  9  1  0
  9 10  2  0
 10 11  1  0
  5 12  1  0
 11 12  2  0
 12 13  1  0
  9 14  1  0
 13 14  2  0
M  END
