x0946-x2910
     RDKit          3D

 32 35  0  0  0  0  0  0  0  0999 V2000
    6.7990   -2.3940   21.4850 N   0  0  0  0  0  0  0  0  0  0  0  0
    9.5170    0.9940   23.2770 O   0  0  0  0  0  0  0  0  0  0  0  0
    9.4260   -0.6850   23.0470 O   0  0  0  0  0  0  0  0  0  0  0  0
    5.1260   -2.4350   20.5220 O   0  0  0  0  0  0  0  0  0  0  0  0
    6.3050    1.3150   16.8650 O   0  0  0  0  0  0  0  0  0  0  0  0
    8.9770   -1.8320   22.3250 C   0  0  0  0  0  0  0  0  0  0  0  0
    7.5000   -2.0280   22.6220 C   0  0  0  0  0  0  0  0  0  0  0  0
    6.0380   -1.6550   20.7520 C   0  0  0  0  0  0  0  0  0  0  0  0
    8.9300    5.1030   22.6800 N   0  0  0  0  0  0  0  0  0  0  0  0
    9.9380    4.9540   25.1250 O   0  0  0  0  0  0  0  0  0  0  0  0
   11.2280    5.9910   23.1490 O   0  0  0  0  0  0  0  0  0  0  0  0
   10.3400    4.9680   23.6700 S   0  0  0  0  0  0  0  0  0  0  0  0
   11.1030    1.0390   22.9800 C   0  0  0  0  0  0  0  0  0  0  0  0
   10.5810   -0.3840   22.8900 C   0  0  0  0  0  0  0  0  0  0  0  0
   11.6000   -1.5030   22.5750 C   0  0  0  0  0  0  0  0  0  0  0  0
   13.0360   -1.1800   22.3770 C   0  0  0  0  0  0  0  0  0  0  0  0
   13.3000    0.1600   22.4910 C   0  0  0  0  0  0  0  0  0  0  0  0
   12.4440    1.1660   22.7520 C   0  0  0  0  0  0  0  0  0  0  0  0
    4.7850    1.7500   18.4550 N   0  0  0  0  0  0  0  0  0  0  0  0
    4.1800    1.4600   19.6370 C   0  0  0  0  0  0  0  0  0  0  0  0
    4.5410    0.3800   20.4300 C   0  0  0  0  0  0  0  0  0  0  0  0
    5.5720   -0.4670   19.9930 C   0  0  0  0  0  0  0  0  0  0  0  0
    6.2050   -0.2100   18.8010 C   0  0  0  0  0  0  0  0  0  0  0  0
    5.7670    0.9500   18.0360 C   0  0  0  0  0  0  0  0  0  0  0  0
    3.1500    2.3650   19.9780 C   0  0  0  0  0  0  0  0  0  0  0  0
    2.5090    2.1200   21.1720 C   0  0  0  0  0  0  0  0  0  0  0  0
    2.8530    1.0600   21.9790 C   0  0  0  0  0  0  0  0  0  0  0  0
    3.8620    0.1580   21.6570 C   0  0  0  0  0  0  0  0  0  0  0  0
   13.0740    2.4710   22.7680 C   0  0  0  0  0  0  0  0  0  0  0  0
   12.3680    3.5320   23.0270 C   0  0  0  0  0  0  0  0  0  0  0  0
   11.0480    3.3520   23.2760 C   0  0  0  0  0  0  0  0  0  0  0  0
   10.1640    2.1900   23.3030 C   0  0  0  0  0  0  0  0  0  0  0  0
  3  6  1  0
  1  7  1  0
  6  7  1  0
  1  8  1  0
  4  8  2  0
 12  9  1  0
 10 12  2  0
 11 12  2  0
  3 14  1  0
 13 14  1  0
 14 15  2  0
 15 16  1  0
 16 17  2  0
 13 18  2  0
 17 18  1  0
 19 20  2  0
 20 21  1  0
  8 22  1  0
 21 22  2  0
 22 23  1  0
  5 24  1  0
 19 24  1  0
 23 24  2  0
 20 25  1  0
 25 26  2  0
 26 27  1  0
 21 28  1  0
 27 28  2  0
 18 29  1  0
 29 30  2  0
 12 31  1  0
 30 31  1  0
  2 32  1  0
 13 32  1  0
 31 32  2  0
M  END
