x0946-x2569
     RDKit          3D

 27 29  0  0  0  0  0  0  0  0999 V2000
    8.3930    0.5400   21.6610 C   0  0  0  0  0  0  0  0  0  0  0  0
    9.0210    1.6900   21.1250 O   0  0  0  0  0  0  0  0  0  0  0  0
    8.9610   -0.1330   22.8900 C   0  0  0  0  0  0  0  0  0  0  0  0
   13.4410   -1.8780   20.8760 N   0  0  0  0  0  0  0  0  0  0  0  0
    7.1730   -0.1090   21.1730 N   0  0  0  0  0  0  0  0  0  0  0  0
   13.4030   -0.9970   21.8210 C   0  0  0  0  0  0  0  0  0  0  0  0
    9.0460    5.2470   22.6820 N   0  0  0  0  0  0  0  0  0  0  0  0
    9.5370    5.0730   25.0770 O   0  0  0  0  0  0  0  0  0  0  0  0
   11.2880    6.0840   23.6130 O   0  0  0  0  0  0  0  0  0  0  0  0
   10.2630    5.0290   23.8330 S   0  0  0  0  0  0  0  0  0  0  0  0
   12.0210    0.3500   24.4900 N   0  0  0  0  0  0  0  0  0  0  0  0
   12.6850   -0.8140   24.1970 C   0  0  0  0  0  0  0  0  0  0  0  0
   12.6640   -1.6090   22.9340 C   0  0  1  0  0  0  0  0  0  0  0  0
   11.1810   -1.4960   22.7000 C   0  0  0  0  0  0  0  0  0  0  0  0
   10.4760   -0.1840   23.0230 C   0  0  0  0  0  0  0  0  0  0  0  0
   11.3180    0.8910   23.4780 C   0  0  2  0  0  0  0  0  0  0  0  0
    6.2520    0.5430   17.6270 N   0  0  0  0  0  0  0  0  0  0  0  0
    6.9620    0.0250   18.7910 C   0  0  0  0  0  0  0  0  0  0  0  0
    6.5660    0.3020   20.0720 C   0  0  0  0  0  0  0  0  0  0  0  0
    5.4710    1.0670   20.2170 C   0  0  0  0  0  0  0  0  0  0  0  0
    4.7300    1.6000   19.1600 C   0  0  0  0  0  0  0  0  0  0  0  0
    5.1700    1.3110   17.8780 C   0  0  0  0  0  0  0  0  0  0  0  0
   12.6130    1.1620   22.7680 C   0  0  0  0  0  0  0  0  0  0  0  0
   13.0220    2.5610   22.6010 C   0  0  0  0  0  0  0  0  0  0  0  0
   12.3210    3.6680   22.9660 C   0  0  0  0  0  0  0  0  0  0  0  0
   11.0740    3.5190   23.5420 C   0  0  0  0  0  0  0  0  0  0  0  0
   10.5540    2.1950   23.8280 C   0  0  0  0  0  0  0  0  0  0  0  0
  1  2  2  0
  1  3  1  0
  1  5  1  0
  4  6  3  0
 10  7  1  0
  8 10  2  0
  9 10  2  0
 11 12  2  0
 13  6  1  6
 12 13  1  0
 13 14  1  0
  3 15  1  0
 14 15  2  0
 16 11  1  0
 15 16  1  0
 17 18  2  0
  5 19  1  0
 18 19  1  0
 19 20  2  0
 20 21  1  0
 17 22  1  0
 21 22  2  0
 16 23  1  6
 23 24  2  0
 24 25  1  0
 10 26  1  0
 25 26  1  0
 16 27  1  0
 26 27  2  0
M  END
