x0946-x1478
     RDKit          3D

 26 27  0  0  0  0  0  0  0  0999 V2000
    6.4820   -2.6150   21.4750 N   0  0  0  0  0  0  0  0  0  0  0  0
    7.7190   -4.3300   20.5330 C   0  0  0  0  0  0  0  0  0  0  0  0
    5.7220   -3.5240   19.4680 O   0  0  0  0  0  0  0  0  0  0  0  0
    6.0170   -5.7190   22.3220 Cl  0  0  0  0  0  0  0  0  0  0  0  0
    6.5470   -3.4740   20.4280 C   0  0  0  0  0  0  0  0  0  0  0  0
    9.0940    5.3470   22.7860 N   0  0  0  0  0  0  0  0  0  0  0  0
   10.1880    5.5810   25.0480 O   0  0  0  0  0  0  0  0  0  0  0  0
   11.5130    6.2680   23.0510 O   0  0  0  0  0  0  0  0  0  0  0  0
   12.8820   -0.7470   22.9030 Se  0  0  0  0  0  2  0  0  0  0  0  0
   10.5730    5.3170   23.6840 S   0  0  0  0  0  0  0  0  0  0  0  0
    8.7670   -3.2750   20.4790 C   0  0  0  0  0  0  0  0  0  0  0  0
    9.3820   -2.6980   21.7560 C   0  0  0  0  0  0  0  0  0  0  0  0
   10.7110   -1.9740   21.6470 C   0  0  0  0  0  0  0  0  0  0  0  0
   11.3780   -1.9670   23.0360 C   0  0  0  0  0  0  0  0  0  0  0  0
    4.7450   -4.4980   24.2000 N   0  0  0  0  0  0  0  0  0  0  0  0
    5.4750   -4.2810   23.0870 C   0  0  0  0  0  0  0  0  0  0  0  0
    5.7150   -2.9480   22.6700 C   0  0  0  0  0  0  0  0  0  0  0  0
    5.2370   -1.8970   23.3640 C   0  0  0  0  0  0  0  0  0  0  0  0
    4.4990   -2.1610   24.4900 C   0  0  0  0  0  0  0  0  0  0  0  0
    4.2670   -3.4350   24.8840 C   0  0  0  0  0  0  0  0  0  0  0  0
   12.2040    1.0350   23.1430 C   0  0  0  0  0  0  0  0  0  0  0  0
   12.9720    2.1190   22.7730 C   0  0  0  0  0  0  0  0  0  0  0  0
   12.5480    3.5110   22.8980 C   0  0  0  0  0  0  0  0  0  0  0  0
   11.2100    3.6910   23.4710 C   0  0  0  0  0  0  0  0  0  0  0  0
   10.4460    2.5730   23.8480 C   0  0  0  0  0  0  0  0  0  0  0  0
   10.9480    1.2700   23.6800 C   0  0  0  0  0  0  0  0  0  0  0  0
  1  5  1  0
  2  5  1  0
  3  5  2  0
 10  6  1  0
  7 10  2  0
  8 10  2  0
  2 11  1  0
 11 12  1  0
 12 13  1  0
  9 14  1  0
 13 14  1  0
  4 16  1  0
 15 16  2  0
  1 17  1  0
 16 17  1  0
 17 18  2  0
 18 19  1  0
 15 20  1  0
 19 20  2  0
  9 21  1  0
 21 22  2  0
 22 23  1  0
 10 24  1  0
 23 24  2  0
 24 25  1  0
 21 26  1  0
 25 26  2  0
M  END
