x0946-x0395
     RDKit          3D

 21 23  0  0  0  0  0  0  0  0999 V2000
    9.1480    5.5980   22.6580 N   0  0  0  0  0  0  0  0  0  0  0  0
    9.9180    5.3060   24.9680 O   0  0  0  0  0  0  0  0  0  0  0  0
   11.5820    5.9850   23.1910 O   0  0  0  0  0  0  0  0  0  0  0  0
   10.4810    5.1640   23.6490 S   0  0  0  0  0  0  0  0  0  0  0  0
    9.5410   -5.3630   26.4310 C   0  0  0  0  0  0  0  0  0  0  0  0
    8.9350   -1.4590   22.8400 C   0  0  0  0  0  0  0  0  0  0  0  0
   11.6960    0.6620   23.2380 C   0  0  1  0  0  0  0  0  0  0  0  0
   12.6070    1.7560   22.8580 C   0  0  0  0  0  0  0  0  0  0  0  0
   12.2060    3.1710   22.8390 C   0  0  0  0  0  0  0  0  0  0  0  0
   10.7420    3.4500   23.2310 C   0  0  1  0  0  0  0  0  0  0  0  0
   10.3060    2.4650   24.3480 C   0  0  0  0  0  0  0  0  0  0  0  0
   10.8220    1.1600   24.2980 C   0  0  0  0  0  0  0  0  0  0  0  0
    9.0820   -4.1840   25.6090 C   0  0  0  0  0  0  0  0  0  0  0  0
    7.9870   -3.4940   25.8200 N   0  0  0  0  0  0  0  0  0  0  0  0
    7.8100   -2.4490   24.8910 N   0  0  0  0  0  0  0  0  0  0  0  0
    8.8140   -2.4180   23.9930 C   0  0  0  0  0  0  0  0  0  0  0  0
    9.9930   -3.6280   24.2750 S   0  0  0  0  0  0  0  0  0  0  0  0
   10.4570    0.3330   22.4950 C   0  0  0  0  0  0  0  0  0  0  0  0
   12.4090   -0.6090   23.3930 C   0  0  0  0  0  0  0  0  0  0  0  0
   11.3460   -1.4650   23.2380 C   0  0  0  0  0  0  0  0  0  0  0  0
   10.2820   -1.0550   22.4030 N   0  0  0  0  0  0  0  0  0  0  0  0
  4  1  1  0
  2  4  2  0
  3  4  2  0
  7  8  1  6
  8  9  2  0
 10  4  1  1
  9 10  1  0
 10 11  1  0
  7 12  1  0
 11 12  2  0
  5 13  1  0
 13 14  2  0
 14 15  1  0
  6 16  1  0
 15 16  2  0
 13 17  1  0
 16 17  1  0
  7 18  1  0
  7 19  1  0
 19 20  1  0
  6 21  1  0
 18 21  1  0
 20 21  1  0
M  END
