x0946-x1311
     RDKit          3D

 32 34  0  0  0  0  0  0  0  0999 V2000
    5.8780   -4.3300   19.9220 O   0  0  0  0  0  0  0  0  0  0  0  0
    6.7670   -4.3450   20.8480 C   0  0  0  0  0  0  0  0  0  0  0  0
    8.2570   -4.1130   20.6930 C   0  0  0  0  0  0  0  0  0  0  0  0
    6.4020   -4.6160   22.2090 N   0  0  0  0  0  0  0  0  0  0  0  0
    4.2520   -6.5810   26.0530 O   0  0  0  0  0  0  0  0  0  0  0  0
    1.9870   -5.5250   24.5080 O   0  0  0  0  0  0  0  0  0  0  0  0
    8.9730    5.5080   22.8010 N   0  0  0  0  0  0  0  0  0  0  0  0
   10.0350    5.6600   25.1290 O   0  0  0  0  0  0  0  0  0  0  0  0
   11.4520    6.3400   23.3130 O   0  0  0  0  0  0  0  0  0  0  0  0
   13.1230   -0.4990   22.8260 Se  0  0  0  0  0  2  0  0  0  0  0  0
   10.4250    5.3140   23.7140 S   0  0  0  0  0  0  0  0  0  0  0  0
    8.5580   -2.7840   21.3010 C   0  0  0  0  0  0  0  0  0  0  0  0
    9.8250   -2.6860   22.0800 C   0  0  0  0  0  0  0  0  0  0  0  0
   10.5800   -1.4090   22.0540 C   0  0  0  0  0  0  0  0  0  0  0  0
   12.0520   -1.8180   21.9110 C   0  0  0  0  0  0  0  0  0  0  0  0
    8.2480   -5.8950   23.0880 C   0  0  0  0  0  0  0  0  0  0  0  0
    9.2460   -6.0380   24.0290 C   0  0  0  0  0  0  0  0  0  0  0  0
    9.4610   -5.1280   25.0190 C   0  0  0  0  0  0  0  0  0  0  0  0
    8.6360   -4.0130   25.0700 C   0  0  0  0  0  0  0  0  0  0  0  0
    7.6680   -3.8940   24.1390 C   0  0  0  0  0  0  0  0  0  0  0  0
    7.4360   -4.8270   23.1180 C   0  0  0  0  0  0  0  0  0  0  0  0
    4.6590   -6.2590   22.3370 C   0  0  0  0  0  0  0  0  0  0  0  0
    5.0400   -4.8710   22.6250 C   0  0  1  0  0  0  0  0  0  0  0  0
    4.7680   -4.4890   24.0290 C   0  0  0  0  0  0  0  0  0  0  0  0
    3.8550   -5.9560   24.7580 S   0  0  0  0  0  0  0  0  0  0  0  0
    4.0410   -6.9770   23.2070 C   0  0  0  0  0  0  0  0  0  0  0  0
   12.2280    1.1440   23.1390 C   0  0  0  0  0  0  0  0  0  0  0  0
   12.8980    2.3210   22.8320 C   0  0  0  0  0  0  0  0  0  0  0  0
   12.3450    3.5470   23.0050 C   0  0  0  0  0  0  0  0  0  0  0  0
   11.0790    3.7140   23.5090 C   0  0  0  0  0  0  0  0  0  0  0  0
   10.3900    2.5510   23.8320 C   0  0  0  0  0  0  0  0  0  0  0  0
   10.9660    1.2950   23.6440 C   0  0  0  0  0  0  0  0  0  0  0  0
  1  2  2  0
  2  3  1  0
  2  4  1  0
 11  7  1  0
  8 11  2  0
  9 11  2  0
  3 12  1  0
 12 13  1  0
 13 14  1  0
 10 15  1  0
 14 15  1  0
 16 17  2  0
 17 18  1  0
 18 19  2  0
 19 20  1  0
  4 21  1  0
 16 21  1  0
 20 21  2  0
 23  4  1  1
 22 23  1  0
 23 24  1  0
 25  5  1  0
  6 25  1  0
 24 25  1  0
 22 26  2  0
 25 26  1  0
 10 27  1  0
 27 28  2  0
 28 29  1  0
 11 30  1  0
 29 30  2  0
 30 31  1  0
 27 32  1  0
 31 32  2  0
M  END
