x0946-x0755
     RDKit          3D

 36 38  0  0  0  0  0  0  0  0999 V2000
    4.5480   -6.3700   26.2530 O   0  0  0  0  0  0  0  0  0  0  0  0
    6.1970   -4.5330   26.7780 O   0  0  0  0  0  0  0  0  0  0  0  0
    5.6860   -4.3050   19.8740 O   0  0  0  0  0  0  0  0  0  0  0  0
    6.6760   -4.4910   20.6440 C   0  0  0  0  0  0  0  0  0  0  0  0
    8.0240   -3.8770   20.4910 C   0  0  0  0  0  0  0  0  0  0  0  0
    2.0850   -5.3890   25.7290 F   0  0  0  0  0  0  0  0  0  0  0  0
    5.4980   -2.1540   26.1500 F   0  0  0  0  0  0  0  0  0  0  0  0
    5.1230   -5.0730   25.9740 S   0  0  0  0  0  0  0  0  0  0  0  0
    9.0040    5.5280   22.7480 N   0  0  0  0  0  0  0  0  0  0  0  0
    9.9660    5.5580   25.0750 O   0  0  0  0  0  0  0  0  0  0  0  0
   11.3710    6.4280   23.3840 O   0  0  0  0  0  0  0  0  0  0  0  0
   13.2530   -0.3630   22.7760 Se  0  0  0  0  0  2  0  0  0  0  0  0
   10.3800    5.3220   23.7190 S   0  0  0  0  0  0  0  0  0  0  0  0
    8.0060   -2.4690   20.9350 C   0  0  0  0  0  0  0  0  0  0  0  0
    8.9450   -2.2460   22.0730 C   0  0  0  0  0  0  0  0  0  0  0  0
   10.0340   -1.2700   21.8420 C   0  0  0  0  0  0  0  0  0  0  0  0
   11.3190   -2.0920   21.7640 C   0  0  0  0  0  0  0  0  0  0  0  0
   12.1020   -1.8300   23.0200 C   0  0  0  0  0  0  0  0  0  0  0  0
    2.5020   -4.1150   25.8280 C   0  0  0  0  0  0  0  0  0  0  0  0
    3.8300   -3.8420   25.9410 C   0  0  0  0  0  0  0  0  0  0  0  0
    4.1970   -2.4930   26.0380 C   0  0  0  0  0  0  0  0  0  0  0  0
    3.2320   -1.5160   26.0210 C   0  0  0  0  0  0  0  0  0  0  0  0
    1.8390   -1.7520   25.9110 C   0  0  0  0  0  0  0  0  0  0  0  0
    1.4670   -3.0840   25.8100 C   0  0  0  0  0  0  0  0  0  0  0  0
    6.5920   -5.3480   21.7530 N   0  0  0  0  0  0  0  0  0  0  0  0
    7.5460   -5.1500   22.8180 C   0  0  0  0  0  0  0  0  0  0  0  0
    6.9350   -4.6790   24.0670 C   0  0  0  0  0  0  0  0  0  0  0  0
    5.7410   -5.2290   24.3850 N   0  0  0  0  0  0  0  0  0  0  0  0
    4.7720   -5.4550   23.3010 C   0  0  0  0  0  0  0  0  0  0  0  0
    5.3530   -5.8940   22.1120 C   0  0  0  0  0  0  0  0  0  0  0  0
   12.3300    1.2820   23.1010 C   0  0  0  0  0  0  0  0  0  0  0  0
   12.9370    2.4510   22.7850 C   0  0  0  0  0  0  0  0  0  0  0  0
   12.3540    3.6710   22.9680 C   0  0  0  0  0  0  0  0  0  0  0  0
   11.0940    3.7510   23.5030 C   0  0  0  0  0  0  0  0  0  0  0  0
   10.4190    2.5720   23.8560 C   0  0  0  0  0  0  0  0  0  0  0  0
   11.0590    1.3470   23.6450 C   0  0  0  0  0  0  0  0  0  0  0  0
  3  4  2  0
  4  5  1  0
  1  8  2  0
  2  8  2  0
 13  9  1  0
 10 13  2  0
 11 13  2  0
  5 14  1  0
 14 15  1  0
 15 16  1  0
 16 17  1  0
 12 18  1  0
 17 18  1  0
  6 19  1  0
  8 20  1  0
 19 20  2  0
  7 21  1  0
 20 21  1  0
 21 22  2  0
 22 23  1  0
 19 24  1  0
 23 24  2  0
  4 25  1  0
 25 26  1  0
 26 27  1  0
  8 28  1  0
 27 28  1  0
 28 29  1  0
 25 30  1  0
 29 30  1  0
 12 31  1  0
 31 32  2  0
 32 33  1  0
 13 34  1  0
 33 34  2  0
 34 35  1  0
 31 36  1  0
 35 36  2  0
M  END
