x0946-x0692
     RDKit          3D

 24 26  0  0  0  0  0  0  0  0999 V2000
    5.4240   -4.1010   19.7200 O   0  0  0  0  0  0  0  0  0  0  0  0
    9.6150   -2.5780   23.7410 C   0  0  0  0  0  0  0  0  0  0  0  0
    6.3720   -3.2750   19.8550 C   0  0  0  0  0  0  0  0  0  0  0  0
    7.3220   -2.9960   18.7490 C   0  0  0  0  0  0  0  0  0  0  0  0
    9.2570    5.3310   22.6920 N   0  0  0  0  0  0  0  0  0  0  0  0
   10.0940    5.4840   24.9950 O   0  0  0  0  0  0  0  0  0  0  0  0
   11.6140    6.1950   23.0910 O   0  0  0  0  0  0  0  0  0  0  0  0
   10.6560    5.2390   23.6880 S   0  0  0  0  0  0  0  0  0  0  0  0
   10.8940    1.1600   23.5350 C   0  0  0  0  0  0  0  0  0  0  0  0
    9.9920    0.0210   23.7840 C   0  0  0  0  0  0  0  0  0  0  0  0
   10.5050   -1.4060   23.5490 C   0  0  0  0  0  0  0  0  0  0  0  0
   11.9500   -1.5370   23.0950 C   0  0  0  0  0  0  0  0  0  0  0  0
   12.6870   -0.3670   22.9090 C   0  0  0  0  0  0  0  0  0  0  0  0
   12.1850    0.9100   23.1090 C   0  0  0  0  0  0  0  0  0  0  0  0
    6.5870   -2.5930   21.0610 N   0  0  0  0  0  0  0  0  0  0  0  0
    7.3320   -1.4620   21.1750 C   0  0  0  0  0  0  0  0  0  0  0  0
    8.5410   -1.6960   21.7570 C   0  0  0  0  0  0  0  0  0  0  0  0
    8.3370   -2.3040   23.0920 N   0  0  0  0  0  0  0  0  0  0  0  0
    7.4690   -3.4860   23.0320 C   0  0  0  0  0  0  0  0  0  0  0  0
    6.3680   -3.2520   22.2160 C   0  0  0  0  0  0  0  0  0  0  0  0
   12.9790    2.0010   22.8750 C   0  0  0  0  0  0  0  0  0  0  0  0
   12.5180    3.3790   23.0420 C   0  0  0  0  0  0  0  0  0  0  0  0
   11.2230    3.6310   23.4760 C   0  0  0  0  0  0  0  0  0  0  0  0
   10.4310    2.4890   23.7190 C   0  0  0  0  0  0  0  0  0  0  0  0
  1  3  2  0
  3  4  1  0
  8  5  1  0
  6  8  2  0
  7  8  2  0
  9 10  2  0
  2 11  1  0
 10 11  1  0
 11 12  2  0
 12 13  1  0
  9 14  1  0
 13 14  2  0
  3 15  1  0
 15 16  1  0
 16 17  1  0
  2 18  1  0
 17 18  1  0
 18 19  1  0
 15 20  1  0
 19 20  1  0
 14 21  1  0
 21 22  2  0
  8 23  1  0
 22 23  1  0
  9 24  1  0
 23 24  2  0
M  END
