x0946-x0104
     RDKit          3D

 16 17  0  0  0  0  0  0  0  0999 V2000
    9.1090    6.5060   22.6670 C   0  0  0  0  0  0  0  0  0  0  0  0
   10.3790    6.1060   23.4000 C   0  0  0  0  0  0  0  0  0  0  0  0
   10.4980    6.2580   24.6130 O   0  0  0  0  0  0  0  0  0  0  0  0
   11.3800    5.5630   22.6350 N   0  0  0  0  0  0  0  0  0  0  0  0
   12.2820    4.9860   23.1180 C   0  0  0  0  0  0  0  0  0  0  0  0
   12.6860    3.6460   22.5990 C   0  0  0  0  0  0  0  0  0  0  0  0
   13.5340   -2.1360   22.1980 F   0  0  0  0  0  0  0  0  0  0  0  0
   11.9040    2.4600   23.0750 C   0  0  0  0  0  0  0  0  0  0  0  0
   10.6060    2.7820   23.7910 C   0  0  0  0  0  0  0  0  0  0  0  0
    9.9480    1.6660   24.1830 N   0  0  0  0  0  0  0  0  0  0  0  0
   10.8190    0.5920   23.7140 C   0  0  0  0  0  0  0  0  0  0  0  0
   12.0090    1.0170   23.0490 C   0  0  0  0  0  0  0  0  0  0  0  0
   10.6820   -0.7870   23.8020 C   0  0  0  0  0  0  0  0  0  0  0  0
   11.5930   -1.6930   23.2930 C   0  0  0  0  0  0  0  0  0  0  0  0
   12.6850   -1.2550   22.6830 C   0  0  0  0  0  0  0  0  0  0  0  0
   12.9460    0.0960   22.5450 C   0  0  0  0  0  0  0  0  0  0  0  0
  1  2  1  0
  2  3  2  0
  2  4  1  0
  4  5  1  0
  5  6  1  0
  6  8  1  0
  8  9  2  0
  9 10  1  0
 10 11  1  0
  8 12  1  0
 11 12  2  0
 11 13  1  0
 13 14  2  0
  7 15  1  0
 14 15  1  0
 12 16  1  0
 15 16  2  0
M  END
