x0946-x2540
     RDKit          3D

 37 40  0  0  0  0  0  0  0  0999 V2000
    6.4720   -1.9480   21.2570 N   0  0  0  0  0  0  0  0  0  0  0  0
    7.7270   -3.0280   19.0290 C   0  0  0  0  0  0  0  0  0  0  0  0
    5.1560   -3.8520   20.0020 O   0  0  0  0  0  0  0  0  0  0  0  0
    7.0190   -3.5620   20.2010 C   0  0  0  0  0  0  0  0  0  0  0  0
    6.9480    0.8090   22.8240 N   0  0  0  0  0  0  0  0  0  0  0  0
    7.7560    0.8640   20.6140 O   0  0  0  0  0  0  0  0  0  0  0  0
    5.7680   -2.9790   20.5760 C   0  0  0  0  0  0  0  0  0  0  0  0
    5.9060   -0.5490   21.1390 C   0  0  1  0  0  0  0  0  0  0  0  0
    6.9430    0.4500   21.4870 C   0  0  0  0  0  0  0  0  0  0  0  0
    8.4900    0.5300   23.5250 S   0  0  0  0  0  0  0  0  0  0  0  0
    8.6120    0.3500   25.2660 C   0  0  0  0  0  0  0  0  0  0  0  0
    7.2050    0.6030   24.4640 C   0  0  0  0  0  0  0  0  0  0  0  0
    9.7010    0.4830   22.2720 C   0  0  0  0  0  0  0  0  0  0  0  0
   11.0940   -3.0230   23.1660 C   0  0  0  0  0  0  0  0  0  0  0  0
   11.7500   -1.7810   23.0480 C   0  0  0  0  0  0  0  0  0  0  0  0
   11.8830   -2.5670   21.8810 C   0  0  0  0  0  0  0  0  0  0  0  0
   11.7710   -3.5950   24.4020 C   0  0  0  0  0  0  0  0  0  0  0  0
    5.4780    2.0590   26.4830 O   0  0  0  0  0  0  0  0  0  0  0  0
    6.4660    3.0590   23.8790 O   0  0  0  0  0  0  0  0  0  0  0  0
    6.8130    2.2420   25.0510 S   0  0  0  0  0  0  0  0  0  0  0  0
    5.8850    0.4700   17.3890 N   0  0  0  0  0  0  0  0  0  0  0  0
    4.8580    1.4220   17.3590 C   0  0  0  0  0  0  0  0  0  0  0  0
    4.1350    1.7010   18.6220 C   0  0  0  0  0  0  0  0  0  0  0  0
    4.5650    0.9680   19.8180 C   0  0  0  0  0  0  0  0  0  0  0  0
    5.5700    0.0550   19.7550 C   0  0  0  0  0  0  0  0  0  0  0  0
    6.2620   -0.2430   18.6030 C   0  0  0  0  0  0  0  0  0  0  0  0
    8.6520   -3.4340   23.9110 O   0  0  0  0  0  0  0  0  0  0  0  0
    7.4070   -3.2290   23.5100 N   0  0  0  0  0  0  0  0  0  0  0  0
    7.4620   -2.4950   22.2150 C   0  0  0  0  0  0  0  0  0  0  0  0
    8.8060   -2.4260   22.0680 C   0  0  0  0  0  0  0  0  0  0  0  0
    9.5580   -2.9950   23.1060 C   0  0  0  0  0  0  0  0  0  0  0  0
   12.6700   -0.1090   24.9140 C   0  0  0  0  0  0  0  0  0  0  0  0
   12.9640    0.0530   23.6570 C   0  0  0  0  0  0  0  0  0  0  0  0
   11.9730    0.2290   22.8150 C   0  0  0  0  0  0  0  0  0  0  0  0
   10.6430    0.2830   23.2420 C   0  0  0  0  0  0  0  0  0  0  0  0
    9.9740    0.2240   24.5680 C   0  0  0  0  0  0  0  0  0  0  0  0
   11.1350   -0.0140   25.3830 C   0  0  0  0  0  0  0  0  0  0  0  0
  2  4  1  0
  1  7  1  0
  3  7  2  0
  4  7  1  0
  1  8  1  0
  5  9  1  0
  6  9  2  0
  8  9  1  6
  5 10  1  0
 10 11  1  0
 10 12  1  0
 10 13  1  0
 14 15  1  0
 14 16  1  0
 14 17  1  0
 12 20  1  0
 18 20  2  0
 19 20  2  0
 21 22  2  0
 22 23  1  0
 23 24  2  0
  8 25  1  0
 24 25  1  0
 21 26  1  0
 25 26  2  0
 27 28  1  0
  1 29  1  0
 28 29  2  0
 29 30  1  0
 14 31  1  0
 27 31  1  0
 30 31  2  0
 32 33  1  0
 33 34  2  0
 13 35  2  0
 34 35  1  0
 10 36  2  0
 35 36  1  0
 32 37  2  0
 36 37  1  0
M  END
