x0946-x1249
     RDKit          3D

 26 28  0  0  0  0  0  0  0  0999 V2000
    8.0130    0.6190   25.2080 N   0  0  0  0  0  0  0  0  0  0  0  0
    7.4340    1.3530   24.1830 C   0  0  0  0  0  0  0  0  0  0  0  0
    8.1360    2.3500   23.4700 O   0  0  0  0  0  0  0  0  0  0  0  0
    9.3960    0.6880   25.3760 C   0  0  0  0  0  0  0  0  0  0  0  0
   13.5700   -2.5420   20.7680 N   0  0  0  0  0  0  0  0  0  0  0  0
   12.8370   -1.7110   21.6290 C   0  0  0  0  0  0  0  0  0  0  0  0
    9.3120    5.6540   22.6310 N   0  0  0  0  0  0  0  0  0  0  0  0
   10.1360    5.3810   24.9160 O   0  0  0  0  0  0  0  0  0  0  0  0
   11.8560    5.6710   23.1130 O   0  0  0  0  0  0  0  0  0  0  0  0
   10.5830    5.0820   23.5780 S   0  0  0  0  0  0  0  0  0  0  0  0
    3.3410    0.8230   23.5690 O   0  0  0  0  0  0  0  0  0  0  0  0
    4.1720    0.8590   22.4110 C   0  0  0  0  0  0  0  0  0  0  0  0
    5.4480    1.5650   22.7010 C   0  0  0  0  0  0  0  0  0  0  0  0
    6.1250    1.0520   23.9040 N   0  0  0  0  0  0  0  0  0  0  0  0
    5.2650    0.8420   25.0720 C   0  0  0  0  0  0  0  0  0  0  0  0
    3.9690    0.1500   24.6610 C   0  0  0  0  0  0  0  0  0  0  0  0
   10.9030    0.9210   23.3510 C   0  0  2  0  0  0  0  0  0  0  0  0
   11.9920    0.4090   22.7410 C   0  0  0  0  0  0  0  0  0  0  0  0
   11.8530   -0.9360   22.3790 C   0  0  0  0  0  0  0  0  0  0  0  0
   10.7170   -1.6170   22.6840 C   0  0  0  0  0  0  0  0  0  0  0  0
   10.0150   -1.2440   23.8430 C   0  0  0  0  0  0  0  0  0  0  0  0
   10.0910    0.0800   24.2030 C   0  0  0  0  0  0  0  0  0  0  0  0
   10.0690    1.3820   22.1980 C   0  0  0  0  0  0  0  0  0  0  0  0
    9.9530    2.8290   22.1890 C   0  0  0  0  0  0  0  0  0  0  0  0
   10.5620    3.3830   23.2260 C   0  0  0  0  0  0  0  0  0  0  0  0
   11.0990    2.2980   23.9210 C   0  0  0  0  0  0  0  0  0  0  0  0
  1  2  1  0
  2  3  2  0
  1  4  1  0
  5  6  3  0
 10  7  1  0
  8 10  2  0
  9 10  2  0
 11 12  1  0
 12 13  1  0
  2 14  1  0
 13 14  1  0
 14 15  1  0
 11 16  1  0
 15 16  1  0
 17 18  1  6
  6 19  1  0
 18 19  2  0
 19 20  1  0
 20 21  1  0
  4 22  1  0
 17 22  1  0
 21 22  2  0
 17 23  1  0
 23 24  2  0
 10 25  1  0
 24 25  1  0
 17 26  1  0
 25 26  2  0
M  END
