x0967-x1119
     RDKit          3D

 44 46  0  0  0  0  0  0  0  0999 V2000
    7.9510    4.8460   22.4020 C   0  0  0  0  0  0  0  0  0  0  0  0
    8.6120    2.3550   22.3580 N   0  0  0  0  0  0  0  0  0  0  0  0
    6.6630    3.1990   23.6760 O   0  0  0  0  0  0  0  0  0  0  0  0
    7.7610    3.3910   22.8100 C   0  0  0  0  0  0  0  0  0  0  0  0
   10.1590   -0.9710   23.2150 N   0  0  0  0  0  0  0  0  0  0  0  0
    5.7950    0.4570   17.4130 O   0  0  0  0  0  0  0  0  0  0  0  0
    8.7010    1.1180   22.9910 C   0  0  1  0  0  0  0  0  0  0  0  0
   11.0020    1.0770   22.6110 O   0  0  0  0  0  0  0  0  0  0  0  0
    7.6600    0.0910   22.6960 C   0  0  0  0  0  0  0  0  0  0  0  0
   10.0110    0.3980   22.9230 C   0  0  0  0  0  0  0  0  0  0  0  0
   11.4690   -1.5960   23.0330 C   0  0  0  0  0  0  0  0  0  0  0  0
   12.1110   -2.1640   24.3170 C   0  0  0  0  0  0  0  0  0  0  0  0
   13.4380   -2.5930   24.1080 C   0  0  0  0  0  0  0  0  0  0  0  0
   14.5340   -3.5720   25.3620 Se  0  0  0  0  0  2  0  0  0  0  0  0
   22.0800    7.0420   24.1130 N   0  0  0  0  0  0  0  0  0  0  0  0
   21.2920    0.8580   26.8450 N   0  0  0  0  0  0  0  0  0  0  0  0
   23.5980    1.8550   27.9010 N   0  0  0  0  0  0  0  0  0  0  0  0
   23.3710    0.6240   25.5290 O   0  0  0  0  0  0  0  0  0  0  0  0
   22.6680    1.5740   26.4740 S   0  0  1  0  0  0  0  0  0  0  0  0
   15.9690   -4.6160   24.4700 C   0  0  0  0  0  0  0  0  0  0  0  0
   17.0800   -4.4240   25.2160 C   0  0  0  0  0  0  0  0  0  0  0  0
   18.4010   -4.2920   24.8000 C   0  0  0  0  0  0  0  0  0  0  0  0
   19.2760   -3.1180   24.7360 C   0  0  0  0  0  0  0  0  0  0  0  0
   19.7890   -2.4610   25.8780 C   0  0  0  0  0  0  0  0  0  0  0  0
   20.6330   -1.2600   25.6570 C   0  0  0  0  0  0  0  0  0  0  0  0
   21.0680   -0.5680   26.8830 C   0  0  0  0  0  0  0  0  0  0  0  0
    7.1390    0.2410   21.3060 C   0  0  0  0  0  0  0  0  0  0  0  0
    7.4760   -0.7420   20.3860 C   0  0  0  0  0  0  0  0  0  0  0  0
    6.9970   -0.6260   19.0800 C   0  0  0  0  0  0  0  0  0  0  0  0
    6.2190    0.4270   18.7220 C   0  0  0  0  0  0  0  0  0  0  0  0
    5.8610    1.4300   19.6130 C   0  0  0  0  0  0  0  0  0  0  0  0
    6.3290    1.3350   20.9250 C   0  0  0  0  0  0  0  0  0  0  0  0
   22.2300    5.7360   24.6750 C   0  0  0  0  0  0  0  0  0  0  0  0
   23.0330    4.7790   24.0660 C   0  0  0  0  0  0  0  0  0  0  0  0
   23.1700    3.4990   24.6220 C   0  0  0  0  0  0  0  0  0  0  0  0
   22.4960    3.1620   25.7960 C   0  0  0  0  0  0  0  0  0  0  0  0
   21.6930    4.1240   26.4120 C   0  0  0  0  0  0  0  0  0  0  0  0
   21.5580    5.4060   25.8590 C   0  0  0  0  0  0  0  0  0  0  0  0
   24.5040    3.7530   29.1370 N   0  0  0  0  0  0  0  0  0  0  0  0
   25.2230    4.8830   29.2270 C   0  0  0  0  0  0  0  0  0  0  0  0
   25.9750    5.5230   28.0590 C   0  0  0  0  0  0  0  0  0  0  0  0
   25.8520    4.7630   26.7320 C   0  0  0  0  0  0  0  0  0  0  0  0
   25.1030    3.6230   26.7280 C   0  0  0  0  0  0  0  0  0  0  0  0
   24.3870    3.0790   27.9790 C   0  0  0  0  0  0  0  0  0  0  0  0
  1  4  1  0
  2  4  1  0
  3  4  2  0
  2  7  1  0
  7  9  1  6
  5 10  1  0
  7 10  1  0
  8 10  2  0
  5 11  1  0
 11 12  1  0
 12 13  3  0
 13 14  1  0
 16 19  2  0
 19 17  1  1
 18 19  2  0
 14 20  1  0
 20 21  1  0
 21 22  1  0
 22 23  1  0
 23 24  1  0
 24 25  1  0
 16 26  1  0
 25 26  1  0
  9 27  1  0
 27 28  2  0
 28 29  1  0
  6 30  1  0
 29 30  2  0
 30 31  1  0
 27 32  1  0
 31 32  2  0
 15 33  1  0
 33 34  2  0
 34 35  1  0
 19 36  1  0
 35 36  2  0
 36 37  1  0
 33 38  1  0
 37 38  2  0
 39 40  2  0
 40 41  1  0
 41 42  2  0
 42 43  1  0
 17 44  1  0
 39 44  1  0
 43 44  2  0
M  END
