x0967-x1385
     RDKit          3D

 36 39  0  0  0  0  0  0  0  0999 V2000
    7.4280    4.6060   22.3330 C   0  0  0  0  0  0  0  0  0  0  0  0
    8.0310    2.4620   23.0680 N   0  0  0  0  0  0  0  0  0  0  0  0
    5.9110    3.4530   23.5120 O   0  0  0  0  0  0  0  0  0  0  0  0
    7.0200    3.5310   22.9970 C   0  0  0  0  0  0  0  0  0  0  0  0
    9.3200   -0.8710   22.8410 N   0  0  0  0  0  0  0  0  0  0  0  0
    5.7450    0.9250   17.0060 O   0  0  0  0  0  0  0  0  0  0  0  0
    7.7020    1.1220   23.2160 C   0  0  1  0  0  0  0  0  0  0  0  0
    9.4570    1.0540   21.6380 O   0  0  0  0  0  0  0  0  0  0  0  0
    6.3860    0.7500   22.6210 C   0  0  0  0  0  0  0  0  0  0  0  0
    8.8760    0.4090   22.5090 C   0  0  0  0  0  0  0  0  0  0  0  0
   10.0030   -1.4900   21.7170 C   0  0  1  0  0  0  0  0  0  0  0  0
   11.3180   -2.2520   21.8550 C   0  0  0  0  0  0  0  0  0  0  0  0
   12.0870   -2.0990   22.9950 C   0  0  0  0  0  0  0  0  0  0  0  0
   13.2230   -2.0730   24.5100 Br  0  0  0  0  0  0  0  0  0  0  0  0
    7.3680   -3.0090   18.8500 C   0  0  0  0  0  0  0  0  0  0  0  0
    5.4160   -4.1130   19.7330 O   0  0  0  0  0  0  0  0  0  0  0  0
    6.3980   -3.3470   19.9330 C   0  0  0  0  0  0  0  0  0  0  0  0
    9.6490   -3.1480   24.0840 C   0  0  0  0  0  0  0  0  0  0  0  0
    7.1350   -5.7720   28.5170 Br  0  0  0  0  0  0  0  0  0  0  0  0
    6.1930    0.8130   21.1170 C   0  0  0  0  0  0  0  0  0  0  0  0
    7.0700    0.0730   20.3290 C   0  0  0  0  0  0  0  0  0  0  0  0
    6.9820    0.0480   18.8720 C   0  0  0  0  0  0  0  0  0  0  0  0
    5.9010    0.8740   18.3480 C   0  0  0  0  0  0  0  0  0  0  0  0
    5.0390    1.6050   19.1460 C   0  0  0  0  0  0  0  0  0  0  0  0
    5.1790    1.5770   20.5280 C   0  0  0  0  0  0  0  0  0  0  0  0
    6.6310   -2.8080   21.1990 N   0  0  0  0  0  0  0  0  0  0  0  0
    6.4480   -3.6810   22.3560 C   0  0  0  0  0  0  0  0  0  0  0  0
    7.6730   -4.0990   22.8160 C   0  0  0  0  0  0  0  0  0  0  0  0
    8.5910   -2.9860   23.1710 N   0  0  0  0  0  0  0  0  0  0  0  0
    8.6140   -1.9860   22.2670 C   0  0  1  0  0  0  0  0  0  0  0  0
    7.5590   -1.7690   21.4260 C   0  0  0  0  0  0  0  0  0  0  0  0
    9.7940   -5.3990   25.3620 C   0  0  0  0  0  0  0  0  0  0  0  0
    9.2760   -4.1400   25.1370 C   0  0  0  0  0  0  0  0  0  0  0  0
    8.0450   -3.7730   26.2700 S   0  0  0  0  0  0  0  0  0  0  0  0
    8.2100   -5.2680   27.0320 C   0  0  0  0  0  0  0  0  0  0  0  0
    9.1950   -6.0650   26.4530 C   0  0  0  0  0  0  0  0  0  0  0  0
  1  4  1  0
  2  4  1  0
  3  4  2  0
  2  7  1  0
  7  9  1  6
  5 10  1  0
  7 10  1  0
  8 10  2  0
  5 11  1  0
 11 12  1  1
 12 13  3  0
 13 14  1  0
 15 17  1  0
 16 17  2  0
  9 20  1  0
 20 21  2  0
 21 22  1  0
  6 23  1  0
 22 23  2  0
 23 24  1  0
 20 25  1  0
 24 25  2  0
 17 26  1  0
 26 27  1  0
 27 28  1  0
 18 29  1  0
 28 29  1  0
 30  5  1  0
 11 30  1  0
 29 30  1  0
 26 31  1  0
 30 31  1  6
 18 33  1  0
 32 33  2  0
 33 34  1  0
 19 35  1  0
 34 35  1  0
 32 36  1  0
 35 36  2  0
M  END
