x0967-x1358
     RDKit          3D

 41 43  0  0  0  0  0  0  0  0999 V2000
    7.6430    5.0210   22.4850 C   0  0  0  0  0  0  0  0  0  0  0  0
    8.0490    2.5060   22.4320 N   0  0  0  0  0  0  0  0  0  0  0  0
    6.1170    3.4920   23.6610 O   0  0  0  0  0  0  0  0  0  0  0  0
    7.2730    3.5940   22.8630 C   0  0  0  0  0  0  0  0  0  0  0  0
    9.1080   -0.9890   23.0100 N   0  0  0  0  0  0  0  0  0  0  0  0
    5.5720    0.8220   17.1120 O   0  0  0  0  0  0  0  0  0  0  0  0
    7.9570    1.2270   22.9650 C   0  0  1  0  0  0  0  0  0  0  0  0
   10.0650    0.8770   22.0830 O   0  0  0  0  0  0  0  0  0  0  0  0
    6.8080    0.3610   22.5850 C   0  0  1  0  0  0  0  0  0  0  0  0
    9.1050    0.3550   22.6600 C   0  0  0  0  0  0  0  0  0  0  0  0
    9.8280   -1.9180   22.1760 C   0  0  0  0  0  0  0  0  0  0  0  0
   11.1840   -1.4680   21.7140 C   0  0  0  0  0  0  0  0  0  0  0  0
   12.1580   -1.8720   22.5840 C   0  0  0  0  0  0  0  0  0  0  0  0
   13.4770   -2.4580   23.7770 Br  0  0  0  0  0  0  0  0  0  0  0  0
    6.9070   -2.3530   25.7770 N   0  0  0  0  0  0  0  0  0  0  0  0
    5.4380   -0.2140   25.4210 O   0  0  0  0  0  0  0  0  0  0  0  0
    4.9320   -3.6130   25.7560 O   0  0  0  0  0  0  0  0  0  0  0  0
    5.0720   -4.2360   19.6900 O   0  0  0  0  0  0  0  0  0  0  0  0
    6.0240   -3.2950   25.2980 C   0  0  0  0  0  0  0  0  0  0  0  0
    6.2050   -3.8660   20.0270 C   0  0  0  0  0  0  0  0  0  0  0  0
    7.1190   -3.1570   19.0930 C   0  0  0  0  0  0  0  0  0  0  0  0
    5.5450    0.4570   23.4090 C   0  0  0  0  0  0  0  0  0  0  0  0
    5.7380    0.7670   24.7470 C   0  0  0  0  0  0  0  0  0  0  0  0
    6.4730    0.4770   21.1240 C   0  0  0  0  0  0  0  0  0  0  0  0
    7.1340   -0.3980   20.1780 C   0  0  0  0  0  0  0  0  0  0  0  0
    6.8070   -0.2680   18.7930 C   0  0  0  0  0  0  0  0  0  0  0  0
    5.8800    0.6850   18.3990 C   0  0  0  0  0  0  0  0  0  0  0  0
    5.2470    1.5220   19.3220 C   0  0  0  0  0  0  0  0  0  0  0  0
    5.5360    1.4210   20.6580 C   0  0  0  0  0  0  0  0  0  0  0  0
    6.0160   -0.3110   26.6620 C   0  0  0  0  0  0  0  0  0  0  0  0
    6.7870   -1.4380   26.8570 C   0  0  0  0  0  0  0  0  0  0  0  0
    7.4290   -1.6460   28.0820 C   0  0  0  0  0  0  0  0  0  0  0  0
    7.2920   -0.7130   29.1080 C   0  0  0  0  0  0  0  0  0  0  0  0
    6.5160    0.4390   28.9260 C   0  0  0  0  0  0  0  0  0  0  0  0
    5.8800    0.6290   27.6960 C   0  0  0  0  0  0  0  0  0  0  0  0
    6.6510   -4.1660   21.3040 N   0  0  0  0  0  0  0  0  0  0  0  0
    7.5210   -3.1990   21.9680 C   0  0  0  0  0  0  0  0  0  0  0  0
    7.0700   -2.8880   23.2400 C   0  0  0  0  0  0  0  0  0  0  0  0
    6.6180   -3.9170   24.0410 C   0  0  0  0  0  0  0  0  0  0  0  0
    5.6550   -4.9190   23.4200 C   0  0  0  0  0  0  0  0  0  0  0  0
    6.1890   -5.3320   22.0450 C   0  0  0  0  0  0  0  0  0  0  0  0
  1  4  1  0
  2  4  1  0
  3  4  2  0
  7  2  1  6
  7  9  1  0
  5 10  1  0
  7 10  1  0
  8 10  2  0
  5 11  1  0
 11 12  1  0
 12 13  3  0
 13 14  1  0
 15 19  1  0
 17 19  2  0
 18 20  2  0
 20 21  1  0
  9 22  1  1
 16 23  1  0
 22 23  1  0
  9 24  1  0
 24 25  2  0
 25 26  1  0
  6 27  1  0
 26 27  2  0
 27 28  1  0
 24 29  1  0
 28 29  2  0
 16 30  1  0
 15 31  1  0
 30 31  1  0
 31 32  2  0
 32 33  1  0
 33 34  2  0
 30 35  2  0
 34 35  1  0
 20 36  1  0
 36 37  1  0
 37 38  1  0
 19 39  1  0
 38 39  1  0
 39 40  1  0
 36 41  1  0
 40 41  1  0
M  END
