x0967-x1308
     RDKit          3D

 41 43  0  0  0  0  0  0  0  0999 V2000
    7.4590    5.1740   22.4260 C   0  0  0  0  0  0  0  0  0  0  0  0
    7.9270    2.6810   22.3900 N   0  0  0  0  0  0  0  0  0  0  0  0
    6.1160    3.6210   23.7980 O   0  0  0  0  0  0  0  0  0  0  0  0
    7.1740    3.7490   22.8770 C   0  0  0  0  0  0  0  0  0  0  0  0
    9.5400   -0.5680   23.0620 N   0  0  0  0  0  0  0  0  0  0  0  0
    5.5790    0.7470   17.0970 O   0  0  0  0  0  0  0  0  0  0  0  0
    7.9550    1.4250   22.9640 C   0  0  1  0  0  0  0  0  0  0  0  0
   10.1310    1.4460   22.2470 O   0  0  0  0  0  0  0  0  0  0  0  0
    6.8770    0.4670   22.5840 C   0  0  0  0  0  0  0  0  0  0  0  0
    9.2500    0.7480   22.7480 C   0  0  0  0  0  0  0  0  0  0  0  0
   10.0560   -1.3130   21.9520 C   0  0  1  0  0  0  0  0  0  0  0  0
   11.5650   -1.5380   21.8560 C   0  0  0  0  0  0  0  0  0  0  0  0
   12.2210   -1.8480   23.0330 C   0  0  0  0  0  0  0  0  0  0  0  0
   13.2070   -2.2910   24.5890 Br  0  0  0  0  0  0  0  0  0  0  0  0
    8.0750   -4.0960   20.6040 C   0  0  0  0  0  0  0  0  0  0  0  0
    5.7190   -4.3870   19.8900 O   0  0  0  0  0  0  0  0  0  0  0  0
    0.7000   -1.2640   26.4180 Cl  0  0  0  0  0  0  0  0  0  0  0  0
    6.6500   -4.5180   20.7380 C   0  0  0  0  0  0  0  0  0  0  0  0
    6.2210   -5.1820   27.0350 O   0  0  0  0  0  0  0  0  0  0  0  0
    4.5150   -6.9170   26.2110 O   0  0  0  0  0  0  0  0  0  0  0  0
    5.1550   -5.6300   26.0770 S   0  0  0  0  0  0  0  0  0  0  0  0
    9.3700   -2.6370   22.0140 C   0  0  0  0  0  0  0  0  0  0  0  0
    8.2740   -2.7100   21.1650 C   0  0  0  0  0  0  0  0  0  0  0  0
    6.5360    0.5220   21.1200 C   0  0  0  0  0  0  0  0  0  0  0  0
    7.2020   -0.4450   20.2390 C   0  0  0  0  0  0  0  0  0  0  0  0
    6.8460   -0.3470   18.8400 C   0  0  0  0  0  0  0  0  0  0  0  0
    5.8990    0.6510   18.3880 C   0  0  0  0  0  0  0  0  0  0  0  0
    5.2980    1.5380   19.2690 C   0  0  0  0  0  0  0  0  0  0  0  0
    5.6140    1.4730   20.6290 C   0  0  0  0  0  0  0  0  0  0  0  0
    6.4090   -5.0900   21.9720 N   0  0  0  0  0  0  0  0  0  0  0  0
    7.2660   -4.6130   23.0560 C   0  0  0  0  0  0  0  0  0  0  0  0
    6.4560   -4.2650   24.1020 C   0  0  0  0  0  0  0  0  0  0  0  0
    5.7470   -5.5010   24.5120 N   0  0  0  0  0  0  0  0  0  0  0  0
    4.9480   -6.1150   23.3980 C   0  0  0  0  0  0  0  0  0  0  0  0
    5.7190   -6.2990   22.2450 C   0  0  0  0  0  0  0  0  0  0  0  0
    4.2620   -3.0670   26.5060 C   0  0  0  0  0  0  0  0  0  0  0  0
    3.2620   -2.0890   26.5830 C   0  0  0  0  0  0  0  0  0  0  0  0
    1.9390   -2.4450   26.3060 C   0  0  0  0  0  0  0  0  0  0  0  0
    1.6110   -3.7530   25.9450 C   0  0  0  0  0  0  0  0  0  0  0  0
    2.6070   -4.7230   25.8700 C   0  0  0  0  0  0  0  0  0  0  0  0
    3.9120   -4.3740   26.1540 C   0  0  0  0  0  0  0  0  0  0  0  0
  1  4  1  0
  2  4  1  0
  3  4  2  0
  2  7  1  0
  7  9  1  6
  5 10  1  0
  7 10  1  0
  8 10  2  0
  5 11  1  0
 11 12  1  1
 12 13  3  0
 13 14  1  0
 15 18  1  0
 16 18  2  0
 19 21  2  0
 20 21  2  0
 11 22  1  0
 15 23  1  0
 22 23  1  0
  9 24  1  0
 24 25  2  0
 25 26  1  0
  6 27  1  0
 26 27  2  0
 27 28  1  0
 24 29  1  0
 28 29  2  0
 18 30  1  0
 30 31  1  0
 31 32  1  0
 21 33  1  0
 32 33  1  0
 33 34  1  0
 30 35  1  0
 34 35  1  0
 36 37  2  0
 17 38  1  0
 37 38  1  0
 38 39  2  0
 39 40  1  0
 21 41  1  0
 36 41  1  0
 40 41  2  0
M  END
