x0967-x1412
     RDKit          3D

 36 39  0  0  0  0  0  0  0  0999 V2000
    7.4430    4.8450   22.3180 C   0  0  0  0  0  0  0  0  0  0  0  0
    8.0000    2.5240   23.2110 N   0  0  0  0  0  0  0  0  0  0  0  0
    5.7250    3.4800   23.4340 O   0  0  0  0  0  0  0  0  0  0  0  0
    7.0620    3.5420   23.0070 C   0  0  0  0  0  0  0  0  0  0  0  0
    9.2480   -0.8990   22.8160 N   0  0  0  0  0  0  0  0  0  0  0  0
    5.7200    0.9140   17.0100 O   0  0  0  0  0  0  0  0  0  0  0  0
    7.7690    1.1600   23.1180 C   0  0  1  0  0  0  0  0  0  0  0  0
    9.5040    1.0420   21.6400 O   0  0  0  0  0  0  0  0  0  0  0  0
    6.4770    0.6160   22.6170 C   0  0  0  0  0  0  0  0  0  0  0  0
    8.8680    0.4050   22.4890 C   0  0  0  0  0  0  0  0  0  0  0  0
    9.8820   -1.5870   21.7330 C   0  0  1  0  0  0  0  0  0  0  0  0
   11.2620   -2.2470   21.7980 C   0  0  0  0  0  0  0  0  0  0  0  0
   12.0380   -2.1200   22.9430 C   0  0  0  0  0  0  0  0  0  0  0  0
   13.1920   -2.0940   24.4490 Br  0  0  0  0  0  0  0  0  0  0  0  0
    7.3010   -3.0480   18.8960 C   0  0  0  0  0  0  0  0  0  0  0  0
    5.4100   -4.2210   19.7750 O   0  0  0  0  0  0  0  0  0  0  0  0
    6.4010   -3.4770   20.0010 C   0  0  0  0  0  0  0  0  0  0  0  0
    8.2430   -1.5860   25.2180 O   0  0  0  0  0  0  0  0  0  0  0  0
    8.4320   -2.7400   24.8230 C   0  0  0  0  0  0  0  0  0  0  0  0
    6.2370    0.7230   21.1220 C   0  0  0  0  0  0  0  0  0  0  0  0
    7.0780   -0.0220   20.3020 C   0  0  0  0  0  0  0  0  0  0  0  0
    6.9690   -0.0230   18.8430 C   0  0  0  0  0  0  0  0  0  0  0  0
    5.9010    0.8340   18.3480 C   0  0  0  0  0  0  0  0  0  0  0  0
    5.0360    1.6000   19.2110 C   0  0  0  0  0  0  0  0  0  0  0  0
    5.2080    1.5390   20.5890 C   0  0  0  0  0  0  0  0  0  0  0  0
    6.7020   -3.0570   21.2920 N   0  0  0  0  0  0  0  0  0  0  0  0
    7.4090   -1.8330   21.6420 C   0  0  0  0  0  0  0  0  0  0  0  0
    8.5730   -2.0730   22.3140 C   0  0  2  0  0  0  0  0  0  0  0  0
    8.4890   -3.1000   23.4060 N   0  0  0  0  0  0  0  0  0  0  0  0
    7.7080   -4.3070   23.0760 C   0  0  0  0  0  0  0  0  0  0  0  0
    6.5880   -4.0370   22.3130 C   0  0  0  0  0  0  0  0  0  0  0  0
    9.5720   -4.9590   25.5180 C   0  0  0  0  0  0  0  0  0  0  0  0
    8.6180   -3.9050   25.7510 C   0  0  0  0  0  0  0  0  0  0  0  0
    7.5100   -3.8670   27.1990 S   0  0  0  0  0  0  0  0  0  0  0  0
    8.5560   -5.2540   27.1670 C   0  0  0  0  0  0  0  0  0  0  0  0
    9.5070   -5.8900   26.5180 C   0  0  0  0  0  0  0  0  0  0  0  0
  1  4  1  0
  2  4  1  0
  3  4  2  0
  2  7  1  0
  7  9  1  6
  5 10  1  0
  7 10  1  0
  8 10  2  0
  5 11  1  0
 11 12  1  1
 12 13  3  0
 13 14  1  0
 15 17  1  0
 16 17  2  0
 18 19  2  0
  9 20  1  0
 20 21  2  0
 21 22  1  0
  6 23  1  0
 22 23  2  0
 23 24  1  0
 20 25  1  0
 24 25  2  0
 17 26  1  0
 26 27  1  0
 28  5  1  0
 11 28  1  0
 28 27  1  6
 19 29  1  0
 28 29  1  0
 29 30  1  0
 26 31  1  0
 30 31  1  0
 19 33  1  0
 32 33  2  0
 33 34  1  0
 34 35  1  0
 32 36  1  0
 35 36  2  0
M  END
