x0967-x3108
     RDKit          3D

 31 33  0  0  0  0  0  0  0  0999 V2000
    8.3210    1.7440   21.7430 C   0  0  0  0  0  0  0  0  0  0  0  0
    6.9940   -0.1700   21.1350 N   0  0  0  0  0  0  0  0  0  0  0  0
    6.3460    2.1420   20.8010 O   0  0  0  0  0  0  0  0  0  0  0  0
    7.1820    1.3360   21.1970 C   0  0  0  0  0  0  0  0  0  0  0  0
    7.9290   -2.0350   24.2180 N   0  0  0  0  0  0  0  0  0  0  0  0
    5.5370    0.9440   17.2040 O   0  0  0  0  0  0  0  0  0  0  0  0
    6.6260   -0.7670   22.3150 C   0  0  0  0  0  0  0  0  0  0  0  0
    8.8280   -1.0830   22.0810 N   0  0  0  0  0  0  0  0  0  0  0  0
    5.2710   -0.6440   22.5900 C   0  0  0  0  0  0  0  0  0  0  0  0
    7.7900   -1.3570   23.0050 C   0  0  0  0  0  0  0  0  0  0  0  0
    9.2970   -2.4930   24.5340 C   0  0  0  0  0  0  0  0  0  0  0  0
   10.3330   -1.4390   24.1970 C   0  0  0  0  0  0  0  0  0  0  0  0
   11.6060   -1.9280   24.4540 C   0  0  0  0  0  0  0  0  0  0  0  0
   13.3280   -2.6180   24.8300 Br  0  0  0  0  0  0  0  0  0  0  0  0
    9.7720   -2.0750   21.8050 O   0  0  0  0  0  0  0  0  0  0  0  0
    8.2030   -0.6120   20.8320 N   0  0  0  0  0  0  0  0  0  0  0  0
    6.8120   -0.4450   25.5710 O   0  0  0  0  0  0  0  0  0  0  0  0
    7.1030   -1.6290   25.3610 C   0  0  0  0  0  0  0  0  0  0  0  0
    6.6440   -2.6270   26.2250 C   0  0  0  0  0  0  0  0  0  0  0  0
    5.5160   -0.1700   21.3180 C   0  0  0  0  0  0  0  0  0  0  0  0
    6.8340   -0.2450   20.5730 C   0  0  0  0  0  0  0  0  0  0  0  0
    6.7690    0.0950   19.2060 C   0  0  0  0  0  0  0  0  0  0  0  0
    5.5880    0.6100   18.5210 C   0  0  0  0  0  0  0  0  0  0  0  0
    4.3930    0.7610   19.3480 C   0  0  0  0  0  0  0  0  0  0  0  0
    4.3870    0.3750   20.6830 C   0  0  0  0  0  0  0  0  0  0  0  0
    8.7390   -5.6020   25.2080 N   0  0  0  0  0  0  0  0  0  0  0  0
    7.9100   -4.5400   25.1820 C   0  0  0  0  0  0  0  0  0  0  0  0
    7.5770   -3.8120   26.3310 C   0  0  0  0  0  0  0  0  0  0  0  0
    8.1200   -4.2090   27.5240 C   0  0  0  0  0  0  0  0  0  0  0  0
    8.9760   -5.2930   27.5980 C   0  0  0  0  0  0  0  0  0  0  0  0
    9.2510   -5.9500   26.4120 C   0  0  0  0  0  0  0  0  0  0  0  0
  1  4  1  0
  2  4  1  0
  3  4  2  0
  2  7  1  0
  7  9  1  0
  5 10  1  0
  7 10  2  0
  8 10  1  0
  5 11  1  0
 11 12  1  0
 12 13  3  0
 13 14  1  0
  8 15  1  0
  8 16  1  0
  5 18  1  0
 17 18  2  0
 18 19  1  0
  9 20  2  0
 16 21  2  0
 20 21  1  0
 21 22  1  0
  6 23  1  0
 22 23  2  0
 23 24  1  0
 20 25  1  0
 24 25  2  0
 26 27  2  0
 19 28  1  0
 27 28  1  0
 28 29  2  0
 29 30  1  0
 26 31  1  0
 30 31  2  0
M  END
