x0967-x0705
     RDKit          3D

 38 40  0  0  0  0  0  0  0  0999 V2000
    7.5960    4.6460   22.4650 C   0  0  0  0  0  0  0  0  0  0  0  0
    7.9410    2.3190   22.5980 N   0  0  0  0  0  0  0  0  0  0  0  0
    6.1980    3.4700   23.7540 O   0  0  0  0  0  0  0  0  0  0  0  0
    7.1620    3.5110   22.9970 C   0  0  0  0  0  0  0  0  0  0  0  0
    8.9330   -1.2270   22.9410 N   0  0  0  0  0  0  0  0  0  0  0  0
    5.7610    0.8560   17.0270 O   0  0  0  0  0  0  0  0  0  0  0  0
    7.6490    1.0640   23.1240 C   0  0  1  0  0  0  0  0  0  0  0  0
    9.6640    0.6940   21.9400 O   0  0  0  0  0  0  0  0  0  0  0  0
    6.3450    0.5540   22.6350 C   0  0  0  0  0  0  0  0  0  0  0  0
    8.7970    0.1460   22.6330 C   0  0  0  0  0  0  0  0  0  0  0  0
   10.0150   -1.9200   22.2050 C   0  0  0  0  0  0  0  0  0  0  0  0
   11.3250   -1.1560   22.1690 C   0  0  0  0  0  0  0  0  0  0  0  0
   12.1930   -1.6640   23.1160 C   0  0  0  0  0  0  0  0  0  0  0  0
   13.3240   -2.3680   24.4590 Br  0  0  0  0  0  0  0  0  0  0  0  0
    1.2350   -2.2610   27.3010 C   0  0  0  0  0  0  0  0  0  0  0  0
    7.4360   -1.5360   26.3080 O   0  0  0  0  0  0  0  0  0  0  0  0
    5.5470   -3.8850   19.7410 O   0  0  0  0  0  0  0  0  0  0  0  0
    6.3930   -1.7640   25.4050 C   0  0  0  0  0  0  0  0  0  0  0  0
    6.5860   -3.6280   20.4460 C   0  0  0  0  0  0  0  0  0  0  0  0
    7.8480   -3.7150   19.7910 C   0  0  0  0  0  0  0  0  0  0  0  0
    6.2110    0.6040   21.1390 C   0  0  0  0  0  0  0  0  0  0  0  0
    6.9950   -0.3410   20.3110 C   0  0  0  0  0  0  0  0  0  0  0  0
    6.7860   -0.1990   18.8630 C   0  0  0  0  0  0  0  0  0  0  0  0
    5.9110    0.7610   18.3520 C   0  0  0  0  0  0  0  0  0  0  0  0
    5.2150    1.6010   19.1940 C   0  0  0  0  0  0  0  0  0  0  0  0
    5.3410    1.5490   20.5740 C   0  0  0  0  0  0  0  0  0  0  0  0
    2.7160   -2.5180   27.1100 C   0  0  0  0  0  0  0  0  0  0  0  0
    2.7230   -1.5140   26.2010 C   0  0  0  0  0  0  0  0  0  0  0  0
    3.9610   -1.3090   25.6670 C   0  0  0  0  0  0  0  0  0  0  0  0
    5.0950   -2.0630   26.0270 C   0  0  0  0  0  0  0  0  0  0  0  0
    5.0440   -3.1150   26.9900 C   0  0  0  0  0  0  0  0  0  0  0  0
    3.8100   -3.4300   27.6230 C   0  0  0  0  0  0  0  0  0  0  0  0
    6.6200   -3.3480   21.8070 N   0  0  0  0  0  0  0  0  0  0  0  0
    5.4400   -3.2010   22.4990 C   0  0  0  0  0  0  0  0  0  0  0  0
    5.2940   -2.0380   23.2250 C   0  0  0  0  0  0  0  0  0  0  0  0
    6.5190   -1.7140   24.0110 N   0  0  0  0  0  0  0  0  0  0  0  0
    7.8770   -2.1490   23.4940 C   0  0  1  0  0  0  0  0  0  0  0  0
    7.7700   -3.2020   22.5930 C   0  0  0  0  0  0  0  0  0  0  0  0
  1  4  1  0
  2  4  1  0
  3  4  2  0
  2  7  1  0
  7  9  1  6
  5 10  1  0
  7 10  1  0
  8 10  2  0
  5 11  1  0
 11 12  1  0
 12 13  3  0
 13 14  1  0
 16 18  2  0
 17 19  2  0
 19 20  1  0
  9 21  1  0
 21 22  2  0
 22 23  1  0
  6 24  1  0
 23 24  2  0
 24 25  1  0
 21 26  1  0
 25 26  2  0
 15 27  1  0
 27 28  2  0
 28 29  1  0
 18 30  1  0
 29 30  2  0
 30 31  1  0
 27 32  1  0
 31 32  2  0
 19 33  1  0
 33 34  1  0
 34 35  1  0
 18 36  1  0
 35 36  1  0
 37  5  1  6
 36 37  1  0
 33 38  1  0
 37 38  1  0
M  END
