x0967-x0678
     RDKit          3D

 24 26  0  0  0  0  0  0  0  0999 V2000
    7.6250    4.6540   22.5870 C   0  0  0  0  0  0  0  0  0  0  0  0
    7.9660    2.3260   22.5730 N   0  0  0  0  0  0  0  0  0  0  0  0
    6.1880    3.3990   23.7580 O   0  0  0  0  0  0  0  0  0  0  0  0
    7.1730    3.4860   23.0320 C   0  0  0  0  0  0  0  0  0  0  0  0
    8.6150   -1.2870   22.3010 N   0  0  0  0  0  0  0  0  0  0  0  0
    5.8070    0.8110   16.9660 O   0  0  0  0  0  0  0  0  0  0  0  0
    7.6670    1.0220   22.9520 C   0  0  1  0  0  0  0  0  0  0  0  0
    9.6770    0.6880   21.7570 O   0  0  0  0  0  0  0  0  0  0  0  0
    6.3170    0.5580   22.5580 C   0  0  0  0  0  0  0  0  0  0  0  0
    8.7290    0.1180   22.2910 C   0  0  0  0  0  0  0  0  0  0  0  0
    9.8940   -2.0350   22.2150 C   0  0  0  0  0  0  0  0  0  0  0  0
   13.3090   -2.6510   23.7510 Se  0  0  0  0  0  2  0  0  0  0  0  0
    6.1300    0.6580   21.1110 C   0  0  0  0  0  0  0  0  0  0  0  0
    6.8460   -0.1860   20.2640 C   0  0  0  0  0  0  0  0  0  0  0  0
    6.7720   -0.1790   18.9130 C   0  0  0  0  0  0  0  0  0  0  0  0
    5.9240    0.7340   18.3250 C   0  0  0  0  0  0  0  0  0  0  0  0
    5.2270    1.5430   19.1410 C   0  0  0  0  0  0  0  0  0  0  0  0
    5.2800    1.5600   20.5420 C   0  0  0  0  0  0  0  0  0  0  0  0
   11.0140   -1.0410   22.4890 C   0  0  2  0  0  0  0  0  0  0  0  0
   12.3990   -1.5620   22.4050 C   0  0  1  0  0  0  0  0  0  0  0  0
   13.1780   -0.8240   23.4260 C   0  0  1  0  0  0  0  0  0  0  0  0
   12.5880   -0.1900   24.5060 C   0  0  0  0  0  0  0  0  0  0  0  0
   11.3600   -0.7170   24.7570 C   0  0  0  0  0  0  0  0  0  0  0  0
   10.5640   -0.4760   23.6850 C   0  0  0  0  0  0  0  0  0  0  0  0
  1  4  1  0
  2  4  1  0
  3  4  2  0
  2  7  1  0
  7  9  1  6
  5 10  1  0
  7 10  1  0
  8 10  2  0
  5 11  1  0
  9 13  1  0
 13 14  2  0
 14 15  1  0
  6 16  1  0
 15 16  2  0
 16 17  1  0
 13 18  1  0
 17 18  2  0
 19 11  1  1
 20 12  1  1
 19 20  1  0
 12 21  1  0
 20 21  1  0
 21 22  1  1
 22 23  1  0
 19 24  1  0
 23 24  1  0
M  END
