x0967-x0820
     RDKit          3D

 37 39  0  0  0  0  0  0  0  0999 V2000
    7.4770    4.8470   22.3190 C   0  0  0  0  0  0  0  0  0  0  0  0
    8.0850    2.5010   23.0990 N   0  0  0  0  0  0  0  0  0  0  0  0
    5.8110    3.4290   23.4480 O   0  0  0  0  0  0  0  0  0  0  0  0
    7.1320    3.5180   22.9720 C   0  0  0  0  0  0  0  0  0  0  0  0
    9.0470   -1.0400   22.8380 N   0  0  0  0  0  0  0  0  0  0  0  0
    5.6890    0.8110   17.0400 O   0  0  0  0  0  0  0  0  0  0  0  0
    7.8190    1.1440   23.0690 C   0  0  1  0  0  0  0  0  0  0  0  0
    9.6250    0.8320   21.6620 O   0  0  0  0  0  0  0  0  0  0  0  0
    6.5070    0.6170   22.6110 C   0  0  0  0  0  0  0  0  0  0  0  0
    8.8740    0.2890   22.4750 C   0  0  0  0  0  0  0  0  0  0  0  0
    9.9280   -1.8750   22.0510 C   0  0  0  0  0  0  0  0  0  0  0  0
   11.3790   -1.4590   21.8730 C   0  0  0  0  0  0  0  0  0  0  0  0
   12.1880   -1.8620   22.9240 C   0  0  0  0  0  0  0  0  0  0  0  0
   13.2910   -2.3810   24.3750 Br  0  0  0  0  0  0  0  0  0  0  0  0
    6.8040   -4.9320   21.7890 N   0  0  0  0  0  0  0  0  0  0  0  0
    7.2950   -2.7080   22.4360 C   0  0  0  0  0  0  0  0  0  0  0  0
    5.3510   -5.2780   20.0250 O   0  0  0  0  0  0  0  0  0  0  0  0
    7.2880   -4.0330   22.8200 C   0  0  1  0  0  0  0  0  0  0  0  0
    6.2750   -4.6260   20.5430 C   0  0  0  0  0  0  0  0  0  0  0  0
    6.8460   -3.5080   19.7470 C   0  0  0  0  0  0  0  0  0  0  0  0
    7.9870   -1.8040   23.4470 C   0  0  0  0  0  0  0  0  0  0  0  0
    6.3260    0.6120   21.1210 C   0  0  0  0  0  0  0  0  0  0  0  0
    7.0590   -0.3080   20.2570 C   0  0  0  0  0  0  0  0  0  0  0  0
    6.8360   -0.2430   18.8400 C   0  0  0  0  0  0  0  0  0  0  0  0
    5.9330    0.6940   18.3450 C   0  0  0  0  0  0  0  0  0  0  0  0
    5.2400    1.5630   19.1930 C   0  0  0  0  0  0  0  0  0  0  0  0
    5.4300    1.5240   20.5440 C   0  0  0  0  0  0  0  0  0  0  0  0
    6.3620   -4.2270   24.0070 C   0  0  0  0  0  0  0  0  0  0  0  0
    6.8490   -4.3310   25.2990 C   0  0  0  0  0  0  0  0  0  0  0  0
    5.9710   -4.5040   26.3780 C   0  0  0  0  0  0  0  0  0  0  0  0
    4.5930   -4.5730   26.1410 C   0  0  0  0  0  0  0  0  0  0  0  0
    4.0820   -4.4710   24.8400 C   0  0  0  0  0  0  0  0  0  0  0  0
    4.9730   -4.2980   23.7820 C   0  0  0  0  0  0  0  0  0  0  0  0
    6.4330   -4.6150   27.7120 C   0  0  0  0  0  0  0  0  0  0  0  0
    7.7890   -4.5620   28.0430 C   0  0  0  0  0  0  0  0  0  0  0  0
    8.7260   -4.3940   27.0460 C   0  0  0  0  0  0  0  0  0  0  0  0
    8.2280   -4.2730   25.6200 C   0  0  0  0  0  0  0  0  0  0  0  0
  1  4  1  0
  2  4  1  0
  3  4  2  0
  2  7  1  0
  7  9  1  6
  5 10  1  0
  7 10  1  0
  8 10  2  0
  5 11  1  0
 11 12  1  0
 12 13  3  0
 13 14  1  0
 15 18  1  0
 18 16  1  6
 15 19  1  0
 17 19  2  0
 19 20  1  0
  5 21  1  0
 16 21  1  0
  9 22  1  0
 22 23  2  0
 23 24  1  0
  6 25  1  0
 24 25  2  0
 25 26  1  0
 22 27  1  0
 26 27  2  0
 18 28  1  0
 28 29  2  0
 29 30  1  0
 30 31  2  0
 31 32  1  0
 28 33  1  0
 32 33  2  0
 30 34  1  0
 34 35  2  0
 35 36  1  0
 29 37  1  0
 36 37  2  0
M  END
