x0978-x2705
     RDKit          3D

 45 47  0  0  0  0  0  0  0  0999 V2000
    7.0190   -1.7640   21.8660 N   0  0  0  0  0  0  0  0  0  0  0  0
    6.8680   -5.1260   20.6220 C   0  0  0  0  0  0  0  0  0  0  0  0
    4.8270   -3.0360   21.2750 O   0  0  0  0  0  0  0  0  0  0  0  0
    6.6330   -4.3620   21.8980 C   0  0  1  0  0  0  0  0  0  0  0  0
    7.3960    1.7790   22.7820 N   0  0  0  0  0  0  0  0  0  0  0  0
    8.9290    0.5140   21.5970 O   0  0  0  0  0  0  0  0  0  0  0  0
    6.0740   -2.9720   21.6700 C   0  0  0  0  0  0  0  0  0  0  0  0
    6.6360   -0.2940   21.6180 C   0  0  1  0  0  0  0  0  0  0  0  0
    7.7750    0.6680   21.9910 C   0  0  0  0  0  0  0  0  0  0  0  0
   10.0810    1.8670   23.9390 C   0  0  0  0  0  0  0  0  0  0  0  0
    9.2310    1.1430   24.9780 C   0  0  0  0  0  0  0  0  0  0  0  0
    6.0780    4.3050   21.8250 C   0  0  0  0  0  0  0  0  0  0  0  0
   12.0810   -1.5640   23.2720 C   0  0  0  0  0  0  0  0  0  0  0  0
   12.5060   -0.2890   23.6600 C   0  0  0  0  0  0  0  0  0  0  0  0
   12.5880   -2.5670   24.3340 C   0  0  0  0  0  0  0  0  0  0  0  0
   12.7710   -1.9100   21.9360 C   0  0  0  0  0  0  0  0  0  0  0  0
    2.2740   -5.3340   23.1040 N   0  0  0  0  0  0  0  0  0  0  0  0
    2.7060   -6.9420   25.2470 C   0  0  0  0  0  0  0  0  0  0  0  0
    4.6320   -7.7810   24.2450 O   0  0  0  0  0  0  0  0  0  0  0  0
    3.3730   -7.2410   23.9750 C   0  0  2  0  0  0  0  0  0  0  0  0
    5.7000   -5.2760   22.6240 N   0  0  0  0  0  0  0  0  0  0  0  0
    1.2370   -7.2790   22.1090 O   0  0  0  0  0  0  0  0  0  0  0  0
    3.4390   -6.0400   23.1130 C   0  0  2  0  0  0  0  0  0  0  0  0
    4.2610   -4.0760   23.9420 O   0  0  0  0  0  0  0  0  0  0  0  0
    1.1840   -6.0620   22.7070 C   0  0  0  0  0  0  0  0  0  0  0  0
   -0.0380   -5.4230   22.9670 C   0  0  0  0  0  0  0  0  0  0  0  0
    4.4610   -5.0780   23.2660 C   0  0  0  0  0  0  0  0  0  0  0  0
    5.8830   -5.8600   20.1590 C   0  0  0  0  0  0  0  0  0  0  0  0
    6.3450    0.2780   17.8180 N   0  0  0  0  0  0  0  0  0  0  0  0
    5.1890    0.9640   17.8530 C   0  0  0  0  0  0  0  0  0  0  0  0
    4.4400    1.2660   18.9660 C   0  0  0  0  0  0  0  0  0  0  0  0
    4.9010    0.8440   20.1990 C   0  0  0  0  0  0  0  0  0  0  0  0
    6.0860    0.1380   20.2970 C   0  0  0  0  0  0  0  0  0  0  0  0
    6.7890   -0.1460   19.1380 C   0  0  0  0  0  0  0  0  0  0  0  0
    9.7130   -1.6430   24.2380 N   0  0  0  0  0  0  0  0  0  0  0  0
    8.3910   -1.7040   23.9210 N   0  0  0  0  0  0  0  0  0  0  0  0
    8.2840   -1.7370   22.5850 C   0  0  0  0  0  0  0  0  0  0  0  0
    9.6130   -1.7020   22.1240 C   0  0  0  0  0  0  0  0  0  0  0  0
   10.5500   -1.6360   23.1610 C   0  0  0  0  0  0  0  0  0  0  0  0
    9.3570    3.1020   23.4540 C   0  0  0  0  0  0  0  0  0  0  0  0
   10.1310    4.4210   23.6140 C   0  0  0  0  0  0  0  0  0  0  0  0
    9.4260    5.6940   23.1270 C   0  0  0  0  0  0  0  0  0  0  0  0
    8.1590    5.6100   22.5730 C   0  0  0  0  0  0  0  0  0  0  0  0
    7.4490    4.2470   22.4470 C   0  0  0  0  0  0  0  0  0  0  0  0
    8.0610    3.0630   22.8870 C   0  0  0  0  0  0  0  0  0  0  0  0
  4  2  1  6
  1  7  1  0
  3  7  2  0
  4  7  1  0
  1  8  1  0
  5  9  1  0
  6  9  2  0
  8  9  1  6
 10 11  1  0
 13 14  1  0
 13 15  1  0
 13 16  1  0
 20 18  1  1
 19 20  1  0
  4 21  1  0
 23 17  1  1
 20 23  1  0
 17 25  1  0
 22 25  2  0
 25 26  1  0
 21 27  1  0
 23 27  1  0
 24 27  2  0
  2 28  2  3
 29 30  2  0
 30 31  1  0
 31 32  2  0
  8 33  1  0
 32 33  1  0
 29 34  1  0
 33 34  2  0
 35 36  1  0
  1 37  1  0
 36 37  2  0
 37 38  1  0
 13 39  1  0
 35 39  1  0
 38 39  2  0
 10 40  1  0
 40 41  2  0
 41 42  1  0
 42 43  2  0
 12 44  1  0
 43 44  1  0
  5 45  1  0
 40 45  1  0
 44 45  2  0
M  END
