x0978-x1308
     RDKit          3D

 27 29  0  0  0  0  0  0  0  0999 V2000
    2.5330   -8.3720   24.8210 C   0  0  0  0  0  0  0  0  0  0  0  0
    2.1940   -5.6030   23.0040 N   0  0  0  0  0  0  0  0  0  0  0  0
    4.2690   -6.9310   25.7420 N   0  0  0  0  0  0  0  0  0  0  0  0
    3.1030   -6.9640   24.8250 C   0  0  1  0  0  0  0  0  0  0  0  0
    0.9610   -7.2910   22.0560 O   0  0  0  0  0  0  0  0  0  0  0  0
    3.3780   -6.3740   23.4250 C   0  0  2  0  0  0  0  0  0  0  0  0
    4.1260   -4.1190   23.0120 O   0  0  0  0  0  0  0  0  0  0  0  0
    1.0090   -6.2070   22.6130 C   0  0  0  0  0  0  0  0  0  0  0  0
   -0.2480   -5.4310   22.9050 C   0  0  0  0  0  0  0  0  0  0  0  0
    6.8320   -4.3280   20.8800 C   0  0  0  0  0  0  0  0  0  0  0  0
    5.6460   -4.0680   20.0120 C   0  0  0  0  0  0  0  0  0  0  0  0
    7.7500   -3.1270   20.7970 C   0  0  0  0  0  0  0  0  0  0  0  0
    0.8300   -1.1770   26.7340 Cl  0  0  0  0  0  0  0  0  0  0  0  0
    6.0160   -5.3000   26.9780 O   0  0  0  0  0  0  0  0  0  0  0  0
    4.8960   -5.5680   26.0980 S   0  0  1  0  0  0  0  0  0  0  0  0
    6.3880   -4.6470   22.2040 N   0  0  0  0  0  0  0  0  0  0  0  0
    7.4120   -4.7420   23.2520 C   0  0  0  0  0  0  0  0  0  0  0  0
    6.7990   -4.5310   24.4400 C   0  0  0  0  0  0  0  0  0  0  0  0
    5.5450   -5.2840   24.5990 N   0  0  0  0  0  0  0  0  0  0  0  0
    4.6640   -5.4090   23.4090 C   0  0  1  0  0  0  0  0  0  0  0  0
    5.5980   -5.6580   22.2840 C   0  0  0  0  0  0  0  0  0  0  0  0
    4.3180   -3.2270   26.5390 C   0  0  0  0  0  0  0  0  0  0  0  0
    3.3940   -2.2320   26.6790 C   0  0  0  0  0  0  0  0  0  0  0  0
    1.9220   -2.4860   26.5250 C   0  0  0  0  0  0  0  0  0  0  0  0
    1.3380   -3.8250   26.2030 C   0  0  0  0  0  0  0  0  0  0  0  0
    2.4270   -4.8630   26.0670 C   0  0  0  0  0  0  0  0  0  0  0  0
    3.9030   -4.5260   26.2440 C   0  0  0  0  0  0  0  0  0  0  0  0
  4  1  1  6
  3  4  1  0
  6  2  1  1
  4  6  1  0
  2  8  1  0
  5  8  2  0
  8  9  1  0
 10 11  1  0
 10 12  1  0
  3 15  2  0
 14 15  2  0
 10 16  1  0
 16 17  1  0
 17 18  1  0
 15 19  1  0
 18 19  1  0
  6 20  1  0
 20  7  1  6
 19 20  1  0
 16 21  1  0
 20 21  1  0
 22 23  2  0
 13 24  1  0
 23 24  1  0
 24 25  2  0
 25 26  1  0
 15 27  1  1
 22 27  1  0
 26 27  2  0
M  END
