x0978-x2703
     RDKit          3D

 45 47  0  0  0  0  0  0  0  0999 V2000
    6.8410   -1.8140   21.8840 N   0  0  0  0  0  0  0  0  0  0  0  0
    6.3250   -4.3440   19.9710 C   0  0  0  0  0  0  0  0  0  0  0  0
    4.6130   -3.0000   21.6290 O   0  0  0  0  0  0  0  0  0  0  0  0
    6.3810   -4.3410   21.4530 C   0  0  1  0  0  0  0  0  0  0  0  0
    7.2360    1.7300   22.7410 N   0  0  0  0  0  0  0  0  0  0  0  0
    8.7780    0.4550   21.5670 O   0  0  0  0  0  0  0  0  0  0  0  0
    5.8820   -2.9730   21.7040 C   0  0  0  0  0  0  0  0  0  0  0  0
    6.4810   -0.3460   21.6160 C   0  0  1  0  0  0  0  0  0  0  0  0
    7.6260    0.6150   21.9640 C   0  0  0  0  0  0  0  0  0  0  0  0
    9.9740    1.7650   24.0090 C   0  0  0  0  0  0  0  0  0  0  0  0
    9.1020    1.1540   25.1010 C   0  0  0  0  0  0  0  0  0  0  0  0
    6.0430    4.1510   21.7310 C   0  0  0  0  0  0  0  0  0  0  0  0
   11.9680   -1.6450   24.5760 C   0  0  0  0  0  0  0  0  0  0  0  0
   12.5320   -2.8990   24.7220 C   0  0  0  0  0  0  0  0  0  0  0  0
   12.9440   -0.8410   23.7250 C   0  0  0  0  0  0  0  0  0  0  0  0
    2.2510   -5.4630   23.0440 N   0  0  0  0  0  0  0  0  0  0  0  0
    2.4200   -7.9260   24.5600 C   0  0  0  0  0  0  0  0  0  0  0  0
    4.5430   -7.6040   24.5450 O   0  0  0  0  0  0  0  0  0  0  0  0
    3.3860   -6.9270   24.4280 C   0  0  1  0  0  0  0  0  0  0  0  0
    5.4630   -5.3510   22.0200 N   0  0  0  0  0  0  0  0  0  0  0  0
    1.2260   -7.3240   22.1360 O   0  0  0  0  0  0  0  0  0  0  0  0
    3.4060   -6.1790   23.1400 C   0  0  2  0  0  0  0  0  0  0  0  0
    4.5940   -4.2610   23.8300 O   0  0  0  0  0  0  0  0  0  0  0  0
    1.1690   -6.2100   22.6440 C   0  0  0  0  0  0  0  0  0  0  0  0
   -0.0570   -5.5600   22.8590 C   0  0  0  0  0  0  0  0  0  0  0  0
    4.5190   -5.1930   23.0420 C   0  0  0  0  0  0  0  0  0  0  0  0
    5.5460   -3.4160   19.3850 C   0  0  0  0  0  0  0  0  0  0  0  0
    6.3250    0.2890   17.9420 N   0  0  0  0  0  0  0  0  0  0  0  0
    5.1670    0.9730   17.8750 C   0  0  0  0  0  0  0  0  0  0  0  0
    4.3350    1.2720   18.9380 C   0  0  0  0  0  0  0  0  0  0  0  0
    4.7740    0.8180   20.1620 C   0  0  0  0  0  0  0  0  0  0  0  0
    5.9610    0.1190   20.2890 C   0  0  0  0  0  0  0  0  0  0  0  0
    6.7130   -0.1340   19.1550 C   0  0  0  0  0  0  0  0  0  0  0  0
   10.6270   -2.0420   22.4910 N   0  0  0  0  0  0  0  0  0  0  0  0
   10.6620   -1.7400   23.8080 C   0  0  0  0  0  0  0  0  0  0  0  0
    9.4830   -1.4940   24.4840 C   0  0  0  0  0  0  0  0  0  0  0  0
    8.2340   -1.5310   23.8880 C   0  0  0  0  0  0  0  0  0  0  0  0
    8.1460   -1.8230   22.5330 C   0  0  0  0  0  0  0  0  0  0  0  0
    9.3850   -2.0770   21.8970 C   0  0  0  0  0  0  0  0  0  0  0  0
    9.2770    2.9870   23.4630 C   0  0  0  0  0  0  0  0  0  0  0  0
   10.0400    4.3210   23.5830 C   0  0  0  0  0  0  0  0  0  0  0  0
    9.4540    5.4770   23.1030 C   0  0  0  0  0  0  0  0  0  0  0  0
    8.0660    5.3770   22.4660 C   0  0  0  0  0  0  0  0  0  0  0  0
    7.4040    4.1410   22.3760 C   0  0  0  0  0  0  0  0  0  0  0  0
    7.9860    2.9610   22.8630 C   0  0  0  0  0  0  0  0  0  0  0  0
  4  2  1  6
  1  7  1  0
  3  7  2  0
  4  7  1  0
  1  8  1  0
  5  9  1  0
  6  9  2  0
  8  9  1  6
 10 11  1  0
 13 14  1  0
 13 15  1  0
 19 17  1  6
 18 19  1  0
  4 20  1  0
 22 16  1  1
 19 22  1  0
 16 24  1  0
 21 24  2  0
 24 25  1  0
 20 26  1  0
 22 26  1  0
 23 26  2  0
  2 27  2  3
 28 29  2  0
 29 30  1  0
 30 31  2  0
  8 32  1  0
 31 32  1  0
 28 33  1  0
 32 33  2  0
 13 35  1  0
 34 35  2  0
 35 36  1  0
 36 37  2  0
  1 38  1  0
 37 38  1  0
 34 39  1  0
 38 39  2  0
 10 40  1  0
 40 41  2  0
 41 42  1  0
 42 43  2  0
 12 44  1  0
 43 44  1  0
  5 45  1  0
 40 45  1  0
 44 45  2  0
M  END
