x0978-x3113
     RDKit          3D

 42 43  0  0  0  0  0  0  0  0999 V2000
    6.8580   -1.8420   22.0210 N   0  0  0  0  0  0  0  0  0  0  0  0
    6.4450   -4.1300   19.7430 C   0  0  0  0  0  0  0  0  0  0  0  0
    4.5390   -2.9500   21.6910 O   0  0  0  0  0  0  0  0  0  0  0  0
    6.0500   -4.2550   21.1720 C   0  0  0  0  0  0  0  0  0  0  0  0
    7.9430    1.1250   23.2330 N   0  0  0  0  0  0  0  0  0  0  0  0
    8.8650    0.4990   21.2340 O   0  0  0  0  0  0  0  0  0  0  0  0
    5.8230   -2.9320   21.7040 C   0  0  0  0  0  0  0  0  0  0  0  0
   12.1370    3.3840   22.7390 O   0  0  0  0  0  0  0  0  0  0  0  0
    6.6630   -0.3730   21.6750 C   0  0  1  0  0  0  0  0  0  0  0  0
    7.9230    0.4330   22.0100 C   0  0  0  0  0  0  0  0  0  0  0  0
    8.8090    2.3500   23.3180 C   0  0  0  0  0  0  0  0  0  0  0  0
   10.3280    2.0970   23.3930 C   0  0  0  0  0  0  0  0  0  0  0  0
   11.0080    3.3160   23.2080 C   0  0  0  0  0  0  0  0  0  0  0  0
   12.8410    4.4080   22.7430 C   0  0  0  0  0  0  0  0  0  0  0  0
   12.4790   -1.8960   24.0660 C   0  0  0  0  0  0  0  0  0  0  0  0
   13.3510   -2.0300   23.0540 C   0  0  0  0  0  0  0  0  0  0  0  0
   12.8320   -3.0200   25.0410 C   0  0  0  0  0  0  0  0  0  0  0  0
   12.6640   -0.6730   24.7580 C   0  0  0  0  0  0  0  0  0  0  0  0
    2.4030   -5.5580   22.8660 N   0  0  0  0  0  0  0  0  0  0  0  0
    2.3820   -7.9050   24.5250 C   0  0  0  0  0  0  0  0  0  0  0  0
    4.6530   -7.6920   24.5430 O   0  0  0  0  0  0  0  0  0  0  0  0
    3.4830   -6.9480   24.3360 C   0  0  1  0  0  0  0  0  0  0  0  0
    5.8500   -5.3820   22.0840 N   0  0  0  0  0  0  0  0  0  0  0  0
    1.1540   -7.3190   22.1030 O   0  0  0  0  0  0  0  0  0  0  0  0
    3.5540   -6.2460   23.1200 C   0  0  2  0  0  0  0  0  0  0  0  0
    4.6310   -4.1770   23.9520 O   0  0  0  0  0  0  0  0  0  0  0  0
    1.2290   -6.2020   22.6080 C   0  0  0  0  0  0  0  0  0  0  0  0
    0.0580   -5.4950   22.9500 C   0  0  0  0  0  0  0  0  0  0  0  0
    4.6650   -5.2800   23.0670 C   0  0  0  0  0  0  0  0  0  0  0  0
    5.9270   -3.1310   19.0250 C   0  0  0  0  0  0  0  0  0  0  0  0
    6.4340    0.2840   17.9520 N   0  0  0  0  0  0  0  0  0  0  0  0
    5.3110    1.0300   17.9190 C   0  0  0  0  0  0  0  0  0  0  0  0
    4.5580    1.3550   19.0330 C   0  0  0  0  0  0  0  0  0  0  0  0
    4.9870    0.8910   20.2710 C   0  0  0  0  0  0  0  0  0  0  0  0
    6.1470    0.1230   20.3450 C   0  0  0  0  0  0  0  0  0  0  0  0
    6.8380   -0.1600   19.1620 C   0  0  0  0  0  0  0  0  0  0  0  0
    9.3630   -2.1860   21.8140 C   0  0  0  0  0  0  0  0  0  0  0  0
   10.6930   -2.1970   22.2770 C   0  0  0  0  0  0  0  0  0  0  0  0
   11.0110   -1.9110   23.6020 C   0  0  0  0  0  0  0  0  0  0  0  0
    9.8790   -1.5970   24.5500 C   0  0  0  0  0  0  0  0  0  0  0  0
    8.4630   -1.6160   23.9580 C   0  0  0  0  0  0  0  0  0  0  0  0
    8.2340   -1.8990   22.6070 C   0  0  0  0  0  0  0  0  0  0  0  0
  2  4  1  0
  1  7  1  0
  3  7  2  0
  4  7  1  0
  1  9  1  0
  5 10  1  0
  6 10  2  0
  9 10  1  6
  5 11  1  0
 11 12  1  0
  8 13  1  0
 12 13  1  0
  8 14  1  0
 15 16  1  0
 15 17  1  0
 15 18  1  0
 22 20  1  6
 21 22  1  0
  4 23  1  0
 25 19  1  1
 22 25  1  0
 19 27  1  0
 24 27  2  0
 27 28  1  0
 23 29  1  0
 25 29  1  0
 26 29  2  0
  2 30  2  3
 31 32  2  0
 32 33  1  0
 33 34  2  0
  9 35  1  0
 34 35  1  0
 31 36  1  0
 35 36  2  0
 37 38  2  0
 15 39  1  0
 38 39  1  0
 39 40  2  0
 40 41  1  0
  1 42  1  0
 37 42  1  0
 41 42  2  0
M  END
