x0978-x2776
     RDKit          3D

 46 48  0  0  0  0  0  0  0  0999 V2000
    6.8140   -1.7010   21.9470 N   0  0  0  0  0  0  0  0  0  0  0  0
    6.4450   -4.2740   19.9920 C   0  0  0  0  0  0  0  0  0  0  0  0
    4.6200   -2.9440   21.5370 O   0  0  0  0  0  0  0  0  0  0  0  0
    6.4120   -4.2470   21.4880 C   0  0  1  0  0  0  0  0  0  0  0  0
    7.6200    1.7600   22.8080 N   0  0  0  0  0  0  0  0  0  0  0  0
    8.8350    0.4830   21.3030 O   0  0  0  0  0  0  0  0  0  0  0  0
    5.8830   -2.8810   21.6960 C   0  0  0  0  0  0  0  0  0  0  0  0
   10.7660    6.4110   23.7480 O   0  0  0  0  0  0  0  0  0  0  0  0
    6.5290   -0.2100   21.6760 C   0  0  1  0  0  0  0  0  0  0  0  0
   12.8470   -2.9680   24.3890 O   0  0  0  0  0  0  0  0  0  0  0  0
    7.7790    0.6810   21.8940 C   0  0  0  0  0  0  0  0  0  0  0  0
   10.3410    1.6000   23.9500 C   0  0  0  0  0  0  0  0  0  0  0  0
   11.7620    6.2880   24.7660 C   0  0  0  0  0  0  0  0  0  0  0  0
   12.2500   -1.6740   24.3270 C   0  0  1  0  0  0  0  0  0  0  0  0
   13.0240   -0.8420   23.5690 C   0  0  0  0  0  0  0  0  0  0  0  0
   13.2460   -3.3270   25.6980 C   0  0  0  0  0  0  0  0  0  0  0  0
    2.2880   -5.4160   23.0970 N   0  0  0  0  0  0  0  0  0  0  0  0
    2.7090   -6.9920   25.1720 C   0  0  0  0  0  0  0  0  0  0  0  0
    4.6200   -7.7650   24.2190 O   0  0  0  0  0  0  0  0  0  0  0  0
    3.3860   -7.1560   23.9520 C   0  0  2  0  0  0  0  0  0  0  0  0
    5.4890   -5.2880   22.0360 N   0  0  0  0  0  0  0  0  0  0  0  0
    1.2160   -7.2400   22.1120 O   0  0  0  0  0  0  0  0  0  0  0  0
    3.4790   -6.0660   23.0650 C   0  0  2  0  0  0  0  0  0  0  0  0
    4.6700   -4.4000   23.9870 O   0  0  0  0  0  0  0  0  0  0  0  0
    1.1770   -6.1470   22.6660 C   0  0  0  0  0  0  0  0  0  0  0  0
   -0.0760   -5.4330   22.9540 C   0  0  0  0  0  0  0  0  0  0  0  0
    4.5370   -5.2210   23.0900 C   0  0  0  0  0  0  0  0  0  0  0  0
    5.7100   -3.3460   19.3440 C   0  0  0  0  0  0  0  0  0  0  0  0
    6.5280    0.3770   17.9990 N   0  0  0  0  0  0  0  0  0  0  0  0
    5.3750    1.0620   17.8460 C   0  0  0  0  0  0  0  0  0  0  0  0
    4.5220    1.3660   18.8610 C   0  0  0  0  0  0  0  0  0  0  0  0
    4.7970    0.9840   20.1610 C   0  0  0  0  0  0  0  0  0  0  0  0
    5.9700    0.2920   20.3640 C   0  0  0  0  0  0  0  0  0  0  0  0
    6.7820    0.0150   19.2700 C   0  0  0  0  0  0  0  0  0  0  0  0
    9.6950    2.9050   23.5670 C   0  0  0  0  0  0  0  0  0  0  0  0
   10.4570    4.0780   23.7910 C   0  0  0  0  0  0  0  0  0  0  0  0
    9.9360    5.3350   23.4750 C   0  0  0  0  0  0  0  0  0  0  0  0
    8.6570    5.4170   22.9230 C   0  0  0  0  0  0  0  0  0  0  0  0
    7.8920    4.2500   22.6930 C   0  0  0  0  0  0  0  0  0  0  0  0
    8.3970    2.9760   23.0160 C   0  0  0  0  0  0  0  0  0  0  0  0
    9.2920   -2.0260   21.7820 C   0  0  0  0  0  0  0  0  0  0  0  0
   10.7170   -2.0260   22.3490 C   0  0  0  0  0  0  0  0  0  0  0  0
   10.8830   -1.7300   23.6890 C   0  0  0  0  0  0  0  0  0  0  0  0
    9.6290   -1.4440   24.5060 C   0  0  0  0  0  0  0  0  0  0  0  0
    8.3630   -1.4670   23.9040 C   0  0  0  0  0  0  0  0  0  0  0  0
    8.1640   -1.7440   22.5520 C   0  0  0  0  0  0  0  0  0  0  0  0
  4  2  1  6
  1  7  1  0
  3  7  2  0
  4  7  1  0
  1  9  1  0
  5 11  1  0
  6 11  2  0
  9 11  1  6
  8 13  1  0
 10 14  1  0
 14 15  1  6
 10 16  1  0
 20 18  1  1
 19 20  1  0
  4 21  1  0
 23 17  1  1
 20 23  1  0
 17 25  1  0
 22 25  2  0
 25 26  1  0
 21 27  1  0
 23 27  1  0
 24 27  2  0
  2 28  2  3
 29 30  2  0
 30 31  1  0
 31 32  2  0
  9 33  1  0
 32 33  1  0
 29 34  1  0
 33 34  2  0
 12 35  1  0
 35 36  2  0
  8 37  1  0
 36 37  1  0
 37 38  2  0
 38 39  1  0
  5 40  1  0
 35 40  1  0
 39 40  2  0
 41 42  2  0
 14 43  1  0
 42 43  1  0
 43 44  2  0
 44 45  1  0
  1 46  1  0
 41 46  1  0
 45 46  2  0
M  END
