x0981-x1402-x2540-x2643
     RDKit          3D

 53 58  0  0  0  0  0  0  0  0999 V2000
    6.9110   -1.2860   21.7560 N   0  0  0  0  0  0  0  0  0  0  0  0
    6.8110   -4.6570   20.8260 C   0  0  2  0  0  0  0  0  0  0  0  0
    4.7720   -2.9030   21.2020 O   0  0  0  0  0  0  0  0  0  0  0  0
    6.9170   -3.6100   21.8550 C   0  0  0  0  0  0  0  0  0  0  0  0
    7.9100    1.7920   23.0360 N   0  0  0  0  0  0  0  0  0  0  0  0
    8.5960    1.5770   20.9630 O   0  0  0  0  0  0  0  0  0  0  0  0
    6.0510   -2.5260   21.5550 C   0  0  0  0  0  0  0  0  0  0  0  0
    6.5930    0.1750   21.5300 C   0  0  1  0  0  0  0  0  0  0  0  0
    7.7720    1.2070   21.8120 C   0  0  0  0  0  0  0  0  0  0  0  0
    8.8870    2.8410   23.3750 C   0  0  0  0  0  0  0  0  0  0  0  0
    8.8470    3.0410   24.8660 C   0  0  0  0  0  0  0  0  0  0  0  0
    8.4820    4.1870   22.7290 C   0  0  0  0  0  0  0  0  0  0  0  0
   10.3290    2.5030   22.9390 C   0  0  0  0  0  0  0  0  0  0  0  0
   11.9000   -1.3350   23.5420 C   0  0  0  0  0  0  0  0  0  0  0  0
   12.7640   -1.2480   22.2750 C   0  0  0  0  0  0  0  0  0  0  0  0
   12.1650   -0.0820   24.3860 C   0  0  0  0  0  0  0  0  0  0  0  0
   12.4030   -2.5540   24.3460 C   0  0  0  0  0  0  0  0  0  0  0  0
    1.2950   -8.7200   21.4110 C   0  0  0  0  0  0  0  0  0  0  0  0
    2.8820   -7.6190   22.6400 N   0  0  0  0  0  0  0  0  0  0  0  0
    0.8010   -6.7280   22.3300 O   0  0  0  0  0  0  0  0  0  0  0  0
    1.6080   -7.6370   22.1430 C   0  0  0  0  0  0  0  0  0  0  0  0
    3.0070   -7.9680   26.6090 N   0  0  0  0  0  0  0  0  0  0  0  0
    3.1160   -8.8680   24.6220 O   0  0  0  0  0  0  0  0  0  0  0  0
    3.3260   -6.6010   23.3510 C   0  0  1  0  0  0  0  0  0  0  0  0
    4.1100   -4.4840   22.7950 O   0  0  0  0  0  0  0  0  0  0  0  0
    3.5530   -6.7330   24.7090 C   0  0  0  0  0  0  0  0  0  0  0  0
    3.2180   -7.9280   25.3420 C   0  0  0  0  0  0  0  0  0  0  0  0
    5.4440   -4.7770   20.2740 C   0  0  0  0  0  0  0  0  0  0  0  0
    2.1890   -0.2190   26.1070 Cl  0  0  0  0  0  0  0  0  0  0  0  0
    4.2300   -5.8490   26.9420 O   0  0  0  0  0  0  0  0  0  0  0  0
    4.0260   -5.3580   25.5990 S   0  0  2  0  0  0  0  0  0  0  0  0
    6.2950    0.5110   17.8530 N   0  0  0  0  0  0  0  0  0  0  0  0
    5.2310    1.2980   17.7110 C   0  0  0  0  0  0  0  0  0  0  0  0
    4.4760    1.7840   18.8100 C   0  0  0  0  0  0  0  0  0  0  0  0
    4.8310    1.4650   20.1000 C   0  0  0  0  0  0  0  0  0  0  0  0
    6.0570    0.5790   20.2140 C   0  0  0  0  0  0  0  0  0  0  0  0
    6.6860    0.1700   19.0600 C   0  0  0  0  0  0  0  0  0  0  0  0
    9.5830   -1.9000   24.2210 O   0  0  0  0  0  0  0  0  0  0  0  0
    8.2410   -1.9100   23.7980 N   0  0  0  0  0  0  0  0  0  0  0  0
    8.1630   -1.4360   22.5270 C   0  0  0  0  0  0  0  0  0  0  0  0
    9.4970   -1.1500   22.2050 C   0  0  0  0  0  0  0  0  0  0  0  0
   10.4010   -1.4240   23.2420 C   0  0  0  0  0  0  0  0  0  0  0  0
    6.8630   -5.7080   21.8990 N   0  0  0  0  0  0  0  0  0  0  0  0
    7.2130   -5.2560   23.2730 C   0  0  0  0  0  0  0  0  0  0  0  0
    6.1670   -4.6110   24.0440 C   0  0  0  0  0  0  0  0  0  0  0  0
    4.7780   -4.9510   23.9480 C   0  0  2  0  0  0  0  0  0  0  0  0
    4.5270   -5.8490   22.9190 C   0  0  1  0  0  0  0  0  0  0  0  0
    5.5820   -6.4440   22.1270 C   0  0  0  0  0  0  0  0  0  0  0  0
    2.8320   -3.0010   25.8110 S   0  0  0  0  0  0  0  0  0  0  0  0
    4.4140   -3.6770   25.7460 C   0  0  0  0  0  0  0  0  0  0  0  0
    5.4430   -2.7740   25.8320 C   0  0  0  0  0  0  0  0  0  0  0  0
    4.8410   -1.3940   25.9690 C   0  0  0  0  0  0  0  0  0  0  0  0
    3.3780   -1.4460   25.9690 C   0  0  0  0  0  0  0  0  0  0  0  0
  2  4  1  0
  1  7  1  0
  3  7  2  0
  4  7  1  0
  1  8  1  0
  5  9  1  0
  6  9  2  0
  8  9  1  6
 10  5  1  0
 10 11  1  0
 10 12  1  0
 10 13  1  0
 14 15  1  0
 14 16  1  0
 14 17  1  0
 18 21  1  0
 19 21  1  0
 20 21  2  0
 24 19  1  6
 24 26  1  0
 22 27  1  0
 23 27  2  0
 26 27  1  0
  2 28  1  1
 26 31  2  0
 30 31  2  0
 32 33  2  0
 33 34  1  0
 34 35  2  0
  8 36  1  0
 35 36  1  0
 32 37  1  0
 36 37  2  0
 38 39  1  0
  1 40  1  0
 39 40  2  0
 40 41  1  0
 14 42  1  0
 38 42  1  0
 41 42  2  0
  2 43  1  0
 43 44  1  0
 44 45  1  0
 46 25  1  0
 31 46  1  0
 46 45  1  1
 24 47  1  0
 47 25  1  0
 46 47  1  0
 43 48  1  0
 47 48  1  6
 31 50  1  1
 49 50  1  0
 50 51  2  0
 51 52  1  0
 29 53  1  0
 49 53  1  0
 52 53  2  0
M  END
