x0981-x2540-x1382-x2643
     RDKit          3D

 42 43  0  0  0  0  0  0  0  0999 V2000
    6.7260   -1.2250   22.0630 N   0  0  0  0  0  0  0  0  0  0  0  0
    7.1040   -4.2370   20.8050 C   0  0  2  0  0  0  0  0  0  0  0  0
    4.9620   -3.2020   21.2620 O   0  0  0  0  0  0  0  0  0  0  0  0
    6.9710   -2.8330   21.3660 C   0  0  1  0  0  0  0  0  0  0  0  0
    7.9790    1.8920   23.0680 N   0  0  0  0  0  0  0  0  0  0  0  0
    8.7360    1.5300   20.9530 O   0  0  0  0  0  0  0  0  0  0  0  0
    5.6550   -2.1450   21.7020 C   0  0  0  0  0  0  0  0  0  0  0  0
    6.6930    0.2630   21.6850 C   0  0  1  0  0  0  0  0  0  0  0  0
    7.9250    1.2760   21.8390 C   0  0  0  0  0  0  0  0  0  0  0  0
    8.9450    2.9410   23.4170 C   0  0  0  0  0  0  0  0  0  0  0  0
    8.8650    3.1140   24.9020 C   0  0  0  0  0  0  0  0  0  0  0  0
    8.5370    4.2650   22.7450 C   0  0  0  0  0  0  0  0  0  0  0  0
   10.3850    2.6060   22.9810 C   0  0  0  0  0  0  0  0  0  0  0  0
   11.7370   -1.4450   23.6140 C   0  0  0  0  0  0  0  0  0  0  0  0
   12.6020   -1.1550   22.3740 C   0  0  0  0  0  0  0  0  0  0  0  0
   11.7950   -0.2180   24.5420 C   0  0  0  0  0  0  0  0  0  0  0  0
   12.4340   -2.5920   24.3670 C   0  0  0  0  0  0  0  0  0  0  0  0
    1.2920   -8.6140   21.5380 C   0  0  0  0  0  0  0  0  0  0  0  0
    2.7440   -7.2230   22.7120 N   0  0  0  0  0  0  0  0  0  0  0  0
    0.5940   -6.5800   22.3000 O   0  0  0  0  0  0  0  0  0  0  0  0
    1.4920   -7.4100   22.2040 C   0  0  0  0  0  0  0  0  0  0  0  0
    2.4800   -8.1180   26.2390 N   0  0  0  0  0  0  0  0  0  0  0  0
    3.9380   -8.1610   24.5830 O   0  0  0  0  0  0  0  0  0  0  0  0
    3.1470   -5.9910   23.4450 C   0  0  1  0  0  0  0  0  0  0  0  0
    4.8700   -4.9040   21.8720 N   0  0  0  0  0  0  0  0  0  0  0  0
    5.5480   -5.7320   23.8680 O   0  0  0  0  0  0  0  0  0  0  0  0
    2.9280   -6.1960   24.8170 C   0  0  0  0  0  0  0  0  0  0  0  0
    3.1250   -7.5140   25.2130 C   0  0  0  0  0  0  0  0  0  0  0  0
    4.6300   -5.5580   23.0740 C   0  0  0  0  0  0  0  0  0  0  0  0
    5.7910   -5.1570   20.8970 C   0  0  0  0  0  0  0  0  0  0  0  0
    7.8530   -5.0700   21.8170 C   0  0  0  0  0  0  0  0  0  0  0  0
    6.3020    0.2720   17.9380 N   0  0  0  0  0  0  0  0  0  0  0  0
    5.2290    1.0740   17.8300 C   0  0  0  0  0  0  0  0  0  0  0  0
    4.5660    1.6360   18.9110 C   0  0  0  0  0  0  0  0  0  0  0  0
    5.0410    1.3620   20.1840 C   0  0  0  0  0  0  0  0  0  0  0  0
    6.1450    0.5500   20.3240 C   0  0  0  0  0  0  0  0  0  0  0  0
    6.7480    0.0200   19.1850 C   0  0  0  0  0  0  0  0  0  0  0  0
    9.3240   -1.8500   24.2150 O   0  0  0  0  0  0  0  0  0  0  0  0
    8.0490   -2.2090   23.6900 N   0  0  0  0  0  0  0  0  0  0  0  0
    8.1720   -2.4040   22.3440 C   0  0  0  0  0  0  0  0  0  0  0  0
    9.5600   -2.1440   22.0830 C   0  0  0  0  0  0  0  0  0  0  0  0
   10.2820   -1.8060   23.2340 C   0  0  0  0  0  0  0  0  0  0  0  0
  2  4  1  0
  1  7  1  0
  3  7  2  0
  4  7  1  1
  8  1  1  6
  5  9  1  0
  6  9  2  0
  8  9  1  0
 10  5  1  0
 10 11  1  0
 10 12  1  0
 10 13  1  0
 14 15  1  0
 14 16  1  0
 14 17  1  0
 18 21  1  0
 19 21  1  0
 20 21  2  0
 19 24  1  0
 24 27  1  1
 22 28  1  0
 23 28  2  0
 27 28  1  0
 24 29  1  0
 25 29  1  0
 26 29  2  0
  2 30  1  0
 25 30  1  0
  2 31  1  1
 32 33  2  0
 33 34  1  0
 34 35  2  0
  8 36  1  0
 35 36  1  0
 32 37  1  0
 36 37  2  0
 38 39  1  0
  4 40  1  0
 39 40  2  0
 40 41  1  0
 14 42  1  0
 38 42  1  0
 41 42  2  0
M  END
