x0981-x0387
     RDKit          3D

 30 31  0  0  0  0  0  0  0  0999 V2000
    1.2030   -8.7140   21.3860 C   0  0  0  0  0  0  0  0  0  0  0  0
    2.7520   -7.0860   22.7070 N   0  0  0  0  0  0  0  0  0  0  0  0
    0.4790   -6.5910   22.2720 O   0  0  0  0  0  0  0  0  0  0  0  0
    1.4010   -7.4010   22.1430 C   0  0  0  0  0  0  0  0  0  0  0  0
    2.4400   -8.2240   26.3910 N   0  0  0  0  0  0  0  0  0  0  0  0
    3.9620   -8.2240   24.6250 O   0  0  0  0  0  0  0  0  0  0  0  0
    2.9930   -5.9850   23.5190 C   0  0  1  0  0  0  0  0  0  0  0  0
    5.1630   -5.7570   22.3060 N   0  0  0  0  0  0  0  0  0  0  0  0
    4.8280   -4.5130   24.4030 N   0  0  0  0  0  0  0  0  0  0  0  0
    2.7140   -6.2990   24.9460 C   0  0  0  0  0  0  0  0  0  0  0  0
    3.1100   -7.6790   25.2930 C   0  0  0  0  0  0  0  0  0  0  0  0
    4.4380   -5.4140   23.3340 C   0  0  0  0  0  0  0  0  0  0  0  0
    6.1110   -4.7580   21.7380 C   0  0  0  0  0  0  0  0  0  0  0  0
    6.2200   -4.9810   20.2450 C   0  0  0  0  0  0  0  0  0  0  0  0
    5.6520   -6.2560   19.7940 C   0  0  0  0  0  0  0  0  0  0  0  0
    8.8980   -5.0260   27.4080 O   0  0  0  0  0  0  0  0  0  0  0  0
    9.9830   -1.3660   24.4050 C   0  0  0  0  0  0  0  0  0  0  0  0
    6.0450   -3.9240   24.4390 C   0  0  0  0  0  0  0  0  0  0  0  0
    6.7970   -4.2710   25.5740 C   0  0  0  0  0  0  0  0  0  0  0  0
    9.1760   -4.2810   26.3140 C   0  0  2  0  0  0  0  0  0  0  0  0
    8.2630   -4.5300   25.2040 C   0  0  2  0  0  0  0  0  0  0  0  0
    8.6360   -3.4470   24.2870 C   0  0  0  0  0  0  0  0  0  0  0  0
    9.8010   -2.7410   24.7930 N   0  0  0  0  0  0  0  0  0  0  0  0
   10.9000   -3.4780   25.1100 C   0  0  0  0  0  0  0  0  0  0  0  0
   10.5030   -4.5110   25.9710 C   0  0  0  0  0  0  0  0  0  0  0  0
   11.9070   -0.0250   23.8690 C   0  0  0  0  0  0  0  0  0  0  0  0
   11.1650   -1.1420   23.6640 C   0  0  0  0  0  0  0  0  0  0  0  0
   11.6480   -2.0010   22.7070 C   0  0  0  0  0  0  0  0  0  0  0  0
   13.1010   -1.4180   22.0180 S   0  0  0  0  0  0  0  0  0  0  0  0
   13.0420    0.0310   23.0490 C   0  0  0  0  0  0  0  0  0  0  0  0
  1  4  1  0
  2  4  1  0
  3  4  2  0
  2  7  1  0
  7 10  1  1
  5 11  1  0
  6 11  2  0
 10 11  1  0
  7 12  1  0
  8 12  1  0
  9 12  2  3
  8 13  1  0
 13 14  1  0
 14 15  2  3
  9 18  1  0
 18 19  1  0
 20 16  1  1
 21 19  1  1
 20 21  1  0
 21 22  1  0
 17 23  1  0
 22 23  1  0
 23 24  1  0
 20 25  1  0
 24 25  1  0
 17 27  1  0
 26 27  1  0
 27 28  2  0
 28 29  1  0
 26 30  2  0
 29 30  1  0
M  END
