x0981-x0978
     RDKit          3D

 16 15  0  0  0  0  0  0  0  0999 V2000
    1.0240   -8.4570   21.8270 C   0  0  0  0  0  0  0  0  0  0  0  0
    2.4900   -6.8830   22.7490 N   0  0  0  0  0  0  0  0  0  0  0  0
    0.5540   -6.2040   21.7090 O   0  0  0  0  0  0  0  0  0  0  0  0
    1.1430   -7.0320   22.3760 C   0  0  0  0  0  0  0  0  0  0  0  0
    2.3750   -8.3100   26.2790 N   0  0  0  0  0  0  0  0  0  0  0  0
    4.0140   -8.1910   24.6090 O   0  0  0  0  0  0  0  0  0  0  0  0
    2.9340   -5.8730   23.6040 C   0  0  1  0  0  0  0  0  0  0  0  0
    5.2800   -5.6770   22.2820 N   0  0  0  0  0  0  0  0  0  0  0  0
    4.8190   -4.3380   24.2750 O   0  0  0  0  0  0  0  0  0  0  0  0
    2.7620   -6.2760   25.0300 C   0  0  0  0  0  0  0  0  0  0  0  0
    3.1250   -7.6900   25.2700 C   0  0  0  0  0  0  0  0  0  0  0  0
    4.3500   -5.3250   23.3610 C   0  0  0  0  0  0  0  0  0  0  0  0
    6.3000   -4.8870   21.8540 C   0  0  0  0  0  0  0  0  0  0  0  0
    6.4470   -5.0350   20.3600 C   0  0  0  0  0  0  0  0  0  0  0  0
    5.7060   -6.2080   19.8480 C   0  0  0  0  0  0  0  0  0  0  0  0
    0.3000   -6.8840   23.5900 C   0  0  0  0  0  0  0  0  0  0  0  0
  1  4  1  0
  2  4  1  0
  4  3  1  0
  2  7  1  0
  7 10  1  1
  5 11  1  0
  6 11  2  0
 10 11  1  0
  7 12  1  0
  8 12  1  0
  9 12  2  0
  8 13  1  0
 13 14  1  0
 14 15  2  3
  4 16  1  0
M  END
