x0981
     RDKit          3D

 16 15  0  0  0  0  0  0  0  0999 V2000
    1.3430   -8.6730   21.1970 C   0  0  0  0  0  0  0  0  0  0  0  0
    2.7840   -7.2380   22.5050 N   0  0  0  0  0  0  0  0  0  0  0  0
    0.7360   -6.5000   21.9450 O   0  0  0  0  0  0  0  0  0  0  0  0
    1.5900   -7.3850   21.9160 C   0  0  0  0  0  0  0  0  0  0  0  0
    2.4110   -8.2650   26.2450 N   0  0  0  0  0  0  0  0  0  0  0  0
    3.8600   -8.4710   24.5530 O   0  0  0  0  0  0  0  0  0  0  0  0
    3.0940   -6.0780   23.3390 C   0  0  1  0  0  0  0  0  0  0  0  0
    5.3740   -6.0990   22.3450 N   0  0  0  0  0  0  0  0  0  0  0  0
    4.8170   -4.5100   23.8290 O   0  0  0  0  0  0  0  0  0  0  0  0
    2.7930   -6.3500   24.8150 C   0  0  0  0  0  0  0  0  0  0  0  0
    3.0600   -7.7920   25.1920 C   0  0  0  0  0  0  0  0  0  0  0  0
    4.5100   -5.5080   23.1820 C   0  0  0  0  0  0  0  0  0  0  0  0
    6.5540   -5.4080   21.8200 C   0  0  0  0  0  0  0  0  0  0  0  0
    6.5790   -5.2700   20.3060 C   0  0  0  0  0  0  0  0  0  0  0  0
    5.7520   -6.0240   19.6100 C   0  0  0  0  0  0  0  0  0  0  0  0
    7.7030   -4.1980   19.4130 R   0  0  0  0  0  0  0  0  0  0  0  0
  1  4  1  0
  2  4  1  0
  3  4  2  0
  2  7  1  0
  7 10  1  1
  5 11  1  0
  6 11  2  0
 10 11  1  0
  7 12  1  0
  8 12  1  0
  9 12  2  0
  8 13  1  0
 13 14  1  0
 14 15  2  0
 14 16  1  0
M  END
