x0981-x2540-x2643-x0731
     RDKit          3D

 55 60  0  0  0  0  0  0  0  0999 V2000
    6.9140   -1.3720   21.8600 N   0  0  0  0  0  0  0  0  0  0  0  0
    6.7190   -4.6430   20.6390 C   0  0  2  0  0  0  0  0  0  0  0  0
    4.7730   -2.9200   21.2320 O   0  0  0  0  0  0  0  0  0  0  0  0
    6.8480   -3.7780   21.8410 C   0  0  0  0  0  0  0  0  0  0  0  0
    7.8850    1.7180   23.0600 N   0  0  0  0  0  0  0  0  0  0  0  0
    8.6160    1.5080   20.9220 O   0  0  0  0  0  0  0  0  0  0  0  0
    6.0530   -2.6130   21.6070 C   0  0  0  0  0  0  0  0  0  0  0  0
    6.6890    0.0770   21.4710 C   0  0  1  0  0  0  0  0  0  0  0  0
    7.8210    1.1530   21.8060 C   0  0  0  0  0  0  0  0  0  0  0  0
    8.8320    2.7550   23.4040 C   0  0  0  0  0  0  0  0  0  0  0  0
    8.8210    2.9920   24.8900 C   0  0  0  0  0  0  0  0  0  0  0  0
    8.4340    4.1220   22.7640 C   0  0  0  0  0  0  0  0  0  0  0  0
   10.2730    2.4360   22.9230 C   0  0  0  0  0  0  0  0  0  0  0  0
   11.9220   -1.3630   23.5760 C   0  0  0  0  0  0  0  0  0  0  0  0
   12.6240   -1.3380   22.2320 C   0  0  0  0  0  0  0  0  0  0  0  0
   12.1610   -0.0810   24.3510 C   0  0  0  0  0  0  0  0  0  0  0  0
   12.5290   -2.5280   24.3410 C   0  0  0  0  0  0  0  0  0  0  0  0
    1.2330   -8.7080   21.4120 C   0  0  0  0  0  0  0  0  0  0  0  0
    2.8220   -7.2510   22.5660 N   0  0  0  0  0  0  0  0  0  0  0  0
    0.5430   -6.7280   22.2980 O   0  0  0  0  0  0  0  0  0  0  0  0
    1.4940   -7.5280   22.1140 C   0  0  0  0  0  0  0  0  0  0  0  0
    2.4040   -8.1430   26.2500 N   0  0  0  0  0  0  0  0  0  0  0  0
    4.0240   -8.2700   24.6130 O   0  0  0  0  0  0  0  0  0  0  0  0
    3.3440   -6.2420   23.2800 C   0  0  1  0  0  0  0  0  0  0  0  0
    5.1450   -3.8280   23.6060 O   0  0  0  0  0  0  0  0  0  0  0  0
    3.0180   -6.3260   24.6300 C   0  0  0  0  0  0  0  0  0  0  0  0
    3.1470   -7.5860   25.1720 C   0  0  0  0  0  0  0  0  0  0  0  0
    5.4590   -4.7640   20.0700 C   0  0  0  0  0  0  0  0  0  0  0  0
    0.7230   -0.8500   26.1930 C   0  0  0  0  0  0  0  0  0  0  0  0
    6.2930   -4.0320   26.8110 O   0  0  0  0  0  0  0  0  0  0  0  0
    5.0010   -6.0220   26.3750 O   0  0  0  0  0  0  0  0  0  0  0  0
    5.4110   -4.6800   25.8770 S   0  0  0  0  0  0  0  0  0  0  0  0
    6.2710    0.4580   17.8030 N   0  0  0  0  0  0  0  0  0  0  0  0
    5.2080    1.2830   17.6820 C   0  0  0  0  0  0  0  0  0  0  0  0
    4.6000    1.6990   18.8720 C   0  0  0  0  0  0  0  0  0  0  0  0
    5.0750    1.2950   20.0910 C   0  0  0  0  0  0  0  0  0  0  0  0
    6.1640    0.4680   20.1630 C   0  0  0  0  0  0  0  0  0  0  0  0
    6.7630    0.0390   18.9940 C   0  0  0  0  0  0  0  0  0  0  0  0
    9.5650   -1.9670   24.2890 O   0  0  0  0  0  0  0  0  0  0  0  0
    8.3030   -1.9790   23.8780 N   0  0  0  0  0  0  0  0  0  0  0  0
    8.1720   -1.5150   22.6210 C   0  0  0  0  0  0  0  0  0  0  0  0
    9.5100   -1.2140   22.2930 C   0  0  0  0  0  0  0  0  0  0  0  0
   10.4190   -1.5130   23.4070 C   0  0  0  0  0  0  0  0  0  0  0  0
    1.8190   -1.8420   26.0820 C   0  0  0  0  0  0  0  0  0  0  0  0
    1.6310   -3.0760   25.4490 C   0  0  0  0  0  0  0  0  0  0  0  0
    2.8010   -4.0460   25.3680 C   0  0  0  0  0  0  0  0  0  0  0  0
    4.0170   -3.6730   25.9290 C   0  0  0  0  0  0  0  0  0  0  0  0
    4.1240   -2.4410   26.5370 C   0  0  0  0  0  0  0  0  0  0  0  0
    3.0740   -1.5460   26.6190 C   0  0  0  0  0  0  0  0  0  0  0  0
    6.5660   -5.3510   21.9420 C   0  0  1  0  0  0  0  0  0  0  0  0
    7.6340   -5.3630   22.7860 C   0  0  0  0  0  0  0  0  0  0  0  0
    7.3350   -4.9750   24.0620 C   0  0  0  0  0  0  0  0  0  0  0  0
    5.8710   -4.5410   24.2030 C   0  0  2  0  0  0  0  0  0  0  0  0
    5.0810   -5.6890   22.9760 S   0  0  0  0  0  0  0  0  0  0  0  0
    5.9450   -6.6070   21.7490 C   0  0  0  0  0  0  0  0  0  0  0  0
  2  4  1  0
  1  7  1  0
  3  7  2  0
  4  7  1  0
  1  8  1  0
  5  9  1  0
  6  9  2  0
  8  9  1  6
 10  5  1  0
 10 11  1  0
 10 12  1  0
 10 13  1  0
 14 15  1  0
 14 16  1  0
 14 17  1  0
 18 21  1  0
 19 21  1  0
 20 21  2  0
 19 24  1  0
 24 26  1  1
 22 27  1  0
 23 27  2  0
 26 27  1  0
  2 28  1  6
 30 32  2  0
 31 32  2  0
 33 34  2  0
 34 35  1  0
 35 36  2  0
  8 37  1  0
 36 37  1  0
 33 38  1  0
 37 38  2  0
 39 40  1  0
  1 41  1  0
 40 41  2  0
 41 42  1  0
 14 43  1  0
 39 43  1  0
 42 43  2  0
 29 44  1  0
 44 45  2  0
 45 46  1  0
 32 47  1  0
 46 47  2  0
 47 48  1  0
 44 49  1  0
 48 49  2  0
  2 50  1  0
 50 51  1  1
 51 52  1  0
 53 25  1  0
 53 32  1  1
 52 53  1  0
 24 54  1  0
 25 54  1  0
 50 54  1  0
 53 54  1  0
 50 55  1  0
 54 55  1  0
M  END
