x0981-x2540
     RDKit          3D

 42 43  0  0  0  0  0  0  0  0999 V2000
    6.8640   -1.2930   21.9040 N   0  0  0  0  0  0  0  0  0  0  0  0
    6.7730   -4.6190   20.6020 C   0  0  1  0  0  0  0  0  0  0  0  0
    4.7430   -2.9040   21.2750 O   0  0  0  0  0  0  0  0  0  0  0  0
    6.9360   -3.6240   21.6640 C   0  0  0  0  0  0  0  0  0  0  0  0
    7.8160    1.6790   23.0640 N   0  0  0  0  0  0  0  0  0  0  0  0
    8.6090    1.3780   20.9390 O   0  0  0  0  0  0  0  0  0  0  0  0
    6.0280   -2.5190   21.5820 C   0  0  0  0  0  0  0  0  0  0  0  0
    6.5990    0.1600   21.5540 C   0  0  1  0  0  0  0  0  0  0  0  0
    7.7750    1.1020   21.8060 C   0  0  0  0  0  0  0  0  0  0  0  0
    8.7750    2.7320   23.3890 C   0  0  0  0  0  0  0  0  0  0  0  0
    8.7700    2.9910   24.8710 C   0  0  0  0  0  0  0  0  0  0  0  0
    8.3640    4.0400   22.6850 C   0  0  0  0  0  0  0  0  0  0  0  0
   10.2100    2.4060   22.9250 C   0  0  0  0  0  0  0  0  0  0  0  0
   11.9390   -1.3160   23.5460 C   0  0  0  0  0  0  0  0  0  0  0  0
   12.6470   -1.2200   22.3920 C   0  0  0  0  0  0  0  0  0  0  0  0
   12.2640   -0.0430   24.3420 C   0  0  0  0  0  0  0  0  0  0  0  0
   12.4850   -2.5420   24.3070 C   0  0  0  0  0  0  0  0  0  0  0  0
    1.3140   -8.6190   21.5450 C   0  0  0  0  0  0  0  0  0  0  0  0
    2.9010   -7.1600   22.6690 N   0  0  0  0  0  0  0  0  0  0  0  0
    0.7240   -6.5140   22.4330 O   0  0  0  0  0  0  0  0  0  0  0  0
    1.6050   -7.3580   22.2530 C   0  0  0  0  0  0  0  0  0  0  0  0
    2.4910   -8.1250   26.3770 N   0  0  0  0  0  0  0  0  0  0  0  0
    4.1310   -8.2050   24.5710 O   0  0  0  0  0  0  0  0  0  0  0  0
    3.2850   -6.0810   23.4000 C   0  0  1  0  0  0  0  0  0  0  0  0
    5.4940   -6.3610   22.1070 N   0  0  0  0  0  0  0  0  0  0  0  0
    5.2280   -4.6500   23.9500 O   0  0  0  0  0  0  0  0  0  0  0  0
    2.9540   -6.1910   24.7660 C   0  0  0  0  0  0  0  0  0  0  0  0
    3.1990   -7.4910   25.2180 C   0  0  0  0  0  0  0  0  0  0  0  0
    4.6630   -5.6870   23.1670 C   0  0  0  0  0  0  0  0  0  0  0  0
    6.8480   -5.8610   21.5970 C   0  0  0  0  0  0  0  0  0  0  0  0
    5.4380   -4.8040   20.2210 C   0  0  0  0  0  0  0  0  0  0  0  0
    6.2730    0.3490   17.8110 N   0  0  0  0  0  0  0  0  0  0  0  0
    5.1960    1.1590   17.7710 C   0  0  0  0  0  0  0  0  0  0  0  0
    4.5200    1.6560   18.8610 C   0  0  0  0  0  0  0  0  0  0  0  0
    4.9780    1.3140   20.1140 C   0  0  0  0  0  0  0  0  0  0  0  0
    6.0920    0.4890   20.1890 C   0  0  0  0  0  0  0  0  0  0  0  0
    6.7060    0.0250   19.0330 C   0  0  0  0  0  0  0  0  0  0  0  0
    9.6490   -1.9250   24.2710 O   0  0  0  0  0  0  0  0  0  0  0  0
    8.2950   -1.9470   23.9040 N   0  0  0  0  0  0  0  0  0  0  0  0
    8.1400   -1.4410   22.6270 C   0  0  0  0  0  0  0  0  0  0  0  0
    9.4320   -1.0950   22.1810 C   0  0  0  0  0  0  0  0  0  0  0  0
   10.4350   -1.4150   23.2850 C   0  0  0  0  0  0  0  0  0  0  0  0
  2  4  1  0
  1  7  1  0
  3  7  2  0
  4  7  1  0
  1  8  1  0
  5  9  1  0
  6  9  2  0
  8  9  1  6
 10  5  1  0
 10 11  1  0
 10 12  1  0
 10 13  1  0
 14 15  1  0
 14 16  1  0
 14 17  1  0
 18 21  1  0
 19 21  1  0
 20 21  2  0
 19 24  1  0
 24 27  1  1
 22 28  1  0
 23 28  2  0
 27 28  1  0
 24 29  1  0
 25 29  1  0
 26 29  2  0
  2 30  1  0
 25 30  1  0
  2 31  1  1
 32 33  2  0
 33 34  1  0
 34 35  2  0
  8 36  1  0
 35 36  1  0
 32 37  1  0
 36 37  2  0
 38 39  1  0
  1 40  1  0
 39 40  2  0
 40 41  1  0
 14 42  1  0
 38 42  1  0
 41 42  2  0
M  END
