x0981-x2705
     RDKit          3D

 46 48  0  0  0  0  0  0  0  0999 V2000
    7.0180   -1.7370   21.7400 N   0  0  0  0  0  0  0  0  0  0  0  0
    6.9580   -5.1720   20.6080 C   0  0  0  0  0  0  0  0  0  0  0  0
    4.8180   -2.9710   21.1390 O   0  0  0  0  0  0  0  0  0  0  0  0
    6.4830   -4.3500   21.7920 C   0  0  1  0  0  0  0  0  0  0  0  0
    7.2860    1.8480   22.6770 N   0  0  0  0  0  0  0  0  0  0  0  0
    8.8790    0.5730   21.5750 O   0  0  0  0  0  0  0  0  0  0  0  0
    6.0570   -2.9310   21.5420 C   0  0  0  0  0  0  0  0  0  0  0  0
    6.5990   -0.2790   21.5650 C   0  0  1  0  0  0  0  0  0  0  0  0
    7.7110    0.7200   21.9330 C   0  0  0  0  0  0  0  0  0  0  0  0
   10.0490    1.9010   23.9440 C   0  0  0  0  0  0  0  0  0  0  0  0
    9.2140    1.1490   24.9760 C   0  0  0  0  0  0  0  0  0  0  0  0
    6.4780    3.7340   22.0250 C   0  0  0  0  0  0  0  0  0  0  0  0
   12.0910   -1.5970   23.2920 C   0  0  0  0  0  0  0  0  0  0  0  0
   12.5230   -0.3130   23.6440 C   0  0  0  0  0  0  0  0  0  0  0  0
   12.6470   -2.5460   24.3780 C   0  0  0  0  0  0  0  0  0  0  0  0
   12.7680   -1.8990   21.9390 C   0  0  0  0  0  0  0  0  0  0  0  0
    1.4550   -8.4040   21.8040 C   0  0  0  0  0  0  0  0  0  0  0  0
    3.0140   -6.7710   22.7230 N   0  0  0  0  0  0  0  0  0  0  0  0
    0.7820   -6.2660   22.5100 O   0  0  0  0  0  0  0  0  0  0  0  0
    1.7120   -7.0630   22.3810 C   0  0  0  0  0  0  0  0  0  0  0  0
    2.3700   -7.9490   26.1670 N   0  0  0  0  0  0  0  0  0  0  0  0
    4.1260   -8.1600   24.5290 O   0  0  0  0  0  0  0  0  0  0  0  0
    3.2900   -5.7350   23.5950 C   0  0  1  0  0  0  0  0  0  0  0  0
    5.2180   -5.0000   22.1360 N   0  0  0  0  0  0  0  0  0  0  0  0
    5.3690   -5.0930   24.4360 O   0  0  0  0  0  0  0  0  0  0  0  0
    2.9500   -6.0520   24.9190 C   0  0  0  0  0  0  0  0  0  0  0  0
    3.1480   -7.4030   25.2060 C   0  0  0  0  0  0  0  0  0  0  0  0
    4.6740   -5.2800   23.4460 C   0  0  0  0  0  0  0  0  0  0  0  0
    6.0090   -5.9250   20.0780 C   0  0  0  0  0  0  0  0  0  0  0  0
    6.3500    0.3610   17.7820 N   0  0  0  0  0  0  0  0  0  0  0  0
    5.2210    1.0910   17.8170 C   0  0  0  0  0  0  0  0  0  0  0  0
    4.5110    1.3840   18.9400 C   0  0  0  0  0  0  0  0  0  0  0  0
    4.9500    0.9280   20.1670 C   0  0  0  0  0  0  0  0  0  0  0  0
    6.1220    0.1710   20.2080 C   0  0  0  0  0  0  0  0  0  0  0  0
    6.8440   -0.1410   19.0550 C   0  0  0  0  0  0  0  0  0  0  0  0
    9.6840   -1.6880   24.2150 N   0  0  0  0  0  0  0  0  0  0  0  0
    8.3630   -1.7360   23.8670 N   0  0  0  0  0  0  0  0  0  0  0  0
    8.3060   -1.7360   22.5220 C   0  0  0  0  0  0  0  0  0  0  0  0
    9.6490   -1.6960   22.1080 C   0  0  0  0  0  0  0  0  0  0  0  0
   10.5580   -1.6600   23.1650 C   0  0  0  0  0  0  0  0  0  0  0  0
    9.3210    3.1290   23.4400 C   0  0  0  0  0  0  0  0  0  0  0  0
   10.0880    4.4730   23.6160 C   0  0  0  0  0  0  0  0  0  0  0  0
    9.4180    5.7890   23.1250 C   0  0  0  0  0  0  0  0  0  0  0  0
    8.1590    5.7360   22.5420 C   0  0  0  0  0  0  0  0  0  0  0  0
    7.5540    4.3490   22.4480 C   0  0  0  0  0  0  0  0  0  0  0  0
    8.0360    3.0810   22.8490 C   0  0  0  0  0  0  0  0  0  0  0  0
  4  2  1  6
  1  7  1  0
  3  7  2  0
  4  7  1  0
  1  8  1  0
  5  9  1  0
  6  9  2  0
  8  9  1  6
 10 11  1  0
 13 14  1  0
 13 15  1  0
 13 16  1  0
 17 20  1  0
 18 20  1  0
 19 20  2  0
 18 23  1  0
  4 24  1  0
 23 26  1  1
 21 27  1  0
 22 27  2  0
 26 27  1  0
 23 28  1  0
 24 28  1  0
 25 28  2  0
  2 29  2  3
 30 31  2  0
 31 32  1  0
 32 33  2  0
  8 34  1  0
 33 34  1  0
 30 35  1  0
 34 35  2  0
 36 37  1  0
  1 38  1  0
 37 38  2  0
 38 39  1  0
 13 40  1  0
 36 40  1  0
 39 40  2  0
 10 41  1  0
 41 42  2  0
 42 43  1  0
 43 44  2  0
 12 45  1  0
 44 45  1  0
  5 46  1  0
 41 46  1  0
 45 46  2  0
M  END
