x0981-x2540-x0978-x3117
     RDKit          3D

 48 52  0  0  0  0  0  0  0  0999 V2000
    6.9030   -1.2880   21.8370 N   0  0  0  0  0  0  0  0  0  0  0  0
    6.8770   -4.7010   20.8420 C   0  0  1  0  0  0  0  0  0  0  0  0
    4.7650   -2.9150   21.2500 O   0  0  0  0  0  0  0  0  0  0  0  0
    6.9160   -3.6600   21.8000 C   0  0  0  0  0  0  0  0  0  0  0  0
    8.0200    2.1330   22.5990 N   0  0  0  0  0  0  0  0  0  0  0  0
    8.3560    1.3500   20.5600 O   0  0  0  0  0  0  0  0  0  0  0  0
    6.0520   -2.5310   21.5900 C   0  0  0  0  0  0  0  0  0  0  0  0
    6.5430    0.1670   21.6450 C   0  0  1  0  0  0  0  0  0  0  0  0
    7.7110    1.2520   21.5820 C   0  0  0  0  0  0  0  0  0  0  0  0
    8.5430    2.0610   25.4300 C   0  0  0  0  0  0  0  0  0  0  0  0
   10.8360    2.1970   23.3020 C   0  0  0  0  0  0  0  0  0  0  0  0
   11.8450   -1.3890   23.6170 C   0  0  0  0  0  0  0  0  0  0  0  0
   12.5640   -0.9600   22.3540 C   0  0  0  0  0  0  0  0  0  0  0  0
   12.0820   -0.3360   24.6660 C   0  0  0  0  0  0  0  0  0  0  0  0
   12.3870   -2.7330   23.9980 C   0  0  0  0  0  0  0  0  0  0  0  0
   13.3950   -2.6760   25.1520 C   0  0  0  0  0  0  0  0  0  0  0  0
    1.0560   -8.4220   21.4260 C   0  0  0  0  0  0  0  0  0  0  0  0
    2.6840   -7.0800   22.6230 N   0  0  0  0  0  0  0  0  0  0  0  0
    0.6850   -7.7110   23.6810 O   0  0  0  0  0  0  0  0  0  0  0  0
    1.3580   -7.4260   22.4880 C   0  0  0  0  0  0  0  0  0  0  0  0
    2.5700   -7.9910   26.2480 N   0  0  0  0  0  0  0  0  0  0  0  0
    4.0050   -8.1810   24.5780 O   0  0  0  0  0  0  0  0  0  0  0  0
    3.1690   -6.0590   23.3920 C   0  0  1  0  0  0  0  0  0  0  0  0
    5.5180   -6.3030   22.1420 N   0  0  0  0  0  0  0  0  0  0  0  0
    5.0740   -4.7660   23.8470 O   0  0  0  0  0  0  0  0  0  0  0  0
    3.0630   -6.1400   24.7840 C   0  0  0  0  0  0  0  0  0  0  0  0
    3.2340   -7.4680   25.1940 C   0  0  0  0  0  0  0  0  0  0  0  0
    4.6570   -5.6980   23.1130 C   0  0  0  0  0  0  0  0  0  0  0  0
    6.8340   -5.9170   21.7480 C   0  0  0  0  0  0  0  0  0  0  0  0
    5.4550   -4.8360   20.3520 C   0  0  0  0  0  0  0  0  0  0  0  0
    0.4580   -6.1900   22.2020 C   0  0  0  0  0  0  0  0  0  0  0  0
    6.2580    0.4340   17.9130 N   0  0  0  0  0  0  0  0  0  0  0  0
    5.1940    1.2440   17.7340 C   0  0  0  0  0  0  0  0  0  0  0  0
    4.5000    1.7200   18.8840 C   0  0  0  0  0  0  0  0  0  0  0  0
    4.9610    1.3360   20.1140 C   0  0  0  0  0  0  0  0  0  0  0  0
    6.0480    0.5240   20.2460 C   0  0  0  0  0  0  0  0  0  0  0  0
    6.7050    0.0580   19.1250 C   0  0  0  0  0  0  0  0  0  0  0  0
    9.4740   -2.0260   24.3080 O   0  0  0  0  0  0  0  0  0  0  0  0
    8.2340   -2.0130   23.8790 N   0  0  0  0  0  0  0  0  0  0  0  0
    8.1630   -1.4740   22.6150 C   0  0  0  0  0  0  0  0  0  0  0  0
    9.5250   -1.1810   22.3590 C   0  0  0  0  0  0  0  0  0  0  0  0
   10.3270   -1.5440   23.4690 C   0  0  0  0  0  0  0  0  0  0  0  0
    9.3460    5.8110   23.9430 O   0  0  0  0  0  0  0  0  0  0  0  0
    9.8320    4.7690   24.5740 C   0  0  0  0  0  0  0  0  0  0  0  0
    9.1970    2.9770   23.8250 S   0  0  0  0  0  0  0  0  0  0  0  0
    7.8040    3.4840   22.4280 C   0  0  2  0  0  0  0  0  0  0  0  0
    8.2300    4.2660   23.3290 C   0  0  2  0  0  0  0  0  0  0  0  0
    9.0180    5.2940   22.8330 C   0  0  0  0  0  0  0  0  0  0  0  0
  2  4  1  0
  1  7  1  0
  3  7  2  0
  4  7  1  0
  1  8  1  0
  5  9  1  0
  6  9  2  0
  8  9  1  6
 12 13  1  0
 12 14  1  0
 12 15  1  0
 15 16  1  0
 17 20  1  0
 18 20  1  0
 20 19  1  0
 18 23  1  0
 23 26  1  1
 21 27  1  0
 22 27  2  0
 26 27  1  0
 23 28  1  0
 24 28  1  0
 25 28  2  0
  2 29  1  0
 24 29  1  0
  2 30  1  1
 20 31  1  0
 32 33  2  0
 33 34  1  0
 34 35  2  0
  8 36  1  0
 35 36  1  0
 32 37  1  0
 36 37  2  0
 38 39  1  0
  1 40  1  0
 39 40  2  0
 40 41  1  0
 12 42  1  0
 38 42  1  0
 41 42  2  0
 43 44  1  0
  5 45  1  0
 10 45  1  0
 11 45  1  0
 44 45  1  0
 46  5  1  1
 45 46  1  0
 45 47  1  0
 46 47  1  0
 43 48  1  0
 47 48  1  6
M  END
