x0981-x3115
     RDKit          3D

 42 43  0  0  0  0  0  0  0  0999 V2000
    6.8980   -1.9750   21.8660 N   0  0  0  0  0  0  0  0  0  0  0  0
    6.3410   -5.0570   20.0050 C   0  0  0  0  0  0  0  0  0  0  0  0
    4.7390   -3.0000   21.3670 O   0  0  0  0  0  0  0  0  0  0  0  0
    6.3960   -4.5590   21.4440 C   0  0  1  0  0  0  0  0  0  0  0  0
    7.5270    1.5150   22.7570 N   0  0  0  0  0  0  0  0  0  0  0  0
    8.8730    0.1520   21.4990 O   0  0  0  0  0  0  0  0  0  0  0  0
    5.9640   -3.1130   21.5720 C   0  0  0  0  0  0  0  0  0  0  0  0
    8.6880    5.0840   23.0240 O   0  0  0  0  0  0  0  0  0  0  0  0
    6.5560   -0.4940   21.6470 C   0  0  1  0  0  0  0  0  0  0  0  0
    7.7610    0.3830   21.9620 C   0  0  0  0  0  0  0  0  0  0  0  0
    8.3500    2.7020   22.5000 C   0  0  0  0  0  0  0  0  0  0  0  0
    7.7180    4.0370   22.8980 C   0  0  0  0  0  0  0  0  0  0  0  0
    8.3300    6.2620   22.2810 C   0  0  0  0  0  0  0  0  0  0  0  0
   12.3500   -1.9580   24.2200 C   0  0  0  0  0  0  0  0  0  0  0  0
   13.2880   -1.9780   23.2000 C   0  0  0  0  0  0  0  0  0  0  0  0
   12.8110   -3.0480   25.1920 C   0  0  0  0  0  0  0  0  0  0  0  0
   12.5040   -0.5910   24.8950 C   0  0  0  0  0  0  0  0  0  0  0  0
    1.3790   -8.3900   21.7840 C   0  0  0  0  0  0  0  0  0  0  0  0
    3.0280   -6.8210   22.7100 N   0  0  0  0  0  0  0  0  0  0  0  0
    0.6650   -6.1150   22.5250 O   0  0  0  0  0  0  0  0  0  0  0  0
    1.7110   -7.0700   22.3690 C   0  0  0  0  0  0  0  0  0  0  0  0
    2.5900   -8.0980   26.1650 N   0  0  0  0  0  0  0  0  0  0  0  0
    4.0900   -8.1260   24.4770 O   0  0  0  0  0  0  0  0  0  0  0  0
    3.3200   -5.8000   23.5860 C   0  0  1  0  0  0  0  0  0  0  0  0
    5.4300   -5.4320   22.1450 N   0  0  0  0  0  0  0  0  0  0  0  0
    5.1230   -4.4530   24.2000 O   0  0  0  0  0  0  0  0  0  0  0  0
    3.0850   -6.1420   24.9400 C   0  0  0  0  0  0  0  0  0  0  0  0
    3.2940   -7.5130   25.1600 C   0  0  0  0  0  0  0  0  0  0  0  0
    4.6460   -5.1980   23.3520 C   0  0  0  0  0  0  0  0  0  0  0  0
    5.5860   -6.1230   19.9460 C   0  0  0  0  0  0  0  0  0  0  0  0
    6.3020    0.2700   17.8510 N   0  0  0  0  0  0  0  0  0  0  0  0
    5.1880    1.0320   17.8900 C   0  0  0  0  0  0  0  0  0  0  0  0
    4.4840    1.3150   19.0260 C   0  0  0  0  0  0  0  0  0  0  0  0
    4.9380    0.7980   20.2280 C   0  0  0  0  0  0  0  0  0  0  0  0
    6.0850    0.0060   20.2850 C   0  0  0  0  0  0  0  0  0  0  0  0
    6.7970   -0.2910   19.1130 C   0  0  0  0  0  0  0  0  0  0  0  0
    9.3430   -2.1650   21.7440 C   0  0  0  0  0  0  0  0  0  0  0  0
   10.6390   -2.1560   22.2780 C   0  0  0  0  0  0  0  0  0  0  0  0
   10.9430   -2.0150   23.6380 C   0  0  0  0  0  0  0  0  0  0  0  0
    9.8560   -1.8970   24.5250 C   0  0  0  0  0  0  0  0  0  0  0  0
    8.3980   -1.8950   24.0290 C   0  0  0  0  0  0  0  0  0  0  0  0
    8.2060   -2.0300   22.5080 C   0  0  0  0  0  0  0  0  0  0  0  0
  4  2  1  6
  1  7  1  0
  3  7  2  0
  4  7  1  0
  1  9  1  0
  5 10  1  0
  6 10  2  0
  9 10  1  6
  5 11  1  0
  8 12  1  0
 11 12  1  0
  8 13  1  0
 14 15  1  0
 14 16  1  0
 14 17  1  0
 18 21  1  0
 19 21  1  0
 20 21  2  0
 19 24  1  0
  4 25  1  0
 24 27  1  1
 22 28  1  0
 23 28  2  0
 27 28  1  0
 24 29  1  0
 25 29  1  0
 26 29  2  0
  2 30  2  3
 31 32  2  0
 32 33  1  0
 33 34  2  0
  9 35  1  0
 34 35  1  0
 31 36  1  0
 35 36  2  0
 37 38  2  0
 14 39  1  0
 38 39  1  0
 39 40  2  0
 40 41  1  0
  1 42  1  0
 37 42  1  0
 41 42  2  0
M  END
