x0981-x2540-x0874-x3117
     RDKit          3D

 49 54  0  0  0  0  0  0  0  0999 V2000
    7.1020   -1.3050   21.9430 N   0  0  0  0  0  0  0  0  0  0  0  0
    6.9420   -4.5450   21.0000 C   0  0  2  0  0  0  0  0  0  0  0  0
    4.9730   -3.2280   21.3350 O   0  0  0  0  0  0  0  0  0  0  0  0
    6.8710   -3.3620   21.8580 C   0  0  0  0  0  0  0  0  0  0  0  0
    8.1610    2.0390   22.6830 N   0  0  0  0  0  0  0  0  0  0  0  0
    8.5990    1.4290   20.6310 O   0  0  0  0  0  0  0  0  0  0  0  0
    5.9080   -2.2410   21.6030 C   0  0  0  0  0  0  0  0  0  0  0  0
    6.8130    0.1490   21.5820 C   0  0  1  0  0  0  0  0  0  0  0  0
    7.9440    1.2400   21.6160 C   0  0  0  0  0  0  0  0  0  0  0  0
    8.5370    2.6600   25.6470 C   0  0  0  0  0  0  0  0  0  0  0  0
   10.7510    1.8950   23.5010 C   0  0  0  0  0  0  0  0  0  0  0  0
   11.0600   -1.2440   23.4710 C   0  0  2  0  0  0  0  0  0  0  0  0
   10.8070   -0.2890   24.6310 C   0  0  0  0  0  0  0  0  0  0  0  0
   11.0470   -2.6940   23.9920 C   0  0  0  0  0  0  0  0  0  0  0  0
   12.3880   -2.9260   24.7370 C   0  0  0  0  0  0  0  0  0  0  0  0
    1.1760   -8.6750   21.4440 C   0  0  0  0  0  0  0  0  0  0  0  0
    2.7110   -7.2430   22.7210 N   0  0  0  0  0  0  0  0  0  0  0  0
    0.5340   -6.6480   22.2260 O   0  0  0  0  0  0  0  0  0  0  0  0
    1.4570   -7.5010   22.1470 C   0  0  0  0  0  0  0  0  0  0  0  0
    2.5820   -8.1650   26.2750 N   0  0  0  0  0  0  0  0  0  0  0  0
    4.0010   -8.1940   24.5730 O   0  0  0  0  0  0  0  0  0  0  0  0
    3.0180   -6.1080   23.3960 C   0  0  1  0  0  0  0  0  0  0  0  0
    4.8180   -4.8420   22.0020 N   0  0  0  0  0  0  0  0  0  0  0  0
    5.3310   -5.8500   23.9870 O   0  0  0  0  0  0  0  0  0  0  0  0
    2.9310   -6.2020   24.7920 C   0  0  0  0  0  0  0  0  0  0  0  0
    3.1540   -7.5220   25.2370 C   0  0  0  0  0  0  0  0  0  0  0  0
    4.4510   -5.6360   23.1600 C   0  0  0  0  0  0  0  0  0  0  0  0
    5.5980   -5.2170   20.9320 C   0  0  0  0  0  0  0  0  0  0  0  0
    7.5770   -5.5540   21.8010 C   0  0  0  0  0  0  0  0  0  0  0  0
    6.2210    0.2570   17.8850 N   0  0  0  0  0  0  0  0  0  0  0  0
    5.1580    1.0440   17.7700 C   0  0  0  0  0  0  0  0  0  0  0  0
    4.5510    1.5690   18.9090 C   0  0  0  0  0  0  0  0  0  0  0  0
    5.0750    1.2700   20.1570 C   0  0  0  0  0  0  0  0  0  0  0  0
    6.2160    0.4380   20.2500 C   0  0  0  0  0  0  0  0  0  0  0  0
    6.7060   -0.0170   19.0730 C   0  0  0  0  0  0  0  0  0  0  0  0
   10.6650   -1.0680   23.7500 N   0  0  0  0  0  0  0  0  0  0  0  0
    9.7010   -1.4770   22.8830 N   0  0  0  0  0  0  0  0  0  0  0  0
    8.3490   -1.3660   22.7990 C   0  0  0  0  0  0  0  0  0  0  0  0
    9.4270   -1.7010   21.8990 C   0  0  0  0  0  0  0  0  0  0  0  0
   10.8520   -1.5760   22.3910 C   0  0  0  0  0  0  0  0  0  0  0  0
    9.3480    5.5710   24.2620 O   0  0  0  0  0  0  0  0  0  0  0  0
   10.2690    4.7300   23.8180 C   0  0  0  0  0  0  0  0  0  0  0  0
    9.2760    2.9920   23.8820 S   0  0  0  0  0  0  0  0  0  0  0  0
    7.5980    3.3060   22.8620 C   0  0  1  0  0  0  0  0  0  0  0  0
    8.5740    4.1820   22.8900 C   0  0  1  0  0  0  0  0  0  0  0  0
    8.3820    5.4820   23.3650 C   0  0  0  0  0  0  0  0  0  0  0  0
   12.0610   -1.8670   21.5630 C   0  0  0  0  0  0  0  0  0  0  0  0
   12.7410   -1.2360   23.0130 S   0  0  0  0  0  0  0  0  0  0  0  0
   12.0610   -0.7660   24.2930 C   0  0  0  0  0  0  0  0  0  0  0  0
  2  4  1  0
  1  7  1  0
  3  7  2  0
  4  7  1  0
  1  8  1  0
  5  9  1  0
  6  9  2  0
  8  9  1  6
 12 13  1  1
 12 14  1  0
 14 15  1  0
 16 19  1  0
 17 19  1  0
 18 19  2  0
 17 22  1  0
 22 25  1  1
 20 26  1  0
 21 26  2  0
 25 26  1  0
 22 27  1  0
 23 27  1  0
 24 27  2  0
  2 28  1  0
 23 28  1  0
  2 29  1  1
 30 31  2  0
 31 32  1  0
 32 33  2  0
  8 34  1  0
 33 34  1  0
 30 35  1  0
 34 35  2  0
 36 37  1  0
  1 38  1  0
 37 38  1  0
 38 39  2  0
 36 40  1  0
 39 40  1  0
 41 42  1  0
  5 43  1  0
 10 43  1  0
 11 43  1  0
 42 43  1  0
 44  5  1  6
 43 44  1  0
 43 45  1  0
 44 45  1  0
 41 46  1  0
 45 46  1  1
 40 47  2  0
 12 48  1  0
 47 48  1  0
 36 49  1  0
 48 49  2  0
M  END
