x0981-x1402-x2540-x3117
     RDKit          3D

 58 66  0  0  0  0  0  0  0  0999 V2000
    6.8000   -1.3580   21.7760 N   0  0  0  0  0  0  0  0  0  0  0  0
    7.0350   -4.5230   20.7790 C   0  0  1  0  0  0  0  0  0  0  0  0
    4.6530   -2.9390   21.5050 O   0  0  0  0  0  0  0  0  0  0  0  0
    6.3770   -3.3700   20.2140 C   0  0  0  0  0  0  0  0  0  0  0  0
    8.0640    2.0320   22.5790 N   0  0  0  0  0  0  0  0  0  0  0  0
    8.5010    1.2490   20.6090 O   0  0  0  0  0  0  0  0  0  0  0  0
    5.8630   -2.4930   21.2370 C   0  0  0  0  0  0  0  0  0  0  0  0
    6.5840    0.1350   21.5130 C   0  0  1  0  0  0  0  0  0  0  0  0
    7.7970    1.1530   21.5600 C   0  0  0  0  0  0  0  0  0  0  0  0
    8.5630    2.1950   25.4530 C   0  0  0  0  0  0  0  0  0  0  0  0
   10.8100    1.9600   23.3140 C   0  0  0  0  0  0  0  0  0  0  0  0
   11.7580   -1.4360   23.5790 C   0  0  0  0  0  0  0  0  0  0  0  0
   12.5310   -1.1030   22.3270 C   0  0  0  0  0  0  0  0  0  0  0  0
   12.0250   -0.2820   24.5250 C   0  0  0  0  0  0  0  0  0  0  0  0
   12.3350   -2.7110   24.1160 C   0  0  0  0  0  0  0  0  0  0  0  0
   13.3260   -2.6130   25.0810 C   0  0  0  0  0  0  0  0  0  0  0  0
    1.4080   -8.6370   21.4110 C   0  0  0  0  0  0  0  0  0  0  0  0
    2.3880   -6.7890   22.8440 N   0  0  0  0  0  0  0  0  0  0  0  0
    0.2660   -6.8480   21.8800 O   0  0  0  0  0  0  0  0  0  0  0  0
    1.4440   -7.4190   22.0950 C   0  0  0  0  0  0  0  0  0  0  0  0
    2.8890   -8.4080   26.4040 N   0  0  0  0  0  0  0  0  0  0  0  0
    3.3460   -8.7060   24.2480 O   0  0  0  0  0  0  0  0  0  0  0  0
    3.1370   -6.0460   23.7040 C   0  0  1  0  0  0  0  0  0  0  0  0
    4.0290   -3.9180   23.6100 O   0  0  0  0  0  0  0  0  0  0  0  0
    3.6600   -6.6120   24.8980 C   0  0  0  0  0  0  0  0  0  0  0  0
    3.3340   -7.9140   25.1680 C   0  0  0  0  0  0  0  0  0  0  0  0
    8.2320   -3.7790   21.0700 C   0  0  0  0  0  0  0  0  0  0  0  0
    1.7770   -0.4000   25.9900 Cl  0  0  0  0  0  0  0  0  0  0  0  0
    5.1860   -6.1170   27.2530 O   0  0  0  0  0  0  0  0  0  0  0  0
    4.4980   -5.6290   25.9170 S   0  0  1  0  0  0  0  0  0  0  0  0
    6.2210    0.4600   17.9560 N   0  0  0  0  0  0  0  0  0  0  0  0
    5.1340    1.2270   17.7310 C   0  0  0  0  0  0  0  0  0  0  0  0
    4.3870    1.6870   18.7920 C   0  0  0  0  0  0  0  0  0  0  0  0
    4.8020    1.3460   20.0930 C   0  0  0  0  0  0  0  0  0  0  0  0
    6.0310    0.5040   20.2650 C   0  0  0  0  0  0  0  0  0  0  0  0
    6.7060    0.0760   19.1180 C   0  0  0  0  0  0  0  0  0  0  0  0
    9.4170   -2.2230   24.2530 O   0  0  0  0  0  0  0  0  0  0  0  0
    8.1680   -2.2000   23.7850 N   0  0  0  0  0  0  0  0  0  0  0  0
    8.0190   -1.6040   22.5990 C   0  0  0  0  0  0  0  0  0  0  0  0
    9.3760   -1.2510   22.3820 C   0  0  0  0  0  0  0  0  0  0  0  0
   10.2380   -1.6420   23.4310 C   0  0  0  0  0  0  0  0  0  0  0  0
    9.4770    5.5160   24.3180 O   0  0  0  0  0  0  0  0  0  0  0  0
   10.3170    4.6340   23.9150 C   0  0  0  0  0  0  0  0  0  0  0  0
    9.2550    2.9120   23.7800 S   0  0  0  0  0  0  0  0  0  0  0  0
    8.1450    3.3810   22.3020 C   0  0  2  0  0  0  0  0  0  0  0  0
    7.9940    4.2940   23.3770 C   0  0  2  0  0  0  0  0  0  0  0  0
    8.7240    5.5950   23.2600 C   0  0  0  0  0  0  0  0  0  0  0  0
    6.4560   -5.1300   21.9900 N   0  0  0  0  0  0  0  0  0  0  0  0
    7.1420   -4.9550   23.2970 C   0  0  0  0  0  0  0  0  0  0  0  0
    6.1800   -4.2790   24.2890 C   0  0  0  0  0  0  0  0  0  0  0  0
    4.8210   -4.6880   24.3950 C   0  0  2  0  0  0  0  0  0  0  0  0
    4.2860   -5.1950   23.2150 C   0  0  1  0  0  0  0  0  0  0  0  0
    5.1380   -5.6340   22.1280 C   0  0  0  0  0  0  0  0  0  0  0  0
    2.7900   -3.2820   25.9380 S   0  0  0  0  0  0  0  0  0  0  0  0
    4.3990   -3.8710   25.8120 C   0  0  0  0  0  0  0  0  0  0  0  0
    5.1910   -2.7370   25.6940 C   0  0  0  0  0  0  0  0  0  0  0  0
    4.4760   -1.5110   25.7240 C   0  0  0  0  0  0  0  0  0  0  0  0
    3.0700   -1.5740   25.8720 C   0  0  0  0  0  0  0  0  0  0  0  0
  2  4  1  0
  1  7  1  0
  3  7  2  0
  4  7  1  0
  1  8  1  0
  5  9  1  0
  6  9  2  0
  8  9  1  6
 12 13  1  0
 12 14  1  0
 12 15  1  0
 15 16  1  0
 17 20  1  0
 18 20  1  0
 19 20  2  0
 23 18  1  6
 23 25  1  0
 21 26  1  0
 22 26  2  0
 25 26  1  0
  2 27  1  1
 25 30  2  0
 29 30  2  0
 31 32  2  0
 32 33  1  0
 33 34  2  0
  8 35  1  0
 34 35  1  0
 31 36  1  0
 35 36  2  0
 37 38  1  0
  1 39  1  0
 38 39  2  0
 39 40  1  0
 12 41  1  0
 37 41  1  0
 40 41  2  0
 42 43  1  0
  5 44  1  0
 10 44  1  0
 11 44  1  0
 43 44  1  0
 45  5  1  1
 44 45  1  0
 44 46  1  0
 45 46  1  0
 42 47  1  0
 46 47  1  6
  2 48  1  0
 48 49  1  0
 49 50  1  0
 51 24  1  0
 30 51  1  0
 51 50  1  6
 23 52  1  0
 52 24  1  0
 51 52  1  0
 48 53  1  0
 52 53  1  6
 30 55  1  1
 54 55  1  0
 55 56  2  0
 56 57  1  0
 28 58  1  0
 54 58  1  0
 57 58  2  0
M  END
