x0981-x2540-x3117-x1382
     RDKit          3D

 47 51  0  0  0  0  0  0  0  0999 V2000
    6.9940   -1.3790   21.3610 N   0  0  0  0  0  0  0  0  0  0  0  0
    7.6270   -4.3570   21.2390 C   0  0  2  0  0  0  0  0  0  0  0  0
    5.0360   -3.2440   20.9710 O   0  0  0  0  0  0  0  0  0  0  0  0
    6.7010   -3.2290   21.8060 C   0  0  2  0  0  0  0  0  0  0  0  0
    8.1060    2.1410   22.6480 N   0  0  0  0  0  0  0  0  0  0  0  0
    8.8990    1.2520   20.9290 O   0  0  0  0  0  0  0  0  0  0  0  0
    5.8570   -2.2490   21.0570 C   0  0  0  0  0  0  0  0  0  0  0  0
    6.7900    0.1430   21.4570 C   0  0  1  0  0  0  0  0  0  0  0  0
    7.9650    1.1740   21.6930 C   0  0  0  0  0  0  0  0  0  0  0  0
    8.6980    1.7350   25.1340 C   0  0  0  0  0  0  0  0  0  0  0  0
   11.1710    2.8460   23.5930 C   0  0  0  0  0  0  0  0  0  0  0  0
   11.5020   -1.4400   23.5970 C   0  0  0  0  0  0  0  0  0  0  0  0
   12.2050   -0.9430   22.3620 C   0  0  0  0  0  0  0  0  0  0  0  0
   11.8990   -0.3630   24.6430 C   0  0  0  0  0  0  0  0  0  0  0  0
   12.2030   -2.7160   24.0720 C   0  0  0  0  0  0  0  0  0  0  0  0
   13.2580   -2.4640   25.0790 C   0  0  0  0  0  0  0  0  0  0  0  0
    1.3490   -8.5530   21.6110 C   0  0  0  0  0  0  0  0  0  0  0  0
    3.0340   -7.0290   22.7040 N   0  0  0  0  0  0  0  0  0  0  0  0
    0.8100   -6.4300   22.4880 O   0  0  0  0  0  0  0  0  0  0  0  0
    1.7310   -7.2620   22.3170 C   0  0  0  0  0  0  0  0  0  0  0  0
    2.5800   -8.2130   26.3150 N   0  0  0  0  0  0  0  0  0  0  0  0
    4.0230   -8.1520   24.5360 O   0  0  0  0  0  0  0  0  0  0  0  0
    3.4170   -5.9450   23.5310 C   0  0  1  0  0  0  0  0  0  0  0  0
    5.9890   -5.9130   22.5480 N   0  0  0  0  0  0  0  0  0  0  0  0
    5.1750   -4.5140   24.1700 O   0  0  0  0  0  0  0  0  0  0  0  0
    3.0810   -6.1920   25.0100 C   0  0  0  0  0  0  0  0  0  0  0  0
    3.2330   -7.5340   25.2800 C   0  0  0  0  0  0  0  0  0  0  0  0
    4.8890   -5.4490   23.4190 C   0  0  0  0  0  0  0  0  0  0  0  0
    7.3350   -5.2180   22.5350 C   0  0  0  0  0  0  0  0  0  0  0  0
    8.7180   -3.3570   21.0180 C   0  0  0  0  0  0  0  0  0  0  0  0
    6.2690    0.5710   17.8090 N   0  0  0  0  0  0  0  0  0  0  0  0
    5.1890    1.4160   17.6930 C   0  0  0  0  0  0  0  0  0  0  0  0
    4.5730    1.8650   18.8620 C   0  0  0  0  0  0  0  0  0  0  0  0
    5.0910    1.4430   20.1080 C   0  0  0  0  0  0  0  0  0  0  0  0
    6.1850    0.6000   20.1680 C   0  0  0  0  0  0  0  0  0  0  0  0
    6.7430    0.1820   18.9840 C   0  0  0  0  0  0  0  0  0  0  0  0
    8.9780   -1.4040   24.3180 O   0  0  0  0  0  0  0  0  0  0  0  0
    7.7940   -1.8420   23.8710 N   0  0  0  0  0  0  0  0  0  0  0  0
    7.9020   -2.4940   22.6710 C   0  0  0  0  0  0  0  0  0  0  0  0
    9.3160   -2.3560   22.4740 C   0  0  0  0  0  0  0  0  0  0  0  0
    9.9760   -1.6830   23.5270 C   0  0  0  0  0  0  0  0  0  0  0  0
    9.5180    5.5660   24.1950 O   0  0  0  0  0  0  0  0  0  0  0  0
    8.7840    4.6890   24.8410 C   0  0  0  0  0  0  0  0  0  0  0  0
    9.2060    3.0050   23.8800 S   0  0  0  0  0  0  0  0  0  0  0  0
    8.7690    3.3020   22.2460 C   0  0  2  0  0  0  0  0  0  0  0  0
    8.2270    4.3820   22.8090 C   0  0  2  0  0  0  0  0  0  0  0  0
    8.9520    5.6090   22.9900 C   0  0  0  0  0  0  0  0  0  0  0  0
  2  4  1  0
  1  7  1  0
  3  7  2  0
  4  7  1  6
  8  1  1  6
  5  9  1  0
  6  9  2  0
  8  9  1  0
 12 13  1  0
 12 14  1  0
 12 15  1  0
 15 16  1  0
 17 20  1  0
 18 20  1  0
 19 20  2  0
 18 23  1  0
 23 26  1  1
 21 27  1  0
 22 27  2  0
 26 27  1  0
 23 28  1  0
 24 28  1  0
 25 28  2  0
  2 29  1  0
 24 29  1  0
  2 30  1  1
 31 32  2  0
 32 33  1  0
 33 34  2  0
  8 35  1  0
 34 35  1  0
 31 36  1  0
 35 36  2  0
 37 38  1  0
  4 39  1  0
 38 39  2  0
 39 40  1  0
 12 41  1  0
 37 41  1  0
 40 41  2  0
 42 43  1  0
  5 44  1  0
 10 44  1  0
 11 44  1  0
 43 44  1  0
 45  5  1  1
 44 45  1  0
 44 46  1  0
 45 46  1  0
 42 47  1  0
 46 47  1  6
M  END
