x0981-x2964-x2540-x2643
     RDKit          3D

 47 51  0  0  0  0  0  0  0  0999 V2000
    6.4360   -1.4890   22.0240 N   0  0  0  0  0  0  0  0  0  0  0  0
    6.6700   -4.3180   20.2120 C   0  0  2  0  0  0  0  0  0  0  0  0
    4.4860   -3.0280   21.8190 O   0  0  0  0  0  0  0  0  0  0  0  0
    5.9010   -3.0660   20.1360 C   0  0  0  0  0  0  0  0  0  0  0  0
    7.6960    1.7870   22.9030 N   0  0  0  0  0  0  0  0  0  0  0  0
    8.6310    0.9320   21.0450 O   0  0  0  0  0  0  0  0  0  0  0  0
    5.5450   -2.4880   21.4040 C   0  0  0  0  0  0  0  0  0  0  0  0
    6.5240    0.0140   21.7550 C   0  0  1  0  0  0  0  0  0  0  0  0
    7.8900    0.7240   22.0140 C   0  0  2  0  0  0  0  0  0  0  0  0
    8.6730    2.8710   23.2610 C   0  0  0  0  0  0  0  0  0  0  0  0
    8.9270    3.0470   24.7300 C   0  0  0  0  0  0  0  0  0  0  0  0
    8.2370    4.2480   22.7150 C   0  0  0  0  0  0  0  0  0  0  0  0
   10.0330    2.5790   22.5810 C   0  0  0  0  0  0  0  0  0  0  0  0
   12.0270   -1.4620   23.8480 C   0  0  1  0  0  0  0  0  0  0  0  0
   12.8880   -0.2170   24.5680 C   0  0  0  0  0  0  0  0  0  0  0  0
   12.5430   -2.7360   24.5500 C   0  0  0  0  0  0  0  0  0  0  0  0
    1.2010   -8.6780   21.4170 C   0  0  0  0  0  0  0  0  0  0  0  0
    2.8100   -7.2490   22.7650 N   0  0  0  0  0  0  0  0  0  0  0  0
    0.6820   -6.5210   22.3870 O   0  0  0  0  0  0  0  0  0  0  0  0
    1.5770   -7.4490   22.2240 C   0  0  0  0  0  0  0  0  0  0  0  0
    2.4470   -7.9920   26.1340 N   0  0  0  0  0  0  0  0  0  0  0  0
    4.0230   -8.1880   24.5860 O   0  0  0  0  0  0  0  0  0  0  0  0
    3.1940   -5.9470   23.3280 C   0  0  1  0  0  0  0  0  0  0  0  0
    4.9780   -5.0720   21.6790 N   0  0  0  0  0  0  0  0  0  0  0  0
    5.4800   -5.6400   23.8300 O   0  0  0  0  0  0  0  0  0  0  0  0
    3.0110   -6.1150   24.7170 C   0  0  0  0  0  0  0  0  0  0  0  0
    3.1640   -7.4470   25.1450 C   0  0  0  0  0  0  0  0  0  0  0  0
    4.5740   -5.5710   22.9000 C   0  0  0  0  0  0  0  0  0  0  0  0
    5.9980   -5.5240   20.8270 C   0  0  0  0  0  0  0  0  0  0  0  0
    7.3760   -4.0610   21.5980 C   0  0  0  0  0  0  0  0  0  0  0  0
    3.4460    2.4390   18.8300 N   0  0  0  0  0  0  0  0  0  0  0  0
    6.3930    0.3890   17.9460 N   0  0  0  0  0  0  0  0  0  0  0  0
    5.3010    1.1840   17.8650 C   0  0  0  0  0  0  0  0  0  0  0  0
    4.5670    1.6210   18.9630 C   0  0  0  0  0  0  0  0  0  0  0  0
    4.9790    1.2250   20.2220 C   0  0  0  0  0  0  0  0  0  0  0  0
    6.0870    0.4210   20.3380 C   0  0  0  0  0  0  0  0  0  0  0  0
    6.7640    0.0220   19.1910 C   0  0  0  0  0  0  0  0  0  0  0  0
    9.4430   -1.9120   24.2340 N   0  0  0  0  0  0  0  0  0  0  0  0
    8.2630   -1.2580   23.6900 N   0  0  0  0  0  0  0  0  0  0  0  0
    8.6780   -0.3060   22.8700 C   0  0  0  0  0  0  0  0  0  0  0  0
   10.0430   -0.2980   22.8390 C   0  0  2  0  0  0  0  0  0  0  0  0
   10.4610   -1.3060   23.7120 C   0  0  0  0  0  0  0  0  0  0  0  0
   10.7680    0.5240   23.8250 C   0  0  0  0  0  0  0  0  0  0  0  0
   11.8920   -0.1390   23.8720 C   0  0  0  0  0  0  0  0  0  0  0  0
   12.6880   -1.1920   23.2680 C   0  0  0  0  0  0  0  0  0  0  0  0
   12.1400   -1.4740   22.1830 C   0  0  0  0  0  0  0  0  0  0  0  0
   10.8820   -1.0120   21.8310 C   0  0  0  0  0  0  0  0  0  0  0  0
  2  4  1  0
  1  7  1  0
  3  7  2  0
  4  7  1  0
  8  1  1  6
  5  9  1  0
  9  6  1  6
  8  9  1  0
 10  5  1  0
 10 11  1  0
 10 12  1  0
 10 13  1  0
 14 15  1  0
 14 16  1  1
 17 20  1  0
 18 20  1  0
 19 20  2  0
 18 23  1  0
 23 26  1  1
 21 27  1  0
 22 27  2  0
 26 27  1  0
 23 28  1  0
 24 28  1  0
 25 28  2  0
  2 29  1  0
 24 29  1  0
  2 30  1  1
 32 33  2  0
 31 34  1  0
 33 34  1  0
 34 35  2  0
  8 36  1  0
 35 36  1  0
 32 37  1  0
 36 37  2  0
 38 39  1  0
  9 40  1  0
 39 40  2  0
 41 40  1  6
 14 42  1  0
 38 42  2  0
 41 42  1  0
 41 43  1  0
 15 44  1  0
 43 44  2  0
 44 45  1  0
 14 46  1  0
 45 46  1  0
 41 47  1  0
 46 47  2  0
M  END
