x0981-x2193
     RDKit          3D

 34 37  0  0  0  0  0  0  0  0999 V2000
    1.2310   -8.7100   21.3980 C   0  0  0  0  0  0  0  0  0  0  0  0
    2.7670   -7.0560   22.7180 N   0  0  0  0  0  0  0  0  0  0  0  0
    0.4800   -6.6020   22.2950 O   0  0  0  0  0  0  0  0  0  0  0  0
    1.4160   -7.3950   22.1600 C   0  0  0  0  0  0  0  0  0  0  0  0
    2.4600   -8.2340   26.3710 N   0  0  0  0  0  0  0  0  0  0  0  0
    3.9940   -8.2170   24.6140 O   0  0  0  0  0  0  0  0  0  0  0  0
    2.9830   -5.9480   23.5390 C   0  0  1  0  0  0  0  0  0  0  0  0
    5.0930   -5.6090   22.2630 N   0  0  0  0  0  0  0  0  0  0  0  0
    4.7310   -4.3520   24.0350 O   0  0  0  0  0  0  0  0  0  0  0  0
    2.7880   -6.2790   24.9780 C   0  0  0  0  0  0  0  0  0  0  0  0
    3.1490   -7.6740   25.2910 C   0  0  0  0  0  0  0  0  0  0  0  0
    4.3640   -5.2480   23.2810 C   0  0  0  0  0  0  0  0  0  0  0  0
    5.9600   -4.5520   21.6630 C   0  0  2  0  0  0  0  0  0  0  0  0
    6.2620   -4.9370   20.2160 C   0  0  0  0  0  0  0  0  0  0  0  0
    5.6970   -6.2330   19.8210 C   0  0  0  0  0  0  0  0  0  0  0  0
   11.0850    2.3290   23.0600 C   0  0  0  0  0  0  0  0  0  0  0  0
    9.2350    1.6270   21.0780 O   0  0  0  0  0  0  0  0  0  0  0  0
    8.3250    2.4440   23.1330 O   0  0  0  0  0  0  0  0  0  0  0  0
    9.4640    1.6460   22.5610 S   0  0  0  0  0  0  0  0  0  0  0  0
    7.1130   -4.2140   22.6340 C   0  0  0  0  0  0  0  0  0  0  0  0
    7.8550   -5.2920   23.0940 C   0  0  0  0  0  0  0  0  0  0  0  0
    8.3100   -5.0600   24.3810 C   0  0  1  0  0  0  0  0  0  0  0  0
    9.3570   -0.0010   23.2070 C   0  0  0  0  0  0  0  0  0  0  0  0
    8.7100   -0.1570   24.5020 C   0  0  0  0  0  0  0  0  0  0  0  0
    8.5740   -1.4120   25.0760 C   0  0  0  0  0  0  0  0  0  0  0  0
    9.0600   -2.5490   24.4370 C   0  0  0  0  0  0  0  0  0  0  0  0
    9.6870   -2.3820   23.1770 C   0  0  0  0  0  0  0  0  0  0  0  0
    9.8410   -1.1580   22.5600 C   0  0  0  0  0  0  0  0  0  0  0  0
    9.0440   -6.1360   26.3540 N   0  0  0  0  0  0  0  0  0  0  0  0
    8.3760   -5.0280   27.0400 C   0  0  0  0  0  0  0  0  0  0  0  0
    8.7050   -3.8190   26.4310 C   0  0  0  0  0  0  0  0  0  0  0  0
    8.9230   -3.7900   25.0550 C   0  0  1  0  0  0  0  0  0  0  0  0
    9.8630   -4.7270   24.6480 C   0  0  1  0  0  0  0  0  0  0  0  0
    9.2840   -5.8420   24.9560 C   0  0  2  0  0  0  0  0  0  0  0  0
  1  4  1  0
  2  4  1  0
  3  4  2  0
  2  7  1  0
  7 10  1  1
  5 11  1  0
  6 11  2  0
 10 11  1  0
  7 12  1  0
  8 12  1  0
  9 12  2  0
  8 13  1  0
 13 14  1  6
 14 15  2  3
 19 16  1  0
 17 19  2  0
 18 19  2  0
 13 20  1  0
 20 21  1  0
 22 21  1  6
 19 23  1  0
 23 24  2  0
 24 25  1  0
 25 26  2  0
 26 27  1  0
 23 28  1  0
 27 28  2  0
 29 30  1  0
 30 31  1  0
 22 32  1  0
 32 26  1  6
 31 32  1  0
 22 33  1  0
 32 33  1  0
 22 34  1  0
 34 29  1  1
 33 34  1  1
M  END
