x0981-x2776
     RDKit          3D

 47 49  0  0  0  0  0  0  0  0999 V2000
    6.9450   -1.7380   21.7270 N   0  0  0  0  0  0  0  0  0  0  0  0
    6.8780   -5.1820   20.6040 C   0  0  0  0  0  0  0  0  0  0  0  0
    4.8090   -2.9410   21.0420 O   0  0  0  0  0  0  0  0  0  0  0  0
    6.4430   -4.3350   21.7850 C   0  0  1  0  0  0  0  0  0  0  0  0
    7.5650    1.7710   22.7190 N   0  0  0  0  0  0  0  0  0  0  0  0
    8.9670    0.4750   21.4060 O   0  0  0  0  0  0  0  0  0  0  0  0
    6.0070   -2.9190   21.4950 C   0  0  0  0  0  0  0  0  0  0  0  0
   10.7290    6.4070   23.7380 O   0  0  0  0  0  0  0  0  0  0  0  0
    6.6380   -0.2430   21.5120 C   0  0  1  0  0  0  0  0  0  0  0  0
   12.6750   -2.9700   24.4490 O   0  0  0  0  0  0  0  0  0  0  0  0
    7.8460    0.6700   21.8600 C   0  0  0  0  0  0  0  0  0  0  0  0
   10.4350    1.5810   23.9120 C   0  0  0  0  0  0  0  0  0  0  0  0
   11.7450    6.2920   24.7400 C   0  0  0  0  0  0  0  0  0  0  0  0
   12.1460   -1.6440   24.4090 C   0  0  1  0  0  0  0  0  0  0  0  0
   13.0130   -0.8290   23.7470 C   0  0  0  0  0  0  0  0  0  0  0  0
   13.2460   -3.3010   25.7000 C   0  0  0  0  0  0  0  0  0  0  0  0
    1.4210   -8.3780   21.8220 C   0  0  0  0  0  0  0  0  0  0  0  0
    3.0710   -6.8590   22.7540 N   0  0  0  0  0  0  0  0  0  0  0  0
    0.8250   -6.2530   22.4840 O   0  0  0  0  0  0  0  0  0  0  0  0
    1.7040   -7.1050   22.3700 C   0  0  0  0  0  0  0  0  0  0  0  0
    2.5320   -8.2070   26.1520 N   0  0  0  0  0  0  0  0  0  0  0  0
    4.0460   -8.0820   24.5260 O   0  0  0  0  0  0  0  0  0  0  0  0
    3.3750   -5.7960   23.5730 C   0  0  1  0  0  0  0  0  0  0  0  0
    5.2040   -5.1810   22.1330 N   0  0  0  0  0  0  0  0  0  0  0  0
    5.2720   -4.9730   24.3950 O   0  0  0  0  0  0  0  0  0  0  0  0
    3.0570   -6.0550   25.0090 C   0  0  0  0  0  0  0  0  0  0  0  0
    3.2310   -7.5070   25.2190 C   0  0  0  0  0  0  0  0  0  0  0  0
    4.6280   -5.3210   23.4080 C   0  0  0  0  0  0  0  0  0  0  0  0
    5.9240   -5.9310   20.0940 C   0  0  0  0  0  0  0  0  0  0  0  0
    6.3830    0.3940   17.8490 N   0  0  0  0  0  0  0  0  0  0  0  0
    5.2590    1.1410   17.8320 C   0  0  0  0  0  0  0  0  0  0  0  0
    4.5390    1.4550   18.9360 C   0  0  0  0  0  0  0  0  0  0  0  0
    4.9570    1.0090   20.1680 C   0  0  0  0  0  0  0  0  0  0  0  0
    6.1050    0.2490   20.2310 C   0  0  0  0  0  0  0  0  0  0  0  0
    6.7980   -0.0490   19.0590 C   0  0  0  0  0  0  0  0  0  0  0  0
    9.7280    2.8670   23.5310 C   0  0  0  0  0  0  0  0  0  0  0  0
   10.4630    4.0590   23.7580 C   0  0  0  0  0  0  0  0  0  0  0  0
    9.9200    5.3190   23.4590 C   0  0  0  0  0  0  0  0  0  0  0  0
    8.6350    5.3850   22.9150 C   0  0  0  0  0  0  0  0  0  0  0  0
    7.8930    4.2140   22.6770 C   0  0  0  0  0  0  0  0  0  0  0  0
    8.4100    2.9340   22.9800 C   0  0  0  0  0  0  0  0  0  0  0  0
    9.3700   -2.1340   21.7530 C   0  0  0  0  0  0  0  0  0  0  0  0
   10.7380   -2.1090   22.4310 C   0  0  0  0  0  0  0  0  0  0  0  0
   10.8000   -1.7010   23.7470 C   0  0  0  0  0  0  0  0  0  0  0  0
    9.5040   -1.3180   24.4500 C   0  0  0  0  0  0  0  0  0  0  0  0
    8.2840   -1.3640   23.7590 C   0  0  0  0  0  0  0  0  0  0  0  0
    8.2140   -1.7580   22.4190 C   0  0  0  0  0  0  0  0  0  0  0  0
  4  2  1  6
  1  7  1  0
  3  7  2  0
  4  7  1  0
  1  9  1  0
  5 11  1  0
  6 11  2  0
  9 11  1  6
  8 13  1  0
 10 14  1  0
 14 15  1  6
 10 16  1  0
 17 20  1  0
 18 20  1  0
 19 20  2  0
 18 23  1  0
  4 24  1  0
 23 26  1  1
 21 27  1  0
 22 27  2  0
 26 27  1  0
 23 28  1  0
 24 28  1  0
 25 28  2  0
  2 29  2  3
 30 31  2  0
 31 32  1  0
 32 33  2  0
  9 34  1  0
 33 34  1  0
 30 35  1  0
 34 35  2  0
 12 36  1  0
 36 37  2  0
  8 38  1  0
 37 38  1  0
 38 39  2  0
 39 40  1  0
  5 41  1  0
 36 41  1  0
 40 41  2  0
 42 43  2  0
 14 44  1  0
 43 44  1  0
 44 45  2  0
 45 46  1  0
  1 47  1  0
 42 47  1  0
 46 47  2  0
M  END
