x0981-x2540-x3117-x2649
     RDKit          3D

 48 52  0  0  0  0  0  0  0  0999 V2000
    6.0270   -0.9950   22.3910 N   0  0  0  0  0  0  0  0  0  0  0  0
    6.8810   -4.4400   20.8050 C   0  0  1  0  0  0  0  0  0  0  0  0
    4.6400   -2.9470   21.5220 O   0  0  0  0  0  0  0  0  0  0  0  0
    6.9640   -3.2200   21.6430 C   0  0  0  0  0  0  0  0  0  0  0  0
    7.9660    2.2590   22.6350 N   0  0  0  0  0  0  0  0  0  0  0  0
    8.1340    1.6470   20.5330 O   0  0  0  0  0  0  0  0  0  0  0  0
    5.7800   -2.3650   21.8420 C   0  0  0  0  0  0  0  0  0  0  0  0
    7.1790   -0.1840   21.7490 C   0  0  2  0  0  0  0  0  0  0  0  0
    7.7590    1.3160   21.6490 C   0  0  0  0  0  0  0  0  0  0  0  0
    8.6720    1.6560   25.2130 C   0  0  0  0  0  0  0  0  0  0  0  0
   11.0450    2.8700   23.5790 C   0  0  0  0  0  0  0  0  0  0  0  0
   12.1230   -1.1510   23.4090 C   0  0  0  0  0  0  0  0  0  0  0  0
   12.8800   -0.2610   22.4840 C   0  0  0  0  0  0  0  0  0  0  0  0
   12.2490   -0.4140   24.7450 C   0  0  0  0  0  0  0  0  0  0  0  0
   12.8370   -2.4410   23.5730 C   0  0  0  0  0  0  0  0  0  0  0  0
   12.6470   -2.9340   25.0040 C   0  0  0  0  0  0  0  0  0  0  0  0
    1.2670   -8.6360   21.5140 C   0  0  0  0  0  0  0  0  0  0  0  0
    2.8620   -7.1060   22.6670 N   0  0  0  0  0  0  0  0  0  0  0  0
    0.6900   -6.5000   22.4300 O   0  0  0  0  0  0  0  0  0  0  0  0
    1.5840   -7.3460   22.2460 C   0  0  0  0  0  0  0  0  0  0  0  0
    2.6700   -8.0060   26.3300 N   0  0  0  0  0  0  0  0  0  0  0  0
    4.0720   -8.2050   24.5130 O   0  0  0  0  0  0  0  0  0  0  0  0
    3.2340   -6.0020   23.3760 C   0  0  1  0  0  0  0  0  0  0  0  0
    5.5130   -6.1340   22.0090 N   0  0  0  0  0  0  0  0  0  0  0  0
    5.2600   -4.8490   23.9350 O   0  0  0  0  0  0  0  0  0  0  0  0
    3.1410   -6.1640   24.7680 C   0  0  0  0  0  0  0  0  0  0  0  0
    3.3400   -7.4930   25.1550 C   0  0  0  0  0  0  0  0  0  0  0  0
    4.7300   -5.6450   23.1060 C   0  0  0  0  0  0  0  0  0  0  0  0
    6.8470   -5.7130   21.6570 C   0  0  0  0  0  0  0  0  0  0  0  0
    5.4660   -4.6030   20.2500 C   0  0  0  0  0  0  0  0  0  0  0  0
    4.8610    1.4470   21.4750 C   0  0  0  0  0  0  0  0  0  0  0  0
    6.5080   -0.2040   17.9580 N   0  0  0  0  0  0  0  0  0  0  0  0
    5.4220    0.5960   17.9180 C   0  0  0  0  0  0  0  0  0  0  0  0
    4.8970    1.1240   19.0740 C   0  0  0  0  0  0  0  0  0  0  0  0
    5.5020    0.8290   20.2890 C   0  0  0  0  0  0  0  0  0  0  0  0
    6.6410    0.0020   20.3420 C   0  0  0  0  0  0  0  0  0  0  0  0
    7.1070   -0.4980   19.1460 C   0  0  0  0  0  0  0  0  0  0  0  0
    9.7620   -2.1840   23.6810 O   0  0  0  0  0  0  0  0  0  0  0  0
    8.4410   -1.9460   23.2390 N   0  0  0  0  0  0  0  0  0  0  0  0
    8.4520   -0.8590   22.4190 C   0  0  0  0  0  0  0  0  0  0  0  0
    9.8020   -0.4530   22.3660 C   0  0  0  0  0  0  0  0  0  0  0  0
   10.6260   -1.2570   23.1540 C   0  0  0  0  0  0  0  0  0  0  0  0
    9.4690    5.5410   24.2770 O   0  0  0  0  0  0  0  0  0  0  0  0
    8.7700    4.6710   24.9890 C   0  0  0  0  0  0  0  0  0  0  0  0
    9.1070    2.9940   23.9810 S   0  0  0  0  0  0  0  0  0  0  0  0
    8.4670    3.4000   22.3450 C   0  0  2  0  0  0  0  0  0  0  0  0
    8.1200    4.2970   23.1760 C   0  0  2  0  0  0  0  0  0  0  0  0
    8.8080    5.5360   23.1270 C   0  0  0  0  0  0  0  0  0  0  0  0
  2  4  1  0
  1  7  1  0
  3  7  2  0
  4  7  1  0
  8  1  1  1
  5  9  1  0
  6  9  2  0
  8  9  1  0
 12 13  1  0
 12 14  1  0
 12 15  1  0
 15 16  1  0
 17 20  1  0
 18 20  1  0
 19 20  2  0
 18 23  1  0
 23 26  1  1
 21 27  1  0
 22 27  2  0
 26 27  1  0
 23 28  1  0
 24 28  1  0
 25 28  2  0
  2 29  1  0
 24 29  1  0
  2 30  1  1
 32 33  2  0
 33 34  1  0
 31 35  1  0
 34 35  2  0
  8 36  1  0
 35 36  1  0
 32 37  1  0
 36 37  2  0
 38 39  1  0
  8 40  1  0
 39 40  2  0
 40 41  1  0
 12 42  1  0
 38 42  1  0
 41 42  2  0
 43 44  1  0
  5 45  1  0
 10 45  1  0
 11 45  1  0
 44 45  1  0
 46  5  1  1
 45 46  1  0
 45 47  1  0
 46 47  1  0
 43 48  1  0
 47 48  1  6
M  END
