x0981-x2705-x0691-x2572
     RDKit          3D

 61 70  0  0  0  0  0  0  0  0999 V2000
    6.9960   -1.7710   21.5750 N   0  0  0  0  0  0  0  0  0  0  0  0
    7.0100   -5.1050   20.5130 C   0  0  2  0  0  0  0  0  0  0  0  0
    4.7260   -2.8380   21.0240 O   0  0  0  0  0  0  0  0  0  0  0  0
    6.1190   -4.3790   21.3670 C   0  0  2  0  0  0  0  0  0  0  0  0
    7.4120    1.8810   22.6410 N   0  0  0  0  0  0  0  0  0  0  0  0
    8.9670    0.5700   21.5660 O   0  0  0  0  0  0  0  0  0  0  0  0
    5.9480   -2.9120   21.3270 C   0  0  0  0  0  0  0  0  0  0  0  0
    6.6610   -0.2830   21.4040 C   0  0  1  0  0  0  0  0  0  0  0  0
    7.7900    0.7510   21.8910 C   0  0  0  0  0  0  0  0  0  0  0  0
   10.1340    1.9330   23.9160 C   0  0  0  0  0  0  0  0  0  0  0  0
    9.2670    1.1820   24.9200 C   0  0  0  0  0  0  0  0  0  0  0  0
    6.1620    4.1290   21.8150 C   0  0  0  0  0  0  0  0  0  0  0  0
   11.9660   -1.6050   23.2190 C   0  0  0  0  0  0  0  0  0  0  0  0
   12.3170   -0.2120   23.7920 C   0  0  0  0  0  0  0  0  0  0  0  0
   12.4840   -2.6250   24.2550 C   0  0  0  0  0  0  0  0  0  0  0  0
   12.7570   -1.7930   21.9130 C   0  0  0  0  0  0  0  0  0  0  0  0
    1.1950   -8.6350   21.5770 C   0  0  0  0  0  0  0  0  0  0  0  0
    2.8380   -7.0360   22.5690 N   0  0  0  0  0  0  0  0  0  0  0  0
    0.5780   -6.6030   22.3170 O   0  0  0  0  0  0  0  0  0  0  0  0
    1.5380   -7.4190   22.1710 C   0  0  0  0  0  0  0  0  0  0  0  0
    2.9660   -7.8740   26.4970 N   0  0  0  0  0  0  0  0  0  0  0  0
    4.3040   -7.9530   24.6570 O   0  0  0  0  0  0  0  0  0  0  0  0
    3.0680   -5.8980   23.3990 C   0  0  1  0  0  0  0  0  0  0  0  0
    5.1630   -4.2770   23.8260 N   0  0  0  0  0  0  0  0  0  0  0  0
    2.5910   -6.4510   24.6230 C   0  0  0  0  0  0  0  0  0  0  0  0
    3.4510   -7.2050   25.4040 C   0  0  1  0  0  0  0  0  0  0  0  0
    6.0110   -5.9730   19.8690 C   0  0  0  0  0  0  0  0  0  0  0  0
    5.3800   -5.8770   26.9540 O   0  0  0  0  0  0  0  0  0  0  0  0
    3.4800   -0.7100   26.1300 F   0  0  0  0  0  0  0  0  0  0  0  0
    4.4320   -5.7280   25.8700 S   0  0  0  0  0  0  0  0  0  0  0  0
    4.1890    1.2050   21.3210 C   0  0  0  0  0  0  0  0  0  0  0  0
   13.3830   -1.8840   20.9620 N   0  0  0  0  0  0  0  0  0  0  0  0
    6.3390    0.3950   17.8550 N   0  0  0  0  0  0  0  0  0  0  0  0
    5.1900    1.1310   17.7840 C   0  0  0  0  0  0  0  0  0  0  0  0
    4.5020    1.3750   18.9290 C   0  0  0  0  0  0  0  0  0  0  0  0
    4.9590    0.9030   20.1470 C   0  0  0  0  0  0  0  0  0  0  0  0
    6.1270    0.1790   20.1860 C   0  0  0  0  0  0  0  0  0  0  0  0
    6.7960   -0.0660   19.0010 C   0  0  0  0  0  0  0  0  0  0  0  0
    9.5810   -1.9880   24.1530 N   0  0  0  0  0  0  0  0  0  0  0  0
    8.3940   -2.0140   23.6170 N   0  0  0  0  0  0  0  0  0  0  0  0
    8.1870   -1.8450   22.4440 C   0  0  0  0  0  0  0  0  0  0  0  0
    9.5700   -1.6600   22.0670 C   0  0  0  0  0  0  0  0  0  0  0  0
   10.4610   -1.7440   23.1410 C   0  0  0  0  0  0  0  0  0  0  0  0
    9.3950    3.1350   23.4490 C   0  0  0  0  0  0  0  0  0  0  0  0
   10.0660    4.4620   23.6350 C   0  0  0  0  0  0  0  0  0  0  0  0
    9.4520    5.6410   23.2260 C   0  0  0  0  0  0  0  0  0  0  0  0
    8.0750    5.5340   22.5820 C   0  0  0  0  0  0  0  0  0  0  0  0
    7.5010    4.2590   22.4370 C   0  0  0  0  0  0  0  0  0  0  0  0
    8.1770    3.0960   22.8760 C   0  0  0  0  0  0  0  0  0  0  0  0
    2.9580   -1.9450   26.1180 C   0  0  0  0  0  0  0  0  0  0  0  0
    3.7880   -3.0640   26.0340 C   0  0  0  0  0  0  0  0  0  0  0  0
    3.2880   -4.3740   26.0210 C   0  0  0  0  0  0  0  0  0  0  0  0
    1.9070   -4.6030   26.0980 C   0  0  0  0  0  0  0  0  0  0  0  0
    1.0270   -3.3500   26.1830 C   0  0  0  0  0  0  0  0  0  0  0  0
    1.6040   -2.1120   26.1870 C   0  0  0  0  0  0  0  0  0  0  0  0
    6.9020   -5.0710   22.1240 C   0  0  1  0  0  0  0  0  0  0  0  0
    5.3590   -5.4510   22.0380 C   0  0  1  0  0  0  0  0  0  0  0  0
    4.5710   -5.4850   23.3230 C   0  0  2  0  0  0  0  0  0  0  0  0
    5.2130   -5.2540   24.6830 C   0  0  1  0  0  0  0  0  0  0  0  0
    6.5060   -4.5690   24.3940 C   0  0  1  0  0  0  0  0  0  0  0  0
    7.4300   -5.2500   23.3690 C   0  0  0  0  0  0  0  0  0  0  0  0
  2  4  1  0
  1  7  1  0
  3  7  2  0
  4  7  1  1
  1  8  1  0
  5  9  1  0
  6  9  2  0
  8  9  1  6
 10 11  1  0
 13 14  1  0
 13 15  1  0
 13 16  1  0
 17 20  1  0
 18 20  1  0
 19 20  2  0
 23 18  1  6
 23 25  1  0
 26 21  1  1
 26 22  1  0
 25 26  1  0
  2 27  1  6
 26 30  1  0
 28 30  2  0
 16 32  3  0
 33 34  2  0
 34 35  1  0
 31 36  1  0
 35 36  2  0
  8 37  1  0
 36 37  1  0
 33 38  1  0
 37 38  2  0
 39 40  1  0
  1 41  1  0
 40 41  2  0
 41 42  1  0
 13 43  1  0
 39 43  1  0
 42 43  2  0
 10 44  1  0
 44 45  2  0
 45 46  1  0
 46 47  2  0
 12 48  1  0
 47 48  1  0
  5 49  1  0
 44 49  1  0
 48 49  2  0
 29 50  1  0
 50 51  2  0
 30 52  1  0
 51 52  1  0
 52 53  2  0
 53 54  1  0
 50 55  1  0
 54 55  2  0
  2 56  1  0
  4 56  1  0
 57  4  1  6
 56 57  1  0
 23 58  1  0
 58 24  1  6
 57 58  1  0
 24 59  1  0
 59 30  1  1
 58 59  1  0
 24 60  1  0
 59 60  1  0
 56 61  1  1
 60 61  1  6
M  END
