x0981-x2540-x3117-x2643
     RDKit          3D

 47 51  0  0  0  0  0  0  0  0999 V2000
    7.0750   -1.3520   21.5070 N   0  0  0  0  0  0  0  0  0  0  0  0
    7.1300   -4.3350   20.8800 C   0  0  2  0  0  0  0  0  0  0  0  0
    4.8760   -3.1260   21.3080 O   0  0  0  0  0  0  0  0  0  0  0  0
    6.3600   -3.1440   20.4510 C   0  0  0  0  0  0  0  0  0  0  0  0
    7.9460    1.9850   22.6820 N   0  0  0  0  0  0  0  0  0  0  0  0
    8.8220    1.1360   20.8610 O   0  0  0  0  0  0  0  0  0  0  0  0
    5.8100   -2.2230   21.5160 C   0  0  0  0  0  0  0  0  0  0  0  0
    6.8740    0.1640   21.4820 C   0  0  1  0  0  0  0  0  0  0  0  0
    7.9200    1.0720   21.6430 C   0  0  0  0  0  0  0  0  0  0  0  0
    8.0320    3.2060   25.5860 C   0  0  0  0  0  0  0  0  0  0  0  0
   10.2830    1.6280   24.0290 C   0  0  0  0  0  0  0  0  0  0  0  0
   11.8710   -1.4340   23.5890 C   0  0  0  0  0  0  0  0  0  0  0  0
   12.6580   -0.9610   22.3600 C   0  0  0  0  0  0  0  0  0  0  0  0
   12.0790   -0.3790   24.6960 C   0  0  0  0  0  0  0  0  0  0  0  0
   12.4760   -2.7700   24.0540 C   0  0  0  0  0  0  0  0  0  0  0  0
   13.4560   -2.7440   25.2340 C   0  0  0  0  0  0  0  0  0  0  0  0
    1.2450   -8.7150   21.4460 C   0  0  0  0  0  0  0  0  0  0  0  0
    2.7980   -7.1500   22.7440 N   0  0  0  0  0  0  0  0  0  0  0  0
    0.6550   -6.5560   22.3580 O   0  0  0  0  0  0  0  0  0  0  0  0
    1.5740   -7.4500   22.2120 C   0  0  0  0  0  0  0  0  0  0  0  0
    2.4040   -8.0940   26.1570 N   0  0  0  0  0  0  0  0  0  0  0  0
    4.0100   -8.1460   24.5590 O   0  0  0  0  0  0  0  0  0  0  0  0
    3.0330   -6.0260   23.3530 C   0  0  1  0  0  0  0  0  0  0  0  0
    5.3250   -5.6390   22.1970 N   0  0  0  0  0  0  0  0  0  0  0  0
    4.8130   -4.8180   24.2590 O   0  0  0  0  0  0  0  0  0  0  0  0
    2.7790   -6.2670   24.7040 C   0  0  0  0  0  0  0  0  0  0  0  0
    3.0910   -7.5460   25.1340 C   0  0  0  0  0  0  0  0  0  0  0  0
    4.4690   -5.4810   23.2560 C   0  0  0  0  0  0  0  0  0  0  0  0
    6.6550   -4.9660   22.1800 C   0  0  0  0  0  0  0  0  0  0  0  0
    8.4010   -3.6110   21.0910 C   0  0  0  0  0  0  0  0  0  0  0  0
    6.2640    0.4630   17.7730 N   0  0  0  0  0  0  0  0  0  0  0  0
    5.2150    1.3350   17.7310 C   0  0  0  0  0  0  0  0  0  0  0  0
    4.6770    1.8260   18.8910 C   0  0  0  0  0  0  0  0  0  0  0  0
    5.2170    1.4340   20.1040 C   0  0  0  0  0  0  0  0  0  0  0  0
    6.2920    0.5510   20.1260 C   0  0  0  0  0  0  0  0  0  0  0  0
    6.8100    0.0610   18.9440 C   0  0  0  0  0  0  0  0  0  0  0  0
    9.4340   -2.0380   24.2730 O   0  0  0  0  0  0  0  0  0  0  0  0
    8.2280   -2.0190   23.7410 N   0  0  0  0  0  0  0  0  0  0  0  0
    8.2140   -1.5560   22.4640 C   0  0  0  0  0  0  0  0  0  0  0  0
    9.5940   -1.3000   22.3030 C   0  0  0  0  0  0  0  0  0  0  0  0
   10.3600   -1.5990   23.4370 C   0  0  0  0  0  0  0  0  0  0  0  0
    9.5800    5.4910   24.0350 O   0  0  0  0  0  0  0  0  0  0  0  0
   10.3200    4.4850   23.6840 C   0  0  0  0  0  0  0  0  0  0  0  0
    9.0040    2.9760   23.8960 S   0  0  0  0  0  0  0  0  0  0  0  0
    7.6430    3.3400   22.4210 C   0  0  1  0  0  0  0  0  0  0  0  0
    8.6670    4.0900   22.7380 C   0  0  1  0  0  0  0  0  0  0  0  0
    8.5240    5.4120   23.1960 C   0  0  0  0  0  0  0  0  0  0  0  0
  2  4  1  0
  1  7  1  0
  3  7  2  0
  4  7  1  0
  1  8  1  0
  5  9  1  0
  6  9  2  0
  8  9  1  6
 12 13  1  0
 12 14  1  0
 12 15  1  0
 15 16  1  0
 17 20  1  0
 18 20  1  0
 19 20  2  0
 18 23  1  0
 23 26  1  1
 21 27  1  0
 22 27  2  0
 26 27  1  0
 23 28  1  0
 24 28  1  0
 25 28  2  0
  2 29  1  0
 24 29  1  0
  2 30  1  1
 31 32  2  0
 32 33  1  0
 33 34  2  0
  8 35  1  0
 34 35  1  0
 31 36  1  0
 35 36  2  0
 37 38  1  0
  1 39  1  0
 38 39  2  0
 39 40  1  0
 12 41  1  0
 37 41  1  0
 40 41  2  0
 42 43  1  0
  5 44  1  0
 10 44  1  0
 11 44  1  0
 43 44  1  0
 45  5  1  6
 44 45  1  0
 44 46  1  0
 45 46  1  0
 42 47  1  0
 46 47  1  1
M  END
