x0991-x0981
     RDKit          3D

 21 20  0  0  0  0  0  0  0  0999 V2000
    1.2640   -8.6860   21.4360 C   0  0  0  0  0  0  0  0  0  0  0  0
    2.7680   -7.0820   22.7210 N   0  0  0  0  0  0  0  0  0  0  0  0
    0.3300   -6.4220   22.2930 O   0  0  0  0  0  0  0  0  0  0  0  0
    1.4060   -7.3450   22.1760 C   0  0  0  0  0  0  0  0  0  0  0  0
    2.4770   -8.2510   26.3560 N   0  0  0  0  0  0  0  0  0  0  0  0
    4.0030   -8.2010   24.5940 O   0  0  0  0  0  0  0  0  0  0  0  0
    3.0030   -5.8940   23.5860 C   0  0  1  0  0  0  0  0  0  0  0  0
    5.0850   -5.7320   22.2890 N   0  0  0  0  0  0  0  0  0  0  0  0
    4.8320   -4.3560   24.0790 O   0  0  0  0  0  0  0  0  0  0  0  0
    2.8140   -6.2600   25.0180 C   0  0  0  0  0  0  0  0  0  0  0  0
    3.1650   -7.6680   25.2890 C   0  0  0  0  0  0  0  0  0  0  0  0
    4.4030   -5.2430   23.3570 C   0  0  0  0  0  0  0  0  0  0  0  0
    6.2700   -4.8980   21.9430 C   0  0  2  0  0  0  0  0  0  0  0  0
    6.3910   -5.0910   20.4090 C   0  0  0  0  0  0  0  0  0  0  0  0
    5.6760   -6.2510   19.8520 C   0  0  0  0  0  0  0  0  0  0  0  0
    9.7910   -5.4850   25.2450 N   0  0  0  0  0  0  0  0  0  0  0  0
    7.8440   -3.1400   23.5830 C   0  0  0  0  0  0  0  0  0  0  0  0
    8.3470   -4.3830   23.6310 C   0  0  1  0  0  0  0  0  0  0  0  0
    7.6150   -5.0240   25.9940 N   0  0  0  0  0  0  0  0  0  0  0  0
    8.6050   -4.9590   24.9100 C   0  0  0  0  0  0  0  0  0  0  0  0
    7.4260   -5.3860   22.8860 C   0  0  0  0  0  0  0  0  0  0  0  0
  1  4  1  0
  2  4  1  0
  3  4  2  0
  2  7  1  0
  7 10  1  1
  5 11  1  0
  6 11  2  0
 10 11  1  0
  7 12  1  0
  8 12  1  0
  9 12  2  0
  8 13  1  0
 13 14  1  6
 14 15  2  3
 18 17  1  1
 16 20  2  3
 18 20  1  0
 19 20  1  0
 13 21  1  0
 18 21  1  0
M  END
