x0991-x0072
     RDKit          3D

 14 14  0  0  0  0  0  0  0  0999 V2000
    7.2790   -4.4750   27.4800 C   0  0  0  0  0  0  0  0  0  0  0  0
    7.9890   -4.0360   25.9620 S   0  0  2  0  0  0  0  0  0  0  0  0
    8.9980   -5.4280   26.1260 C   0  0  0  0  0  0  0  0  0  0  0  0
    6.8750   -3.2650   26.8550 O   0  0  0  0  0  0  0  0  0  0  0  0
    7.9020   -2.9840   24.6770 N   0  0  0  0  0  0  0  0  0  0  0  0
    9.0810   -2.8800   23.8070 C   0  0  0  0  0  0  0  0  0  0  0  0
    9.4050   -1.4580   23.5790 C   0  0  0  0  0  0  0  0  0  0  0  0
    9.7950   -6.5740   26.3150 N   0  0  0  0  0  0  0  0  0  0  0  0
   10.8040   -1.1750   23.1960 C   0  0  0  0  0  0  0  0  0  0  0  0
   11.6710   -1.8760   22.2270 C   0  0  0  0  0  0  0  0  0  0  0  0
   12.9770   -1.2570   22.1510 C   0  0  0  0  0  0  0  0  0  0  0  0
   13.0450   -0.1640   23.0170 C   0  0  0  0  0  0  0  0  0  0  0  0
   12.0470    0.3510   23.8950 C   0  0  0  0  0  0  0  0  0  0  0  0
   10.6740   -0.0400   24.1980 C   0  0  0  0  0  0  0  0  0  0  0  0
  2  1  1  6
  2  3  2  0
  2  4  2  0
  2  5  1  0
  5  6  1  0
  6  7  1  0
  3  8  2  0
  7  9  1  0
  9 10  2  0
 10 11  1  0
 11 12  2  0
 12 13  1  0
  9 14  1  0
 13 14  2  0
M  END
