x0991-x2563-x2646-x1493
     RDKit          3D

 39 47  0  0  0  0  0  0  0  0999 V2000
    8.6980    1.3450   21.1920 O   0  0  0  0  0  0  0  0  0  0  0  0
   13.2690   -1.9020   21.2270 Cl  0  0  0  0  0  0  0  0  0  0  0  0
    7.1840   -0.4520   20.9620 N   0  0  0  0  0  0  0  0  0  0  0  0
    8.1920    0.2740   21.5970 C   0  0  0  0  0  0  0  0  0  0  0  0
    8.6660   -0.3920   22.8840 C   0  0  0  0  0  0  0  0  0  0  0  0
    4.6820   -6.1430   26.2200 C   0  0  0  0  0  0  0  0  0  0  0  0
    6.9570   -5.6100   26.4780 N   0  0  0  0  0  0  0  0  0  0  0  0
    5.9510   -5.5070   25.6620 C   0  0  0  0  0  0  0  0  0  0  0  0
    5.8320   -4.3930   19.9070 O   0  0  0  0  0  0  0  0  0  0  0  0
    6.8640   -4.5340   20.6070 C   0  0  0  0  0  0  0  0  0  0  0  0
    8.1860   -3.8280   20.2700 C   0  0  0  0  0  0  0  0  0  0  0  0
    7.0040   -1.8500   21.1870 C   0  0  0  0  0  0  0  0  0  0  0  0
    8.0900   -2.3490   20.3400 C   0  0  0  0  0  0  0  0  0  0  0  0
   10.0530   -5.8420   25.0680 N   0  0  0  0  0  0  0  0  0  0  0  0
    7.9660   -3.4210   23.2780 C   0  0  2  0  0  0  0  0  0  0  0  0
    8.5420   -4.7580   23.8040 C   0  0  2  0  0  0  0  0  0  0  0  0
    8.2010   -5.1510   26.1990 N   0  0  0  0  0  0  0  0  0  0  0  0
    8.9400   -5.2550   25.0610 C   0  0  0  0  0  0  0  0  0  0  0  0
    4.4900    0.8550   18.5560 C   0  0  1  0  0  0  0  0  0  0  0  0
    5.6380   -0.2360   18.9310 C   0  0  0  0  0  0  0  0  0  0  0  0
    6.2530    0.0340   20.1540 C   0  0  0  0  0  0  0  0  0  0  0  0
    5.3700    1.0050   20.2450 C   0  0  0  0  0  0  0  0  0  0  0  0
    5.0100    1.9550   17.9280 C   0  0  0  0  0  0  0  0  0  0  0  0
   10.7210    0.5600   23.8780 C   0  0  0  0  0  0  0  0  0  0  0  0
   12.0900    0.6530   23.9420 C   0  0  0  0  0  0  0  0  0  0  0  0
   12.8860   -0.1110   23.1250 C   0  0  0  0  0  0  0  0  0  0  0  0
   12.3010   -0.9750   22.2430 C   0  0  0  0  0  0  0  0  0  0  0  0
   10.9350   -1.0960   22.1540 C   0  0  0  0  0  0  0  0  0  0  0  0
   10.1370   -0.3110   22.9790 C   0  0  0  0  0  0  0  0  0  0  0  0
    3.3620    1.5330   19.5220 C   0  0  0  0  0  0  0  0  0  0  0  0
    3.3850    1.5430   20.9130 C   0  0  0  0  0  0  0  0  0  0  0  0
    4.4770    0.7640   21.1730 C   0  0  0  0  0  0  0  0  0  0  0  0
    5.5150    1.9630   19.1420 C   0  0  0  0  0  0  0  0  0  0  0  0
    5.8890   -4.9270   24.3910 N   0  0  0  0  0  0  0  0  0  0  0  0
    7.1220   -4.3140   24.0190 C   0  0  1  0  0  0  0  0  0  0  0  0
    7.6570   -4.7630   22.7240 C   0  0  1  0  0  0  0  0  0  0  0  0
    6.8990   -5.3350   21.7230 N   0  0  0  0  0  0  0  0  0  0  0  0
    5.8320   -6.1930   22.2360 C   0  0  0  0  0  0  0  0  0  0  0  0
    5.0170   -5.4490   23.3100 C   0  0  0  0  0  0  0  0  0  0  0  0
  1  4  2  0
  3  4  1  0
  4  5  1  0
  6  8  1  0
  7  8  2  0
  9 10  2  0
 10 11  1  0
  3 12  1  0
 11 13  1  0
 12 13  1  0
 15 16  1  1
  7 17  1  0
 14 18  2  3
 16 18  1  1
 17 18  1  0
 19 20  1  1
  3 21  1  0
 20 21  2  0
 21 22  1  0
 19 23  1  0
 24 25  2  0
 25 26  1  0
  2 27  1  0
 26 27  2  0
 27 28  1  0
  5 29  1  0
 24 29  1  0
 28 29  2  0
 19 30  1  0
 30 31  2  0
 22 32  2  0
 31 32  1  0
 19 33  1  0
 22 33  1  0
 23 33  2  0
  8 34  1  0
 15 35  1  0
 16 35  1  0
 35 34  1  6
 15 36  1  0
 16 36  1  0
 35 36  1  0
 10 37  1  0
 36 37  1  6
 37 38  1  0
 34 39  1  0
 38 39  1  0
M  END
