x0991-x1358
     RDKit          3D

 25 28  0  0  0  0  0  0  0  0999 V2000
    7.1260   -2.6210   25.9650 N   0  0  0  0  0  0  0  0  0  0  0  0
    5.4300   -0.3530   25.2700 O   0  0  0  0  0  0  0  0  0  0  0  0
    5.1260   -3.7460   25.5750 O   0  0  0  0  0  0  0  0  0  0  0  0
    5.1220   -4.1600   19.6450 O   0  0  0  0  0  0  0  0  0  0  0  0
    6.2690   -3.4230   25.2400 C   0  0  0  0  0  0  0  0  0  0  0  0
    6.2360   -3.7480   20.0050 C   0  0  0  0  0  0  0  0  0  0  0  0
    7.2430   -3.1470   19.0720 C   0  0  0  0  0  0  0  0  0  0  0  0
    9.8470   -5.8920   25.1260 N   0  0  0  0  0  0  0  0  0  0  0  0
    9.1080   -3.3910   23.6720 C   0  0  0  0  0  0  0  0  0  0  0  0
    8.1990   -4.5070   23.9390 C   0  0  1  0  0  0  0  0  0  0  0  0
    8.0990   -5.0480   26.4280 N   0  0  0  0  0  0  0  0  0  0  0  0
    8.7070   -5.1640   25.2210 C   0  0  0  0  0  0  0  0  0  0  0  0
    8.4780   -2.4630   22.6960 C   0  0  1  0  0  0  0  0  0  0  0  0
    6.0530   -0.3640   26.4880 C   0  0  0  0  0  0  0  0  0  0  0  0
    6.8410   -1.4550   26.7690 C   0  0  0  0  0  0  0  0  0  0  0  0
    7.5390   -1.6270   27.9430 C   0  0  0  0  0  0  0  0  0  0  0  0
    7.4430   -0.6700   28.8690 C   0  0  0  0  0  0  0  0  0  0  0  0
    6.6760    0.5020   28.7250 C   0  0  0  0  0  0  0  0  0  0  0  0
    5.9740    0.6370   27.4980 C   0  0  0  0  0  0  0  0  0  0  0  0
    6.5700   -3.8590   21.3370 N   0  0  0  0  0  0  0  0  0  0  0  0
    7.4390   -2.8950   21.7880 C   0  0  1  0  0  0  0  0  0  0  0  0
    6.9850   -2.7600   23.0930 C   0  0  1  0  0  0  0  0  0  0  0  0
    6.8740   -3.8910   23.8940 C   0  0  2  0  0  0  0  0  0  0  0  0
    5.8590   -4.6660   23.3750 C   0  0  0  0  0  0  0  0  0  0  0  0
    6.3050   -4.9790   22.0770 C   0  0  0  0  0  0  0  0  0  0  0  0
  1  5  1  0
  3  5  2  0
  4  6  2  0
  6  7  1  0
  9 10  1  0
  8 12  2  3
 10 12  1  1
 11 12  1  0
 13  9  1  1
  2 14  1  0
  1 15  1  0
 14 15  2  0
 15 16  1  0
 16 17  2  0
 17 18  1  0
 14 19  1  0
 18 19  2  0
  6 20  1  0
 13 21  1  0
 21 20  1  1
 22 13  1  1
 21 22  1  0
 23  5  1  1
 10 23  1  0
 22 23  1  0
 23 24  1  0
 20 25  1  0
 24 25  1  0
M  END
