x0991-x2646
     RDKit          3D

 24 25  0  0  0  0  0  0  0  0999 V2000
    4.6690    1.3650   21.7470 C   0  0  0  0  0  0  0  0  0  0  0  0
    8.6390    0.8540   21.7420 O   0  0  0  0  0  0  0  0  0  0  0  0
   13.3840   -2.0240   21.1090 Cl  0  0  0  0  0  0  0  0  0  0  0  0
    6.8900   -0.5740   21.1250 N   0  0  0  0  0  0  0  0  0  0  0  0
    8.0690   -0.2360   21.7200 C   0  0  0  0  0  0  0  0  0  0  0  0
    8.8210   -1.3320   22.4150 C   0  0  2  0  0  0  0  0  0  0  0  0
    9.8110   -5.7920   25.1520 N   0  0  0  0  0  0  0  0  0  0  0  0
    8.5310   -3.5180   23.5810 C   0  0  0  0  0  0  0  0  0  0  0  0
    7.8140   -4.5390   24.4910 C   0  0  0  0  0  0  0  0  0  0  0  0
    8.1530   -5.0190   26.8860 N   0  0  0  0  0  0  0  0  0  0  0  0
    8.5830   -5.1050   25.5000 C   0  0  0  0  0  0  0  0  0  0  0  0
    8.1570   -2.0210   23.6060 C   0  0  0  0  0  0  0  0  0  0  0  0
    6.2920    0.5730   17.6440 N   0  0  0  0  0  0  0  0  0  0  0  0
    6.7740   -0.0640   18.7410 C   0  0  0  0  0  0  0  0  0  0  0  0
    6.3350    0.1120   20.0510 C   0  0  0  0  0  0  0  0  0  0  0  0
    5.2060    1.0950   20.3800 C   0  0  0  0  0  0  0  0  0  0  0  0
    4.6770    1.7930   19.1340 C   0  0  0  0  0  0  0  0  0  0  0  0
    5.2870    1.4700   17.7760 C   0  0  0  0  0  0  0  0  0  0  0  0
   10.4820    0.1660   23.6390 C   0  0  0  0  0  0  0  0  0  0  0  0
   11.9230    0.5930   23.8360 C   0  0  0  0  0  0  0  0  0  0  0  0
   12.9450   -0.1450   22.9810 C   0  0  0  0  0  0  0  0  0  0  0  0
   12.4390   -1.1150   22.1360 C   0  0  0  0  0  0  0  0  0  0  0  0
   11.1460   -1.4390   22.0170 C   0  0  0  0  0  0  0  0  0  0  0  0
   10.1790   -0.8370   22.7240 C   0  0  0  0  0  0  0  0  0  0  0  0
  2  5  2  0
  4  5  1  0
  5  6  1  0
  8  9  1  0
  7 11  2  3
  9 11  1  0
 10 11  1  0
  6 12  1  1
  8 12  1  0
 13 14  2  0
  4 15  1  0
 14 15  1  0
  1 16  1  0
 15 16  2  0
 16 17  1  0
 13 18  1  0
 17 18  2  0
 19 20  2  0
 20 21  1  0
  3 22  1  0
 21 22  2  0
 22 23  1  0
  6 24  1  0
 19 24  1  0
 23 24  2  0
M  END
