x0995-x2600
     RDKit          3D

 19 20  0  0  0  0  0  0  0  0999 V2000
   14.0150   -1.5010   20.3780 N   0  0  0  0  0  0  0  0  0  0  0  0
    8.4150    0.2680   21.8430 C   0  0  0  0  0  0  0  0  0  0  0  0
    9.0110    1.2410   21.3390 O   0  0  0  0  0  0  0  0  0  0  0  0
    8.6120   -0.2670   23.2820 C   0  0  0  0  0  0  0  0  0  0  0  0
    7.4010   -0.4580   21.0650 N   0  0  0  0  0  0  0  0  0  0  0  0
   13.1910   -1.3370   21.4970 C   0  0  0  0  0  0  0  0  0  0  0  0
    3.2910    2.1300   19.2360 N   0  0  0  0  0  0  0  0  0  0  0  0
    6.3480    0.5680   17.6670 N   0  0  0  0  0  0  0  0  0  0  0  0
    6.9780    0.0570   18.7170 C   0  0  0  0  0  0  0  0  0  0  0  0
    6.5800    0.1250   20.1160 C   0  0  0  0  0  0  0  0  0  0  0  0
    5.2550    0.8680   20.3220 C   0  0  0  0  0  0  0  0  0  0  0  0
    4.5590    1.4270   19.0790 C   0  0  0  0  0  0  0  0  0  0  0  0
    5.1960    1.2210   17.8640 C   0  0  0  0  0  0  0  0  0  0  0  0
   10.6970   -0.2120   24.6890 C   0  0  0  0  0  0  0  0  0  0  0  0
   12.0710   -0.3690   24.8550 C   0  0  0  0  0  0  0  0  0  0  0  0
   12.8160   -0.7290   23.8220 C   0  0  0  0  0  0  0  0  0  0  0  0
   12.3080   -0.9660   22.5710 C   0  0  0  0  0  0  0  0  0  0  0  0
   10.9570   -0.8370   22.3450 C   0  0  0  0  0  0  0  0  0  0  0  0
   10.0960   -0.4370   23.4430 C   0  0  0  0  0  0  0  0  0  0  0  0
  2  3  2  0
  2  4  1  0
  2  5  1  0
  1  6  3  0
  8  9  2  0
  5 10  1  0
  9 10  1  0
 10 11  2  0
  7 12  1  0
 11 12  1  0
  8 13  1  0
 12 13  2  0
 14 15  2  0
 15 16  1  0
  6 17  1  0
 16 17  2  0
 17 18  1  0
  4 19  1  0
 14 19  1  0
 18 19  2  0
M  END
