x0991-x0771
     RDKit          3D

 25 28  0  0  0  0  0  0  0  0999 V2000
    0.6250   -1.1800   26.2910 C   0  0  0  0  0  0  0  0  0  0  0  0
    4.6950   -7.4200   25.4900 O   0  0  0  0  0  0  0  0  0  0  0  0
    5.8100   -5.0070   26.5570 O   0  0  0  0  0  0  0  0  0  0  0  0
    5.8040   -4.5110   19.9630 O   0  0  0  0  0  0  0  0  0  0  0  0
    1.8550   -5.8360   24.9800 C   0  0  0  0  0  0  0  0  0  0  0  0
    6.8510   -4.4590   20.7040 C   0  0  0  0  0  0  0  0  0  0  0  0
    8.0780   -3.7040   20.2980 C   0  0  0  0  0  0  0  0  0  0  0  0
    4.7670   -5.4530   25.6530 S   0  0  0  0  0  0  0  0  0  0  0  0
    9.5360   -6.1980   24.4220 N   0  0  0  0  0  0  0  0  0  0  0  0
    8.4040   -3.4350   23.3730 C   0  0  0  0  0  0  0  0  0  0  0  0
    7.7980   -4.2750   24.4750 C   0  0  1  0  0  0  0  0  0  0  0  0
    8.0680   -5.9080   26.4110 N   0  0  0  0  0  0  0  0  0  0  0  0
    8.4650   -5.4960   25.1050 C   0  0  0  0  0  0  0  0  0  0  0  0
    1.7700   -2.2420   26.1330 C   0  0  0  0  0  0  0  0  0  0  0  0
    1.4180   -3.4800   25.6650 C   0  0  0  0  0  0  0  0  0  0  0  0
    2.3340   -4.5070   25.4960 C   0  0  0  0  0  0  0  0  0  0  0  0
    3.6260   -4.2430   25.8160 C   0  0  0  0  0  0  0  0  0  0  0  0
    4.0740   -3.0010   26.2910 C   0  0  0  0  0  0  0  0  0  0  0  0
    3.1160   -2.0050   26.4420 C   0  0  0  0  0  0  0  0  0  0  0  0
    6.9570   -5.0860   21.9560 N   0  0  0  0  0  0  0  0  0  0  0  0
    6.0240   -6.2100   22.2170 C   0  0  0  0  0  0  0  0  0  0  0  0
    4.8530   -5.7530   22.9510 C   0  0  0  0  0  0  0  0  0  0  0  0
    5.3350   -4.9930   24.1250 N   0  0  0  0  0  0  0  0  0  0  0  0
    6.3490   -4.0600   23.9990 C   0  0  2  0  0  0  0  0  0  0  0  0
    7.1710   -4.2380   23.0070 C   0  0  2  0  0  0  0  0  0  0  0  0
  4  6  2  0
  6  7  1  0
  2  8  2  0
  3  8  2  0
 10 11  1  0
  9 13  2  3
 11 13  1  6
 12 13  1  0
  1 14  1  0
 14 15  2  0
  5 16  1  0
 15 16  1  0
  8 17  1  0
 16 17  2  0
 17 18  1  0
 14 19  1  0
 18 19  2  0
  6 20  1  0
 20 21  1  0
 21 22  1  0
  8 23  1  0
 22 23  1  0
 11 24  1  0
 24 23  1  1
 25 10  1  6
 11 25  1  0
 25 20  1  0
 24 25  1  0
M  END
