x0991-x0305
     RDKit          3D

 18 18  0  0  0  0  0  0  0  0999 V2000
    8.6440   -0.6790   27.4910 C   0  0  0  0  0  0  0  0  0  0  0  0
    8.6120   -0.6220   25.9620 C   0  0  1  0  0  0  0  0  0  0  0  0
    9.5920    0.3180   25.4670 N   0  0  0  0  0  0  0  0  0  0  0  0
   13.1270   -1.3110   21.5760 C   0  0  0  0  0  0  0  0  0  0  0  0
   13.9390   -1.6130   20.4770 N   0  0  0  0  0  0  0  0  0  0  0  0
   10.0310   -5.7260   25.6940 N   0  0  0  0  0  0  0  0  0  0  0  0
    8.7930   -3.3750   24.2430 C   0  0  0  0  0  0  0  0  0  0  0  0
    8.0760   -4.6700   24.3840 C   0  0  0  0  0  0  0  0  0  0  0  0
    7.7840   -5.6830   26.6260 N   0  0  0  0  0  0  0  0  0  0  0  0
    8.7450   -5.3860   25.5690 C   0  0  0  0  0  0  0  0  0  0  0  0
    8.6060   -2.0000   25.2990 C   0  0  0  0  0  0  0  0  0  0  0  0
    7.9440   -2.1410   24.0550 C   0  0  0  0  0  0  0  0  0  0  0  0
   10.5260   -0.0670   24.4680 C   0  0  0  0  0  0  0  0  0  0  0  0
   11.7160    0.5380   24.3670 N   0  0  0  0  0  0  0  0  0  0  0  0
   12.5440    0.1210   23.4280 C   0  0  0  0  0  0  0  0  0  0  0  0
   12.2210   -0.8680   22.5970 C   0  0  0  0  0  0  0  0  0  0  0  0
   11.0040   -1.5300   22.6400 C   0  0  0  0  0  0  0  0  0  0  0  0
   10.1470   -1.0930   23.6150 C   0  0  0  0  0  0  0  0  0  0  0  0
  2  1  1  1
  2  3  1  0
  4  5  3  0
  7  8  1  0
  6 10  2  3
  8 10  1  0
  9 10  1  0
  2 11  1  0
  7 12  1  0
 11 12  1  0
  3 13  1  0
 13 14  2  0
 14 15  1  0
  4 16  1  0
 15 16  2  0
 16 17  1  0
 13 18  1  0
 17 18  2  0
M  END
