x0995-x2912
     RDKit          3D

 21 22  0  0  0  0  0  0  0  0999 V2000
    7.0150   -0.5860   21.1870 N   0  0  0  0  0  0  0  0  0  0  0  0
    7.8610   -0.7490   24.3250 C   0  0  0  0  0  0  0  0  0  0  0  0
    8.9830    0.9340   21.5090 O   0  0  0  0  0  0  0  0  0  0  0  0
    8.6010   -1.0630   23.0440 C   0  0  1  0  0  0  0  0  0  0  0  0
    8.2330   -0.1560   21.8600 C   0  0  0  0  0  0  0  0  0  0  0  0
   14.0350   -1.4340   20.3590 N   0  0  0  0  0  0  0  0  0  0  0  0
    4.8960    1.1160   21.6020 C   0  0  0  0  0  0  0  0  0  0  0  0
   13.2490   -1.3610   21.4320 C   0  0  0  0  0  0  0  0  0  0  0  0
    3.5960    2.4300   19.7150 N   0  0  0  0  0  0  0  0  0  0  0  0
    6.2960    0.5210   17.6180 N   0  0  0  0  0  0  0  0  0  0  0  0
    5.1870    1.3990   17.8630 C   0  0  0  0  0  0  0  0  0  0  0  0
    4.6850    1.6060   19.2580 C   0  0  0  0  0  0  0  0  0  0  0  0
    5.3390    0.9250   20.2860 C   0  0  0  0  0  0  0  0  0  0  0  0
    6.4040    0.0760   20.0560 C   0  0  0  0  0  0  0  0  0  0  0  0
    6.8810   -0.1350   18.7740 C   0  0  0  0  0  0  0  0  0  0  0  0
   10.6210   -0.5660   24.5240 C   0  0  0  0  0  0  0  0  0  0  0  0
   11.9820   -0.4610   24.7460 C   0  0  0  0  0  0  0  0  0  0  0  0
   12.8590   -0.7160   23.7560 C   0  0  0  0  0  0  0  0  0  0  0  0
   12.3780   -1.1100   22.4560 C   0  0  0  0  0  0  0  0  0  0  0  0
   10.9400   -1.2260   22.2400 C   0  0  0  0  0  0  0  0  0  0  0  0
   10.0890   -0.9470   23.2860 C   0  0  0  0  0  0  0  0  0  0  0  0
  4  2  1  1
  1  5  1  0
  3  5  2  0
  4  5  1  0
  6  8  3  0
 10 11  2  0
  9 12  1  0
 11 12  1  0
  7 13  1  0
 12 13  2  0
  1 14  1  0
 13 14  1  0
 10 15  1  0
 14 15  2  0
 16 17  2  0
 17 18  1  0
  8 19  1  0
 18 19  2  0
 19 20  1  0
  4 21  1  0
 16 21  1  0
 20 21  2  0
M  END
