x0991-x2703
     RDKit          3D

 39 41  0  0  0  0  0  0  0  0999 V2000
    6.8960   -1.6850   21.9320 N   0  0  0  0  0  0  0  0  0  0  0  0
    6.6860   -4.9620   20.4180 C   0  0  0  0  0  0  0  0  0  0  0  0
    4.7860   -2.9820   21.2540 O   0  0  0  0  0  0  0  0  0  0  0  0
    6.6750   -4.1880   21.6950 C   0  0  2  0  0  0  0  0  0  0  0  0
    7.3430    1.7690   22.7710 N   0  0  0  0  0  0  0  0  0  0  0  0
    8.7770    0.5390   21.4500 O   0  0  0  0  0  0  0  0  0  0  0  0
    6.0360   -2.8640   21.6100 C   0  0  0  0  0  0  0  0  0  0  0  0
    6.5000   -0.2550   21.6280 C   0  0  1  0  0  0  0  0  0  0  0  0
    7.6560    0.6870   21.9320 C   0  0  0  0  0  0  0  0  0  0  0  0
   10.0110    1.8280   23.9770 C   0  0  0  0  0  0  0  0  0  0  0  0
    9.2050    1.1190   25.0600 C   0  0  0  0  0  0  0  0  0  0  0  0
    6.0380    4.3740   21.7390 C   0  0  0  0  0  0  0  0  0  0  0  0
   12.2940   -1.8560   24.0210 C   0  0  0  0  0  0  0  0  0  0  0  0
   12.5910   -2.8460   24.9510 C   0  0  0  0  0  0  0  0  0  0  0  0
   12.6900   -0.5250   24.6090 C   0  0  0  0  0  0  0  0  0  0  0  0
   10.2380   -5.4250   25.5770 N   0  0  0  0  0  0  0  0  0  0  0  0
    8.0670   -3.9930   23.8260 C   0  0  0  0  0  0  0  0  0  0  0  0
    7.9490   -5.2550   24.3880 C   0  0  0  0  0  0  0  0  0  0  0  0
    8.1590   -5.7870   26.7710 N   0  0  0  0  0  0  0  0  0  0  0  0
    8.7650   -5.4950   25.5870 C   0  0  0  0  0  0  0  0  0  0  0  0
    8.0460   -4.1720   22.3890 C   0  0  0  0  0  0  0  0  0  0  0  0
    6.2870    0.3470   17.8750 N   0  0  0  0  0  0  0  0  0  0  0  0
    5.1480    1.0630   17.8500 C   0  0  0  0  0  0  0  0  0  0  0  0
    4.3990    1.3620   18.9770 C   0  0  0  0  0  0  0  0  0  0  0  0
    4.8620    0.9020   20.2100 C   0  0  0  0  0  0  0  0  0  0  0  0
    6.0190    0.1850   20.2560 C   0  0  0  0  0  0  0  0  0  0  0  0
    6.7040   -0.0820   19.0860 C   0  0  0  0  0  0  0  0  0  0  0  0
   10.6390   -1.8610   22.2430 N   0  0  0  0  0  0  0  0  0  0  0  0
   10.8320   -1.8270   23.5740 C   0  0  0  0  0  0  0  0  0  0  0  0
    9.7520   -1.7500   24.4540 C   0  0  0  0  0  0  0  0  0  0  0  0
    8.4350   -1.7050   23.9520 C   0  0  0  0  0  0  0  0  0  0  0  0
    8.2110   -1.7400   22.5630 C   0  0  0  0  0  0  0  0  0  0  0  0
    9.3530   -1.8200   21.7760 C   0  0  0  0  0  0  0  0  0  0  0  0
    9.3110    3.0660   23.4610 C   0  0  0  0  0  0  0  0  0  0  0  0
    9.9990    4.2780   23.5820 C   0  0  0  0  0  0  0  0  0  0  0  0
    9.4890    5.4910   23.1550 C   0  0  0  0  0  0  0  0  0  0  0  0
    8.1320    5.6410   22.5050 C   0  0  0  0  0  0  0  0  0  0  0  0
    7.3960    4.2890   22.3830 C   0  0  0  0  0  0  0  0  0  0  0  0
    8.0000    3.0420   22.8640 C   0  0  0  0  0  0  0  0  0  0  0  0
  4  2  1  6
  1  7  1  0
  3  7  2  0
  4  7  1  0
  1  8  1  0
  5  9  1  0
  6  9  2  0
  8  9  1  6
 10 11  1  0
 13 14  1  0
 13 15  1  0
 17 18  1  0
 16 20  2  3
 18 20  1  0
 19 20  1  0
  4 21  1  0
 17 21  1  0
 22 23  2  0
 23 24  1  0
 24 25  2  0
  8 26  1  0
 25 26  1  0
 22 27  1  0
 26 27  2  0
 13 29  1  0
 28 29  2  0
 29 30  1  0
 30 31  2  0
  1 32  1  0
 31 32  1  0
 28 33  1  0
 32 33  2  0
 10 34  1  0
 34 35  2  0
 35 36  1  0
 36 37  2  0
 12 38  1  0
 37 38  1  0
  5 39  1  0
 34 39  1  0
 38 39  2  0
M  END
