x0995-x0771-x2705-x3117
     RDKit          3D

 53 59  0  0  0  0  0  0  0  0999 V2000
    6.8910   -1.3340   21.8260 N   0  0  0  0  0  0  0  0  0  0  0  0
    6.4960   -4.4410   20.4040 C   0  0  2  0  0  0  0  0  0  0  0  0
    4.7220   -2.8670   21.2170 O   0  0  0  0  0  0  0  0  0  0  0  0
    6.6800   -3.6820   21.7210 C   0  0  2  0  0  0  0  0  0  0  0  0
    7.5620    2.0190   22.9650 N   0  0  0  0  0  0  0  0  0  0  0  0
    8.7010    1.2300   21.1410 O   0  0  0  0  0  0  0  0  0  0  0  0
    5.9710   -2.5080   21.5640 C   0  0  0  0  0  0  0  0  0  0  0  0
    6.5440    0.1120   21.6630 C   0  0  1  0  0  0  0  0  0  0  0  0
    7.7130    1.1420   21.9000 C   0  0  0  0  0  0  0  0  0  0  0  0
   10.1630    2.0990   24.0040 C   0  0  0  0  0  0  0  0  0  0  0  0
    9.2890    1.2690   24.9490 C   0  0  0  0  0  0  0  0  0  0  0  0
    6.1290    4.6560   21.9330 C   0  0  0  0  0  0  0  0  0  0  0  0
   11.9850   -1.5110   23.2710 C   0  0  0  0  0  0  0  0  0  0  0  0
   12.5120   -0.1950   23.9040 C   0  0  0  0  0  0  0  0  0  0  0  0
   12.3740   -2.7140   24.1670 C   0  0  0  0  0  0  0  0  0  0  0  0
   12.6810   -1.7030   21.9070 C   0  0  0  0  0  0  0  0  0  0  0  0
   13.4230   -2.5110   25.2310 C   0  0  0  0  0  0  0  0  0  0  0  0
    5.4390   -4.0200   19.5510 O   0  0  0  0  0  0  0  0  0  0  0  0
    0.6570   -1.4030   26.2270 C   0  0  0  0  0  0  0  0  0  0  0  0
    4.5480   -6.9360   25.7260 O   0  0  0  0  0  0  0  0  0  0  0  0
    6.1450   -5.1720   26.5230 O   0  0  0  0  0  0  0  0  0  0  0  0
    2.0290   -6.1100   24.9080 C   0  0  0  0  0  0  0  0  0  0  0  0
    5.1310   -5.6130   25.6050 S   0  0  0  0  0  0  0  0  0  0  0  0
    3.3310    2.2680   18.8340 N   0  0  0  0  0  0  0  0  0  0  0  0
    6.2330    0.3580   17.8490 N   0  0  0  0  0  0  0  0  0  0  0  0
    5.1370    1.1000   17.7970 C   0  0  0  0  0  0  0  0  0  0  0  0
    4.4430    1.5250   18.8860 C   0  0  0  0  0  0  0  0  0  0  0  0
    4.9460    1.1550   20.0760 C   0  0  0  0  0  0  0  0  0  0  0  0
    6.0760    0.4020   20.2320 C   0  0  0  0  0  0  0  0  0  0  0  0
    6.7370   -0.0170   19.0250 C   0  0  0  0  0  0  0  0  0  0  0  0
    9.6790   -1.5580   24.2390 N   0  0  0  0  0  0  0  0  0  0  0  0
    8.3870   -1.5180   23.8360 N   0  0  0  0  0  0  0  0  0  0  0  0
    8.2030   -1.4250   22.4680 C   0  0  0  0  0  0  0  0  0  0  0  0
    9.5480   -1.4190   22.0620 C   0  0  0  0  0  0  0  0  0  0  0  0
   10.4480   -1.4950   23.1490 C   0  0  0  0  0  0  0  0  0  0  0  0
    9.4640    3.3570   23.5320 C   0  0  0  0  0  0  0  0  0  0  0  0
   10.1450    4.5740   23.6260 C   0  0  0  0  0  0  0  0  0  0  0  0
    9.5500    5.7750   23.1930 C   0  0  0  0  0  0  0  0  0  0  0  0
    8.2390    5.7590   22.6480 C   0  0  0  0  0  0  0  0  0  0  0  0
    7.5050    4.5660   22.5280 C   0  0  0  0  0  0  0  0  0  0  0  0
    8.1490    3.2860   23.0030 C   0  0  0  0  0  0  0  0  0  0  0  0
    1.7120   -2.4480   26.0510 C   0  0  0  0  0  0  0  0  0  0  0  0
    1.3770   -3.7080   25.5810 C   0  0  0  0  0  0  0  0  0  0  0  0
    2.4590   -4.7610   25.4180 C   0  0  0  0  0  0  0  0  0  0  0  0
    3.7810   -4.4480   25.7430 C   0  0  0  0  0  0  0  0  0  0  0  0
    4.0500   -3.1490   26.2080 C   0  0  0  0  0  0  0  0  0  0  0  0
    3.0430   -2.1780   26.3570 C   0  0  0  0  0  0  0  0  0  0  0  0
    6.0270   -5.0970   21.6240 C   0  0  1  0  0  0  0  0  0  0  0  0
    5.8650   -6.4220   21.8110 C   0  0  0  0  0  0  0  0  0  0  0  0
    5.1870   -6.5070   23.0270 C   0  0  0  0  0  0  0  0  0  0  0  0
    5.6890   -5.4530   23.9870 N   0  0  0  0  0  0  0  0  0  0  0  0
    7.0940   -4.9670   23.7410 C   0  0  0  0  0  0  0  0  0  0  0  0
    7.2240   -4.7890   22.3300 C   0  0  2  0  0  0  0  0  0  0  0  0
  2  4  1  0
  1  7  1  0
  3  7  2  0
  4  7  1  6
  1  8  1  0
  5  9  1  0
  6  9  2  0
  8  9  1  6
 10 11  1  0
 13 14  1  0
 13 15  1  0
 13 16  1  0
 15 17  1  0
  2 18  1  6
 20 23  2  0
 21 23  2  0
 25 26  2  0
 24 27  1  0
 26 27  1  0
 27 28  2  0
  8 29  1  0
 28 29  1  0
 25 30  1  0
 29 30  2  0
 31 32  1  0
  1 33  1  0
 32 33  2  0
 33 34  1  0
 13 35  1  0
 31 35  1  0
 34 35  2  0
 10 36  1  0
 36 37  2  0
 37 38  1  0
 38 39  2  0
 12 40  1  0
 39 40  1  0
  5 41  1  0
 36 41  1  0
 40 41  2  0
 19 42  1  0
 42 43  2  0
 22 44  1  0
 43 44  1  0
 23 45  1  0
 44 45  2  0
 45 46  1  0
 42 47  1  0
 46 47  2  0
  2 48  1  0
  4 48  1  0
 48 49  1  1
 49 50  1  0
 23 51  1  0
 50 51  1  0
 51 52  1  0
  4 53  1  0
 48 53  1  0
 53 52  1  1
M  END
