x0991-x1308
     RDKit          3D

 24 27  0  0  0  0  0  0  0  0999 V2000
    8.0580   -3.7440   20.4220 C   0  0  0  0  0  0  0  0  0  0  0  0
    5.6460   -4.4150   19.9170 O   0  0  0  0  0  0  0  0  0  0  0  0
    0.7490   -1.1830   26.3190 Cl  0  0  0  0  0  0  0  0  0  0  0  0
    6.6930   -4.3380   20.6320 C   0  0  0  0  0  0  0  0  0  0  0  0
    6.4040   -4.9840   26.9230 O   0  0  0  0  0  0  0  0  0  0  0  0
    4.7820   -6.7680   26.2200 O   0  0  0  0  0  0  0  0  0  0  0  0
    5.4050   -5.4830   26.0110 S   0  0  0  0  0  0  0  0  0  0  0  0
    9.8270   -5.8490   24.8410 N   0  0  0  0  0  0  0  0  0  0  0  0
    8.4880   -3.6540   23.1000 C   0  0  0  0  0  0  0  0  0  0  0  0
    8.0220   -4.1160   24.3460 C   0  0  1  0  0  0  0  0  0  0  0  0
    8.5000   -5.0550   26.5840 N   0  0  0  0  0  0  0  0  0  0  0  0
    8.8050   -5.0240   25.2270 C   0  0  0  0  0  0  0  0  0  0  0  0
    6.6140   -4.9280   21.8860 N   0  0  0  0  0  0  0  0  0  0  0  0
    7.5060   -4.8880   22.8920 C   0  0  2  0  0  0  0  0  0  0  0  0
    6.6730   -4.3190   23.8830 C   0  0  1  0  0  0  0  0  0  0  0  0
    6.0700   -5.5090   24.4500 N   0  0  0  0  0  0  0  0  0  0  0  0
    5.1760   -6.0300   23.3960 C   0  0  0  0  0  0  0  0  0  0  0  0
    5.7210   -6.0820   22.1050 C   0  0  0  0  0  0  0  0  0  0  0  0
    4.3350   -2.9960   26.4400 C   0  0  0  0  0  0  0  0  0  0  0  0
    3.3000   -2.1340   26.4870 C   0  0  0  0  0  0  0  0  0  0  0  0
    1.9560   -2.4000   26.1880 C   0  0  0  0  0  0  0  0  0  0  0  0
    1.6480   -3.6990   25.7880 C   0  0  0  0  0  0  0  0  0  0  0  0
    2.7040   -4.7330   25.7010 C   0  0  0  0  0  0  0  0  0  0  0  0
    4.0700   -4.3090   26.0550 C   0  0  0  0  0  0  0  0  0  0  0  0
  1  4  1  0
  2  4  2  0
  5  7  2  0
  6  7  2  0
  9 10  1  0
  8 12  2  3
 10 12  1  1
 11 12  1  0
  4 13  1  0
 14  9  1  1
 10 14  1  0
 14 13  1  0
 10 15  1  0
 14 15  1  0
  7 16  1  0
 15 16  1  1
 16 17  1  0
 13 18  1  0
 17 18  1  0
 19 20  2  0
  3 21  1  0
 20 21  1  0
 21 22  2  0
 22 23  1  0
  7 24  1  0
 19 24  1  0
 23 24  2  0
M  END
