x0995-x0104
     RDKit          3D

 16 17  0  0  0  0  0  0  0  0999 V2000
    8.9880    6.5470   22.6920 C   0  0  0  0  0  0  0  0  0  0  0  0
   10.3260    6.1740   23.3260 C   0  0  0  0  0  0  0  0  0  0  0  0
   10.3500    6.3810   24.5380 O   0  0  0  0  0  0  0  0  0  0  0  0
   11.3420    5.6670   22.5320 N   0  0  0  0  0  0  0  0  0  0  0  0
   12.5380    5.0240   23.0980 C   0  0  0  0  0  0  0  0  0  0  0  0
   12.7080    3.7050   22.5940 C   0  0  0  0  0  0  0  0  0  0  0  0
   13.5590   -1.9850   22.1770 F   0  0  0  0  0  0  0  0  0  0  0  0
   11.8160    2.6020   23.1200 C   0  0  0  0  0  0  0  0  0  0  0  0
   10.6230    2.8700   23.7760 C   0  0  0  0  0  0  0  0  0  0  0  0
   10.0400    1.6060   24.1220 N   0  0  0  0  0  0  0  0  0  0  0  0
   10.8410    0.6240   23.6900 C   0  0  0  0  0  0  0  0  0  0  0  0
   11.9360    1.1350   23.0810 C   0  0  0  0  0  0  0  0  0  0  0  0
   10.6230   -0.7580   23.8180 C   0  0  0  0  0  0  0  0  0  0  0  0
   11.5580   -1.6520   23.2980 C   0  0  0  0  0  0  0  0  0  0  0  0
   12.6680   -1.1520   22.6820 C   0  0  0  0  0  0  0  0  0  0  0  0
   12.8670    0.2180   22.5810 C   0  0  0  0  0  0  0  0  0  0  0  0
  1  2  1  0
  2  3  2  0
  2  4  1  0
  4  5  1  0
  5  6  1  0
  6  8  1  0
  8  9  2  0
  9 10  1  0
 10 11  1  0
  8 12  1  0
 11 12  2  0
 11 13  1  0
 13 14  2  0
  7 15  1  0
 14 15  1  0
 12 16  1  0
 15 16  2  0
M  END
