x0991-x0107
     RDKit          3D

 18 18  0  0  0  0  0  0  0  0999 V2000
   10.0460   -0.8230   22.2170 C   0  0  0  0  0  0  0  0  0  0  0  0
    8.9890    0.1010   21.5840 C   0  0  0  0  0  0  0  0  0  0  0  0
    9.1340    1.2960   21.2860 O   0  0  0  0  0  0  0  0  0  0  0  0
    7.6970   -0.5100   21.3000 N   0  0  0  0  0  0  0  0  0  0  0  0
    5.5370    0.8240   22.0970 C   0  0  0  0  0  0  0  0  0  0  0  0
    9.9010   -5.7730   25.4260 N   0  0  0  0  0  0  0  0  0  0  0  0
    9.0230   -3.6120   23.3620 C   0  0  0  0  0  0  0  0  0  0  0  0
    8.1640   -4.7080   23.8910 C   0  0  0  0  0  0  0  0  0  0  0  0
    8.0520   -4.8180   26.4090 N   0  0  0  0  0  0  0  0  0  0  0  0
    8.7280   -5.1100   25.2700 C   0  0  0  0  0  0  0  0  0  0  0  0
    9.5520   -2.1840   22.6880 C   0  0  0  0  0  0  0  0  0  0  0  0
    8.7080   -2.2110   23.7960 C   0  0  0  0  0  0  0  0  0  0  0  0
    6.9410   -0.1190   20.1390 C   0  0  0  0  0  0  0  0  0  0  0  0
    5.8570    0.5680   20.6550 C   0  0  0  0  0  0  0  0  0  0  0  0
    5.0110    1.0480   19.7080 C   0  0  0  0  0  0  0  0  0  0  0  0
    5.2010    0.8730   18.3210 C   0  0  0  0  0  0  0  0  0  0  0  0
    6.3090    0.1640   17.8680 N   0  0  0  0  0  0  0  0  0  0  0  0
    7.1500   -0.3160   18.7970 C   0  0  0  0  0  0  0  0  0  0  0  0
  1  2  1  0
  2  3  2  0
  2  4  1  0
  7  8  1  0
  6 10  2  3
  8 10  1  0
  9 10  1  0
  1 11  1  0
  7 12  1  0
 11 12  1  0
  4 13  1  0
  5 14  1  0
 13 14  2  0
 14 15  1  0
 15 16  2  0
 16 17  1  0
 13 18  1  0
 17 18  2  0
M  END
