x0991-x2705
     RDKit          3D

 39 41  0  0  0  0  0  0  0  0999 V2000
    6.9780   -1.5120   21.7810 N   0  0  0  0  0  0  0  0  0  0  0  0
    6.9240   -4.8450   20.5000 C   0  0  0  0  0  0  0  0  0  0  0  0
    4.8300   -2.9990   21.2210 O   0  0  0  0  0  0  0  0  0  0  0  0
    6.8760   -3.9700   21.7300 C   0  0  2  0  0  0  0  0  0  0  0  0
    7.3990    1.8840   22.8120 N   0  0  0  0  0  0  0  0  0  0  0  0
    8.8440    0.7370   21.4250 O   0  0  0  0  0  0  0  0  0  0  0  0
    6.1110   -2.7450   21.5510 C   0  0  0  0  0  0  0  0  0  0  0  0
    6.5700   -0.0810   21.5580 C   0  0  1  0  0  0  0  0  0  0  0  0
    7.7230    0.8530   21.9140 C   0  0  0  0  0  0  0  0  0  0  0  0
   10.0690    1.9850   23.9730 C   0  0  0  0  0  0  0  0  0  0  0  0
    9.2210    1.2380   24.9990 C   0  0  0  0  0  0  0  0  0  0  0  0
    6.0400    4.5820   21.7800 C   0  0  0  0  0  0  0  0  0  0  0  0
   12.0910   -1.4630   23.2420 C   0  0  0  0  0  0  0  0  0  0  0  0
   12.5790   -0.2510   23.7360 C   0  0  0  0  0  0  0  0  0  0  0  0
   12.5360   -2.5290   24.2370 C   0  0  0  0  0  0  0  0  0  0  0  0
   12.7060   -1.7870   21.9920 C   0  0  0  0  0  0  0  0  0  0  0  0
    9.8320   -5.9320   25.0350 N   0  0  0  0  0  0  0  0  0  0  0  0
    8.3930   -3.9080   23.6260 C   0  0  0  0  0  0  0  0  0  0  0  0
    7.7140   -5.1380   24.0570 C   0  0  0  0  0  0  0  0  0  0  0  0
    7.8690   -5.8000   26.3340 N   0  0  0  0  0  0  0  0  0  0  0  0
    8.5350   -5.6460   25.1620 C   0  0  0  0  0  0  0  0  0  0  0  0
    8.1710   -3.4800   22.4340 C   0  0  0  0  0  0  0  0  0  0  0  0
    6.3200    0.3950   17.8080 N   0  0  0  0  0  0  0  0  0  0  0  0
    5.1980    1.1390   17.7810 C   0  0  0  0  0  0  0  0  0  0  0  0
    4.4830    1.4900   18.9110 C   0  0  0  0  0  0  0  0  0  0  0  0
    4.9440    1.0710   20.1100 C   0  0  0  0  0  0  0  0  0  0  0  0
    6.0950    0.3160   20.1970 C   0  0  0  0  0  0  0  0  0  0  0  0
    6.7440   -0.0020   19.0240 C   0  0  0  0  0  0  0  0  0  0  0  0
    9.7900   -1.2350   24.2550 N   0  0  0  0  0  0  0  0  0  0  0  0
    8.4970   -1.2590   23.8310 N   0  0  0  0  0  0  0  0  0  0  0  0
    8.2980   -1.4670   22.4680 C   0  0  0  0  0  0  0  0  0  0  0  0
    9.6570   -1.5740   22.0880 C   0  0  0  0  0  0  0  0  0  0  0  0
   10.5450   -1.4300   23.1700 C   0  0  0  0  0  0  0  0  0  0  0  0
    9.3470    3.2130   23.4730 C   0  0  0  0  0  0  0  0  0  0  0  0
   10.0440    4.4330   23.6050 C   0  0  0  0  0  0  0  0  0  0  0  0
    9.5070    5.6570   23.1850 C   0  0  0  0  0  0  0  0  0  0  0  0
    8.2380    5.7140   22.6040 C   0  0  0  0  0  0  0  0  0  0  0  0
    7.4000    4.4510   22.4140 C   0  0  0  0  0  0  0  0  0  0  0  0
    8.0630    3.1590   22.9090 C   0  0  0  0  0  0  0  0  0  0  0  0
  4  2  1  6
  1  7  1  0
  3  7  2  0
  4  7  1  0
  1  8  1  0
  5  9  1  0
  6  9  2  0
  8  9  1  6
 10 11  1  0
 13 14  1  0
 13 15  1  0
 13 16  1  0
 18 19  1  0
 17 21  2  3
 19 21  1  0
 20 21  1  0
  4 22  1  0
 18 22  1  0
 23 24  2  0
 24 25  1  0
 25 26  2  0
  8 27  1  0
 26 27  1  0
 23 28  1  0
 27 28  2  0
 29 30  1  0
  1 31  1  0
 30 31  1  0
 31 32  2  0
 13 33  1  0
 29 33  2  0
 32 33  1  0
 10 34  1  0
 34 35  2  0
 35 36  1  0
 36 37  2  0
 12 38  1  0
 37 38  1  0
  5 39  1  0
 34 39  1  0
 38 39  2  0
M  END
