x0995-x1311-x3117-x3110
     RDKit          3D

 52 58  0  0  0  0  0  0  0  0999 V2000
    7.9630    1.7990   22.8240 N   0  0  0  0  0  0  0  0  0  0  0  0
   13.2280    5.4970   22.7730 C   0  0  0  0  0  0  0  0  0  0  0  0
   12.1890    3.4040   23.3250 O   0  0  0  0  0  0  0  0  0  0  0  0
   12.9410    4.0880   22.3320 C   0  0  0  0  0  0  0  0  0  0  0  0
    6.9100   -1.6750   21.9080 N   0  0  0  0  0  0  0  0  0  0  0  0
   10.8450    3.1320   23.0020 C   0  0  1  0  0  0  0  0  0  0  0  0
    8.9410    0.4720   21.2760 O   0  0  0  0  0  0  0  0  0  0  0  0
   10.4470    1.6350   22.8350 C   0  0  0  0  0  0  0  0  0  0  0  0
    4.7360   -2.9330   21.2890 O   0  0  0  0  0  0  0  0  0  0  0  0
    7.9410    0.7020   21.9330 C   0  0  0  0  0  0  0  0  0  0  0  0
    6.6500   -0.2050   21.7140 C   0  0  1  0  0  0  0  0  0  0  0  0
    6.0180   -2.8220   21.4360 C   0  0  0  0  0  0  0  0  0  0  0  0
    6.6100   -4.2280   21.0550 C   0  0  2  0  0  0  0  0  0  0  0  0
    8.1410   -4.0530   20.7410 C   0  0  0  0  0  0  0  0  0  0  0  0
   12.3540   -1.8240   24.1950 C   0  0  0  0  0  0  0  0  0  0  0  0
   12.5440   -0.5770   25.0370 C   0  0  0  0  0  0  0  0  0  0  0  0
   13.3250   -1.7740   23.0240 C   0  0  0  0  0  0  0  0  0  0  0  0
   12.7460   -3.0160   25.0700 C   0  0  0  0  0  0  0  0  0  0  0  0
    5.8000   -4.8040   20.0470 O   0  0  0  0  0  0  0  0  0  0  0  0
    6.4270   -5.1110   22.2840 N   0  0  0  0  0  0  0  0  0  0  0  0
    4.0260   -7.5430   25.4760 O   0  0  0  0  0  0  0  0  0  0  0  0
    2.4860   -5.6490   24.8810 O   0  0  0  0  0  0  0  0  0  0  0  0
    3.4030    2.2600   18.9580 N   0  0  0  0  0  0  0  0  0  0  0  0
    6.4210    0.3420   17.9630 N   0  0  0  0  0  0  0  0  0  0  0  0
    5.3130    1.0990   17.9130 C   0  0  0  0  0  0  0  0  0  0  0  0
    4.5060    1.5020   19.1000 C   0  0  0  0  0  0  0  0  0  0  0  0
    4.9630    1.0550   20.3210 C   0  0  0  0  0  0  0  0  0  0  0  0
    6.1160    0.2770   20.3710 C   0  0  0  0  0  0  0  0  0  0  0  0
    6.8040   -0.0570   19.1910 C   0  0  0  0  0  0  0  0  0  0  0  0
    9.3360   -1.7470   21.7570 C   0  0  0  0  0  0  0  0  0  0  0  0
   10.6350   -1.7820   22.2630 C   0  0  0  0  0  0  0  0  0  0  0  0
   10.9210   -1.8270   23.6510 C   0  0  0  0  0  0  0  0  0  0  0  0
    9.7840   -1.8450   24.4370 C   0  0  0  0  0  0  0  0  0  0  0  0
    8.4580   -1.8100   23.9470 C   0  0  0  0  0  0  0  0  0  0  0  0
    8.2250   -1.7570   22.5630 C   0  0  0  0  0  0  0  0  0  0  0  0
    9.2240    4.5280   24.4620 O   0  0  0  0  0  0  0  0  0  0  0  0
    9.7520    3.2010   24.1560 C   0  0  1  0  0  0  0  0  0  0  0  0
    9.2170    2.3640   23.2330 C   0  0  2  0  0  0  0  0  0  0  0  0
    8.4000    3.0340   22.2780 C   0  0  2  0  0  0  0  0  0  0  0  0
    7.8820    4.3140   22.5910 C   0  0  0  0  0  0  0  0  0  0  0  0
    8.6430    5.2090   23.3470 C   0  0  0  0  0  0  0  0  0  0  0  0
    8.4000   -5.9430   23.2720 C   0  0  0  0  0  0  0  0  0  0  0  0
    9.4150   -5.8880   24.2070 C   0  0  0  0  0  0  0  0  0  0  0  0
    9.4700   -4.8620   25.1440 C   0  0  0  0  0  0  0  0  0  0  0  0
    8.4970   -3.8640   25.1620 C   0  0  0  0  0  0  0  0  0  0  0  0
    7.4520   -3.8550   24.2620 C   0  0  0  0  0  0  0  0  0  0  0  0
    7.4190   -4.9830   23.2490 C   0  0  0  0  0  0  0  0  0  0  0  0
    4.4330   -6.4150   22.3670 C   0  0  0  0  0  0  0  0  0  0  0  0
    5.1050   -5.2210   22.9460 C   0  0  1  0  0  0  0  0  0  0  0  0
    5.0800   -5.4340   24.3360 C   0  0  0  0  0  0  0  0  0  0  0  0
    3.6420   -6.4630   24.5910 S   0  0  0  0  0  0  0  0  0  0  0  0
    3.5780   -7.1110   23.1080 C   0  0  0  0  0  0  0  0  0  0  0  0
  2  4  1  0
  3  4  1  0
  6  3  1  1
  6  8  1  0
  1 10  1  0
  7 10  2  0
  5 11  1  0
 11 10  1  6
  5 12  1  0
  9 12  2  0
 12 13  1  0
 13 14  1  6
 15 16  1  0
 15 17  1  0
 15 18  1  0
 13 19  1  0
 13 20  1  0
 24 25  2  0
 23 26  1  0
 25 26  1  0
 26 27  2  0
 11 28  1  0
 27 28  1  0
 24 29  1  0
 28 29  2  0
 30 31  2  0
 15 32  1  0
 31 32  1  0
 32 33  2  0
 33 34  1  0
  5 35  1  0
 30 35  1  0
 34 35  2  0
  6 37  1  0
 37 36  1  6
 38  1  1  0
 38  8  1  6
 37 38  1  0
  1 39  1  0
 38 39  1  0
 39 40  1  1
 36 41  1  0
 40 41  1  0
 42 43  2  0
 43 44  1  0
 44 45  2  0
 45 46  1  0
 20 47  1  0
 42 47  1  0
 46 47  2  0
 49 20  1  6
 48 49  1  0
 49 50  1  0
 51 21  1  0
 22 51  1  0
 50 51  1  0
 48 52  2  0
 51 52  1  0
M  END
