x0995-x1086
     RDKit          3D

 13 13  0  0  0  0  0  0  0  0999 V2000
    5.7700    3.4120   -7.2450 N   0  0  0  0  0  0  0  0  0  0  0  0
    4.2110   -1.5940   -9.1550 C   0  0  0  0  0  0  0  0  0  0  0  0
    4.4710    2.2060   -5.8460 O   0  0  0  0  0  0  0  0  0  0  0  0
    6.8170    1.5360   -5.8280 O   0  0  0  0  0  0  0  0  0  0  0  0
    5.3980    0.9430   -8.0370 C   0  0  0  0  0  0  0  0  0  0  0  0
    8.1300   -3.9830   -8.0200 F   0  0  0  0  0  0  0  0  0  0  0  0
    5.6260    1.9100   -6.5400 S   0  0  0  0  0  0  0  0  0  0  0  0
    5.5650   -1.5600   -8.5190 C   0  0  0  0  0  0  0  0  0  0  0  0
    6.1130   -0.3770   -7.9770 C   0  0  0  0  0  0  0  0  0  0  0  0
    7.4580   -0.4460   -7.3430 C   0  0  0  0  0  0  0  0  0  0  0  0
    8.1780   -1.6080   -7.3000 C   0  0  0  0  0  0  0  0  0  0  0  0
    7.5140   -2.8230   -7.9520 C   0  0  0  0  0  0  0  0  0  0  0  0
    6.2970   -2.7530   -8.4880 C   0  0  0  0  0  0  0  0  0  0  0  0
  7  1  1  0
  3  7  2  0
  4  7  2  0
  5  7  1  0
  2  8  1  0
  5  9  1  0
  8  9  2  0
  9 10  1  0
 10 11  2  0
  6 12  1  0
 11 12  1  0
  8 13  1  0
 12 13  2  0
M  END
