x0995-x0705
     RDKit          3D

 18 19  0  0  0  0  0  0  0  0999 V2000
    1.1540   -2.5630   27.8070 C   0  0  0  0  0  0  0  0  0  0  0  0
    7.5200   -1.2600   26.2050 O   0  0  0  0  0  0  0  0  0  0  0  0
    5.7570   -3.8150   19.8100 O   0  0  0  0  0  0  0  0  0  0  0  0
    6.4280   -1.7490   25.4120 C   0  0  0  0  0  0  0  0  0  0  0  0
    6.7940   -3.1840   20.5780 C   0  0  0  0  0  0  0  0  0  0  0  0
    7.6310   -2.1770   20.0480 C   0  0  0  0  0  0  0  0  0  0  0  0
    2.5240   -2.3920   27.2260 C   0  0  0  0  0  0  0  0  0  0  0  0
    2.7120   -1.4540   26.2060 C   0  0  0  0  0  0  0  0  0  0  0  0
    4.1050   -1.2730   25.6060 C   0  0  0  0  0  0  0  0  0  0  0  0
    5.0870   -2.0220   26.0870 C   0  0  0  0  0  0  0  0  0  0  0  0
    4.8930   -3.0190   27.1690 C   0  0  0  0  0  0  0  0  0  0  0  0
    3.6090   -3.1680   27.7020 C   0  0  0  0  0  0  0  0  0  0  0  0
    7.0490   -3.5250   21.8870 N   0  0  0  0  0  0  0  0  0  0  0  0
    5.9480   -3.8700   22.7750 C   0  0  0  0  0  0  0  0  0  0  0  0
    5.4660   -2.7270   23.4040 C   0  0  0  0  0  0  0  0  0  0  0  0
    6.5460   -1.9750   24.0530 N   0  0  0  0  0  0  0  0  0  0  0  0
    7.7700   -1.7300   23.2750 C   0  0  0  0  0  0  0  0  0  0  0  0
    8.1710   -2.8570   22.5700 C   0  0  0  0  0  0  0  0  0  0  0  0
  2  4  2  0
  3  5  2  0
  5  6  1  0
  1  7  1  0
  7  8  2  0
  8  9  1  0
  4 10  1  0
  9 10  2  0
 10 11  1  0
  7 12  1  0
 11 12  2  0
  5 13  1  0
 13 14  1  0
 14 15  1  0
  4 16  1  0
 15 16  1  0
 16 17  1  0
 13 18  1  0
 17 18  1  0
M  END
