x0991-x0831
     RDKit          3D

 22 23  0  0  0  0  0  0  0  0999 V2000
   12.5110   -2.1210   22.0050 C   0  0  0  0  0  0  0  0  0  0  0  0
    5.3810   -4.2300   19.7450 O   0  0  0  0  0  0  0  0  0  0  0  0
    9.7740   -2.6540   23.4760 C   0  0  2  0  0  0  0  0  0  0  0  0
    6.2820   -3.3730   19.9110 C   0  0  0  0  0  0  0  0  0  0  0  0
    7.2830   -3.0260   18.8590 C   0  0  0  0  0  0  0  0  0  0  0  0
    9.6610   -5.4630   24.7700 N   0  0  0  0  0  0  0  0  0  0  0  0
    9.1380   -3.1010   24.8420 C   0  0  0  0  0  0  0  0  0  0  0  0
    8.5240   -4.8520   26.5340 N   0  0  0  0  0  0  0  0  0  0  0  0
    9.1590   -4.5920   25.3370 C   0  0  0  0  0  0  0  0  0  0  0  0
   11.7970   -1.0790   22.8450 C   0  0  0  0  0  0  0  0  0  0  0  0
   10.5520   -1.3080   23.5150 C   0  0  0  0  0  0  0  0  0  0  0  0
   10.0040   -0.2670   24.2490 C   0  0  0  0  0  0  0  0  0  0  0  0
   10.6370    0.9740   24.3370 C   0  0  0  0  0  0  0  0  0  0  0  0
   11.8070    1.1110   23.6840 C   0  0  0  0  0  0  0  0  0  0  0  0
   12.4260    0.1270   22.9330 C   0  0  0  0  0  0  0  0  0  0  0  0
    6.4100   -2.7230   21.1050 N   0  0  0  0  0  0  0  0  0  0  0  0
    6.3850   -1.3670   21.1470 C   0  0  0  0  0  0  0  0  0  0  0  0
    7.4720   -0.5660   21.7560 C   0  0  0  0  0  0  0  0  0  0  0  0
    8.7030   -1.3560   21.6250 C   0  0  0  0  0  0  0  0  0  0  0  0
    8.6480   -2.5580   22.5060 N   0  0  0  0  0  0  0  0  0  0  0  0
    7.4540   -2.8060   23.1290 C   0  0  0  0  0  0  0  0  0  0  0  0
    6.6090   -3.4140   22.2250 C   0  0  0  0  0  0  0  0  0  0  0  0
  2  4  2  0
  4  5  1  0
  3  7  1  1
  6  9  2  3
  7  9  1  0
  8  9  1  0
  1 10  1  0
  3 11  1  0
 10 11  2  0
 11 12  1  0
 12 13  2  0
 13 14  1  0
 10 15  1  0
 14 15  2  0
  4 16  1  0
 16 17  1  0
 17 18  1  0
 18 19  1  0
  3 20  1  0
 19 20  1  0
 20 21  1  0
 16 22  1  0
 21 22  1  0
M  END
