x0995-x1351
     RDKit          3D

 18 19  0  0  0  0  0  0  0  0999 V2000
    6.0670   -2.4690   19.3080 C   0  0  0  0  0  0  0  0  0  0  0  0
    5.2920   -4.8110   19.5890 O   0  0  0  0  0  0  0  0  0  0  0  0
    5.8600   -3.6730   20.2300 C   0  0  0  0  0  0  0  0  0  0  0  0
    5.9270   -2.7210   25.2240 N   0  0  0  0  0  0  0  0  0  0  0  0
    8.0010   -2.8950   26.6450 O   0  0  0  0  0  0  0  0  0  0  0  0
    6.8260   -2.2090   26.2540 C   0  0  0  0  0  0  0  0  0  0  0  0
    6.2120   -3.6680   21.5420 N   0  0  0  0  0  0  0  0  0  0  0  0
    7.4220   -2.9730   21.9580 C   0  0  0  0  0  0  0  0  0  0  0  0
    7.3790   -2.6920   23.4310 C   0  0  0  0  0  0  0  0  0  0  0  0
    6.6720   -3.5660   24.2680 C   0  0  0  0  0  0  0  0  0  0  0  0
    5.5990   -4.4170   23.5590 C   0  0  0  0  0  0  0  0  0  0  0  0
    5.8300   -4.8450   22.3170 C   0  0  0  0  0  0  0  0  0  0  0  0
    7.1120   -0.4910   28.0710 C   0  0  0  0  0  0  0  0  0  0  0  0
    6.7810    0.7270   28.6940 C   0  0  0  0  0  0  0  0  0  0  0  0
    5.7870    1.5080   28.1230 C   0  0  0  0  0  0  0  0  0  0  0  0
    5.1350    1.0860   26.9530 C   0  0  0  0  0  0  0  0  0  0  0  0
    5.4890   -0.1150   26.3720 C   0  0  0  0  0  0  0  0  0  0  0  0
    6.4740   -0.9210   26.9100 C   0  0  0  0  0  0  0  0  0  0  0  0
  1  3  1  0
  2  3  2  0
  4  6  1  0
  5  6  2  0
  3  7  1  0
  7  8  1  0
  8  9  1  0
  4 10  1  0
  9 10  1  0
 10 11  1  0
  7 12  1  0
 11 12  1  0
 13 14  2  0
 14 15  1  0
 15 16  2  0
 16 17  1  0
  6 18  1  0
 13 18  1  0
 17 18  2  0
M  END
