x0995-x3080
     RDKit          3D

 27 29  0  0  0  0  0  0  0  0999 V2000
    9.9040   -0.5440   23.3590 N   0  0  0  0  0  0  0  0  0  0  0  0
   10.8010    0.5110   23.5830 C   0  0  0  0  0  0  0  0  0  0  0  0
    9.0190    1.2420   21.2010 O   0  0  0  0  0  0  0  0  0  0  0  0
    9.5120   -0.9220   22.0610 C   0  0  0  0  0  0  0  0  0  0  0  0
    7.5040   -0.5060   20.8530 N   0  0  0  0  0  0  0  0  0  0  0  0
    7.4200   -1.1030   23.6740 O   0  0  0  0  0  0  0  0  0  0  0  0
    8.6800    0.0530   21.3370 C   0  0  0  0  0  0  0  0  0  0  0  0
    8.9870    0.2160   25.4320 O   0  0  0  0  0  0  0  0  0  0  0  0
    5.1260    0.8380   21.8280 C   0  0  0  0  0  0  0  0  0  0  0  0
    8.8470   -0.8240   24.4440 S   0  0  0  0  0  0  0  0  0  0  0  0
    3.5820    2.0720   19.3450 N   0  0  0  0  0  0  0  0  0  0  0  0
    6.3340    0.5980   17.5550 N   0  0  0  0  0  0  0  0  0  0  0  0
    5.2360    1.2550   17.8100 C   0  0  0  0  0  0  0  0  0  0  0  0
    4.7330    1.3840   19.2330 C   0  0  0  0  0  0  0  0  0  0  0  0
    5.5300    0.7550   20.3830 C   0  0  0  0  0  0  0  0  0  0  0  0
    6.6910    0.0840   19.9820 C   0  0  0  0  0  0  0  0  0  0  0  0
    7.0210    0.0280   18.6780 C   0  0  0  0  0  0  0  0  0  0  0  0
   11.6470   -1.4750   24.7590 N   0  0  0  0  0  0  0  0  0  0  0  0
   10.8250   -2.4480   25.2240 C   0  0  0  0  0  0  0  0  0  0  0  0
   11.3140   -3.5810   25.7880 C   0  0  0  0  0  0  0  0  0  0  0  0
   12.7120   -3.7650   25.9260 C   0  0  0  0  0  0  0  0  0  0  0  0
   13.5750   -2.7870   25.4680 C   0  0  0  0  0  0  0  0  0  0  0  0
   12.9730   -1.6120   24.8610 C   0  0  0  0  0  0  0  0  0  0  0  0
    8.4410   -3.3430   25.6300 C   0  0  0  0  0  0  0  0  0  0  0  0
    9.0380   -4.4630   26.1780 C   0  0  0  0  0  0  0  0  0  0  0  0
   10.4170   -4.5710   26.2530 C   0  0  0  0  0  0  0  0  0  0  0  0
    9.4580   -2.3070   25.1440 C   0  0  0  0  0  0  0  0  0  0  0  0
  1  2  1  0
  1  4  1  0
  3  7  2  0
  4  7  1  0
  5  7  1  0
 10  1  1  0
  6 10  2  0
  8 10  2  0
 12 13  2  0
 11 14  1  0
 13 14  1  0
  9 15  1  0
 14 15  2  0
  5 16  1  0
 15 16  1  0
 12 17  1  0
 16 17  2  0
 18 19  2  0
 19 20  1  0
 20 21  2  0
 21 22  1  0
 18 23  1  0
 22 23  2  0
 24 25  1  0
 20 26  1  0
 25 26  2  0
 10 27  1  0
 19 27  1  0
 24 27  2  0
M  END
