x0991-x0426
     RDKit          3D

 28 29  0  0  0  0  0  0  0  0999 V2000
    2.1550    1.5620   24.0240 C   0  0  0  0  0  0  0  0  0  0  0  0
    1.8990    0.3770   24.1210 O   0  0  0  0  0  0  0  0  0  0  0  0
    3.3580    2.1160   23.3460 N   0  0  0  0  0  0  0  0  0  0  0  0
    4.1410    1.2330   22.4530 C   0  0  1  0  0  0  0  0  0  0  0  0
    3.6460    1.3800   21.0260 C   0  0  0  0  0  0  0  0  0  0  0  0
    2.8170    4.1650   25.1950 F   0  0  0  0  0  0  0  0  0  0  0  0
   10.1940   -5.2420   25.5200 N   0  0  0  0  0  0  0  0  0  0  0  0
    8.6710   -3.6220   23.6560 C   0  0  0  0  0  0  0  0  0  0  0  0
    8.0550   -4.8810   24.1830 C   0  0  0  0  0  0  0  0  0  0  0  0
    8.1610   -5.6480   26.5990 N   0  0  0  0  0  0  0  0  0  0  0  0
    8.8280   -5.2700   25.4650 C   0  0  0  0  0  0  0  0  0  0  0  0
    5.6340    1.3890   22.6370 C   0  0  0  0  0  0  0  0  0  0  0  0
    6.5400    0.3150   22.5510 C   0  0  0  0  0  0  0  0  0  0  0  0
    6.1790   -0.9240   23.0350 C   0  0  0  0  0  0  0  0  0  0  0  0
    7.2860   -1.6160   23.5380 C   0  0  0  0  0  0  0  0  0  0  0  0
    7.6990   -2.7460   22.9120 C   0  0  0  0  0  0  0  0  0  0  0  0
    1.5450    3.7360   25.1940 C   0  0  0  0  0  0  0  0  0  0  0  0
    1.1790    2.5050   24.6450 C   0  0  0  0  0  0  0  0  0  0  0  0
   -0.2230    2.0460   24.6470 C   0  0  0  0  0  0  0  0  0  0  0  0
   -1.1880    2.9700   25.2630 C   0  0  0  0  0  0  0  0  0  0  0  0
   -0.7750    4.1890   25.7990 C   0  0  0  0  0  0  0  0  0  0  0  0
    0.5690    4.5650   25.7650 C   0  0  0  0  0  0  0  0  0  0  0  0
    5.5480   -0.0120   20.1580 C   0  0  0  0  0  0  0  0  0  0  0  0
    6.4620   -0.3760   19.2020 C   0  0  0  0  0  0  0  0  0  0  0  0
    6.4920    0.3130   17.9000 N   0  0  0  0  0  0  0  0  0  0  0  0
    5.4770    1.3880   17.7460 C   0  0  0  0  0  0  0  0  0  0  0  0
    4.6080    1.6890   18.7450 C   0  0  0  0  0  0  0  0  0  0  0  0
    4.6250    1.0110   19.9470 C   0  0  0  0  0  0  0  0  0  0  0  0
  1  2  2  0
  1  3  1  0
  3  4  1  0
  4  5  1  6
  8  9  1  0
  7 11  2  3
  9 11  1  0
 10 11  1  0
  4 12  1  0
 12 13  1  0
 13 14  1  0
 14 15  1  0
  8 16  1  0
 15 16  1  0
  6 17  1  0
  1 18  1  0
 17 18  2  0
 18 19  1  0
 19 20  2  0
 20 21  1  0
 17 22  1  0
 21 22  2  0
 23 24  2  0
 24 25  1  0
 25 26  2  0
 26 27  1  0
  5 28  1  0
 23 28  1  0
 27 28  2  0
M  END
