x0995-x2705-x0691-x2649
     RDKit          3D

 52 57  0  0  0  0  0  0  0  0999 V2000
    7.0800   -1.4100   21.6870 N   0  0  0  0  0  0  0  0  0  0  0  0
    6.6450   -4.2510   20.3030 C   0  0  2  0  0  0  0  0  0  0  0  0
    4.9820   -3.2460   21.2510 O   0  0  0  0  0  0  0  0  0  0  0  0
    6.7580   -3.4160   21.4710 C   0  0  1  0  0  0  0  0  0  0  0  0
    7.6460    2.0290   22.8290 N   0  0  0  0  0  0  0  0  0  0  0  0
    8.9570    1.3440   21.1780 O   0  0  0  0  0  0  0  0  0  0  0  0
    5.8390   -2.2640   21.4520 C   0  0  0  0  0  0  0  0  0  0  0  0
    6.8460    0.0560   21.4340 C   0  0  1  0  0  0  0  0  0  0  0  0
    7.9070    1.1590   21.8020 C   0  0  0  0  0  0  0  0  0  0  0  0
   10.1780    2.0650   23.9540 C   0  0  0  0  0  0  0  0  0  0  0  0
    9.3760    1.1410   24.8680 C   0  0  0  0  0  0  0  0  0  0  0  0
    6.2370    4.5330   21.8820 C   0  0  0  0  0  0  0  0  0  0  0  0
   12.0440   -1.5770   23.2930 C   0  0  0  0  0  0  0  0  0  0  0  0
   12.5370   -0.1880   23.7710 C   0  0  0  0  0  0  0  0  0  0  0  0
   12.5110   -2.6140   24.3580 C   0  0  0  0  0  0  0  0  0  0  0  0
   12.7310   -1.8700   21.9400 C   0  0  0  0  0  0  0  0  0  0  0  0
    5.4400   -4.2090   19.5380 O   0  0  0  0  0  0  0  0  0  0  0  0
    4.1320   -6.8690   25.8570 O   0  0  0  0  0  0  0  0  0  0  0  0
    5.6970   -5.1770   26.8430 O   0  0  0  0  0  0  0  0  0  0  0  0
    3.2750   -0.6860   25.9670 F   0  0  0  0  0  0  0  0  0  0  0  0
    4.7510   -5.5630   25.8240 S   0  0  0  0  0  0  0  0  0  0  0  0
    4.4280    1.5170   21.4300 C   0  0  0  0  0  0  0  0  0  0  0  0
    3.3940    2.1660   18.8820 N   0  0  0  0  0  0  0  0  0  0  0  0
    6.3080    0.3570   17.7940 N   0  0  0  0  0  0  0  0  0  0  0  0
    5.1690    1.0720   17.8570 C   0  0  0  0  0  0  0  0  0  0  0  0
    4.5330    1.4600   18.9620 C   0  0  0  0  0  0  0  0  0  0  0  0
    5.0940    1.1050   20.1420 C   0  0  0  0  0  0  0  0  0  0  0  0
    6.2560    0.3860   20.1140 C   0  0  0  0  0  0  0  0  0  0  0  0
    6.8330    0.0230   18.9060 C   0  0  0  0  0  0  0  0  0  0  0  0
    9.6740   -1.8570   24.2350 N   0  0  0  0  0  0  0  0  0  0  0  0
    8.3650   -1.8160   23.7840 N   0  0  0  0  0  0  0  0  0  0  0  0
    8.2940   -1.5580   22.4720 C   0  0  0  0  0  0  0  0  0  0  0  0
    9.6140   -1.4290   22.0350 C   0  0  0  0  0  0  0  0  0  0  0  0
   10.5020   -1.6120   23.1350 C   0  0  0  0  0  0  0  0  0  0  0  0
    9.5230    3.3680   23.5150 C   0  0  0  0  0  0  0  0  0  0  0  0
   10.2310    4.7150   23.6800 C   0  0  0  0  0  0  0  0  0  0  0  0
    9.5070    5.8360   23.2210 C   0  0  0  0  0  0  0  0  0  0  0  0
    8.2340    5.7350   22.6530 C   0  0  0  0  0  0  0  0  0  0  0  0
    7.6030    4.4990   22.5120 C   0  0  0  0  0  0  0  0  0  0  0  0
    8.2320    3.3220   22.9390 C   0  0  0  0  0  0  0  0  0  0  0  0
    2.9120   -1.9740   25.8620 C   0  0  0  0  0  0  0  0  0  0  0  0
    3.8970   -2.9740   25.8870 C   0  0  0  0  0  0  0  0  0  0  0  0
    3.5160   -4.3110   25.7810 C   0  0  0  0  0  0  0  0  0  0  0  0
    2.1720   -4.6090   25.6480 C   0  0  0  0  0  0  0  0  0  0  0  0
    1.1840   -3.6270   25.6210 C   0  0  0  0  0  0  0  0  0  0  0  0
    1.5620   -2.2900   25.7320 C   0  0  0  0  0  0  0  0  0  0  0  0
    6.4360   -4.7340   21.8660 C   0  0  0  0  0  0  0  0  0  0  0  0
    5.0980   -5.3700   22.0590 C   0  0  0  0  0  0  0  0  0  0  0  0
    4.9170   -6.2280   23.1880 C   0  0  0  0  0  0  0  0  0  0  0  0
    5.5200   -5.4880   24.2890 N   0  0  0  0  0  0  0  0  0  0  0  0
    6.9800   -5.2130   24.1370 C   0  0  0  0  0  0  0  0  0  0  0  0
    7.4370   -5.3330   22.8110 C   0  0  0  0  0  0  0  0  0  0  0  0
  2  4  1  0
  1  7  1  0
  3  7  2  0
  4  7  1  6
  1  8  1  0
  5  9  1  0
  6  9  2  0
  8  9  1  6
 10 11  1  0
 13 14  1  0
 13 15  1  0
 13 16  1  0
  2 17  1  6
 18 21  2  0
 19 21  2  0
 24 25  2  0
 23 26  1  0
 25 26  1  0
 22 27  1  0
 26 27  2  0
  8 28  1  0
 27 28  1  0
 24 29  1  0
 28 29  2  0
 30 31  1  0
  1 32  1  0
 31 32  1  0
 32 33  2  0
 13 34  1  0
 30 34  2  0
 33 34  1  0
 10 35  1  0
 35 36  2  0
 36 37  1  0
 37 38  2  0
 12 39  1  0
 38 39  1  0
  5 40  1  0
 35 40  1  0
 39 40  2  0
 20 41  1  0
 41 42  2  0
 21 43  1  0
 42 43  1  0
 43 44  2  0
 44 45  1  0
 41 46  1  0
 45 46  2  0
  2 47  1  0
  4 47  1  0
 47 48  1  0
 48 49  1  0
 21 50  1  0
 49 50  1  0
 50 51  1  0
 47 52  1  0
 51 52  1  0
M  END
