x0995-x0771-x2705-x2649
     RDKit          3D

 53 59  0  0  0  0  0  0  0  0999 V2000
    7.0410   -1.4490   21.7440 N   0  0  0  0  0  0  0  0  0  0  0  0
    6.7770   -4.1600   20.2590 C   0  0  2  0  0  0  0  0  0  0  0  0
    5.0820   -3.4630   21.3270 O   0  0  0  0  0  0  0  0  0  0  0  0
    7.0030   -3.4180   21.5010 C   0  0  2  0  0  0  0  0  0  0  0  0
    7.5720    2.0300   22.8570 N   0  0  0  0  0  0  0  0  0  0  0  0
    8.8640    1.3220   21.1940 O   0  0  0  0  0  0  0  0  0  0  0  0
    5.8790   -2.4160   21.5270 C   0  0  0  0  0  0  0  0  0  0  0  0
    6.7490    0.0200   21.4920 C   0  0  1  0  0  0  0  0  0  0  0  0
    7.8180    1.1390   21.8370 C   0  0  0  0  0  0  0  0  0  0  0  0
   10.2240    2.0800   23.9580 C   0  0  0  0  0  0  0  0  0  0  0  0
    9.3490    1.2290   24.8790 C   0  0  0  0  0  0  0  0  0  0  0  0
    6.1990    4.4540   21.9340 C   0  0  0  0  0  0  0  0  0  0  0  0
   12.1010   -1.5950   23.3330 C   0  0  0  0  0  0  0  0  0  0  0  0
   12.6120   -0.2080   23.8010 C   0  0  0  0  0  0  0  0  0  0  0  0
   12.6170   -2.6230   24.3790 C   0  0  0  0  0  0  0  0  0  0  0  0
   12.7520   -1.8790   21.9590 C   0  0  0  0  0  0  0  0  0  0  0  0
    5.5340   -4.0420   19.5590 O   0  0  0  0  0  0  0  0  0  0  0  0
    0.5800   -1.4510   26.1940 C   0  0  0  0  0  0  0  0  0  0  0  0
    4.6300   -6.8940   25.7460 O   0  0  0  0  0  0  0  0  0  0  0  0
    6.1210   -5.1000   26.6770 O   0  0  0  0  0  0  0  0  0  0  0  0
    2.0010   -6.0390   24.9820 C   0  0  0  0  0  0  0  0  0  0  0  0
    5.1300   -5.5370   25.7210 S   0  0  0  0  0  0  0  0  0  0  0  0
    4.3020    1.5320   21.3980 C   0  0  0  0  0  0  0  0  0  0  0  0
    3.3620    2.1530   18.9020 N   0  0  0  0  0  0  0  0  0  0  0  0
    6.2950    0.2670   17.8280 N   0  0  0  0  0  0  0  0  0  0  0  0
    5.1670    0.9980   17.8400 C   0  0  0  0  0  0  0  0  0  0  0  0
    4.4890    1.4230   18.9520 C   0  0  0  0  0  0  0  0  0  0  0  0
    5.0170    1.0750   20.1620 C   0  0  0  0  0  0  0  0  0  0  0  0
    6.1720    0.3400   20.1610 C   0  0  0  0  0  0  0  0  0  0  0  0
    6.8330   -0.0890   18.9950 C   0  0  0  0  0  0  0  0  0  0  0  0
    9.6860   -1.7660   24.2180 N   0  0  0  0  0  0  0  0  0  0  0  0
    8.3810   -1.7460   23.8430 N   0  0  0  0  0  0  0  0  0  0  0  0
    8.3180   -1.5740   22.5000 C   0  0  0  0  0  0  0  0  0  0  0  0
    9.6240   -1.4910   22.0100 C   0  0  0  0  0  0  0  0  0  0  0  0
   10.5660   -1.6200   23.1990 C   0  0  0  0  0  0  0  0  0  0  0  0
    9.5150    3.3340   23.5010 C   0  0  0  0  0  0  0  0  0  0  0  0
   10.1650    4.5680   23.6170 C   0  0  0  0  0  0  0  0  0  0  0  0
    9.5470    5.7450   23.2000 C   0  0  0  0  0  0  0  0  0  0  0  0
    8.2560    5.7050   22.6530 C   0  0  0  0  0  0  0  0  0  0  0  0
    7.5850    4.4600   22.5320 C   0  0  0  0  0  0  0  0  0  0  0  0
    8.2220    3.2880   22.9620 C   0  0  0  0  0  0  0  0  0  0  0  0
    1.6900   -2.4440   26.0700 C   0  0  0  0  0  0  0  0  0  0  0  0
    1.4240   -3.7270   25.6120 C   0  0  0  0  0  0  0  0  0  0  0  0
    2.4350   -4.6930   25.4870 C   0  0  0  0  0  0  0  0  0  0  0  0
    3.7650   -4.3940   25.8240 C   0  0  0  0  0  0  0  0  0  0  0  0
    4.0750   -3.1140   26.2820 C   0  0  0  0  0  0  0  0  0  0  0  0
    2.9960   -2.0950   26.4110 C   0  0  0  0  0  0  0  0  0  0  0  0
    6.8390   -5.0160   21.5770 C   0  0  1  0  0  0  0  0  0  0  0  0
    5.5490   -5.7450   21.7960 C   0  0  0  0  0  0  0  0  0  0  0  0
    4.8340   -5.6060   22.9780 C   0  0  0  0  0  0  0  0  0  0  0  0
    5.7240   -5.3060   24.1250 N   0  0  0  0  0  0  0  0  0  0  0  0
    6.4660   -4.0410   23.8740 C   0  0  0  0  0  0  0  0  0  0  0  0
    7.2680   -4.1900   22.7240 C   0  0  2  0  0  0  0  0  0  0  0  0
  2  4  1  0
  1  7  1  0
  3  7  2  0
  4  7  1  1
  1  8  1  0
  5  9  1  0
  6  9  2  0
  8  9  1  6
 10 11  1  0
 13 14  1  0
 13 15  1  0
 13 16  1  0
  2 17  1  1
 19 22  2  0
 20 22  2  0
 25 26  2  0
 24 27  1  0
 26 27  1  0
 23 28  1  0
 27 28  2  0
  8 29  1  0
 28 29  1  0
 25 30  1  0
 29 30  2  0
 31 32  1  0
  1 33  1  0
 32 33  2  0
 33 34  1  0
 13 35  1  0
 31 35  1  0
 34 35  2  0
 10 36  1  0
 36 37  2  0
 37 38  1  0
 38 39  2  0
 12 40  1  0
 39 40  1  0
  5 41  1  0
 36 41  1  0
 40 41  2  0
 18 42  1  0
 42 43  2  0
 21 44  1  0
 43 44  1  0
 22 45  1  0
 44 45  2  0
 45 46  1  0
 42 47  1  0
 46 47  2  0
  2 48  1  0
  4 48  1  0
 48 49  1  1
 49 50  1  0
 22 51  1  0
 50 51  1  0
 51 52  1  0
  4 53  1  0
 48 53  1  0
 53 52  1  1
M  END
