x0991-x2694
     RDKit          3D

 39 41  0  0  0  0  0  0  0  0999 V2000
    6.9310   -1.2620   21.8760 N   0  0  0  0  0  0  0  0  0  0  0  0
    6.9440   -4.6100   20.3560 C   0  0  0  0  0  0  0  0  0  0  0  0
    4.8000   -2.9480   21.2410 O   0  0  0  0  0  0  0  0  0  0  0  0
    7.0250   -3.7560   21.6230 C   0  0  2  0  0  0  0  0  0  0  0  0
    7.5530    2.0680   22.8250 N   0  0  0  0  0  0  0  0  0  0  0  0
    8.6330    1.1740   21.0580 O   0  0  0  0  0  0  0  0  0  0  0  0
    6.1200   -2.5690   21.5580 C   0  0  0  0  0  0  0  0  0  0  0  0
   10.8430    6.6290   23.8110 O   0  0  0  0  0  0  0  0  0  0  0  0
    6.6100    0.1360   21.6280 C   0  0  1  0  0  0  0  0  0  0  0  0
    7.6630    1.1390   21.8310 C   0  0  0  0  0  0  0  0  0  0  0  0
   10.2040    1.7330   24.0700 C   0  0  0  0  0  0  0  0  0  0  0  0
   11.8500    6.5470   24.8240 C   0  0  0  0  0  0  0  0  0  0  0  0
   12.0370   -1.4290   23.2570 C   0  0  0  0  0  0  0  0  0  0  0  0
   12.5050   -0.1590   23.6280 C   0  0  0  0  0  0  0  0  0  0  0  0
   12.7450   -1.8190   21.9480 C   0  0  0  0  0  0  0  0  0  0  0  0
   12.5170   -2.4320   24.3330 C   0  0  0  0  0  0  0  0  0  0  0  0
    9.7650   -6.0630   25.2260 N   0  0  0  0  0  0  0  0  0  0  0  0
    8.6760   -3.7320   23.6570 C   0  0  0  0  0  0  0  0  0  0  0  0
    7.9740   -5.0100   24.0970 C   0  0  0  0  0  0  0  0  0  0  0  0
    7.8100   -5.7760   26.3870 N   0  0  0  0  0  0  0  0  0  0  0  0
    8.5170   -5.6190   25.2250 C   0  0  0  0  0  0  0  0  0  0  0  0
    8.3840   -3.3230   22.2200 C   0  0  0  0  0  0  0  0  0  0  0  0
    6.3100    0.4760   17.8390 N   0  0  0  0  0  0  0  0  0  0  0  0
    5.2090    1.2430   17.7680 C   0  0  0  0  0  0  0  0  0  0  0  0
    4.5150    1.6590   18.8130 C   0  0  0  0  0  0  0  0  0  0  0  0
    4.9760    1.2720   20.1650 C   0  0  0  0  0  0  0  0  0  0  0  0
    6.1120    0.4950   20.2570 C   0  0  0  0  0  0  0  0  0  0  0  0
    6.7410    0.1170   19.0670 C   0  0  0  0  0  0  0  0  0  0  0  0
    8.3900   -1.3810   23.8950 N   0  0  0  0  0  0  0  0  0  0  0  0
    9.7350   -1.4200   24.2130 O   0  0  0  0  0  0  0  0  0  0  0  0
   10.5010   -1.4000   23.0910 C   0  0  0  0  0  0  0  0  0  0  0  0
    9.6100   -1.3490   22.0120 C   0  0  0  0  0  0  0  0  0  0  0  0
    8.2600   -1.3390   22.5470 C   0  0  0  0  0  0  0  0  0  0  0  0
    9.6600    3.0740   23.6610 C   0  0  0  0  0  0  0  0  0  0  0  0
   10.4880    4.2010   23.9050 C   0  0  0  0  0  0  0  0  0  0  0  0
   10.0990    5.4930   23.5890 C   0  0  0  0  0  0  0  0  0  0  0  0
    8.8540    5.6680   22.9980 C   0  0  0  0  0  0  0  0  0  0  0  0
    8.0160    4.5620   22.7380 C   0  0  0  0  0  0  0  0  0  0  0  0
    8.3920    3.2360   23.0650 C   0  0  0  0  0  0  0  0  0  0  0  0
  4  2  1  6
  1  7  1  0
  3  7  2  0
  4  7  1  0
  1  9  1  0
  5 10  1  0
  6 10  2  0
  9 10  1  6
  8 12  1  0
 13 14  1  0
 13 15  1  0
 13 16  1  0
 18 19  1  0
 17 21  2  3
 19 21  1  0
 20 21  1  0
  4 22  1  0
 18 22  1  0
 23 24  2  0
 24 25  1  0
 25 26  2  0
  9 27  1  0
 26 27  1  0
 23 28  1  0
 27 28  2  0
 29 30  1  0
 13 31  1  0
 30 31  1  0
 31 32  2  0
  1 33  1  0
 29 33  2  0
 32 33  1  0
 11 34  1  0
 34 35  2  0
  8 36  1  0
 35 36  1  0
 36 37  2  0
 37 38  1  0
  5 39  1  0
 34 39  1  0
 38 39  2  0
M  END
