x0991-x0759
     RDKit          3D

 20 22  0  0  0  0  0  0  0  0999 V2000
    5.3350   -4.1280   19.7060 O   0  0  0  0  0  0  0  0  0  0  0  0
    6.3590   -3.4750   20.0100 C   0  0  0  0  0  0  0  0  0  0  0  0
    7.3490   -3.0450   18.9940 C   0  0  0  0  0  0  0  0  0  0  0  0
   13.0410    0.6320   23.3890 F   0  0  0  0  0  0  0  0  0  0  0  0
   10.1050   -5.5290   24.8180 N   0  0  0  0  0  0  0  0  0  0  0  0
    7.8090   -5.0620   23.9880 C   0  0  2  0  0  0  0  0  0  0  0  0
    8.3010   -4.5700   26.3860 N   0  0  0  0  0  0  0  0  0  0  0  0
    8.7730   -5.0390   25.1060 C   0  0  0  0  0  0  0  0  0  0  0  0
    6.6260   -3.1810   21.3210 N   0  0  0  0  0  0  0  0  0  0  0  0
    7.6230   -2.1840   21.7660 C   0  0  0  0  0  0  0  0  0  0  0  0
    8.2520   -2.4530   23.1520 C   0  0  1  0  0  0  0  0  0  0  0  0
    8.2960   -3.9340   23.2340 N   0  0  0  0  0  0  0  0  0  0  0  0
    6.8310   -3.9010   23.4440 C   0  0  1  0  0  0  0  0  0  0  0  0
    6.1490   -4.1510   22.2750 C   0  0  0  0  0  0  0  0  0  0  0  0
    9.7020   -0.4880   24.1850 C   0  0  0  0  0  0  0  0  0  0  0  0
   10.9170    0.2150   24.1620 C   0  0  0  0  0  0  0  0  0  0  0  0
   11.9360   -0.1010   23.3230 C   0  0  0  0  0  0  0  0  0  0  0  0
   11.8840   -1.1490   22.4010 C   0  0  0  0  0  0  0  0  0  0  0  0
   10.7260   -1.8910   22.3520 C   0  0  0  0  0  0  0  0  0  0  0  0
    9.5520   -1.6600   23.1990 C   0  0  0  0  0  0  0  0  0  0  0  0
  1  2  2  0
  2  3  1  0
  5  8  2  3
  6  8  1  1
  7  8  1  0
  2  9  1  0
  9 10  1  0
 10 11  1  0
  6 12  1  0
 11 12  1  0
  6 13  1  0
 12 13  1  0
  9 14  1  0
 13 14  1  6
 15 16  2  0
  4 17  1  0
 16 17  1  0
 17 18  2  0
 18 19  1  0
 11 20  1  6
 15 20  1  0
 19 20  2  0
M  END
