x0995-x0874
     RDKit          3D

 11 12  0  0  0  0  0  0  0  0999 V2000
    9.9050    3.4650   22.2530 N   0  0  0  0  0  0  0  0  0  0  0  0
    9.2140    2.2590   22.1580 C   0  0  0  0  0  0  0  0  0  0  0  0
    8.5850    1.9080   20.9360 O   0  0  0  0  0  0  0  0  0  0  0  0
    9.1950    1.3020   23.3130 C   0  0  1  0  0  0  0  0  0  0  0  0
    8.0560    0.2280   23.3030 C   0  0  0  0  0  0  0  0  0  0  0  0
    8.5850   -1.0720   23.0510 C   0  0  0  0  0  0  0  0  0  0  0  0
   10.0720   -0.8830   22.9760 C   0  0  0  0  0  0  0  0  0  0  0  0
   10.3730    0.3520   23.1280 C   0  0  0  0  0  0  0  0  0  0  0  0
   11.8620    0.5940   23.0690 C   0  0  0  0  0  0  0  0  0  0  0  0
   11.5440   -1.6750   22.7620 S   0  0  0  0  0  0  0  0  0  0  0  0
   12.8050   -0.3800   22.8710 C   0  0  0  0  0  0  0  0  0  0  0  0
  1  2  1  0
  2  3  2  0
  4  2  1  6
  4  5  1  0
  5  6  1  0
  6  7  1  0
  4  8  1  0
  7  8  2  0
  8  9  1  0
  7 10  1  0
  9 11  2  0
 10 11  1  0
M  END
