x0995-x3113
     RDKit          3D

 31 32  0  0  0  0  0  0  0  0999 V2000
    7.0240   -1.8070   21.9590 N   0  0  0  0  0  0  0  0  0  0  0  0
    8.2560   -4.4720   20.9600 C   0  0  0  0  0  0  0  0  0  0  0  0
    4.8940   -3.1000   21.2270 O   0  0  0  0  0  0  0  0  0  0  0  0
    6.8850   -4.2940   21.5560 C   0  0  0  0  0  0  0  0  0  0  0  0
    7.9690    1.3710   23.1170 N   0  0  0  0  0  0  0  0  0  0  0  0
    8.9100    0.4720   21.2500 O   0  0  0  0  0  0  0  0  0  0  0  0
    6.1760   -2.9850   21.5590 C   0  0  0  0  0  0  0  0  0  0  0  0
   11.5130    3.9100   23.3690 O   0  0  0  0  0  0  0  0  0  0  0  0
    6.7000   -0.3310   21.7640 C   0  0  1  0  0  0  0  0  0  0  0  0
    7.9560    0.5100   22.0080 C   0  0  0  0  0  0  0  0  0  0  0  0
    9.0360    2.4140   23.2300 C   0  0  0  0  0  0  0  0  0  0  0  0
   10.3710    1.8500   23.7430 C   0  0  0  0  0  0  0  0  0  0  0  0
   11.5320    2.4830   23.2510 C   0  0  0  0  0  0  0  0  0  0  0  0
   12.7270    4.5070   22.8920 C   0  0  0  0  0  0  0  0  0  0  0  0
   12.4150   -1.9820   24.2150 C   0  0  0  0  0  0  0  0  0  0  0  0
   13.3390   -2.0330   23.2380 C   0  0  0  0  0  0  0  0  0  0  0  0
   12.7170   -3.1020   25.2170 C   0  0  0  0  0  0  0  0  0  0  0  0
   12.5910   -0.6590   24.9530 C   0  0  0  0  0  0  0  0  0  0  0  0
    3.4390    1.9750   19.1260 N   0  0  0  0  0  0  0  0  0  0  0  0
    6.5030    0.2140   17.9730 N   0  0  0  0  0  0  0  0  0  0  0  0
    5.3670    0.9350   17.9010 C   0  0  0  0  0  0  0  0  0  0  0  0
    4.5890    1.2700   19.0660 C   0  0  0  0  0  0  0  0  0  0  0  0
    5.0090    0.8550   20.3130 C   0  0  0  0  0  0  0  0  0  0  0  0
    6.1950    0.1120   20.3950 C   0  0  0  0  0  0  0  0  0  0  0  0
    6.8960   -0.1850   19.2060 C   0  0  0  0  0  0  0  0  0  0  0  0
    9.4810   -1.7000   21.7550 C   0  0  0  0  0  0  0  0  0  0  0  0
   10.7810   -1.7350   22.2400 C   0  0  0  0  0  0  0  0  0  0  0  0
   11.0440   -1.9670   23.5810 C   0  0  0  0  0  0  0  0  0  0  0  0
    9.9540   -2.1870   24.4410 C   0  0  0  0  0  0  0  0  0  0  0  0
    8.6360   -2.1520   23.9240 C   0  0  0  0  0  0  0  0  0  0  0  0
    8.3840   -1.9000   22.5680 C   0  0  0  0  0  0  0  0  0  0  0  0
  2  4  1  0
  1  7  1  0
  3  7  2  0
  4  7  1  0
  1  9  1  0
  5 10  1  0
  6 10  2  0
  9 10  1  6
  5 11  1  0
 11 12  1  0
  8 13  1  0
 12 13  1  0
  8 14  1  0
 15 16  1  0
 15 17  1  0
 15 18  1  0
 20 21  2  0
 19 22  1  0
 21 22  1  0
 22 23  2  0
  9 24  1  0
 23 24  1  0
 20 25  1  0
 24 25  2  0
 26 27  2  0
 15 28  1  0
 27 28  1  0
 28 29  2  0
 29 30  1  0
  1 31  1  0
 26 31  1  0
 30 31  2  0
M  END
