x0995-x2703
     RDKit          3D

 34 36  0  0  0  0  0  0  0  0999 V2000
    6.8850   -1.6990   21.8430 N   0  0  0  0  0  0  0  0  0  0  0  0
    6.8140   -5.0090   20.4910 C   0  0  0  0  0  0  0  0  0  0  0  0
    4.8210   -3.0400   21.2760 O   0  0  0  0  0  0  0  0  0  0  0  0
    6.7780   -4.1850   21.7310 C   0  0  0  0  0  0  0  0  0  0  0  0
    7.2610    1.7460   22.6780 N   0  0  0  0  0  0  0  0  0  0  0  0
    8.1400    1.0970   20.6380 O   0  0  0  0  0  0  0  0  0  0  0  0
    6.0700   -2.9060   21.6030 C   0  0  0  0  0  0  0  0  0  0  0  0
    6.3530   -0.3130   21.6220 C   0  0  1  0  0  0  0  0  0  0  0  0
    7.3440    0.8820   21.5590 C   0  0  0  0  0  0  0  0  0  0  0  0
    9.9980    1.8310   23.9820 C   0  0  0  0  0  0  0  0  0  0  0  0
    9.1120    1.2530   25.0800 C   0  0  0  0  0  0  0  0  0  0  0  0
    6.0710    4.2180   21.7110 C   0  0  0  0  0  0  0  0  0  0  0  0
   11.9860   -1.6510   24.5420 C   0  0  0  0  0  0  0  0  0  0  0  0
   12.5860   -2.8770   24.7740 C   0  0  0  0  0  0  0  0  0  0  0  0
   12.9680   -0.7550   23.7970 C   0  0  0  0  0  0  0  0  0  0  0  0
    3.3260    2.3230   18.9410 N   0  0  0  0  0  0  0  0  0  0  0  0
    6.4490    0.4690   17.9430 N   0  0  0  0  0  0  0  0  0  0  0  0
    5.3300    1.2280   17.9100 C   0  0  0  0  0  0  0  0  0  0  0  0
    4.5380    1.5050   19.0130 C   0  0  0  0  0  0  0  0  0  0  0  0
    4.8660    0.9860   20.3310 C   0  0  0  0  0  0  0  0  0  0  0  0
    6.0820    0.1830   20.2900 C   0  0  0  0  0  0  0  0  0  0  0  0
    6.7970   -0.0290   19.1040 C   0  0  0  0  0  0  0  0  0  0  0  0
   10.6700   -2.0410   22.5300 N   0  0  0  0  0  0  0  0  0  0  0  0
   10.6630   -1.7010   23.8230 C   0  0  0  0  0  0  0  0  0  0  0  0
    9.4950   -1.3880   24.4890 C   0  0  0  0  0  0  0  0  0  0  0  0
    8.3270   -1.4170   23.8070 C   0  0  0  0  0  0  0  0  0  0  0  0
    8.1780   -1.7380   22.4700 C   0  0  0  0  0  0  0  0  0  0  0  0
    9.3640   -2.0700   21.8070 C   0  0  0  0  0  0  0  0  0  0  0  0
    9.2690    3.0390   23.4390 C   0  0  0  0  0  0  0  0  0  0  0  0
    9.9380    4.2660   23.5720 C   0  0  0  0  0  0  0  0  0  0  0  0
    9.3630    5.4550   23.1100 C   0  0  0  0  0  0  0  0  0  0  0  0
    8.1020    5.3980   22.5080 C   0  0  0  0  0  0  0  0  0  0  0  0
    7.4230    4.1760   22.3700 C   0  0  0  0  0  0  0  0  0  0  0  0
    7.9970    2.9800   22.8350 C   0  0  0  0  0  0  0  0  0  0  0  0
  2  4  1  0
  1  7  1  0
  3  7  2  0
  4  7  1  0
  1  8  1  0
  5  9  1  0
  6  9  2  0
  8  9  1  6
 10 11  1  0
 13 14  1  0
 13 15  1  0
 17 18  2  0
 16 19  1  0
 18 19  1  0
 19 20  2  0
  8 21  1  0
 20 21  1  0
 17 22  1  0
 21 22  2  0
 13 24  1  0
 23 24  2  0
 24 25  1  0
 25 26  2  0
  1 27  1  0
 26 27  1  0
 23 28  1  0
 27 28  2  0
 10 29  1  0
 29 30  2  0
 30 31  1  0
 31 32  2  0
 12 33  1  0
 32 33  1  0
  5 34  1  0
 29 34  1  0
 33 34  2  0
M  END
