x0991-x0705
     RDKit          3D

 23 24  0  0  0  0  0  0  0  0999 V2000
    1.1200   -2.7380   27.7870 C   0  0  0  0  0  0  0  0  0  0  0  0
    7.3110   -1.3660   26.1010 O   0  0  0  0  0  0  0  0  0  0  0  0
    5.9130   -3.5960   19.6130 O   0  0  0  0  0  0  0  0  0  0  0  0
    6.3480   -1.5910   25.4050 C   0  0  0  0  0  0  0  0  0  0  0  0
    6.6840   -3.7230   20.5990 C   0  0  0  0  0  0  0  0  0  0  0  0
    7.8400   -4.6450   20.5280 C   0  0  0  0  0  0  0  0  0  0  0  0
   10.0440   -5.7030   25.0800 N   0  0  0  0  0  0  0  0  0  0  0  0
    8.5740   -4.1050   23.1760 C   0  0  0  0  0  0  0  0  0  0  0  0
    8.0290   -5.1940   23.8960 C   0  0  0  0  0  0  0  0  0  0  0  0
    7.8790   -5.8180   26.2510 N   0  0  0  0  0  0  0  0  0  0  0  0
    8.6070   -5.5790   25.1150 C   0  0  0  0  0  0  0  0  0  0  0  0
    2.4640   -2.4650   27.1860 C   0  0  0  0  0  0  0  0  0  0  0  0
    2.6060   -1.3930   26.3130 C   0  0  0  0  0  0  0  0  0  0  0  0
    3.8350   -1.1150   25.7480 C   0  0  0  0  0  0  0  0  0  0  0  0
    5.0800   -1.9510   26.0400 C   0  0  0  0  0  0  0  0  0  0  0  0
    4.9260   -2.9910   26.8850 C   0  0  0  0  0  0  0  0  0  0  0  0
    3.5620   -3.2810   27.5020 C   0  0  0  0  0  0  0  0  0  0  0  0
    6.5170   -3.0630   21.8230 N   0  0  0  0  0  0  0  0  0  0  0  0
    5.3020   -3.0850   22.3470 C   0  0  0  0  0  0  0  0  0  0  0  0
    5.1510   -1.8480   23.2530 C   0  0  0  0  0  0  0  0  0  0  0  0
    6.3680   -1.4920   24.0260 N   0  0  0  0  0  0  0  0  0  0  0  0
    7.6440   -1.8850   23.4170 C   0  0  0  0  0  0  0  0  0  0  0  0
    7.4300   -3.1160   23.0040 C   0  0  2  0  0  0  0  0  0  0  0  0
  2  4  2  0
  3  5  2  0
  5  6  1  0
  8  9  1  0
  7 11  2  3
  9 11  1  0
 10 11  1  0
  1 12  1  0
 12 13  2  0
 13 14  1  0
  4 15  1  0
 14 15  2  0
 15 16  1  0
 12 17  1  0
 16 17  2  0
  5 18  1  0
 18 19  1  0
 19 20  1  0
  4 21  1  0
 20 21  1  0
 21 22  1  0
 23  8  1  6
 18 23  1  0
 22 23  1  0
M  END
