x0991-x3124
     RDKit          3D

 32 33  0  0  0  0  0  0  0  0999 V2000
    6.8170   -1.5940   22.0180 N   0  0  0  0  0  0  0  0  0  0  0  0
    6.8100   -4.6930   20.2760 C   0  0  0  0  0  0  0  0  0  0  0  0
    4.7950   -3.0260   21.3300 O   0  0  0  0  0  0  0  0  0  0  0  0
    6.9590   -3.9130   21.5260 C   0  0  1  0  0  0  0  0  0  0  0  0
    7.4360    1.5690   23.0700 N   0  0  0  0  0  0  0  0  0  0  0  0
    8.6840    0.6750   21.3530 O   0  0  0  0  0  0  0  0  0  0  0  0
    6.0560   -2.7800   21.6110 C   0  0  0  0  0  0  0  0  0  0  0  0
    6.4570   -0.1760   21.6950 C   0  0  1  0  0  0  0  0  0  0  0  0
    7.6410    0.7000   22.0060 C   0  0  0  0  0  0  0  0  0  0  0  0
    7.9290    2.8540   23.0690 C   0  0  0  0  0  0  0  0  0  0  0  0
   12.2930   -1.7760   24.0950 C   0  0  0  0  0  0  0  0  0  0  0  0
   12.5310   -0.6030   24.7950 C   0  0  0  0  0  0  0  0  0  0  0  0
   13.3060   -1.8440   22.9460 C   0  0  0  0  0  0  0  0  0  0  0  0
   12.6390   -2.9320   25.0420 C   0  0  0  0  0  0  0  0  0  0  0  0
    9.8280   -5.7220   25.5140 N   0  0  0  0  0  0  0  0  0  0  0  0
    8.0690   -3.9980   23.7790 C   0  0  0  0  0  0  0  0  0  0  0  0
    8.8580   -4.9390   24.4460 C   0  0  0  0  0  0  0  0  0  0  0  0
    7.9380   -4.6550   26.8500 N   0  0  0  0  0  0  0  0  0  0  0  0
    8.7030   -5.0240   25.8130 C   0  0  0  0  0  0  0  0  0  0  0  0
    7.0780   -4.6240   22.8740 C   0  0  0  0  0  0  0  0  0  0  0  0
    6.3430    0.2950   17.9560 N   0  0  0  0  0  0  0  0  0  0  0  0
    5.2330    1.0450   17.8560 C   0  0  0  0  0  0  0  0  0  0  0  0
    4.4440    1.4330   18.9190 C   0  0  0  0  0  0  0  0  0  0  0  0
    4.8290    1.0250   20.1820 C   0  0  0  0  0  0  0  0  0  0  0  0
    5.9870    0.2510   20.3200 C   0  0  0  0  0  0  0  0  0  0  0  0
    6.7050   -0.0930   19.1980 C   0  0  0  0  0  0  0  0  0  0  0  0
    9.2740   -1.8300   21.7400 C   0  0  0  0  0  0  0  0  0  0  0  0
   10.5680   -1.8750   22.2420 C   0  0  0  0  0  0  0  0  0  0  0  0
   10.8280   -1.7390   23.6000 C   0  0  0  0  0  0  0  0  0  0  0  0
    9.7380   -1.5610   24.4540 C   0  0  0  0  0  0  0  0  0  0  0  0
    8.4120   -1.5120   23.9600 C   0  0  0  0  0  0  0  0  0  0  0  0
    8.1540   -1.6460   22.5780 C   0  0  0  0  0  0  0  0  0  0  0  0
  4  2  1  6
  1  7  1  0
  3  7  2  0
  4  7  1  0
  1  8  1  0
  5  9  1  0
  6  9  2  0
  8  9  1  6
  5 10  1  0
 11 12  1  0
 11 13  1  0
 11 14  1  0
 16 17  1  0
 15 19  2  3
 17 19  1  0
 18 19  1  0
  4 20  1  0
 16 20  1  0
 21 22  2  0
 22 23  1  0
 23 24  2  0
  8 25  1  0
 24 25  1  0
 21 26  1  0
 25 26  2  0
 27 28  2  0
 11 29  1  0
 28 29  1  0
 29 30  2  0
 30 31  1  0
  1 32  1  0
 27 32  1  0
 31 32  2  0
M  END
