x0995-x2705-x1311-x2643
     RDKit          3D

 49 53  0  0  0  0  0  0  0  0999 V2000
    6.8850   -1.1870   21.8690 N   0  0  0  0  0  0  0  0  0  0  0  0
    6.7820   -4.1910   20.6270 C   0  0  2  0  0  0  0  0  0  0  0  0
    4.9440   -3.2080   21.3300 O   0  0  0  0  0  0  0  0  0  0  0  0
    6.8700   -2.9510   21.2960 C   0  0  0  0  0  0  0  0  0  0  0  0
    7.6090    2.1070   22.8750 N   0  0  0  0  0  0  0  0  0  0  0  0
    8.8220    1.2950   21.1130 O   0  0  0  0  0  0  0  0  0  0  0  0
    5.7270   -2.1440   21.6370 C   0  0  0  0  0  0  0  0  0  0  0  0
    6.6370    0.2440   21.5640 C   0  0  1  0  0  0  0  0  0  0  0  0
    7.8090    1.2350   21.8220 C   0  0  0  0  0  0  0  0  0  0  0  0
   10.2150    2.1580   23.9700 C   0  0  0  0  0  0  0  0  0  0  0  0
    9.3510    1.2970   24.8990 C   0  0  0  0  0  0  0  0  0  0  0  0
    6.2300    4.6680   21.9190 C   0  0  0  0  0  0  0  0  0  0  0  0
   11.9770   -1.4110   23.4130 C   0  0  0  0  0  0  0  0  0  0  0  0
   12.4320   -0.0820   24.0530 C   0  0  0  0  0  0  0  0  0  0  0  0
   12.4740   -2.5290   24.3890 C   0  0  0  0  0  0  0  0  0  0  0  0
   12.7420   -1.5010   22.0750 C   0  0  0  0  0  0  0  0  0  0  0  0
    5.5820   -4.2920   19.8460 O   0  0  0  0  0  0  0  0  0  0  0  0
    6.6700   -5.1640   21.8290 N   0  0  0  0  0  0  0  0  0  0  0  0
    4.2250   -7.4080   25.2430 O   0  0  0  0  0  0  0  0  0  0  0  0
    2.8930   -5.3500   24.6710 O   0  0  0  0  0  0  0  0  0  0  0  0
    3.3110    2.3340   18.8820 N   0  0  0  0  0  0  0  0  0  0  0  0
    6.2990    0.3740   17.8200 N   0  0  0  0  0  0  0  0  0  0  0  0
    5.1740    1.1120   17.7980 C   0  0  0  0  0  0  0  0  0  0  0  0
    4.4220    1.6090   18.9800 C   0  0  0  0  0  0  0  0  0  0  0  0
    4.9670    1.2670   20.1700 C   0  0  0  0  0  0  0  0  0  0  0  0
    6.1210    0.5230   20.2000 C   0  0  0  0  0  0  0  0  0  0  0  0
    6.7480    0.0940   19.0390 C   0  0  0  0  0  0  0  0  0  0  0  0
    9.6340   -1.4630   24.3970 N   0  0  0  0  0  0  0  0  0  0  0  0
    8.3450   -1.4070   23.9570 N   0  0  0  0  0  0  0  0  0  0  0  0
    8.1910   -1.3100   22.5840 C   0  0  0  0  0  0  0  0  0  0  0  0
    9.5340   -1.3160   22.1490 C   0  0  0  0  0  0  0  0  0  0  0  0
   10.4240   -1.3980   23.2720 C   0  0  0  0  0  0  0  0  0  0  0  0
    9.5090    3.4190   23.5090 C   0  0  0  0  0  0  0  0  0  0  0  0
   10.1880    4.6260   23.6400 C   0  0  0  0  0  0  0  0  0  0  0  0
    9.5610    5.8150   23.2100 C   0  0  0  0  0  0  0  0  0  0  0  0
    8.2830    5.7900   22.6610 C   0  0  0  0  0  0  0  0  0  0  0  0
    7.6040    4.5780   22.5330 C   0  0  0  0  0  0  0  0  0  0  0  0
    8.2100    3.3870   22.9580 C   0  0  0  0  0  0  0  0  0  0  0  0
    8.4330   -6.0950   23.0120 C   0  0  0  0  0  0  0  0  0  0  0  0
    9.4100   -6.1290   23.9730 C   0  0  0  0  0  0  0  0  0  0  0  0
    9.5810   -4.9540   24.8700 C   0  0  0  0  0  0  0  0  0  0  0  0
    8.7160   -3.7660   24.7360 C   0  0  0  0  0  0  0  0  0  0  0  0
    7.7500   -3.7950   23.7460 C   0  0  0  0  0  0  0  0  0  0  0  0
    7.6190   -5.0230   22.8480 C   0  0  0  0  0  0  0  0  0  0  0  0
    4.6910   -6.2160   22.0150 C   0  0  0  0  0  0  0  0  0  0  0  0
    5.3730   -5.2190   22.5850 C   0  0  1  0  0  0  0  0  0  0  0  0
    5.4750   -5.4040   23.9880 C   0  0  0  0  0  0  0  0  0  0  0  0
    3.9530   -6.2790   24.3610 S   0  0  0  0  0  0  0  0  0  0  0  0
    3.7800   -6.8740   22.7540 C   0  0  0  0  0  0  0  0  0  0  0  0
  2  4  1  0
  1  7  1  0
  3  7  2  0
  4  7  1  0
  1  8  1  0
  5  9  1  0
  6  9  2  0
  8  9  1  6
 10 11  1  0
 13 14  1  0
 13 15  1  0
 13 16  1  0
  2 17  1  6
  2 18  1  0
 22 23  2  0
 21 24  1  0
 23 24  1  0
 24 25  2  0
  8 26  1  0
 25 26  1  0
 22 27  1  0
 26 27  2  0
 28 29  1  0
  1 30  1  0
 29 30  1  0
 30 31  2  0
 13 32  1  0
 28 32  2  0
 31 32  1  0
 10 33  1  0
 33 34  2  0
 34 35  1  0
 35 36  2  0
 12 37  1  0
 36 37  1  0
  5 38  1  0
 33 38  1  0
 37 38  2  0
 39 40  2  0
 40 41  1  0
 41 42  2  0
 42 43  1  0
 18 44  1  0
 39 44  1  0
 43 44  2  0
 46 18  1  6
 45 46  1  0
 46 47  1  0
 48 19  1  0
 20 48  1  0
 47 48  1  0
 45 49  2  0
 48 49  1  0
M  END
