x0995-x2694
     RDKit          3D

 34 36  0  0  0  0  0  0  0  0999 V2000
    7.0470   -1.4830   21.8380 N   0  0  0  0  0  0  0  0  0  0  0  0
    6.8700   -4.7960   20.4520 C   0  0  0  0  0  0  0  0  0  0  0  0
    4.8350   -2.9960   21.2430 O   0  0  0  0  0  0  0  0  0  0  0  0
    6.9170   -3.9460   21.6620 C   0  0  0  0  0  0  0  0  0  0  0  0
    7.5120    2.2000   22.4170 N   0  0  0  0  0  0  0  0  0  0  0  0
    8.9910    0.6390   21.5270 O   0  0  0  0  0  0  0  0  0  0  0  0
    6.1460   -2.7130   21.5620 C   0  0  0  0  0  0  0  0  0  0  0  0
   10.9220    6.4800   24.1090 O   0  0  0  0  0  0  0  0  0  0  0  0
    6.6600   -0.0230   21.6610 C   0  0  1  0  0  0  0  0  0  0  0  0
    7.8510    0.9330   21.8630 C   0  0  0  0  0  0  0  0  0  0  0  0
   10.2530    1.8950   23.1140 C   0  0  0  0  0  0  0  0  0  0  0  0
   11.8870    6.1530   25.1010 C   0  0  0  0  0  0  0  0  0  0  0  0
   12.1350   -1.5750   23.2270 C   0  0  0  0  0  0  0  0  0  0  0  0
   12.5690   -0.2810   23.4150 C   0  0  0  0  0  0  0  0  0  0  0  0
   12.7790   -2.0960   21.9230 C   0  0  0  0  0  0  0  0  0  0  0  0
   12.6110   -2.4470   24.3590 C   0  0  0  0  0  0  0  0  0  0  0  0
    3.3900    2.3940   18.8220 N   0  0  0  0  0  0  0  0  0  0  0  0
    6.2980    0.3660   17.9430 N   0  0  0  0  0  0  0  0  0  0  0  0
    5.1970    1.1560   17.8840 C   0  0  0  0  0  0  0  0  0  0  0  0
    4.4770    1.6130   18.9720 C   0  0  0  0  0  0  0  0  0  0  0  0
    4.9360    1.2220   20.2790 C   0  0  0  0  0  0  0  0  0  0  0  0
    6.1140    0.3880   20.3350 C   0  0  0  0  0  0  0  0  0  0  0  0
    6.7300    0.0010   19.1600 C   0  0  0  0  0  0  0  0  0  0  0  0
    8.4750   -1.6600   23.9390 N   0  0  0  0  0  0  0  0  0  0  0  0
    9.8540   -1.6620   24.2430 O   0  0  0  0  0  0  0  0  0  0  0  0
   10.6080   -1.5840   23.1120 C   0  0  0  0  0  0  0  0  0  0  0  0
    9.6190   -1.5260   22.1120 C   0  0  0  0  0  0  0  0  0  0  0  0
    8.3270   -1.5650   22.5910 C   0  0  0  0  0  0  0  0  0  0  0  0
    9.7120    3.1080   23.1820 C   0  0  0  0  0  0  0  0  0  0  0  0
   10.5220    4.1770   23.6010 C   0  0  0  0  0  0  0  0  0  0  0  0
   10.0470    5.5020   23.6880 C   0  0  0  0  0  0  0  0  0  0  0  0
    8.7100    5.6900   23.3250 C   0  0  0  0  0  0  0  0  0  0  0  0
    7.9060    4.6130   22.9130 C   0  0  0  0  0  0  0  0  0  0  0  0
    8.3820    3.3010   22.8370 C   0  0  0  0  0  0  0  0  0  0  0  0
  2  4  1  0
  1  7  1  0
  3  7  2  0
  4  7  1  0
  1  9  1  0
  5 10  1  0
  6 10  2  0
  9 10  1  6
  8 12  1  0
 13 14  1  0
 13 15  1  0
 13 16  1  0
 18 19  2  0
 17 20  1  0
 19 20  1  0
 20 21  2  0
  9 22  1  0
 21 22  1  0
 18 23  1  0
 22 23  2  0
 24 25  1  0
 13 26  1  0
 25 26  1  0
 26 27  2  0
  1 28  1  0
 24 28  2  0
 27 28  1  0
 11 29  1  0
 29 30  2  0
  8 31  1  0
 30 31  1  0
 31 32  2  0
 32 33  1  0
  5 34  1  0
 29 34  1  0
 33 34  2  0
M  END
