x0991-x1493
     RDKit          3D

 16 20  0  0  0  0  0  0  0  0999 V2000
    4.6740   -5.7030   25.5960 C   0  0  0  0  0  0  0  0  0  0  0  0
    6.9940   -5.9620   24.8370 N   0  0  0  0  0  0  0  0  0  0  0  0
    5.7770   -5.3080   24.6040 C   0  0  0  0  0  0  0  0  0  0  0  0
    5.4520   -3.9640   19.6540 O   0  0  0  0  0  0  0  0  0  0  0  0
    6.5900   -4.0620   20.1690 C   0  0  0  0  0  0  0  0  0  0  0  0
    7.7400   -3.2770   19.6200 C   0  0  0  0  0  0  0  0  0  0  0  0
    9.0920   -6.6110   23.6010 N   0  0  0  0  0  0  0  0  0  0  0  0
    8.1280   -3.4000   22.3030 C   0  0  2  0  0  0  0  0  0  0  0  0
    8.2720   -4.2450   23.5810 C   0  0  1  0  0  0  0  0  0  0  0  0
    8.1470   -5.6740   23.9890 C   0  0  0  0  0  0  0  0  0  0  0  0
    5.6430   -4.4340   23.5720 N   0  0  0  0  0  0  0  0  0  0  0  0
    7.0010   -3.8610   23.2460 C   0  0  1  0  0  0  0  0  0  0  0  0
    7.7120   -4.6800   22.1990 C   0  0  2  0  0  0  0  0  0  0  0  0
    6.7480   -4.9480   21.2450 N   0  0  0  0  0  0  0  0  0  0  0  0
    5.6580   -5.7240   21.7770 C   0  0  0  0  0  0  0  0  0  0  0  0
    4.9150   -4.8780   22.5240 C   0  0  0  0  0  0  0  0  0  0  0  0
  1  3  1  0
  2  3  2  0
  4  5  2  0
  5  6  1  0
  8  9  1  1
  2 10  1  0
  7 10  2  3
  9 10  1  6
  3 11  1  0
  8 12  1  0
  9 12  1  0
 12 11  1  6
  8 13  1  0
  9 13  1  0
 12 13  1  0
  5 14  1  0
 13 14  1  6
 14 15  1  0
 11 16  1  0
 15 16  1  0
M  END
