x0995-x1163
     RDKit          3D

 15 16  0  0  0  0  0  0  0  0999 V2000
   21.9120   21.2130    4.6190 O   0  0  0  0  0  0  0  0  0  0  0  0
   21.4650   20.5060    3.7070 C   0  0  0  0  0  0  0  0  0  0  0  0
   22.2590   16.3280    5.3760 C   0  0  0  0  0  0  0  0  0  0  0  0
   20.5550   19.3950    4.1610 C   0  0  2  0  0  0  0  0  0  0  0  0
   19.8520   19.7750    5.3830 O   0  0  0  0  0  0  0  0  0  0  0  0
   20.1160   19.1170    6.3930 C   0  0  0  0  0  0  0  0  0  0  0  0
   21.3090   18.2070    6.4320 C   0  0  0  0  0  0  0  0  0  0  0  0
   21.2330   17.2450    5.3300 N   0  0  0  0  0  0  0  0  0  0  0  0
   21.1790   17.9850    4.0610 C   0  0  0  0  0  0  0  0  0  0  0  0
   22.7560   13.9380    5.9280 C   0  0  0  0  0  0  0  0  0  0  0  0
   22.4990   12.7680    6.4940 C   0  0  0  0  0  0  0  0  0  0  0  0
   21.2560   12.6290    7.2710 C   0  0  0  0  0  0  0  0  0  0  0  0
   20.3780   13.6870    7.3980 C   0  0  0  0  0  0  0  0  0  0  0  0
   20.6920   14.8920    6.7880 C   0  0  0  0  0  0  0  0  0  0  0  0
   21.8880   15.0250    6.0480 C   0  0  0  0  0  0  0  0  0  0  0  0
  1  2  1  0
  4  2  1  1
  4  5  1  0
  5  6  1  0
  6  7  1  0
  3  8  1  0
  7  8  1  0
  4  9  1  0
  8  9  1  0
 10 11  2  0
 11 12  1  0
 12 13  2  0
 13 14  1  0
  3 15  1  0
 10 15  1  0
 14 15  2  0
M  END
