x0991-x0755
     RDKit          3D

 25 27  0  0  0  0  0  0  0  0999 V2000
    4.3660   -6.3190   26.4710 O   0  0  0  0  0  0  0  0  0  0  0  0
    6.3170   -4.6240   26.9280 O   0  0  0  0  0  0  0  0  0  0  0  0
    5.6220   -4.3570   19.8930 O   0  0  0  0  0  0  0  0  0  0  0  0
    6.5710   -4.4740   20.6950 C   0  0  0  0  0  0  0  0  0  0  0  0
    7.9030   -3.7280   20.4180 C   0  0  0  0  0  0  0  0  0  0  0  0
    2.0600   -5.5150   25.7190 F   0  0  0  0  0  0  0  0  0  0  0  0
    5.5600   -2.1320   26.1440 F   0  0  0  0  0  0  0  0  0  0  0  0
    5.0800   -5.1280   26.0650 S   0  0  0  0  0  0  0  0  0  0  0  0
    9.7270   -5.9860   24.5880 N   0  0  0  0  0  0  0  0  0  0  0  0
    8.6920   -3.2210   23.3110 C   0  0  0  0  0  0  0  0  0  0  0  0
    8.1200   -4.3780   23.8530 C   0  0  2  0  0  0  0  0  0  0  0  0
    8.6010   -4.8420   26.3200 N   0  0  0  0  0  0  0  0  0  0  0  0
    8.8840   -5.1280   24.9810 C   0  0  0  0  0  0  0  0  0  0  0  0
    2.4380   -4.2320   25.7820 C   0  0  0  0  0  0  0  0  0  0  0  0
    3.8970   -3.8440   25.9420 C   0  0  0  0  0  0  0  0  0  0  0  0
    4.2810   -2.4950   26.0040 C   0  0  0  0  0  0  0  0  0  0  0  0
    3.3340   -1.4690   25.9270 C   0  0  0  0  0  0  0  0  0  0  0  0
    1.8270   -1.7590   25.7710 C   0  0  0  0  0  0  0  0  0  0  0  0
    1.4540   -3.2550   25.7000 C   0  0  0  0  0  0  0  0  0  0  0  0
    6.4450   -5.2780   21.8020 N   0  0  0  0  0  0  0  0  0  0  0  0
    7.3320   -5.3160   22.9420 C   0  0  2  0  0  0  0  0  0  0  0  0
    6.6320   -4.5060   23.8740 C   0  0  1  0  0  0  0  0  0  0  0  0
    5.7020   -5.4560   24.5050 N   0  0  0  0  0  0  0  0  0  0  0  0
    4.8150   -5.8180   23.5470 C   0  0  0  0  0  0  0  0  0  0  0  0
    5.3060   -5.9190   22.0870 C   0  0  0  0  0  0  0  0  0  0  0  0
  3  4  2  0
  4  5  1  0
  1  8  2  0
  2  8  2  0
 11 10  1  6
  9 13  2  3
 11 13  1  0
 12 13  1  0
  6 14  1  0
  8 15  1  0
 14 15  2  0
  7 16  1  0
 15 16  1  0
 16 17  2  0
 17 18  1  0
 14 19  1  0
 18 19  2  0
  4 20  1  0
 11 21  1  0
 21 20  1  6
 11 22  1  0
 21 22  1  0
  8 23  1  0
 22 23  1  1
 23 24  1  0
 20 25  1  0
 24 25  1  0
M  END
