x0991-x1386
     RDKit          3D

 19 20  0  0  0  0  0  0  0  0999 V2000
    7.4330   -2.9520   18.6700 C   0  0  0  0  0  0  0  0  0  0  0  0
    5.4630   -4.0130   19.7230 O   0  0  0  0  0  0  0  0  0  0  0  0
    6.4560   -3.2270   19.7400 C   0  0  0  0  0  0  0  0  0  0  0  0
    9.4380   -2.2820   24.0970 C   0  0  2  0  0  0  0  0  0  0  0  0
    9.7140   -5.9510   25.0600 N   0  0  0  0  0  0  0  0  0  0  0  0
    9.4690   -3.7530   23.8970 C   0  0  0  0  0  0  0  0  0  0  0  0
    8.6320   -4.2110   26.2190 N   0  0  0  0  0  0  0  0  0  0  0  0
    9.2730   -4.6610   25.0620 C   0  0  0  0  0  0  0  0  0  0  0  0
    6.7710   -2.4840   20.8820 N   0  0  0  0  0  0  0  0  0  0  0  0
    7.6330   -1.4120   20.9040 C   0  0  0  0  0  0  0  0  0  0  0  0
    8.8540   -1.7070   21.7760 C   0  0  0  0  0  0  0  0  0  0  0  0
    8.3610   -2.1150   23.1000 N   0  0  0  0  0  0  0  0  0  0  0  0
    7.4720   -3.2620   22.9340 C   0  0  0  0  0  0  0  0  0  0  0  0
    6.3430   -2.9800   22.1970 C   0  0  0  0  0  0  0  0  0  0  0  0
   11.6090   -1.7600   22.8300 C   0  0  0  0  0  0  0  0  0  0  0  0
   10.6680   -1.4620   23.7500 C   0  0  0  0  0  0  0  0  0  0  0  0
   10.8750   -0.2660   24.4320 C   0  0  0  0  0  0  0  0  0  0  0  0
   12.3010    0.5330   23.8960 S   0  0  0  0  0  0  0  0  0  0  0  0
   12.6930   -0.6690   22.7650 C   0  0  0  0  0  0  0  0  0  0  0  0
  1  3  1  0
  2  3  2  0
  4  6  1  6
  5  8  2  3
  6  8  1  0
  7  8  1  0
  3  9  1  0
  9 10  1  0
 10 11  1  0
  4 12  1  0
 11 12  1  0
 12 13  1  0
  9 14  1  0
 13 14  1  0
  4 16  1  0
 15 16  1  0
 16 17  2  0
 17 18  1  0
 15 19  2  0
 18 19  1  0
M  END
