x0995-x2705-x0691-x3117
     RDKit          3D

 52 57  0  0  0  0  0  0  0  0999 V2000
    6.9170   -1.4610   21.9010 N   0  0  0  0  0  0  0  0  0  0  0  0
    6.6270   -4.6500   20.3600 C   0  0  2  0  0  0  0  0  0  0  0  0
    4.7390   -2.8820   21.1970 O   0  0  0  0  0  0  0  0  0  0  0  0
    6.7790   -3.9020   21.6680 C   0  0  1  0  0  0  0  0  0  0  0  0
    7.3750    1.9040   22.7740 N   0  0  0  0  0  0  0  0  0  0  0  0
    8.7810    0.7450   21.3550 O   0  0  0  0  0  0  0  0  0  0  0  0
    6.0160   -2.6640   21.5620 C   0  0  0  0  0  0  0  0  0  0  0  0
    6.6340   -0.0080   21.5730 C   0  0  1  0  0  0  0  0  0  0  0  0
    7.6740    0.8690   21.8800 C   0  0  0  0  0  0  0  0  0  0  0  0
   10.0710    1.9810   23.9540 C   0  0  0  0  0  0  0  0  0  0  0  0
    9.2370    1.1380   24.9550 C   0  0  0  0  0  0  0  0  0  0  0  0
    6.1140    4.5010   21.8380 C   0  0  0  0  0  0  0  0  0  0  0  0
   11.9600   -1.5800   23.2480 C   0  0  0  0  0  0  0  0  0  0  0  0
   12.4720   -0.2590   23.8590 C   0  0  0  0  0  0  0  0  0  0  0  0
   12.4540   -2.7540   24.1000 C   0  0  0  0  0  0  0  0  0  0  0  0
   12.6000   -1.7430   21.9170 C   0  0  0  0  0  0  0  0  0  0  0  0
   13.4150   -2.4270   25.2620 C   0  0  0  0  0  0  0  0  0  0  0  0
    5.4520   -4.2680   19.6810 O   0  0  0  0  0  0  0  0  0  0  0  0
    4.0640   -7.0060   26.2150 O   0  0  0  0  0  0  0  0  0  0  0  0
    5.8210   -5.2330   26.6640 O   0  0  0  0  0  0  0  0  0  0  0  0
    3.3130   -0.6610   25.9810 F   0  0  0  0  0  0  0  0  0  0  0  0
    4.7720   -5.6520   25.7730 S   0  0  0  0  0  0  0  0  0  0  0  0
    3.3960    2.2970   18.8640 N   0  0  0  0  0  0  0  0  0  0  0  0
    6.3340    0.3680   17.8300 N   0  0  0  0  0  0  0  0  0  0  0  0
    5.2370    1.1180   17.8180 C   0  0  0  0  0  0  0  0  0  0  0  0
    4.5310    1.5270   18.9040 C   0  0  0  0  0  0  0  0  0  0  0  0
    4.9700    1.1550   20.1420 C   0  0  0  0  0  0  0  0  0  0  0  0
    6.1260    0.3720   20.2180 C   0  0  0  0  0  0  0  0  0  0  0  0
    6.8020   -0.0250   19.0510 C   0  0  0  0  0  0  0  0  0  0  0  0
    9.5980   -1.7040   24.2210 N   0  0  0  0  0  0  0  0  0  0  0  0
    8.3050   -1.6820   23.8850 N   0  0  0  0  0  0  0  0  0  0  0  0
    8.2150   -1.5480   22.5560 C   0  0  0  0  0  0  0  0  0  0  0  0
    9.5390   -1.4930   22.0670 C   0  0  0  0  0  0  0  0  0  0  0  0
   10.4220   -1.5920   23.1540 C   0  0  0  0  0  0  0  0  0  0  0  0
    9.3460    3.2180   23.4690 C   0  0  0  0  0  0  0  0  0  0  0  0
   10.0420    4.4430   23.6170 C   0  0  0  0  0  0  0  0  0  0  0  0
    9.4330    5.6360   23.1840 C   0  0  0  0  0  0  0  0  0  0  0  0
    8.1660    5.6010   22.6170 C   0  0  0  0  0  0  0  0  0  0  0  0
    7.4750    4.3830   22.4700 C   0  0  0  0  0  0  0  0  0  0  0  0
    8.0370    3.1780   22.8900 C   0  0  0  0  0  0  0  0  0  0  0  0
    2.9590   -1.9520   25.8610 C   0  0  0  0  0  0  0  0  0  0  0  0
    3.9050   -3.0000   25.8650 C   0  0  0  0  0  0  0  0  0  0  0  0
    3.5400   -4.3680   25.7410 C   0  0  0  0  0  0  0  0  0  0  0  0
    2.2040   -4.7380   25.6030 C   0  0  0  0  0  0  0  0  0  0  0  0
    1.0760   -3.6570   25.5860 C   0  0  0  0  0  0  0  0  0  0  0  0
    1.5890   -2.2200   25.7330 C   0  0  0  0  0  0  0  0  0  0  0  0
    6.4210   -5.3900   21.6630 C   0  0  0  0  0  0  0  0  0  0  0  0
    5.2870   -4.5460   22.1730 C   0  0  0  0  0  0  0  0  0  0  0  0
    4.4540   -5.4340   23.0730 C   0  0  0  0  0  0  0  0  0  0  0  0
    5.3520   -5.8540   24.1880 N   0  0  0  0  0  0  0  0  0  0  0  0
    6.8120   -5.5660   23.9180 C   0  0  0  0  0  0  0  0  0  0  0  0
    7.1490   -6.1440   22.6700 C   0  0  0  0  0  0  0  0  0  0  0  0
  2  4  1  0
  1  7  1  0
  3  7  2  0
  4  7  1  6
  1  8  1  0
  5  9  1  0
  6  9  2  0
  8  9  1  6
 10 11  1  0
 13 14  1  0
 13 15  1  0
 13 16  1  0
 15 17  1  0
  2 18  1  6
 19 22  2  0
 20 22  2  0
 24 25  2  0
 23 26  1  0
 25 26  1  0
 26 27  2  0
  8 28  1  0
 27 28  1  0
 24 29  1  0
 28 29  2  0
 30 31  1  0
  1 32  1  0
 31 32  1  0
 32 33  2  0
 13 34  1  0
 30 34  2  0
 33 34  1  0
 10 35  1  0
 35 36  2  0
 36 37  1  0
 37 38  2  0
 12 39  1  0
 38 39  1  0
  5 40  1  0
 35 40  1  0
 39 40  2  0
 21 41  1  0
 41 42  2  0
 22 43  1  0
 42 43  1  0
 43 44  2  0
 44 45  1  0
 41 46  1  0
 45 46  2  0
  2 47  1  0
  4 47  1  0
 47 48  1  0
 48 49  1  0
 22 50  1  0
 49 50  1  0
 50 51  1  0
 47 52  1  0
 51 52  1  0
M  END
