x0995-x3115
     RDKit          3D

 30 31  0  0  0  0  0  0  0  0999 V2000
    6.8670   -1.7380   22.0300 N   0  0  0  0  0  0  0  0  0  0  0  0
    6.7630   -4.9440   20.4300 C   0  0  0  0  0  0  0  0  0  0  0  0
    4.7900   -3.0190   21.3220 O   0  0  0  0  0  0  0  0  0  0  0  0
    6.7470   -4.1850   21.7050 C   0  0  0  0  0  0  0  0  0  0  0  0
    7.4620    1.5160   23.2120 N   0  0  0  0  0  0  0  0  0  0  0  0
    8.7700    0.5610   21.5660 O   0  0  0  0  0  0  0  0  0  0  0  0
    6.0340   -2.9030   21.6670 C   0  0  0  0  0  0  0  0  0  0  0  0
    8.5720    5.0250   23.0420 O   0  0  0  0  0  0  0  0  0  0  0  0
    6.5240   -0.2790   21.8320 C   0  0  1  0  0  0  0  0  0  0  0  0
    7.7010    0.6060   22.1780 C   0  0  0  0  0  0  0  0  0  0  0  0
    8.4200    2.6370   23.3480 C   0  0  0  0  0  0  0  0  0  0  0  0
    7.9880    3.8380   22.4990 C   0  0  0  0  0  0  0  0  0  0  0  0
    8.2480    6.1790   22.2690 C   0  0  0  0  0  0  0  0  0  0  0  0
   12.4470   -1.9860   23.7430 C   0  0  0  0  0  0  0  0  0  0  0  0
   13.2590   -2.4090   22.7220 C   0  0  0  0  0  0  0  0  0  0  0  0
   12.7400   -2.8770   24.9470 C   0  0  0  0  0  0  0  0  0  0  0  0
   12.8840   -0.5750   24.0680 C   0  0  0  0  0  0  0  0  0  0  0  0
    3.4190    2.2120   18.9200 N   0  0  0  0  0  0  0  0  0  0  0  0
    6.2600    0.2070   17.8620 N   0  0  0  0  0  0  0  0  0  0  0  0
    5.2220    0.9800   17.8670 C   0  0  0  0  0  0  0  0  0  0  0  0
    4.4520    1.4410   19.0160 C   0  0  0  0  0  0  0  0  0  0  0  0
    4.9840    0.9370   20.2770 C   0  0  0  0  0  0  0  0  0  0  0  0
    6.1050    0.1040   20.3800 C   0  0  0  0  0  0  0  0  0  0  0  0
    6.7070   -0.2410   19.1680 C   0  0  0  0  0  0  0  0  0  0  0  0
    9.2540   -1.9700   21.6490 C   0  0  0  0  0  0  0  0  0  0  0  0
   10.5590   -2.0290   22.0190 C   0  0  0  0  0  0  0  0  0  0  0  0
   10.9880   -1.9450   23.3170 C   0  0  0  0  0  0  0  0  0  0  0  0
    9.9800   -1.8060   24.2590 C   0  0  0  0  0  0  0  0  0  0  0  0
    8.6160   -1.7490   23.8670 C   0  0  0  0  0  0  0  0  0  0  0  0
    8.2340   -1.8250   22.5280 C   0  0  0  0  0  0  0  0  0  0  0  0
  2  4  1  0
  1  7  1  0
  3  7  2  0
  4  7  1  0
  1  9  1  0
  5 10  1  0
  6 10  2  0
  9 10  1  6
  5 11  1  0
  8 12  1  0
 11 12  1  0
  8 13  1  0
 14 15  1  0
 14 16  1  0
 14 17  1  0
 19 20  2  0
 18 21  1  0
 20 21  1  0
 21 22  2  0
  9 23  1  0
 22 23  1  0
 19 24  1  0
 23 24  2  0
 25 26  2  0
 14 27  1  0
 26 27  1  0
 27 28  2  0
 28 29  1  0
  1 30  1  0
 25 30  1  0
 29 30  2  0
M  END
