x0995-x2193
     RDKit          3D

 27 29  0  0  0  0  0  0  0  0999 V2000
   10.9580    2.5030   23.1870 C   0  0  0  0  0  0  0  0  0  0  0  0
    9.3920    1.8020   21.1760 O   0  0  0  0  0  0  0  0  0  0  0  0
    8.2810    2.6470   23.3020 N   0  0  0  0  0  0  0  0  0  0  0  0
    9.4030    1.9100   22.5970 S   0  0  2  0  0  0  0  0  0  0  0  0
    3.7390    2.1480   19.5390 N   0  0  0  0  0  0  0  0  0  0  0  0
    6.9780    2.2490   22.8890 C   0  0  0  0  0  0  0  0  0  0  0  0
    6.4670    2.6550   21.5590 C   0  0  0  0  0  0  0  0  0  0  0  0
    4.9820    2.5060   21.5260 C   0  0  0  0  0  0  0  0  0  0  0  0
    4.2150    3.1180   20.4030 C   0  0  0  0  0  0  0  0  0  0  0  0
    9.3050    0.2550   23.2330 C   0  0  0  0  0  0  0  0  0  0  0  0
    9.0390    0.0400   24.7030 C   0  0  0  0  0  0  0  0  0  0  0  0
    8.9500   -1.2570   25.1370 C   0  0  0  0  0  0  0  0  0  0  0  0
    9.0910   -2.3380   24.3100 C   0  0  0  0  0  0  0  0  0  0  0  0
    9.3510   -2.1380   22.9380 C   0  0  0  0  0  0  0  0  0  0  0  0
    9.4550   -0.8800   22.4160 C   0  0  0  0  0  0  0  0  0  0  0  0
    8.7700   -5.9440   26.1470 N   0  0  0  0  0  0  0  0  0  0  0  0
    7.7190   -5.1300   26.3030 C   0  0  0  0  0  0  0  0  0  0  0  0
    7.9980   -3.7790   26.0160 C   0  0  0  0  0  0  0  0  0  0  0  0
    8.9780   -3.5990   24.8900 N   0  0  0  0  0  0  0  0  0  0  0  0
    9.4230   -4.6690   24.2340 C   0  0  0  0  0  0  0  0  0  0  0  0
    9.0890   -5.9270   24.8400 C   0  0  0  0  0  0  0  0  0  0  0  0
    4.6370    1.1360   19.2170 C   0  0  0  0  0  0  0  0  0  0  0  0
    5.3790    1.2070   18.0550 C   0  0  0  0  0  0  0  0  0  0  0  0
    6.2810    0.3270   17.6430 N   0  0  0  0  0  0  0  0  0  0  0  0
    6.4420   -0.8170   18.5670 C   0  0  0  0  0  0  0  0  0  0  0  0
    5.7640   -0.9640   19.7010 N   0  0  0  0  0  0  0  0  0  0  0  0
    4.8940    0.0090   19.9840 C   0  0  0  0  0  0  0  0  0  0  0  0
  4  1  1  6
  2  4  2  0
  3  4  2  0
  3  6  1  0
  6  7  1  0
  7  8  1  0
  5  9  1  0
  8  9  1  0
  4 10  1  0
 10 11  2  0
 11 12  1  0
 12 13  2  0
 13 14  1  0
 10 15  1  0
 14 15  2  0
 16 17  1  0
 17 18  1  0
 13 19  1  0
 18 19  1  0
 19 20  1  0
 16 21  1  0
 20 21  1  0
  5 22  1  0
 22 23  2  0
 23 24  1  0
 24 25  2  0
 25 26  1  0
 22 27  1  0
 26 27  2  0
M  END
