x0995-x0967
     RDKit          3D

 21 21  0  0  0  0  0  0  0  0999 V2000
    7.5740    4.9500   22.3360 C   0  0  0  0  0  0  0  0  0  0  0  0
    7.9240    2.4580   22.3210 N   0  0  0  0  0  0  0  0  0  0  0  0
    6.1020    3.5660   23.7180 O   0  0  0  0  0  0  0  0  0  0  0  0
    7.2100    3.5410   22.7940 C   0  0  0  0  0  0  0  0  0  0  0  0
    8.9780   -1.0240   22.8980 N   0  0  0  0  0  0  0  0  0  0  0  0
    5.5320    0.6870   17.0850 O   0  0  0  0  0  0  0  0  0  0  0  0
    7.7410    1.1190   22.8830 C   0  0  1  0  0  0  0  0  0  0  0  0
    9.9020    0.7930   21.8650 O   0  0  0  0  0  0  0  0  0  0  0  0
    6.5240    0.5150   22.4770 C   0  0  0  0  0  0  0  0  0  0  0  0
    8.9810    0.2900   22.4860 C   0  0  0  0  0  0  0  0  0  0  0  0
    9.7610   -1.8040   22.0600 C   0  0  0  0  0  0  0  0  0  0  0  0
   11.2310   -1.3600   22.0120 C   0  0  0  0  0  0  0  0  0  0  0  0
   12.1050   -1.7270   22.9400 C   0  0  0  0  0  0  0  0  0  0  0  0
   13.2950   -2.2770   24.3070 Br  0  0  0  0  0  0  0  0  0  0  0  0
    3.9130    2.1920   18.8040 N   0  0  0  0  0  0  0  0  0  0  0  0
    6.2780    0.5490   21.0970 C   0  0  0  0  0  0  0  0  0  0  0  0
    7.0760   -0.2020   20.2280 C   0  0  0  0  0  0  0  0  0  0  0  0
    6.8200   -0.1490   18.8800 C   0  0  0  0  0  0  0  0  0  0  0  0
    5.7750    0.6410   18.4010 C   0  0  0  0  0  0  0  0  0  0  0  0
    4.9760    1.3850   19.2550 C   0  0  0  0  0  0  0  0  0  0  0  0
    5.2370    1.3410   20.6140 C   0  0  0  0  0  0  0  0  0  0  0  0
  1  4  1  0
  2  4  1  0
  3  4  2  0
  2  7  1  0
  7  9  1  6
  5 10  1  0
  7 10  1  0
  8 10  2  0
  5 11  1  0
 11 12  1  0
 12 13  3  0
 13 14  1  0
  9 16  1  0
 16 17  2  0
 17 18  1  0
  6 19  1  0
 18 19  2  0
 15 20  1  0
 19 20  1  0
 16 21  1  0
 20 21  2  0
M  END
