x0991-x0967
     RDKit          3D

 26 26  0  0  0  0  0  0  0  0999 V2000
    7.5910    4.8540   22.3610 C   0  0  0  0  0  0  0  0  0  0  0  0
    7.9760    2.5160   23.0070 N   0  0  0  0  0  0  0  0  0  0  0  0
    6.0390    3.3850   23.4310 O   0  0  0  0  0  0  0  0  0  0  0  0
    7.1650    3.5180   22.9590 C   0  0  0  0  0  0  0  0  0  0  0  0
    9.0060   -0.8780   23.0680 N   0  0  0  0  0  0  0  0  0  0  0  0
    5.7490    0.8840   17.0110 O   0  0  0  0  0  0  0  0  0  0  0  0
    7.6390    1.1140   23.0990 C   0  0  1  0  0  0  0  0  0  0  0  0
    9.4940    0.7370   21.5820 O   0  0  0  0  0  0  0  0  0  0  0  0
    6.4340    0.5600   22.6500 C   0  0  0  0  0  0  0  0  0  0  0  0
    8.7990    0.3070   22.4920 C   0  0  0  0  0  0  0  0  0  0  0  0
    9.6840   -1.8070   22.1590 C   0  0  1  0  0  0  0  0  0  0  0  0
   11.0450   -1.5580   21.9330 C   0  0  0  0  0  0  0  0  0  0  0  0
   12.0000   -1.8680   22.8900 C   0  0  0  0  0  0  0  0  0  0  0  0
   13.2840   -2.2890   24.2230 Br  0  0  0  0  0  0  0  0  0  0  0  0
   10.1440   -5.3840   25.4110 N   0  0  0  0  0  0  0  0  0  0  0  0
    8.4430   -3.2370   23.8450 C   0  0  0  0  0  0  0  0  0  0  0  0
    8.2530   -4.6050   24.0430 C   0  0  0  0  0  0  0  0  0  0  0  0
    8.1830   -5.1350   26.4990 N   0  0  0  0  0  0  0  0  0  0  0  0
    8.9070   -5.0640   25.3540 C   0  0  0  0  0  0  0  0  0  0  0  0
    9.4650   -3.2040   22.7380 C   0  0  0  0  0  0  0  0  0  0  0  0
    6.2630    0.6310   21.1920 C   0  0  0  0  0  0  0  0  0  0  0  0
    6.9780   -0.2650   20.4060 C   0  0  0  0  0  0  0  0  0  0  0  0
    6.8770   -0.2780   18.8800 C   0  0  0  0  0  0  0  0  0  0  0  0
    5.9420    0.7600   18.3260 C   0  0  0  0  0  0  0  0  0  0  0  0
    5.2650    1.6050   19.1050 C   0  0  0  0  0  0  0  0  0  0  0  0
    5.4050    1.5680   20.6010 C   0  0  0  0  0  0  0  0  0  0  0  0
  1  4  1  0
  2  4  1  0
  3  4  2  0
  2  7  1  0
  7  9  1  6
  5 10  1  0
  7 10  1  0
  8 10  2  0
  5 11  1  0
 11 12  1  1
 12 13  3  0
 13 14  1  0
 16 17  1  0
 15 19  2  3
 17 19  1  0
 18 19  1  0
 11 20  1  0
 16 20  1  0
  9 21  1  0
 21 22  2  0
 22 23  1  0
  6 24  1  0
 23 24  2  0
 24 25  1  0
 21 26  1  0
 25 26  2  0
M  END
