x0991-x2572
     RDKit          3D

 25 26  0  0  0  0  0  0  0  0999 V2000
    4.4930    1.4500   21.4700 C   0  0  0  0  0  0  0  0  0  0  0  0
    8.5900    0.8530   21.9180 O   0  0  0  0  0  0  0  0  0  0  0  0
    6.8230   -0.5780   21.3670 N   0  0  0  0  0  0  0  0  0  0  0  0
   13.9160   -1.9530   20.5500 N   0  0  0  0  0  0  0  0  0  0  0  0
    8.0330   -0.2470   21.8860 C   0  0  0  0  0  0  0  0  0  0  0  0
    8.8620   -1.3610   22.4590 C   0  0  2  0  0  0  0  0  0  0  0  0
   13.3130   -1.3700   21.5300 C   0  0  0  0  0  0  0  0  0  0  0  0
    9.9330   -5.6370   25.5440 N   0  0  0  0  0  0  0  0  0  0  0  0
    8.8210   -3.5490   23.5120 C   0  0  0  0  0  0  0  0  0  0  0  0
    8.0580   -4.4790   24.2020 C   0  0  0  0  0  0  0  0  0  0  0  0
    7.8450   -5.0060   26.6300 N   0  0  0  0  0  0  0  0  0  0  0  0
    8.6050   -5.0510   25.5100 C   0  0  0  0  0  0  0  0  0  0  0  0
    8.3230   -2.0830   23.5170 C   0  0  0  0  0  0  0  0  0  0  0  0
    6.3310    0.5330   17.7170 N   0  0  0  0  0  0  0  0  0  0  0  0
    6.8140   -0.0970   18.8030 C   0  0  0  0  0  0  0  0  0  0  0  0
    6.2680    0.1170   20.2080 C   0  0  0  0  0  0  0  0  0  0  0  0
    5.1210    1.1060   20.3070 C   0  0  0  0  0  0  0  0  0  0  0  0
    4.6630    1.7470   18.9990 C   0  0  0  0  0  0  0  0  0  0  0  0
    5.3040    1.4100   17.8090 C   0  0  0  0  0  0  0  0  0  0  0  0
   10.3530    0.3330   23.7400 C   0  0  0  0  0  0  0  0  0  0  0  0
   11.7430    0.8920   23.9590 C   0  0  0  0  0  0  0  0  0  0  0  0
   12.7400    0.3120   23.2270 C   0  0  0  0  0  0  0  0  0  0  0  0
   12.3960   -0.7000   22.3780 C   0  0  0  0  0  0  0  0  0  0  0  0
   11.1620   -1.2020   22.1820 C   0  0  0  0  0  0  0  0  0  0  0  0
   10.1330   -0.7030   22.8410 C   0  0  0  0  0  0  0  0  0  0  0  0
  2  5  2  0
  3  5  1  0
  5  6  1  0
  4  7  3  0
  9 10  1  0
  8 12  2  3
 10 12  1  0
 11 12  1  0
  6 13  1  1
  9 13  1  0
 14 15  2  0
  3 16  1  0
 15 16  1  0
  1 17  1  0
 16 17  2  0
 17 18  1  0
 14 19  1  0
 18 19  2  0
 20 21  2  0
 21 22  1  0
  7 23  1  0
 22 23  2  0
 23 24  1  0
  6 25  1  0
 20 25  1  0
 24 25  2  0
M  END
