x0995-x0397
     RDKit          3D

 15 16  0  0  0  0  0  0  0  0999 V2000
    7.9350   -1.5060   20.8880 C   0  0  0  0  0  0  0  0  0  0  0  0
    7.0350   -2.1170   20.0590 N   0  0  0  0  0  0  0  0  0  0  0  0
    6.9290   -1.6790   18.7490 C   0  0  0  0  0  0  0  0  0  0  0  0
    3.6180    2.2000   19.4260 C   0  0  0  0  0  0  0  0  0  0  0  0
    6.2380   -3.1440   20.5190 C   0  0  0  0  0  0  0  0  0  0  0  0
    5.3620   -3.9150   19.6730 O   0  0  0  0  0  0  0  0  0  0  0  0
    6.3450   -3.4560   21.9830 N   0  0  0  0  0  0  0  0  0  0  0  0
    5.1340    0.0050   19.4370 C   0  0  0  0  0  0  0  0  0  0  0  0
    6.1610   -0.3740   18.6060 C   0  0  0  0  0  0  0  0  0  0  0  0
    6.3750    0.5510   17.6720 N   0  0  0  0  0  0  0  0  0  0  0  0
    5.4570    1.5550   17.9160 O   0  0  0  0  0  0  0  0  0  0  0  0
    4.7000    1.2150   18.9940 C   0  0  0  0  0  0  0  0  0  0  0  0
    6.5530   -5.5330   23.3750 C   0  0  0  0  0  0  0  0  0  0  0  0
    5.7370   -4.6500   22.4850 C   0  0  0  0  0  0  0  0  0  0  0  0
    6.1020   -5.7630   21.9840 C   0  0  0  0  0  0  0  0  0  0  0  0
  1  2  1  0
  2  3  1  0
  2  5  1  0
  5  6  2  0
  5  7  1  0
  3  9  1  0
  8  9  1  0
  9 10  2  0
 10 11  1  0
  4 12  1  0
  8 12  2  0
 11 12  1  0
  7 14  1  0
 13 14  1  0
 13 15  1  0
 14 15  1  0
M  END
