x0995-x0771-x2705-x2643
     RDKit          3D

 52 58  0  0  0  0  0  0  0  0999 V2000
    7.0890   -1.4370   21.7050 N   0  0  0  0  0  0  0  0  0  0  0  0
    6.7860   -4.4080   20.3230 C   0  0  2  0  0  0  0  0  0  0  0  0
    4.9810   -3.2570   21.2700 O   0  0  0  0  0  0  0  0  0  0  0  0
    6.7420   -3.4960   21.5120 C   0  0  2  0  0  0  0  0  0  0  0  0
    7.6660    2.0430   22.8260 N   0  0  0  0  0  0  0  0  0  0  0  0
    8.9250    1.3180   21.1580 O   0  0  0  0  0  0  0  0  0  0  0  0
    5.8580   -2.2930   21.4680 C   0  0  0  0  0  0  0  0  0  0  0  0
    6.8160    0.0350   21.4980 C   0  0  1  0  0  0  0  0  0  0  0  0
    7.8910    1.1440   21.8120 C   0  0  0  0  0  0  0  0  0  0  0  0
   10.1820    2.0880   23.9590 C   0  0  0  0  0  0  0  0  0  0  0  0
    9.3940    1.1780   24.9000 C   0  0  0  0  0  0  0  0  0  0  0  0
    6.2190    4.5400   21.8820 C   0  0  0  0  0  0  0  0  0  0  0  0
   12.0480   -1.6070   23.2930 C   0  0  0  0  0  0  0  0  0  0  0  0
   12.5070   -0.2000   23.7560 C   0  0  0  0  0  0  0  0  0  0  0  0
   12.5610   -2.6140   24.3620 C   0  0  0  0  0  0  0  0  0  0  0  0
   12.7480   -1.8870   21.9420 C   0  0  0  0  0  0  0  0  0  0  0  0
    5.5430   -4.6680   19.6730 O   0  0  0  0  0  0  0  0  0  0  0  0
    0.6620   -1.4650   26.1550 C   0  0  0  0  0  0  0  0  0  0  0  0
    4.4730   -6.9300   25.7180 O   0  0  0  0  0  0  0  0  0  0  0  0
    5.9550   -5.2530   26.8670 O   0  0  0  0  0  0  0  0  0  0  0  0
    2.0550   -6.1080   25.0230 C   0  0  0  0  0  0  0  0  0  0  0  0
    5.0670   -5.6150   25.7850 S   0  0  0  0  0  0  0  0  0  0  0  0
    3.3710    2.1710   18.9120 N   0  0  0  0  0  0  0  0  0  0  0  0
    6.3040    0.3780   17.8050 N   0  0  0  0  0  0  0  0  0  0  0  0
    5.1610    1.0920   17.8390 C   0  0  0  0  0  0  0  0  0  0  0  0
    4.5010    1.4720   18.9740 C   0  0  0  0  0  0  0  0  0  0  0  0
    5.0550    1.1050   20.1610 C   0  0  0  0  0  0  0  0  0  0  0  0
    6.2380    0.3770   20.1730 C   0  0  0  0  0  0  0  0  0  0  0  0
    6.8390    0.0180   18.9780 C   0  0  0  0  0  0  0  0  0  0  0  0
    9.7500   -1.8280   24.2420 N   0  0  0  0  0  0  0  0  0  0  0  0
    8.4600   -1.7920   23.8330 N   0  0  0  0  0  0  0  0  0  0  0  0
    8.3150   -1.5710   22.4870 C   0  0  0  0  0  0  0  0  0  0  0  0
    9.6820   -1.4690   22.0470 C   0  0  0  0  0  0  0  0  0  0  0  0
   10.5130   -1.6300   23.1560 C   0  0  0  0  0  0  0  0  0  0  0  0
    9.5200    3.3840   23.5260 C   0  0  0  0  0  0  0  0  0  0  0  0
   10.1380    4.6400   23.6750 C   0  0  0  0  0  0  0  0  0  0  0  0
    9.5000    5.8110   23.2590 C   0  0  0  0  0  0  0  0  0  0  0  0
    8.2330    5.7430   22.6830 C   0  0  0  0  0  0  0  0  0  0  0  0
    7.5830    4.5070   22.5180 C   0  0  0  0  0  0  0  0  0  0  0  0
    8.2370    3.3240   22.9470 C   0  0  0  0  0  0  0  0  0  0  0  0
    1.7400   -2.4970   26.0470 C   0  0  0  0  0  0  0  0  0  0  0  0
    1.4420   -3.7780   25.6010 C   0  0  0  0  0  0  0  0  0  0  0  0
    2.4360   -4.7370   25.5100 C   0  0  0  0  0  0  0  0  0  0  0  0
    3.7490   -4.4050   25.8730 C   0  0  0  0  0  0  0  0  0  0  0  0
    4.0600   -3.1160   26.3180 C   0  0  0  0  0  0  0  0  0  0  0  0
    3.0440   -2.1580   26.4030 C   0  0  0  0  0  0  0  0  0  0  0  0
    6.9950   -4.9330   21.6870 C   0  0  1  0  0  0  0  0  0  0  0  0
    5.5810   -5.1000   21.8890 C   0  0  0  0  0  0  0  0  0  0  0  0
    5.2750   -5.9240   23.0920 C   0  0  0  0  0  0  0  0  0  0  0  0
    5.9140   -5.4240   24.3110 N   0  0  0  0  0  0  0  0  0  0  0  0
    6.6170   -4.1580   24.0500 C   0  0  0  0  0  0  0  0  0  0  0  0
    7.4830   -4.2010   22.7850 C   0  0  2  0  0  0  0  0  0  0  0  0
  2  4  1  0
  1  7  1  0
  3  7  2  0
  4  7  1  1
  1  8  1  0
  5  9  1  0
  6  9  2  0
  8  9  1  6
 10 11  1  0
 13 14  1  0
 13 15  1  0
 13 16  1  0
  2 17  1  1
 19 22  2  0
 20 22  2  0
 24 25  2  0
 23 26  1  0
 25 26  1  0
 26 27  2  0
  8 28  1  0
 27 28  1  0
 24 29  1  0
 28 29  2  0
 30 31  1  0
  1 32  1  0
 31 32  1  0
 32 33  2  0
 13 34  1  0
 30 34  2  0
 33 34  1  0
 10 35  1  0
 35 36  2  0
 36 37  1  0
 37 38  2  0
 12 39  1  0
 38 39  1  0
  5 40  1  0
 35 40  1  0
 39 40  2  0
 18 41  1  0
 41 42  2  0
 21 43  1  0
 42 43  1  0
 22 44  1  0
 43 44  2  0
 44 45  1  0
 41 46  1  0
 45 46  2  0
  2 47  1  0
  4 47  1  0
 47 48  1  1
 48 49  1  0
 22 50  1  0
 49 50  1  0
 50 51  1  0
  4 52  1  0
 47 52  1  0
 52 51  1  1
M  END
