x0991-x1425
     RDKit          3D

 23 25  0  0  0  0  0  0  0  0999 V2000
    1.6920   -2.2850   28.4780 C   0  0  0  0  0  0  0  0  0  0  0  0
    2.9090   -2.2630   28.3460 O   0  0  0  0  0  0  0  0  0  0  0  0
    5.1860   -4.3920   19.8290 O   0  0  0  0  0  0  0  0  0  0  0  0
    6.3190   -4.1070   20.2660 C   0  0  0  0  0  0  0  0  0  0  0  0
    7.2010   -3.2450   19.4420 C   0  0  0  0  0  0  0  0  0  0  0  0
   10.3160   -4.6930   25.4240 N   0  0  0  0  0  0  0  0  0  0  0  0
    8.6590   -3.7840   23.0820 C   0  0  0  0  0  0  0  0  0  0  0  0
    8.5820   -4.9650   23.9020 C   0  0  1  0  0  0  0  0  0  0  0  0
    8.3420   -4.9460   26.4130 N   0  0  0  0  0  0  0  0  0  0  0  0
    9.1780   -4.8460   25.3210 C   0  0  0  0  0  0  0  0  0  0  0  0
    7.0780   -4.8770   23.9080 C   0  0  0  0  0  0  0  0  0  0  0  0
    3.3820   -2.6430   27.1220 C   0  0  0  0  0  0  0  0  0  0  0  0
    4.6000   -2.1440   26.7350 C   0  0  0  0  0  0  0  0  0  0  0  0
    5.1760   -2.4560   25.5100 C   0  0  0  0  0  0  0  0  0  0  0  0
    4.5200   -3.2860   24.6510 C   0  0  0  0  0  0  0  0  0  0  0  0
    3.2680   -3.8410   24.9770 C   0  0  0  0  0  0  0  0  0  0  0  0
    2.7370   -3.4960   26.2180 C   0  0  0  0  0  0  0  0  0  0  0  0
    6.7750   -4.6480   21.4730 N   0  0  0  0  0  0  0  0  0  0  0  0
    7.1910   -3.8470   22.6510 C   0  0  2  0  0  0  0  0  0  0  0  0
    6.1900   -2.8500   22.8300 C   0  0  0  0  0  0  0  0  0  0  0  0
    5.0490   -3.6670   23.3270 N   0  0  0  0  0  0  0  0  0  0  0  0
    4.9620   -5.0350   22.9750 C   0  0  0  0  0  0  0  0  0  0  0  0
    5.8930   -5.5030   21.9960 C   0  0  0  0  0  0  0  0  0  0  0  0
  1  2  1  0
  3  4  2  0
  4  5  1  0
  7  8  1  0
  6 10  2  3
  8 10  1  1
  9 10  1  0
  8 11  1  0
  2 12  1  0
 12 13  2  0
 13 14  1  0
 14 15  2  0
 15 16  1  0
 12 17  1  0
 16 17  2  0
  4 18  1  0
 19  7  1  6
 11 19  1  0
 19 18  1  0
 19 20  1  0
 15 21  1  0
 20 21  1  0
 21 22  1  0
 18 23  1  0
 22 23  1  0
M  END
