x0995-x1386
     RDKit          3D

 15 16  0  0  0  0  0  0  0  0999 V2000
    6.2220   -1.8940   18.5300 C   0  0  0  0  0  0  0  0  0  0  0  0
    5.3870   -3.8930   19.7150 O   0  0  0  0  0  0  0  0  0  0  0  0
    6.0740   -2.6200   19.8550 C   0  0  0  0  0  0  0  0  0  0  0  0
    9.8570   -2.3970   23.7650 C   0  0  0  0  0  0  0  0  0  0  0  0
    6.6290   -2.0830   21.0030 N   0  0  0  0  0  0  0  0  0  0  0  0
    7.6800   -1.1900   20.9600 C   0  0  0  0  0  0  0  0  0  0  0  0
    8.9260   -1.6170   21.6830 C   0  0  0  0  0  0  0  0  0  0  0  0
    8.6270   -2.0760   23.0380 N   0  0  0  0  0  0  0  0  0  0  0  0
    7.8280   -3.1940   22.9300 C   0  0  0  0  0  0  0  0  0  0  0  0
    6.4960   -2.8830   22.2260 C   0  0  0  0  0  0  0  0  0  0  0  0
   12.3220   -1.7740   22.9810 C   0  0  0  0  0  0  0  0  0  0  0  0
   10.9620   -1.4430   23.4380 C   0  0  0  0  0  0  0  0  0  0  0  0
   10.7820   -0.0810   23.5420 C   0  0  0  0  0  0  0  0  0  0  0  0
   12.1640    0.8410   23.1300 S   0  0  0  0  0  0  0  0  0  0  0  0
   13.0520   -0.5710   22.7830 C   0  0  0  0  0  0  0  0  0  0  0  0
  1  3  1  0
  2  3  2  0
  3  5  1  0
  5  6  1  0
  6  7  1  0
  4  8  1  0
  7  8  1  0
  8  9  1  0
  5 10  1  0
  9 10  1  0
  4 12  1  0
 11 12  1  0
 12 13  2  0
 13 14  1  0
 11 15  2  0
 14 15  1  0
M  END
