x0991-x1382
     RDKit          3D

 17 17  0  0  0  0  0  0  0  0999 V2000
   13.2940   -1.9170   21.1900 Cl  0  0  0  0  0  0  0  0  0  0  0  0
    7.4200   -1.5130   23.7510 C   0  0  0  0  0  0  0  0  0  0  0  0
    8.2920   -2.2340   22.7190 C   0  0  2  0  0  0  0  0  0  0  0  0
    7.6070   -2.0150   21.3640 N   0  0  0  0  0  0  0  0  0  0  0  0
    7.2940   -2.9790   20.3400 C   0  0  0  0  0  0  0  0  0  0  0  0
    6.4940   -2.9600   19.3000 O   0  0  0  0  0  0  0  0  0  0  0  0
    8.0250   -4.1930   20.5230 C   0  0  0  0  0  0  0  0  0  0  0  0
   10.0030   -4.6890   24.9640 N   0  0  0  0  0  0  0  0  0  0  0  0
    8.3150   -3.7810   23.1630 C   0  0  0  0  0  0  0  0  0  0  0  0
    7.8830   -4.1640   25.6620 N   0  0  0  0  0  0  0  0  0  0  0  0
    8.7560   -4.2140   24.6200 C   0  0  0  0  0  0  0  0  0  0  0  0
    9.6960   -1.5740   22.8570 C   0  0  0  0  0  0  0  0  0  0  0  0
   10.8010   -1.9500   22.0910 C   0  0  0  0  0  0  0  0  0  0  0  0
   12.0490   -1.3740   22.1890 C   0  0  0  0  0  0  0  0  0  0  0  0
   12.2730   -0.3480   23.0990 C   0  0  0  0  0  0  0  0  0  0  0  0
   11.2080    0.0080   23.8330 C   0  0  0  0  0  0  0  0  0  0  0  0
    9.9140   -0.5560   23.7610 C   0  0  0  0  0  0  0  0  0  0  0  0
  3  2  1  1
  3  4  1  0
  4  5  1  0
  5  6  2  0
  5  7  1  0
  3  9  1  0
  8 11  2  3
  9 11  1  0
 10 11  1  0
  3 12  1  0
 12 13  2  0
  1 14  1  0
 13 14  1  0
 14 15  2  0
 15 16  1  0
 12 17  1  0
 16 17  2  0
M  END
