x0991-x2776
     RDKit          3D

 40 42  0  0  0  0  0  0  0  0999 V2000
    6.9500   -1.5970   21.7410 N   0  0  0  0  0  0  0  0  0  0  0  0
    6.8280   -4.9750   20.5160 C   0  0  0  0  0  0  0  0  0  0  0  0
    4.8170   -2.9600   21.1160 O   0  0  0  0  0  0  0  0  0  0  0  0
    6.6930   -4.1050   21.7060 C   0  0  2  0  0  0  0  0  0  0  0  0
    7.6300    1.8660   22.7700 N   0  0  0  0  0  0  0  0  0  0  0  0
    8.9330    0.6230   21.3280 O   0  0  0  0  0  0  0  0  0  0  0  0
    6.0690   -2.8020   21.5020 C   0  0  0  0  0  0  0  0  0  0  0  0
   10.6830    6.5640   23.7840 O   0  0  0  0  0  0  0  0  0  0  0  0
    6.5860   -0.1370   21.5730 C   0  0  1  0  0  0  0  0  0  0  0  0
   12.6560   -2.8780   24.3870 O   0  0  0  0  0  0  0  0  0  0  0  0
    7.8460    0.7970   21.8670 C   0  0  0  0  0  0  0  0  0  0  0  0
   10.3280    1.6330   23.8750 C   0  0  0  0  0  0  0  0  0  0  0  0
   11.7710    6.5490   24.7110 C   0  0  0  0  0  0  0  0  0  0  0  0
   12.1360   -1.5410   24.3760 C   0  0  1  0  0  0  0  0  0  0  0  0
   13.0370   -0.7270   23.7110 C   0  0  0  0  0  0  0  0  0  0  0  0
   13.1860   -3.2790   25.6380 C   0  0  0  0  0  0  0  0  0  0  0  0
   10.1410   -5.4310   25.5000 N   0  0  0  0  0  0  0  0  0  0  0  0
    8.0640   -3.7670   23.8770 C   0  0  0  0  0  0  0  0  0  0  0  0
    7.9810   -5.1740   24.4970 C   0  0  0  0  0  0  0  0  0  0  0  0
    8.2210   -5.8130   26.7510 N   0  0  0  0  0  0  0  0  0  0  0  0
    8.8050   -5.4750   25.5820 C   0  0  0  0  0  0  0  0  0  0  0  0
    8.0900   -3.9770   22.3600 C   0  0  0  0  0  0  0  0  0  0  0  0
    6.3530    0.4470   17.8200 N   0  0  0  0  0  0  0  0  0  0  0  0
    5.2450    1.2040   17.7810 C   0  0  0  0  0  0  0  0  0  0  0  0
    4.5090    1.5540   18.8800 C   0  0  0  0  0  0  0  0  0  0  0  0
    4.9300    1.1120   20.1160 C   0  0  0  0  0  0  0  0  0  0  0  0
    6.0810    0.3310   20.2280 C   0  0  0  0  0  0  0  0  0  0  0  0
    6.7600    0.0170   19.0560 C   0  0  0  0  0  0  0  0  0  0  0  0
    9.7120    2.9670   23.5490 C   0  0  0  0  0  0  0  0  0  0  0  0
   10.5530    4.1010   23.8330 C   0  0  0  0  0  0  0  0  0  0  0  0
   10.0330    5.3730   23.5640 C   0  0  0  0  0  0  0  0  0  0  0  0
    8.7180    5.4710   23.0120 C   0  0  0  0  0  0  0  0  0  0  0  0
    7.9400    4.3270   22.7470 C   0  0  0  0  0  0  0  0  0  0  0  0
    8.4100    3.0590   23.0120 C   0  0  0  0  0  0  0  0  0  0  0  0
    9.4010   -2.0120   21.7610 C   0  0  0  0  0  0  0  0  0  0  0  0
   10.6710   -2.0010   22.3910 C   0  0  0  0  0  0  0  0  0  0  0  0
   10.7830   -1.5680   23.7320 C   0  0  0  0  0  0  0  0  0  0  0  0
    9.5930   -1.1790   24.3640 C   0  0  0  0  0  0  0  0  0  0  0  0
    8.3410   -1.1860   23.7540 C   0  0  0  0  0  0  0  0  0  0  0  0
    8.2280   -1.6060   22.4130 C   0  0  0  0  0  0  0  0  0  0  0  0
  4  2  1  6
  1  7  1  0
  3  7  2  0
  4  7  1  0
  1  9  1  0
  5 11  1  0
  6 11  2  0
  9 11  1  6
  8 13  1  0
 10 14  1  0
 14 15  1  6
 10 16  1  0
 18 19  1  0
 17 21  2  3
 19 21  1  0
 20 21  1  0
  4 22  1  0
 18 22  1  0
 23 24  2  0
 24 25  1  0
 25 26  2  0
  9 27  1  0
 26 27  1  0
 23 28  1  0
 27 28  2  0
 12 29  1  0
 29 30  2  0
  8 31  1  0
 30 31  1  0
 31 32  2  0
 32 33  1  0
  5 34  1  0
 29 34  1  0
 33 34  2  0
 35 36  2  0
 14 37  1  0
 36 37  1  0
 37 38  2  0
 38 39  1  0
  1 40  1  0
 35 40  1  0
 39 40  2  0
M  END
