x0995-x1418
     RDKit          3D

 15 16  0  0  0  0  0  0  0  0999 V2000
    6.4520   -2.0900   18.5490 C   0  0  0  0  0  0  0  0  0  0  0  0
    5.4420   -4.0430   19.7180 O   0  0  0  0  0  0  0  0  0  0  0  0
    6.1190   -2.7650   19.8710 C   0  0  0  0  0  0  0  0  0  0  0  0
    9.9250   -2.4990   23.5080 C   0  0  0  0  0  0  0  0  0  0  0  0
    6.4760   -2.1620   21.0600 N   0  0  0  0  0  0  0  0  0  0  0  0
    6.3610   -2.7820   22.2780 C   0  0  0  0  0  0  0  0  0  0  0  0
    7.6820   -3.1930   22.8450 C   0  0  0  0  0  0  0  0  0  0  0  0
    8.6300   -2.0740   22.9560 N   0  0  0  0  0  0  0  0  0  0  0  0
    8.8490   -1.6260   21.6690 C   0  0  0  0  0  0  0  0  0  0  0  0
    7.5520   -1.1630   20.9870 C   0  0  0  0  0  0  0  0  0  0  0  0
   12.1700   -1.3210   22.6440 C   0  0  0  0  0  0  0  0  0  0  0  0
   10.9360   -1.4100   23.4650 C   0  0  0  0  0  0  0  0  0  0  0  0
   10.7560   -0.0280   24.4390 S   0  0  0  0  0  0  0  0  0  0  0  0
   12.1930    0.6700   23.8250 C   0  0  0  0  0  0  0  0  0  0  0  0
   12.8480   -0.1040   22.8960 C   0  0  0  0  0  0  0  0  0  0  0  0
  1  3  1  0
  2  3  2  0
  3  5  1  0
  5  6  1  0
  6  7  1  0
  4  8  1  0
  7  8  1  0
  8  9  1  0
  5 10  1  0
  9 10  1  0
  4 12  1  0
 11 12  2  0
 12 13  1  0
 13 14  1  0
 11 15  1  0
 14 15  2  0
M  END
