x0995-x0771-x2705-x2572
     RDKit          3D

 54 60  0  0  0  0  0  0  0  0999 V2000
    6.9230   -1.4780   21.9470 N   0  0  0  0  0  0  0  0  0  0  0  0
    6.7570   -4.4420   20.2520 C   0  0  2  0  0  0  0  0  0  0  0  0
    4.8080   -3.0070   21.3110 O   0  0  0  0  0  0  0  0  0  0  0  0
    6.9930   -3.8170   21.5640 C   0  0  2  0  0  0  0  0  0  0  0  0
    7.4520    2.0120   22.8180 N   0  0  0  0  0  0  0  0  0  0  0  0
    8.6870    1.1520   21.0920 O   0  0  0  0  0  0  0  0  0  0  0  0
    6.1080   -2.7090   21.6010 C   0  0  0  0  0  0  0  0  0  0  0  0
    6.5890   -0.0580   21.5890 C   0  0  1  0  0  0  0  0  0  0  0  0
    7.6840    1.0780   21.8250 C   0  0  0  0  0  0  0  0  0  0  0  0
   10.2080    2.0860   23.9870 C   0  0  0  0  0  0  0  0  0  0  0  0
    9.3570    1.2230   24.9130 C   0  0  0  0  0  0  0  0  0  0  0  0
    6.1420    4.5430   21.8860 C   0  0  0  0  0  0  0  0  0  0  0  0
   12.0350   -1.5560   23.2980 C   0  0  0  0  0  0  0  0  0  0  0  0
   12.5080   -0.2110   23.9000 C   0  0  0  0  0  0  0  0  0  0  0  0
   12.4970   -2.6470   24.2830 C   0  0  0  0  0  0  0  0  0  0  0  0
   12.7670   -1.7600   21.9620 C   0  0  0  0  0  0  0  0  0  0  0  0
    5.5330   -4.1740   19.5750 O   0  0  0  0  0  0  0  0  0  0  0  0
    0.6830   -1.3000   26.0550 C   0  0  0  0  0  0  0  0  0  0  0  0
    4.3090   -7.0010   25.9350 O   0  0  0  0  0  0  0  0  0  0  0  0
    5.9440   -5.2230   26.6350 O   0  0  0  0  0  0  0  0  0  0  0  0
    1.8710   -6.1280   24.9150 C   0  0  0  0  0  0  0  0  0  0  0  0
    4.9020   -5.7010   25.7480 S   0  0  0  0  0  0  0  0  0  0  0  0
    4.1880    1.4300   21.3530 C   0  0  0  0  0  0  0  0  0  0  0  0
   13.3550   -1.8910   20.9700 N   0  0  0  0  0  0  0  0  0  0  0  0
    3.3300    2.1700   18.8760 N   0  0  0  0  0  0  0  0  0  0  0  0
    6.3090    0.3280   17.8660 N   0  0  0  0  0  0  0  0  0  0  0  0
    5.1940    1.0520   17.8560 C   0  0  0  0  0  0  0  0  0  0  0  0
    4.4540    1.4410   18.9240 C   0  0  0  0  0  0  0  0  0  0  0  0
    4.9420    1.0380   20.1120 C   0  0  0  0  0  0  0  0  0  0  0  0
    6.1170    0.2840   20.2250 C   0  0  0  0  0  0  0  0  0  0  0  0
    6.8150   -0.0890   19.0690 C   0  0  0  0  0  0  0  0  0  0  0  0
    9.6590   -1.5690   24.2560 N   0  0  0  0  0  0  0  0  0  0  0  0
    8.3310   -1.5580   23.9620 N   0  0  0  0  0  0  0  0  0  0  0  0
    8.2170   -1.5320   22.6210 C   0  0  0  0  0  0  0  0  0  0  0  0
    9.5550   -1.5360   22.1410 C   0  0  0  0  0  0  0  0  0  0  0  0
   10.4950   -1.5550   23.1770 C   0  0  0  0  0  0  0  0  0  0  0  0
    9.4660    3.3130   23.5110 C   0  0  0  0  0  0  0  0  0  0  0  0
   10.1220    4.5650   23.6320 C   0  0  0  0  0  0  0  0  0  0  0  0
    9.5080    5.7730   23.2050 C   0  0  0  0  0  0  0  0  0  0  0  0
    8.2350    5.7560   22.6480 C   0  0  0  0  0  0  0  0  0  0  0  0
    7.5190    4.4930   22.5030 C   0  0  0  0  0  0  0  0  0  0  0  0
    8.1730    3.2380   22.9610 C   0  0  0  0  0  0  0  0  0  0  0  0
    1.7090   -2.3910   25.9640 C   0  0  0  0  0  0  0  0  0  0  0  0
    1.3300   -3.7760   25.4750 C   0  0  0  0  0  0  0  0  0  0  0  0
    2.2910   -4.7720   25.4050 C   0  0  0  0  0  0  0  0  0  0  0  0
    3.6000   -4.4810   25.7900 C   0  0  0  0  0  0  0  0  0  0  0  0
    3.9620   -3.1960   26.2410 C   0  0  0  0  0  0  0  0  0  0  0  0
    3.0260   -2.1570   26.3290 C   0  0  0  0  0  0  0  0  0  0  0  0
    6.6510   -5.2430   21.5210 C   0  0  1  0  0  0  0  0  0  0  0  0
    5.4040   -5.7700   21.7810 C   0  0  0  0  0  0  0  0  0  0  0  0
    4.7280   -5.2060   23.0290 C   0  0  0  0  0  0  0  0  0  0  0  0
    5.5140   -5.7050   24.1640 N   0  0  0  0  0  0  0  0  0  0  0  0
    6.8590   -5.1550   24.0900 C   0  0  0  0  0  0  0  0  0  0  0  0
    7.4030   -4.9820   22.6780 C   0  0  2  0  0  0  0  0  0  0  0  0
  2  4  1  0
  1  7  1  0
  3  7  2  0
  4  7  1  1
  1  8  1  0
  5  9  1  0
  6  9  2  0
  8  9  1  6
 10 11  1  0
 13 14  1  0
 13 15  1  0
 13 16  1  0
  2 17  1  1
 19 22  2  0
 20 22  2  0
 16 24  3  0
 26 27  2  0
 25 28  1  0
 27 28  1  0
 23 29  1  0
 28 29  2  0
  8 30  1  0
 29 30  1  0
 26 31  1  0
 30 31  2  0
 32 33  1  0
  1 34  1  0
 33 34  2  0
 34 35  1  0
 13 36  1  0
 32 36  1  0
 35 36  2  0
 10 37  1  0
 37 38  2  0
 38 39  1  0
 39 40  2  0
 12 41  1  0
 40 41  1  0
  5 42  1  0
 37 42  1  0
 41 42  2  0
 18 43  1  0
 43 44  2  0
 21 45  1  0
 44 45  1  0
 22 46  1  0
 45 46  2  0
 46 47  1  0
 43 48  1  0
 47 48  2  0
  2 49  1  0
  4 49  1  0
 49 50  1  1
 50 51  1  0
 22 52  1  0
 51 52  1  0
 52 53  1  0
  4 54  1  0
 49 54  1  0
 54 53  1  1
M  END
