x0991-x0786
     RDKit          3D

 24 25  0  0  0  0  0  0  0  0999 V2000
    6.8760   -4.7000   21.9530 N   0  0  0  0  0  0  0  0  0  0  0  0
    8.0660   -3.6450   20.2730 C   0  0  0  0  0  0  0  0  0  0  0  0
    5.6750   -4.5780   19.9840 O   0  0  0  0  0  0  0  0  0  0  0  0
    6.7600   -4.3210   20.6170 C   0  0  0  0  0  0  0  0  0  0  0  0
    3.7250   -8.0000   24.8730 O   0  0  0  0  0  0  0  0  0  0  0  0
    3.2330   -7.0340   24.3070 C   0  0  0  0  0  0  0  0  0  0  0  0
    9.9080   -5.8590   24.8460 N   0  0  0  0  0  0  0  0  0  0  0  0
    8.9880   -2.9590   23.8640 C   0  0  0  0  0  0  0  0  0  0  0  0
    8.1820   -4.1880   24.0070 C   0  0  2  0  0  0  0  0  0  0  0  0
    8.4110   -4.9830   26.3810 N   0  0  0  0  0  0  0  0  0  0  0  0
    8.8590   -5.0380   25.0950 C   0  0  0  0  0  0  0  0  0  0  0  0
    8.1320   -4.9180   22.6550 C   0  0  0  0  0  0  0  0  0  0  0  0
    5.8420   -4.6810   22.8720 C   0  0  0  0  0  0  0  0  0  0  0  0
    5.0990   -5.8060   23.0900 C   0  0  0  0  0  0  0  0  0  0  0  0
    4.0840   -5.8430   24.0180 C   0  0  0  0  0  0  0  0  0  0  0  0
    3.8700   -4.6960   24.6970 C   0  0  0  0  0  0  0  0  0  0  0  0
    4.5550   -3.4850   24.5620 C   0  0  0  0  0  0  0  0  0  0  0  0
    5.5680   -3.5030   23.6130 C   0  0  0  0  0  0  0  0  0  0  0  0
    1.2600   -5.7290   23.3060 C   0  0  0  0  0  0  0  0  0  0  0  0
    0.3140   -5.0880   24.2330 C   0  0  0  0  0  0  0  0  0  0  0  0
   -1.1050   -6.1830   24.5530 S   0  0  0  0  0  0  0  0  0  0  0  0
   -0.1940   -7.6900   24.8280 C   0  0  0  0  0  0  0  0  0  0  0  0
    0.9680   -8.0780   24.1490 C   0  0  0  0  0  0  0  0  0  0  0  0
    1.8460   -6.9490   23.8620 N   0  0  0  0  0  0  0  0  0  0  0  0
  1  4  1  0
  2  4  1  0
  3  4  2  0
  5  6  2  0
  9  8  1  6
  7 11  2  3
  9 11  1  0
 10 11  1  0
  1 12  1  0
  9 12  1  0
  1 13  1  0
 13 14  2  0
  6 15  1  0
 14 15  1  0
 15 16  2  0
 16 17  1  0
 13 18  1  0
 17 18  2  0
 19 20  1  0
 20 21  1  0
 21 22  1  0
 22 23  1  0
  6 24  1  0
 19 24  1  0
 23 24  1  0
M  END
