x0995-x0691
     RDKit          3D

 19 20  0  0  0  0  0  0  0  0999 V2000
    4.5880   -7.1480   24.7570 O   0  0  0  0  0  0  0  0  0  0  0  0
    6.2360   -5.6430   25.9750 O   0  0  0  0  0  0  0  0  0  0  0  0
    4.8560   -4.0970   19.3010 O   0  0  0  0  0  0  0  0  0  0  0  0
    5.7340   -3.6270   19.9950 C   0  0  0  0  0  0  0  0  0  0  0  0
    6.1980   -2.1920   19.7160 C   0  0  0  0  0  0  0  0  0  0  0  0
    3.6470   -1.1330   26.3310 F   0  0  0  0  0  0  0  0  0  0  0  0
    5.2800   -5.8870   24.9150 S   0  0  0  0  0  0  0  0  0  0  0  0
    3.3380   -2.3310   25.8140 C   0  0  0  0  0  0  0  0  0  0  0  0
    4.3290   -3.3130   25.6460 C   0  0  0  0  0  0  0  0  0  0  0  0
    4.0230   -4.6610   25.0920 C   0  0  0  0  0  0  0  0  0  0  0  0
    2.7060   -4.9320   24.7260 C   0  0  0  0  0  0  0  0  0  0  0  0
    1.6550   -3.8320   24.9270 C   0  0  0  0  0  0  0  0  0  0  0  0
    2.0060   -2.6310   25.4460 C   0  0  0  0  0  0  0  0  0  0  0  0
    6.3000   -4.4150   20.9460 N   0  0  0  0  0  0  0  0  0  0  0  0
    6.0270   -5.8340   21.0840 C   0  0  0  0  0  0  0  0  0  0  0  0
    5.2810   -6.0300   22.2510 C   0  0  0  0  0  0  0  0  0  0  0  0
    6.0470   -5.5490   23.4190 N   0  0  0  0  0  0  0  0  0  0  0  0
    6.7420   -4.3100   23.3340 C   0  0  0  0  0  0  0  0  0  0  0  0
    6.9540   -3.8340   22.0320 C   0  0  0  0  0  0  0  0  0  0  0  0
  3  4  2  0
  4  5  1  0
  1  7  2  0
  2  7  2  0
  6  8  1  0
  8  9  2  0
  7 10  1  0
  9 10  1  0
 10 11  2  0
 11 12  1  0
  8 13  1  0
 12 13  2  0
  4 14  1  0
 14 15  1  0
 15 16  1  0
  7 17  1  0
 16 17  1  0
 17 18  1  0
 14 19  1  0
 18 19  1  0
M  END
