x0991-x0830
     RDKit          3D

 24 26  0  0  0  0  0  0  0  0999 V2000
    7.7310   -3.6410   19.6650 C   0  0  0  0  0  0  0  0  0  0  0  0
    5.4390   -3.1380   19.0690 O   0  0  0  0  0  0  0  0  0  0  0  0
    6.4710   -2.9600   19.7780 C   0  0  0  0  0  0  0  0  0  0  0  0
    9.6770   -2.7700   23.5090 C   0  0  1  0  0  0  0  0  0  0  0  0
    9.9790   -5.2760   25.3410 N   0  0  0  0  0  0  0  0  0  0  0  0
    8.9030   -3.0210   24.7800 C   0  0  0  0  0  0  0  0  0  0  0  0
    7.9930   -4.6840   26.3900 N   0  0  0  0  0  0  0  0  0  0  0  0
    8.9900   -4.3520   25.4780 C   0  0  0  0  0  0  0  0  0  0  0  0
    6.5320   -2.1110   20.8710 N   0  0  0  0  0  0  0  0  0  0  0  0
    6.2030   -2.5940   22.0970 C   0  0  0  0  0  0  0  0  0  0  0  0
    7.4150   -3.2560   22.7520 C   0  0  0  0  0  0  0  0  0  0  0  0
    8.4540   -2.2380   22.8880 N   0  0  0  0  0  0  0  0  0  0  0  0
    8.7320   -1.6590   21.5740 C   0  0  0  0  0  0  0  0  0  0  0  0
    7.6400   -1.1280   20.9010 C   0  0  0  0  0  0  0  0  0  0  0  0
   12.0500   -2.0060   22.6290 C   0  0  0  0  0  0  0  0  0  0  0  0
   13.0080   -1.0780   22.4180 C   0  0  0  0  0  0  0  0  0  0  0  0
   12.9220    0.2640   22.7830 C   0  0  0  0  0  0  0  0  0  0  0  0
   11.7480    0.6290   23.4050 C   0  0  0  0  0  0  0  0  0  0  0  0
   10.6380   -0.2870   23.7100 C   0  0  0  0  0  0  0  0  0  0  0  0
   10.8450   -1.6730   23.2700 C   0  0  0  0  0  0  0  0  0  0  0  0
   11.6740    1.8550   23.7020 C   0  0  0  0  0  0  0  0  0  0  0  0
   10.5320    2.3390   24.3310 C   0  0  0  0  0  0  0  0  0  0  0  0
    9.4490    1.5110   24.6730 C   0  0  0  0  0  0  0  0  0  0  0  0
    9.4960    0.1880   24.3620 C   0  0  0  0  0  0  0  0  0  0  0  0
  1  3  1  0
  2  3  2  0
  4  6  1  1
  5  8  2  3
  6  8  1  0
  7  8  1  0
  3  9  1  0
  9 10  1  0
 10 11  1  0
  4 12  1  0
 11 12  1  0
 12 13  1  0
  9 14  1  0
 13 14  1  0
 15 16  2  0
 16 17  1  0
 17 18  2  0
 18 19  1  0
  4 20  1  0
 15 20  1  0
 19 20  2  0
 18 21  1  0
 21 22  2  0
 22 23  1  0
 19 24  1  0
 23 24  2  0
M  END
