x0995-x3117
     RDKit          3D

 32 34  0  0  0  0  0  0  0  0999 V2000
    6.9150   -1.6040   21.9690 N   0  0  0  0  0  0  0  0  0  0  0  0
    6.7900   -4.8850   20.4670 C   0  0  0  0  0  0  0  0  0  0  0  0
    4.7990   -3.0090   21.3060 O   0  0  0  0  0  0  0  0  0  0  0  0
    6.8320   -4.0580   21.7040 C   0  0  0  0  0  0  0  0  0  0  0  0
    7.4730    1.7450   23.0100 N   0  0  0  0  0  0  0  0  0  0  0  0
    8.7770    0.7220   21.3720 O   0  0  0  0  0  0  0  0  0  0  0  0
    6.0720   -2.8050   21.6390 C   0  0  0  0  0  0  0  0  0  0  0  0
    6.5330   -0.1590   21.7320 C   0  0  1  0  0  0  0  0  0  0  0  0
    7.7200    0.7830   21.9990 C   0  0  0  0  0  0  0  0  0  0  0  0
   12.1510   -1.9140   24.2670 C   0  0  0  0  0  0  0  0  0  0  0  0
   12.4310   -0.6540   25.0580 C   0  0  0  0  0  0  0  0  0  0  0  0
   13.3260   -2.1260   23.2980 C   0  0  0  0  0  0  0  0  0  0  0  0
   12.1060   -3.1280   25.1960 C   0  0  0  0  0  0  0  0  0  0  0  0
    3.4340    2.2340   18.9080 N   0  0  0  0  0  0  0  0  0  0  0  0
    6.3730    0.2290   17.9140 N   0  0  0  0  0  0  0  0  0  0  0  0
    5.1900    1.0740   17.9110 C   0  0  0  0  0  0  0  0  0  0  0  0
    4.5180    1.4550   19.0170 C   0  0  0  0  0  0  0  0  0  0  0  0
    4.9240    1.0590   20.2990 C   0  0  0  0  0  0  0  0  0  0  0  0
    6.0520    0.2580   20.3860 C   0  0  0  0  0  0  0  0  0  0  0  0
    6.7320   -0.1270   19.1490 C   0  0  0  0  0  0  0  0  0  0  0  0
    9.7780    4.8480   24.0390 O   0  0  0  0  0  0  0  0  0  0  0  0
   10.4530    3.7550   23.5360 C   0  0  0  0  0  0  0  0  0  0  0  0
    9.6200    2.6350   23.5450 C   0  0  0  0  0  0  0  0  0  0  0  0
    8.2560    2.9120   23.4160 C   0  0  0  0  0  0  0  0  0  0  0  0
    8.1020    4.0740   22.6200 C   0  0  0  0  0  0  0  0  0  0  0  0
    8.6800    5.2070   23.1890 C   0  0  0  0  0  0  0  0  0  0  0  0
    9.3270   -1.9700   21.7710 C   0  0  0  0  0  0  0  0  0  0  0  0
   10.6280   -2.0550   22.2550 C   0  0  0  0  0  0  0  0  0  0  0  0
   10.7940   -1.8470   23.6200 C   0  0  0  0  0  0  0  0  0  0  0  0
    9.7150   -1.5720   24.4520 C   0  0  0  0  0  0  0  0  0  0  0  0
    8.4150   -1.4920   23.9370 C   0  0  0  0  0  0  0  0  0  0  0  0
    8.2140   -1.6930   22.5640 C   0  0  0  0  0  0  0  0  0  0  0  0
  2  4  1  0
  1  7  1  0
  3  7  2  0
  4  7  1  0
  1  8  1  0
  5  9  1  0
  6  9  2  0
  8  9  1  6
 10 11  1  0
 10 12  1  0
 10 13  1  0
 15 16  2  0
 14 17  1  0
 16 17  1  0
 17 18  2  0
  8 19  1  0
 18 19  1  0
 15 20  1  0
 19 20  2  0
 21 22  1  0
 22 23  1  0
  5 24  1  0
 23 24  1  0
 24 25  1  0
 21 26  1  0
 25 26  1  0
 27 28  2  0
 10 29  1  0
 28 29  1  0
 29 30  2  0
 30 31  1  0
  1 32  1  0
 27 32  1  0
 31 32  2  0
M  END
