x0995-x2908-x2705-x1311
     RDKit          3D

 50 54  0  0  0  0  0  0  0  0999 V2000
    7.0540   -1.3870   21.8390 N   0  0  0  0  0  0  0  0  0  0  0  0
    6.5750   -4.1230   20.4330 C   0  0  2  0  0  0  0  0  0  0  0  0
    4.8740   -3.1760   21.4600 O   0  0  0  0  0  0  0  0  0  0  0  0
    6.3640   -2.7160   20.6150 C   0  0  0  0  0  0  0  0  0  0  0  0
    7.5580    2.0550   22.8310 N   0  0  0  0  0  0  0  0  0  0  0  0
    8.9030    1.2170   21.1620 O   0  0  0  0  0  0  0  0  0  0  0  0
    5.8140   -2.2770   21.8650 C   0  0  0  0  0  0  0  0  0  0  0  0
    6.7790    0.0480   21.5360 C   0  0  1  0  0  0  0  0  0  0  0  0
    7.8650    1.1410   21.8300 C   0  0  0  0  0  0  0  0  0  0  0  0
   10.1990    2.1210   23.9780 C   0  0  0  0  0  0  0  0  0  0  0  0
    9.3760    1.2470   24.9270 C   0  0  0  0  0  0  0  0  0  0  0  0
    6.2230    4.4610   21.8930 C   0  0  0  0  0  0  0  0  0  0  0  0
   12.0450   -1.3950   23.4660 C   0  0  0  0  0  0  0  0  0  0  0  0
   12.5030   -0.0540   24.0530 C   0  0  0  0  0  0  0  0  0  0  0  0
   12.5780   -2.5430   24.3850 C   0  0  0  0  0  0  0  0  0  0  0  0
   12.8010   -1.5060   22.1100 C   0  0  0  0  0  0  0  0  0  0  0  0
    5.4970   -4.6550   19.6730 O   0  0  0  0  0  0  0  0  0  0  0  0
    6.5180   -4.8000   21.8440 N   0  0  0  0  0  0  0  0  0  0  0  0
    4.3690   -6.5750   25.5750 O   0  0  0  0  0  0  0  0  0  0  0  0
    2.5560   -5.2770   24.4470 O   0  0  0  0  0  0  0  0  0  0  0  0
    4.2730    1.6700   21.3930 C   0  0  0  0  0  0  0  0  0  0  0  0
    3.3500    2.3100   18.8270 N   0  0  0  0  0  0  0  0  0  0  0  0
    6.3010    0.3410   17.8510 N   0  0  0  0  0  0  0  0  0  0  0  0
    5.1880    1.0900   17.8310 C   0  0  0  0  0  0  0  0  0  0  0  0
    4.4980    1.5370   18.9420 C   0  0  0  0  0  0  0  0  0  0  0  0
    4.9980    1.1920   20.1730 C   0  0  0  0  0  0  0  0  0  0  0  0
    6.1490    0.4290   20.2450 C   0  0  0  0  0  0  0  0  0  0  0  0
    6.7490    0.0320   19.0720 C   0  0  0  0  0  0  0  0  0  0  0  0
    9.7190   -1.4860   24.4120 N   0  0  0  0  0  0  0  0  0  0  0  0
    8.4250   -1.4860   23.9660 N   0  0  0  0  0  0  0  0  0  0  0  0
    8.2920   -1.4400   22.5970 C   0  0  0  0  0  0  0  0  0  0  0  0
    9.6570   -1.4150   22.2010 C   0  0  0  0  0  0  0  0  0  0  0  0
   10.5030   -1.4350   23.3170 C   0  0  0  0  0  0  0  0  0  0  0  0
    9.5150    3.3840   23.5130 C   0  0  0  0  0  0  0  0  0  0  0  0
   10.2080    4.6320   23.6530 C   0  0  0  0  0  0  0  0  0  0  0  0
    9.5230    5.7660   23.1960 C   0  0  0  0  0  0  0  0  0  0  0  0
    8.2530    5.6980   22.6370 C   0  0  0  0  0  0  0  0  0  0  0  0
    7.5980    4.4650   22.5120 C   0  0  0  0  0  0  0  0  0  0  0  0
    8.2280    3.3090   22.9530 C   0  0  0  0  0  0  0  0  0  0  0  0
    8.2950   -5.9910   22.8990 C   0  0  0  0  0  0  0  0  0  0  0  0
    9.3130   -6.1100   23.8480 C   0  0  0  0  0  0  0  0  0  0  0  0
    9.5820   -5.0600   24.7460 C   0  0  0  0  0  0  0  0  0  0  0  0
    8.8050   -3.9140   24.6540 C   0  0  0  0  0  0  0  0  0  0  0  0
    7.7900   -3.8170   23.6910 C   0  0  0  0  0  0  0  0  0  0  0  0
    7.5330   -4.8630   22.8010 C   0  0  0  0  0  0  0  0  0  0  0  0
    4.7140   -6.3600   22.1780 C   0  0  0  0  0  0  0  0  0  0  0  0
    5.1810   -5.0860   22.4680 C   0  0  1  0  0  0  0  0  0  0  0  0
    5.0810   -4.7460   23.8260 C   0  0  0  0  0  0  0  0  0  0  0  0
    3.8530   -5.9050   24.3950 S   0  0  0  0  0  0  0  0  0  0  0  0
    3.9290   -6.9310   23.1290 C   0  0  0  0  0  0  0  0  0  0  0  0
  2  4  1  0
  1  7  1  0
  3  7  2  0
  4  7  1  0
  1  8  1  0
  5  9  1  0
  6  9  2  0
  8  9  1  6
 10 11  1  0
 13 14  1  0
 13 15  1  0
 13 16  1  0
  2 17  1  6
  2 18  1  0
 23 24  2  0
 22 25  1  0
 24 25  1  0
 21 26  1  0
 25 26  2  0
  8 27  1  0
 26 27  1  0
 23 28  1  0
 27 28  2  0
 29 30  1  0
  1 31  1  0
 30 31  1  0
 31 32  2  0
 13 33  1  0
 29 33  2  0
 32 33  1  0
 10 34  1  0
 34 35  2  0
 35 36  1  0
 36 37  2  0
 12 38  1  0
 37 38  1  0
  5 39  1  0
 34 39  1  0
 38 39  2  0
 40 41  2  0
 41 42  1  0
 42 43  2  0
 43 44  1  0
 18 45  1  0
 40 45  1  0
 44 45  2  0
 47 18  1  1
 46 47  1  0
 47 48  1  0
 49 19  1  0
 20 49  1  0
 48 49  1  0
 46 50  2  0
 49 50  1  0
M  END
