x1002-x1163
     RDKit          3D

 15 16  0  0  0  0  0  0  0  0999 V2000
   22.0550   21.6800    4.1000 O   0  0  0  0  0  0  0  0  0  0  0  0
   21.4170   20.7220    3.6620 C   0  0  0  0  0  0  0  0  0  0  0  0
   22.1150   16.2840    5.1600 C   0  0  0  0  0  0  0  0  0  0  0  0
   21.0790   19.6560    4.6270 C   0  0  1  0  0  0  0  0  0  0  0  0
   19.9410   19.9240    5.4590 O   0  0  0  0  0  0  0  0  0  0  0  0
   19.8480   18.9300    6.4990 C   0  0  0  0  0  0  0  0  0  0  0  0
   20.9760   18.0710    6.5440 C   0  0  0  0  0  0  0  0  0  0  0  0
   21.1880   17.3000    5.2920 N   0  0  0  0  0  0  0  0  0  0  0  0
   21.0440   18.2180    4.1610 C   0  0  0  0  0  0  0  0  0  0  0  0
   22.5880   13.9130    5.8000 C   0  0  0  0  0  0  0  0  0  0  0  0
   22.3200   12.7250    6.4770 C   0  0  0  0  0  0  0  0  0  0  0  0
   21.2090   12.5790    7.3070 C   0  0  0  0  0  0  0  0  0  0  0  0
   20.2810   13.5790    7.5350 C   0  0  0  0  0  0  0  0  0  0  0  0
   20.5440   14.9080    6.8110 C   0  0  0  0  0  0  0  0  0  0  0  0
   21.7690   15.0200    5.9170 C   0  0  0  0  0  0  0  0  0  0  0  0
  1  2  1  0
  4  2  1  6
  4  5  1  0
  5  6  1  0
  6  7  1  0
  3  8  1  0
  7  8  1  0
  4  9  1  0
  8  9  1  0
 10 11  2  0
 11 12  1  0
 12 13  2  0
 13 14  1  0
  3 15  1  0
 10 15  1  0
 14 15  2  0
M  END
