x1002-x0398
     RDKit          3D

 15 16  0  0  0  0  0  0  0  0999 V2000
   26.4360  -10.0620    4.1840 C   0  0  0  0  0  0  0  0  0  0  0  0
   26.6480   -9.9830    5.6680 C   0  0  0  0  0  0  0  0  0  0  0  0
   24.7810  -10.6500    3.7420 S   0  0  0  0  0  0  0  0  0  0  0  0
   27.9830  -10.8280    7.6010 C   0  0  0  0  0  0  0  0  0  0  0  0
   27.6710  -11.9950    8.5440 C   0  0  0  0  0  0  0  0  0  0  0  0
   27.7710  -13.0890    7.9730 O   0  0  0  0  0  0  0  0  0  0  0  0
   26.9100  -13.2690    7.0940 C   0  0  0  0  0  0  0  0  0  0  0  0
   27.0860  -12.3650    5.8690 C   0  0  0  0  0  0  0  0  0  0  0  0
   27.4300  -10.9750    6.2320 N   0  0  0  0  0  0  0  0  0  0  0  0
   24.1600   -8.0050    4.2520 C   0  0  0  0  0  0  0  0  0  0  0  0
   23.4810   -6.9080    4.7510 C   0  0  0  0  0  0  0  0  0  0  0  0
   22.3600   -7.1930    5.5260 C   0  0  0  0  0  0  0  0  0  0  0  0
   22.0290   -8.4480    5.7410 C   0  0  0  0  0  0  0  0  0  0  0  0
   22.6240   -9.8130    5.3450 C   0  0  0  0  0  0  0  0  0  0  0  0
   23.7930   -9.3210    4.5000 C   0  0  0  0  0  0  0  0  0  0  0  0
  1  2  1  0
  1  3  1  0
  4  5  1  0
  5  6  1  0
  6  7  1  0
  7  8  1  0
  2  9  1  0
  4  9  1  0
  8  9  1  0
 10 11  2  0
 11 12  1  0
 12 13  2  0
 13 14  1  0
  3 15  1  0
 10 15  1  0
 14 15  2  0
M  END
