x1002-x0830
     RDKit          3D

 20 22  0  0  0  0  0  0  0  0999 V2000
    7.0720   -2.0260   18.5970 C   0  0  0  0  0  0  0  0  0  0  0  0
    5.5150   -3.5680   19.5480 O   0  0  0  0  0  0  0  0  0  0  0  0
    6.3770   -2.6920   19.7500 C   0  0  0  0  0  0  0  0  0  0  0  0
    9.8740   -2.4700   23.7540 C   0  0  0  0  0  0  0  0  0  0  0  0
    6.7820   -2.3010   21.0160 N   0  0  0  0  0  0  0  0  0  0  0  0
    6.7900   -3.3040   21.9990 C   0  0  0  0  0  0  0  0  0  0  0  0
    7.5860   -3.0060   23.1270 C   0  0  0  0  0  0  0  0  0  0  0  0
    8.6650   -2.1570   22.9750 N   0  0  0  0  0  0  0  0  0  0  0  0
    8.9810   -1.6750   21.7100 C   0  0  0  0  0  0  0  0  0  0  0  0
    7.8420   -1.2760   21.0320 C   0  0  0  0  0  0  0  0  0  0  0  0
   12.1260   -1.8510   22.8710 C   0  0  0  0  0  0  0  0  0  0  0  0
   13.1430   -0.9500   22.5580 C   0  0  0  0  0  0  0  0  0  0  0  0
   13.0890    0.4300   22.7870 C   0  0  0  0  0  0  0  0  0  0  0  0
   11.8100    0.9410   23.4230 C   0  0  0  0  0  0  0  0  0  0  0  0
   10.7050   -0.0160   23.7930 C   0  0  0  0  0  0  0  0  0  0  0  0
   10.9300   -1.4550   23.4660 C   0  0  0  0  0  0  0  0  0  0  0  0
   11.6290    2.2790   23.6660 C   0  0  0  0  0  0  0  0  0  0  0  0
   10.3410    2.7480   24.3140 C   0  0  0  0  0  0  0  0  0  0  0  0
    9.3030    1.7510   24.6840 C   0  0  0  0  0  0  0  0  0  0  0  0
    9.5180    0.4620   24.4140 C   0  0  0  0  0  0  0  0  0  0  0  0
  1  3  1  0
  2  3  2  0
  3  5  1  0
  5  6  1  0
  6  7  1  0
  4  8  1  0
  7  8  1  0
  8  9  1  0
  5 10  1  0
  9 10  1  0
 11 12  2  0
 12 13  1  0
 13 14  2  0
 14 15  1  0
  4 16  1  0
 11 16  1  0
 15 16  2  0
 14 17  1  0
 17 18  2  0
 18 19  1  0
 15 20  1  0
 19 20  2  0
M  END
