x1002-x0434
     RDKit          3D

 16 17  0  0  0  0  0  0  0  0999 V2000
    8.6490    0.8300   21.2710 O   0  0  0  0  0  0  0  0  0  0  0  0
    8.2550   -0.3020   21.5670 C   0  0  0  0  0  0  0  0  0  0  0  0
    9.0190   -1.2010   22.3920 N   0  0  0  0  0  0  0  0  0  0  0  0
    7.0040   -0.8180   21.1070 N   0  0  0  0  0  0  0  0  0  0  0  0
   10.4640    0.5390   23.5220 C   0  0  0  0  0  0  0  0  0  0  0  0
   11.8320    1.0230   23.7590 C   0  0  0  0  0  0  0  0  0  0  0  0
   12.9840    0.2760   23.1810 C   0  0  0  0  0  0  0  0  0  0  0  0
   12.7680   -0.8790   22.4290 C   0  0  0  0  0  0  0  0  0  0  0  0
   11.4690   -1.3280   22.2050 C   0  0  0  0  0  0  0  0  0  0  0  0
   10.3290   -0.6900   22.6960 C   0  0  0  0  0  0  0  0  0  0  0  0
    5.1200    0.5960   20.2670 C   0  0  0  0  0  0  0  0  0  0  0  0
    4.5550    1.2980   19.1950 C   0  0  0  0  0  0  0  0  0  0  0  0
    5.1800    1.3230   17.9470 C   0  0  0  0  0  0  0  0  0  0  0  0
    6.3310    0.7060   17.6340 N   0  0  0  0  0  0  0  0  0  0  0  0
    6.8810    0.0340   18.6320 C   0  0  0  0  0  0  0  0  0  0  0  0
    6.3320   -0.0750   20.0320 C   0  0  0  0  0  0  0  0  0  0  0  0
  1  2  2  0
  2  3  1  0
  2  4  1  0
  5  6  2  0
  6  7  1  0
  7  8  2  0
  8  9  1  0
  3 10  1  0
  5 10  1  0
  9 10  2  0
 11 12  2  0
 12 13  1  0
 13 14  2  0
 14 15  1  0
  4 16  1  0
 11 16  1  0
 15 16  2  0
M  END
