x1002-x0107
     RDKit          3D

 11 11  0  0  0  0  0  0  0  0999 V2000
    9.8890   -0.5190   22.4720 C   0  0  0  0  0  0  0  0  0  0  0  0
    8.8830    0.1700   21.5850 C   0  0  0  0  0  0  0  0  0  0  0  0
    9.0570    1.3540   21.2520 O   0  0  0  0  0  0  0  0  0  0  0  0
    7.7710   -0.5800   21.1880 N   0  0  0  0  0  0  0  0  0  0  0  0
    5.4920    0.8590   22.1340 C   0  0  0  0  0  0  0  0  0  0  0  0
    6.9470   -0.0820   20.1990 C   0  0  0  0  0  0  0  0  0  0  0  0
    5.8400    0.6230   20.6530 C   0  0  0  0  0  0  0  0  0  0  0  0
    4.9450    1.1820   19.5650 C   0  0  0  0  0  0  0  0  0  0  0  0
    5.2010    1.0070   18.2300 C   0  0  0  0  0  0  0  0  0  0  0  0
    6.2590    0.3230   17.7850 N   0  0  0  0  0  0  0  0  0  0  0  0
    7.1310   -0.2260   18.8130 C   0  0  0  0  0  0  0  0  0  0  0  0
  1  2  1  0
  2  3  2  0
  2  4  1  0
  4  6  1  0
  5  7  1  0
  6  7  2  0
  7  8  1  0
  8  9  2  0
  9 10  1  0
  6 11  1  0
 10 11  2  0
M  END
