x1002-x0978
     RDKit          3D

 14 13  0  0  0  0  0  0  0  0999 V2000
    1.9910   -8.3350   24.6340 C   0  0  0  0  0  0  0  0  0  0  0  0
    1.7750   -5.6960   23.3330 N   0  0  0  0  0  0  0  0  0  0  0  0
    4.2770   -7.8680   24.4940 O   0  0  0  0  0  0  0  0  0  0  0  0
    3.1530   -7.3890   24.5230 C   0  0  1  0  0  0  0  0  0  0  0  0
    5.4440   -6.3990   22.7520 N   0  0  0  0  0  0  0  0  0  0  0  0
    0.6240   -7.1070   21.9230 O   0  0  0  0  0  0  0  0  0  0  0  0
    3.0000   -6.5120   23.2900 C   0  0  2  0  0  0  0  0  0  0  0  0
    4.1910   -4.3900   23.1300 O   0  0  0  0  0  0  0  0  0  0  0  0
    0.6530   -6.1130   22.6370 C   0  0  0  0  0  0  0  0  0  0  0  0
   -0.4590   -5.2970   22.8190 C   0  0  0  0  0  0  0  0  0  0  0  0
    4.2260   -5.6190   23.0590 C   0  0  0  0  0  0  0  0  0  0  0  0
    6.7220   -5.7740   22.4840 C   0  0  0  0  0  0  0  0  0  0  0  0
    6.8260   -5.1520   21.2470 C   0  0  0  0  0  0  0  0  0  0  0  0
    5.7290   -5.1850   20.3640 C   0  0  0  0  0  0  0  0  0  0  0  0
  4  1  1  6
  3  4  1  0
  7  2  1  1
  4  7  1  0
  2  9  1  0
  6  9  2  0
  9 10  1  0
  5 11  1  0
  7 11  1  0
  8 11  2  0
  5 12  1  0
 12 13  2  3
 13 14  1  0
M  END
