x1002-x1311
     RDKit          3D

 17 18  0  0  0  0  0  0  0  0999 V2000
    5.3560   -4.5700   19.9390 O   0  0  0  0  0  0  0  0  0  0  0  0
    5.8200   -4.0020   20.9280 C   0  0  0  0  0  0  0  0  0  0  0  0
    6.3320   -2.5990   20.7660 C   0  0  0  0  0  0  0  0  0  0  0  0
    5.9320   -4.5740   22.2600 N   0  0  0  0  0  0  0  0  0  0  0  0
    4.0140   -7.5160   25.5830 O   0  0  0  0  0  0  0  0  0  0  0  0
    2.3860   -5.6780   24.9260 O   0  0  0  0  0  0  0  0  0  0  0  0
    7.8560   -5.8190   23.0360 C   0  0  0  0  0  0  0  0  0  0  0  0
    9.2100   -5.7380   23.5810 C   0  0  0  0  0  0  0  0  0  0  0  0
    9.7730   -4.4850   23.8140 C   0  0  0  0  0  0  0  0  0  0  0  0
    9.0980   -3.3190   23.5830 C   0  0  0  0  0  0  0  0  0  0  0  0
    7.8210   -3.3990   23.0790 C   0  0  0  0  0  0  0  0  0  0  0  0
    7.2210   -4.6210   22.8020 C   0  0  0  0  0  0  0  0  0  0  0  0
    4.3600   -6.2630   22.4360 C   0  0  0  0  0  0  0  0  0  0  0  0
    4.7850   -5.0800   22.9830 C   0  0  1  0  0  0  0  0  0  0  0  0
    4.9630   -5.3460   24.4750 C   0  0  0  0  0  0  0  0  0  0  0  0
    3.5880   -6.4460   24.7080 S   0  0  0  0  0  0  0  0  0  0  0  0
    3.6220   -7.0780   23.2080 C   0  0  0  0  0  0  0  0  0  0  0  0
  1  2  2  0
  2  3  1  0
  2  4  1  0
  7  8  2  0
  8  9  1  0
  9 10  2  0
 10 11  1  0
  4 12  1  0
  7 12  1  0
 11 12  2  0
 14  4  1  6
 13 14  1  0
 14 15  1  0
 16  5  1  0
  6 16  1  0
 15 16  1  0
 13 17  2  0
 16 17  1  0
M  END
