x1002-x0831
     RDKit          3D

 18 19  0  0  0  0  0  0  0  0999 V2000
   12.8240   -2.2980   21.4190 C   0  0  0  0  0  0  0  0  0  0  0  0
    5.3540   -4.3050   19.7650 O   0  0  0  0  0  0  0  0  0  0  0  0
   10.3860   -2.4550   23.3410 C   0  0  0  0  0  0  0  0  0  0  0  0
    5.9160   -3.2250   19.9180 C   0  0  0  0  0  0  0  0  0  0  0  0
    6.1630   -2.3100   18.7680 C   0  0  0  0  0  0  0  0  0  0  0  0
   12.4220   -1.1820   22.3390 C   0  0  0  0  0  0  0  0  0  0  0  0
   11.3000   -1.2960   23.2070 C   0  0  0  0  0  0  0  0  0  0  0  0
   10.9850   -0.2190   24.0200 C   0  0  0  0  0  0  0  0  0  0  0  0
   11.7500    0.9300   23.9770 C   0  0  0  0  0  0  0  0  0  0  0  0
   12.8470    1.0660   23.1410 C   0  0  0  0  0  0  0  0  0  0  0  0
   13.1720    0.0000   22.3190 C   0  0  0  0  0  0  0  0  0  0  0  0
    6.3550   -2.8090   21.1750 N   0  0  0  0  0  0  0  0  0  0  0  0
    6.6090   -1.3770   21.2670 C   0  0  0  0  0  0  0  0  0  0  0  0
    8.0160   -1.0020   20.8110 C   0  0  0  0  0  0  0  0  0  0  0  0
    9.1930   -1.7410   21.4390 C   0  0  0  0  0  0  0  0  0  0  0  0
    9.0510   -2.1060   22.8220 N   0  0  0  0  0  0  0  0  0  0  0  0
    8.0450   -3.1340   23.0340 C   0  0  0  0  0  0  0  0  0  0  0  0
    7.4050   -3.6910   21.7380 C   0  0  0  0  0  0  0  0  0  0  0  0
  2  4  2  0
  4  5  1  0
  1  6  1  0
  3  7  1  0
  6  7  2  0
  7  8  1  0
  8  9  2  0
  9 10  1  0
  6 11  1  0
 10 11  2  0
  4 12  1  0
 12 13  1  0
 13 14  1  0
 14 15  1  0
  3 16  1  0
 15 16  1  0
 16 17  1  0
 12 18  1  0
 17 18  1  0
M  END
