x1002-x1348
     RDKit          3D

 15 16  0  0  0  0  0  0  0  0999 V2000
    7.0390   -3.5740   21.3560 N   0  0  0  0  0  0  0  0  0  0  0  0
    7.9450   -5.0230   27.4470 C   0  0  0  0  0  0  0  0  0  0  0  0
    7.3890   -4.5540   26.4490 O   0  0  0  0  0  0  0  0  0  0  0  0
    5.3490   -4.1220   19.7300 O   0  0  0  0  0  0  0  0  0  0  0  0
    6.2300   -3.3750   20.1580 C   0  0  0  0  0  0  0  0  0  0  0  0
    6.6110   -2.1280   19.3930 C   0  0  0  0  0  0  0  0  0  0  0  0
    6.3570   -5.2710   25.8830 C   0  0  0  0  0  0  0  0  0  0  0  0
    6.1550   -5.1060   24.5010 C   0  0  0  0  0  0  0  0  0  0  0  0
    5.1380   -5.8080   23.8510 C   0  0  0  0  0  0  0  0  0  0  0  0
    4.3010   -6.6720   24.5620 C   0  0  0  0  0  0  0  0  0  0  0  0
    4.4870   -6.8360   25.9370 C   0  0  0  0  0  0  0  0  0  0  0  0
    5.5100   -6.1400   26.5890 C   0  0  0  0  0  0  0  0  0  0  0  0
    6.8890   -4.2780   23.6550 N   0  0  0  0  0  0  0  0  0  0  0  0
    6.4360   -4.3630   22.4290 C   0  0  0  0  0  0  0  0  0  0  0  0
    5.1370   -5.4210   22.1760 S   0  0  0  0  0  0  0  0  0  0  0  0
  2  3  1  0
  1  5  1  0
  4  5  2  0
  5  6  1  0
  3  7  1  0
  7  8  2  0
  8  9  1  0
  9 10  2  0
 10 11  1  0
  7 12  1  0
 11 12  2  0
  8 13  1  0
  1 14  1  0
 13 14  2  0
  9 15  1  0
 14 15  1  0
M  END
