x1002-x1187
     RDKit          3D

 15 16  0  0  0  0  0  0  0  0999 V2000
    7.7310   -0.8580   -5.2430 C   0  0  0  0  0  0  0  0  0  0  0  0
    4.3360   -1.6680   -8.5960 C   0  0  0  0  0  0  0  0  0  0  0  0
    3.9470   -0.5710   -8.7910 O   0  0  0  0  0  0  0  0  0  0  0  0
    3.9980   -2.6680   -9.4960 N   0  0  0  0  0  0  0  0  0  0  0  0
    3.3270   -2.1690  -10.7170 C   0  0  0  0  0  0  0  0  0  0  0  0
    6.7130   -1.5210   -5.8590 N   0  0  0  0  0  0  0  0  0  0  0  0
    6.1210   -2.6710   -5.4670 C   0  0  0  0  0  0  0  0  0  0  0  0
    5.1820   -2.9480   -6.3610 C   0  0  0  0  0  0  0  0  0  0  0  0
    5.1560   -1.9000   -7.4060 C   0  0  0  0  0  0  0  0  0  0  0  0
    6.1550   -1.0300   -7.0270 N   0  0  0  0  0  0  0  0  0  0  0  0
    3.0670   -2.3780  -13.0750 C   0  0  0  0  0  0  0  0  0  0  0  0
    3.2020   -3.0230  -11.8120 C   0  0  1  0  0  0  0  0  0  0  0  0
    4.3940   -3.7940  -11.9540 O   0  0  0  0  0  0  0  0  0  0  0  0
    4.3220   -4.3000  -13.2870 C   0  0  0  0  0  0  0  0  0  0  0  0
    3.8450   -3.2600  -14.0340 C   0  0  0  0  0  0  0  0  0  0  0  0
  2  3  2  0
  2  4  1  0
  4  5  1  0
  1  6  1  0
  6  7  1  0
  7  8  2  0
  2  9  1  0
  8  9  1  0
  6 10  1  0
  9 10  2  0
 12  5  1  1
 11 12  1  0
 12 13  1  0
 13 14  1  0
 11 15  1  0
 14 15  1  0
M  END
