x1002-x1385
     RDKit          3D

 16 17  0  0  0  0  0  0  0  0999 V2000
    6.5450   -1.9780   18.7770 C   0  0  0  0  0  0  0  0  0  0  0  0
    5.5430   -3.9420   19.7290 O   0  0  0  0  0  0  0  0  0  0  0  0
    6.2180   -2.9110   19.9210 C   0  0  0  0  0  0  0  0  0  0  0  0
    9.6400   -3.0500   24.0650 C   0  0  0  0  0  0  0  0  0  0  0  0
    7.0640   -5.7640   28.4870 Br  0  0  0  0  0  0  0  0  0  0  0  0
    6.7280   -2.5870   21.1700 N   0  0  0  0  0  0  0  0  0  0  0  0
    6.4450   -3.4370   22.2400 C   0  0  0  0  0  0  0  0  0  0  0  0
    7.5780   -3.7170   23.0180 C   0  0  0  0  0  0  0  0  0  0  0  0
    8.4800   -2.6890   23.2260 N   0  0  0  0  0  0  0  0  0  0  0  0
    8.8880   -1.9490   22.1100 C   0  0  0  0  0  0  0  0  0  0  0  0
    7.8260   -1.5950   21.2620 C   0  0  0  0  0  0  0  0  0  0  0  0
    9.8830   -5.2920   25.3720 C   0  0  0  0  0  0  0  0  0  0  0  0
    9.2780   -4.0580   25.1270 C   0  0  0  0  0  0  0  0  0  0  0  0
    7.9690   -3.7410   26.2160 S   0  0  0  0  0  0  0  0  0  0  0  0
    8.1530   -5.2070   27.0330 C   0  0  0  0  0  0  0  0  0  0  0  0
    9.2920   -5.9880   26.4330 C   0  0  0  0  0  0  0  0  0  0  0  0
  1  3  1  0
  2  3  2  0
  3  6  1  0
  6  7  1  0
  7  8  1  0
  4  9  1  0
  8  9  1  0
  9 10  1  0
  6 11  1  0
 10 11  1  0
  4 13  1  0
 12 13  2  0
 13 14  1  0
  5 15  1  0
 14 15  1  0
 12 16  1  0
 15 16  2  0
M  END
