x1002-x0305
     RDKit          3D

 11 11  0  0  0  0  0  0  0  0999 V2000
    8.6290   -0.5080   27.6750 C   0  0  0  0  0  0  0  0  0  0  0  0
    8.7350   -0.6050   26.1780 C   0  0  0  0  0  0  0  0  0  0  0  0
    9.5970    0.3170   25.6150 N   0  0  0  0  0  0  0  0  0  0  0  0
   13.0350   -1.4020   21.6040 C   0  0  0  0  0  0  0  0  0  0  0  0
   13.9050   -1.6180   20.5140 N   0  0  0  0  0  0  0  0  0  0  0  0
   10.4020   -0.1600   24.6100 C   0  0  0  0  0  0  0  0  0  0  0  0
   11.5890    0.6500   24.3280 N   0  0  0  0  0  0  0  0  0  0  0  0
   12.4400    0.1420   23.2800 C   0  0  0  0  0  0  0  0  0  0  0  0
   12.0710   -1.0290   22.6470 C   0  0  0  0  0  0  0  0  0  0  0  0
   10.9400   -1.7740   22.9270 C   0  0  0  0  0  0  0  0  0  0  0  0
   10.0860   -1.3410   23.9230 C   0  0  0  0  0  0  0  0  0  0  0  0
  1  2  1  0
  2  3  1  0
  4  5  3  0
  3  6  1  0
  6  7  2  0
  7  8  1  0
  4  9  1  0
  8  9  2  0
  9 10  1  0
  6 11  1  0
 10 11  2  0
M  END
