x1002-x1237
     RDKit          3D

 14 15  0  0  0  0  0  0  0  0999 V2000
   15.8690  -25.9490    7.2140 C   0  0  0  0  0  0  0  0  0  0  0  0
   15.3220  -28.3930    7.9520 O   0  0  0  0  0  0  0  0  0  0  0  0
   16.0420  -28.0730    5.4320 C   0  0  0  0  0  0  0  0  0  0  0  0
   17.8580  -27.5980    7.5200 O   0  0  0  0  0  0  0  0  0  0  0  0
   16.2580  -27.6480    7.1470 S   0  0  0  0  0  0  0  0  0  0  0  0
   14.6370  -25.9840    4.4830 N   0  0  0  0  0  0  0  0  0  0  0  0
   14.8780  -27.4150    4.8000 C   0  0  0  0  0  0  0  0  0  0  0  0
   13.7870  -28.2330    4.4010 N   0  0  0  0  0  0  0  0  0  0  0  0
   12.8350  -27.4750    3.8320 C   0  0  0  0  0  0  0  0  0  0  0  0
   13.3720  -26.1260    3.8940 C   0  0  0  0  0  0  0  0  0  0  0  0
   12.4900  -25.0290    3.3060 C   0  0  0  0  0  0  0  0  0  0  0  0
   11.1440  -25.3980    2.7000 C   0  0  0  0  0  0  0  0  0  0  0  0
   10.8020  -26.7620    2.7320 C   0  0  0  0  0  0  0  0  0  0  0  0
   11.5890  -27.7500    3.2670 C   0  0  0  0  0  0  0  0  0  0  0  0
  5  1  1  0
  2  5  2  0
  3  5  1  0
  4  5  2  0
  3  7  1  0
  6  7  2  0
  7  8  1  0
  8  9  1  0
  6 10  1  0
  9 10  2  0
 10 11  1  0
 11 12  2  0
 12 13  1  0
  9 14  1  0
 13 14  2  0
M  END
