x1012-x0336
     RDKit          3D

 15 15  0  0  0  0  0  0  0  0999 V2000
    5.2770  -29.9590   10.7290 C   0  0  0  0  0  0  0  0  0  0  0  0
    4.8420  -29.7750    9.4090 C   0  0  0  0  0  0  0  0  0  0  0  0
    4.7790  -30.7430    8.6500 O   0  0  0  0  0  0  0  0  0  0  0  0
    4.4860  -28.4880    9.0120 N   0  0  0  0  0  0  0  0  0  0  0  0
    5.0440  -27.3240    9.7110 C   0  0  0  0  0  0  0  0  0  0  0  0
    1.4530  -22.5950    9.1300 S   0  0  0  0  0  0  0  0  0  0  0  0
    1.7370  -21.5790   10.1050 O   0  0  0  0  0  0  0  0  0  0  0  0
    0.1030  -23.0950    9.2160 O   0  0  0  0  0  0  0  0  0  0  0  0
    1.7050  -21.9220    7.5800 N   0  0  0  0  0  0  0  0  0  0  0  0
    4.2010  -26.2200    9.5780 C   0  0  0  0  0  0  0  0  0  0  0  0
    3.8160  -25.7800    8.3250 C   0  0  0  0  0  0  0  0  0  0  0  0
    2.9840  -24.6750    8.1870 C   0  0  0  0  0  0  0  0  0  0  0  0
    2.5230  -24.0060    9.3130 C   0  0  0  0  0  0  0  0  0  0  0  0
    2.9000  -24.4500   10.5620 C   0  0  0  0  0  0  0  0  0  0  0  0
    3.7400  -25.5490   10.7040 C   0  0  0  0  0  0  0  0  0  0  0  0
  1  2  1  0
  2  3  2  0
  2  4  1  0
  4  5  1  0
  6  7  2  0
  6  8  2  0
  6  9  1  0
  5 10  1  0
 10 11  2  0
 11 12  1  0
  6 13  1  0
 12 13  2  0
 13 14  1  0
 10 15  1  0
 14 15  2  0
M  END
