x1012-x0499
     RDKit          3D

 17 18  0  0  0  0  0  0  0  0999 V2000
   26.0510    6.2950   13.6850 N   0  0  0  0  0  0  0  0  0  0  0  0
   25.7100    4.9520   13.4860 C   0  0  0  0  0  0  0  0  0  0  0  0
   25.7520    4.1630   14.4250 O   0  0  0  0  0  0  0  0  0  0  0  0
   24.1900    3.4160    8.1420 N   0  0  0  0  0  0  0  0  0  0  0  0
   22.9770    2.8370    7.8070 C   0  0  0  0  0  0  0  0  0  0  0  0
   22.0810    2.6010    8.6060 O   0  0  0  0  0  0  0  0  0  0  0  0
   25.3150    4.5820   12.0630 C   0  0  0  0  0  0  0  0  0  0  0  0
   24.9520    3.2500   11.8780 C   0  0  0  0  0  0  0  0  0  0  0  0
   24.5870    2.8770   10.5940 C   0  0  0  0  0  0  0  0  0  0  0  0
   24.5760    3.7670    9.5270 C   0  0  0  0  0  0  0  0  0  0  0  0
   24.9490    5.0960    9.7460 C   0  0  0  0  0  0  0  0  0  0  0  0
   25.3180    5.5090   11.0240 C   0  0  0  0  0  0  0  0  0  0  0  0
   23.0570    1.2280    5.8570 C   0  0  0  0  0  0  0  0  0  0  0  0
   22.8540    2.5110    6.3620 C   0  0  2  0  0  0  0  0  0  0  0  0
   23.7400    3.3780    5.6240 O   0  0  0  0  0  0  0  0  0  0  0  0
   24.4030    2.6430    4.6020 C   0  0  0  0  0  0  0  0  0  0  0  0
   23.6420    1.3350    4.5780 C   0  0  0  0  0  0  0  0  0  0  0  0
  1  2  1  0
  2  3  2  0
  4  5  1  0
  5  6  2  0
  2  7  1  0
  7  8  2  0
  8  9  1  0
  4 10  1  0
  9 10  2  0
 10 11  1  0
  7 12  1  0
 11 12  2  0
 14  5  1  1
 13 14  1  0
 14 15  1  0
 15 16  1  0
 13 17  1  0
 16 17  1  0
M  END
