x1012-x1334
     RDKit          3D

 16 17  0  0  0  0  0  0  0  0999 V2000
    6.3790   -2.0540   18.7700 C   0  0  0  0  0  0  0  0  0  0  0  0
    5.4720   -3.9660   19.6780 O   0  0  0  0  0  0  0  0  0  0  0  0
    7.3430   -5.7310   28.3470 Cl  0  0  0  0  0  0  0  0  0  0  0  0
    6.1450   -2.9300   19.8410 C   0  0  0  0  0  0  0  0  0  0  0  0
    9.6110   -2.9880   24.0950 C   0  0  0  0  0  0  0  0  0  0  0  0
    6.7290   -2.6090   21.0480 N   0  0  0  0  0  0  0  0  0  0  0  0
    7.7710   -1.5740   21.2110 C   0  0  0  0  0  0  0  0  0  0  0  0
    8.8550   -2.0410   21.9640 C   0  0  0  0  0  0  0  0  0  0  0  0
    8.4500   -2.6580   23.2430 N   0  0  0  0  0  0  0  0  0  0  0  0
    7.5930   -3.8330   22.9920 C   0  0  0  0  0  0  0  0  0  0  0  0
    6.5470   -3.5040   22.1250 C   0  0  0  0  0  0  0  0  0  0  0  0
    9.9020   -5.2320   25.3770 C   0  0  0  0  0  0  0  0  0  0  0  0
    9.2880   -4.0170   25.1490 C   0  0  0  0  0  0  0  0  0  0  0  0
    8.0150   -3.7680   26.2720 S   0  0  0  0  0  0  0  0  0  0  0  0
    8.3080   -5.2520   27.0230 C   0  0  0  0  0  0  0  0  0  0  0  0
    9.3440   -5.9530   26.4560 C   0  0  0  0  0  0  0  0  0  0  0  0
  1  4  1  0
  2  4  2  0
  4  6  1  0
  6  7  1  0
  7  8  1  0
  5  9  1  0
  8  9  1  0
  9 10  1  0
  6 11  1  0
 10 11  1  0
  5 13  1  0
 12 13  2  0
 13 14  1  0
  3 15  1  0
 14 15  1  0
 12 16  1  0
 15 16  2  0
M  END
