x1012-x0426
     RDKit          3D

 18 19  0  0  0  0  0  0  0  0999 V2000
    2.2670    1.6830   23.8310 C   0  0  0  0  0  0  0  0  0  0  0  0
    2.1730    0.4480   23.8440 O   0  0  0  0  0  0  0  0  0  0  0  0
    3.3100    2.3370   23.2010 N   0  0  0  0  0  0  0  0  0  0  0  0
    4.2010    1.6500   22.2820 C   0  0  0  0  0  0  0  0  0  0  0  0
    3.5900    1.3970   21.0480 C   0  0  0  0  0  0  0  0  0  0  0  0
    2.7570    4.2510   25.1540 F   0  0  0  0  0  0  0  0  0  0  0  0
    1.5120    3.7430   25.1420 C   0  0  0  0  0  0  0  0  0  0  0  0
    1.2320    2.5200   24.5210 C   0  0  0  0  0  0  0  0  0  0  0  0
   -0.0880    2.0550   24.5480 C   0  0  0  0  0  0  0  0  0  0  0  0
   -1.0940    2.7940   25.1800 C   0  0  0  0  0  0  0  0  0  0  0  0
   -0.8040    4.0080   25.7930 C   0  0  0  0  0  0  0  0  0  0  0  0
    0.5080    4.4810   25.7720 C   0  0  0  0  0  0  0  0  0  0  0  0
    5.6030    0.0890   20.2250 C   0  0  0  0  0  0  0  0  0  0  0  0
    6.5020   -0.1910   19.2090 C   0  0  0  0  0  0  0  0  0  0  0  0
    6.4660    0.4110   18.0020 N   0  0  0  0  0  0  0  0  0  0  0  0
    5.5030    1.3240   17.8060 C   0  0  0  0  0  0  0  0  0  0  0  0
    4.5670    1.6720   18.7500 C   0  0  0  0  0  0  0  0  0  0  0  0
    4.6060    1.0450   19.9920 C   0  0  0  0  0  0  0  0  0  0  0  0
  1  2  2  0
  1  3  1  0
  3  4  1  0
  4  5  1  0
  6  7  1  0
  1  8  1  0
  7  8  2  0
  8  9  1  0
  9 10  2  0
 10 11  1  0
  7 12  1  0
 11 12  2  0
 13 14  2  0
 14 15  1  0
 15 16  2  0
 16 17  1  0
  5 18  1  0
 13 18  1  0
 17 18  2  0
M  END
