x1012-x0771
     RDKit          3D

 20 21  0  0  0  0  0  0  0  0999 V2000
    0.6430   -1.4350   26.1950 C   0  0  0  0  0  0  0  0  0  0  0  0
    4.4300   -6.8660   25.8970 O   0  0  0  0  0  0  0  0  0  0  0  0
    6.0060   -5.1430   26.7890 O   0  0  0  0  0  0  0  0  0  0  0  0
    5.5330   -4.2620   19.8130 O   0  0  0  0  0  0  0  0  0  0  0  0
    2.0450   -5.9770   25.0390 C   0  0  0  0  0  0  0  0  0  0  0  0
    6.2660   -3.9540   20.7630 C   0  0  0  0  0  0  0  0  0  0  0  0
    6.7640   -2.6550   20.8930 C   0  0  0  0  0  0  0  0  0  0  0  0
    5.0130   -5.5460   25.8230 S   0  0  0  0  0  0  0  0  0  0  0  0
    1.7140   -2.4630   26.0770 C   0  0  0  0  0  0  0  0  0  0  0  0
    1.4130   -3.7410   25.6110 C   0  0  0  0  0  0  0  0  0  0  0  0
    2.4110   -4.7110   25.5110 C   0  0  0  0  0  0  0  0  0  0  0  0
    3.7200   -4.3990   25.8840 C   0  0  0  0  0  0  0  0  0  0  0  0
    4.0280   -3.1130   26.3430 C   0  0  0  0  0  0  0  0  0  0  0  0
    3.0300   -2.1500   26.4410 C   0  0  0  0  0  0  0  0  0  0  0  0
    6.6530   -4.8610   21.7310 N   0  0  0  0  0  0  0  0  0  0  0  0
    5.9190   -6.1010   21.9180 C   0  0  0  0  0  0  0  0  0  0  0  0
    4.9920   -6.0030   23.1250 C   0  0  0  0  0  0  0  0  0  0  0  0
    5.7260   -5.3770   24.2810 N   0  0  0  0  0  0  0  0  0  0  0  0
    6.4160   -4.1870   23.9870 C   0  0  0  0  0  0  0  0  0  0  0  0
    7.3270   -4.4160   22.9570 C   0  0  0  0  0  0  0  0  0  0  0  0
  4  6  2  0
  6  7  1  0
  2  8  2  0
  3  8  2  0
  1  9  1  0
  9 10  2  0
  5 11  1  0
 10 11  1  0
  8 12  1  0
 11 12  2  0
 12 13  1  0
  9 14  1  0
 13 14  2  0
  6 15  1  0
 15 16  1  0
 16 17  1  0
  8 18  1  0
 17 18  1  0
 18 19  1  0
 15 20  1  0
 19 20  1  0
M  END
