x1012-x0830
     RDKit          3D

 20 22  0  0  0  0  0  0  0  0999 V2000
    6.9780   -2.1150   18.6340 C   0  0  0  0  0  0  0  0  0  0  0  0
    5.5370   -3.5920   19.6330 O   0  0  0  0  0  0  0  0  0  0  0  0
    6.3550   -2.6560   19.7530 C   0  0  0  0  0  0  0  0  0  0  0  0
    9.8440   -2.4130   23.7190 C   0  0  0  0  0  0  0  0  0  0  0  0
    6.7200   -2.1000   20.9580 N   0  0  0  0  0  0  0  0  0  0  0  0
    6.4300   -2.6890   22.2680 C   0  0  0  0  0  0  0  0  0  0  0  0
    7.6140   -3.0820   22.8940 C   0  0  0  0  0  0  0  0  0  0  0  0
    8.6270   -2.0130   22.9940 N   0  0  0  0  0  0  0  0  0  0  0  0
    8.9730   -1.5110   21.6500 C   0  0  0  0  0  0  0  0  0  0  0  0
    7.8170   -1.2160   20.9360 C   0  0  0  0  0  0  0  0  0  0  0  0
   12.1100   -1.8740   22.8470 C   0  0  0  0  0  0  0  0  0  0  0  0
   13.1190   -0.9910   22.5480 C   0  0  0  0  0  0  0  0  0  0  0  0
   12.9950    0.3590   22.8150 C   0  0  0  0  0  0  0  0  0  0  0  0
   11.8520    0.8610   23.3890 C   0  0  0  0  0  0  0  0  0  0  0  0
   10.7460   -0.1150   23.7370 C   0  0  0  0  0  0  0  0  0  0  0  0
   10.9420   -1.4250   23.4320 C   0  0  0  0  0  0  0  0  0  0  0  0
   11.6790    2.2020   23.6450 C   0  0  0  0  0  0  0  0  0  0  0  0
   10.3720    2.6620   24.2890 C   0  0  0  0  0  0  0  0  0  0  0  0
    9.3920    1.7370   24.6170 C   0  0  0  0  0  0  0  0  0  0  0  0
    9.5760    0.3860   24.3450 C   0  0  0  0  0  0  0  0  0  0  0  0
  1  3  1  0
  2  3  2  0
  3  5  1  0
  5  6  1  0
  6  7  1  0
  4  8  1  0
  7  8  1  0
  8  9  1  0
  5 10  1  0
  9 10  1  0
 11 12  2  0
 12 13  1  0
 13 14  2  0
 14 15  1  0
  4 16  1  0
 11 16  1  0
 15 16  2  0
 14 17  1  0
 17 18  2  0
 18 19  1  0
 15 20  1  0
 19 20  2  0
M  END
