x1012-x1402
     RDKit          3D

 18 19  0  0  0  0  0  0  0  0999 V2000
    6.5670   -2.9870   21.0950 C   0  0  0  0  0  0  0  0  0  0  0  0
    5.4300   -4.5380   19.8610 O   0  0  0  0  0  0  0  0  0  0  0  0
    0.8050   -1.2420   26.1620 Cl  0  0  0  0  0  0  0  0  0  0  0  0
    6.1190   -4.2940   20.8560 C   0  0  0  0  0  0  0  0  0  0  0  0
    4.0320   -6.4500   26.0010 O   0  0  0  0  0  0  0  0  0  0  0  0
    6.0440   -5.2420   26.9600 O   0  0  0  0  0  0  0  0  0  0  0  0
    4.9350   -5.3330   25.8300 S   0  0  0  0  0  0  0  0  0  0  0  0
    6.4950   -5.2520   21.7700 N   0  0  0  0  0  0  0  0  0  0  0  0
    7.3320   -4.8190   22.8900 C   0  0  0  0  0  0  0  0  0  0  0  0
    6.4690   -4.3970   23.9000 C   0  0  0  0  0  0  0  0  0  0  0  0
    5.6840   -5.4500   24.3060 N   0  0  0  0  0  0  0  0  0  0  0  0
    4.8220   -6.0250   23.2200 C   0  0  0  0  0  0  0  0  0  0  0  0
    5.6230   -6.3620   22.1220 C   0  0  0  0  0  0  0  0  0  0  0  0
    2.3060   -3.7970   25.9610 S   0  0  0  0  0  0  0  0  0  0  0  0
    4.0290   -3.8130   25.9240 C   0  0  0  0  0  0  0  0  0  0  0  0
    4.5600   -2.5400   25.9790 C   0  0  0  0  0  0  0  0  0  0  0  0
    3.5720   -1.5940   26.0540 C   0  0  0  0  0  0  0  0  0  0  0  0
    2.2850   -2.0980   26.0620 C   0  0  0  0  0  0  0  0  0  0  0  0
  1  4  1  0
  2  4  2  0
  5  7  2  0
  6  7  2  0
  4  8  1  0
  8  9  1  0
  9 10  1  0
  7 11  1  0
 10 11  1  0
 11 12  1  0
  8 13  1  0
 12 13  1  0
  7 15  1  0
 14 15  1  0
 15 16  2  0
 16 17  1  0
  3 18  1  0
 14 18  1  0
 17 18  2  0
M  END
