x1012-x1375
     RDKit          3D

 18 19  0  0  0  0  0  0  0  0999 V2000
    5.7170   -4.5320   20.1060 O   0  0  0  0  0  0  0  0  0  0  0  0
    6.4000   -4.0380   21.0180 C   0  0  0  0  0  0  0  0  0  0  0  0
    7.4980   -3.1800   20.8190 C   0  0  0  0  0  0  0  0  0  0  0  0
    6.1550   -4.3010   22.3400 N   0  0  0  0  0  0  0  0  0  0  0  0
    2.4330   -6.6640   23.7960 O   0  0  0  0  0  0  0  0  0  0  0  0
    4.3640   -7.8170   25.0070 O   0  0  0  0  0  0  0  0  0  0  0  0
   10.2470   -5.1190   25.8700 F   0  0  0  0  0  0  0  0  0  0  0  0
    7.6380   -3.3750   24.0500 C   0  0  0  0  0  0  0  0  0  0  0  0
    8.6730   -3.5970   24.9380 C   0  0  0  0  0  0  0  0  0  0  0  0
    9.2790   -4.8350   25.0510 C   0  0  0  0  0  0  0  0  0  0  0  0
    8.8540   -5.8480   24.2650 C   0  0  0  0  0  0  0  0  0  0  0  0
    7.8230   -5.6690   23.3670 C   0  0  0  0  0  0  0  0  0  0  0  0
    7.2110   -4.4400   23.2590 C   0  0  0  0  0  0  0  0  0  0  0  0
    4.7550   -4.2310   24.1250 C   0  0  0  0  0  0  0  0  0  0  0  0
    4.8560   -4.7800   22.8280 C   0  0  2  0  0  0  0  0  0  0  0  0
    4.8600   -6.1850   22.8050 C   0  0  0  0  0  0  0  0  0  0  0  0
    3.8280   -6.5820   24.1760 S   0  0  0  0  0  0  0  0  0  0  0  0
    4.1600   -5.1830   24.9910 C   0  0  0  0  0  0  0  0  0  0  0  0
  1  2  2  0
  2  3  1  0
  2  4  1  0
  8  9  2  0
  7 10  1  0
  9 10  1  0
 10 11  2  0
 11 12  1  0
  4 13  1  0
  8 13  1  0
 12 13  2  0
 15  4  1  1
 14 15  1  0
 15 16  1  0
 17  5  1  0
  6 17  1  0
 16 17  1  0
 14 18  2  0
 17 18  1  0
M  END
