x1077-x2705-x0691-x3117
     RDKit          3D

 58 65  0  0  0  0  0  0  0  0999 V2000
    6.8530   -1.3780   21.9290 N   0  0  0  0  0  0  0  0  0  0  0  0
    6.9810   -4.5420   20.3700 C   0  0  2  0  0  0  0  0  0  0  0  0
    4.8000   -2.9720   21.2490 O   0  0  0  0  0  0  0  0  0  0  0  0
    7.0580   -3.6100   21.3280 C   0  0  1  0  0  0  0  0  0  0  0  0
    7.3800    2.0950   22.8250 N   0  0  0  0  0  0  0  0  0  0  0  0
    8.8070    0.9270   21.4460 O   0  0  0  0  0  0  0  0  0  0  0  0
    6.0820   -2.5900   21.4960 C   0  0  0  0  0  0  0  0  0  0  0  0
    6.5340    0.0410   21.5890 C   0  0  1  0  0  0  0  0  0  0  0  0
    7.6870    1.0510   21.9540 C   0  0  0  0  0  0  0  0  0  0  0  0
   10.1710    2.0930   23.9190 C   0  0  0  0  0  0  0  0  0  0  0  0
    9.3320    1.2800   24.9020 C   0  0  0  0  0  0  0  0  0  0  0  0
    6.1420    4.5220   21.9410 C   0  0  0  0  0  0  0  0  0  0  0  0
   11.9680   -1.4290   23.3190 C   0  0  0  0  0  0  0  0  0  0  0  0
   12.5000   -0.1510   24.0020 C   0  0  0  0  0  0  0  0  0  0  0  0
   12.4200   -2.7110   24.0750 C   0  0  0  0  0  0  0  0  0  0  0  0
   12.6980   -1.5230   21.9560 C   0  0  0  0  0  0  0  0  0  0  0  0
   13.3510   -2.6000   25.2630 C   0  0  0  0  0  0  0  0  0  0  0  0
    5.7660   -4.5880   19.6340 O   0  0  0  0  0  0  0  0  0  0  0  0
    3.7620   -6.9230   25.7090 O   0  0  0  0  0  0  0  0  0  0  0  0
    5.6050   -5.4240   26.8650 N   0  0  0  0  0  0  0  0  0  0  0  0
    3.3000   -0.6990   26.0750 F   0  0  0  0  0  0  0  0  0  0  0  0
    4.5160   -5.6940   25.8030 S   0  0  2  0  0  0  0  0  0  0  0  0
    6.3090    0.3580   17.8450 N   0  0  0  0  0  0  0  0  0  0  0  0
    5.1810    1.0810   17.7840 C   0  0  0  0  0  0  0  0  0  0  0  0
    4.4420    1.4730   18.8580 C   0  0  0  0  0  0  0  0  0  0  0  0
    4.8940    1.1090   20.0980 C   0  0  0  0  0  0  0  0  0  0  0  0
    6.0680    0.3690   20.2120 C   0  0  0  0  0  0  0  0  0  0  0  0
    6.7330    0.0130   19.0620 C   0  0  0  0  0  0  0  0  0  0  0  0
    9.6600   -1.4660   24.3590 N   0  0  0  0  0  0  0  0  0  0  0  0
    8.3690   -1.4550   23.9580 N   0  0  0  0  0  0  0  0  0  0  0  0
    8.1640   -1.4170   22.5960 C   0  0  0  0  0  0  0  0  0  0  0  0
    9.5180   -1.4100   22.1340 C   0  0  0  0  0  0  0  0  0  0  0  0
   10.4190   -1.4360   23.2170 C   0  0  0  0  0  0  0  0  0  0  0  0
    9.4460    3.3410   23.4530 C   0  0  0  0  0  0  0  0  0  0  0  0
   10.1890    4.5660   23.5680 C   0  0  0  0  0  0  0  0  0  0  0  0
    9.5280    5.7250   23.1300 C   0  0  0  0  0  0  0  0  0  0  0  0
    8.2370    5.6940   22.6140 C   0  0  0  0  0  0  0  0  0  0  0  0
    7.5320    4.4840   22.5120 C   0  0  0  0  0  0  0  0  0  0  0  0
    8.1320    3.3030   22.9360 C   0  0  0  0  0  0  0  0  0  0  0  0
    2.8820   -1.9680   25.9600 C   0  0  0  0  0  0  0  0  0  0  0  0
    3.8220   -3.0170   25.9460 C   0  0  0  0  0  0  0  0  0  0  0  0
    3.3550   -4.3540   25.8250 C   0  0  0  0  0  0  0  0  0  0  0  0
    1.9850   -4.6210   25.7190 C   0  0  0  0  0  0  0  0  0  0  0  0
    1.0750   -3.5580   25.7380 C   0  0  0  0  0  0  0  0  0  0  0  0
    1.5200   -2.2280   25.8600 C   0  0  0  0  0  0  0  0  0  0  0  0
    6.8540   -5.0460   21.8380 C   0  0  1  0  0  0  0  0  0  0  0  0
    5.6070   -5.7530   21.9210 C   0  0  0  0  0  0  0  0  0  0  0  0
    5.1350   -6.3230   23.1290 C   0  0  0  0  0  0  0  0  0  0  0  0
    5.3310   -5.4810   24.3050 N   0  0  0  0  0  0  0  0  0  0  0  0
    5.7650   -4.1820   23.8540 C   0  0  0  0  0  0  0  0  0  0  0  0
    7.0760   -4.3860   23.1990 C   0  0  1  0  0  0  0  0  0  0  0  0
    7.1540   -5.6930   25.0780 O   0  0  0  0  0  0  0  0  0  0  0  0
    7.9610   -4.9110   24.2670 C   0  0  1  0  0  0  0  0  0  0  0  0
    9.3190   -5.3830   24.1060 C   0  0  0  0  0  0  0  0  0  0  0  0
    9.9690   -5.3750   25.4560 C   0  0  0  0  0  0  0  0  0  0  0  0
    9.3370   -4.5570   26.4990 N   0  0  0  0  0  0  0  0  0  0  0  0
    8.1500   -5.2210   27.1060 C   0  0  0  0  0  0  0  0  0  0  0  0
    6.8790   -5.0450   26.2800 C   0  0  2  0  0  0  0  0  0  0  0  0
  2  4  1  0
  1  7  1  0
  3  7  2  0
  4  7  1  6
  1  8  1  0
  5  9  1  0
  6  9  2  0
  8  9  1  6
 10 11  1  0
 13 14  1  0
 13 15  1  0
 13 16  1  0
 15 17  1  0
  2 18  1  6
 19 22  2  0
 20 22  2  0
 23 24  2  0
 24 25  1  0
 25 26  2  0
  8 27  1  0
 26 27  1  0
 23 28  1  0
 27 28  2  0
 29 30  1  0
  1 31  1  0
 30 31  1  0
 31 32  2  0
 13 33  1  0
 29 33  2  0
 32 33  1  0
 10 34  1  0
 34 35  2  0
 35 36  1  0
 36 37  2  0
 12 38  1  0
 37 38  1  0
  5 39  1  0
 34 39  1  0
 38 39  2  0
 21 40  1  0
 40 41  2  0
 22 42  1  1
 41 42  1  0
 42 43  2  0
 43 44  1  0
 40 45  1  0
 44 45  2  0
  2 46  1  0
  4 46  1  0
 46 47  1  6
 47 48  1  0
 22 49  1  0
 48 49  1  0
 49 50  1  0
 46 51  1  0
 51 50  1  1
 51 53  1  0
 52 53  1  0
 53 54  1  6
 54 55  1  0
 55 56  1  0
 56 57  1  0
 20 58  1  0
 52 58  1  0
 58 57  1  1
M  END
