x1077-x2705-x0691-x2643
     RDKit          3D

 57 64  0  0  0  0  0  0  0  0999 V2000
    6.8650   -1.3860   21.9630 N   0  0  0  0  0  0  0  0  0  0  0  0
    6.9240   -4.5890   20.3550 C   0  0  2  0  0  0  0  0  0  0  0  0
    4.7960   -2.9700   21.2660 O   0  0  0  0  0  0  0  0  0  0  0  0
    6.9710   -3.6600   21.3420 C   0  0  1  0  0  0  0  0  0  0  0  0
    7.5910    2.0310   22.8650 N   0  0  0  0  0  0  0  0  0  0  0  0
    8.6790    1.2660   21.1050 O   0  0  0  0  0  0  0  0  0  0  0  0
    6.0830   -2.6040   21.5210 C   0  0  0  0  0  0  0  0  0  0  0  0
    6.5720    0.0450   21.5430 C   0  0  1  0  0  0  0  0  0  0  0  0
    7.6780    1.1220   21.8390 C   0  0  0  0  0  0  0  0  0  0  0  0
   10.1780    2.1160   23.9630 C   0  0  0  0  0  0  0  0  0  0  0  0
    9.3560    1.2570   24.9210 C   0  0  0  0  0  0  0  0  0  0  0  0
    6.2110    4.5860   21.9020 C   0  0  0  0  0  0  0  0  0  0  0  0
   12.0120   -1.4430   23.3030 C   0  0  0  0  0  0  0  0  0  0  0  0
   12.4980   -0.1240   23.9320 C   0  0  0  0  0  0  0  0  0  0  0  0
   12.5170   -2.5630   24.2340 C   0  0  0  0  0  0  0  0  0  0  0  0
   12.7080   -1.6000   22.0080 C   0  0  0  0  0  0  0  0  0  0  0  0
    5.7220   -4.6220   19.5920 O   0  0  0  0  0  0  0  0  0  0  0  0
    3.9300   -6.8350   25.9150 O   0  0  0  0  0  0  0  0  0  0  0  0
    5.7670   -5.1600   26.8220 N   0  0  0  0  0  0  0  0  0  0  0  0
    3.2150   -0.6210   26.0270 F   0  0  0  0  0  0  0  0  0  0  0  0
    4.6450   -5.5800   25.8580 S   0  0  2  0  0  0  0  0  0  0  0  0
    6.2910    0.3100   17.8350 N   0  0  0  0  0  0  0  0  0  0  0  0
    5.1490    1.0040   17.7930 C   0  0  0  0  0  0  0  0  0  0  0  0
    4.4060    1.3940   18.8700 C   0  0  0  0  0  0  0  0  0  0  0  0
    4.8780    1.0570   20.0950 C   0  0  0  0  0  0  0  0  0  0  0  0
    6.0680    0.3470   20.1730 C   0  0  0  0  0  0  0  0  0  0  0  0
    6.7530   -0.0240   19.0380 C   0  0  0  0  0  0  0  0  0  0  0  0
    9.6280   -1.4580   24.2670 N   0  0  0  0  0  0  0  0  0  0  0  0
    8.3020   -1.4490   23.9510 N   0  0  0  0  0  0  0  0  0  0  0  0
    8.1770   -1.4240   22.6160 C   0  0  0  0  0  0  0  0  0  0  0  0
    9.5200   -1.4240   22.1140 C   0  0  0  0  0  0  0  0  0  0  0  0
   10.4710   -1.4430   23.1750 C   0  0  0  0  0  0  0  0  0  0  0  0
    9.4750    3.3820   23.4960 C   0  0  0  0  0  0  0  0  0  0  0  0
   10.1810    4.5710   23.6440 C   0  0  0  0  0  0  0  0  0  0  0  0
    9.5430    5.7920   23.2030 C   0  0  0  0  0  0  0  0  0  0  0  0
    8.2630    5.7080   22.6540 C   0  0  0  0  0  0  0  0  0  0  0  0
    7.5840    4.4910   22.5220 C   0  0  0  0  0  0  0  0  0  0  0  0
    8.1750    3.3260   22.9410 C   0  0  0  0  0  0  0  0  0  0  0  0
    2.8530   -1.9100   25.9330 C   0  0  0  0  0  0  0  0  0  0  0  0
    3.8330   -2.9210   25.9390 C   0  0  0  0  0  0  0  0  0  0  0  0
    3.4320   -4.2770   25.8410 C   0  0  0  0  0  0  0  0  0  0  0  0
    2.0610   -4.6130   25.7320 C   0  0  0  0  0  0  0  0  0  0  0  0
    1.1190   -3.5870   25.7290 C   0  0  0  0  0  0  0  0  0  0  0  0
    1.5010   -2.2470   25.8310 C   0  0  0  0  0  0  0  0  0  0  0  0
    6.7350   -5.1080   21.8030 C   0  0  1  0  0  0  0  0  0  0  0  0
    5.4820   -5.7930   21.9030 C   0  0  0  0  0  0  0  0  0  0  0  0
    5.0360   -6.3030   23.1300 C   0  0  0  0  0  0  0  0  0  0  0  0
    5.4090   -5.5110   24.3330 N   0  0  0  0  0  0  0  0  0  0  0  0
    5.7840   -4.2270   23.7860 C   0  0  0  0  0  0  0  0  0  0  0  0
    7.0290   -4.5940   23.1870 C   0  0  1  0  0  0  0  0  0  0  0  0
    7.4030   -5.8510   25.2260 O   0  0  0  0  0  0  0  0  0  0  0  0
    7.8920   -4.8160   24.4160 C   0  0  1  0  0  0  0  0  0  0  0  0
    9.2470   -5.3210   24.0310 C   0  0  0  0  0  0  0  0  0  0  0  0
   10.0360   -5.0440   25.2370 C   0  0  0  0  0  0  0  0  0  0  0  0
    9.4200   -4.1090   26.2030 N   0  0  0  0  0  0  0  0  0  0  0  0
    8.3580   -4.6270   27.1620 C   0  0  0  0  0  0  0  0  0  0  0  0
    7.1820   -5.4660   26.5640 C   0  0  1  0  0  0  0  0  0  0  0  0
  2  4  1  0
  1  7  1  0
  3  7  2  0
  4  7  1  6
  1  8  1  0
  5  9  1  0
  6  9  2  0
  8  9  1  6
 10 11  1  0
 13 14  1  0
 13 15  1  0
 13 16  1  0
  2 17  1  6
 18 21  2  0
 19 21  2  0
 22 23  2  0
 23 24  1  0
 24 25  2  0
  8 26  1  0
 25 26  1  0
 22 27  1  0
 26 27  2  0
 28 29  1  0
  1 30  1  0
 29 30  2  0
 30 31  1  0
 13 32  1  0
 28 32  1  0
 31 32  2  0
 10 33  1  0
 33 34  2  0
 34 35  1  0
 35 36  2  0
 12 37  1  0
 36 37  1  0
  5 38  1  0
 33 38  1  0
 37 38  2  0
 20 39  1  0
 39 40  2  0
 21 41  1  6
 40 41  1  0
 41 42  2  0
 42 43  1  0
 39 44  1  0
 43 44  2  0
  2 45  1  0
  4 45  1  0
 45 46  1  6
 46 47  1  0
 21 48  1  0
 47 48  1  0
 48 49  1  0
 45 50  1  0
 50 49  1  1
 50 52  1  0
 51 52  1  0
 52 53  1  6
 53 54  1  0
 54 55  1  0
 55 56  1  0
 19 57  1  0
 51 57  1  0
 57 56  1  6
M  END
