x1077-x0771-x2705-x2643
     RDKit          3D

 58 66  0  0  0  0  0  0  0  0999 V2000
    6.8830   -1.3010   21.8870 N   0  0  0  0  0  0  0  0  0  0  0  0
    6.7450   -4.4590   20.3480 C   0  0  2  0  0  0  0  0  0  0  0  0
    4.7810   -2.9290   21.2420 O   0  0  0  0  0  0  0  0  0  0  0  0
    6.8640   -3.6550   21.5590 C   0  0  2  0  0  0  0  0  0  0  0  0
    7.4790    2.1030   22.8950 N   0  0  0  0  0  0  0  0  0  0  0  0
    8.6110    1.3610   21.1250 O   0  0  0  0  0  0  0  0  0  0  0  0
    6.0760   -2.5370   21.5520 C   0  0  0  0  0  0  0  0  0  0  0  0
    6.5070    0.1230   21.5660 C   0  0  1  0  0  0  0  0  0  0  0  0
    7.6040    1.2130   21.8530 C   0  0  0  0  0  0  0  0  0  0  0  0
   10.2010    2.1120   23.9840 C   0  0  0  0  0  0  0  0  0  0  0  0
    9.3170    1.2990   24.9220 C   0  0  0  0  0  0  0  0  0  0  0  0
    6.1870    4.5310   21.9370 C   0  0  0  0  0  0  0  0  0  0  0  0
   11.9640   -1.4740   23.3110 C   0  0  0  0  0  0  0  0  0  0  0  0
   12.4620   -0.1710   23.9670 C   0  0  0  0  0  0  0  0  0  0  0  0
   12.4340   -2.6130   24.2400 C   0  0  0  0  0  0  0  0  0  0  0  0
   12.6960   -1.6200   22.0310 C   0  0  0  0  0  0  0  0  0  0  0  0
    5.7650   -4.0360   19.4100 O   0  0  0  0  0  0  0  0  0  0  0  0
    0.6400   -1.3430   26.2260 C   0  0  0  0  0  0  0  0  0  0  0  0
    4.2930   -7.0510   25.9290 O   0  0  0  0  0  0  0  0  0  0  0  0
    6.0380   -5.2140   26.5770 N   0  0  0  0  0  0  0  0  0  0  0  0
    1.8020   -6.0660   24.9590 C   0  0  0  0  0  0  0  0  0  0  0  0
    4.8430   -5.7240   25.7870 S   0  0  2  0  0  0  0  0  0  0  0  0
    6.3080    0.4040   17.8370 N   0  0  0  0  0  0  0  0  0  0  0  0
    5.1540    1.0870   17.7610 C   0  0  0  0  0  0  0  0  0  0  0  0
    4.3680    1.4690   18.8330 C   0  0  0  0  0  0  0  0  0  0  0  0
    4.7970    1.1430   20.0750 C   0  0  0  0  0  0  0  0  0  0  0  0
    5.9930    0.4470   20.2150 C   0  0  0  0  0  0  0  0  0  0  0  0
    6.7160    0.0880   19.0740 C   0  0  0  0  0  0  0  0  0  0  0  0
    9.6750   -1.4950   24.2940 N   0  0  0  0  0  0  0  0  0  0  0  0
    8.3860   -1.4500   23.8840 N   0  0  0  0  0  0  0  0  0  0  0  0
    8.2140   -1.3840   22.5270 C   0  0  0  0  0  0  0  0  0  0  0  0
    9.5710   -1.3940   22.0620 C   0  0  0  0  0  0  0  0  0  0  0  0
   10.4170   -1.4550   23.1780 C   0  0  0  0  0  0  0  0  0  0  0  0
    9.4920    3.3580   23.5010 C   0  0  0  0  0  0  0  0  0  0  0  0
   10.1670    4.5680   23.5860 C   0  0  0  0  0  0  0  0  0  0  0  0
    9.5510    5.7550   23.1410 C   0  0  0  0  0  0  0  0  0  0  0  0
    8.2630    5.7250   22.6100 C   0  0  0  0  0  0  0  0  0  0  0  0
    7.5770    4.5140   22.5220 C   0  0  0  0  0  0  0  0  0  0  0  0
    8.1880    3.3280   22.9730 C   0  0  0  0  0  0  0  0  0  0  0  0
    1.6450   -2.4390   26.0940 C   0  0  0  0  0  0  0  0  0  0  0  0
    1.2790   -3.7130   25.5960 C   0  0  0  0  0  0  0  0  0  0  0  0
    2.2320   -4.7290   25.4910 C   0  0  0  0  0  0  0  0  0  0  0  0
    3.5610   -4.5030   25.8750 C   0  0  0  0  0  0  0  0  0  0  0  0
    3.9260   -3.2330   26.3630 C   0  0  0  0  0  0  0  0  0  0  0  0
    2.9670   -2.2170   26.4680 C   0  0  0  0  0  0  0  0  0  0  0  0
    6.1520   -5.0450   21.6010 C   0  0  1  0  0  0  0  0  0  0  0  0
    5.9120   -6.3640   21.9030 C   0  0  0  0  0  0  0  0  0  0  0  0
    5.0830   -6.5240   23.1020 C   0  0  0  0  0  0  0  0  0  0  0  0
    5.5040   -5.6650   24.2310 N   0  0  0  0  0  0  0  0  0  0  0  0
    5.8170   -4.3150   23.8390 C   0  0  0  0  0  0  0  0  0  0  0  0
    6.8730   -4.4670   22.7680 C   0  0  2  0  0  0  0  0  0  0  0  0
    7.4960   -5.7560   24.7210 O   0  0  0  0  0  0  0  0  0  0  0  0
    7.9790   -5.2180   23.4290 C   0  0  2  0  0  0  0  0  0  0  0  0
    9.1760   -4.4910   23.8570 C   0  0  0  0  0  0  0  0  0  0  0  0
    9.8070   -5.2450   25.0170 C   0  0  0  0  0  0  0  0  0  0  0  0
    9.8000   -4.4710   26.2330 N   0  0  0  0  0  0  0  0  0  0  0  0
    8.4770   -4.7140   26.8210 C   0  0  0  0  0  0  0  0  0  0  0  0
    7.2450   -4.8640   25.8350 C   0  0  2  0  0  0  0  0  0  0  0  0
  2  4  1  0
  1  7  1  0
  3  7  2  0
  4  7  1  6
  1  8  1  0
  5  9  1  0
  6  9  2  0
  8  9  1  6
 10 11  1  0
 13 14  1  0
 13 15  1  0
 13 16  1  0
  2 17  1  6
 19 22  2  0
 20 22  2  0
 23 24  2  0
 24 25  1  0
 25 26  2  0
  8 27  1  0
 26 27  1  0
 23 28  1  0
 27 28  2  0
 29 30  1  0
  1 31  1  0
 30 31  1  0
 31 32  2  0
 13 33  1  0
 29 33  2  0
 32 33  1  0
 10 34  1  0
 34 35  2  0
 35 36  1  0
 36 37  2  0
 12 38  1  0
 37 38  1  0
  5 39  1  0
 34 39  1  0
 38 39  2  0
 18 40  1  0
 40 41  2  0
 21 42  1  0
 41 42  1  0
 22 43  1  6
 42 43  2  0
 43 44  1  0
 40 45  1  0
 44 45  2  0
  2 46  1  0
  4 46  1  0
 46 47  1  1
 47 48  1  0
 22 49  1  0
 48 49  1  0
 49 50  1  0
  4 51  1  0
 46 51  1  0
 51 50  1  1
 51 53  1  0
 52 53  1  0
 53 54  1  1
 54 55  1  0
 55 56  1  0
 56 57  1  0
 20 58  1  0
 52 58  1  0
 58 57  1  1
M  END
