x1077-x2705-x1311-x2643
     RDKit          3D

 48 52  0  0  0  0  0  0  0  0999 V2000
    6.9120   -1.2330   21.9380 N   0  0  0  0  0  0  0  0  0  0  0  0
    6.7350   -4.1480   20.5600 C   0  0  2  0  0  0  0  0  0  0  0  0
    4.9360   -3.1890   21.3210 O   0  0  0  0  0  0  0  0  0  0  0  0
    6.8110   -2.8280   21.0600 C   0  0  0  0  0  0  0  0  0  0  0  0
    7.6080    2.1060   22.8860 N   0  0  0  0  0  0  0  0  0  0  0  0
    8.7970    1.2800   21.1110 O   0  0  0  0  0  0  0  0  0  0  0  0
    5.7230   -2.1550   21.7230 C   0  0  0  0  0  0  0  0  0  0  0  0
    6.6630    0.1890   21.5700 C   0  0  1  0  0  0  0  0  0  0  0  0
    7.7990    1.2230   21.8430 C   0  0  0  0  0  0  0  0  0  0  0  0
   10.1740    2.1810   23.9700 C   0  0  0  0  0  0  0  0  0  0  0  0
    9.3130    1.3450   24.9220 C   0  0  0  0  0  0  0  0  0  0  0  0
    6.2170    4.6460   21.9240 C   0  0  0  0  0  0  0  0  0  0  0  0
   11.9580   -1.3700   23.4440 C   0  0  0  0  0  0  0  0  0  0  0  0
   12.4110   -0.0220   24.0280 C   0  0  0  0  0  0  0  0  0  0  0  0
   12.5130   -2.5080   24.3660 C   0  0  0  0  0  0  0  0  0  0  0  0
   12.7080   -1.4820   22.0850 C   0  0  0  0  0  0  0  0  0  0  0  0
    5.5530   -4.4060   19.8200 O   0  0  0  0  0  0  0  0  0  0  0  0
    6.6690   -5.0300   21.8410 N   0  0  0  0  0  0  0  0  0  0  0  0
    4.2590   -7.2690   25.1980 O   0  0  0  0  0  0  0  0  0  0  0  0
    2.8570   -5.2890   24.5190 O   0  0  0  0  0  0  0  0  0  0  0  0
    6.3050    0.3490   17.8200 N   0  0  0  0  0  0  0  0  0  0  0  0
    5.1640    1.0480   17.7760 C   0  0  0  0  0  0  0  0  0  0  0  0
    4.4420    1.4800   18.9510 C   0  0  0  0  0  0  0  0  0  0  0  0
    4.9380    1.1790   20.1750 C   0  0  0  0  0  0  0  0  0  0  0  0
    6.1230    0.4670   20.2120 C   0  0  0  0  0  0  0  0  0  0  0  0
    6.7740    0.0620   19.0370 C   0  0  0  0  0  0  0  0  0  0  0  0
    9.6220   -1.4330   24.4010 N   0  0  0  0  0  0  0  0  0  0  0  0
    8.2960   -1.4090   24.0560 N   0  0  0  0  0  0  0  0  0  0  0  0
    8.1900   -1.3290   22.6840 C   0  0  0  0  0  0  0  0  0  0  0  0
    9.5400   -1.3160   22.2040 C   0  0  0  0  0  0  0  0  0  0  0  0
   10.4110   -1.3740   23.3020 C   0  0  0  0  0  0  0  0  0  0  0  0
    9.4840    3.4490   23.5120 C   0  0  0  0  0  0  0  0  0  0  0  0
   10.2360    4.6620   23.6760 C   0  0  0  0  0  0  0  0  0  0  0  0
    9.5550    5.8590   23.2200 C   0  0  0  0  0  0  0  0  0  0  0  0
    8.2700    5.7540   22.6750 C   0  0  0  0  0  0  0  0  0  0  0  0
    7.5910    4.5620   22.5410 C   0  0  0  0  0  0  0  0  0  0  0  0
    8.1930    3.3900   22.9650 C   0  0  0  0  0  0  0  0  0  0  0  0
    8.4200   -6.0420   23.0390 C   0  0  0  0  0  0  0  0  0  0  0  0
    9.3780   -6.0670   24.0130 C   0  0  0  0  0  0  0  0  0  0  0  0
    9.5750   -4.9810   24.8610 C   0  0  0  0  0  0  0  0  0  0  0  0
    8.7570   -3.8540   24.6860 C   0  0  0  0  0  0  0  0  0  0  0  0
    7.7830   -3.8430   23.6840 C   0  0  0  0  0  0  0  0  0  0  0  0
    7.6150   -4.9520   22.8470 C   0  0  0  0  0  0  0  0  0  0  0  0
    4.7290   -6.2900   21.9950 C   0  0  0  0  0  0  0  0  0  0  0  0
    5.4140   -5.2160   22.4730 C   0  0  1  0  0  0  0  0  0  0  0  0
    5.4720   -5.2920   23.9010 C   0  0  0  0  0  0  0  0  0  0  0  0
    3.9590   -6.1840   24.2690 S   0  0  0  0  0  0  0  0  0  0  0  0
    3.8270   -6.8790   22.8090 C   0  0  0  0  0  0  0  0  0  0  0  0
  2  4  1  0
  1  7  1  0
  3  7  2  0
  4  7  1  0
  1  8  1  0
  5  9  1  0
  6  9  2  0
  8  9  1  6
 10 11  1  0
 13 14  1  0
 13 15  1  0
 13 16  1  0
  2 17  1  6
  2 18  1  0
 21 22  2  0
 22 23  1  0
 23 24  2  0
  8 25  1  0
 24 25  1  0
 21 26  1  0
 25 26  2  0
 27 28  1  0
  1 29  1  0
 28 29  2  0
 29 30  1  0
 13 31  1  0
 27 31  1  0
 30 31  2  0
 10 32  1  0
 32 33  2  0
 33 34  1  0
 34 35  2  0
 12 36  1  0
 35 36  1  0
  5 37  1  0
 32 37  1  0
 36 37  2  0
 38 39  2  0
 39 40  1  0
 40 41  2  0
 41 42  1  0
 18 43  1  0
 38 43  1  0
 42 43  2  0
 45 18  1  6
 44 45  1  0
 45 46  1  0
 47 19  1  0
 20 47  1  0
 46 47  1  0
 44 48  2  0
 47 48  1  0
M  END
