x1077-x2908-x2705-x1311
     RDKit          3D

 49 53  0  0  0  0  0  0  0  0999 V2000
    6.7110   -1.2070   22.2460 N   0  0  0  0  0  0  0  0  0  0  0  0
    6.9500   -4.3390   20.5420 C   0  0  2  0  0  0  0  0  0  0  0  0
    4.7570   -2.9540   21.3740 O   0  0  0  0  0  0  0  0  0  0  0  0
    7.2230   -3.0820   21.1970 C   0  0  0  0  0  0  0  0  0  0  0  0
    7.4230    2.0230   22.8700 N   0  0  0  0  0  0  0  0  0  0  0  0
    8.6570    0.8440   21.2940 O   0  0  0  0  0  0  0  0  0  0  0  0
    6.0360   -2.4060   21.6100 C   0  0  0  0  0  0  0  0  0  0  0  0
    6.5140    0.1950   21.7310 C   0  0  1  0  0  0  0  0  0  0  0  0
    7.6140    1.0090   21.9330 C   0  0  0  0  0  0  0  0  0  0  0  0
   10.1000    2.0880   23.9810 C   0  0  0  0  0  0  0  0  0  0  0  0
    9.2560    1.2720   24.9980 C   0  0  0  0  0  0  0  0  0  0  0  0
    6.1490    4.5850   21.8650 C   0  0  0  0  0  0  0  0  0  0  0  0
   11.9100   -1.3710   23.4180 C   0  0  0  0  0  0  0  0  0  0  0  0
   12.3930   -0.0530   24.0440 C   0  0  0  0  0  0  0  0  0  0  0  0
   12.4640   -2.4790   24.3440 C   0  0  0  0  0  0  0  0  0  0  0  0
   12.6050   -1.4650   22.1070 C   0  0  0  0  0  0  0  0  0  0  0  0
    5.6840   -4.2580   19.8970 O   0  0  0  0  0  0  0  0  0  0  0  0
    6.8370   -5.2500   21.7590 N   0  0  0  0  0  0  0  0  0  0  0  0
    4.3540   -7.4000   25.3550 O   0  0  0  0  0  0  0  0  0  0  0  0
    2.9060   -5.4010   24.7920 O   0  0  0  0  0  0  0  0  0  0  0  0
    4.0540    1.5480   21.2880 C   0  0  0  0  0  0  0  0  0  0  0  0
    6.3750    0.2810   17.9430 N   0  0  0  0  0  0  0  0  0  0  0  0
    5.2270    0.9470   17.8140 C   0  0  0  0  0  0  0  0  0  0  0  0
    4.4490    1.3670   18.8430 C   0  0  0  0  0  0  0  0  0  0  0  0
    4.8790    1.0990   20.1200 C   0  0  0  0  0  0  0  0  0  0  0  0
    6.0780    0.4190   20.3080 C   0  0  0  0  0  0  0  0  0  0  0  0
    6.8240    0.0010   19.1990 C   0  0  0  0  0  0  0  0  0  0  0  0
    9.5510   -1.3380   24.4150 N   0  0  0  0  0  0  0  0  0  0  0  0
    8.2370   -1.3020   24.1460 N   0  0  0  0  0  0  0  0  0  0  0  0
    8.0830   -1.2850   22.8110 C   0  0  0  0  0  0  0  0  0  0  0  0
    9.4080   -1.3220   22.2550 C   0  0  0  0  0  0  0  0  0  0  0  0
   10.3490   -1.3490   23.3210 C   0  0  0  0  0  0  0  0  0  0  0  0
    9.3950    3.3260   23.4800 C   0  0  0  0  0  0  0  0  0  0  0  0
   10.1090    4.5450   23.5830 C   0  0  0  0  0  0  0  0  0  0  0  0
    9.5030    5.7320   23.1260 C   0  0  0  0  0  0  0  0  0  0  0  0
    8.2260    5.6960   22.5800 C   0  0  0  0  0  0  0  0  0  0  0  0
    7.5180    4.4800   22.4800 C   0  0  0  0  0  0  0  0  0  0  0  0
    8.0820    3.2930   22.9270 C   0  0  0  0  0  0  0  0  0  0  0  0
    8.5780   -6.0830   23.1260 C   0  0  0  0  0  0  0  0  0  0  0  0
    9.4610   -5.9630   24.1680 C   0  0  0  0  0  0  0  0  0  0  0  0
    9.5900   -4.8460   24.9970 C   0  0  0  0  0  0  0  0  0  0  0  0
    8.7790   -3.7590   24.7790 C   0  0  0  0  0  0  0  0  0  0  0  0
    7.7410   -3.7970   23.6230 C   0  0  0  0  0  0  0  0  0  0  0  0
    7.7130   -5.0870   22.7890 C   0  0  0  0  0  0  0  0  0  0  0  0
    4.7030   -6.4110   22.0140 C   0  0  0  0  0  0  0  0  0  0  0  0
    5.5130   -5.2690   22.4320 C   0  0  1  0  0  0  0  0  0  0  0  0
    5.4600   -5.2280   23.9670 C   0  0  0  0  0  0  0  0  0  0  0  0
    4.0110   -6.2120   24.3400 S   0  0  0  0  0  0  0  0  0  0  0  0
    3.8130   -6.9310   22.8860 C   0  0  0  0  0  0  0  0  0  0  0  0
  2  4  1  0
  1  7  1  0
  3  7  2  0
  4  7  1  0
  1  8  1  0
  5  9  1  0
  6  9  2  0
  8  9  1  6
 10 11  1  0
 13 14  1  0
 13 15  1  0
 13 16  1  0
  2 17  1  1
  2 18  1  0
 22 23  2  0
 23 24  1  0
 21 25  1  0
 24 25  2  0
  8 26  1  0
 25 26  1  0
 22 27  1  0
 26 27  2  0
 28 29  1  0
  1 30  1  0
 29 30  2  0
 30 31  1  0
 13 32  1  0
 28 32  1  0
 31 32  2  0
 10 33  1  0
 33 34  2  0
 34 35  1  0
 35 36  2  0
 12 37  1  0
 36 37  1  0
  5 38  1  0
 33 38  1  0
 37 38  2  0
 39 40  2  0
 40 41  1  0
 41 42  2  0
 42 43  1  0
 18 44  1  0
 39 44  1  0
 43 44  2  0
 46 18  1  1
 45 46  1  0
 46 47  1  0
 48 19  1  0
 20 48  1  0
 47 48  1  0
 45 49  2  0
 48 49  1  0
M  END
