x1077-x0771-x2705-x2649
     RDKit          3D

 59 67  0  0  0  0  0  0  0  0999 V2000
    6.9450   -1.4120   21.9380 N   0  0  0  0  0  0  0  0  0  0  0  0
    6.9700   -4.5280   20.4430 C   0  0  2  0  0  0  0  0  0  0  0  0
    4.8810   -3.0490   21.2420 O   0  0  0  0  0  0  0  0  0  0  0  0
    7.1750   -3.7520   21.6370 C   0  0  2  0  0  0  0  0  0  0  0  0
    7.4670    2.0200   22.8400 N   0  0  0  0  0  0  0  0  0  0  0  0
    8.7180    1.1920   21.1170 O   0  0  0  0  0  0  0  0  0  0  0  0
    6.1920   -2.6760   21.5800 C   0  0  0  0  0  0  0  0  0  0  0  0
    6.6110    0.0020   21.5220 C   0  0  1  0  0  0  0  0  0  0  0  0
    7.6950    1.1070   21.8270 C   0  0  0  0  0  0  0  0  0  0  0  0
   10.2250    2.1090   23.8780 C   0  0  0  0  0  0  0  0  0  0  0  0
    9.3490    1.1780   24.7040 C   0  0  0  0  0  0  0  0  0  0  0  0
    6.1180    4.4800   21.9420 C   0  0  0  0  0  0  0  0  0  0  0  0
   12.0600   -1.4650   23.3060 C   0  0  0  0  0  0  0  0  0  0  0  0
   12.5440   -0.0970   23.8380 C   0  0  0  0  0  0  0  0  0  0  0  0
   12.5450   -2.5720   24.3060 C   0  0  0  0  0  0  0  0  0  0  0  0
   12.7620   -1.6900   21.9540 C   0  0  0  0  0  0  0  0  0  0  0  0
    5.7670   -4.2980   19.7080 O   0  0  0  0  0  0  0  0  0  0  0  0
    0.6520   -1.3640   26.0850 C   0  0  0  0  0  0  0  0  0  0  0  0
    4.3110   -7.0020   25.8940 O   0  0  0  0  0  0  0  0  0  0  0  0
    6.0850   -5.1980   26.6190 N   0  0  0  0  0  0  0  0  0  0  0  0
    1.8350   -6.1030   24.9210 C   0  0  0  0  0  0  0  0  0  0  0  0
    4.9050   -5.6920   25.7670 S   0  0  2  0  0  0  0  0  0  0  0  0
    4.1140    1.3830   21.3010 C   0  0  0  0  0  0  0  0  0  0  0  0
    6.3150    0.3490   17.7700 N   0  0  0  0  0  0  0  0  0  0  0  0
    5.1660    1.0220   17.7720 C   0  0  0  0  0  0  0  0  0  0  0  0
    4.4160    1.3740   18.8480 C   0  0  0  0  0  0  0  0  0  0  0  0
    4.9000    1.0120   20.0770 C   0  0  0  0  0  0  0  0  0  0  0  0
    6.1050    0.3200   20.1560 C   0  0  0  0  0  0  0  0  0  0  0  0
    6.7650    0.0070   18.9810 C   0  0  0  0  0  0  0  0  0  0  0  0
    9.6660   -1.4580   24.2600 N   0  0  0  0  0  0  0  0  0  0  0  0
    8.3600   -1.4470   23.9200 N   0  0  0  0  0  0  0  0  0  0  0  0
    8.2670   -1.4500   22.5730 C   0  0  0  0  0  0  0  0  0  0  0  0
    9.5890   -1.4670   22.0760 C   0  0  0  0  0  0  0  0  0  0  0  0
   10.5030   -1.4660   23.1910 C   0  0  0  0  0  0  0  0  0  0  0  0
    9.4750    3.3340   23.4320 C   0  0  0  0  0  0  0  0  0  0  0  0
   10.1250    4.5790   23.5240 C   0  0  0  0  0  0  0  0  0  0  0  0
    9.4910    5.7520   23.1180 C   0  0  0  0  0  0  0  0  0  0  0  0
    8.1970    5.6990   22.6100 C   0  0  0  0  0  0  0  0  0  0  0  0
    7.5170    4.4680   22.5070 C   0  0  0  0  0  0  0  0  0  0  0  0
    8.1590    3.2760   22.9280 C   0  0  0  0  0  0  0  0  0  0  0  0
    1.6820   -2.4510   25.9940 C   0  0  0  0  0  0  0  0  0  0  0  0
    1.3300   -3.7240   25.5260 C   0  0  0  0  0  0  0  0  0  0  0  0
    2.2760   -4.7590   25.4340 C   0  0  0  0  0  0  0  0  0  0  0  0
    3.5950   -4.4850   25.8260 C   0  0  0  0  0  0  0  0  0  0  0  0
    3.9570   -3.2110   26.2950 C   0  0  0  0  0  0  0  0  0  0  0  0
    2.9990   -2.2110   26.3730 C   0  0  0  0  0  0  0  0  0  0  0  0
    6.7830   -5.3350   21.6830 C   0  0  1  0  0  0  0  0  0  0  0  0
    5.7110   -6.3660   21.8570 C   0  0  0  0  0  0  0  0  0  0  0  0
    4.7340   -6.1680   23.0370 C   0  0  0  0  0  0  0  0  0  0  0  0
    5.3850   -5.4770   24.1640 N   0  0  0  0  0  0  0  0  0  0  0  0
    5.9210   -4.1980   23.7760 C   0  0  0  0  0  0  0  0  0  0  0  0
    7.0460   -4.5250   22.8890 C   0  0  2  0  0  0  0  0  0  0  0  0
    7.6680   -5.7410   24.8540 O   0  0  0  0  0  0  0  0  0  0  0  0
    8.1750   -5.1200   23.6390 C   0  0  2  0  0  0  0  0  0  0  0  0
    9.2180   -4.2820   23.9230 C   0  0  0  0  0  0  0  0  0  0  0  0
   10.0910   -4.7820   25.0470 C   0  0  0  0  0  0  0  0  0  0  0  0
    9.7800   -4.3590   26.3950 N   0  0  0  0  0  0  0  0  0  0  0  0
    8.5200   -4.9050   26.9370 C   0  0  0  0  0  0  0  0  0  0  0  0
    7.3470   -4.8800   25.9640 C   0  0  2  0  0  0  0  0  0  0  0  0
  2  4  1  0
  1  7  1  0
  3  7  2  0
  4  7  1  1
  1  8  1  0
  5  9  1  0
  6  9  2  0
  8  9  1  6
 10 11  1  0
 13 14  1  0
 13 15  1  0
 13 16  1  0
  2 17  1  1
 19 22  2  0
 20 22  2  0
 24 25  2  0
 25 26  1  0
 23 27  1  0
 26 27  2  0
  8 28  1  0
 27 28  1  0
 24 29  1  0
 28 29  2  0
 30 31  1  0
  1 32  1  0
 31 32  2  0
 32 33  1  0
 13 34  1  0
 30 34  1  0
 33 34  2  0
 10 35  1  0
 35 36  2  0
 36 37  1  0
 37 38  2  0
 12 39  1  0
 38 39  1  0
  5 40  1  0
 35 40  1  0
 39 40  2  0
 18 41  1  0
 41 42  2  0
 21 43  1  0
 42 43  1  0
 22 44  1  1
 43 44  2  0
 44 45  1  0
 41 46  1  0
 45 46  2  0
  2 47  1  0
  4 47  1  0
 47 48  1  1
 48 49  1  0
 22 50  1  0
 49 50  1  0
 50 51  1  0
  4 52  1  0
 47 52  1  0
 52 51  1  1
 52 54  1  0
 53 54  1  0
 54 55  1  1
 55 56  1  0
 56 57  1  0
 57 58  1  0
 20 59  1  0
 53 59  1  0
 59 58  1  1
M  END
