x1086-x0978
     RDKit          3D

 14 13  0  0  0  0  0  0  0  0999 V2000
    1.9010   -9.0450   24.5540 C   0  0  0  0  0  0  0  0  0  0  0  0
    1.1100   -6.7750   23.0940 N   0  0  0  0  0  0  0  0  0  0  0  0
    4.0710   -8.1020   24.4150 O   0  0  0  0  0  0  0  0  0  0  0  0
    2.8770   -7.8730   24.4460 C   0  0  1  0  0  0  0  0  0  0  0  0
    4.7230   -5.6870   22.5260 N   0  0  0  0  0  0  0  0  0  0  0  0
    0.4540   -7.7740   21.0640 O   0  0  0  0  0  0  0  0  0  0  0  0
    2.5550   -7.0440   23.2070 C   0  0  2  0  0  0  0  0  0  0  0  0
    2.8720   -4.6320   23.2400 O   0  0  0  0  0  0  0  0  0  0  0  0
    0.3540   -6.8080   21.8370 C   0  0  0  0  0  0  0  0  0  0  0  0
   -0.4970   -5.7300   21.5060 C   0  0  0  0  0  0  0  0  0  0  0  0
    3.3640   -5.7380   22.9910 C   0  0  0  0  0  0  0  0  0  0  0  0
    5.3130   -4.8730   21.6710 C   0  0  0  0  0  0  0  0  0  0  0  0
    5.9310   -4.0190   20.7720 C   0  0  0  0  0  0  0  0  0  0  0  0
    5.3910   -3.7980   19.5080 C   0  0  0  0  0  0  0  0  0  0  0  0
  4  1  1  6
  3  4  1  0
  7  2  1  1
  4  7  1  0
  2  9  1  0
  6  9  2  0
  9 10  1  0
  5 11  1  0
  7 11  1  0
  8 11  2  0
  5 12  1  0
 12 13  2  3
 13 14  1  0
M  END
