x1086-x0177
     RDKit          3D

 13 13  0  0  0  0  0  0  0  0999 V2000
    5.7780    3.4450   -7.2740 N   0  0  0  0  0  0  0  0  0  0  0  0
    4.1740   -1.5770   -9.1500 C   0  0  0  0  0  0  0  0  0  0  0  0
    4.4390    2.2010   -5.9190 O   0  0  0  0  0  0  0  0  0  0  0  0
    6.7830    1.5620   -5.8010 O   0  0  0  0  0  0  0  0  0  0  0  0
    5.4080    0.9310   -8.0370 C   0  0  0  0  0  0  0  0  0  0  0  0
    8.1720   -3.9130   -7.9890 F   0  0  0  0  0  0  0  0  0  0  0  0
    5.6360    1.9420   -6.5770 S   0  0  0  0  0  0  0  0  0  0  0  0
    5.5400   -1.5620   -8.5220 C   0  0  0  0  0  0  0  0  0  0  0  0
    6.1110   -0.3970   -7.9820 C   0  0  0  0  0  0  0  0  0  0  0  0
    7.3810   -0.4620   -7.3900 C   0  0  0  0  0  0  0  0  0  0  0  0
    8.0900   -1.6430   -7.3600 C   0  0  0  0  0  0  0  0  0  0  0  0
    7.5180   -2.7690   -7.9370 C   0  0  0  0  0  0  0  0  0  0  0  0
    6.2640   -2.7450   -8.4940 C   0  0  0  0  0  0  0  0  0  0  0  0
  7  1  1  0
  3  7  2  0
  4  7  2  0
  5  7  1  0
  2  8  1  0
  5  9  1  0
  8  9  2  0
  9 10  1  0
 10 11  2  0
  6 12  1  0
 11 12  1  0
  8 13  1  0
 12 13  2  0
M  END
