x1086-x0771
     RDKit          3D

 20 21  0  0  0  0  0  0  0  0999 V2000
    0.4810   -1.4690   26.1900 C   0  0  0  0  0  0  0  0  0  0  0  0
    4.3990   -6.8800   25.8520 O   0  0  0  0  0  0  0  0  0  0  0  0
    6.0260   -5.2030   26.7530 O   0  0  0  0  0  0  0  0  0  0  0  0
    5.5190   -4.2850   19.8600 O   0  0  0  0  0  0  0  0  0  0  0  0
    2.0090   -6.0410   25.0570 C   0  0  0  0  0  0  0  0  0  0  0  0
    6.2830   -3.9810   20.7900 C   0  0  0  0  0  0  0  0  0  0  0  0
    6.7620   -2.6540   20.9210 C   0  0  0  0  0  0  0  0  0  0  0  0
    5.0150   -5.5730   25.7970 S   0  0  0  0  0  0  0  0  0  0  0  0
    1.6150   -2.4410   26.0910 C   0  0  0  0  0  0  0  0  0  0  0  0
    1.3950   -3.7340   25.6490 C   0  0  0  0  0  0  0  0  0  0  0  0
    2.4010   -4.6730   25.5490 C   0  0  0  0  0  0  0  0  0  0  0  0
    3.7150   -4.3560   25.8970 C   0  0  0  0  0  0  0  0  0  0  0  0
    4.1130   -3.1000   26.3510 C   0  0  0  0  0  0  0  0  0  0  0  0
    3.0280   -2.0090   26.4810 C   0  0  0  0  0  0  0  0  0  0  0  0
    6.7460   -4.8850   21.7300 N   0  0  0  0  0  0  0  0  0  0  0  0
    5.9480   -6.1170   21.9370 C   0  0  0  0  0  0  0  0  0  0  0  0
    4.9520   -5.9560   23.0750 C   0  0  0  0  0  0  0  0  0  0  0  0
    5.6860   -5.3900   24.2560 N   0  0  0  0  0  0  0  0  0  0  0  0
    6.4510   -4.1460   23.9350 C   0  0  0  0  0  0  0  0  0  0  0  0
    7.4130   -4.4420   22.9680 C   0  0  0  0  0  0  0  0  0  0  0  0
  4  6  2  0
  6  7  1  0
  2  8  2  0
  3  8  2  0
  1  9  1  0
  9 10  2  0
  5 11  1  0
 10 11  1  0
  8 12  1  0
 11 12  2  0
 12 13  1  0
  9 14  1  0
 13 14  2  0
  6 15  1  0
 15 16  1  0
 16 17  1  0
  8 18  1  0
 17 18  1  0
 18 19  1  0
 15 20  1  0
 19 20  1  0
M  END
