x1086-x1402
     RDKit          3D

 18 19  0  0  0  0  0  0  0  0999 V2000
    7.3120   -3.1380   20.7650 C   0  0  0  0  0  0  0  0  0  0  0  0
    5.4820   -4.4780   19.9090 O   0  0  0  0  0  0  0  0  0  0  0  0
    0.7530   -1.3350   26.1800 Cl  0  0  0  0  0  0  0  0  0  0  0  0
    6.3710   -4.3520   20.7570 C   0  0  0  0  0  0  0  0  0  0  0  0
    4.0440   -6.4190   25.8880 O   0  0  0  0  0  0  0  0  0  0  0  0
    6.0480   -5.1790   26.7750 O   0  0  0  0  0  0  0  0  0  0  0  0
    4.9860   -5.3260   25.8100 S   0  0  0  0  0  0  0  0  0  0  0  0
    6.6320   -5.2490   21.7620 N   0  0  0  0  0  0  0  0  0  0  0  0
    7.3950   -4.8390   22.9320 C   0  0  0  0  0  0  0  0  0  0  0  0
    6.5580   -4.3540   23.9480 C   0  0  0  0  0  0  0  0  0  0  0  0
    5.6520   -5.3500   24.2530 N   0  0  0  0  0  0  0  0  0  0  0  0
    4.8580   -5.8050   23.2180 C   0  0  0  0  0  0  0  0  0  0  0  0
    5.6540   -6.2590   22.1550 C   0  0  0  0  0  0  0  0  0  0  0  0
    2.3140   -3.8430   25.9380 S   0  0  0  0  0  0  0  0  0  0  0  0
    4.0370   -3.8370   25.9330 C   0  0  0  0  0  0  0  0  0  0  0  0
    4.5840   -2.5680   26.0330 C   0  0  0  0  0  0  0  0  0  0  0  0
    3.6640   -1.5500   26.1220 C   0  0  0  0  0  0  0  0  0  0  0  0
    2.2550   -2.1520   26.0860 C   0  0  0  0  0  0  0  0  0  0  0  0
  1  4  1  0
  2  4  2  0
  5  7  2  0
  6  7  2  0
  4  8  1  0
  8  9  1  0
  9 10  1  0
  7 11  1  0
 10 11  1  0
 11 12  1  0
  8 13  1  0
 12 13  1  0
  7 15  1  0
 14 15  1  0
 15 16  2  0
 16 17  1  0
  3 18  1  0
 14 18  1  0
 17 18  2  0
M  END
