x1086-x1385
     RDKit          3D

 13 13  0  0  0  0  0  0  0  0999 V2000
    5.7690    3.4620   -7.1820 N   0  0  0  0  0  0  0  0  0  0  0  0
    4.1820   -1.5660   -9.1500 C   0  0  0  0  0  0  0  0  0  0  0  0
    4.4510    2.1750   -5.8890 O   0  0  0  0  0  0  0  0  0  0  0  0
    6.7980    1.5580   -5.7650 O   0  0  0  0  0  0  0  0  0  0  0  0
    5.4240    0.9450   -8.0160 C   0  0  0  0  0  0  0  0  0  0  0  0
    8.1680   -3.9180   -7.9950 F   0  0  0  0  0  0  0  0  0  0  0  0
    5.6490    1.9360   -6.5390 S   0  0  0  0  0  0  0  0  0  0  0  0
    5.5430   -1.5520   -8.5220 C   0  0  0  0  0  0  0  0  0  0  0  0
    6.1180   -0.3900   -7.9730 C   0  0  0  0  0  0  0  0  0  0  0  0
    7.3870   -0.4650   -7.3810 C   0  0  0  0  0  0  0  0  0  0  0  0
    8.0920   -1.6520   -7.3560 C   0  0  0  0  0  0  0  0  0  0  0  0
    7.5180   -2.7740   -7.9400 C   0  0  0  0  0  0  0  0  0  0  0  0
    6.2650   -2.7400   -8.4990 C   0  0  0  0  0  0  0  0  0  0  0  0
  7  1  1  0
  3  7  2  0
  4  7  2  0
  5  7  1  0
  2  8  1  0
  5  9  1  0
  8  9  2  0
  9 10  1  0
 10 11  2  0
  6 12  1  0
 11 12  1  0
  8 13  1  0
 12 13  2  0
M  END
