x1086-x0774
     RDKit          3D

 20 21  0  0  0  0  0  0  0  0999 V2000
    6.2840   -2.1810   18.9930 C   0  0  0  0  0  0  0  0  0  0  0  0
    5.3290   -4.3010   19.6610 O   0  0  0  0  0  0  0  0  0  0  0  0
    5.9910   -3.3150   19.9810 C   0  0  0  0  0  0  0  0  0  0  0  0
    8.1210   -0.7410   25.1740 O   0  0  0  0  0  0  0  0  0  0  0  0
   10.8590   -2.4430   23.8400 N   0  0  0  0  0  0  0  0  0  0  0  0
    5.7890   -1.5730   25.7340 O   0  0  0  0  0  0  0  0  0  0  0  0
    9.9710   -3.0740   24.8240 C   0  0  0  0  0  0  0  0  0  0  0  0
    7.1320   -1.7910   25.2510 S   0  0  0  0  0  0  0  0  0  0  0  0
    6.5230   -3.2410   21.2390 N   0  0  0  0  0  0  0  0  0  0  0  0
    6.1030   -4.1570   22.2900 C   0  0  0  0  0  0  0  0  0  0  0  0
    5.9480   -3.4750   23.4970 C   0  0  0  0  0  0  0  0  0  0  0  0
    7.0480   -2.4860   23.6940 N   0  0  0  0  0  0  0  0  0  0  0  0
    7.3120   -1.6540   22.6200 C   0  0  0  0  0  0  0  0  0  0  0  0
    7.5520   -2.4540   21.5020 C   0  0  0  0  0  0  0  0  0  0  0  0
    7.0180   -3.7390   27.1870 C   0  0  0  0  0  0  0  0  0  0  0  0
    7.4630   -4.8120   27.9610 C   0  0  0  0  0  0  0  0  0  0  0  0
    8.8690   -5.4100   27.7080 C   0  0  0  0  0  0  0  0  0  0  0  0
    9.7370   -4.8100   26.6190 C   0  0  0  0  0  0  0  0  0  0  0  0
    9.1580   -3.6530   25.8470 C   0  0  0  0  0  0  0  0  0  0  0  0
    7.7870   -3.1540   26.1710 C   0  0  0  0  0  0  0  0  0  0  0  0
  1  3  1  0
  2  3  2  0
  5  7  3  0
  4  8  2  0
  6  8  2  0
  3  9  1  0
  9 10  1  0
 10 11  1  0
  8 12  1  0
 11 12  1  0
 12 13  1  0
  9 14  1  0
 13 14  1  0
 15 16  2  0
 16 17  1  0
 17 18  2  0
  7 19  1  0
 18 19  1  0
  8 20  1  0
 15 20  1  0
 19 20  2  0
M  END
