x1086-x0831
     RDKit          3D

 13 13  0  0  0  0  0  0  0  0999 V2000
    5.7690    3.4580   -7.1810 N   0  0  0  0  0  0  0  0  0  0  0  0
    4.1840   -1.5660   -9.1420 C   0  0  0  0  0  0  0  0  0  0  0  0
    4.4530    2.1760   -5.8810 O   0  0  0  0  0  0  0  0  0  0  0  0
    6.7990    1.5590   -5.7630 O   0  0  0  0  0  0  0  0  0  0  0  0
    5.4220    0.9380   -8.0120 C   0  0  0  0  0  0  0  0  0  0  0  0
    8.1800   -3.9100   -7.9980 F   0  0  0  0  0  0  0  0  0  0  0  0
    5.6460    1.9360   -6.5370 S   0  0  0  0  0  0  0  0  0  0  0  0
    5.5480   -1.5540   -8.5160 C   0  0  0  0  0  0  0  0  0  0  0  0
    6.1200   -0.3910   -7.9680 C   0  0  0  0  0  0  0  0  0  0  0  0
    7.3910   -0.4610   -7.3780 C   0  0  0  0  0  0  0  0  0  0  0  0
    8.0960   -1.6470   -7.3570 C   0  0  0  0  0  0  0  0  0  0  0  0
    7.5250   -2.7710   -7.9410 C   0  0  0  0  0  0  0  0  0  0  0  0
    6.2710   -2.7400   -8.4970 C   0  0  0  0  0  0  0  0  0  0  0  0
  7  1  1  0
  3  7  2  0
  4  7  2  0
  5  7  1  0
  2  8  1  0
  5  9  1  0
  8  9  2  0
  9 10  1  0
 10 11  2  0
  6 12  1  0
 11 12  1  0
  8 13  1  0
 12 13  2  0
M  END
