x1086-x1493
     RDKit          3D

 13 13  0  0  0  0  0  0  0  0999 V2000
    5.7680    3.4520   -7.1780 N   0  0  0  0  0  0  0  0  0  0  0  0
    4.1720   -1.5730   -9.1410 C   0  0  0  0  0  0  0  0  0  0  0  0
    4.4590    2.1710   -5.8710 O   0  0  0  0  0  0  0  0  0  0  0  0
    6.8030    1.5460   -5.7690 O   0  0  0  0  0  0  0  0  0  0  0  0
    5.4220    0.9450   -8.0110 C   0  0  0  0  0  0  0  0  0  0  0  0
    8.1770   -3.9050   -7.9910 F   0  0  0  0  0  0  0  0  0  0  0  0
    5.6500    1.9280   -6.5330 S   0  0  0  0  0  0  0  0  0  0  0  0
    5.5370   -1.5530   -8.5150 C   0  0  0  0  0  0  0  0  0  0  0  0
    6.1130   -0.3890   -7.9700 C   0  0  0  0  0  0  0  0  0  0  0  0
    7.3820   -0.4580   -7.3810 C   0  0  0  0  0  0  0  0  0  0  0  0
    8.0930   -1.6430   -7.3560 C   0  0  0  0  0  0  0  0  0  0  0  0
    7.5210   -2.7650   -7.9360 C   0  0  0  0  0  0  0  0  0  0  0  0
    6.2640   -2.7360   -8.4920 C   0  0  0  0  0  0  0  0  0  0  0  0
  7  1  1  0
  3  7  2  0
  4  7  2  0
  5  7  1  0
  2  8  1  0
  5  9  1  0
  8  9  2  0
  9 10  1  0
 10 11  2  0
  6 12  1  0
 11 12  1  0
  8 13  1  0
 12 13  2  0
M  END
