x1086-x0669
     RDKit          3D

 13 13  0  0  0  0  0  0  0  0999 V2000
    5.7630    3.4930   -7.1950 N   0  0  0  0  0  0  0  0  0  0  0  0
    4.0940   -1.4590   -9.3160 C   0  0  0  0  0  0  0  0  0  0  0  0
    4.4480    2.2090   -5.8810 O   0  0  0  0  0  0  0  0  0  0  0  0
    6.7770    1.5440   -5.8340 O   0  0  0  0  0  0  0  0  0  0  0  0
    5.3330    1.0160   -8.0640 C   0  0  0  0  0  0  0  0  0  0  0  0
    7.9910   -3.8750   -8.0500 F   0  0  0  0  0  0  0  0  0  0  0  0
    5.6190    1.9640   -6.5720 S   0  0  0  0  0  0  0  0  0  0  0  0
    5.4220   -1.4790   -8.6370 C   0  0  0  0  0  0  0  0  0  0  0  0
    5.9860   -0.3340   -8.0370 C   0  0  0  0  0  0  0  0  0  0  0  0
    7.2190   -0.4410   -7.3940 C   0  0  0  0  0  0  0  0  0  0  0  0
    7.8840   -1.6360   -7.3730 C   0  0  0  0  0  0  0  0  0  0  0  0
    7.3470   -2.7340   -8.0020 C   0  0  0  0  0  0  0  0  0  0  0  0
    6.1260   -2.6740   -8.6150 C   0  0  0  0  0  0  0  0  0  0  0  0
  7  1  1  0
  3  7  2  0
  4  7  2  0
  5  7  1  0
  2  8  1  0
  5  9  1  0
  8  9  2  0
  9 10  1  0
 10 11  2  0
  6 12  1  0
 11 12  1  0
  8 13  1  0
 12 13  2  0
M  END
