x1086-x0072
     RDKit          3D

 13 13  0  0  0  0  0  0  0  0999 V2000
    5.7680    3.4920   -7.1870 N   0  0  0  0  0  0  0  0  0  0  0  0
    4.1010   -1.4530   -9.3180 C   0  0  0  0  0  0  0  0  0  0  0  0
    4.4480    2.2040   -5.8800 O   0  0  0  0  0  0  0  0  0  0  0  0
    6.7810    1.5480   -5.8360 O   0  0  0  0  0  0  0  0  0  0  0  0
    5.3350    1.0050   -8.0670 C   0  0  0  0  0  0  0  0  0  0  0  0
    7.9710   -3.8840   -8.0480 F   0  0  0  0  0  0  0  0  0  0  0  0
    5.6210    1.9590   -6.5730 S   0  0  0  0  0  0  0  0  0  0  0  0
    5.4260   -1.4790   -8.6330 C   0  0  0  0  0  0  0  0  0  0  0  0
    5.9910   -0.3400   -8.0350 C   0  0  0  0  0  0  0  0  0  0  0  0
    7.2200   -0.4410   -7.3920 C   0  0  0  0  0  0  0  0  0  0  0  0
    7.8830   -1.6340   -7.3700 C   0  0  0  0  0  0  0  0  0  0  0  0
    7.3390   -2.7370   -7.9980 C   0  0  0  0  0  0  0  0  0  0  0  0
    6.1220   -2.6780   -8.6080 C   0  0  0  0  0  0  0  0  0  0  0  0
  7  1  1  0
  3  7  2  0
  4  7  2  0
  5  7  1  0
  2  8  1  0
  5  9  1  0
  8  9  2  0
  9 10  1  0
 10 11  2  0
  6 12  1  0
 11 12  1  0
  8 13  1  0
 12 13  2  0
M  END
