x1086-x0426
     RDKit          3D

 13 13  0  0  0  0  0  0  0  0999 V2000
    5.7670    3.4550   -7.1810 N   0  0  0  0  0  0  0  0  0  0  0  0
    4.1860   -1.5780   -9.1390 C   0  0  0  0  0  0  0  0  0  0  0  0
    4.4610    2.1740   -5.8710 O   0  0  0  0  0  0  0  0  0  0  0  0
    6.8050    1.5580   -5.7590 O   0  0  0  0  0  0  0  0  0  0  0  0
    5.4210    0.9430   -8.0060 C   0  0  0  0  0  0  0  0  0  0  0  0
    8.1880   -3.9040   -7.9920 F   0  0  0  0  0  0  0  0  0  0  0  0
    5.6530    1.9320   -6.5300 S   0  0  0  0  0  0  0  0  0  0  0  0
    5.5480   -1.5550   -8.5130 C   0  0  0  0  0  0  0  0  0  0  0  0
    6.1180   -0.3880   -7.9660 C   0  0  0  0  0  0  0  0  0  0  0  0
    7.3880   -0.4560   -7.3770 C   0  0  0  0  0  0  0  0  0  0  0  0
    8.0970   -1.6380   -7.3540 C   0  0  0  0  0  0  0  0  0  0  0  0
    7.5300   -2.7630   -7.9360 C   0  0  0  0  0  0  0  0  0  0  0  0
    6.2770   -2.7380   -8.4920 C   0  0  0  0  0  0  0  0  0  0  0  0
  7  1  1  0
  3  7  2  0
  4  7  2  0
  5  7  1  0
  2  8  1  0
  5  9  1  0
  8  9  2  0
  9 10  1  0
 10 11  2  0
  6 12  1  0
 11 12  1  0
  8 13  1  0
 12 13  2  0
M  END
