x1086-x1380
     RDKit          3D

 13 13  0  0  0  0  0  0  0  0999 V2000
    5.7630    3.4950   -7.1860 N   0  0  0  0  0  0  0  0  0  0  0  0
    4.0980   -1.4650   -9.3280 C   0  0  0  0  0  0  0  0  0  0  0  0
    4.4490    2.2100   -5.8740 O   0  0  0  0  0  0  0  0  0  0  0  0
    6.7770    1.5470   -5.8200 O   0  0  0  0  0  0  0  0  0  0  0  0
    5.3330    1.0160   -8.0600 C   0  0  0  0  0  0  0  0  0  0  0  0
    7.9950   -3.8720   -8.0540 F   0  0  0  0  0  0  0  0  0  0  0  0
    5.6220    1.9630   -6.5620 S   0  0  0  0  0  0  0  0  0  0  0  0
    5.4270   -1.4770   -8.6400 C   0  0  0  0  0  0  0  0  0  0  0  0
    5.9890   -0.3340   -8.0350 C   0  0  0  0  0  0  0  0  0  0  0  0
    7.2180   -0.4380   -7.3930 C   0  0  0  0  0  0  0  0  0  0  0  0
    7.8870   -1.6300   -7.3720 C   0  0  0  0  0  0  0  0  0  0  0  0
    7.3530   -2.7310   -8.0040 C   0  0  0  0  0  0  0  0  0  0  0  0
    6.1320   -2.6740   -8.6190 C   0  0  0  0  0  0  0  0  0  0  0  0
  7  1  1  0
  3  7  2  0
  4  7  2  0
  5  7  1  0
  2  8  1  0
  5  9  1  0
  8  9  2  0
  9 10  1  0
 10 11  2  0
  6 12  1  0
 11 12  1  0
  8 13  1  0
 12 13  2  0
M  END
