x1093-x1348
     RDKit          3D

 35 39  0  0  0  0  0  0  0  0999 V2000
    7.0990   -4.1090   21.7220 N   0  0  0  0  0  0  0  0  0  0  0  0
    6.7800   -5.0880   28.2300 C   0  0  0  0  0  0  0  0  0  0  0  0
    6.5960   -4.6070   26.8920 O   0  0  0  0  0  0  0  0  0  0  0  0
    5.6930   -4.4270   19.9030 O   0  0  0  0  0  0  0  0  0  0  0  0
    6.7470   -4.0190   20.4340 C   0  0  0  0  0  0  0  0  0  0  0  0
    7.9150   -3.2890   19.8490 C   0  0  0  0  0  0  0  0  0  0  0  0
   13.3150   -1.6850   23.8190 C   0  0  0  0  0  0  0  0  0  0  0  0
    8.5670    1.2100   20.9170 O   0  0  0  0  0  0  0  0  0  0  0  0
    8.6310    0.0090   21.2820 C   0  0  0  0  0  0  0  0  0  0  0  0
    7.5580   -0.8290   20.8650 C   0  0  2  0  0  0  0  0  0  0  0  0
    7.6440   -1.8170   19.6670 C   0  0  0  0  0  0  0  0  0  0  0  0
    5.7820   -5.4150   26.1370 C   0  0  0  0  0  0  0  0  0  0  0  0
    5.8550   -5.3340   24.7530 C   0  0  0  0  0  0  0  0  0  0  0  0
    5.0320   -6.1360   23.9440 C   0  0  0  0  0  0  0  0  0  0  0  0
    4.1520   -7.0060   24.5610 C   0  0  0  0  0  0  0  0  0  0  0  0
    4.0740   -7.0980   25.9560 C   0  0  0  0  0  0  0  0  0  0  0  0
    4.8960   -6.2980   26.7510 C   0  0  0  0  0  0  0  0  0  0  0  0
    6.6940   -4.5040   24.0850 N   0  0  0  0  0  0  0  0  0  0  0  0
    6.4680   -4.7230   22.6920 C   0  0  0  0  0  0  0  0  0  0  0  0
    5.3020   -5.8600   22.2530 S   0  0  0  0  0  0  0  0  0  0  0  0
   11.9740   -1.1680   23.7550 N   0  0  0  0  0  0  0  0  0  0  0  0
   11.9370    0.1450   23.1130 C   0  0  0  0  0  0  0  0  0  0  0  0
   10.5030    0.6320   22.8390 C   0  0  0  0  0  0  0  0  0  0  0  0
    9.7020   -0.3520   22.0970 N   0  0  0  0  0  0  0  0  0  0  0  0
    9.7040   -1.6760   22.7410 C   0  0  0  0  0  0  0  0  0  0  0  0
   11.1310   -2.1570   23.0580 C   0  0  0  0  0  0  0  0  0  0  0  0
    6.1760    0.7810   17.8830 N   0  0  0  0  0  0  0  0  0  0  0  0
    7.0430    0.0450   18.6290 C   0  0  0  0  0  0  0  0  0  0  0  0
    6.7960   -0.0340   19.9300 C   0  0  0  0  0  0  0  0  0  0  0  0
    5.6600    0.7300   20.1390 C   0  0  0  0  0  0  0  0  0  0  0  0
    5.2990    1.1950   18.7640 C   0  0  0  0  0  0  0  0  0  0  0  0
    4.1870    1.9440   18.5920 N   0  0  0  0  0  0  0  0  0  0  0  0
    3.4440    2.3170   19.6820 C   0  0  0  0  0  0  0  0  0  0  0  0
    3.7560    1.9330   20.9330 C   0  0  0  0  0  0  0  0  0  0  0  0
    4.9130    1.0920   21.1700 C   0  0  0  0  0  0  0  0  0  0  0  0
  2  3  1  0
  1  5  1  0
  4  5  2  0
  5  6  1  0
  8  9  2  0
  9 10  1  0
  6 11  1  0
 10 11  1  6
  3 12  1  0
 12 13  2  0
 13 14  1  0
 14 15  2  0
 15 16  1  0
 12 17  1  0
 16 17  2  0
 13 18  1  0
  1 19  1  0
 18 19  2  0
 14 20  1  0
 19 20  1  0
  7 21  1  0
 21 22  1  0
 22 23  1  0
  9 24  1  0
 23 24  1  0
 24 25  1  0
 21 26  1  0
 25 26  1  0
 27 28  1  0
 10 29  1  0
 28 29  2  0
 29 30  1  0
 27 31  2  0
 30 31  1  0
 31 32  1  0
 32 33  1  0
 33 34  2  0
 30 35  2  0
 34 35  1  0
M  END
