x1093-x0387
     RDKit          3D

 27 30  0  0  0  0  0  0  0  0999 V2000
   13.3550   -1.7780   24.1810 C   0  0  0  0  0  0  0  0  0  0  0  0
    8.8340    1.5800   21.2330 O   0  0  0  0  0  0  0  0  0  0  0  0
    8.8680    0.4070   21.6170 C   0  0  0  0  0  0  0  0  0  0  0  0
    7.6900   -0.5150   21.2810 C   0  0  0  0  0  0  0  0  0  0  0  0
    9.0970   -4.2610   27.8490 O   0  0  0  0  0  0  0  0  0  0  0  0
    9.4240   -1.7870   24.0940 C   0  0  0  0  0  0  0  0  0  0  0  0
   12.1560   -1.2650   23.5070 N   0  0  0  0  0  0  0  0  0  0  0  0
   12.2300    0.1210   23.3080 C   0  0  0  0  0  0  0  0  0  0  0  0
   10.8240    0.7340   23.1590 C   0  0  0  0  0  0  0  0  0  0  0  0
    9.9660   -0.1310   22.3560 N   0  0  0  0  0  0  0  0  0  0  0  0
   10.0180   -1.5520   22.6770 C   0  0  1  0  0  0  0  0  0  0  0  0
   11.3490   -1.8910   22.5620 C   0  0  0  0  0  0  0  0  0  0  0  0
    6.2490    0.1180   17.9330 N   0  0  0  0  0  0  0  0  0  0  0  0
    7.2460   -0.5200   18.5970 C   0  0  0  0  0  0  0  0  0  0  0  0
    7.1320   -0.2840   19.9190 C   0  0  0  0  0  0  0  0  0  0  0  0
    6.0920    0.4780   20.2130 C   0  0  0  0  0  0  0  0  0  0  0  0
    5.5530    0.7210   18.9330 C   0  0  0  0  0  0  0  0  0  0  0  0
    4.4510    1.4780   18.7000 N   0  0  0  0  0  0  0  0  0  0  0  0
    3.8320    2.0200   19.7480 C   0  0  0  0  0  0  0  0  0  0  0  0
    4.2740    1.8550   21.1370 C   0  0  0  0  0  0  0  0  0  0  0  0
    5.4780    1.0240   21.2720 C   0  0  0  0  0  0  0  0  0  0  0  0
    9.2010   -4.9910   26.6360 C   0  0  0  0  0  0  0  0  0  0  0  0
    8.1190   -4.6750   25.8200 C   0  0  0  0  0  0  0  0  0  0  0  0
    8.1630   -3.3700   25.3220 C   0  0  0  0  0  0  0  0  0  0  0  0
    9.4240   -3.1780   24.5870 N   0  0  0  0  0  0  0  0  0  0  0  0
   10.5110   -3.3680   25.3570 C   0  0  0  0  0  0  0  0  0  0  0  0
   10.4940   -4.6490   25.9170 C   0  0  0  0  0  0  0  0  0  0  0  0
  2  3  2  0
  3  4  1  0
  1  7  1  0
  7  8  1  0
  8  9  1  0
  3 10  1  0
  9 10  1  0
 11  6  1  1
 10 11  1  0
  7 12  1  0
 11 12  1  0
 13 14  1  0
  4 15  1  0
 14 15  2  0
 15 16  1  0
 13 17  1  0
 16 17  2  0
 17 18  1  0
 18 19  2  0
 19 20  1  0
 16 21  1  0
 20 21  2  0
  5 22  1  0
 22 23  1  0
 23 24  1  0
  6 25  1  0
 24 25  1  0
 25 26  1  0
 22 27  1  0
 26 27  1  0
M  END
