x1093-x0678
     RDKit          3D

 19 21  0  0  0  0  0  0  0  0999 V2000
   13.2540   -1.8330   24.2980 C   0  0  0  0  0  0  0  0  0  0  0  0
    8.9160    1.3300   21.2320 O   0  0  0  0  0  0  0  0  0  0  0  0
    8.9020    0.1550   21.6400 C   0  0  0  0  0  0  0  0  0  0  0  0
    7.9710   -0.8660   20.9860 C   0  0  0  0  0  0  0  0  0  0  0  0
   12.0310   -1.1360   23.8420 N   0  0  0  0  0  0  0  0  0  0  0  0
   12.1510    0.1350   23.0930 C   0  0  0  0  0  0  0  0  0  0  0  0
   10.7690    0.7080   22.8810 C   0  0  0  0  0  0  0  0  0  0  0  0
    9.7230   -0.3150   22.7100 N   0  0  0  0  0  0  0  0  0  0  0  0
    9.8890   -1.7530   22.7740 C   0  0  0  0  0  0  0  0  0  0  0  0
   11.3210   -2.0470   23.0660 C   0  0  0  0  0  0  0  0  0  0  0  0
    6.2160    0.2340   17.9160 N   0  0  0  0  0  0  0  0  0  0  0  0
    7.2680   -0.4940   18.6390 C   0  0  0  0  0  0  0  0  0  0  0  0
    7.0590   -0.2700   19.9620 C   0  0  0  0  0  0  0  0  0  0  0  0
    5.9550    0.5290   20.1360 C   0  0  0  0  0  0  0  0  0  0  0  0
    5.4920    0.8030   18.8850 C   0  0  0  0  0  0  0  0  0  0  0  0
    4.3720    1.5970   18.6340 N   0  0  0  0  0  0  0  0  0  0  0  0
    3.7540    2.0840   19.7130 C   0  0  0  0  0  0  0  0  0  0  0  0
    4.1250    1.8770   21.0180 C   0  0  0  0  0  0  0  0  0  0  0  0
    5.2990    1.0510   21.2630 C   0  0  0  0  0  0  0  0  0  0  0  0
  2  3  2  0
  3  4  1  0
  1  5  1  0
  5  6  1  0
  6  7  1  0
  3  8  1  0
  7  8  1  0
  8  9  1  0
  5 10  1  0
  9 10  1  0
 11 12  1  0
  4 13  1  0
 12 13  2  0
 13 14  1  0
 11 15  1  0
 14 15  2  0
 15 16  1  0
 16 17  2  0
 17 18  1  0
 14 19  1  0
 18 19  2  0
M  END
