x1093-x0107
     RDKit          3D

 19 21  0  0  0  0  0  0  0  0999 V2000
   13.2630   -1.7730   24.3230 C   0  0  0  0  0  0  0  0  0  0  0  0
    8.9100    1.3280   21.2450 O   0  0  0  0  0  0  0  0  0  0  0  0
    8.8940    0.1540   21.6600 C   0  0  0  0  0  0  0  0  0  0  0  0
    7.9710   -0.8700   20.9920 C   0  0  0  0  0  0  0  0  0  0  0  0
   12.0210   -1.1140   23.8690 N   0  0  0  0  0  0  0  0  0  0  0  0
   12.1330    0.1540   23.1160 C   0  0  0  0  0  0  0  0  0  0  0  0
   10.7520    0.7180   22.8920 C   0  0  0  0  0  0  0  0  0  0  0  0
    9.7080   -0.3100   22.7420 N   0  0  0  0  0  0  0  0  0  0  0  0
    9.8980   -1.7500   22.7770 C   0  0  0  0  0  0  0  0  0  0  0  0
   11.3280   -2.0370   23.0960 C   0  0  0  0  0  0  0  0  0  0  0  0
    6.2160    0.2330   17.9190 N   0  0  0  0  0  0  0  0  0  0  0  0
    7.2680   -0.4980   18.6410 C   0  0  0  0  0  0  0  0  0  0  0  0
    7.0590   -0.2740   19.9650 C   0  0  0  0  0  0  0  0  0  0  0  0
    5.9540    0.5250   20.1400 C   0  0  0  0  0  0  0  0  0  0  0  0
    5.4940    0.8000   18.8890 C   0  0  0  0  0  0  0  0  0  0  0  0
    4.3770    1.5960   18.6360 N   0  0  0  0  0  0  0  0  0  0  0  0
    3.7580    2.0830   19.7110 C   0  0  0  0  0  0  0  0  0  0  0  0
    4.1250    1.8740   21.0190 C   0  0  0  0  0  0  0  0  0  0  0  0
    5.2960    1.0470   21.2640 C   0  0  0  0  0  0  0  0  0  0  0  0
  2  3  2  0
  3  4  1  0
  1  5  1  0
  5  6  1  0
  6  7  1  0
  3  8  1  0
  7  8  1  0
  8  9  1  0
  5 10  1  0
  9 10  1  0
 11 12  1  0
  4 13  1  0
 12 13  2  0
 13 14  1  0
 11 15  1  0
 14 15  2  0
 15 16  1  0
 16 17  2  0
 17 18  1  0
 14 19  1  0
 18 19  2  0
M  END
