x1093-x2563
     RDKit          3D

 20 24  0  0  0  0  0  0  0  0999 V2000
   13.1280   -1.6580   24.4970 C   0  0  0  0  0  0  0  0  0  0  0  0
    8.9500    1.4090   21.5040 O   0  0  0  0  0  0  0  0  0  0  0  0
    8.9270    0.1790   21.6930 C   0  0  1  0  0  0  0  0  0  0  0  0
    7.6330   -0.5650   21.3170 C   0  0  0  0  0  0  0  0  0  0  0  0
   10.0890   -0.5610   21.7280 N   0  0  0  0  0  0  0  0  0  0  0  0
   11.9140   -1.0310   23.9760 N   0  0  0  0  0  0  0  0  0  0  0  0
   12.2160   -0.1370   22.8280 C   0  0  0  0  0  0  0  0  0  0  0  0
   11.0050    0.3880   23.5610 C   0  0  0  0  0  0  0  0  0  0  0  0
    9.7290   -0.3720   23.0590 C   0  0  1  0  0  0  0  0  0  0  0  0
    9.9560   -1.6290   22.7880 C   0  0  2  0  0  0  0  0  0  0  0  0
   11.0650   -2.0290   23.4830 C   0  0  0  0  0  0  0  0  0  0  0  0
    6.3400    0.1170   17.8990 N   0  0  0  0  0  0  0  0  0  0  0  0
    7.3060   -0.5490   18.6030 C   0  0  0  0  0  0  0  0  0  0  0  0
    7.1280   -0.3130   19.9240 C   0  0  0  0  0  0  0  0  0  0  0  0
    6.0810    0.4430   20.1860 C   0  0  0  0  0  0  0  0  0  0  0  0
    5.6150    0.7130   18.8950 C   0  0  0  0  0  0  0  0  0  0  0  0
    4.5380    1.4960   18.6370 N   0  0  0  0  0  0  0  0  0  0  0  0
    3.8360    2.0020   19.6520 C   0  0  0  0  0  0  0  0  0  0  0  0
    4.2130    1.7760   21.0570 C   0  0  0  0  0  0  0  0  0  0  0  0
    5.4190    0.9490   21.2390 C   0  0  0  0  0  0  0  0  0  0  0  0
  3  2  1  1
  3  4  1  0
  3  5  1  0
  1  6  1  0
  6  7  1  0
  7  8  1  0
  3  9  1  0
  5  9  1  0
  9  8  1  1
  5 10  1  0
  9 10  1  0
  6 11  1  0
 10 11  1  1
 12 13  1  0
  4 14  1  0
 13 14  2  0
 14 15  1  0
 12 16  2  0
 15 16  1  0
 16 17  1  0
 17 18  1  0
 18 19  2  0
 15 20  2  0
 19 20  1  0
M  END
