x1093-x1308
     RDKit          3D

 39 43  0  0  0  0  0  0  0  0999 V2000
    7.5200   -3.0550   20.7940 C   0  0  0  0  0  0  0  0  0  0  0  0
    5.6680   -4.2740   20.0770 O   0  0  0  0  0  0  0  0  0  0  0  0
    0.5990   -1.1720   26.3820 Cl  0  0  0  0  0  0  0  0  0  0  0  0
    6.6110   -4.1460   20.8900 C   0  0  0  0  0  0  0  0  0  0  0  0
    6.3860   -5.1090   26.9040 O   0  0  0  0  0  0  0  0  0  0  0  0
    4.7170   -6.9020   26.1690 O   0  0  0  0  0  0  0  0  0  0  0  0
    5.3520   -5.4580   25.9570 S   0  0  0  0  0  0  0  0  0  0  0  0
   13.4090   -1.6400   23.4850 C   0  0  0  0  0  0  0  0  0  0  0  0
    8.6920    1.3710   21.2850 O   0  0  0  0  0  0  0  0  0  0  0  0
    8.7600    0.1850   21.6960 C   0  0  0  0  0  0  0  0  0  0  0  0
    8.1330   -0.8700   20.9920 C   0  0  1  0  0  0  0  0  0  0  0  0
    7.4450   -1.9160   21.6190 C   0  0  0  0  0  0  0  0  0  0  0  0
    6.8540   -5.0740   21.8880 N   0  0  0  0  0  0  0  0  0  0  0  0
    7.6310   -4.7170   23.0000 C   0  0  0  0  0  0  0  0  0  0  0  0
    6.9310   -4.2330   24.0890 C   0  0  0  0  0  0  0  0  0  0  0  0
    5.9480   -5.3050   24.3680 N   0  0  0  0  0  0  0  0  0  0  0  0
    5.1370   -5.7380   23.2590 C   0  0  0  0  0  0  0  0  0  0  0  0
    5.8590   -6.1300   22.1310 C   0  0  0  0  0  0  0  0  0  0  0  0
    4.3170   -2.9400   26.4220 C   0  0  0  0  0  0  0  0  0  0  0  0
    3.2020   -1.8800   26.5340 C   0  0  0  0  0  0  0  0  0  0  0  0
    1.8990   -2.2920   26.2670 C   0  0  0  0  0  0  0  0  0  0  0  0
    1.6590   -3.6080   25.9100 C   0  0  0  0  0  0  0  0  0  0  0  0
    2.7440   -4.6690   25.7930 C   0  0  0  0  0  0  0  0  0  0  0  0
    4.0340   -4.2660   26.0630 C   0  0  0  0  0  0  0  0  0  0  0  0
   12.0810   -1.1520   23.7300 N   0  0  0  0  0  0  0  0  0  0  0  0
   11.9510    0.2840   23.4010 C   0  0  0  0  0  0  0  0  0  0  0  0
   10.5090    0.8360   23.4400 C   0  0  0  0  0  0  0  0  0  0  0  0
    9.5300   -0.0870   22.8240 N   0  0  0  0  0  0  0  0  0  0  0  0
    9.7100   -1.4990   23.1750 C   0  0  0  0  0  0  0  0  0  0  0  0
   11.1430   -1.9850   22.9870 C   0  0  0  0  0  0  0  0  0  0  0  0
    6.2940    0.1970   18.0340 N   0  0  0  0  0  0  0  0  0  0  0  0
    7.2990   -0.4520   18.6560 C   0  0  0  0  0  0  0  0  0  0  0  0
    7.1800   -0.2940   19.9970 C   0  0  0  0  0  0  0  0  0  0  0  0
    6.0050    0.4970   20.2030 C   0  0  0  0  0  0  0  0  0  0  0  0
    5.4880    0.7840   18.9430 C   0  0  0  0  0  0  0  0  0  0  0  0
    4.4040    1.4980   18.6350 N   0  0  0  0  0  0  0  0  0  0  0  0
    3.7680    1.9670   19.7200 C   0  0  0  0  0  0  0  0  0  0  0  0
    4.1590    1.7630   21.0350 C   0  0  0  0  0  0  0  0  0  0  0  0
    5.3070    1.0140   21.2990 C   0  0  0  0  0  0  0  0  0  0  0  0
  1  4  1  0
  2  4  2  0
  5  7  2  0
  6  7  2  0
  9 10  2  0
 10 11  1  0
  1 12  1  0
 11 12  1  1
  4 13  1  0
 13 14  1  0
 14 15  1  0
  7 16  1  0
 15 16  1  0
 16 17  1  0
 13 18  1  0
 17 18  1  0
 19 20  2  0
  3 21  1  0
 20 21  1  0
 21 22  2  0
 22 23  1  0
  7 24  1  0
 19 24  1  0
 23 24  2  0
  8 25  1  0
 25 26  1  0
 26 27  1  0
 10 28  1  0
 27 28  1  0
 28 29  1  0
 25 30  1  0
 29 30  1  0
 31 32  1  0
 11 33  1  0
 32 33  2  0
 33 34  1  0
 31 35  1  0
 34 35  2  0
 35 36  1  0
 36 37  2  0
 37 38  1  0
 34 39  1  0
 38 39  2  0
M  END
