x1093-x0736
     RDKit          3D

 35 40  0  0  0  0  0  0  0  0999 V2000
    7.4190   -3.0590   18.8020 C   0  0  0  0  0  0  0  0  0  0  0  0
    5.4620   -4.0910   19.7180 O   0  0  0  0  0  0  0  0  0  0  0  0
    6.4870   -3.3720   19.9030 C   0  0  0  0  0  0  0  0  0  0  0  0
    6.1170   -2.0980   24.9390 O   0  0  0  0  0  0  0  0  0  0  0  0
    7.3330   -2.0610   24.7640 C   0  0  0  0  0  0  0  0  0  0  0  0
   13.3430   -1.1130   22.9560 C   0  0  0  0  0  0  0  0  0  0  0  0
    8.9090    1.5390   21.1440 O   0  0  0  0  0  0  0  0  0  0  0  0
    8.7410    0.4240   21.7050 C   0  0  0  0  0  0  0  0  0  0  0  0
    7.6040   -0.5480   21.3440 C   0  0  2  0  0  0  0  0  0  0  0  0
    6.8110   -2.8850   21.1820 N   0  0  0  0  0  0  0  0  0  0  0  0
    7.9120   -2.0200   21.4660 C   0  0  2  0  0  0  0  0  0  0  0  0
    8.6920   -2.3440   22.6120 C   0  0  2  0  0  0  0  0  0  0  0  0
    7.9090   -2.9150   23.7900 N   0  0  0  0  0  0  0  0  0  0  0  0
    7.2590   -4.1490   23.4650 C   0  0  0  0  0  0  0  0  0  0  0  0
    6.6730   -3.8730   22.2550 C   0  0  0  0  0  0  0  0  0  0  0  0
    8.5170   -0.1150   25.0580 O   0  0  0  0  0  0  0  0  0  0  0  0
    8.0900   -1.2320   25.5080 C   0  0  0  0  0  0  0  0  0  0  0  0
    8.5190   -1.4300   26.8470 C   0  0  0  0  0  0  0  0  0  0  0  0
    9.2390   -0.3430   27.1560 C   0  0  0  0  0  0  0  0  0  0  0  0
    9.1750    0.4270   25.9540 C   0  0  0  0  0  0  0  0  0  0  0  0
   12.0670   -0.7300   23.2690 N   0  0  0  0  0  0  0  0  0  0  0  0
   11.9250    0.6180   23.1050 C   0  0  0  0  0  0  0  0  0  0  0  0
   10.5560    0.9670   23.2680 C   0  0  0  0  0  0  0  0  0  0  0  0
    9.5460    0.0050   22.6840 N   0  0  0  0  0  0  0  0  0  0  0  0
    9.8310   -1.3910   22.9400 C   0  0  2  0  0  0  0  0  0  0  0  0
   11.1580   -1.4450   22.5650 C   0  0  0  0  0  0  0  0  0  0  0  0
    6.3790    0.2140   18.0200 N   0  0  0  0  0  0  0  0  0  0  0  0
    7.2690   -0.4050   18.8380 C   0  0  0  0  0  0  0  0  0  0  0  0
    6.9830   -0.1410   20.1540 C   0  0  0  0  0  0  0  0  0  0  0  0
    5.8870    0.6230   20.1770 C   0  0  0  0  0  0  0  0  0  0  0  0
    5.5010    0.8640   18.8550 C   0  0  0  0  0  0  0  0  0  0  0  0
    4.4130    1.6370   18.5730 N   0  0  0  0  0  0  0  0  0  0  0  0
    3.6750    2.1370   19.6030 C   0  0  0  0  0  0  0  0  0  0  0  0
    4.0210    1.9090   20.9330 C   0  0  0  0  0  0  0  0  0  0  0  0
    5.1490    1.1480   21.2410 C   0  0  0  0  0  0  0  0  0  0  0  0
  1  3  1  0
  2  3  2  0
  4  5  2  0
  7  8  2  0
  8  9  1  0
  3 10  1  0
  9 11  1  0
 11 10  1  1
 11 12  1  0
  5 13  1  0
 12 13  1  1
 13 14  1  0
 10 15  1  0
 14 15  1  0
  5 17  1  0
 16 17  1  0
 17 18  2  0
 18 19  1  0
 16 20  1  0
 19 20  2  0
  6 21  1  0
 21 22  1  0
 22 23  1  0
  8 24  1  0
 23 24  1  0
 12 25  1  0
 24 25  1  0
 21 26  1  0
 25 26  1  6
 27 28  1  0
  9 29  1  6
 28 29  2  0
 29 30  1  0
 27 31  2  0
 30 31  1  0
 31 32  1  0
 32 33  1  0
 33 34  2  0
 30 35  2  0
 34 35  1  0
M  END
