x1093-x1412
     RDKit          3D

 35 40  0  0  0  0  0  0  0  0999 V2000
    7.3900   -2.9880   18.8120 C   0  0  0  0  0  0  0  0  0  0  0  0
    5.4620   -4.0490   19.7210 O   0  0  0  0  0  0  0  0  0  0  0  0
    6.4880   -3.3320   19.9290 C   0  0  0  0  0  0  0  0  0  0  0  0
    8.2350   -1.6670   25.6530 O   0  0  0  0  0  0  0  0  0  0  0  0
    8.2670   -2.8020   25.1760 C   0  0  0  0  0  0  0  0  0  0  0  0
   13.1840   -1.3080   22.4970 C   0  0  0  0  0  0  0  0  0  0  0  0
    8.8150    1.6250   21.1130 O   0  0  0  0  0  0  0  0  0  0  0  0
    8.8000    0.4480   21.5530 C   0  0  0  0  0  0  0  0  0  0  0  0
    8.0160   -0.7180   20.8750 C   0  0  1  0  0  0  0  0  0  0  0  0
    6.8140   -2.9350   21.2550 N   0  0  0  0  0  0  0  0  0  0  0  0
    7.4010   -1.7380   21.7980 C   0  0  1  0  0  0  0  0  0  0  0  0
    8.2030   -1.8080   22.9790 C   0  0  1  0  0  0  0  0  0  0  0  0
    8.0770   -3.0230   23.8210 N   0  0  0  0  0  0  0  0  0  0  0  0
    7.8280   -4.3070   23.2390 C   0  0  0  0  0  0  0  0  0  0  0  0
    7.0460   -4.0400   22.1640 C   0  0  0  0  0  0  0  0  0  0  0  0
    9.3290   -5.0970   25.5780 C   0  0  0  0  0  0  0  0  0  0  0  0
    8.5160   -4.0240   25.9710 C   0  0  0  0  0  0  0  0  0  0  0  0
    7.7880   -4.2070   27.5120 S   0  0  0  0  0  0  0  0  0  0  0  0
    8.5360   -5.7240   27.7070 C   0  0  0  0  0  0  0  0  0  0  0  0
    9.3630   -6.1000   26.5630 C   0  0  0  0  0  0  0  0  0  0  0  0
   11.9220   -0.7510   22.5270 N   0  0  0  0  0  0  0  0  0  0  0  0
   11.7400    0.1670   23.5240 C   0  0  0  0  0  0  0  0  0  0  0  0
   10.6600    0.9610   23.0830 C   0  0  0  0  0  0  0  0  0  0  0  0
    9.4900    0.1190   22.6530 N   0  0  0  0  0  0  0  0  0  0  0  0
    9.6290   -1.2750   22.9700 C   0  0  2  0  0  0  0  0  0  0  0  0
   10.8730   -1.6330   22.4130 C   0  0  0  0  0  0  0  0  0  0  0  0
    6.3220    0.2510   17.8960 N   0  0  0  0  0  0  0  0  0  0  0  0
    7.2960   -0.3770   18.5790 C   0  0  0  0  0  0  0  0  0  0  0  0
    7.1620   -0.2010   19.9080 C   0  0  0  0  0  0  0  0  0  0  0  0
    6.0460    0.5340   20.1110 C   0  0  0  0  0  0  0  0  0  0  0  0
    5.5220    0.8320   18.8450 C   0  0  0  0  0  0  0  0  0  0  0  0
    4.3970    1.5840   18.6860 N   0  0  0  0  0  0  0  0  0  0  0  0
    3.7400    2.0200   19.7970 C   0  0  0  0  0  0  0  0  0  0  0  0
    4.2140    1.7400   21.0800 C   0  0  0  0  0  0  0  0  0  0  0  0
    5.3870    0.9930   21.2610 C   0  0  0  0  0  0  0  0  0  0  0  0
  1  3  1  0
  2  3  2  0
  4  5  2  0
  7  8  2  0
  8  9  1  0
  3 10  1  0
  9 11  1  0
 11 10  1  6
 11 12  1  0
  5 13  1  0
 12 13  1  6
 13 14  1  0
 10 15  1  0
 14 15  1  0
  5 17  1  0
 16 17  2  0
 17 18  1  0
 18 19  1  0
 16 20  1  0
 19 20  2  0
  6 21  1  0
 21 22  1  0
 22 23  1  0
  8 24  1  0
 23 24  1  0
 12 25  1  0
 24 25  1  0
 21 26  1  0
 25 26  1  6
 27 28  1  0
  9 29  1  1
 28 29  2  0
 29 30  1  0
 27 31  2  0
 30 31  1  0
 31 32  1  0
 32 33  1  0
 33 34  2  0
 30 35  2  0
 34 35  1  0
M  END
