x1093-x2643
     RDKit          3D

 21 25  0  0  0  0  0  0  0  0999 V2000
   13.3920   -1.7670   23.5100 C   0  0  0  0  0  0  0  0  0  0  0  0
    8.8920    1.8450   21.2320 O   0  0  0  0  0  0  0  0  0  0  0  0
    8.8890    0.6900   21.6700 C   0  0  0  0  0  0  0  0  0  0  0  0
    7.8410   -0.3780   21.5020 C   0  0  2  0  0  0  0  0  0  0  0  0
    6.7880   -0.3120   22.4970 N   0  0  0  0  0  0  0  0  0  0  0  0
    8.8740   -1.3760   22.0540 C   0  0  2  0  0  0  0  0  0  0  0  0
   12.0160   -1.4270   23.7800 N   0  0  0  0  0  0  0  0  0  0  0  0
   11.8390    0.0270   23.7310 C   0  0  0  0  0  0  0  0  0  0  0  0
   10.3650    0.3130   23.7870 C   0  0  0  0  0  0  0  0  0  0  0  0
    9.7470   -0.1280   22.4560 C   0  0  2  0  0  0  0  0  0  0  0  0
   10.3990   -1.4150   21.9890 C   0  0  1  0  0  0  0  0  0  0  0  0
   11.1400   -2.2100   22.8780 C   0  0  0  0  0  0  0  0  0  0  0  0
    6.3980   -0.1190   18.0350 N   0  0  0  0  0  0  0  0  0  0  0  0
    7.3540   -0.6450   18.9100 C   0  0  0  0  0  0  0  0  0  0  0  0
    7.1370   -0.2010   20.2150 C   0  0  0  0  0  0  0  0  0  0  0  0
    5.9940    0.5490   20.1230 C   0  0  0  0  0  0  0  0  0  0  0  0
    5.5930    0.6210   18.7850 C   0  0  0  0  0  0  0  0  0  0  0  0
    4.5250    1.3660   18.4000 N   0  0  0  0  0  0  0  0  0  0  0  0
    3.7380    1.9550   19.3330 C   0  0  0  0  0  0  0  0  0  0  0  0
    4.0840    1.8810   20.8020 C   0  0  0  0  0  0  0  0  0  0  0  0
    5.2480    1.1680   21.0670 C   0  0  0  0  0  0  0  0  0  0  0  0
  2  3  2  0
  3  4  1  0
  4  5  1  1
  6  4  1  6
  1  7  1  0
  7  8  1  0
  8  9  1  0
 10  3  1  0
  6 10  1  0
 10  9  1  1
  6 11  1  0
 10 11  1  0
  7 12  1  0
 11 12  1  1
 13 14  1  0
  4 15  1  0
 14 15  2  0
 15 16  1  0
 13 17  2  0
 16 17  1  0
 17 18  1  0
 18 19  1  0
 19 20  2  0
 16 21  2  0
 20 21  1  0
M  END
