x1093-x0689
     RDKit          3D

 37 41  0  0  0  0  0  0  0  0999 V2000
    7.3480   -3.2780   19.8940 C   0  0  0  0  0  0  0  0  0  0  0  0
    5.3040   -4.5300   19.8930 O   0  0  0  0  0  0  0  0  0  0  0  0
    6.3820   -4.2800   20.4800 C   0  0  0  0  0  0  0  0  0  0  0  0
    3.8400   -6.3850   25.8330 O   0  0  0  0  0  0  0  0  0  0  0  0
    5.5410   -4.8160   26.8210 O   0  0  0  0  0  0  0  0  0  0  0  0
    4.6160   -5.1710   25.7690 S   0  0  0  0  0  0  0  0  0  0  0  0
   13.2770   -1.5000   24.1650 C   0  0  0  0  0  0  0  0  0  0  0  0
    8.7960    1.1960   21.1490 O   0  0  0  0  0  0  0  0  0  0  0  0
    8.7770    0.0090   21.5610 C   0  0  0  0  0  0  0  0  0  0  0  0
    7.6510   -0.9190   21.1450 C   0  0  2  0  0  0  0  0  0  0  0  0
    8.0740   -2.4110   20.9980 C   0  0  0  0  0  0  0  0  0  0  0  0
    6.6230   -5.0100   21.6700 N   0  0  0  0  0  0  0  0  0  0  0  0
    5.8000   -6.0830   22.0880 C   0  0  0  0  0  0  0  0  0  0  0  0
    4.8440   -5.7990   23.0910 C   0  0  0  0  0  0  0  0  0  0  0  0
    5.5160   -5.2120   24.3230 N   0  0  0  0  0  0  0  0  0  0  0  0
    6.3070   -4.0310   24.1110 C   0  0  0  0  0  0  0  0  0  0  0  0
    6.8440   -4.1980   22.8670 C   0  0  0  0  0  0  0  0  0  0  0  0
    3.9410   -2.2100   26.0270 S   0  0  0  0  0  0  0  0  0  0  0  0
    3.5440   -3.8580   25.7050 C   0  0  0  0  0  0  0  0  0  0  0  0
    2.1950   -4.0160   25.3810 C   0  0  0  0  0  0  0  0  0  0  0  0
    1.4740   -2.8550   25.3910 C   0  0  0  0  0  0  0  0  0  0  0  0
    2.3130   -1.7060   25.7430 C   0  0  0  0  0  0  0  0  0  0  0  0
   11.9460   -1.0690   23.7910 N   0  0  0  0  0  0  0  0  0  0  0  0
   11.9770    0.1750   23.2310 C   0  0  0  0  0  0  0  0  0  0  0  0
   10.6150    0.5200   23.1890 C   0  0  0  0  0  0  0  0  0  0  0  0
    9.7710   -0.4600   22.4120 N   0  0  0  0  0  0  0  0  0  0  0  0
   10.1270   -1.8620   22.6050 C   0  0  0  0  0  0  0  0  0  0  0  0
   11.4850   -1.9350   22.8720 C   0  0  0  0  0  0  0  0  0  0  0  0
    6.3400    0.2190   17.8800 N   0  0  0  0  0  0  0  0  0  0  0  0
    7.2140   -0.4900   18.6250 C   0  0  0  0  0  0  0  0  0  0  0  0
    6.9690   -0.3520   19.9530 C   0  0  0  0  0  0  0  0  0  0  0  0
    5.8900    0.4520   20.0580 C   0  0  0  0  0  0  0  0  0  0  0  0
    5.4950    0.8190   18.7680 C   0  0  0  0  0  0  0  0  0  0  0  0
    4.4310    1.6450   18.5600 N   0  0  0  0  0  0  0  0  0  0  0  0
    3.7440    2.0720   19.6480 C   0  0  0  0  0  0  0  0  0  0  0  0
    4.0720    1.7410   20.9560 C   0  0  0  0  0  0  0  0  0  0  0  0
    5.1770    0.9160   21.1760 C   0  0  0  0  0  0  0  0  0  0  0  0
  1  3  1  0
  2  3  2  0
  4  6  2  0
  5  6  2  0
  8  9  2  0
  9 10  1  0
  1 11  1  0
 10 11  1  6
  3 12  1  0
 12 13  1  0
 13 14  1  0
  6 15  1  0
 14 15  1  0
 15 16  1  0
 12 17  1  0
 16 17  1  0
  6 19  1  0
 18 19  1  0
 19 20  2  0
 20 21  1  0
 18 22  1  0
 21 22  2  0
  7 23  1  0
 23 24  1  0
 24 25  1  0
  9 26  1  0
 25 26  1  0
 26 27  1  0
 23 28  1  0
 27 28  1  0
 29 30  1  0
 10 31  1  0
 30 31  2  0
 31 32  1  0
 29 33  2  0
 32 33  1  0
 33 34  1  0
 34 35  1  0
 35 36  2  0
 32 37  2  0
 36 37  1  0
M  END
