x1093-x1478
     RDKit          3D

 31 34  0  0  0  0  0  0  0  0999 V2000
   13.3120   -1.6720   24.3090 C   0  0  0  0  0  0  0  0  0  0  0  0
    8.7100    0.8450   21.1820 O   0  0  0  0  0  0  0  0  0  0  0  0
    8.8610   -0.3470   21.4600 C   0  0  0  0  0  0  0  0  0  0  0  0
    7.8110   -1.3860   20.9420 C   0  0  2  0  0  0  0  0  0  0  0  0
    5.7690   -2.5990   21.3810 N   0  0  0  0  0  0  0  0  0  0  0  0
    7.3010   -3.9120   20.3670 C   0  0  0  0  0  0  0  0  0  0  0  0
    5.2100   -3.5440   19.3320 O   0  0  0  0  0  0  0  0  0  0  0  0
    5.6310   -5.7820   22.2860 Cl  0  0  0  0  0  0  0  0  0  0  0  0
    5.9860   -3.3420   20.2860 C   0  0  0  0  0  0  0  0  0  0  0  0
    8.2120   -2.6660   20.2370 C   0  0  0  0  0  0  0  0  0  0  0  0
   11.9900   -1.3480   23.8370 N   0  0  0  0  0  0  0  0  0  0  0  0
   12.0390   -0.1040   23.0540 C   0  0  0  0  0  0  0  0  0  0  0  0
   10.7250    0.3680   22.9820 C   0  0  0  0  0  0  0  0  0  0  0  0
    9.9750   -0.6910   22.2840 N   0  0  0  0  0  0  0  0  0  0  0  0
    9.8700   -1.8350   22.9660 C   0  0  0  0  0  0  0  0  0  0  0  0
   11.1460   -2.2820   23.1920 C   0  0  0  0  0  0  0  0  0  0  0  0
    6.3050    0.2860   17.9180 N   0  0  0  0  0  0  0  0  0  0  0  0
    7.1610   -0.5320   18.5830 C   0  0  0  0  0  0  0  0  0  0  0  0
    7.0110   -0.5820   19.9620 C   0  0  0  0  0  0  0  0  0  0  0  0
    5.9560    0.2920   20.1870 C   0  0  0  0  0  0  0  0  0  0  0  0
    5.5400    0.8130   18.8830 C   0  0  0  0  0  0  0  0  0  0  0  0
    4.5550    1.6820   18.6370 N   0  0  0  0  0  0  0  0  0  0  0  0
    3.9170    2.0840   19.7430 C   0  0  0  0  0  0  0  0  0  0  0  0
    4.2070    1.6750   21.0470 C   0  0  0  0  0  0  0  0  0  0  0  0
    5.2420    0.7650   21.2890 C   0  0  0  0  0  0  0  0  0  0  0  0
    5.0280   -4.6090   24.4230 N   0  0  0  0  0  0  0  0  0  0  0  0
    5.3610   -4.3230   23.1530 C   0  0  0  0  0  0  0  0  0  0  0  0
    5.4590   -3.0410   22.6450 C   0  0  0  0  0  0  0  0  0  0  0  0
    5.2110   -1.9950   23.4880 C   0  0  0  0  0  0  0  0  0  0  0  0
    4.8730   -2.2390   24.7850 C   0  0  0  0  0  0  0  0  0  0  0  0
    4.7890   -3.5540   25.2160 C   0  0  0  0  0  0  0  0  0  0  0  0
  2  3  2  0
  3  4  1  0
  5  9  1  0
  6  9  1  0
  7  9  2  0
  4 10  1  6
  6 10  1  0
  1 11  1  0
 11 12  1  0
 12 13  1  0
  3 14  1  0
 13 14  1  0
 14 15  1  0
 11 16  1  0
 15 16  1  0
 17 18  1  0
  4 19  1  0
 18 19  2  0
 19 20  1  0
 17 21  1  0
 20 21  2  0
 21 22  1  0
 22 23  2  0
 23 24  1  0
 20 25  1  0
 24 25  2  0
  8 27  1  0
 26 27  2  0
  5 28  1  0
 27 28  1  0
 28 29  2  0
 29 30  1  0
 26 31  1  0
 30 31  2  0
M  END
