x1093-x0434
     RDKit          3D

 20 24  0  0  0  0  0  0  0  0999 V2000
   13.1200   -1.8020   24.4560 C   0  0  0  0  0  0  0  0  0  0  0  0
    8.8180    1.3800   21.4910 O   0  0  0  0  0  0  0  0  0  0  0  0
    8.7840    0.1610   21.7620 C   0  0  2  0  0  0  0  0  0  0  0  0
    7.6110   -0.6690   21.2140 C   0  0  0  0  0  0  0  0  0  0  0  0
    9.2400   -0.4090   22.9360 N   0  0  0  0  0  0  0  0  0  0  0  0
   12.0530   -1.0940   23.7430 N   0  0  0  0  0  0  0  0  0  0  0  0
   12.6170   -0.1820   22.6950 C   0  0  0  0  0  0  0  0  0  0  0  0
   11.2200    0.2190   23.0640 C   0  0  0  0  0  0  0  0  0  0  0  0
   10.2980   -0.4930   22.0580 C   0  0  2  0  0  0  0  0  0  0  0  0
   10.0200   -1.6590   22.5390 C   0  0  1  0  0  0  0  0  0  0  0  0
   11.1730   -2.0520   23.1930 C   0  0  0  0  0  0  0  0  0  0  0  0
    6.3260    0.2120   17.8520 N   0  0  0  0  0  0  0  0  0  0  0  0
    7.2910   -0.4910   18.5320 C   0  0  0  0  0  0  0  0  0  0  0  0
    7.1060   -0.3250   19.8530 C   0  0  0  0  0  0  0  0  0  0  0  0
    6.0670    0.4260   20.1490 C   0  0  0  0  0  0  0  0  0  0  0  0
    5.5920    0.7570   18.8730 C   0  0  0  0  0  0  0  0  0  0  0  0
    4.4990    1.5470   18.6530 N   0  0  0  0  0  0  0  0  0  0  0  0
    3.8270    2.0170   19.7040 C   0  0  0  0  0  0  0  0  0  0  0  0
    4.2240    1.7390   21.0940 C   0  0  0  0  0  0  0  0  0  0  0  0
    5.4240    0.8920   21.2320 C   0  0  0  0  0  0  0  0  0  0  0  0
  3  2  1  1
  3  4  1  0
  3  5  1  0
  1  6  1  0
  6  7  1  0
  7  8  1  0
  3  9  1  0
  5  9  1  0
  9  8  1  1
  5 10  1  0
  9 10  1  0
  6 11  1  0
 10 11  1  1
 12 13  1  0
  4 14  1  0
 13 14  2  0
 14 15  1  0
 12 16  2  0
 15 16  1  0
 16 17  1  0
 17 18  1  0
 18 19  2  0
 15 20  2  0
 19 20  1  0
M  END
