x1093-x0830
     RDKit          3D

 32 37  0  0  0  0  0  0  0  0999 V2000
    7.7020   -3.6560   19.7080 C   0  0  0  0  0  0  0  0  0  0  0  0
    5.4430   -3.3690   19.4170 O   0  0  0  0  0  0  0  0  0  0  0  0
    6.4750   -3.0210   20.1170 C   0  0  0  0  0  0  0  0  0  0  0  0
    9.9550   -2.5910   23.4960 C   0  0  0  0  0  0  0  0  0  0  0  0
   11.8450   -1.4840   22.9810 C   0  0  0  0  0  0  0  0  0  0  0  0
    7.2070    0.7520   22.1240 O   0  0  0  0  0  0  0  0  0  0  0  0
    8.0060   -0.1580   22.0050 C   0  0  0  0  0  0  0  0  0  0  0  0
    6.5770   -2.1320   21.2540 N   0  0  0  0  0  0  0  0  0  0  0  0
    6.5770   -2.7260   22.5280 C   0  0  0  0  0  0  0  0  0  0  0  0
    7.8460   -3.4920   22.8600 C   0  0  0  0  0  0  0  0  0  0  0  0
    8.9970   -2.6830   22.4160 N   0  0  0  0  0  0  0  0  0  0  0  0
    8.7620   -1.5710   21.5170 C   0  0  1  0  0  0  0  0  0  0  0  0
    7.6080   -1.1580   21.1560 C   0  0  2  0  0  0  0  0  0  0  0  0
   12.4560   -1.9170   22.6260 C   0  0  0  0  0  0  0  0  0  0  0  0
   13.2950   -0.8890   22.4840 C   0  0  0  0  0  0  0  0  0  0  0  0
   13.1750    0.4470   22.8010 C   0  0  0  0  0  0  0  0  0  0  0  0
   11.9580    0.7940   23.3740 C   0  0  0  0  0  0  0  0  0  0  0  0
   10.8620   -0.1890   23.6500 C   0  0  0  0  0  0  0  0  0  0  0  0
   11.0740   -1.6030   23.2620 C   0  0  0  0  0  0  0  0  0  0  0  0
   11.7690    2.0190   23.6710 C   0  0  0  0  0  0  0  0  0  0  0  0
   10.5780    2.4620   24.2560 C   0  0  0  0  0  0  0  0  0  0  0  0
    9.5690    1.5440   24.5370 C   0  0  0  0  0  0  0  0  0  0  0  0
    9.6780    0.2330   24.2490 C   0  0  0  0  0  0  0  0  0  0  0  0
    6.5150    0.4980   17.9800 N   0  0  0  0  0  0  0  0  0  0  0  0
    7.3790   -0.3740   18.6180 C   0  0  0  0  0  0  0  0  0  0  0  0
    7.0800   -0.4190   19.9390 C   0  0  0  0  0  0  0  0  0  0  0  0
    5.9990    0.4280   20.1050 C   0  0  0  0  0  0  0  0  0  0  0  0
    5.6450    0.9990   18.8930 C   0  0  0  0  0  0  0  0  0  0  0  0
    4.6680    1.8650   18.6050 N   0  0  0  0  0  0  0  0  0  0  0  0
    3.9410    2.2000   19.6780 C   0  0  0  0  0  0  0  0  0  0  0  0
    4.1600    1.7200   20.9660 C   0  0  0  0  0  0  0  0  0  0  0  0
    5.2030    0.8200   21.1970 C   0  0  0  0  0  0  0  0  0  0  0  0
  1  3  1  0
  2  3  2  0
  6  7  2  0
  3  8  1  0
  8  9  1  0
  9 10  1  0
  4 11  1  0
 10 11  1  0
 12  7  1  1
 11 12  1  0
  7 13  1  0
  8 13  1  0
 12 13  1  0
  5 15  1  0
 14 15  2  0
 15 16  1  0
 16 17  2  0
 17 18  1  0
  4 19  1  0
 14 19  1  0
 18 19  2  0
 17 20  1  0
 20 21  2  0
 21 22  1  0
 18 23  1  0
 22 23  2  0
 24 25  1  0
 13 26  1  6
 25 26  2  0
 26 27  1  0
 24 28  1  0
 27 28  2  0
 28 29  1  0
 29 30  2  0
 30 31  1  0
 27 32  1  0
 31 32  2  0
M  END
