x1119-x0759
     RDKit          3D

 17 18  0  0  0  0  0  0  0  0999 V2000
   20.7950    7.9230   22.5550 N   0  0  0  0  0  0  0  0  0  0  0  0
   22.6300    2.1630   25.0420 O   0  0  0  0  0  0  0  0  0  0  0  0
   23.6860    3.6440   26.8590 N   0  0  0  0  0  0  0  0  0  0  0  0
   24.9020    3.0700   24.7050 O   0  0  0  0  0  0  0  0  0  0  0  0
   23.5690    3.2130   25.2330 S   0  0  0  0  0  0  0  0  0  0  0  0
   21.4630    6.8400   23.1270 C   0  0  0  0  0  0  0  0  0  0  0  0
   22.5340    6.1220   22.3710 C   0  0  0  0  0  0  0  0  0  0  0  0
   23.2190    4.9540   23.0580 C   0  0  0  0  0  0  0  0  0  0  0  0
   22.7930    4.5790   24.4390 C   0  0  0  0  0  0  0  0  0  0  0  0
   21.7760    5.3170   25.0630 C   0  0  0  0  0  0  0  0  0  0  0  0
   21.1460    6.4000   24.4250 C   0  0  0  0  0  0  0  0  0  0  0  0
   24.7740    4.8150   28.5080 N   0  0  0  0  0  0  0  0  0  0  0  0
   25.7050    5.7220   28.8970 C   0  0  0  0  0  0  0  0  0  0  0  0
   26.5460    6.4160   28.0230 C   0  0  0  0  0  0  0  0  0  0  0  0
   26.4680    6.2030   26.6390 C   0  0  0  0  0  0  0  0  0  0  0  0
   25.5440    5.2940   26.1510 C   0  0  0  0  0  0  0  0  0  0  0  0
   24.6740    4.5900   27.1830 C   0  0  0  0  0  0  0  0  0  0  0  0
  2  5  2  0
  5  3  1  0
  4  5  2  0
  1  6  1  0
  6  7  2  0
  7  8  1  0
  5  9  1  0
  8  9  2  0
  9 10  1  0
  6 11  1  0
 10 11  2  0
 12 13  2  0
 13 14  1  0
 14 15  2  0
 15 16  1  0
  3 17  1  0
 12 17  1  0
 16 17  2  0
M  END
