x1119-x0350
     RDKit          3D

 17 18  0  0  0  0  0  0  0  0999 V2000
   20.7920    7.9180   22.5680 N   0  0  0  0  0  0  0  0  0  0  0  0
   22.6470    2.1470   25.0350 O   0  0  0  0  0  0  0  0  0  0  0  0
   23.7190    3.6060   26.8580 N   0  0  0  0  0  0  0  0  0  0  0  0
   24.9070    3.0690   24.6880 O   0  0  0  0  0  0  0  0  0  0  0  0
   23.5780    3.2030   25.2290 S   0  0  0  0  0  0  0  0  0  0  0  0
   21.4610    6.8330   23.1410 C   0  0  0  0  0  0  0  0  0  0  0  0
   22.5280    6.1170   22.3830 C   0  0  0  0  0  0  0  0  0  0  0  0
   23.2150    4.9490   23.0680 C   0  0  0  0  0  0  0  0  0  0  0  0
   22.7920    4.5740   24.4490 C   0  0  0  0  0  0  0  0  0  0  0  0
   21.7770    5.3110   25.0780 C   0  0  0  0  0  0  0  0  0  0  0  0
   21.1440    6.3950   24.4410 C   0  0  0  0  0  0  0  0  0  0  0  0
   24.7800    4.8060   28.5050 N   0  0  0  0  0  0  0  0  0  0  0  0
   25.6930    5.7340   28.8890 C   0  0  0  0  0  0  0  0  0  0  0  0
   26.5200    6.4420   28.0130 C   0  0  0  0  0  0  0  0  0  0  0  0
   26.4460    6.2210   26.6300 C   0  0  0  0  0  0  0  0  0  0  0  0
   25.5420    5.2920   26.1450 C   0  0  0  0  0  0  0  0  0  0  0  0
   24.6870    4.5760   27.1810 C   0  0  0  0  0  0  0  0  0  0  0  0
  2  5  2  0
  5  3  1  0
  4  5  2  0
  1  6  1  0
  6  7  2  0
  7  8  1  0
  5  9  1  0
  8  9  2  0
  9 10  1  0
  6 11  1  0
 10 11  2  0
 12 13  2  0
 13 14  1  0
 14 15  2  0
 15 16  1  0
  3 17  1  0
 12 17  1  0
 16 17  2  0
M  END
