x1119-x0426
     RDKit          3D

 18 19  0  0  0  0  0  0  0  0999 V2000
    2.2500    1.7680   23.8990 C   0  0  0  0  0  0  0  0  0  0  0  0
    2.1550    0.3390   23.8950 O   0  0  0  0  0  0  0  0  0  0  0  0
    3.3550    2.4840   23.2680 N   0  0  0  0  0  0  0  0  0  0  0  0
    4.2410    1.8280   22.4750 C   0  0  0  0  0  0  0  0  0  0  0  0
    3.5630    1.3160   21.1920 C   0  0  0  0  0  0  0  0  0  0  0  0
    2.7210    4.3230   25.2130 F   0  0  0  0  0  0  0  0  0  0  0  0
    1.4790    3.8150   25.1950 C   0  0  0  0  0  0  0  0  0  0  0  0
    1.1840    2.5860   24.5770 C   0  0  0  0  0  0  0  0  0  0  0  0
   -0.1340    2.1080   24.5930 C   0  0  0  0  0  0  0  0  0  0  0  0
   -1.1540    2.8320   25.2110 C   0  0  0  0  0  0  0  0  0  0  0  0
   -0.8600    4.0460   25.8210 C   0  0  0  0  0  0  0  0  0  0  0  0
    0.4530    4.5350   25.8120 C   0  0  0  0  0  0  0  0  0  0  0  0
    5.5510    0.0570   20.3020 C   0  0  0  0  0  0  0  0  0  0  0  0
    6.5270   -0.2150   19.1590 C   0  0  0  0  0  0  0  0  0  0  0  0
    6.5130    0.3890   17.9490 N   0  0  0  0  0  0  0  0  0  0  0  0
    5.5600    1.3140   17.7340 C   0  0  0  0  0  0  0  0  0  0  0  0
    4.5330    1.6800   18.7760 C   0  0  0  0  0  0  0  0  0  0  0  0
    4.5440    1.0030   20.1290 C   0  0  0  0  0  0  0  0  0  0  0  0
  1  2  2  0
  1  3  1  0
  3  4  1  0
  4  5  1  0
  6  7  1  0
  1  8  1  0
  7  8  2  0
  8  9  1  0
  9 10  2  0
 10 11  1  0
  7 12  1  0
 11 12  2  0
 13 14  2  0
 14 15  1  0
 15 16  2  0
 16 17  1  0
  5 18  1  0
 13 18  1  0
 17 18  2  0
M  END
