x1119-x1402
     RDKit          3D

 18 19  0  0  0  0  0  0  0  0999 V2000
    7.2570   -3.1770   20.8260 C   0  0  0  0  0  0  0  0  0  0  0  0
    5.4920   -4.5260   19.9460 O   0  0  0  0  0  0  0  0  0  0  0  0
    0.7410   -1.3050   26.1100 Cl  0  0  0  0  0  0  0  0  0  0  0  0
    6.3910   -4.4050   20.8010 C   0  0  0  0  0  0  0  0  0  0  0  0
    3.9100   -6.3600   25.8770 O   0  0  0  0  0  0  0  0  0  0  0  0
    5.9620   -5.2380   26.7970 O   0  0  0  0  0  0  0  0  0  0  0  0
    4.9290   -5.3410   25.7970 S   0  0  0  0  0  0  0  0  0  0  0  0
    6.7040   -5.3360   21.7610 N   0  0  0  0  0  0  0  0  0  0  0  0
    7.4940   -4.8960   22.9010 C   0  0  0  0  0  0  0  0  0  0  0  0
    6.5500   -4.3970   23.9560 C   0  0  0  0  0  0  0  0  0  0  0  0
    5.6590   -5.4050   24.2720 N   0  0  0  0  0  0  0  0  0  0  0  0
    4.9010   -5.8870   23.2130 C   0  0  0  0  0  0  0  0  0  0  0  0
    5.6900   -6.3190   22.1360 C   0  0  0  0  0  0  0  0  0  0  0  0
    2.3610   -3.8020   25.8860 S   0  0  0  0  0  0  0  0  0  0  0  0
    4.0820   -3.7800   25.9180 C   0  0  0  0  0  0  0  0  0  0  0  0
    4.5410   -2.4760   26.0430 C   0  0  0  0  0  0  0  0  0  0  0  0
    3.5240   -1.5380   26.1130 C   0  0  0  0  0  0  0  0  0  0  0  0
    2.2580   -2.0970   26.0470 C   0  0  0  0  0  0  0  0  0  0  0  0
  1  4  1  0
  2  4  2  0
  5  7  2  0
  6  7  2  0
  4  8  1  0
  8  9  1  0
  9 10  1  0
  7 11  1  0
 10 11  1  0
 11 12  1  0
  8 13  1  0
 12 13  1  0
  7 15  1  0
 14 15  1  0
 15 16  2  0
 16 17  1  0
  3 18  1  0
 14 18  1  0
 17 18  2  0
M  END
