x1119-x0161
     RDKit          3D

 14 14  0  0  0  0  0  0  0  0999 V2000
   13.3690   -2.3710   24.3030 C   0  0  0  0  0  0  0  0  0  0  0  0
   12.8520   -1.0380   24.4460 O   0  0  0  0  0  0  0  0  0  0  0  0
   12.8890   -0.3330   23.4210 C   0  0  0  0  0  0  0  0  0  0  0  0
   13.4830   -0.6670   22.4130 O   0  0  0  0  0  0  0  0  0  0  0  0
   10.1930    5.2420   23.6140 S   0  0  0  0  0  0  0  0  0  0  0  0
   11.0700    6.1960   22.9780 O   0  0  0  0  0  0  0  0  0  0  0  0
    9.6800    5.4780   24.9450 O   0  0  0  0  0  0  0  0  0  0  0  0
    8.8490    5.0800   22.6320 N   0  0  0  0  0  0  0  0  0  0  0  0
   12.1550    1.0210   23.4720 C   0  0  0  0  0  0  0  0  0  0  0  0
   12.8210    2.2440   22.9710 C   0  0  0  0  0  0  0  0  0  0  0  0
   12.2090    3.4780   23.0150 C   0  0  0  0  0  0  0  0  0  0  0  0
   10.9350    3.6260   23.5370 C   0  0  0  0  0  0  0  0  0  0  0  0
   10.2640    2.4760   24.0100 C   0  0  0  0  0  0  0  0  0  0  0  0
   10.8600    1.1940   23.9810 C   0  0  0  0  0  0  0  0  0  0  0  0
  1  2  1  0
  2  3  1  0
  3  4  2  0
  5  6  2  0
  5  7  2  0
  5  8  1  0
  3  9  1  0
  9 10  2  0
 10 11  1  0
  5 12  1  0
 11 12  2  0
 12 13  1  0
  9 14  1  0
 13 14  2  0
M  END
