x1119-x0946
     RDKit          3D

 17 18  0  0  0  0  0  0  0  0999 V2000
   20.7890    7.9230   22.5630 N   0  0  0  0  0  0  0  0  0  0  0  0
   22.6580    2.1400   25.0310 O   0  0  0  0  0  0  0  0  0  0  0  0
   23.7160    3.6010   26.8620 N   0  0  0  0  0  0  0  0  0  0  0  0
   24.9160    3.0780   24.7010 O   0  0  0  0  0  0  0  0  0  0  0  0
   23.5810    3.2050   25.2300 S   0  0  0  0  0  0  0  0  0  0  0  0
   21.4610    6.8390   23.1340 C   0  0  0  0  0  0  0  0  0  0  0  0
   22.5260    6.1240   22.3760 C   0  0  0  0  0  0  0  0  0  0  0  0
   23.2160    4.9540   23.0620 C   0  0  0  0  0  0  0  0  0  0  0  0
   22.7950    4.5770   24.4450 C   0  0  0  0  0  0  0  0  0  0  0  0
   21.7780    5.3170   25.0730 C   0  0  0  0  0  0  0  0  0  0  0  0
   21.1470    6.3990   24.4330 C   0  0  0  0  0  0  0  0  0  0  0  0
   24.7810    4.8070   28.5120 N   0  0  0  0  0  0  0  0  0  0  0  0
   25.6980    5.7370   28.8910 C   0  0  0  0  0  0  0  0  0  0  0  0
   26.5230    6.4420   28.0110 C   0  0  0  0  0  0  0  0  0  0  0  0
   26.4460    6.2180   26.6290 C   0  0  0  0  0  0  0  0  0  0  0  0
   25.5390    5.2880   26.1500 C   0  0  0  0  0  0  0  0  0  0  0  0
   24.6850    4.5730   27.1870 C   0  0  0  0  0  0  0  0  0  0  0  0
  2  5  2  0
  5  3  1  0
  4  5  2  0
  1  6  1  0
  6  7  2  0
  7  8  1  0
  5  9  1  0
  8  9  2  0
  9 10  1  0
  6 11  1  0
 10 11  2  0
 12 13  2  0
 13 14  1  0
 14 15  2  0
 15 16  1  0
  3 17  1  0
 12 17  1  0
 16 17  2  0
M  END
