x1119-x0165
     RDKit          3D

 17 18  0  0  0  0  0  0  0  0999 V2000
   20.8020    7.9290   22.5690 N   0  0  0  0  0  0  0  0  0  0  0  0
   22.6380    2.1530   25.0360 O   0  0  0  0  0  0  0  0  0  0  0  0
   23.7200    3.6070   26.8530 N   0  0  0  0  0  0  0  0  0  0  0  0
   24.9060    3.0580   24.6830 O   0  0  0  0  0  0  0  0  0  0  0  0
   23.5780    3.2040   25.2230 S   0  0  0  0  0  0  0  0  0  0  0  0
   21.4680    6.8430   23.1390 C   0  0  0  0  0  0  0  0  0  0  0  0
   22.5350    6.1260   22.3780 C   0  0  0  0  0  0  0  0  0  0  0  0
   23.2200    4.9550   23.0600 C   0  0  0  0  0  0  0  0  0  0  0  0
   22.7970    4.5760   24.4410 C   0  0  0  0  0  0  0  0  0  0  0  0
   21.7830    5.3150   25.0720 C   0  0  0  0  0  0  0  0  0  0  0  0
   21.1520    6.4020   24.4360 C   0  0  0  0  0  0  0  0  0  0  0  0
   24.7820    4.8090   28.5020 N   0  0  0  0  0  0  0  0  0  0  0  0
   25.6970    5.7360   28.8890 C   0  0  0  0  0  0  0  0  0  0  0  0
   26.5250    6.4450   28.0150 C   0  0  0  0  0  0  0  0  0  0  0  0
   26.4520    6.2260   26.6310 C   0  0  0  0  0  0  0  0  0  0  0  0
   25.5460    5.2970   26.1450 C   0  0  0  0  0  0  0  0  0  0  0  0
   24.6890    4.5790   27.1770 C   0  0  0  0  0  0  0  0  0  0  0  0
  2  5  2  0
  5  3  1  0
  4  5  2  0
  1  6  1  0
  6  7  2  0
  7  8  1  0
  5  9  1  0
  8  9  2  0
  9 10  1  0
  6 11  1  0
 10 11  2  0
 12 13  2  0
 13 14  1  0
 14 15  2  0
 15 16  1  0
  3 17  1  0
 12 17  1  0
 16 17  2  0
M  END
