x1119-x0194
     RDKit          3D

 17 18  0  0  0  0  0  0  0  0999 V2000
   20.8000    7.9290   22.5570 N   0  0  0  0  0  0  0  0  0  0  0  0
   22.6380    2.1520   25.0330 O   0  0  0  0  0  0  0  0  0  0  0  0
   23.6800    3.6440   26.8560 N   0  0  0  0  0  0  0  0  0  0  0  0
   24.9040    3.0710   24.7120 O   0  0  0  0  0  0  0  0  0  0  0  0
   23.5680    3.2090   25.2310 S   0  0  0  0  0  0  0  0  0  0  0  0
   21.4680    6.8430   23.1270 C   0  0  0  0  0  0  0  0  0  0  0  0
   22.5360    6.1250   22.3680 C   0  0  0  0  0  0  0  0  0  0  0  0
   23.2190    4.9520   23.0570 C   0  0  0  0  0  0  0  0  0  0  0  0
   22.7940    4.5780   24.4350 C   0  0  0  0  0  0  0  0  0  0  0  0
   21.7790    5.3160   25.0630 C   0  0  0  0  0  0  0  0  0  0  0  0
   21.1500    6.4020   24.4240 C   0  0  0  0  0  0  0  0  0  0  0  0
   24.7710    4.8180   28.5100 N   0  0  0  0  0  0  0  0  0  0  0  0
   25.7060    5.7230   28.8950 C   0  0  0  0  0  0  0  0  0  0  0  0
   26.5480    6.4160   28.0220 C   0  0  0  0  0  0  0  0  0  0  0  0
   26.4670    6.2020   26.6380 C   0  0  0  0  0  0  0  0  0  0  0  0
   25.5400    5.2950   26.1520 C   0  0  0  0  0  0  0  0  0  0  0  0
   24.6700    4.5930   27.1840 C   0  0  0  0  0  0  0  0  0  0  0  0
  2  5  2  0
  5  3  1  0
  4  5  2  0
  1  6  1  0
  6  7  2  0
  7  8  1  0
  5  9  1  0
  8  9  2  0
  9 10  1  0
  6 11  1  0
 10 11  2  0
 12 13  2  0
 13 14  1  0
 14 15  2  0
 15 16  1  0
  3 17  1  0
 12 17  1  0
 16 17  2  0
M  END
