x1119-x0398
     RDKit          3D

 17 18  0  0  0  0  0  0  0  0999 V2000
   20.7890    7.9160   22.5650 N   0  0  0  0  0  0  0  0  0  0  0  0
   22.6470    2.1430   25.0360 O   0  0  0  0  0  0  0  0  0  0  0  0
   23.7160    3.6040   26.8610 N   0  0  0  0  0  0  0  0  0  0  0  0
   24.9080    3.0610   24.6970 O   0  0  0  0  0  0  0  0  0  0  0  0
   23.5760    3.1980   25.2320 S   0  0  0  0  0  0  0  0  0  0  0  0
   21.4570    6.8320   23.1390 C   0  0  0  0  0  0  0  0  0  0  0  0
   22.5240    6.1150   22.3830 C   0  0  0  0  0  0  0  0  0  0  0  0
   23.2100    4.9470   23.0710 C   0  0  0  0  0  0  0  0  0  0  0  0
   22.7890    4.5700   24.4520 C   0  0  0  0  0  0  0  0  0  0  0  0
   21.7740    5.3090   25.0790 C   0  0  0  0  0  0  0  0  0  0  0  0
   21.1420    6.3940   24.4410 C   0  0  0  0  0  0  0  0  0  0  0  0
   24.7780    4.8060   28.5020 N   0  0  0  0  0  0  0  0  0  0  0  0
   25.6920    5.7320   28.8850 C   0  0  0  0  0  0  0  0  0  0  0  0
   26.5190    6.4410   28.0120 C   0  0  0  0  0  0  0  0  0  0  0  0
   26.4460    6.2210   26.6290 C   0  0  0  0  0  0  0  0  0  0  0  0
   25.5410    5.2910   26.1440 C   0  0  0  0  0  0  0  0  0  0  0  0
   24.6840    4.5740   27.1790 C   0  0  0  0  0  0  0  0  0  0  0  0
  2  5  2  0
  5  3  1  0
  4  5  2  0
  1  6  1  0
  6  7  2  0
  7  8  1  0
  5  9  1  0
  8  9  2  0
  9 10  1  0
  6 11  1  0
 10 11  2  0
 12 13  2  0
 13 14  1  0
 14 15  2  0
 15 16  1  0
  3 17  1  0
 12 17  1  0
 16 17  2  0
M  END
