x1119-x1132
     RDKit          3D

 17 18  0  0  0  0  0  0  0  0999 V2000
   20.7950    7.9340   22.5660 N   0  0  0  0  0  0  0  0  0  0  0  0
   22.6580    2.1430   25.0280 O   0  0  0  0  0  0  0  0  0  0  0  0
   23.7160    3.6070   26.8520 N   0  0  0  0  0  0  0  0  0  0  0  0
   24.9170    3.0750   24.6890 O   0  0  0  0  0  0  0  0  0  0  0  0
   23.5820    3.2070   25.2210 S   0  0  0  0  0  0  0  0  0  0  0  0
   21.4660    6.8460   23.1340 C   0  0  0  0  0  0  0  0  0  0  0  0
   22.5320    6.1290   22.3720 C   0  0  0  0  0  0  0  0  0  0  0  0
   23.2190    4.9570   23.0550 C   0  0  0  0  0  0  0  0  0  0  0  0
   22.7990    4.5790   24.4340 C   0  0  0  0  0  0  0  0  0  0  0  0
   21.7860    5.3150   25.0670 C   0  0  0  0  0  0  0  0  0  0  0  0
   21.1530    6.4020   24.4320 C   0  0  0  0  0  0  0  0  0  0  0  0
   24.7800    4.8120   28.5050 N   0  0  0  0  0  0  0  0  0  0  0  0
   25.6980    5.7390   28.8880 C   0  0  0  0  0  0  0  0  0  0  0  0
   26.5260    6.4440   28.0120 C   0  0  0  0  0  0  0  0  0  0  0  0
   26.4510    6.2230   26.6300 C   0  0  0  0  0  0  0  0  0  0  0  0
   25.5420    5.2950   26.1450 C   0  0  0  0  0  0  0  0  0  0  0  0
   24.6860    4.5790   27.1790 C   0  0  0  0  0  0  0  0  0  0  0  0
  2  5  2  0
  5  3  1  0
  4  5  2  0
  1  6  1  0
  6  7  2  0
  7  8  1  0
  5  9  1  0
  8  9  2  0
  9 10  1  0
  6 11  1  0
 10 11  2  0
 12 13  2  0
 13 14  1  0
 14 15  2  0
 15 16  1  0
  3 17  1  0
 12 17  1  0
 16 17  2  0
M  END
