x1132-x1012
     RDKit          3D

 15 16  0  0  0  0  0  0  0  0999 V2000
    7.4180  -23.3850   -0.9860 C   0  0  0  0  0  0  0  0  0  0  0  0
    7.4270  -19.1160   -2.9730 C   0  0  0  0  0  0  0  0  0  0  0  0
    6.5010  -18.4610   -3.4300 O   0  0  0  0  0  0  0  0  0  0  0  0
    8.6970  -19.2100   -3.7870 C   0  0  0  0  0  0  0  0  0  0  0  0
    6.8190  -22.0760   -1.4660 C   0  0  1  0  0  0  0  0  0  0  0  0
    5.6910  -21.7750   -0.6280 O   0  0  0  0  0  0  0  0  0  0  0  0
    5.1110  -20.4680   -0.7710 C   0  0  0  0  0  0  0  0  0  0  0  0
    6.1630  -19.3450   -0.8760 C   0  0  0  0  0  0  0  0  0  0  0  0
    7.2910  -19.6900   -1.7460 N   0  0  0  0  0  0  0  0  0  0  0  0
    7.8850  -20.9890   -1.4920 C   0  0  0  0  0  0  0  0  0  0  0  0
    8.9380  -16.7900   -4.0580 C   0  0  0  0  0  0  0  0  0  0  0  0
    8.5400  -17.9960   -4.4910 N   0  0  0  0  0  0  0  0  0  0  0  0
    7.9080  -17.9900   -5.6740 N   0  0  0  0  0  0  0  0  0  0  0  0
    7.8790  -16.7100   -5.9930 C   0  0  0  0  0  0  0  0  0  0  0  0
    8.5030  -15.9540   -5.0180 C   0  0  0  0  0  0  0  0  0  0  0  0
  2  3  2  0
  2  4  1  0
  5  1  1  1
  5  6  1  0
  6  7  1  0
  7  8  1  0
  2  9  1  0
  8  9  1  0
  5 10  1  0
  9 10  1  0
  4 12  1  0
 11 12  1  0
 12 13  1  0
 13 14  2  0
 11 15  2  0
 14 15  1  0
M  END
