x1132-x1385
     RDKit          3D

 16 17  0  0  0  0  0  0  0  0999 V2000
    6.4750   -1.9990   18.7350 C   0  0  0  0  0  0  0  0  0  0  0  0
    5.5260   -3.9240   19.7280 O   0  0  0  0  0  0  0  0  0  0  0  0
    6.1780   -2.8720   19.8800 C   0  0  0  0  0  0  0  0  0  0  0  0
    9.6700   -3.0390   24.1040 C   0  0  0  0  0  0  0  0  0  0  0  0
    7.1180   -5.8240   28.4500 Br  0  0  0  0  0  0  0  0  0  0  0  0
    6.6830   -2.4830   21.1080 N   0  0  0  0  0  0  0  0  0  0  0  0
    6.3660   -3.2750   22.3010 C   0  0  0  0  0  0  0  0  0  0  0  0
    7.6660   -3.8290   22.8930 C   0  0  0  0  0  0  0  0  0  0  0  0
    8.5680   -2.7170   23.2060 N   0  0  0  0  0  0  0  0  0  0  0  0
    8.9490   -1.9720   22.0000 C   0  0  0  0  0  0  0  0  0  0  0  0
    7.7740   -1.4920   21.1870 C   0  0  0  0  0  0  0  0  0  0  0  0
    9.8470   -5.2860   25.4380 C   0  0  0  0  0  0  0  0  0  0  0  0
    9.2820   -4.0410   25.1560 C   0  0  0  0  0  0  0  0  0  0  0  0
    7.9730   -3.7110   26.2170 S   0  0  0  0  0  0  0  0  0  0  0  0
    8.2200   -5.2600   27.0070 C   0  0  0  0  0  0  0  0  0  0  0  0
    9.2560   -6.0110   26.4970 C   0  0  0  0  0  0  0  0  0  0  0  0
  1  3  1  0
  2  3  2  0
  3  6  1  0
  6  7  1  0
  7  8  1  0
  4  9  1  0
  8  9  1  0
  9 10  1  0
  6 11  1  0
 10 11  1  0
  4 13  1  0
 12 13  2  0
 13 14  1  0
  5 15  1  0
 14 15  1  0
 12 16  1  0
 15 16  2  0
M  END
