x1132-x1348
     RDKit          3D

 15 16  0  0  0  0  0  0  0  0999 V2000
    7.0290   -3.5490   21.3030 N   0  0  0  0  0  0  0  0  0  0  0  0
    8.0630   -5.1390   27.6620 C   0  0  0  0  0  0  0  0  0  0  0  0
    7.3930   -4.5610   26.5320 O   0  0  0  0  0  0  0  0  0  0  0  0
    5.3730   -4.1480   19.7420 O   0  0  0  0  0  0  0  0  0  0  0  0
    6.2390   -3.3230   20.0810 C   0  0  0  0  0  0  0  0  0  0  0  0
    6.6320   -2.0760   19.3030 C   0  0  0  0  0  0  0  0  0  0  0  0
    6.3750   -5.2750   25.9500 C   0  0  0  0  0  0  0  0  0  0  0  0
    6.1800   -5.0780   24.4520 C   0  0  0  0  0  0  0  0  0  0  0  0
    5.0830   -5.8540   23.8000 C   0  0  0  0  0  0  0  0  0  0  0  0
    4.2280   -6.7720   24.6140 C   0  0  0  0  0  0  0  0  0  0  0  0
    4.4830   -6.8780   25.9980 C   0  0  0  0  0  0  0  0  0  0  0  0
    5.5180   -6.1580   26.6390 C   0  0  0  0  0  0  0  0  0  0  0  0
    6.9510   -4.2080   23.6010 N   0  0  0  0  0  0  0  0  0  0  0  0
    6.4500   -4.3350   22.3810 C   0  0  0  0  0  0  0  0  0  0  0  0
    5.1380   -5.4180   22.1440 S   0  0  0  0  0  0  0  0  0  0  0  0
  2  3  1  0
  1  5  1  0
  4  5  2  0
  5  6  1  0
  3  7  1  0
  7  8  2  0
  8  9  1  0
  9 10  2  0
 10 11  1  0
  7 12  1  0
 11 12  2  0
  8 13  1  0
  1 14  1  0
 13 14  2  0
  9 15  1  0
 14 15  1  0
M  END
