x1132-x0770
     RDKit          3D

 17 18  0  0  0  0  0  0  0  0999 V2000
    6.0900   -2.0620   18.7560 C   0  0  0  0  0  0  0  0  0  0  0  0
    5.3620   -4.0790   19.7360 O   0  0  0  0  0  0  0  0  0  0  0  0
   13.3780   -1.7140   21.2010 Cl  0  0  0  0  0  0  0  0  0  0  0  0
    5.8630   -2.9530   19.9000 C   0  0  0  0  0  0  0  0  0  0  0  0
    9.2710   -2.3120   24.1640 C   0  0  0  0  0  0  0  0  0  0  0  0
    6.2770   -2.5110   21.1460 N   0  0  0  0  0  0  0  0  0  0  0  0
    7.2080   -1.3660   21.2130 C   0  0  0  0  0  0  0  0  0  0  0  0
    8.5230   -1.7740   21.8780 C   0  0  0  0  0  0  0  0  0  0  0  0
    8.2050   -2.3310   23.1910 N   0  0  0  0  0  0  0  0  0  0  0  0
    7.4410   -3.5680   23.0840 C   0  0  0  0  0  0  0  0  0  0  0  0
    6.1570   -3.4120   22.3080 C   0  0  0  0  0  0  0  0  0  0  0  0
   10.7110   -0.2340   24.4260 C   0  0  0  0  0  0  0  0  0  0  0  0
   11.8030    0.5610   24.0710 C   0  0  0  0  0  0  0  0  0  0  0  0
   12.6190    0.0800   23.0750 C   0  0  0  0  0  0  0  0  0  0  0  0
   12.3920   -1.1230   22.4360 C   0  0  0  0  0  0  0  0  0  0  0  0
   11.3100   -1.8920   22.7970 C   0  0  0  0  0  0  0  0  0  0  0  0
   10.4520   -1.4640   23.7940 C   0  0  0  0  0  0  0  0  0  0  0  0
  1  4  1  0
  2  4  2  0
  4  6  1  0
  6  7  1  0
  7  8  1  0
  5  9  1  0
  8  9  1  0
  9 10  1  0
  6 11  1  0
 10 11  1  0
 12 13  2  0
 13 14  1  0
  3 15  1  0
 14 15  2  0
 15 16  1  0
  5 17  1  0
 12 17  1  0
 16 17  2  0
M  END
