x1132-x0397
     RDKit          3D

 15 16  0  0  0  0  0  0  0  0999 V2000
    7.9570   -1.5020   21.0100 C   0  0  0  0  0  0  0  0  0  0  0  0
    7.1520   -2.2040   20.0100 N   0  0  0  0  0  0  0  0  0  0  0  0
    6.9320   -1.6710   18.6560 C   0  0  0  0  0  0  0  0  0  0  0  0
    3.6250    2.3030   19.3730 C   0  0  0  0  0  0  0  0  0  0  0  0
    6.2400   -3.2280   20.5400 C   0  0  0  0  0  0  0  0  0  0  0  0
    5.4690   -3.8960   19.8290 O   0  0  0  0  0  0  0  0  0  0  0  0
    6.2920   -3.4460   21.9160 N   0  0  0  0  0  0  0  0  0  0  0  0
    5.0280    0.0620   19.4770 C   0  0  0  0  0  0  0  0  0  0  0  0
    6.1590   -0.4240   18.5970 C   0  0  0  0  0  0  0  0  0  0  0  0
    6.3640    0.5310   17.6780 N   0  0  0  0  0  0  0  0  0  0  0  0
    5.4630    1.5560   17.9200 O   0  0  0  0  0  0  0  0  0  0  0  0
    4.6640    1.2760   18.9910 C   0  0  0  0  0  0  0  0  0  0  0  0
    6.5430   -5.4680   23.3250 C   0  0  0  0  0  0  0  0  0  0  0  0
    5.7560   -4.6590   22.4660 C   0  0  0  0  0  0  0  0  0  0  0  0
    6.0540   -5.7770   21.9720 C   0  0  0  0  0  0  0  0  0  0  0  0
  1  2  1  0
  2  3  1  0
  2  5  1  0
  5  6  2  0
  5  7  1  0
  3  9  1  0
  8  9  1  0
  9 10  2  0
 10 11  1  0
  4 12  1  0
  8 12  2  0
 11 12  1  0
  7 14  1  0
 13 14  1  0
 13 15  1  0
 14 15  1  0
M  END
