x1132-x0499
     RDKit          3D

 17 18  0  0  0  0  0  0  0  0999 V2000
   25.8310    6.4020   13.6640 N   0  0  0  0  0  0  0  0  0  0  0  0
   25.6920    5.0230   13.4780 C   0  0  0  0  0  0  0  0  0  0  0  0
   25.9290    4.1210   14.5580 O   0  0  0  0  0  0  0  0  0  0  0  0
   24.2200    3.4260    7.9890 N   0  0  0  0  0  0  0  0  0  0  0  0
   23.0100    2.7850    7.7480 C   0  0  0  0  0  0  0  0  0  0  0  0
   22.2420    2.3990    8.6090 O   0  0  0  0  0  0  0  0  0  0  0  0
   25.3060    4.5500   12.1080 C   0  0  0  0  0  0  0  0  0  0  0  0
   24.9100    3.1280   11.8560 C   0  0  0  0  0  0  0  0  0  0  0  0
   24.5130    2.6110   10.4800 C   0  0  0  0  0  0  0  0  0  0  0  0
   24.5640    3.6940    9.3920 C   0  0  0  0  0  0  0  0  0  0  0  0
   24.9710    5.1180    9.6830 C   0  0  0  0  0  0  0  0  0  0  0  0
   25.3290    5.5600   10.9700 C   0  0  0  0  0  0  0  0  0  0  0  0
   23.0480    1.3100    5.8710 C   0  0  0  0  0  0  0  0  0  0  0  0
   22.7140    2.5960    6.2440 C   0  0  2  0  0  0  0  0  0  0  0  0
   23.5420    3.3870    5.3920 O   0  0  0  0  0  0  0  0  0  0  0  0
   24.3400    2.5250    4.7090 C   0  0  0  0  0  0  0  0  0  0  0  0
   23.6480    1.2970    4.6670 C   0  0  0  0  0  0  0  0  0  0  0  0
  1  2  1  0
  2  3  2  0
  4  5  1  0
  5  6  2  0
  2  7  1  0
  7  8  2  0
  8  9  1  0
  4 10  1  0
  9 10  2  0
 10 11  1  0
  7 12  1  0
 11 12  2  0
 14  5  1  1
 13 14  1  0
 14 15  1  0
 15 16  1  0
 13 17  1  0
 16 17  1  0
M  END
