x1132-x0759
     RDKit          3D

 15 16  0  0  0  0  0  0  0  0999 V2000
    7.3530  -23.5610   -1.2290 C   0  0  0  0  0  0  0  0  0  0  0  0
    7.5170  -19.1230   -3.0780 C   0  0  0  0  0  0  0  0  0  0  0  0
    6.6160  -18.3700   -3.4330 O   0  0  0  0  0  0  0  0  0  0  0  0
    8.7680  -19.1860   -3.9040 C   0  0  0  0  0  0  0  0  0  0  0  0
    7.1030  -22.0860   -0.9980 C   0  0  2  0  0  0  0  0  0  0  0  0
    5.6950  -21.8340   -1.0550 O   0  0  0  0  0  0  0  0  0  0  0  0
    5.3170  -20.5330   -0.5980 C   0  0  0  0  0  0  0  0  0  0  0  0
    6.3630  -19.4530   -0.9570 C   0  0  0  0  0  0  0  0  0  0  0  0
    7.3770  -19.8440   -1.9490 N   0  0  0  0  0  0  0  0  0  0  0  0
    7.8870  -21.2160   -1.9580 C   0  0  0  0  0  0  0  0  0  0  0  0
    8.9530  -16.7630   -4.0830 C   0  0  0  0  0  0  0  0  0  0  0  0
    8.5760  -17.9590   -4.5560 N   0  0  0  0  0  0  0  0  0  0  0  0
    7.9300  -17.9230   -5.7300 N   0  0  0  0  0  0  0  0  0  0  0  0
    7.8710  -16.6340   -6.0000 C   0  0  0  0  0  0  0  0  0  0  0  0
    8.4890  -15.9000   -5.0120 C   0  0  0  0  0  0  0  0  0  0  0  0
  2  3  2  0
  2  4  1  0
  5  1  1  6
  5  6  1  0
  6  7  1  0
  7  8  1  0
  2  9  1  0
  8  9  1  0
  5 10  1  0
  9 10  1  0
  4 12  1  0
 11 12  1  0
 12 13  1  0
 13 14  2  0
 11 15  2  0
 14 15  1  0
M  END
