x1132-x1458
     RDKit          3D

 16 16  0  0  0  0  0  0  0  0999 V2000
    7.3540   -3.4400   26.3530 N   0  0  0  0  0  0  0  0  0  0  0  0
    8.8590   -5.3700   26.7670 C   0  0  0  0  0  0  0  0  0  0  0  0
    5.0250   -3.5580   25.9450 O   0  0  0  0  0  0  0  0  0  0  0  0
    7.7140   -4.5840   27.2450 C   0  0  0  0  0  0  0  0  0  0  0  0
    5.4140   -4.8020   19.7880 O   0  0  0  0  0  0  0  0  0  0  0  0
    6.5060   -5.4490   27.5470 C   0  0  0  0  0  0  0  0  0  0  0  0
    7.8610   -2.1230   26.7480 C   0  0  0  0  0  0  0  0  0  0  0  0
    6.1640   -3.5940   25.4770 C   0  0  0  0  0  0  0  0  0  0  0  0
    6.1160   -3.9720   20.3450 C   0  0  0  0  0  0  0  0  0  0  0  0
    6.2460   -2.5850   19.7570 C   0  0  0  0  0  0  0  0  0  0  0  0
    6.8580   -4.2690   21.5680 N   0  0  0  0  0  0  0  0  0  0  0  0
    7.7810   -3.3190   22.1900 C   0  0  0  0  0  0  0  0  0  0  0  0
    7.5140   -3.1830   23.5530 C   0  0  0  0  0  0  0  0  0  0  0  0
    6.3190   -3.7740   23.9570 C   0  0  0  0  0  0  0  0  0  0  0  0
    6.2500   -5.1330   23.6560 C   0  0  0  0  0  0  0  0  0  0  0  0
    6.5290   -5.4790   22.3300 C   0  0  0  0  0  0  0  0  0  0  0  0
  1  4  1  0
  2  4  1  0
  4  6  1  0
  1  7  1  0
  1  8  1  0
  3  8  2  0
  5  9  2  0
  9 10  1  0
  9 11  1  0
 11 12  1  0
 12 13  1  0
  8 14  1  0
 13 14  1  0
 14 15  1  0
 11 16  1  0
 15 16  1  0
M  END
