x1163-x2908-x2912
     RDKit          3D

 20 21  0  0  0  0  0  0  0  0999 V2000
    7.0790   -0.5460   21.1750 N   0  0  0  0  0  0  0  0  0  0  0  0
    7.7370   -0.7480   24.1580 C   0  0  0  0  0  0  0  0  0  0  0  0
    8.9090    0.9130   21.4880 O   0  0  0  0  0  0  0  0  0  0  0  0
    8.6350   -1.0430   22.9530 C   0  0  1  0  0  0  0  0  0  0  0  0
    8.2840   -0.0990   21.8230 C   0  0  0  0  0  0  0  0  0  0  0  0
   14.0580   -1.4030   20.3290 N   0  0  0  0  0  0  0  0  0  0  0  0
    4.8970    1.2530   21.7580 C   0  0  0  0  0  0  0  0  0  0  0  0
   13.2550   -1.3490   21.4240 C   0  0  0  0  0  0  0  0  0  0  0  0
    6.2880    0.4600   17.6920 N   0  0  0  0  0  0  0  0  0  0  0  0
    5.1970    1.3600   17.9960 C   0  0  0  0  0  0  0  0  0  0  0  0
    4.7670    1.5970   19.2870 C   0  0  0  0  0  0  0  0  0  0  0  0
    5.3830    0.9680   20.3660 C   0  0  0  0  0  0  0  0  0  0  0  0
    6.4450    0.0910   20.0920 C   0  0  0  0  0  0  0  0  0  0  0  0
    6.8450   -0.1230   18.7730 C   0  0  0  0  0  0  0  0  0  0  0  0
   10.5630   -0.5620   24.5110 C   0  0  0  0  0  0  0  0  0  0  0  0
   11.9430   -0.4740   24.7330 C   0  0  0  0  0  0  0  0  0  0  0  0
   12.8350   -0.7350   23.7150 C   0  0  0  0  0  0  0  0  0  0  0  0
   12.3050   -1.0910   22.4930 C   0  0  0  0  0  0  0  0  0  0  0  0
   10.9720   -1.2010   22.2320 C   0  0  0  0  0  0  0  0  0  0  0  0
   10.1160   -0.9380   23.2250 C   0  0  0  0  0  0  0  0  0  0  0  0
  4  2  1  1
  1  5  1  0
  3  5  2  0
  4  5  1  0
  6  8  3  0
  9 10  2  0
 10 11  1  0
  7 12  1  0
 11 12  2  0
  1 13  1  0
 12 13  1  0
  9 14  1  0
 13 14  2  0
 15 16  2  0
 16 17  1  0
  8 18  1  0
 17 18  2  0
 18 19  1  0
  4 20  1  0
 15 20  1  0
 19 20  2  0
M  END
