x1163-x0887
     RDKit          3D

 15 16  0  0  0  0  0  0  0  0999 V2000
   21.9000   21.6010    4.1440 O   0  0  0  0  0  0  0  0  0  0  0  0
   21.4250   20.6080    3.6070 C   0  0  0  0  0  0  0  0  0  0  0  0
   22.1760   16.3310    5.2900 C   0  0  0  0  0  0  0  0  0  0  0  0
   21.1680   19.5760    4.6640 C   0  0  1  0  0  0  0  0  0  0  0  0
   20.0140   19.9210    5.4620 O   0  0  0  0  0  0  0  0  0  0  0  0
   19.9350   18.9920    6.5560 C   0  0  0  0  0  0  0  0  0  0  0  0
   20.9970   18.0480    6.5340 C   0  0  0  0  0  0  0  0  0  0  0  0
   21.0660   17.2850    5.2630 N   0  0  0  0  0  0  0  0  0  0  0  0
   21.1300   18.2160    4.1160 C   0  0  0  0  0  0  0  0  0  0  0  0
   22.6970   13.9500    5.8870 C   0  0  0  0  0  0  0  0  0  0  0  0
   22.4280   12.7620    6.5180 C   0  0  0  0  0  0  0  0  0  0  0  0
   21.2910   12.6090    7.2850 C   0  0  0  0  0  0  0  0  0  0  0  0
   20.4080   13.6680    7.4120 C   0  0  0  0  0  0  0  0  0  0  0  0
   20.6700   14.8900    6.7760 C   0  0  0  0  0  0  0  0  0  0  0  0
   21.8370   15.0390    5.9980 C   0  0  0  0  0  0  0  0  0  0  0  0
  1  2  1  0
  4  2  1  6
  4  5  1  0
  5  6  1  0
  6  7  1  0
  3  8  1  0
  7  8  1  0
  4  9  1  0
  8  9  1  0
 10 11  2  0
 11 12  1  0
 12 13  2  0
 13 14  1  0
  3 15  1  0
 10 15  1  0
 14 15  2  0
M  END
