x1163-x2908-x2562
     RDKit          3D

 24 26  0  0  0  0  0  0  0  0999 V2000
    8.1930    0.2360   21.4330 C   0  0  0  0  0  0  0  0  0  0  0  0
    8.2830    1.5540   20.8720 O   0  0  0  0  0  0  0  0  0  0  0  0
    7.0260   -0.6150   20.9850 C   0  0  0  0  0  0  0  0  0  0  0  0
   12.0580    2.9720   23.2360 O   0  0  0  0  0  0  0  0  0  0  0  0
    8.9980   -0.3670   22.3160 N   0  0  0  0  0  0  0  0  0  0  0  0
   13.4920    7.0040   22.4020 O   0  0  0  0  0  0  0  0  0  0  0  0
    4.7720    1.2710   21.5930 C   0  0  0  0  0  0  0  0  0  0  0  0
   13.5130   -2.0340   22.6490 Cl  0  0  0  0  0  0  0  0  0  0  0  0
    4.6220    1.7460   19.1910 N   0  0  0  0  0  0  0  0  0  0  0  0
    5.0750    1.5360   17.9140 C   0  0  0  0  0  0  0  0  0  0  0  0
    6.0940    0.6770   17.5330 N   0  0  0  0  0  0  0  0  0  0  0  0
    6.6970   -0.0030   18.5170 C   0  0  0  0  0  0  0  0  0  0  0  0
    6.3200    0.1290   19.9610 C   0  0  0  0  0  0  0  0  0  0  0  0
    5.2710    1.0200   20.2070 C   0  0  0  0  0  0  0  0  0  0  0  0
   12.7090    4.7900   21.6240 N   0  0  0  0  0  0  0  0  0  0  0  0
   12.7300    5.8470   22.6670 C   0  0  1  0  0  0  0  0  0  0  0  0
   13.3760    4.8760   23.3360 C   0  0  0  0  0  0  0  0  0  0  0  0
   13.1100    3.7500   22.6390 C   0  0  1  0  0  0  0  0  0  0  0  0
   11.2500   -1.0080   22.4990 C   0  0  0  0  0  0  0  0  0  0  0  0
   12.5380   -0.6790   22.7140 C   0  0  0  0  0  0  0  0  0  0  0  0
   12.9350    0.6620   22.9630 C   0  0  0  0  0  0  0  0  0  0  0  0
   11.8930    1.6300   22.9840 C   0  0  0  0  0  0  0  0  0  0  0  0
   10.5830    1.2640   22.7610 C   0  0  0  0  0  0  0  0  0  0  0  0
   10.3030   -0.0400   22.5260 C   0  0  0  0  0  0  0  0  0  0  0  0
  1  2  2  0
  1  3  1  0
  1  5  1  0
  9 10  2  0
 10 11  1  0
 11 12  2  0
  3 13  1  0
 12 13  1  0
  7 14  1  0
  9 14  1  0
 13 14  2  0
 16  6  1  6
 15 16  1  0
 16 17  1  0
 18  4  1  1
 15 18  1  0
 17 18  1  0
  8 20  1  0
 19 20  2  0
 20 21  1  0
  4 22  1  0
 21 22  2  0
 22 23  1  0
  5 24  1  0
 19 24  1  0
 23 24  2  0
M  END
