x1163-x0708
     RDKit          3D

 16 17  0  0  0  0  0  0  0  0999 V2000
    6.5610   -4.1500   21.0950 N   0  0  0  0  0  0  0  0  0  0  0  0
    6.8620   -2.1570   19.7660 C   0  0  0  0  0  0  0  0  0  0  0  0
    5.1360   -3.7740   19.3130 O   0  0  0  0  0  0  0  0  0  0  0  0
    6.0660   -3.4400   20.0310 C   0  0  0  0  0  0  0  0  0  0  0  0
    7.7650   -3.7370   21.6470 N   0  0  0  0  0  0  0  0  0  0  0  0
    6.5390   -2.7100   23.5930 O   0  0  0  0  0  0  0  0  0  0  0  0
    7.6850   -2.8040   22.7710 C   0  0  0  0  0  0  0  0  0  0  0  0
    8.8160   -1.9950   22.9430 C   0  0  0  0  0  0  0  0  0  0  0  0
   10.0430   -2.1370   22.3080 C   0  0  0  0  0  0  0  0  0  0  0  0
   10.9900   -1.2190   22.6300 C   0  0  0  0  0  0  0  0  0  0  0  0
   10.4950   -0.2980   23.5460 C   0  0  0  0  0  0  0  0  0  0  0  0
    8.8640   -0.6530   23.9900 S   0  0  0  0  0  0  0  0  0  0  0  0
   12.3180   -1.0790   22.1810 C   0  0  0  0  0  0  0  0  0  0  0  0
   13.0750   -0.0160   22.6480 C   0  0  0  0  0  0  0  0  0  0  0  0
   12.5310    0.8820   23.5380 C   0  0  0  0  0  0  0  0  0  0  0  0
   11.2580    0.7620   24.0070 C   0  0  0  0  0  0  0  0  0  0  0  0
  1  4  1  0
  2  4  1  0
  3  4  2  0
  1  5  1  0
  5  7  1  0
  6  7  2  0
  7  8  1  0
  8  9  2  0
  9 10  1  0
 10 11  2  0
  8 12  1  0
 11 12  1  0
 10 13  1  0
 13 14  2  0
 14 15  1  0
 11 16  1  0
 15 16  2  0
M  END
