x1163-x0336
     RDKit          3D

 15 15  0  0  0  0  0  0  0  0999 V2000
    5.3000  -29.9670   10.8540 C   0  0  0  0  0  0  0  0  0  0  0  0
    4.9040  -29.8770    9.3790 C   0  0  0  0  0  0  0  0  0  0  0  0
    4.8410  -30.8960    8.7010 O   0  0  0  0  0  0  0  0  0  0  0  0
    4.6130  -28.5190    8.8740 N   0  0  0  0  0  0  0  0  0  0  0  0
    5.0670  -27.3370    9.6100 C   0  0  0  0  0  0  0  0  0  0  0  0
    1.4170  -22.5490    9.1410 S   0  0  0  0  0  0  0  0  0  0  0  0
    1.7890  -21.5110   10.0610 O   0  0  0  0  0  0  0  0  0  0  0  0
    0.0820  -23.0950    9.1270 O   0  0  0  0  0  0  0  0  0  0  0  0
    1.7360  -21.9290    7.5800 N   0  0  0  0  0  0  0  0  0  0  0  0
    4.2120  -26.2130    9.5080 C   0  0  0  0  0  0  0  0  0  0  0  0
    3.7780  -25.6590    8.3150 C   0  0  0  0  0  0  0  0  0  0  0  0
    2.9520  -24.5670    8.2560 C   0  0  0  0  0  0  0  0  0  0  0  0
    2.4880  -23.9480    9.3910 C   0  0  0  0  0  0  0  0  0  0  0  0
    2.9150  -24.5010   10.6010 C   0  0  0  0  0  0  0  0  0  0  0  0
    3.7750  -25.6230   10.6900 C   0  0  0  0  0  0  0  0  0  0  0  0
  1  2  1  0
  2  3  2  0
  2  4  1  0
  4  5  1  0
  6  7  2  0
  6  8  2  0
  6  9  1  0
  5 10  1  0
 10 11  2  0
 11 12  1  0
  6 13  1  0
 12 13  2  0
 13 14  1  0
 10 15  1  0
 14 15  2  0
M  END
