x1163-x2600-x2908
     RDKit          3D

 19 20  0  0  0  0  0  0  0  0999 V2000
   13.9660   -1.5490   20.4360 N   0  0  0  0  0  0  0  0  0  0  0  0
    8.3060    0.2780   21.8270 C   0  0  0  0  0  0  0  0  0  0  0  0
    9.0970    1.3790   21.3410 O   0  0  0  0  0  0  0  0  0  0  0  0
    8.6800   -0.2810   23.2090 C   0  0  0  0  0  0  0  0  0  0  0  0
    7.2360   -0.3250   21.2170 N   0  0  0  0  0  0  0  0  0  0  0  0
   13.1660   -1.3610   21.5490 C   0  0  0  0  0  0  0  0  0  0  0  0
    4.9710    1.2340   21.7250 C   0  0  0  0  0  0  0  0  0  0  0  0
    6.2410    0.5730   17.6150 N   0  0  0  0  0  0  0  0  0  0  0  0
    6.9170    0.0250   18.6350 C   0  0  0  0  0  0  0  0  0  0  0  0
    6.5380    0.2180   20.0700 C   0  0  0  0  0  0  0  0  0  0  0  0
    5.4030    1.0110   20.3060 C   0  0  0  0  0  0  0  0  0  0  0  0
    4.7290    1.5630   19.2080 C   0  0  0  0  0  0  0  0  0  0  0  0
    5.1780    1.3240   17.9140 C   0  0  0  0  0  0  0  0  0  0  0  0
   10.7220   -0.2440   24.6420 C   0  0  0  0  0  0  0  0  0  0  0  0
   12.0890   -0.4010   24.8710 C   0  0  0  0  0  0  0  0  0  0  0  0
   12.8900   -0.7800   23.8200 C   0  0  0  0  0  0  0  0  0  0  0  0
   12.3430   -0.9990   22.5780 C   0  0  0  0  0  0  0  0  0  0  0  0
   10.9800   -0.8490   22.3570 C   0  0  0  0  0  0  0  0  0  0  0  0
   10.1610   -0.4710   23.3730 C   0  0  0  0  0  0  0  0  0  0  0  0
  2  3  2  0
  2  4  1  0
  2  5  1  0
  1  6  3  0
  8  9  2  0
  5 10  1  0
  9 10  1  0
  7 11  1  0
 10 11  2  0
 11 12  1  0
  8 13  1  0
 12 13  2  0
 14 15  2  0
 15 16  1  0
  6 17  1  0
 16 17  2  0
 17 18  1  0
  4 19  1  0
 14 19  1  0
 18 19  2  0
M  END
