x1163-x1308-x1458
     RDKit          3D

 25 27  0  0  0  0  0  0  0  0999 V2000
    7.3360   -3.6010   26.3170 N   0  0  0  0  0  0  0  0  0  0  0  0
    9.0980   -4.7650   27.8720 C   0  0  0  0  0  0  0  0  0  0  0  0
    5.0250   -4.1080   26.1660 N   0  0  0  0  0  0  0  0  0  0  0  0
    7.9350   -4.8410   26.8900 C   0  0  1  0  0  0  0  0  0  0  0  0
    5.2090   -4.4420   19.8280 O   0  0  0  0  0  0  0  0  0  0  0  0
    6.8260   -5.6990   27.4760 C   0  0  0  0  0  0  0  0  0  0  0  0
    8.3110   -2.8040   25.7610 C   0  0  0  0  0  0  0  0  0  0  0  0
    6.2820   -4.0470   25.5180 C   0  0  1  0  0  0  0  0  0  0  0  0
    6.3030   -4.0150   20.1710 C   0  0  0  0  0  0  0  0  0  0  0  0
    7.2230   -3.2570   19.2020 C   0  0  0  0  0  0  0  0  0  0  0  0
    0.8690   -0.9580   26.4470 Cl  0  0  0  0  0  0  0  0  0  0  0  0
    4.5150   -7.0840   27.2770 O   0  0  0  0  0  0  0  0  0  0  0  0
    5.5360   -6.2470   26.6080 S   0  0  0  0  0  0  0  0  0  0  0  0
    6.8020   -4.2220   21.4260 N   0  0  0  0  0  0  0  0  0  0  0  0
    7.5520   -3.1860   22.1380 C   0  0  0  0  0  0  0  0  0  0  0  0
    6.8710   -2.8980   23.3070 C   0  0  0  0  0  0  0  0  0  0  0  0
    6.5210   -4.0460   23.9720 C   0  0  0  0  0  0  0  0  0  0  0  0
    5.7270   -4.9580   23.2940 C   0  0  0  0  0  0  0  0  0  0  0  0
    6.3800   -5.3130   22.1060 C   0  0  0  0  0  0  0  0  0  0  0  0
    4.1810   -3.1290   26.3290 C   0  0  0  0  0  0  0  0  0  0  0  0
    3.3390   -2.0560   26.5250 C   0  0  0  0  0  0  0  0  0  0  0  0
    1.9990   -2.2250   26.1980 C   0  0  0  0  0  0  0  0  0  0  0  0
    1.5700   -3.4420   25.6700 C   0  0  0  0  0  0  0  0  0  0  0  0
    2.4490   -4.5020   25.4680 C   0  0  0  0  0  0  0  0  0  0  0  0
    3.7870   -4.3490   25.8120 C   0  0  0  0  0  0  0  0  0  0  0  0
  1  4  1  0
  4  2  1  1
  4  6  1  0
  1  7  1  0
  8  1  1  6
  3  8  1  0
  5  9  2  0
  9 10  1  0
  6 13  2  0
 12 13  2  0
  9 14  1  0
 14 15  1  0
 15 16  1  0
  8 17  1  0
 16 17  1  0
 17 18  1  0
 14 19  1  0
 18 19  1  0
  3 20  1  0
 20 21  2  0
 11 22  1  0
 21 22  1  0
 22 23  2  0
 23 24  1  0
  3 25  1  0
 20 25  1  0
 24 25  2  0
M  END
