x1163-x0771
     RDKit          3D

 20 21  0  0  0  0  0  0  0  0999 V2000
    0.5570   -1.3860   26.2890 C   0  0  0  0  0  0  0  0  0  0  0  0
    4.4070   -6.9030   25.6130 O   0  0  0  0  0  0  0  0  0  0  0  0
    5.9140   -5.1980   26.6780 O   0  0  0  0  0  0  0  0  0  0  0  0
    5.4050   -4.3010   19.7740 O   0  0  0  0  0  0  0  0  0  0  0  0
    1.9020   -6.0430   24.9720 C   0  0  0  0  0  0  0  0  0  0  0  0
    6.1250   -3.9200   20.6970 C   0  0  0  0  0  0  0  0  0  0  0  0
    6.5740   -2.5800   20.7520 C   0  0  0  0  0  0  0  0  0  0  0  0
    4.9430   -5.5630   25.6790 S   0  0  0  0  0  0  0  0  0  0  0  0
    1.6340   -2.4120   26.1270 C   0  0  0  0  0  0  0  0  0  0  0  0
    1.3440   -3.6850   25.6540 C   0  0  0  0  0  0  0  0  0  0  0  0
    2.2870   -4.6730   25.4940 C   0  0  0  0  0  0  0  0  0  0  0  0
    3.6020   -4.3860   25.8240 C   0  0  0  0  0  0  0  0  0  0  0  0
    3.9460   -3.1080   26.3020 C   0  0  0  0  0  0  0  0  0  0  0  0
    2.9640   -2.1250   26.4530 C   0  0  0  0  0  0  0  0  0  0  0  0
    6.5650   -4.7520   21.7090 N   0  0  0  0  0  0  0  0  0  0  0  0
    6.0030   -6.0790   21.9720 C   0  0  0  0  0  0  0  0  0  0  0  0
    5.1230   -6.0480   23.0590 C   0  0  0  0  0  0  0  0  0  0  0  0
    5.5990   -5.1870   24.1460 N   0  0  0  0  0  0  0  0  0  0  0  0
    6.9550   -4.6420   24.0570 C   0  0  0  0  0  0  0  0  0  0  0  0
    7.2850   -4.1120   22.8160 C   0  0  0  0  0  0  0  0  0  0  0  0
  4  6  2  0
  6  7  1  0
  2  8  2  0
  3  8  2  0
  1  9  1  0
  9 10  2  0
  5 11  1  0
 10 11  1  0
  8 12  1  0
 11 12  2  0
 12 13  1  0
  9 14  1  0
 13 14  2  0
  6 15  1  0
 15 16  1  0
 16 17  1  0
  8 18  1  0
 17 18  1  0
 18 19  1  0
 15 20  1  0
 19 20  1  0
M  END
