x1163-x0759
     RDKit          3D

 14 15  0  0  0  0  0  0  0  0999 V2000
    5.5810   -4.1280   20.0540 O   0  0  0  0  0  0  0  0  0  0  0  0
    6.1650   -3.0780   20.3820 C   0  0  0  0  0  0  0  0  0  0  0  0
    6.3880   -1.9590   19.3550 C   0  0  0  0  0  0  0  0  0  0  0  0
   12.3830   -0.8520   23.9680 F   0  0  0  0  0  0  0  0  0  0  0  0
    6.7160   -2.7780   21.6560 N   0  0  0  0  0  0  0  0  0  0  0  0
    7.1500   -1.4150   21.9800 C   0  0  0  0  0  0  0  0  0  0  0  0
    8.4730   -1.3460   22.5170 C   0  0  0  0  0  0  0  0  0  0  0  0
    9.1820   -2.5030   22.8700 C   0  0  0  0  0  0  0  0  0  0  0  0
    8.5620   -3.7770   22.7210 C   0  0  0  0  0  0  0  0  0  0  0  0
    7.1650   -3.7510   22.6580 C   0  0  0  0  0  0  0  0  0  0  0  0
    9.0840   -0.0780   22.6860 C   0  0  0  0  0  0  0  0  0  0  0  0
   10.3900    0.0770   23.1780 C   0  0  0  0  0  0  0  0  0  0  0  0
   11.1290   -1.0310   23.5140 C   0  0  0  0  0  0  0  0  0  0  0  0
   10.5290   -2.2990   23.3640 C   0  0  0  0  0  0  0  0  0  0  0  0
  1  2  2  0
  2  3  1  0
  2  5  1  0
  5  6  1  0
  6  7  1  0
  7  8  2  0
  8  9  1  0
  5 10  1  0
  9 10  1  0
  7 11  1  0
 11 12  2  0
  4 13  1  0
 12 13  1  0
  8 14  1  0
 13 14  2  0
M  END
