x1163-x2643-x2608
     RDKit          3D

 16 17  0  0  0  0  0  0  0  0999 V2000
    6.6700   -1.0960   20.7760 N   0  0  0  0  0  0  0  0  0  0  0  0
    8.4700    0.2200   21.2730 O   0  0  0  0  0  0  0  0  0  0  0  0
   13.4290    0.2550   22.9270 Cl  0  0  0  0  0  0  0  0  0  0  0  0
    8.4510   -1.8440   22.5430 C   0  0  0  0  0  0  0  0  0  0  0  0
    7.9070   -0.8480   21.5190 C   0  0  0  0  0  0  0  0  0  0  0  0
   11.8320   -0.0910   23.2160 C   0  0  0  0  0  0  0  0  0  0  0  0
   10.9410    0.5310   24.2500 C   0  0  0  0  0  0  0  0  0  0  0  0
    9.5880   -0.0560   24.1440 C   0  0  0  0  0  0  0  0  0  0  0  0
    9.6050   -1.0680   23.0180 C   0  0  0  0  0  0  0  0  0  0  0  0
   11.1300   -1.2240   22.2770 S   0  0  0  0  0  0  0  0  0  0  0  0
    6.3990    0.8430   17.5820 N   0  0  0  0  0  0  0  0  0  0  0  0
    6.8350   -0.0130   18.6080 C   0  0  0  0  0  0  0  0  0  0  0  0
    6.1040   -0.1770   19.7810 C   0  0  0  0  0  0  0  0  0  0  0  0
    4.9050    0.5160   19.9620 C   0  0  0  0  0  0  0  0  0  0  0  0
    4.4040    1.3770   19.0050 C   0  0  0  0  0  0  0  0  0  0  0  0
    5.1370    1.5350   17.8460 C   0  0  0  0  0  0  0  0  0  0  0  0
  1  5  1  0
  2  5  2  0
  4  5  1  0
  3  6  1  0
  6  7  2  0
  7  8  1  0
  4  9  1  0
  8  9  2  0
  6 10  1  0
  9 10  1  0
 11 12  2  0
  1 13  1  0
 12 13  1  0
 13 14  2  0
 14 15  1  0
 11 16  1  0
 15 16  2  0
M  END
