x1163-x0678-x2600
     RDKit          3D

 18 19  0  0  0  0  0  0  0  0999 V2000
   13.9380   -1.5850   20.4640 N   0  0  0  0  0  0  0  0  0  0  0  0
    8.2970    0.2840   21.7910 C   0  0  0  0  0  0  0  0  0  0  0  0
    9.0670    1.4030   21.3160 O   0  0  0  0  0  0  0  0  0  0  0  0
    8.6520   -0.2510   23.1840 C   0  0  0  0  0  0  0  0  0  0  0  0
    7.2560   -0.3560   21.1600 N   0  0  0  0  0  0  0  0  0  0  0  0
   13.1430   -1.3620   21.5720 C   0  0  0  0  0  0  0  0  0  0  0  0
    6.2820    0.5390   17.6610 N   0  0  0  0  0  0  0  0  0  0  0  0
    6.9410   -0.0070   18.6740 C   0  0  0  0  0  0  0  0  0  0  0  0
    6.5440    0.2060   20.0910 C   0  0  0  0  0  0  0  0  0  0  0  0
    5.3240    1.0780   20.3920 C   0  0  0  0  0  0  0  0  0  0  0  0
    4.6650    1.6280   19.2720 C   0  0  0  0  0  0  0  0  0  0  0  0
    5.1340    1.3680   17.9770 C   0  0  0  0  0  0  0  0  0  0  0  0
   10.7140   -0.2310   24.6410 C   0  0  0  0  0  0  0  0  0  0  0  0
   12.0600   -0.4070   24.8260 C   0  0  0  0  0  0  0  0  0  0  0  0
   12.9050   -0.7850   23.8410 C   0  0  0  0  0  0  0  0  0  0  0  0
   12.3280   -0.9920   22.6070 C   0  0  0  0  0  0  0  0  0  0  0  0
   10.9550   -0.8380   22.3460 C   0  0  0  0  0  0  0  0  0  0  0  0
   10.1260   -0.4410   23.3980 C   0  0  0  0  0  0  0  0  0  0  0  0
  2  3  2  0
  2  4  1  0
  2  5  1  0
  1  6  3  0
  7  8  2  0
  5  9  1  0
  8  9  1  0
  9 10  2  0
 10 11  1  0
  7 12  1  0
 11 12  2  0
 13 14  2  0
 14 15  1  0
  6 16  1  0
 15 16  2  0
 16 17  1  0
  4 18  1  0
 13 18  1  0
 17 18  2  0
M  END
