x1163-x2649-x2912
     RDKit          3D

 20 21  0  0  0  0  0  0  0  0999 V2000
    7.0830   -0.5450   21.1820 N   0  0  0  0  0  0  0  0  0  0  0  0
    7.7330   -0.7440   24.1650 C   0  0  0  0  0  0  0  0  0  0  0  0
    8.8940    0.9350   21.5110 O   0  0  0  0  0  0  0  0  0  0  0  0
    8.6330   -1.0390   22.9630 C   0  0  1  0  0  0  0  0  0  0  0  0
    8.2790   -0.0890   21.8360 C   0  0  0  0  0  0  0  0  0  0  0  0
   14.0570   -1.4160   20.3360 N   0  0  0  0  0  0  0  0  0  0  0  0
    4.8960    1.2540   21.7550 C   0  0  0  0  0  0  0  0  0  0  0  0
   13.2530   -1.3590   21.4310 C   0  0  0  0  0  0  0  0  0  0  0  0
    6.2870    0.4560   17.6980 N   0  0  0  0  0  0  0  0  0  0  0  0
    5.1950    1.3560   17.9950 C   0  0  0  0  0  0  0  0  0  0  0  0
    4.7660    1.5930   19.2870 C   0  0  0  0  0  0  0  0  0  0  0  0
    5.3830    0.9660   20.3670 C   0  0  0  0  0  0  0  0  0  0  0  0
    6.4470    0.0890   20.0980 C   0  0  0  0  0  0  0  0  0  0  0  0
    6.8460   -0.1240   18.7780 C   0  0  0  0  0  0  0  0  0  0  0  0
   10.5640   -0.5510   24.5080 C   0  0  0  0  0  0  0  0  0  0  0  0
   11.9430   -0.4600   24.7330 C   0  0  0  0  0  0  0  0  0  0  0  0
   12.8350   -0.7290   23.7120 C   0  0  0  0  0  0  0  0  0  0  0  0
   12.3030   -1.0940   22.4940 C   0  0  0  0  0  0  0  0  0  0  0  0
   10.9680   -1.2060   22.2370 C   0  0  0  0  0  0  0  0  0  0  0  0
   10.1120   -0.9350   23.2280 C   0  0  0  0  0  0  0  0  0  0  0  0
  4  2  1  1
  1  5  1  0
  3  5  2  0
  4  5  1  0
  6  8  3  0
  9 10  2  0
 10 11  1  0
  7 12  1  0
 11 12  2  0
  1 13  1  0
 12 13  1  0
  9 14  1  0
 13 14  2  0
 15 16  2  0
 16 17  1  0
  8 18  1  0
 17 18  2  0
 18 19  1  0
  4 20  1  0
 15 20  1  0
 19 20  2  0
M  END
