x1163-x2643-x0434
     RDKit          3D

 16 17  0  0  0  0  0  0  0  0999 V2000
    6.6690   -1.0940   20.7790 N   0  0  0  0  0  0  0  0  0  0  0  0
    8.4740    0.2200   21.2700 O   0  0  0  0  0  0  0  0  0  0  0  0
   13.4270    0.2650   22.9310 Cl  0  0  0  0  0  0  0  0  0  0  0  0
    8.4520   -1.8380   22.5450 C   0  0  0  0  0  0  0  0  0  0  0  0
    7.9100   -0.8480   21.5210 C   0  0  0  0  0  0  0  0  0  0  0  0
   11.8280   -0.0850   23.2150 C   0  0  0  0  0  0  0  0  0  0  0  0
   10.9380    0.5450   24.2440 C   0  0  0  0  0  0  0  0  0  0  0  0
    9.5840   -0.0460   24.1360 C   0  0  0  0  0  0  0  0  0  0  0  0
    9.6030   -1.0610   23.0180 C   0  0  0  0  0  0  0  0  0  0  0  0
   11.1320   -1.2210   22.2800 S   0  0  0  0  0  0  0  0  0  0  0  0
    6.3950    0.8400   17.5800 N   0  0  0  0  0  0  0  0  0  0  0  0
    6.8380   -0.0180   18.6070 C   0  0  0  0  0  0  0  0  0  0  0  0
    6.1040   -0.1770   19.7820 C   0  0  0  0  0  0  0  0  0  0  0  0
    4.9070    0.5170   19.9620 C   0  0  0  0  0  0  0  0  0  0  0  0
    4.4050    1.3800   19.0040 C   0  0  0  0  0  0  0  0  0  0  0  0
    5.1370    1.5330   17.8440 C   0  0  0  0  0  0  0  0  0  0  0  0
  1  5  1  0
  2  5  2  0
  4  5  1  0
  3  6  1  0
  6  7  2  0
  7  8  1  0
  4  9  1  0
  8  9  2  0
  6 10  1  0
  9 10  1  0
 11 12  2  0
  1 13  1  0
 12 13  1  0
 13 14  2  0
 14 15  1  0
 11 16  1  0
 15 16  2  0
M  END
