x1163-x2764-x0995
     RDKit          3D

 20 21  0  0  0  0  0  0  0  0999 V2000
    8.6670   -1.2610   21.3170 N   0  0  0  0  0  0  0  0  0  0  0  0
    7.3210   -1.3140   21.0500 C   0  0  0  0  0  0  0  0  0  0  0  0
    6.5240   -2.3690   21.5830 O   0  0  0  0  0  0  0  0  0  0  0  0
    9.0840   -2.0960   22.4860 C   0  0  0  0  0  0  0  0  0  0  0  0
    6.2500    1.2880   22.0010 O   0  0  0  0  0  0  0  0  0  0  0  0
    7.8160    4.5420   22.6760 N   0  0  0  0  0  0  0  0  0  0  0  0
    7.6260    1.6840   22.2520 C   0  0  0  0  0  0  0  0  0  0  0  0
    7.7240    3.1860   22.4600 C   0  0  0  0  0  0  0  0  0  0  0  0
    4.8120    2.9740   20.0480 N   0  0  0  0  0  0  0  0  0  0  0  0
   12.8850   -1.5600   22.4770 N   0  0  0  0  0  0  0  0  0  0  0  0
   11.6950   -1.8000   21.9580 C   0  0  0  0  0  0  0  0  0  0  0  0
   10.5020   -1.8410   22.8760 C   0  0  0  0  0  0  0  0  0  0  0  0
   10.9760   -1.6010   24.1710 C   0  0  0  0  0  0  0  0  0  0  0  0
   12.6830   -1.3690   24.1220 S   0  0  0  0  0  0  0  0  0  0  0  0
    6.4340   -0.6150   18.8650 C   0  0  0  0  0  0  0  0  0  0  0  0
    5.7570    0.2490   18.0120 C   0  0  0  0  0  0  0  0  0  0  0  0
    5.2430    1.4340   18.4790 C   0  0  0  0  0  0  0  0  0  0  0  0
    5.4030    1.7780   19.8090 C   0  0  0  0  0  0  0  0  0  0  0  0
    6.0970    0.9180   20.6890 C   0  0  0  0  0  0  0  0  0  0  0  0
    6.6130   -0.3090   20.2060 C   0  0  0  0  0  0  0  0  0  0  0  0
  1  2  1  0
  2  3  2  0
  1  4  1  0
  5  7  1  0
  6  8  3  0
  7  8  1  0
 10 11  2  0
  4 12  1  0
 11 12  1  0
 12 13  2  0
 10 14  1  0
 13 14  1  0
 15 16  2  0
 16 17  1  0
  9 18  1  0
 17 18  2  0
  5 19  1  0
 18 19  1  0
  2 20  1  0
 15 20  1  0
 19 20  2  0
M  END
