x1187-x2646-x2912
     RDKit          3D

 20 21  0  0  0  0  0  0  0  0999 V2000
    7.1360   -0.6000   21.1830 N   0  0  0  0  0  0  0  0  0  0  0  0
    7.6540   -0.6520   24.2310 C   0  0  0  0  0  0  0  0  0  0  0  0
    8.7250    0.8990   21.3490 O   0  0  0  0  0  0  0  0  0  0  0  0
    8.4790   -1.0060   23.0090 C   0  0  1  0  0  0  0  0  0  0  0  0
    8.0610   -0.2140   21.7660 C   0  0  0  0  0  0  0  0  0  0  0  0
   14.1050   -1.3770   20.2850 N   0  0  0  0  0  0  0  0  0  0  0  0
    4.9940    1.1420   21.7330 C   0  0  0  0  0  0  0  0  0  0  0  0
   13.3240   -1.3310   21.3720 C   0  0  0  0  0  0  0  0  0  0  0  0
    6.2730    0.5040   17.7120 N   0  0  0  0  0  0  0  0  0  0  0  0
    5.2330    1.3460   17.9730 C   0  0  0  0  0  0  0  0  0  0  0  0
    4.7840    1.5800   19.2660 C   0  0  0  0  0  0  0  0  0  0  0  0
    5.4610    0.8870   20.4330 C   0  0  0  0  0  0  0  0  0  0  0  0
    6.5070    0.0470   20.0930 C   0  0  0  0  0  0  0  0  0  0  0  0
    6.8530   -0.1000   18.7600 C   0  0  0  0  0  0  0  0  0  0  0  0
   10.4830   -0.4830   24.5230 C   0  0  0  0  0  0  0  0  0  0  0  0
   11.8820   -0.3930   24.6980 C   0  0  0  0  0  0  0  0  0  0  0  0
   12.7850   -0.6720   23.6760 C   0  0  0  0  0  0  0  0  0  0  0  0
   12.3710   -1.0640   22.4230 C   0  0  0  0  0  0  0  0  0  0  0  0
   10.8900   -1.1790   22.2140 C   0  0  0  0  0  0  0  0  0  0  0  0
    9.9430   -0.8750   23.2990 C   0  0  0  0  0  0  0  0  0  0  0  0
  4  2  1  1
  1  5  1  0
  3  5  2  0
  4  5  1  0
  6  8  3  0
  9 10  2  0
 10 11  1  0
  7 12  1  0
 11 12  2  0
  1 13  1  0
 12 13  1  0
  9 14  1  0
 13 14  2  0
 15 16  2  0
 16 17  1  0
  8 18  1  0
 17 18  2  0
 18 19  1  0
  4 20  1  0
 15 20  1  0
 19 20  2  0
M  END
