x1187-x2600-x2908
     RDKit          3D

 19 20  0  0  0  0  0  0  0  0999 V2000
   13.4770   -2.9640   20.7570 N   0  0  0  0  0  0  0  0  0  0  0  0
    8.1910    0.4190   21.6230 C   0  0  0  0  0  0  0  0  0  0  0  0
    8.7990    1.4190   21.1970 O   0  0  0  0  0  0  0  0  0  0  0  0
    8.6390   -0.2700   22.8930 C   0  0  0  0  0  0  0  0  0  0  0  0
    7.0840   -0.1740   21.0470 N   0  0  0  0  0  0  0  0  0  0  0  0
   13.0000   -2.1790   21.4320 C   0  0  0  0  0  0  0  0  0  0  0  0
    4.9670    1.2510   21.7810 C   0  0  0  0  0  0  0  0  0  0  0  0
    6.3130    0.5370   17.7440 N   0  0  0  0  0  0  0  0  0  0  0  0
    6.9580    0.0200   18.7160 C   0  0  0  0  0  0  0  0  0  0  0  0
    6.5400    0.2420   20.1300 C   0  0  0  0  0  0  0  0  0  0  0  0
    5.4230    1.0110   20.3740 C   0  0  0  0  0  0  0  0  0  0  0  0
    4.7250    1.5760   19.1410 C   0  0  0  0  0  0  0  0  0  0  0  0
    5.2090    1.3140   17.8500 C   0  0  0  0  0  0  0  0  0  0  0  0
   10.7760    0.5590   23.8050 C   0  0  0  0  0  0  0  0  0  0  0  0
   12.1570    0.5390   23.8710 C   0  0  0  0  0  0  0  0  0  0  0  0
   12.9240   -0.3400   23.1150 C   0  0  0  0  0  0  0  0  0  0  0  0
   12.2800   -1.2370   22.2580 C   0  0  0  0  0  0  0  0  0  0  0  0
   10.9060   -1.3110   22.1070 C   0  0  0  0  0  0  0  0  0  0  0  0
   10.1260   -0.3190   22.9590 C   0  0  0  0  0  0  0  0  0  0  0  0
  2  3  2  0
  2  4  1  0
  2  5  1  0
  1  6  3  0
  8  9  2  0
  5 10  1  0
  9 10  1  0
  7 11  1  0
 10 11  2  0
 11 12  1  0
  8 13  1  0
 12 13  2  0
 14 15  2  0
 15 16  1  0
  6 17  1  0
 16 17  2  0
 17 18  1  0
  4 19  1  0
 14 19  1  0
 18 19  2  0
M  END
