x1187-x2776-x0995
     RDKit          3D

 35 37  0  0  0  0  0  0  0  0999 V2000
    6.9260   -1.6400   21.7450 N   0  0  0  0  0  0  0  0  0  0  0  0
    7.7540   -4.6460   21.0980 C   0  0  0  0  0  0  0  0  0  0  0  0
    4.8110   -2.9340   21.0290 O   0  0  0  0  0  0  0  0  0  0  0  0
    6.5710   -4.1270   21.7810 C   0  0  0  0  0  0  0  0  0  0  0  0
    7.6030    1.8410   22.9300 N   0  0  0  0  0  0  0  0  0  0  0  0
    8.8210    0.7230   21.3660 O   0  0  0  0  0  0  0  0  0  0  0  0
    6.0170   -2.8250   21.4850 C   0  0  0  0  0  0  0  0  0  0  0  0
   10.7230    6.5600   23.6620 O   0  0  0  0  0  0  0  0  0  0  0  0
    6.5560   -0.1740   21.5990 C   0  0  1  0  0  0  0  0  0  0  0  0
   12.6460   -2.9570   24.4310 O   0  0  0  0  0  0  0  0  0  0  0  0
    7.7430    0.8050   21.9560 C   0  0  0  0  0  0  0  0  0  0  0  0
   10.4260    1.5170   23.8800 C   0  0  0  0  0  0  0  0  0  0  0  0
   11.7610    6.5650   24.6480 C   0  0  0  0  0  0  0  0  0  0  0  0
   12.0750   -1.6470   24.4120 C   0  0  1  0  0  0  0  0  0  0  0  0
   12.9220   -0.7850   23.7210 C   0  0  0  0  0  0  0  0  0  0  0  0
   13.2040   -3.3120   25.6830 C   0  0  0  0  0  0  0  0  0  0  0  0
    3.4350    2.3490   18.8720 N   0  0  0  0  0  0  0  0  0  0  0  0
    6.3580    0.5140   17.7300 N   0  0  0  0  0  0  0  0  0  0  0  0
    5.2480    1.2720   17.7870 C   0  0  0  0  0  0  0  0  0  0  0  0
    4.5310    1.5850   18.9350 C   0  0  0  0  0  0  0  0  0  0  0  0
    4.9940    1.0830   20.1440 C   0  0  0  0  0  0  0  0  0  0  0  0
    6.1300    0.2920   20.2450 C   0  0  0  0  0  0  0  0  0  0  0  0
    6.7980    0.0300   18.8950 C   0  0  0  0  0  0  0  0  0  0  0  0
    9.7730    2.8330   23.5650 C   0  0  0  0  0  0  0  0  0  0  0  0
   10.5950    4.1110   23.7560 C   0  0  0  0  0  0  0  0  0  0  0  0
   10.0400    5.3790   23.4940 C   0  0  0  0  0  0  0  0  0  0  0  0
    8.7100    5.5290   23.0260 C   0  0  0  0  0  0  0  0  0  0  0  0
    7.9840    4.3010   22.8600 C   0  0  0  0  0  0  0  0  0  0  0  0
    8.4710    2.9860   23.1170 C   0  0  0  0  0  0  0  0  0  0  0  0
    9.3920   -2.0930   21.7610 C   0  0  0  0  0  0  0  0  0  0  0  0
   10.6300   -2.0950   22.3780 C   0  0  0  0  0  0  0  0  0  0  0  0
   10.7290   -1.6870   23.7140 C   0  0  0  0  0  0  0  0  0  0  0  0
    9.5770   -1.3030   24.3970 C   0  0  0  0  0  0  0  0  0  0  0  0
    8.3340   -1.3080   23.7500 C   0  0  0  0  0  0  0  0  0  0  0  0
    8.2170   -1.6950   22.4090 C   0  0  0  0  0  0  0  0  0  0  0  0
  2  4  1  0
  1  7  1  0
  3  7  2  0
  4  7  1  0
  1  9  1  0
  5 11  1  0
  6 11  2  0
  9 11  1  6
  8 13  1  0
 10 14  1  0
 14 15  1  6
 10 16  1  0
 18 19  2  0
 17 20  1  0
 19 20  1  0
 20 21  2  0
  9 22  1  0
 21 22  1  0
 18 23  1  0
 22 23  2  0
 12 24  1  0
 24 25  2  0
  8 26  1  0
 25 26  1  0
 26 27  2  0
 27 28  1  0
  5 29  1  0
 24 29  1  0
 28 29  2  0
 30 31  2  0
 14 32  1  0
 31 32  1  0
 32 33  2  0
 33 34  1  0
  1 35  1  0
 30 35  1  0
 34 35  2  0
M  END
