x1187-x0426-x2569
     RDKit          3D

 30 32  0  0  0  0  0  0  0  0999 V2000
    2.3680    1.7040   23.8670 C   0  0  0  0  0  0  0  0  0  0  0  0
    2.2060    0.4780   23.8010 O   0  0  0  0  0  0  0  0  0  0  0  0
    3.4160    2.4960   23.4090 N   0  0  0  0  0  0  0  0  0  0  0  0
    4.4380    1.8720   22.5960 C   0  0  0  0  0  0  0  0  0  0  0  0
    3.9850    0.8930   21.5390 C   0  0  0  0  0  0  0  0  0  0  0  0
    2.7460    4.4160   25.3180 F   0  0  0  0  0  0  0  0  0  0  0  0
    7.9230    0.0260   21.7930 C   0  0  0  0  0  0  0  0  0  0  0  0
    8.6590    0.8960   21.3250 O   0  0  0  0  0  0  0  0  0  0  0  0
    8.5110   -0.5990   23.0580 C   0  0  0  0  0  0  0  0  0  0  0  0
   13.5150   -2.6160   20.7600 N   0  0  0  0  0  0  0  0  0  0  0  0
    6.6710   -0.3750   21.2820 N   0  0  0  0  0  0  0  0  0  0  0  0
   12.9770   -1.9250   21.4620 C   0  0  0  0  0  0  0  0  0  0  0  0
    1.5290    3.8510   25.2690 C   0  0  0  0  0  0  0  0  0  0  0  0
    1.2760    2.5190   24.5710 C   0  0  0  0  0  0  0  0  0  0  0  0
   -0.0140    1.9870   24.5560 C   0  0  0  0  0  0  0  0  0  0  0  0
   -1.0530    2.6850   25.1800 C   0  0  0  0  0  0  0  0  0  0  0  0
   -0.8270    3.9160   25.8280 C   0  0  0  0  0  0  0  0  0  0  0  0
    0.4520    4.4970   25.8740 C   0  0  0  0  0  0  0  0  0  0  0  0
    6.1240    0.1800   20.1840 C   0  0  0  0  0  0  0  0  0  0  0  0
    6.8400    0.1200   18.9840 C   0  0  0  0  0  0  0  0  0  0  0  0
    6.4290    0.6610   17.8150 N   0  0  0  0  0  0  0  0  0  0  0  0
    5.2600    1.3030   17.7810 C   0  0  0  0  0  0  0  0  0  0  0  0
    4.3400    1.4540   18.9460 C   0  0  0  0  0  0  0  0  0  0  0  0
    4.8670    0.8160   20.2260 C   0  0  0  0  0  0  0  0  0  0  0  0
   11.9190    0.5680   23.9970 N   0  0  0  0  0  0  0  0  0  0  0  0
   12.7670   -0.1770   23.2000 C   0  0  0  0  0  0  0  0  0  0  0  0
   12.1820   -1.1000   22.3280 C   0  0  0  0  0  0  0  0  0  0  0  0
   10.8040   -1.2110   22.3090 C   0  0  0  0  0  0  0  0  0  0  0  0
   10.0220   -0.4290   23.1350 C   0  0  0  0  0  0  0  0  0  0  0  0
   10.6180    0.4830   24.0020 C   0  0  0  0  0  0  0  0  0  0  0  0
  1  2  2  0
  1  3  1  0
  3  4  1  0
  4  5  1  0
  7  8  2  0
  7  9  1  0
  7 11  1  0
 10 12  3  0
  6 13  1  0
  1 14  1  0
 13 14  2  0
 14 15  1  0
 15 16  2  0
 16 17  1  0
 13 18  1  0
 17 18  2  0
 11 19  1  0
 19 20  2  0
 20 21  1  0
 21 22  2  0
 22 23  1  0
  5 24  1  0
 19 24  1  0
 23 24  2  0
 25 26  2  0
 12 27  1  0
 26 27  1  0
 27 28  2  0
  9 29  1  0
 28 29  1  0
 25 30  1  0
 29 30  2  0
M  END
