x1187-x2908-x1493
     RDKit          3D

 32 34  0  0  0  0  0  0  0  0999 V2000
    4.5490    1.4710   21.4140 C   0  0  0  0  0  0  0  0  0  0  0  0
    8.6480    1.4670   21.0850 O   0  0  0  0  0  0  0  0  0  0  0  0
   13.1840   -2.3400   21.3350 Cl  0  0  0  0  0  0  0  0  0  0  0  0
    6.9430   -0.1720   21.0500 N   0  0  0  0  0  0  0  0  0  0  0  0
    8.6830   -0.3540   22.5240 N   0  0  0  0  0  0  0  0  0  0  0  0
    8.1530    0.4250   21.5230 C   0  0  0  0  0  0  0  0  0  0  0  0
    4.8300   -6.2390   26.0540 C   0  0  0  0  0  0  0  0  0  0  0  0
    7.1390   -5.4660   26.3050 O   0  0  0  0  0  0  0  0  0  0  0  0
    5.9430   -5.5780   25.5290 C   0  0  0  0  0  0  0  0  0  0  0  0
    5.5990   -4.7600   19.9820 O   0  0  0  0  0  0  0  0  0  0  0  0
    6.6450   -4.5740   20.6040 C   0  0  0  0  0  0  0  0  0  0  0  0
    7.7110   -3.5790   20.0780 C   0  0  0  0  0  0  0  0  0  0  0  0
    6.7520   -1.5460   21.0260 C   0  0  0  0  0  0  0  0  0  0  0  0
    7.1110   -2.2530   19.7510 C   0  0  0  0  0  0  0  0  0  0  0  0
    6.3080    0.7670   17.5740 N   0  0  0  0  0  0  0  0  0  0  0  0
    6.8250    0.2400   18.6760 C   0  0  0  0  0  0  0  0  0  0  0  0
    6.3230    0.4230   19.9390 C   0  0  0  0  0  0  0  0  0  0  0  0
    5.1900    1.2040   20.0920 C   0  0  0  0  0  0  0  0  0  0  0  0
    4.6150    1.7740   18.9630 C   0  0  0  0  0  0  0  0  0  0  0  0
    5.2090    1.5330   17.7230 C   0  0  0  0  0  0  0  0  0  0  0  0
   10.5840    0.6170   23.6460 C   0  0  0  0  0  0  0  0  0  0  0  0
   12.0690    0.6830   23.8800 C   0  0  0  0  0  0  0  0  0  0  0  0
   12.9120   -0.2790   23.1350 C   0  0  0  0  0  0  0  0  0  0  0  0
   12.2260   -1.2600   22.1930 C   0  0  0  0  0  0  0  0  0  0  0  0
   10.8290   -1.2310   22.0550 C   0  0  0  0  0  0  0  0  0  0  0  0
   10.0480   -0.3120   22.7620 C   0  0  0  0  0  0  0  0  0  0  0  0
    5.8490   -5.0480   24.2510 N   0  0  0  0  0  0  0  0  0  0  0  0
    6.6710   -4.0930   23.8330 C   0  0  0  0  0  0  0  0  0  0  0  0
    7.5860   -4.6080   22.9330 C   0  0  0  0  0  0  0  0  0  0  0  0
    6.8810   -5.2230   21.8080 N   0  0  0  0  0  0  0  0  0  0  0  0
    6.0560   -6.1760   22.1620 C   0  0  0  0  0  0  0  0  0  0  0  0
    5.2770   -5.7910   23.2520 C   0  0  0  0  0  0  0  0  0  0  0  0
  2  6  2  0
  4  6  1  0
  5  6  1  0
  7  9  1  0
  8  9  2  0
 10 11  2  0
 11 12  1  0
  4 13  1  0
 12 14  1  0
 13 14  1  0
 15 16  2  0
  4 17  1  0
 16 17  1  0
  1 18  1  0
 17 18  2  0
 18 19  1  0
 15 20  1  0
 19 20  2  0
 21 22  2  0
 22 23  1  0
  3 24  1  0
 23 24  2  0
 24 25  1  0
  5 26  1  0
 21 26  1  0
 25 26  2  0
  9 27  1  0
 27 28  1  0
 28 29  1  0
 11 30  1  0
 29 30  1  0
 30 31  1  0
 27 32  1  0
 31 32  1  0
M  END
