x1187-x1249-x0395
     RDKit          3D

 25 27  0  0  0  0  0  0  0  0999 V2000
    8.2340    0.6400   24.6810 N   0  0  0  0  0  0  0  0  0  0  0  0
    7.4510    1.4760   23.9290 C   0  0  0  0  0  0  0  0  0  0  0  0
    7.8610    2.5410   23.4750 O   0  0  0  0  0  0  0  0  0  0  0  0
    9.5820    1.0680   24.9090 C   0  0  0  0  0  0  0  0  0  0  0  0
   13.2060   -2.4050   20.8530 N   0  0  0  0  0  0  0  0  0  0  0  0
   13.4860   -1.3160   21.5380 C   0  0  0  0  0  0  0  0  0  0  0  0
    8.9280   -5.7240   26.5420 C   0  0  0  0  0  0  0  0  0  0  0  0
    8.8040   -1.4910   23.1040 C   0  0  0  0  0  0  0  0  0  0  0  0
    3.4320    1.0170   23.5560 O   0  0  0  0  0  0  0  0  0  0  0  0
    4.1060    0.9720   22.5260 C   0  0  0  0  0  0  0  0  0  0  0  0
    5.4240    1.4430   22.5290 C   0  0  0  0  0  0  0  0  0  0  0  0
    6.1770    1.0000   23.7320 N   0  0  0  0  0  0  0  0  0  0  0  0
    5.3120    0.6930   24.8870 C   0  0  0  0  0  0  0  0  0  0  0  0
    4.0170    0.2320   24.6150 C   0  0  0  0  0  0  0  0  0  0  0  0
   11.8070    0.8900   23.8920 C   0  0  0  0  0  0  0  0  0  0  0  0
   12.7730    0.3410   23.0960 C   0  0  0  0  0  0  0  0  0  0  0  0
   12.4780   -0.7740   22.3360 C   0  0  0  0  0  0  0  0  0  0  0  0
   11.2000   -1.3550   22.3470 C   0  0  0  0  0  0  0  0  0  0  0  0
   10.1620   -0.8390   23.1340 C   0  0  0  0  0  0  0  0  0  0  0  0
   10.5380    0.3850   23.9800 C   0  0  0  0  0  0  0  0  0  0  0  0
    8.6990   -4.3690   25.8770 C   0  0  0  0  0  0  0  0  0  0  0  0
    8.0590   -3.1660   26.4580 N   0  0  0  0  0  0  0  0  0  0  0  0
    8.0280   -2.1030   25.6070 N   0  0  0  0  0  0  0  0  0  0  0  0
    8.6390   -2.4040   24.2930 C   0  0  0  0  0  0  0  0  0  0  0  0
    9.2070   -4.0440   24.2450 S   0  0  0  0  0  0  0  0  0  0  0  0
  1  2  1  0
  2  3  2  0
  1  4  1  0
  5  6  3  0
  9 10  1  0
 10 11  1  0
  2 12  1  0
 11 12  1  0
 12 13  1  0
  9 14  1  0
 13 14  1  0
 15 16  2  0
  6 17  1  0
 16 17  1  0
 17 18  2  0
  8 19  1  0
 18 19  1  0
  4 20  1  0
 15 20  1  0
 19 20  2  0
  7 21  1  0
 21 22  2  0
 22 23  1  0
  8 24  1  0
 23 24  2  0
 21 25  1  0
 24 25  1  0
M  END
