x1187-x1392
     RDKit          3D

 15 16  0  0  0  0  0  0  0  0999 V2000
    7.7480   -0.8830   -5.2080 C   0  0  0  0  0  0  0  0  0  0  0  0
    4.3150   -1.6450   -8.5930 C   0  0  0  0  0  0  0  0  0  0  0  0
    3.9210   -0.5480   -8.7670 O   0  0  0  0  0  0  0  0  0  0  0  0
    3.9990   -2.6380   -9.5080 N   0  0  0  0  0  0  0  0  0  0  0  0
    3.3560   -2.1330  -10.7360 C   0  0  0  0  0  0  0  0  0  0  0  0
    6.6800   -1.5570   -5.8930 N   0  0  0  0  0  0  0  0  0  0  0  0
    6.0970   -2.7250   -5.5480 C   0  0  0  0  0  0  0  0  0  0  0  0
    5.1550   -2.9320   -6.4960 C   0  0  0  0  0  0  0  0  0  0  0  0
    5.1480   -1.9140   -7.4040 C   0  0  0  0  0  0  0  0  0  0  0  0
    6.1220   -1.0320   -7.0300 N   0  0  0  0  0  0  0  0  0  0  0  0
    3.0750   -2.4370  -13.0870 C   0  0  0  0  0  0  0  0  0  0  0  0
    3.2380   -3.0090  -11.8110 C   0  0  1  0  0  0  0  0  0  0  0  0
    4.3850   -3.8440  -11.9300 O   0  0  0  0  0  0  0  0  0  0  0  0
    4.2680   -4.3670  -13.2500 C   0  0  0  0  0  0  0  0  0  0  0  0
    3.8780   -3.2970  -14.0520 C   0  0  0  0  0  0  0  0  0  0  0  0
  2  3  2  0
  2  4  1  0
  4  5  1  0
  1  6  1  0
  6  7  1  0
  7  8  2  0
  2  9  1  0
  8  9  1  0
  6 10  1  0
  9 10  2  0
 12  5  1  1
 11 12  1  0
 12 13  1  0
 13 14  1  0
 11 15  1  0
 14 15  1  0
M  END
