x1187-x0991-x0705
     RDKit          3D

 23 24  0  0  0  0  0  0  0  0999 V2000
    1.0910   -2.6590   27.8220 C   0  0  0  0  0  0  0  0  0  0  0  0
    7.2220   -1.1020   26.2890 O   0  0  0  0  0  0  0  0  0  0  0  0
    5.9460   -3.5780   19.5410 O   0  0  0  0  0  0  0  0  0  0  0  0
    6.3460   -1.5860   25.6010 C   0  0  0  0  0  0  0  0  0  0  0  0
    6.7150   -3.7110   20.5090 C   0  0  0  0  0  0  0  0  0  0  0  0
    7.9330   -4.5840   20.4380 C   0  0  0  0  0  0  0  0  0  0  0  0
    9.8280   -5.6280   25.0120 N   0  0  0  0  0  0  0  0  0  0  0  0
    8.5430   -3.8630   23.0840 C   0  0  0  0  0  0  0  0  0  0  0  0
    7.7290   -4.7060   24.0940 C   0  0  0  0  0  0  0  0  0  0  0  0
    7.7780   -5.7110   26.2630 N   0  0  0  0  0  0  0  0  0  0  0  0
    8.4440   -5.3560   25.1320 C   0  0  0  0  0  0  0  0  0  0  0  0
    2.5200   -2.4590   27.3110 C   0  0  0  0  0  0  0  0  0  0  0  0
    2.6750   -1.5110   26.3160 C   0  0  0  0  0  0  0  0  0  0  0  0
    3.9070   -1.2420   25.7780 C   0  0  0  0  0  0  0  0  0  0  0  0
    5.0250   -1.9350   26.2440 C   0  0  0  0  0  0  0  0  0  0  0  0
    4.8980   -2.9040   27.2520 C   0  0  0  0  0  0  0  0  0  0  0  0
    3.6270   -3.1880   27.8110 C   0  0  0  0  0  0  0  0  0  0  0  0
    6.5810   -3.1180   21.8330 N   0  0  0  0  0  0  0  0  0  0  0  0
    5.6040   -3.4470   22.5780 C   0  0  0  0  0  0  0  0  0  0  0  0
    5.1680   -2.3620   23.5570 C   0  0  0  0  0  0  0  0  0  0  0  0
    6.3760   -1.8650   24.2480 N   0  0  0  0  0  0  0  0  0  0  0  0
    7.4620   -1.4650   23.3560 C   0  0  0  0  0  0  0  0  0  0  0  0
    7.7070   -2.7050   22.4730 C   0  0  1  0  0  0  0  0  0  0  0  0
  2  4  2  0
  3  5  2  0
  5  6  1  0
  8  9  1  0
  7 11  2  3
  9 11  1  0
 10 11  1  0
  1 12  1  0
 12 13  2  0
 13 14  1  0
  4 15  1  0
 14 15  2  0
 15 16  1  0
 12 17  1  0
 16 17  2  0
  5 18  1  0
 18 19  1  0
 19 20  1  0
  4 21  1  0
 20 21  1  0
 21 22  1  0
 23  8  1  1
 18 23  1  0
 22 23  1  0
M  END
