x1187-x0887
     RDKit          3D

 15 16  0  0  0  0  0  0  0  0999 V2000
    7.6820   -0.9120   -5.0550 C   0  0  0  0  0  0  0  0  0  0  0  0
    4.5030   -1.2650   -8.7420 C   0  0  0  0  0  0  0  0  0  0  0  0
    4.4320   -0.0990   -9.0850 O   0  0  0  0  0  0  0  0  0  0  0  0
    3.9380   -2.2830   -9.5060 N   0  0  0  0  0  0  0  0  0  0  0  0
    3.3090   -1.8780  -10.7720 C   0  0  0  0  0  0  0  0  0  0  0  0
    6.6470   -1.5040   -5.8540 N   0  0  0  0  0  0  0  0  0  0  0  0
    6.0030   -2.6790   -5.6520 C   0  0  0  0  0  0  0  0  0  0  0  0
    5.1280   -2.7610   -6.6830 C   0  0  0  0  0  0  0  0  0  0  0  0
    5.2220   -1.6700   -7.5030 C   0  0  0  0  0  0  0  0  0  0  0  0
    6.1910   -0.8660   -6.9790 N   0  0  0  0  0  0  0  0  0  0  0  0
    3.0330   -2.3620  -13.0970 C   0  0  0  0  0  0  0  0  0  0  0  0
    3.2150   -2.8380  -11.7830 C   0  0  1  0  0  0  0  0  0  0  0  0
    4.3650   -3.6830  -11.8480 O   0  0  0  0  0  0  0  0  0  0  0  0
    4.2600   -4.2610  -13.1510 C   0  0  0  0  0  0  0  0  0  0  0  0
    3.9170   -3.2140  -13.9950 C   0  0  0  0  0  0  0  0  0  0  0  0
  2  3  2  0
  2  4  1  0
  4  5  1  0
  1  6  1  0
  6  7  1  0
  7  8  2  0
  2  9  1  0
  8  9  1  0
  6 10  1  0
  9 10  2  0
 12  5  1  1
 11 12  1  0
 12 13  1  0
 13 14  1  0
 11 15  1  0
 14 15  1  0
M  END
