x1187-x1086
     RDKit          3D

 21 22  0  0  0  0  0  0  0  0999 V2000
    5.7720    3.5910   -7.1530 N   0  0  0  0  0  0  0  0  0  0  0  0
    4.2310   -1.3380   -9.1780 C   0  0  0  0  0  0  0  0  0  0  0  0
    4.4100    2.2130   -5.9330 O   0  0  0  0  0  0  0  0  0  0  0  0
    6.7680    1.6260   -5.7320 O   0  0  0  0  0  0  0  0  0  0  0  0
    5.3790    1.1530   -7.9460 C   0  0  0  0  0  0  0  0  0  0  0  0
    7.9080   -4.0210   -8.0230 F   0  0  0  0  0  0  0  0  0  0  0  0
    5.6440    2.0510   -6.5250 S   0  0  0  0  0  0  0  0  0  0  0  0
    3.7490   -0.0550   -9.3610 O   0  0  0  0  0  0  0  0  0  0  0  0
    3.5410   -2.5580   -9.5630 N   0  0  0  0  0  0  0  0  0  0  0  0
    2.7550   -2.5240  -10.7280 C   0  0  0  0  0  0  0  0  0  0  0  0
    5.5520   -1.5000   -8.5250 C   0  0  0  0  0  0  0  0  0  0  0  0
    6.0370   -0.2310   -7.9220 C   0  0  0  0  0  0  0  0  0  0  0  0
    7.3500   -0.4430   -7.2320 C   0  0  0  0  0  0  0  0  0  0  0  0
    7.9370   -1.8050   -7.2870 C   0  0  0  0  0  0  0  0  0  0  0  0
    7.3230   -2.8430   -7.9540 C   0  0  0  0  0  0  0  0  0  0  0  0
    6.1270   -2.7160   -8.5640 C   0  0  0  0  0  0  0  0  0  0  0  0
    3.0610   -2.1950  -13.1840 C   0  0  0  0  0  0  0  0  0  0  0  0
    3.6050   -2.4730  -11.9670 C   0  0  2  0  0  0  0  0  0  0  0  0
    4.1050   -3.8330  -12.1160 O   0  0  0  0  0  0  0  0  0  0  0  0
    4.5440   -4.0180  -13.4690 C   0  0  0  0  0  0  0  0  0  0  0  0
    3.8030   -3.0870  -14.1830 C   0  0  0  0  0  0  0  0  0  0  0  0
  7  1  1  0
  3  7  2  0
  4  7  2  0
  5  7  1  0
  2  8  2  0
  2  9  1  0
  9 10  1  0
  2 11  1  0
  5 12  1  0
 11 12  2  0
 12 13  1  0
 13 14  2  0
  6 15  1  0
 14 15  1  0
 11 16  1  0
 15 16  2  0
 18 10  1  1
 17 18  1  0
 18 19  1  0
 19 20  1  0
 17 21  1  0
 20 21  1  0
M  END
