x1187-x0540-x0395
     RDKit          3D

 35 38  0  0  0  0  0  0  0  0999 V2000
    2.8230    1.5500   24.3680 O   0  0  0  0  0  0  0  0  0  0  0  0
    2.9430    2.4830   23.2780 C   0  0  0  0  0  0  0  0  0  0  0  0
    4.1330    2.5690   22.5570 N   0  0  0  0  0  0  0  0  0  0  0  0
    5.0700    1.4580   22.5920 C   0  0  0  0  0  0  0  0  0  0  0  0
    4.8110    0.2290   21.7260 C   0  0  2  0  0  0  0  0  0  0  0  0
    1.8720    3.3060   22.9380 N   0  0  0  0  0  0  0  0  0  0  0  0
    9.4250   -5.2790   26.4820 C   0  0  0  0  0  0  0  0  0  0  0  0
    9.0540   -1.2980   22.9290 C   0  0  2  0  0  0  0  0  0  0  0  0
   13.6320   -1.5350   21.6090 F   0  0  0  0  0  0  0  0  0  0  0  0
    5.5020   -1.0000   22.3500 C   0  0  0  0  0  0  0  0  0  0  0  0
    6.5360   -0.7570   23.2630 C   0  0  0  0  0  0  0  0  0  0  0  0
    7.9000   -0.2720   22.7710 C   0  0  0  0  0  0  0  0  0  0  0  0
    6.3510   -0.2590   19.8760 C   0  0  0  0  0  0  0  0  0  0  0  0
    6.8090   -0.1290   18.5790 C   0  0  0  0  0  0  0  0  0  0  0  0
    6.2840    0.5650   17.7860 N   0  0  0  0  0  0  0  0  0  0  0  0
    5.1820    1.2600   18.1530 C   0  0  0  0  0  0  0  0  0  0  0  0
    4.5940    1.2440   19.4150 C   0  0  0  0  0  0  0  0  0  0  0  0
    5.2350    0.4220   20.3350 C   0  0  0  0  0  0  0  0  0  0  0  0
    0.6800    4.2350   24.8330 C   0  0  0  0  0  0  0  0  0  0  0  0
   -0.6410    4.9150   25.2410 C   0  0  0  0  0  0  0  0  0  0  0  0
   -1.6640    4.6520   24.1430 C   0  0  0  0  0  0  0  0  0  0  0  0
   -1.6250    3.1390   23.8090 C   0  0  0  0  0  0  0  0  0  0  0  0
   -0.3330    2.6570   23.4550 C   0  0  0  0  0  0  0  0  0  0  0  0
    0.6330    3.6620   23.5590 C   0  0  0  0  0  0  0  0  0  0  0  0
    9.0860   -4.0240   25.7090 C   0  0  0  0  0  0  0  0  0  0  0  0
    8.2200   -3.1010   26.0710 N   0  0  0  0  0  0  0  0  0  0  0  0
    8.1190   -2.0860   25.1860 N   0  0  0  0  0  0  0  0  0  0  0  0
    8.9230   -2.2450   24.1230 C   0  0  0  0  0  0  0  0  0  0  0  0
    9.8420   -3.6840   24.2250 S   0  0  0  0  0  0  0  0  0  0  0  0
   10.7310    0.1200   23.8540 C   0  0  0  0  0  0  0  0  0  0  0  0
   11.7230    1.0010   23.4340 C   0  0  0  0  0  0  0  0  0  0  0  0
   12.7940    0.3310   22.8060 C   0  0  0  0  0  0  0  0  0  0  0  0
   12.6190   -0.9260   22.2230 C   0  0  0  0  0  0  0  0  0  0  0  0
   11.3960   -1.5570   22.2560 C   0  0  0  0  0  0  0  0  0  0  0  0
   10.3730   -0.6380   22.7690 N   0  0  0  0  0  0  0  0  0  0  0  0
  1  2  2  0
  2  3  1  0
  3  4  1  0
  5  4  1  1
  2  6  1  0
  5 10  1  0
 10 11  1  0
  8 12  1  1
 11 12  1  0
 13 14  2  0
 14 15  1  0
 15 16  2  0
 16 17  1  0
  5 18  1  0
 13 18  1  0
 17 18  2  0
 19 20  1  0
 20 21  1  0
 21 22  1  0
 22 23  1  0
  6 24  1  0
 19 24  1  0
 23 24  1  0
  7 25  1  0
 25 26  2  0
 26 27  1  0
  8 28  1  0
 27 28  2  0
 25 29  1  0
 28 29  1  0
 30 31  1  0
 31 32  1  0
  9 33  1  0
 32 33  2  0
 33 34  1  0
  8 35  1  0
 30 35  1  0
 34 35  1  0
M  END
