x1187-x2646-x2562
     RDKit          3D

 24 26  0  0  0  0  0  0  0  0999 V2000
    8.1500    0.1850   21.2220 C   0  0  0  0  0  0  0  0  0  0  0  0
    8.2540    1.4160   21.0810 O   0  0  0  0  0  0  0  0  0  0  0  0
    6.8350   -0.5270   21.1010 C   0  0  0  0  0  0  0  0  0  0  0  0
   12.1030    2.7910   23.4290 O   0  0  0  0  0  0  0  0  0  0  0  0
    9.1580   -0.6720   21.4620 N   0  0  0  0  0  0  0  0  0  0  0  0
   12.8520    6.8220   22.4790 O   0  0  0  0  0  0  0  0  0  0  0  0
    4.5010    1.0050   21.5480 C   0  0  0  0  0  0  0  0  0  0  0  0
   13.5380   -2.2680   22.9720 Cl  0  0  0  0  0  0  0  0  0  0  0  0
    4.4930    1.5930   19.1250 N   0  0  0  0  0  0  0  0  0  0  0  0
    5.0480    1.5020   17.8670 C   0  0  0  0  0  0  0  0  0  0  0  0
    6.1930    0.7220   17.5960 N   0  0  0  0  0  0  0  0  0  0  0  0
    6.6980    0.1190   18.5830 C   0  0  0  0  0  0  0  0  0  0  0  0
    6.1890    0.1650   19.9730 C   0  0  0  0  0  0  0  0  0  0  0  0
    5.0710    0.9300   20.1330 C   0  0  0  0  0  0  0  0  0  0  0  0
   12.4720    4.4990   21.8470 N   0  0  0  0  0  0  0  0  0  0  0  0
   13.4380    5.5610   22.2350 C   0  0  2  0  0  0  0  0  0  0  0  0
   13.5110    4.7560   23.2840 C   0  0  0  0  0  0  0  0  0  0  0  0
   13.0590    3.6050   22.7440 C   0  0  1  0  0  0  0  0  0  0  0  0
   11.3740   -1.2760   22.2750 C   0  0  0  0  0  0  0  0  0  0  0  0
   12.5620   -0.9160   22.8340 C   0  0  0  0  0  0  0  0  0  0  0  0
   12.8260    0.4310   23.2090 C   0  0  0  0  0  0  0  0  0  0  0  0
   11.9010    1.4860   23.0670 C   0  0  0  0  0  0  0  0  0  0  0  0
   10.5870    1.0680   22.4610 C   0  0  0  0  0  0  0  0  0  0  0  0
   10.4050   -0.3680   22.0700 C   0  0  0  0  0  0  0  0  0  0  0  0
  1  2  2  0
  1  3  1  0
  1  5  1  0
  9 10  2  0
 10 11  1  0
 11 12  2  0
  3 13  1  0
 12 13  1  0
  7 14  1  0
  9 14  1  0
 13 14  2  0
 16  6  1  1
 15 16  1  0
 16 17  1  0
 18  4  1  1
 15 18  1  0
 17 18  1  0
  8 20  1  0
 19 20  2  0
 20 21  1  0
  4 22  1  0
 21 22  2  0
 22 23  1  0
  5 24  1  0
 19 24  1  0
 23 24  2  0
M  END
