x1187-x2764-x0995
     RDKit          3D

 20 21  0  0  0  0  0  0  0  0999 V2000
    8.7180   -1.2430   21.3570 N   0  0  0  0  0  0  0  0  0  0  0  0
    7.3610   -1.3470   21.1160 C   0  0  0  0  0  0  0  0  0  0  0  0
    6.7000   -2.2700   21.5860 O   0  0  0  0  0  0  0  0  0  0  0  0
    9.1530   -2.0440   22.4870 C   0  0  0  0  0  0  0  0  0  0  0  0
    6.2110    1.3830   21.9920 O   0  0  0  0  0  0  0  0  0  0  0  0
    7.8600    4.0500   22.9260 N   0  0  0  0  0  0  0  0  0  0  0  0
    7.3210    1.8860   22.1990 C   0  0  0  0  0  0  0  0  0  0  0  0
    7.5090    3.2390   21.8910 C   0  0  0  0  0  0  0  0  0  0  0  0
    4.8430    3.0170   20.2180 N   0  0  0  0  0  0  0  0  0  0  0  0
   12.9380   -1.6330   22.5830 N   0  0  0  0  0  0  0  0  0  0  0  0
   11.7730   -1.8370   21.9770 C   0  0  0  0  0  0  0  0  0  0  0  0
   10.5850   -1.8440   22.8850 C   0  0  0  0  0  0  0  0  0  0  0  0
   10.9570   -1.6370   24.1860 C   0  0  0  0  0  0  0  0  0  0  0  0
   12.6640   -1.4530   24.2340 S   0  0  0  0  0  0  0  0  0  0  0  0
    6.3990   -0.5560   18.8350 C   0  0  0  0  0  0  0  0  0  0  0  0
    5.7220    0.3160   18.0030 C   0  0  0  0  0  0  0  0  0  0  0  0
    5.2130    1.4920   18.4630 C   0  0  0  0  0  0  0  0  0  0  0  0
    5.3660    1.8560   19.7950 C   0  0  0  0  0  0  0  0  0  0  0  0
    6.0630    0.9930   20.6770 C   0  0  0  0  0  0  0  0  0  0  0  0
    6.5790   -0.2400   20.1920 C   0  0  0  0  0  0  0  0  0  0  0  0
  1  2  1  0
  2  3  2  0
  1  4  1  0
  5  7  1  0
  6  8  3  0
  7  8  1  0
 10 11  2  0
  4 12  1  0
 11 12  1  0
 12 13  2  0
 10 14  1  0
 13 14  1  0
 15 16  2  0
 16 17  1  0
  9 18  1  0
 17 18  2  0
  5 19  1  0
 18 19  1  0
  2 20  1  0
 15 20  1  0
 19 20  2  0
M  END
