x1187-x0165-x1235
     RDKit          3D

 26 28  0  0  0  0  0  0  0  0999 V2000
   22.8730  -22.5760   20.1470 N   0  0  0  0  0  0  0  0  0  0  0  0
   25.3820  -20.2630   19.5780 C   0  0  0  0  0  0  0  0  0  0  0  0
   24.5310  -20.8710   20.2160 O   0  0  0  0  0  0  0  0  0  0  0  0
   23.9790  -21.7850   19.6400 C   0  0  0  0  0  0  0  0  0  0  0  0
   24.3560  -22.1050   18.5200 O   0  0  0  0  0  0  0  0  0  0  0  0
   21.1400  -27.3070   18.3970 C   0  0  0  0  0  0  0  0  0  0  0  0
   23.0830  -17.7800   24.3450 C   0  0  0  0  0  0  0  0  0  0  0  0
   22.4570  -22.4100   21.5730 C   0  0  0  0  0  0  0  0  0  0  0  0
   21.4240  -22.9700   21.9510 O   0  0  0  0  0  0  0  0  0  0  0  0
   21.3140  -25.0430   17.7280 N   0  0  0  0  0  0  0  0  0  0  0  0
   21.5240  -25.8200   18.5590 C   0  0  0  0  0  0  0  0  0  0  0  0
   22.2700  -25.2780   19.9960 S   0  0  0  0  0  0  0  0  0  0  0  0
   22.3300  -23.6710   19.4150 C   0  0  0  0  0  0  0  0  0  0  0  0
   21.7030  -23.6690   18.0210 C   0  0  0  0  0  0  0  0  0  0  0  0
   20.7670  -21.4490   17.3940 C   0  0  0  0  0  0  0  0  0  0  0  0
   20.5360  -20.5190   16.4010 C   0  0  0  0  0  0  0  0  0  0  0  0
   20.9090  -20.6360   15.0780 C   0  0  0  0  0  0  0  0  0  0  0  0
   21.5910  -21.7910   14.6850 C   0  0  0  0  0  0  0  0  0  0  0  0
   21.8560  -22.7830   15.6760 C   0  0  0  0  0  0  0  0  0  0  0  0
   21.4400  -22.6130   17.0250 C   0  0  0  0  0  0  0  0  0  0  0  0
   22.9120  -18.9390   23.5850 N   0  0  0  0  0  0  0  0  0  0  0  0
   23.9430  -19.1840   22.7600 C   0  0  0  0  0  0  0  0  0  0  0  0
   24.0880  -20.5550   22.0900 C   0  0  0  0  0  0  0  0  0  0  0  0
   23.1460  -21.6010   22.5480 N   0  0  0  0  0  0  0  0  0  0  0  0
   22.4330  -21.3150   23.6830 C   0  0  0  0  0  0  0  0  0  0  0  0
   22.7990  -20.1440   24.4070 C   0  0  0  0  0  0  0  0  0  0  0  0
  2  3  1  0
  1  4  1  0
  3  4  1  0
  4  5  2  0
  1  8  1  0
  8  9  2  0
  6 11  1  0
 10 11  2  0
 11 12  1  0
  1 13  1  0
 12 13  1  0
 10 14  1  0
 13 14  2  0
 15 16  2  0
 16 17  1  0
 17 18  2  0
 18 19  1  0
 14 20  1  0
 15 20  1  0
 19 20  2  0
  7 21  1  0
 21 22  1  0
 22 23  1  0
  8 24  1  0
 23 24  1  0
 24 25  1  0
 21 26  1  0
 25 26  1  0
M  END
