x1187-x0107-x2964
     RDKit          3D

 19 20  0  0  0  0  0  0  0  0999 V2000
    3.6260    2.0570   19.2220 N   0  0  0  0  0  0  0  0  0  0  0  0
    8.8330    1.5910   21.1800 O   0  0  0  0  0  0  0  0  0  0  0  0
   13.2910   -2.1800   21.3250 Cl  0  0  0  0  0  0  0  0  0  0  0  0
    7.3210   -0.4030   21.0940 N   0  0  0  0  0  0  0  0  0  0  0  0
    8.9570   -0.3630   22.6650 N   0  0  0  0  0  0  0  0  0  0  0  0
    8.3620    0.3060   21.6300 C   0  0  0  0  0  0  0  0  0  0  0  0
    4.7810    1.1990   21.7560 C   0  0  0  0  0  0  0  0  0  0  0  0
    4.6070    1.4350   19.2030 C   0  0  0  0  0  0  0  0  0  0  0  0
    5.2600    0.9560   20.3500 C   0  0  0  0  0  0  0  0  0  0  0  0
    6.5180    0.1560   20.1210 C   0  0  0  0  0  0  0  0  0  0  0  0
    6.9420   -0.0420   18.7080 C   0  0  0  0  0  0  0  0  0  0  0  0
    6.2030    0.5060   17.5920 N   0  0  0  0  0  0  0  0  0  0  0  0
    5.2440    1.1110   17.8480 C   0  0  0  0  0  0  0  0  0  0  0  0
   10.8620    0.7970   23.5000 C   0  0  0  0  0  0  0  0  0  0  0  0
   12.2320    0.9050   23.5510 C   0  0  0  0  0  0  0  0  0  0  0  0
   13.0210    0.0030   22.8960 C   0  0  0  0  0  0  0  0  0  0  0  0
   12.4300   -1.0240   22.1840 C   0  0  0  0  0  0  0  0  0  0  0  0
   11.0690   -1.1600   22.1140 C   0  0  0  0  0  0  0  0  0  0  0  0
   10.2600   -0.2420   22.7690 C   0  0  0  0  0  0  0  0  0  0  0  0
  2  6  2  0
  4  6  1  0
  5  6  1  0
  1  8  1  0
  7  9  1  0
  8  9  2  0
  4 10  1  0
  9 10  1  0
 10 11  2  0
 11 12  1  0
  8 13  1  0
 12 13  2  0
 14 15  2  0
 15 16  1  0
  3 17  1  0
 16 17  2  0
 17 18  1  0
  5 19  1  0
 14 19  1  0
 18 19  2  0
M  END
