x1187-x1093-x1348
     RDKit          3D

 35 39  0  0  0  0  0  0  0  0999 V2000
    6.9690   -3.8520   21.5540 N   0  0  0  0  0  0  0  0  0  0  0  0
    7.8340   -5.1240   27.6330 C   0  0  0  0  0  0  0  0  0  0  0  0
    7.4010   -4.7240   26.5480 O   0  0  0  0  0  0  0  0  0  0  0  0
    5.3870   -4.3630   19.8780 O   0  0  0  0  0  0  0  0  0  0  0  0
    6.4260   -3.8290   20.2740 C   0  0  0  0  0  0  0  0  0  0  0  0
    7.3020   -3.0830   19.3200 C   0  0  0  0  0  0  0  0  0  0  0  0
   13.2360   -1.4060   23.8480 C   0  0  0  0  0  0  0  0  0  0  0  0
    8.6650    1.2570   21.0950 O   0  0  0  0  0  0  0  0  0  0  0  0
    8.5830    0.0750   21.4900 C   0  0  0  0  0  0  0  0  0  0  0  0
    7.5110   -0.9420   20.9490 C   0  0  2  0  0  0  0  0  0  0  0  0
    7.9920   -1.8790   20.0530 C   0  0  0  0  0  0  0  0  0  0  0  0
    6.3350   -5.4360   26.0250 C   0  0  0  0  0  0  0  0  0  0  0  0
    6.1120   -5.2980   24.6640 C   0  0  0  0  0  0  0  0  0  0  0  0
    5.0640   -5.9760   24.0430 C   0  0  0  0  0  0  0  0  0  0  0  0
    4.2350   -6.7960   24.8010 C   0  0  0  0  0  0  0  0  0  0  0  0
    4.4340   -6.9490   26.1790 C   0  0  0  0  0  0  0  0  0  0  0  0
    5.5010   -6.2620   26.8100 C   0  0  0  0  0  0  0  0  0  0  0  0
    6.8560   -4.5160   23.8240 N   0  0  0  0  0  0  0  0  0  0  0  0
    6.3530   -4.6160   22.6030 C   0  0  0  0  0  0  0  0  0  0  0  0
    5.0220   -5.6260   22.3660 S   0  0  0  0  0  0  0  0  0  0  0  0
   12.1950   -1.0400   23.0220 N   0  0  0  0  0  0  0  0  0  0  0  0
   11.8190    0.2360   23.2550 C   0  0  0  0  0  0  0  0  0  0  0  0
   10.3550    0.6440   23.0950 C   0  0  0  0  0  0  0  0  0  0  0  0
    9.4990   -0.3900   22.4650 N   0  0  0  0  0  0  0  0  0  0  0  0
    9.9630   -1.6620   22.4160 C   0  0  0  0  0  0  0  0  0  0  0  0
   11.0550   -1.9130   23.2680 C   0  0  0  0  0  0  0  0  0  0  0  0
    6.2290    0.4410   17.9190 N   0  0  0  0  0  0  0  0  0  0  0  0
    7.1200   -0.3410   18.6380 C   0  0  0  0  0  0  0  0  0  0  0  0
    6.7990   -0.2550   19.9640 C   0  0  0  0  0  0  0  0  0  0  0  0
    5.7270    0.5570   20.1070 C   0  0  0  0  0  0  0  0  0  0  0  0
    5.3830    0.9720   18.8010 C   0  0  0  0  0  0  0  0  0  0  0  0
    4.3230    1.7980   18.5810 N   0  0  0  0  0  0  0  0  0  0  0  0
    3.6050    2.2360   19.6500 C   0  0  0  0  0  0  0  0  0  0  0  0
    3.9410    1.8380   20.9440 C   0  0  0  0  0  0  0  0  0  0  0  0
    5.0170    0.9860   21.1520 C   0  0  0  0  0  0  0  0  0  0  0  0
  2  3  1  0
  1  5  1  0
  4  5  2  0
  5  6  1  0
  8  9  2  0
  9 10  1  0
  6 11  1  0
 10 11  1  6
  3 12  1  0
 12 13  2  0
 13 14  1  0
 14 15  2  0
 15 16  1  0
 12 17  1  0
 16 17  2  0
 13 18  1  0
  1 19  1  0
 18 19  2  0
 14 20  1  0
 19 20  1  0
  7 21  1  0
 21 22  1  0
 22 23  1  0
  9 24  1  0
 23 24  1  0
 24 25  1  0
 21 26  1  0
 25 26  1  0
 27 28  1  0
 10 29  1  0
 28 29  2  0
 29 30  1  0
 27 31  2  0
 30 31  1  0
 31 32  1  0
 32 33  1  0
 33 34  2  0
 30 35  2  0
 34 35  1  0
M  END
