x1187-x0397-x0678
     RDKit          3D

 24 26  0  0  0  0  0  0  0  0999 V2000
    8.1690   -1.6910   21.2490 C   0  0  0  0  0  0  0  0  0  0  0  0
    7.0040   -1.7960   20.4720 N   0  0  0  0  0  0  0  0  0  0  0  0
    7.0550   -1.4070   19.0600 C   0  0  0  0  0  0  0  0  0  0  0  0
    3.5560    2.5030   19.1710 C   0  0  0  0  0  0  0  0  0  0  0  0
    6.1070   -2.9600   20.7610 C   0  0  0  0  0  0  0  0  0  0  0  0
    5.3220   -3.4340   19.9390 O   0  0  0  0  0  0  0  0  0  0  0  0
    6.2610   -3.4840   22.0590 N   0  0  0  0  0  0  0  0  0  0  0  0
    8.4850    0.7730   20.9800 O   0  0  0  0  0  0  0  0  0  0  0  0
    8.6180   -0.2260   21.6870 C   0  0  0  0  0  0  0  0  0  0  0  0
    9.2090   -0.1310   23.0900 C   0  0  0  0  0  0  0  0  0  0  0  0
    5.0870    0.2800   19.6830 C   0  0  0  0  0  0  0  0  0  0  0  0
    6.2040   -0.2340   18.8290 C   0  0  0  0  0  0  0  0  0  0  0  0
    6.3530    0.5560   17.7510 N   0  0  0  0  0  0  0  0  0  0  0  0
    5.4160    1.5950   17.7920 O   0  0  0  0  0  0  0  0  0  0  0  0
    4.5960    1.5000   18.9510 C   0  0  0  0  0  0  0  0  0  0  0  0
    6.3690   -5.4380   23.2450 C   0  0  0  0  0  0  0  0  0  0  0  0
    5.7160   -4.6590   22.4610 C   0  0  0  0  0  0  0  0  0  0  0  0
    6.0050   -5.8980   21.7630 C   0  0  0  0  0  0  0  0  0  0  0  0
   11.0520   -1.5190   22.3320 C   0  0  0  0  0  0  0  0  0  0  0  0
   12.2090   -2.2160   22.7200 C   0  0  0  0  0  0  0  0  0  0  0  0
   13.2000   -1.1680   23.2770 C   0  0  0  0  0  0  0  0  0  0  0  0
   12.6360   -0.4130   24.4730 C   0  0  0  0  0  0  0  0  0  0  0  0
   11.1260   -0.5170   24.4530 C   0  0  0  0  0  0  0  0  0  0  0  0
   10.7170   -0.4030   23.1220 C   0  0  0  0  0  0  0  0  0  0  0  0
  1  2  1  0
  2  3  1  0
  2  5  1  0
  5  6  2  0
  5  7  1  0
  1  9  1  0
  8  9  2  0
  9 10  1  0
  3 12  1  0
 11 12  1  0
 12 13  2  0
 13 14  1  0
  4 15  1  0
 11 15  2  0
 14 15  1  0
  7 17  1  0
 16 17  1  0
 16 18  1  0
 17 18  1  0
 19 20  1  0
 20 21  1  0
 21 22  1  0
 22 23  1  0
 10 24  1  0
 19 24  1  0
 23 24  1  0
M  END
