x1187-x1249-x1386
     RDKit          3D

 28 30  0  0  0  0  0  0  0  0999 V2000
    8.0800    0.4870   24.9730 N   0  0  0  0  0  0  0  0  0  0  0  0
    7.4800    1.3660   24.0870 C   0  0  0  0  0  0  0  0  0  0  0  0
    8.0890    2.2810   23.5420 O   0  0  0  0  0  0  0  0  0  0  0  0
    9.4500    0.7570   25.3120 C   0  0  0  0  0  0  0  0  0  0  0  0
   13.8880   -1.7250   20.5540 N   0  0  0  0  0  0  0  0  0  0  0  0
   13.2150   -1.3130   21.5610 C   0  0  0  0  0  0  0  0  0  0  0  0
    7.3220   -2.9810   18.6650 C   0  0  0  0  0  0  0  0  0  0  0  0
    5.4360   -3.9410   19.6650 O   0  0  0  0  0  0  0  0  0  0  0  0
    6.3830   -3.1470   19.7580 C   0  0  0  0  0  0  0  0  0  0  0  0
    9.1600   -2.1110   24.0820 C   0  0  0  0  0  0  0  0  0  0  0  0
    3.4280    0.8360   23.5840 O   0  0  0  0  0  0  0  0  0  0  0  0
    4.2690    0.9140   22.4490 C   0  0  0  0  0  0  0  0  0  0  0  0
    5.5880    1.6370   22.7590 C   0  0  0  0  0  0  0  0  0  0  0  0
    6.1380    1.1230   23.8840 N   0  0  0  0  0  0  0  0  0  0  0  0
    5.2830    0.8700   24.8980 C   0  0  0  0  0  0  0  0  0  0  0  0
    4.0520    0.2630   24.6410 C   0  0  0  0  0  0  0  0  0  0  0  0
   11.5620    0.9780   23.9470 C   0  0  0  0  0  0  0  0  0  0  0  0
   12.4970    0.4880   23.0380 C   0  0  0  0  0  0  0  0  0  0  0  0
   12.3180   -0.7950   22.5090 C   0  0  0  0  0  0  0  0  0  0  0  0
   11.2980   -1.6610   22.8010 C   0  0  0  0  0  0  0  0  0  0  0  0
   10.2820   -1.1610   23.7760 C   0  0  0  0  0  0  0  0  0  0  0  0
   10.4610    0.2210   24.3430 C   0  0  0  0  0  0  0  0  0  0  0  0
    6.6460   -2.3940   20.9070 N   0  0  0  0  0  0  0  0  0  0  0  0
    7.5260   -1.3430   20.8900 C   0  0  0  0  0  0  0  0  0  0  0  0
    8.6190   -1.5240   21.7480 C   0  0  0  0  0  0  0  0  0  0  0  0
    8.1650   -2.0680   23.0300 N   0  0  0  0  0  0  0  0  0  0  0  0
    7.5420   -3.2600   22.7920 C   0  0  0  0  0  0  0  0  0  0  0  0
    6.3590   -2.8590   22.1400 C   0  0  0  0  0  0  0  0  0  0  0  0
  1  2  1  0
  2  3  2  0
  1  4  1  0
  5  6  3  0
  7  9  1  0
  8  9  2  0
 11 12  1  0
 12 13  1  0
  2 14  1  0
 13 14  1  0
 14 15  1  0
 11 16  1  0
 15 16  1  0
 17 18  2  0
  6 19  1  0
 18 19  1  0
 19 20  2  0
 10 21  1  0
 20 21  1  0
  4 22  1  0
 17 22  1  0
 21 22  2  0
  9 23  1  0
 23 24  1  0
 24 25  1  0
 10 26  1  0
 25 26  1  0
 26 27  1  0
 23 28  1  0
 27 28  1  0
M  END
