x1187-x1249
     RDKit          3D

 18 19  0  0  0  0  0  0  0  0999 V2000
    8.0550    0.5260   24.9190 N   0  0  0  0  0  0  0  0  0  0  0  0
    7.4260    1.3880   24.0710 C   0  0  0  0  0  0  0  0  0  0  0  0
    8.0300    2.3010   23.5180 O   0  0  0  0  0  0  0  0  0  0  0  0
    9.4030    0.8930   25.3000 C   0  0  0  0  0  0  0  0  0  0  0  0
   13.7210   -1.9230   20.6910 N   0  0  0  0  0  0  0  0  0  0  0  0
   13.1150   -1.4940   21.5110 C   0  0  0  0  0  0  0  0  0  0  0  0
    3.4310    0.8980   23.5760 O   0  0  0  0  0  0  0  0  0  0  0  0
    4.2640    0.9890   22.4160 C   0  0  0  0  0  0  0  0  0  0  0  0
    5.4600    1.6740   22.6800 C   0  0  0  0  0  0  0  0  0  0  0  0
    6.0850    1.1480   23.9040 N   0  0  0  0  0  0  0  0  0  0  0  0
    5.1750    0.9360   25.0430 C   0  0  0  0  0  0  0  0  0  0  0  0
    4.0400    0.2520   24.6000 C   0  0  0  0  0  0  0  0  0  0  0  0
   11.5140    0.9540   23.8810 C   0  0  0  0  0  0  0  0  0  0  0  0
   12.4050    0.3590   22.9670 C   0  0  0  0  0  0  0  0  0  0  0  0
   12.2520   -0.9320   22.4270 C   0  0  0  0  0  0  0  0  0  0  0  0
   11.0470   -1.7070   22.8900 C   0  0  0  0  0  0  0  0  0  0  0  0
   10.1050   -1.1020   23.8500 C   0  0  0  0  0  0  0  0  0  0  0  0
   10.3650    0.2910   24.3520 C   0  0  0  0  0  0  0  0  0  0  0  0
  1  2  1  0
  2  3  2  0
  1  4  1  0
  5  6  3  0
  7  8  1  0
  8  9  1  0
  2 10  1  0
  9 10  1  0
 10 11  1  0
  7 12  1  0
 11 12  1  0
 13 14  2  0
  6 15  1  0
 14 15  1  0
 15 16  2  0
 16 17  1  0
  4 18  1  0
 13 18  1  0
 17 18  2  0
M  END
