x1187-x2764-x3110
     RDKit          3D

 33 34  0  0  0  0  0  0  0  0999 V2000
    7.7330    1.3820   23.0670 N   0  0  0  0  0  0  0  0  0  0  0  0
   13.4800    4.8920   22.7240 C   0  0  0  0  0  0  0  0  0  0  0  0
   11.7650    3.2460   22.4650 O   0  0  0  0  0  0  0  0  0  0  0  0
   12.2530    4.2960   22.0590 C   0  0  0  0  0  0  0  0  0  0  0  0
    6.9870   -1.7300   21.6720 N   0  0  0  0  0  0  0  0  0  0  0  0
   10.8220    4.3950   24.1880 O   0  0  0  0  0  0  0  0  0  0  0  0
   10.8830    3.4000   23.4840 C   0  0  0  0  0  0  0  0  0  0  0  0
    8.7600    0.7420   21.1950 O   0  0  0  0  0  0  0  0  0  0  0  0
   10.0420    2.2860   23.6260 C   0  0  0  0  0  0  0  0  0  0  0  0
    4.8790   -3.0440   21.1170 O   0  0  0  0  0  0  0  0  0  0  0  0
    8.7180    2.4660   22.8580 C   0  0  2  0  0  0  0  0  0  0  0  0
    7.7910    0.5780   21.9300 C   0  0  0  0  0  0  0  0  0  0  0  0
    6.7440   -0.3570   21.6090 C   0  0  1  0  0  0  0  0  0  0  0  0
    6.1550   -2.9580   21.4070 C   0  0  0  0  0  0  0  0  0  0  0  0
    6.8310   -4.3980   21.4950 C   0  0  0  0  0  0  0  0  0  0  0  0
    8.2870   -4.3780   20.9430 C   0  0  0  0  0  0  0  0  0  0  0  0
   12.3420   -1.8250   24.0990 C   0  0  0  0  0  0  0  0  0  0  0  0
   12.5010   -0.6510   24.8380 C   0  0  0  0  0  0  0  0  0  0  0  0
   13.3850   -1.8200   22.9850 C   0  0  0  0  0  0  0  0  0  0  0  0
   12.7100   -3.0100   24.9910 C   0  0  0  0  0  0  0  0  0  0  0  0
    7.9900    3.6760   23.2110 N   0  0  0  0  0  0  0  0  0  0  0  0
    6.3520    0.3750   17.8570 N   0  0  0  0  0  0  0  0  0  0  0  0
    5.2500    1.1390   17.8200 C   0  0  0  0  0  0  0  0  0  0  0  0
    4.4360    1.5190   19.0260 C   0  0  0  0  0  0  0  0  0  0  0  0
    5.0290    0.9360   20.3160 C   0  0  0  0  0  0  0  0  0  0  0  0
    6.1970    0.1510   20.2840 C   0  0  0  0  0  0  0  0  0  0  0  0
    6.7970   -0.0930   19.0480 C   0  0  0  0  0  0  0  0  0  0  0  0
    9.4510   -1.3790   21.6590 C   0  0  0  0  0  0  0  0  0  0  0  0
   10.7380   -1.3980   22.2270 C   0  0  0  0  0  0  0  0  0  0  0  0
   10.9220   -1.8620   23.5200 C   0  0  0  0  0  0  0  0  0  0  0  0
    9.8190   -2.3100   24.1910 C   0  0  0  0  0  0  0  0  0  0  0  0
    8.5230   -2.2930   23.6200 C   0  0  0  0  0  0  0  0  0  0  0  0
    8.3120   -1.8150   22.3270 C   0  0  0  0  0  0  0  0  0  0  0  0
  2  4  1  0
  3  4  1  0
  3  7  1  0
  6  7  2  0
  7  9  1  0
  1 11  1  0
  9 11  1  0
  1 12  1  0
  8 12  2  0
  5 13  1  0
 13 12  1  6
  5 14  1  0
 10 14  2  0
 14 15  1  0
 15 16  1  0
 17 18  1  0
 17 19  1  0
 17 20  1  0
 11 21  1  1
 22 23  2  0
 23 24  1  0
 24 25  2  0
 13 26  1  0
 25 26  1  0
 22 27  1  0
 26 27  2  0
 28 29  2  0
 17 30  1  0
 29 30  1  0
 30 31  2  0
 31 32  1  0
  5 33  1  0
 28 33  1  0
 32 33  2  0
M  END
