x1187-x2908-x1402
     RDKit          3D

 38 41  0  0  0  0  0  0  0  0999 V2000
    7.7410   -3.7100   20.2700 C   0  0  0  0  0  0  0  0  0  0  0  0
    5.5260   -4.5500   19.9250 O   0  0  0  0  0  0  0  0  0  0  0  0
    0.7440   -1.4300   26.1850 Cl  0  0  0  0  0  0  0  0  0  0  0  0
    6.5700   -4.5780   20.5740 C   0  0  0  0  0  0  0  0  0  0  0  0
    3.9540   -6.5650   26.0180 O   0  0  0  0  0  0  0  0  0  0  0  0
    6.1450   -5.3480   26.9360 O   0  0  0  0  0  0  0  0  0  0  0  0
    4.9900   -5.3670   25.8430 S   0  0  0  0  0  0  0  0  0  0  0  0
    4.2780    1.4990   21.4680 C   0  0  0  0  0  0  0  0  0  0  0  0
    8.7260    1.3280   21.1680 O   0  0  0  0  0  0  0  0  0  0  0  0
   13.2730   -2.0070   21.3190 Cl  0  0  0  0  0  0  0  0  0  0  0  0
    6.9190   -0.2650   21.1570 N   0  0  0  0  0  0  0  0  0  0  0  0
    8.7270   -0.3890   22.6420 N   0  0  0  0  0  0  0  0  0  0  0  0
    8.1740    0.3020   21.6350 C   0  0  0  0  0  0  0  0  0  0  0  0
    7.0890   -2.3570   19.9440 C   0  0  0  0  0  0  0  0  0  0  0  0
    6.8230   -1.6170   21.2170 C   0  0  0  0  0  0  0  0  0  0  0  0
    6.7420   -5.4750   21.7530 N   0  0  0  0  0  0  0  0  0  0  0  0
    7.5760   -5.1770   22.7730 C   0  0  0  0  0  0  0  0  0  0  0  0
    7.0050   -4.7530   24.1160 C   0  0  0  0  0  0  0  0  0  0  0  0
    5.7410   -5.5120   24.3450 N   0  0  0  0  0  0  0  0  0  0  0  0
    4.8740   -5.7450   23.1410 C   0  0  0  0  0  0  0  0  0  0  0  0
    5.6970   -6.2250   22.1070 C   0  0  0  0  0  0  0  0  0  0  0  0
    2.4080   -3.8770   25.9970 S   0  0  0  0  0  0  0  0  0  0  0  0
    4.1320   -3.8220   25.9230 C   0  0  0  0  0  0  0  0  0  0  0  0
    4.5590   -2.4960   25.9450 C   0  0  0  0  0  0  0  0  0  0  0  0
    3.5310   -1.5770   26.0250 C   0  0  0  0  0  0  0  0  0  0  0  0
    2.2780   -2.1830   26.0680 C   0  0  0  0  0  0  0  0  0  0  0  0
    6.3330    0.7390   17.5560 N   0  0  0  0  0  0  0  0  0  0  0  0
    6.8580    0.1800   18.6550 C   0  0  0  0  0  0  0  0  0  0  0  0
    6.2740    0.3590   20.0270 C   0  0  0  0  0  0  0  0  0  0  0  0
    5.0220    1.2130   20.1010 C   0  0  0  0  0  0  0  0  0  0  0  0
    4.5480    1.7490   18.9050 C   0  0  0  0  0  0  0  0  0  0  0  0
    5.2020    1.5040   17.7120 C   0  0  0  0  0  0  0  0  0  0  0  0
   10.6530    0.5850   23.7600 C   0  0  0  0  0  0  0  0  0  0  0  0
   12.0330    0.6650   23.9200 C   0  0  0  0  0  0  0  0  0  0  0  0
   12.8630   -0.1470   23.1640 C   0  0  0  0  0  0  0  0  0  0  0  0
   12.3150   -1.0170   22.2750 C   0  0  0  0  0  0  0  0  0  0  0  0
   10.9490   -1.1060   22.1140 C   0  0  0  0  0  0  0  0  0  0  0  0
   10.1150   -0.3030   22.8500 C   0  0  0  0  0  0  0  0  0  0  0  0
  1  4  1  0
  2  4  2  0
  5  7  2  0
  6  7  2  0
  9 13  2  0
 11 13  1  0
 12 13  1  0
  1 14  1  0
 11 15  1  0
 14 15  1  0
  4 16  1  0
 16 17  1  0
 17 18  1  0
  7 19  1  0
 18 19  1  0
 19 20  1  0
 16 21  1  0
 20 21  1  0
  7 23  1  0
 22 23  1  0
 23 24  2  0
 24 25  1  0
  3 26  1  0
 22 26  1  0
 25 26  2  0
 27 28  2  0
 11 29  1  0
 28 29  1  0
  8 30  1  0
 29 30  2  0
 30 31  1  0
 27 32  1  0
 31 32  2  0
 33 34  2  0
 34 35  1  0
 10 36  1  0
 35 36  2  0
 36 37  1  0
 12 38  1  0
 33 38  1  0
 37 38  2  0
M  END
