x1187-x0426-x2193
     RDKit          3D

 36 39  0  0  0  0  0  0  0  0999 V2000
    2.3670    1.6790   23.9360 C   0  0  0  0  0  0  0  0  0  0  0  0
    2.0850    0.4900   23.8260 O   0  0  0  0  0  0  0  0  0  0  0  0
    3.5300    2.3330   23.5550 N   0  0  0  0  0  0  0  0  0  0  0  0
    4.3520    1.6220   22.5980 C   0  0  1  0  0  0  0  0  0  0  0  0
    3.7230    1.3880   21.2350 C   0  0  0  0  0  0  0  0  0  0  0  0
    2.7820    4.4650   25.3280 F   0  0  0  0  0  0  0  0  0  0  0  0
   10.7230    2.4110   23.4030 C   0  0  0  0  0  0  0  0  0  0  0  0
    9.3710    1.7960   21.1200 O   0  0  0  0  0  0  0  0  0  0  0  0
    7.8950    2.4600   23.3630 N   0  0  0  0  0  0  0  0  0  0  0  0
    9.2430    1.7370   22.6820 S   0  0  2  0  0  0  0  0  0  0  0  0
    5.6970    2.3570   22.4590 C   0  0  0  0  0  0  0  0  0  0  0  0
    6.8950    1.8550   23.2780 C   0  0  0  0  0  0  0  0  0  0  0  0
    1.5640    3.9060   25.2680 C   0  0  0  0  0  0  0  0  0  0  0  0
    1.3040    2.5600   24.6050 C   0  0  0  0  0  0  0  0  0  0  0  0
   -0.0050    2.0800   24.6040 C   0  0  0  0  0  0  0  0  0  0  0  0
   -1.0730    2.7710   25.1800 C   0  0  0  0  0  0  0  0  0  0  0  0
   -0.8330    4.0160   25.7950 C   0  0  0  0  0  0  0  0  0  0  0  0
    0.4640    4.5610   25.8320 C   0  0  0  0  0  0  0  0  0  0  0  0
    5.7240    0.0320   20.2970 C   0  0  0  0  0  0  0  0  0  0  0  0
    6.6360   -0.3190   19.2820 C   0  0  0  0  0  0  0  0  0  0  0  0
    6.5610    0.3490   17.9570 N   0  0  0  0  0  0  0  0  0  0  0  0
    5.6320    1.2850   17.7220 C   0  0  0  0  0  0  0  0  0  0  0  0
    4.6300    1.7140   18.7420 C   0  0  0  0  0  0  0  0  0  0  0  0
    4.7380    1.0050   20.0880 C   0  0  0  0  0  0  0  0  0  0  0  0
    9.1850    0.1560   23.2400 C   0  0  0  0  0  0  0  0  0  0  0  0
    8.6760   -0.0140   24.5330 C   0  0  0  0  0  0  0  0  0  0  0  0
    8.6060   -1.3390   24.9610 C   0  0  0  0  0  0  0  0  0  0  0  0
    9.0090   -2.4200   24.1860 C   0  0  0  0  0  0  0  0  0  0  0  0
    9.5290   -2.2150   22.8980 C   0  0  0  0  0  0  0  0  0  0  0  0
    9.6120   -0.9140   22.4310 C   0  0  0  0  0  0  0  0  0  0  0  0
    8.2880   -5.9190   25.8100 N   0  0  0  0  0  0  0  0  0  0  0  0
    8.4290   -5.0660   26.7670 C   0  0  0  0  0  0  0  0  0  0  0  0
    8.8420   -3.8130   26.2900 C   0  0  0  0  0  0  0  0  0  0  0  0
    8.8420   -3.7450   24.8060 N   0  0  0  0  0  0  0  0  0  0  0  0
    9.6130   -4.8060   24.1990 C   0  0  0  0  0  0  0  0  0  0  0  0
    9.5260   -5.9090   25.0140 C   0  0  0  0  0  0  0  0  0  0  0  0
  1  2  2  0
  1  3  1  0
  3  4  1  0
  4  5  1  6
 10  7  1  1
  8 10  2  0
  9 10  2  0
  4 11  1  0
  9 12  1  0
 11 12  1  0
  6 13  1  0
  1 14  1  0
 13 14  2  0
 14 15  1  0
 15 16  2  0
 16 17  1  0
 13 18  1  0
 17 18  2  0
 19 20  2  0
 20 21  1  0
 21 22  2  0
 22 23  1  0
  5 24  1  0
 19 24  1  0
 23 24  2  0
 10 25  1  0
 25 26  2  0
 26 27  1  0
 27 28  2  0
 28 29  1  0
 25 30  1  0
 29 30  2  0
 31 32  1  0
 32 33  1  0
 28 34  1  0
 33 34  1  0
 34 35  1  0
 31 36  1  0
 35 36  1  0
M  END
