x1187-x1493
     RDKit          3D

 15 16  0  0  0  0  0  0  0  0999 V2000
    7.6560   -0.8590   -5.1610 C   0  0  0  0  0  0  0  0  0  0  0  0
    4.3930   -1.4020   -8.7970 C   0  0  0  0  0  0  0  0  0  0  0  0
    4.3090   -0.2740   -9.2590 O   0  0  0  0  0  0  0  0  0  0  0  0
    3.8070   -2.5270   -9.3810 N   0  0  0  0  0  0  0  0  0  0  0  0
    2.9020   -2.4700  -10.5470 C   0  0  0  0  0  0  0  0  0  0  0  0
    6.6110   -1.4770   -5.9260 N   0  0  0  0  0  0  0  0  0  0  0  0
    5.9750   -2.6440   -5.6650 C   0  0  0  0  0  0  0  0  0  0  0  0
    5.0840   -2.7710   -6.6780 C   0  0  0  0  0  0  0  0  0  0  0  0
    5.1580   -1.7120   -7.5510 C   0  0  0  0  0  0  0  0  0  0  0  0
    6.1320   -0.8830   -7.0750 N   0  0  0  0  0  0  0  0  0  0  0  0
    2.8580   -2.4140  -12.9720 C   0  0  0  0  0  0  0  0  0  0  0  0
    3.5810   -2.5130  -11.7760 C   0  0  2  0  0  0  0  0  0  0  0  0
    4.2630   -3.7790  -11.8620 O   0  0  0  0  0  0  0  0  0  0  0  0
    4.0820   -4.2740  -13.1950 C   0  0  0  0  0  0  0  0  0  0  0  0
    3.7070   -3.1790  -13.9700 C   0  0  0  0  0  0  0  0  0  0  0  0
  2  3  2  0
  2  4  1  0
  4  5  1  0
  1  6  1  0
  6  7  1  0
  7  8  2  0
  2  9  1  0
  8  9  1  0
  6 10  1  0
  9 10  2  0
 12  5  1  1
 11 12  1  0
 12 13  1  0
 13 14  1  0
 11 15  1  0
 14 15  1  0
M  END
