x1187-x1308-x0107
     RDKit          3D

 31 33  0  0  0  0  0  0  0  0999 V2000
    7.8450   -3.8190   20.6160 C   0  0  0  0  0  0  0  0  0  0  0  0
    5.6870   -4.7080   20.0180 O   0  0  0  0  0  0  0  0  0  0  0  0
    0.6940   -1.2280   26.5160 Cl  0  0  0  0  0  0  0  0  0  0  0  0
    6.6720   -4.7020   20.7720 C   0  0  0  0  0  0  0  0  0  0  0  0
    6.4850   -5.1280   26.9240 O   0  0  0  0  0  0  0  0  0  0  0  0
    4.7150   -6.9250   26.1000 O   0  0  0  0  0  0  0  0  0  0  0  0
    5.2640   -5.4390   25.9530 S   0  0  0  0  0  0  0  0  0  0  0  0
    9.8320   -1.3430   22.1450 C   0  0  0  0  0  0  0  0  0  0  0  0
    8.9170   -0.5650   21.4300 C   0  0  0  0  0  0  0  0  0  0  0  0
    9.0570    0.6680   21.4690 O   0  0  0  0  0  0  0  0  0  0  0  0
    7.8910   -1.1850   20.6900 N   0  0  0  0  0  0  0  0  0  0  0  0
    5.5800    0.4510   22.0260 C   0  0  0  0  0  0  0  0  0  0  0  0
    7.3570   -2.3960   21.1070 C   0  0  0  0  0  0  0  0  0  0  0  0
    6.7950   -5.5460   21.8820 N   0  0  0  0  0  0  0  0  0  0  0  0
    7.6040   -5.2590   22.9060 C   0  0  0  0  0  0  0  0  0  0  0  0
    7.0170   -4.7510   24.2080 C   0  0  0  0  0  0  0  0  0  0  0  0
    5.7740   -5.2270   24.3590 N   0  0  0  0  0  0  0  0  0  0  0  0
    5.0490   -5.7210   23.3200 C   0  0  0  0  0  0  0  0  0  0  0  0
    5.7450   -6.3000   22.2460 C   0  0  0  0  0  0  0  0  0  0  0  0
    4.3250   -3.0070   26.4880 C   0  0  0  0  0  0  0  0  0  0  0  0
    3.2990   -2.0560   26.6170 C   0  0  0  0  0  0  0  0  0  0  0  0
    1.9440   -2.3880   26.3440 C   0  0  0  0  0  0  0  0  0  0  0  0
    1.4990   -3.6580   25.9220 C   0  0  0  0  0  0  0  0  0  0  0  0
    2.6300   -4.6850   25.7860 C   0  0  0  0  0  0  0  0  0  0  0  0
    4.0540   -4.3050   26.0910 C   0  0  0  0  0  0  0  0  0  0  0  0
    6.9770   -0.3740   19.9860 C   0  0  0  0  0  0  0  0  0  0  0  0
    5.9200    0.3750   20.5750 C   0  0  0  0  0  0  0  0  0  0  0  0
    5.0850    1.1360   19.7250 C   0  0  0  0  0  0  0  0  0  0  0  0
    5.3550    1.1020   18.3470 C   0  0  0  0  0  0  0  0  0  0  0  0
    6.3190    0.4200   17.7940 N   0  0  0  0  0  0  0  0  0  0  0  0
    7.1210   -0.3160   18.6320 C   0  0  0  0  0  0  0  0  0  0  0  0
  1  4  1  0
  2  4  2  0
  5  7  2  0
  6  7  2  0
  8  9  1  0
  9 10  2  0
  9 11  1  0
  1 13  1  0
 11 13  1  0
  4 14  1  0
 14 15  1  0
 15 16  1  0
  7 17  1  0
 16 17  1  0
 17 18  1  0
 14 19  1  0
 18 19  1  0
 20 21  2  0
  3 22  1  0
 21 22  1  0
 22 23  2  0
 23 24  1  0
  7 25  1  0
 20 25  1  0
 24 25  2  0
 11 26  1  0
 12 27  1  0
 26 27  2  0
 27 28  1  0
 28 29  2  0
 29 30  1  0
 26 31  1  0
 30 31  2  0
M  END
