x1187-x1249-x2646
     RDKit          3D

 29 32  0  0  0  0  0  0  0  0999 V2000
    8.0560    0.5260   25.0140 N   0  0  0  0  0  0  0  0  0  0  0  0
    7.4780    1.3100   24.0200 C   0  0  0  0  0  0  0  0  0  0  0  0
    8.0590    2.2520   23.4870 O   0  0  0  0  0  0  0  0  0  0  0  0
    9.4200    0.8090   25.3800 C   0  0  0  0  0  0  0  0  0  0  0  0
   13.8110   -1.8000   20.6260 N   0  0  0  0  0  0  0  0  0  0  0  0
   13.1290   -1.3960   21.6440 C   0  0  0  0  0  0  0  0  0  0  0  0
    4.8610    2.0690   21.5660 C   0  0  1  0  0  0  0  0  0  0  0  0
    8.8170    0.8950   21.3510 O   0  0  0  0  0  0  0  0  0  0  0  0
    7.0590   -0.3670   21.2650 N   0  0  0  0  0  0  0  0  0  0  0  0
    8.3010   -0.2170   21.4900 C   0  0  0  0  0  0  0  0  0  0  0  0
    9.1540   -1.3900   21.9240 C   0  0  0  0  0  0  0  0  0  0  0  0
    3.8620    0.1630   23.0720 O   0  0  0  0  0  0  0  0  0  0  0  0
    4.0750    1.5180   22.7670 C   0  0  1  0  0  0  0  0  0  0  0  0
    5.3430    1.9880   23.0170 C   0  0  1  0  0  0  0  0  0  0  0  0
    6.1770    0.9390   23.7050 N   0  0  0  0  0  0  0  0  0  0  0  0
    5.3780    0.2210   24.7610 C   0  0  0  0  0  0  0  0  0  0  0  0
    4.0780   -0.1170   24.3790 C   0  0  0  0  0  0  0  0  0  0  0  0
   11.4350    1.0420   23.8740 C   0  0  0  0  0  0  0  0  0  0  0  0
   12.3100    0.4580   22.9800 C   0  0  0  0  0  0  0  0  0  0  0  0
   12.2300   -0.8880   22.6060 C   0  0  0  0  0  0  0  0  0  0  0  0
   11.3040   -1.8030   23.0880 C   0  0  0  0  0  0  0  0  0  0  0  0
   10.3240   -1.1970   24.0780 C   0  0  0  0  0  0  0  0  0  0  0  0
   10.4300    0.2620   24.4320 C   0  0  0  0  0  0  0  0  0  0  0  0
    6.1570    0.3510   17.6980 N   0  0  0  0  0  0  0  0  0  0  0  0
    6.7200   -0.1790   18.9280 C   0  0  0  0  0  0  0  0  0  0  0  0
    6.3510    0.3130   20.1920 C   0  0  0  0  0  0  0  0  0  0  0  0
    5.4060    1.3530   20.3220 C   0  0  0  0  0  0  0  0  0  0  0  0
    4.8840    1.8320   19.0980 C   0  0  0  0  0  0  0  0  0  0  0  0
    5.2760    1.3210   17.8610 C   0  0  0  0  0  0  0  0  0  0  0  0
  1  2  1  0
  2  3  2  0
  1  4  1  0
  5  6  3  0
  8 10  2  0
  9 10  1  0
 10 11  1  0
  7 13  1  0
 13 12  1  6
  7 14  1  0
 13 14  1  0
  2 15  1  0
 14 15  1  6
 15 16  1  0
 12 17  1  0
 16 17  1  0
 18 19  2  0
  6 20  1  0
 19 20  1  0
 20 21  2  0
 21 22  1  0
  4 23  1  0
 18 23  1  0
 22 23  2  0
 24 25  2  0
  9 26  1  0
 25 26  1  0
  7 27  1  6
 26 27  2  0
 27 28  1  0
 24 29  1  0
 28 29  2  0
M  END
