x1187-x0946-x0354
     RDKit          3D

 28 30  0  0  0  0  0  0  0  0999 V2000
   12.9320   -1.0850   22.4480 C   0  0  0  0  0  0  0  0  0  0  0  0
    7.5640   -2.2040   25.0360 O   0  0  0  0  0  0  0  0  0  0  0  0
    7.2080   -0.7670   27.4600 O   0  0  0  0  0  0  0  0  0  0  0  0
    8.3810   -1.4240   25.4960 C   0  0  0  0  0  0  0  0  0  0  0  0
    7.9900   -0.4000   26.5630 C   0  0  0  0  0  0  0  0  0  0  0  0
    5.4910    3.2930   31.0870 C   0  0  0  0  0  0  0  0  0  0  0  0
    8.9070    5.1390   22.6750 N   0  0  0  0  0  0  0  0  0  0  0  0
    9.6210    5.4220   25.1940 O   0  0  0  0  0  0  0  0  0  0  0  0
   11.0660    6.3140   23.3290 O   0  0  0  0  0  0  0  0  0  0  0  0
   10.2290    5.1990   23.7440 S   0  0  0  0  0  0  0  0  0  0  0  0
   12.1400   -1.1580   23.5820 N   0  0  0  0  0  0  0  0  0  0  0  0
   11.7440   -2.3690   24.1640 C   0  0  0  0  0  0  0  0  0  0  0  0
   10.2300   -2.5130   24.4170 C   0  0  0  0  0  0  0  0  0  0  0  0
    9.7240   -1.4370   25.1040 N   0  0  0  0  0  0  0  0  0  0  0  0
   10.4490   -0.3260   24.9850 C   0  0  0  0  0  0  0  0  0  0  0  0
   11.1100   -0.1040   23.6540 C   0  0  1  0  0  0  0  0  0  0  0  0
    7.6630    0.6850   29.3940 C   0  0  0  0  0  0  0  0  0  0  0  0
    7.1920    1.6840   30.2480 C   0  0  0  0  0  0  0  0  0  0  0  0
    5.9100    2.2120   30.1320 C   0  0  0  0  0  0  0  0  0  0  0  0
    5.0830    1.7050   29.1290 C   0  0  0  0  0  0  0  0  0  0  0  0
    5.5580    0.7010   28.2620 C   0  0  0  0  0  0  0  0  0  0  0  0
    6.8570    0.1870   28.3820 C   0  0  0  0  0  0  0  0  0  0  0  0
   12.7980    1.5250   22.9280 C   0  0  0  0  0  0  0  0  0  0  0  0
   13.2690    2.9150   22.6670 C   0  0  0  0  0  0  0  0  0  0  0  0
   12.3660    4.0570   22.9610 C   0  0  0  0  0  0  0  0  0  0  0  0
   11.1060    3.7940   23.4740 C   0  0  0  0  0  0  0  0  0  0  0  0
   10.6540    2.4510   23.7220 C   0  0  0  0  0  0  0  0  0  0  0  0
   11.5320    1.3420   23.4330 C   0  0  0  0  0  0  0  0  0  0  0  0
  2  4  2  0
  3  5  1  0
  4  5  1  0
 10  7  1  0
  8 10  2  0
  9 10  2  0
  1 11  1  0
 11 12  1  0
 12 13  1  0
  4 14  1  0
 13 14  1  0
 14 15  1  0
 11 16  1  0
 15 16  1  0
 17 18  2  0
  6 19  1  0
 18 19  1  0
 19 20  2  0
 20 21  1  0
  3 22  1  0
 17 22  1  0
 21 22  2  0
 23 24  2  0
 24 25  1  0
 10 26  1  0
 25 26  2  0
 26 27  1  0
 16 28  1  1
 23 28  1  0
 27 28  2  0
M  END
