x1187-x1249-x0397
     RDKit          3D

 36 40  0  0  0  0  0  0  0  0999 V2000
    7.7260   -1.5280   20.9290 C   0  0  0  0  0  0  0  0  0  0  0  0
    6.7810   -2.1080   20.1220 N   0  0  0  0  0  0  0  0  0  0  0  0
    6.7320   -1.6710   18.7370 C   0  0  0  0  0  0  0  0  0  0  0  0
    3.6650    2.4520   19.2430 C   0  0  0  0  0  0  0  0  0  0  0  0
    6.0220   -3.3070   20.5550 C   0  0  0  0  0  0  0  0  0  0  0  0
    5.3880   -4.0570   19.8010 O   0  0  0  0  0  0  0  0  0  0  0  0
    6.1160   -3.5380   21.9380 N   0  0  0  0  0  0  0  0  0  0  0  0
    8.1970    0.7690   25.2160 N   0  0  0  0  0  0  0  0  0  0  0  0
    7.7390    1.2430   24.1420 C   0  0  1  0  0  0  0  0  0  0  0  0
    8.2720    2.4980   23.7420 O   0  0  0  0  0  0  0  0  0  0  0  0
    9.5220    0.8900   25.3780 C   0  0  0  0  0  0  0  0  0  0  0  0
   13.5120   -2.2830   20.7980 N   0  0  0  0  0  0  0  0  0  0  0  0
   12.9410   -1.6980   21.5710 C   0  0  0  0  0  0  0  0  0  0  0  0
    7.5070   -0.0350   20.8870 C   0  0  0  0  0  0  0  0  0  0  0  0
    8.1510    0.5660   21.9300 C   0  0  0  0  0  0  0  0  0  0  0  0
    7.5590    0.2890   23.1460 C   0  0  2  0  0  0  0  0  0  0  0  0
    5.0130    0.0470   19.4320 C   0  0  0  0  0  0  0  0  0  0  0  0
    6.0280   -0.3620   18.5970 C   0  0  0  0  0  0  0  0  0  0  0  0
    6.3040    0.5510   17.6540 N   0  0  0  0  0  0  0  0  0  0  0  0
    5.4560    1.6350   17.8310 O   0  0  0  0  0  0  0  0  0  0  0  0
    4.6380    1.4140   18.8920 C   0  0  0  0  0  0  0  0  0  0  0  0
    6.5220   -5.5220   23.3300 C   0  0  0  0  0  0  0  0  0  0  0  0
    5.6520   -4.7910   22.4330 C   0  0  0  0  0  0  0  0  0  0  0  0
    6.0840   -5.9930   21.7980 C   0  0  0  0  0  0  0  0  0  0  0  0
    3.6750    0.9930   23.5570 O   0  0  0  0  0  0  0  0  0  0  0  0
    4.4320    1.2200   22.4610 C   0  0  0  0  0  0  0  0  0  0  0  0
    5.5890    1.8760   22.9560 C   0  0  0  0  0  0  0  0  0  0  0  0
    6.3160    0.9500   23.7200 C   0  0  0  0  0  0  0  0  0  0  0  0
    5.5140    0.4840   24.7910 C   0  0  0  0  0  0  0  0  0  0  0  0
    4.2320    0.0630   24.3670 C   0  0  0  0  0  0  0  0  0  0  0  0
   11.5740    0.9150   23.9030 C   0  0  0  0  0  0  0  0  0  0  0  0
   12.4270    0.3340   22.9960 C   0  0  0  0  0  0  0  0  0  0  0  0
   12.1180   -0.9560   22.5520 C   0  0  0  0  0  0  0  0  0  0  0  0
   11.0060   -1.6430   22.9950 C   0  0  0  0  0  0  0  0  0  0  0  0
   10.1600   -1.0480   23.9120 C   0  0  0  0  0  0  0  0  0  0  0  0
   10.4320    0.2300   24.3730 C   0  0  0  0  0  0  0  0  0  0  0  0
  1  2  1  0
  2  3  1  0
  2  5  1  0
  5  6  2  0
  5  7  1  0
  8  9  1  0
  9 10  1  6
  8 11  1  0
 12 13  3  0
  1 14  1  0
 14 15  1  0
  9 16  1  0
 16 15  1  6
  3 18  1  0
 17 18  1  0
 18 19  2  0
 19 20  1  0
  4 21  1  0
 17 21  2  0
 20 21  1  0
  7 23  1  0
 22 23  1  0
 22 24  1  0
 23 24  1  0
 25 26  1  0
 26 27  1  0
  9 28  1  0
 16 28  1  0
 28 27  1  0
 28 29  1  0
 25 30  1  0
 29 30  1  0
 31 32  2  0
 13 33  1  0
 32 33  1  0
 33 34  2  0
 34 35  1  0
 11 36  1  0
 31 36  1  0
 35 36  2  0
M  END
