x1187-x0731-x3117
     RDKit          3D

 48 54  0  0  0  0  0  0  0  0999 V2000
    6.7620   -1.4820   22.1450 N   0  0  0  0  0  0  0  0  0  0  0  0
    6.7730   -4.5150   20.3110 C   0  0  2  0  0  0  0  0  0  0  0  0
    4.7720   -3.0070   21.3700 O   0  0  0  0  0  0  0  0  0  0  0  0
    7.0320   -3.6660   21.4550 C   0  0  2  0  0  0  0  0  0  0  0  0
    7.6810    1.9210   23.0140 N   0  0  0  0  0  0  0  0  0  0  0  0
    8.8010    0.7950   21.4010 O   0  0  0  0  0  0  0  0  0  0  0  0
    6.0340   -2.6750   21.6460 C   0  0  0  0  0  0  0  0  0  0  0  0
    6.5560   -0.0480   21.7170 C   0  0  1  0  0  0  0  0  0  0  0  0
    7.7510    0.9010   22.0380 C   0  0  0  0  0  0  0  0  0  0  0  0
   12.2350   -1.6710   24.1660 C   0  0  0  0  0  0  0  0  0  0  0  0
   12.4210   -0.5970   25.0190 C   0  0  0  0  0  0  0  0  0  0  0  0
   13.2820   -1.5210   23.0570 C   0  0  0  0  0  0  0  0  0  0  0  0
   12.6390   -2.9450   24.9080 C   0  0  0  0  0  0  0  0  0  0  0  0
    5.4990   -4.4500   19.6850 O   0  0  0  0  0  0  0  0  0  0  0  0
    1.0700   -0.9690   26.0160 C   0  0  0  0  0  0  0  0  0  0  0  0
    6.2840   -4.9220   26.7460 O   0  0  0  0  0  0  0  0  0  0  0  0
    4.5760   -6.6200   26.0480 O   0  0  0  0  0  0  0  0  0  0  0  0
    5.2560   -5.3550   25.8320 S   0  0  0  0  0  0  0  0  0  0  0  0
    6.2880    0.3320   17.8200 N   0  0  0  0  0  0  0  0  0  0  0  0
    5.1830    1.0910   17.8220 C   0  0  0  0  0  0  0  0  0  0  0  0
    4.4760    1.4970   18.9450 C   0  0  0  0  0  0  0  0  0  0  0  0
    4.9480    1.0960   20.1900 C   0  0  0  0  0  0  0  0  0  0  0  0
    6.0920    0.3120   20.3420 C   0  0  0  0  0  0  0  0  0  0  0  0
    6.7550   -0.0640   19.0090 C   0  0  0  0  0  0  0  0  0  0  0  0
    9.8770    5.2160   24.0790 O   0  0  0  0  0  0  0  0  0  0  0  0
   10.6500    4.1370   23.5970 C   0  0  0  0  0  0  0  0  0  0  0  0
    9.7630    2.8800   23.5880 C   0  0  0  0  0  0  0  0  0  0  0  0
    8.5240    3.1280   22.9460 C   0  0  0  0  0  0  0  0  0  0  0  0
    7.7970    4.2430   23.4200 C   0  0  0  0  0  0  0  0  0  0  0  0
    8.7050    5.3190   23.2750 C   0  0  0  0  0  0  0  0  0  0  0  0
    9.2180   -1.9740   21.8130 C   0  0  0  0  0  0  0  0  0  0  0  0
   10.5430   -2.0210   22.3030 C   0  0  0  0  0  0  0  0  0  0  0  0
   10.8220   -1.6680   23.6050 C   0  0  0  0  0  0  0  0  0  0  0  0
    9.7540   -1.2720   24.4360 C   0  0  0  0  0  0  0  0  0  0  0  0
    8.4310   -1.2240   23.9670 C   0  0  0  0  0  0  0  0  0  0  0  0
    8.1310   -1.5650   22.6450 C   0  0  0  0  0  0  0  0  0  0  0  0
    2.1000   -2.0570   25.9440 C   0  0  0  0  0  0  0  0  0  0  0  0
    1.7870   -3.2920   25.3620 C   0  0  0  0  0  0  0  0  0  0  0  0
    2.7420   -4.3240   25.3050 C   0  0  0  0  0  0  0  0  0  0  0  0
    4.0180   -4.0930   25.8430 C   0  0  0  0  0  0  0  0  0  0  0  0
    4.3340   -2.8500   26.4170 C   0  0  0  0  0  0  0  0  0  0  0  0
    3.3770   -1.8290   26.4690 C   0  0  0  0  0  0  0  0  0  0  0  0
    6.9400   -5.2590   21.6030 C   0  0  2  0  0  0  0  0  0  0  0  0
    7.3680   -4.4210   22.6500 C   0  0  2  0  0  0  0  0  0  0  0  0
    6.6180   -4.1830   23.8160 C   0  0  0  0  0  0  0  0  0  0  0  0
    5.8680   -5.3530   24.2560 N   0  0  0  0  0  0  0  0  0  0  0  0
    5.2450   -6.2320   23.2680 C   0  0  0  0  0  0  0  0  0  0  0  0
    6.0940   -6.4020   22.0240 C   0  0  0  0  0  0  0  0  0  0  0  0
  2  4  1  0
  1  7  1  0
  3  7  2  0
  4  7  1  1
  1  8  1  0
  5  9  1  0
  6  9  2  0
  8  9  1  6
 10 11  1  0
 10 12  1  0
 10 13  1  0
  2 14  1  1
 16 18  2  0
 17 18  2  0
 19 20  2  0
 20 21  1  0
 21 22  2  0
  8 23  1  0
 22 23  1  0
 19 24  1  0
 23 24  2  0
 25 26  1  0
 26 27  1  0
  5 28  1  0
 27 28  1  0
 28 29  1  0
 25 30  1  0
 29 30  1  0
 31 32  2  0
 10 33  1  0
 32 33  1  0
 33 34  2  0
 34 35  1  0
  1 36  1  0
 31 36  1  0
 35 36  2  0
 15 37  1  0
 37 38  2  0
 38 39  1  0
 18 40  1  0
 39 40  2  0
 40 41  1  0
 37 42  1  0
 41 42  2  0
  2 43  1  0
  4 43  1  0
  4 44  1  0
 43 44  1  0
 44 45  1  1
 18 46  1  0
 45 46  1  0
 46 47  1  0
 43 48  1  1
 47 48  1  0
M  END
