x1187-x3298-x0692
     RDKit          3D

 38 42  0  0  0  0  0  0  0  0999 V2000
    7.0420    2.1120   22.2300 N   0  0  0  0  0  0  0  0  0  0  0  0
    6.9320   -0.1110   21.1450 C   0  0  2  0  0  0  0  0  0  0  0  0
    6.3580   -0.6730   22.0900 O   0  0  0  0  0  0  0  0  0  0  0  0
    7.7570    1.0980   21.4770 C   0  0  0  0  0  0  0  0  0  0  0  0
    8.9260    1.2380   23.7020 N   0  0  0  0  0  0  0  0  0  0  0  0
    8.9030    1.3180   21.1130 O   0  0  0  0  0  0  0  0  0  0  0  0
   11.0230    2.0330   24.6880 O   0  0  0  0  0  0  0  0  0  0  0  0
    9.8460   -0.0720   25.7500 O   0  0  0  0  0  0  0  0  0  0  0  0
   13.7670   -1.8590   20.7890 F   0  0  0  0  0  0  0  0  0  0  0  0
   10.2100    0.7090   24.5750 S   0  0  0  0  0  0  0  0  0  0  0  0
    5.3470   -4.0490   19.6820 O   0  0  0  0  0  0  0  0  0  0  0  0
    9.3500   -2.8240   23.9940 C   0  0  0  0  0  0  0  0  0  0  0  0
    6.2670   -3.2530   19.8800 C   0  0  0  0  0  0  0  0  0  0  0  0
    7.2530   -2.9570   18.7430 C   0  0  0  0  0  0  0  0  0  0  0  0
    6.3270    0.6070   17.5900 N   0  0  0  0  0  0  0  0  0  0  0  0
    6.8600    0.1670   18.7240 C   0  0  0  0  0  0  0  0  0  0  0  0
    6.2670    0.3360   19.9500 C   0  0  0  0  0  0  0  0  0  0  0  0
    4.9320    1.0300   20.0230 C   0  0  0  0  0  0  0  0  0  0  0  0
    4.4120    1.4660   18.8300 C   0  0  0  0  0  0  0  0  0  0  0  0
    5.1660    1.2230   17.6980 C   0  0  0  0  0  0  0  0  0  0  0  0
    7.7600    4.5840   22.3960 C   0  0  0  0  0  0  0  0  0  0  0  0
    8.7410    5.4590   22.9140 C   0  0  0  0  0  0  0  0  0  0  0  0
    9.8310    4.9710   23.6820 C   0  0  0  0  0  0  0  0  0  0  0  0
    9.9750    3.6010   23.9710 C   0  0  0  0  0  0  0  0  0  0  0  0
    8.9210    2.6520   23.4520 C   0  0  0  0  0  0  0  0  0  0  0  0
    7.8500    3.2240   22.6490 C   0  0  0  0  0  0  0  0  0  0  0  0
   12.4320    0.4250   23.2560 C   0  0  0  0  0  0  0  0  0  0  0  0
   13.3110   -0.1380   22.3680 C   0  0  0  0  0  0  0  0  0  0  0  0
   12.9740   -1.3040   21.6670 C   0  0  0  0  0  0  0  0  0  0  0  0
   11.7250   -1.8600   21.9280 C   0  0  0  0  0  0  0  0  0  0  0  0
   10.8480   -1.2820   22.8270 C   0  0  0  0  0  0  0  0  0  0  0  0
   11.2150   -0.1360   23.4740 C   0  0  0  0  0  0  0  0  0  0  0  0
    6.4510   -2.6790   21.1440 N   0  0  0  0  0  0  0  0  0  0  0  0
    7.2230   -1.5830   21.4140 C   0  0  1  0  0  0  0  0  0  0  0  0
    8.3920   -1.8700   22.1030 C   0  0  0  0  0  0  0  0  0  0  0  0
    8.1360   -2.5000   23.2680 N   0  0  0  0  0  0  0  0  0  0  0  0
    7.2330   -3.5230   23.2350 C   0  0  0  0  0  0  0  0  0  0  0  0
    6.1210   -3.3910   22.3950 C   0  0  0  0  0  0  0  0  0  0  0  0
  2  3  1  0
  1  4  1  0
  2  4  1  1
  4  6  2  0
 10  5  1  0
  7 10  2  0
  8 10  2  0
 11 13  2  0
 13 14  1  0
 15 16  2  0
  2 17  1  0
 16 17  1  0
 17 18  2  0
 18 19  1  0
 15 20  1  0
 19 20  2  0
 21 22  2  0
 22 23  1  0
 23 24  2  0
  5 25  1  0
 24 25  1  0
  1 26  1  0
 21 26  1  0
 25 26  2  0
 27 28  2  0
  9 29  1  0
 28 29  1  0
 29 30  2  0
 30 31  1  0
 10 32  1  0
 27 32  1  0
 31 32  2  0
 13 33  1  0
  2 34  1  0
 34  3  1  0
 33 34  1  0
 34 35  1  1
 12 36  1  0
 35 36  1  0
 36 37  1  0
 33 38  1  0
 37 38  1  0
M  END
