x1187-x2908-x2646
     RDKit          3D

 18 19  0  0  0  0  0  0  0  0999 V2000
    4.8240    1.2530   21.7240 C   0  0  0  0  0  0  0  0  0  0  0  0
    8.7750    1.2350   21.1570 O   0  0  0  0  0  0  0  0  0  0  0  0
   13.1980   -2.1770   21.3600 Cl  0  0  0  0  0  0  0  0  0  0  0  0
    7.2690   -0.5990   20.9600 N   0  0  0  0  0  0  0  0  0  0  0  0
    8.7390   -0.4930   22.7400 N   0  0  0  0  0  0  0  0  0  0  0  0
    8.3260    0.1610   21.5900 C   0  0  0  0  0  0  0  0  0  0  0  0
    6.2460    0.6130   17.5660 N   0  0  0  0  0  0  0  0  0  0  0  0
    6.8640   -0.0060   18.5900 C   0  0  0  0  0  0  0  0  0  0  0  0
    6.5310    0.1050   19.9090 C   0  0  0  0  0  0  0  0  0  0  0  0
    5.3640    0.9930   20.2680 C   0  0  0  0  0  0  0  0  0  0  0  0
    4.6830    1.6780   19.1030 C   0  0  0  0  0  0  0  0  0  0  0  0
    5.1910    1.4280   17.8330 C   0  0  0  0  0  0  0  0  0  0  0  0
   10.6050    0.6260   23.6770 C   0  0  0  0  0  0  0  0  0  0  0  0
   11.9830    0.7540   23.7840 C   0  0  0  0  0  0  0  0  0  0  0  0
   12.7350   -0.1300   23.0570 C   0  0  0  0  0  0  0  0  0  0  0  0
   12.2250   -1.1210   22.2440 C   0  0  0  0  0  0  0  0  0  0  0  0
   10.8560   -1.2660   22.1250 C   0  0  0  0  0  0  0  0  0  0  0  0
   10.0480   -0.3780   22.8490 C   0  0  0  0  0  0  0  0  0  0  0  0
  2  6  2  0
  4  6  1  0
  5  6  1  0
  7  8  2  0
  4  9  1  0
  8  9  1  0
  1 10  1  0
  9 10  2  0
 10 11  1  0
  7 12  1  0
 11 12  2  0
 13 14  2  0
 14 15  1  0
  3 16  1  0
 15 16  2  0
 16 17  1  0
  5 18  1  0
 13 18  1  0
 17 18  2  0
M  END
