x1187-x2764-x0107
     RDKit          3D

 20 21  0  0  0  0  0  0  0  0999 V2000
    8.6560   -0.9840   21.5970 C   0  0  0  0  0  0  0  0  0  0  0  0
    7.2440   -1.2840   21.1100 C   0  0  0  0  0  0  0  0  0  0  0  0
    6.6360   -2.2980   21.4440 O   0  0  0  0  0  0  0  0  0  0  0  0
    9.2560   -2.1230   22.3560 C   0  0  0  0  0  0  0  0  0  0  0  0
    6.3830    1.3540   22.0260 O   0  0  0  0  0  0  0  0  0  0  0  0
    8.1610    4.4020   22.9650 N   0  0  0  0  0  0  0  0  0  0  0  0
    7.5980    2.1030   22.1750 C   0  0  0  0  0  0  0  0  0  0  0  0
    7.3000    3.6000   22.1240 C   0  0  0  0  0  0  0  0  0  0  0  0
    9.1810    0.1030   21.3700 O   0  0  0  0  0  0  0  0  0  0  0  0
   12.8240   -1.6460   22.5120 N   0  0  0  0  0  0  0  0  0  0  0  0
   11.7770   -1.8510   21.9870 C   0  0  0  0  0  0  0  0  0  0  0  0
   10.6900   -1.8720   22.8250 C   0  0  0  0  0  0  0  0  0  0  0  0
   11.0200   -1.6350   24.2440 C   0  0  0  0  0  0  0  0  0  0  0  0
   12.7050   -1.4300   24.2220 S   0  0  0  0  0  0  0  0  0  0  0  0
    6.3640   -0.5720   18.8560 C   0  0  0  0  0  0  0  0  0  0  0  0
    5.7360    0.3790   18.0520 C   0  0  0  0  0  0  0  0  0  0  0  0
    5.3410    1.6060   18.5680 C   0  0  0  0  0  0  0  0  0  0  0  0
    5.5640    1.9300   19.9080 C   0  0  0  0  0  0  0  0  0  0  0  0
    6.1970    0.9700   20.7190 C   0  0  0  0  0  0  0  0  0  0  0  0
    6.5880   -0.2680   20.2000 C   0  0  0  0  0  0  0  0  0  0  0  0
  1  2  1  0
  2  3  2  0
  1  4  1  0
  5  7  1  0
  6  8  3  0
  7  8  1  0
  1  9  2  0
 10 11  2  0
  4 12  1  0
 11 12  1  0
 12 13  2  0
 10 14  1  0
 13 14  1  0
 15 16  2  0
 16 17  1  0
 17 18  2  0
  5 19  1  0
 18 19  1  0
  2 20  1  0
 15 20  1  0
 19 20  2  0
M  END
