x1187-x0755
     RDKit          3D

 20 21  0  0  0  0  0  0  0  0999 V2000
    4.3560   -6.2880   26.3230 O   0  0  0  0  0  0  0  0  0  0  0  0
    6.0910   -4.5870   26.9230 O   0  0  0  0  0  0  0  0  0  0  0  0
    5.5320   -4.6790   19.8520 O   0  0  0  0  0  0  0  0  0  0  0  0
    6.3280   -4.3070   20.7230 C   0  0  0  0  0  0  0  0  0  0  0  0
    7.0510   -2.9820   20.6220 C   0  0  0  0  0  0  0  0  0  0  0  0
    1.9260   -5.3870   25.7770 F   0  0  0  0  0  0  0  0  0  0  0  0
    5.4850   -2.0920   26.1800 F   0  0  0  0  0  0  0  0  0  0  0  0
    5.0380   -5.0440   26.0560 S   0  0  0  0  0  0  0  0  0  0  0  0
    2.3680   -4.1290   25.8590 C   0  0  0  0  0  0  0  0  0  0  0  0
    3.8210   -3.7970   25.9880 C   0  0  0  0  0  0  0  0  0  0  0  0
    4.2010   -2.4530   26.0650 C   0  0  0  0  0  0  0  0  0  0  0  0
    3.2350   -1.4460   26.0280 C   0  0  0  0  0  0  0  0  0  0  0  0
    1.8760   -1.7660   25.9140 C   0  0  0  0  0  0  0  0  0  0  0  0
    1.4410   -3.0940   25.8270 C   0  0  0  0  0  0  0  0  0  0  0  0
    6.6220   -5.1200   21.8800 N   0  0  0  0  0  0  0  0  0  0  0  0
    7.4100   -4.6420   23.0190 C   0  0  0  0  0  0  0  0  0  0  0  0
    6.5900   -4.1020   24.0020 C   0  0  0  0  0  0  0  0  0  0  0  0
    5.6440   -5.1510   24.4810 N   0  0  0  0  0  0  0  0  0  0  0  0
    4.8070   -5.7780   23.3950 C   0  0  0  0  0  0  0  0  0  0  0  0
    5.6850   -6.1910   22.2120 C   0  0  0  0  0  0  0  0  0  0  0  0
  3  4  2  0
  4  5  1  0
  1  8  2  0
  2  8  2  0
  6  9  1  0
  8 10  1  0
  9 10  2  0
  7 11  1  0
 10 11  1  0
 11 12  2  0
 12 13  1  0
  9 14  1  0
 13 14  2  0
  4 15  1  0
 15 16  1  0
 16 17  1  0
  8 18  1  0
 17 18  1  0
 18 19  1  0
 15 20  1  0
 19 20  1  0
M  END
