x1187-x1311-x0107
     RDKit          3D

 30 32  0  0  0  0  0  0  0  0999 V2000
    5.7140   -4.3930   19.9300 O   0  0  0  0  0  0  0  0  0  0  0  0
    6.5500   -4.4720   20.8540 C   0  0  0  0  0  0  0  0  0  0  0  0
    8.0950   -4.2070   20.6920 C   0  0  0  0  0  0  0  0  0  0  0  0
    6.2700   -4.8410   22.1830 N   0  0  0  0  0  0  0  0  0  0  0  0
    4.0730   -7.5060   25.5120 O   0  0  0  0  0  0  0  0  0  0  0  0
    2.1700   -5.7660   24.7710 O   0  0  0  0  0  0  0  0  0  0  0  0
    9.7370   -0.5680   22.4250 C   0  0  0  0  0  0  0  0  0  0  0  0
    8.8520    0.1010   21.5680 C   0  0  0  0  0  0  0  0  0  0  0  0
    9.0890    1.2910   21.2580 O   0  0  0  0  0  0  0  0  0  0  0  0
    7.7320   -0.6010   21.0610 N   0  0  0  0  0  0  0  0  0  0  0  0
    5.4980    0.8640   22.0610 C   0  0  0  0  0  0  0  0  0  0  0  0
    8.4980   -2.8640   21.3570 C   0  0  0  0  0  0  0  0  0  0  0  0
    7.5020   -1.8980   21.3180 C   0  0  0  0  0  0  0  0  0  0  0  0
    8.0890   -6.0950   23.1700 C   0  0  0  0  0  0  0  0  0  0  0  0
    9.2580   -6.1300   23.8890 C   0  0  0  0  0  0  0  0  0  0  0  0
    9.8000   -4.9710   24.3700 C   0  0  0  0  0  0  0  0  0  0  0  0
    9.1510   -3.7660   24.1230 C   0  0  0  0  0  0  0  0  0  0  0  0
    7.9880   -3.7200   23.4290 C   0  0  0  0  0  0  0  0  0  0  0  0
    7.4460   -4.8840   22.9350 C   0  0  0  0  0  0  0  0  0  0  0  0
    4.4710   -6.3250   22.2680 C   0  0  0  0  0  0  0  0  0  0  0  0
    4.9700   -5.0170   22.7950 C   0  0  1  0  0  0  0  0  0  0  0  0
    4.9310   -5.0580   24.3230 C   0  0  0  0  0  0  0  0  0  0  0  0
    3.6530   -6.3040   24.5500 S   0  0  0  0  0  0  0  0  0  0  0  0
    3.7160   -7.0290   23.0900 C   0  0  0  0  0  0  0  0  0  0  0  0
    6.8710    0.0030   20.0720 C   0  0  0  0  0  0  0  0  0  0  0  0
    5.7800    0.7210   20.5720 C   0  0  0  0  0  0  0  0  0  0  0  0
    4.9590    1.3020   19.5800 C   0  0  0  0  0  0  0  0  0  0  0  0
    5.2820    1.1230   18.2210 C   0  0  0  0  0  0  0  0  0  0  0  0
    6.3260    0.4270   17.7800 N   0  0  0  0  0  0  0  0  0  0  0  0
    7.0930   -0.1180   18.7170 C   0  0  0  0  0  0  0  0  0  0  0  0
  1  2  2  0
  2  3  1  0
  2  4  1  0
  7  8  1  0
  8  9  2  0
  8 10  1  0
  3 12  1  0
 10 13  1  0
 12 13  1  0
 14 15  2  0
 15 16  1  0
 16 17  2  0
 17 18  1  0
  4 19  1  0
 14 19  1  0
 18 19  2  0
 21  4  1  1
 20 21  1  0
 21 22  1  0
 23  5  1  0
  6 23  1  0
 22 23  1  0
 20 24  2  0
 23 24  1  0
 10 25  1  0
 11 26  1  0
 25 26  2  0
 26 27  1  0
 27 28  2  0
 28 29  1  0
 25 30  1  0
 29 30  2  0
M  END
