x1187-x2643-x1402
     RDKit          3D

 35 38  0  0  0  0  0  0  0  0999 V2000
    7.5730   -3.6330   20.3250 C   0  0  0  0  0  0  0  0  0  0  0  0
    5.5270   -4.8080   20.0070 O   0  0  0  0  0  0  0  0  0  0  0  0
    0.7280   -1.4140   26.0810 Cl  0  0  0  0  0  0  0  0  0  0  0  0
    6.5420   -4.6340   20.6940 C   0  0  0  0  0  0  0  0  0  0  0  0
    4.0090   -6.4710   26.0600 O   0  0  0  0  0  0  0  0  0  0  0  0
    6.2190   -5.2090   26.8940 O   0  0  0  0  0  0  0  0  0  0  0  0
    5.0630   -5.3030   25.8060 S   0  0  0  0  0  0  0  0  0  0  0  0
    6.6940   -1.2010   20.5820 N   0  0  0  0  0  0  0  0  0  0  0  0
    8.4050    0.3190   21.1920 O   0  0  0  0  0  0  0  0  0  0  0  0
   13.4490    0.2670   22.9590 Cl  0  0  0  0  0  0  0  0  0  0  0  0
    8.2620   -1.5670   22.4440 C   0  0  0  0  0  0  0  0  0  0  0  0
    7.8320   -0.7660   21.4020 C   0  0  0  0  0  0  0  0  0  0  0  0
    6.6860   -2.4480   19.8510 C   0  0  0  0  0  0  0  0  0  0  0  0
    6.7400   -5.4050   21.8540 N   0  0  0  0  0  0  0  0  0  0  0  0
    7.4810   -5.0940   22.7120 C   0  0  0  0  0  0  0  0  0  0  0  0
    6.8150   -4.5130   23.8100 C   0  0  0  0  0  0  0  0  0  0  0  0
    5.7790   -5.4770   24.2850 N   0  0  0  0  0  0  0  0  0  0  0  0
    4.9820   -6.0980   23.2300 C   0  0  0  0  0  0  0  0  0  0  0  0
    5.7440   -6.4580   22.1270 C   0  0  0  0  0  0  0  0  0  0  0  0
    2.4370   -3.8680   25.8910 S   0  0  0  0  0  0  0  0  0  0  0  0
    4.1680   -3.7810   25.9010 C   0  0  0  0  0  0  0  0  0  0  0  0
    4.5630   -2.4470   25.9910 C   0  0  0  0  0  0  0  0  0  0  0  0
    3.5250   -1.5460   26.0540 C   0  0  0  0  0  0  0  0  0  0  0  0
    2.2720   -2.1540   26.0150 C   0  0  0  0  0  0  0  0  0  0  0  0
   11.8240    0.0470   23.1790 C   0  0  0  0  0  0  0  0  0  0  0  0
   10.8680    0.7790   24.0870 C   0  0  0  0  0  0  0  0  0  0  0  0
    9.4690    0.3260   24.0030 C   0  0  0  0  0  0  0  0  0  0  0  0
    9.5130   -0.7920   22.9400 C   0  0  0  0  0  0  0  0  0  0  0  0
   11.0640   -1.1440   22.2760 S   0  0  0  0  0  0  0  0  0  0  0  0
    6.2810    0.9710   17.6160 N   0  0  0  0  0  0  0  0  0  0  0  0
    6.7070    0.0940   18.5490 C   0  0  0  0  0  0  0  0  0  0  0  0
    6.1170   -0.2550   19.7450 C   0  0  0  0  0  0  0  0  0  0  0  0
    4.9230    0.4500   19.9340 C   0  0  0  0  0  0  0  0  0  0  0  0
    4.4630    1.3660   18.9790 C   0  0  0  0  0  0  0  0  0  0  0  0
    5.1410    1.6400   17.7970 C   0  0  0  0  0  0  0  0  0  0  0  0
  1  4  1  0
  2  4  2  0
  5  7  2  0
  6  7  2  0
  8 12  1  0
  9 12  2  0
 11 12  1  0
  1 13  1  0
  8 13  1  0
  4 14  1  0
 14 15  1  0
 15 16  1  0
  7 17  1  0
 16 17  1  0
 17 18  1  0
 14 19  1  0
 18 19  1  0
  7 21  1  0
 20 21  1  0
 21 22  2  0
 22 23  1  0
  3 24  1  0
 20 24  1  0
 23 24  2  0
 10 25  1  0
 25 26  2  0
 26 27  1  0
 11 28  1  0
 27 28  2  0
 25 29  1  0
 28 29  1  0
 30 31  2  0
  8 32  1  0
 31 32  1  0
 32 33  2  0
 33 34  1  0
 30 35  1  0
 34 35  2  0
M  END
