x1187-x1311-x2540
     RDKit          3D

 43 46  0  0  0  0  0  0  0  0999 V2000
    6.6630   -1.1850   22.1730 N   0  0  0  0  0  0  0  0  0  0  0  0
    6.6900   -4.1950   20.3470 C   0  0  2  0  0  0  0  0  0  0  0  0
    4.6400   -2.9490   21.5800 O   0  0  0  0  0  0  0  0  0  0  0  0
    6.6090   -2.7720   20.4540 C   0  0  0  0  0  0  0  0  0  0  0  0
    8.0430    1.8530   23.1760 N   0  0  0  0  0  0  0  0  0  0  0  0
    8.5290    1.3950   21.0050 O   0  0  0  0  0  0  0  0  0  0  0  0
    5.8440   -2.2920   21.4910 C   0  0  0  0  0  0  0  0  0  0  0  0
    6.4980    0.2830   21.7850 C   0  0  1  0  0  0  0  0  0  0  0  0
    7.7610    1.1960   21.9660 C   0  0  0  0  0  0  0  0  0  0  0  0
    8.8220    2.7090   23.3560 C   0  0  0  0  0  0  0  0  0  0  0  0
    8.8650    3.0100   24.7040 C   0  0  0  0  0  0  0  0  0  0  0  0
    8.3860    4.0030   22.6260 C   0  0  0  0  0  0  0  0  0  0  0  0
   10.2550    2.3520   22.8820 C   0  0  0  0  0  0  0  0  0  0  0  0
   11.8220   -1.3740   23.5590 C   0  0  0  0  0  0  0  0  0  0  0  0
   12.5110   -1.2100   22.3490 C   0  0  0  0  0  0  0  0  0  0  0  0
   12.1830   -0.1430   24.4120 C   0  0  0  0  0  0  0  0  0  0  0  0
   12.1940   -2.4420   24.2920 C   0  0  0  0  0  0  0  0  0  0  0  0
    5.5460   -4.6910   19.6790 O   0  0  0  0  0  0  0  0  0  0  0  0
    6.5920   -4.8540   21.7710 N   0  0  0  0  0  0  0  0  0  0  0  0
    4.3590   -7.4500   25.1450 O   0  0  0  0  0  0  0  0  0  0  0  0
    2.8920   -5.4690   24.7530 O   0  0  0  0  0  0  0  0  0  0  0  0
    6.3310    0.3110   17.9710 N   0  0  0  0  0  0  0  0  0  0  0  0
    5.2880    1.1310   17.7760 C   0  0  0  0  0  0  0  0  0  0  0  0
    4.4690    1.7820   18.8640 C   0  0  0  0  0  0  0  0  0  0  0  0
    4.8590    1.4950   20.2720 C   0  0  0  0  0  0  0  0  0  0  0  0
    6.0710    0.5530   20.3670 C   0  0  0  0  0  0  0  0  0  0  0  0
    6.7420    0.0070   19.2350 C   0  0  0  0  0  0  0  0  0  0  0  0
    9.5470   -1.5360   24.4850 O   0  0  0  0  0  0  0  0  0  0  0  0
    8.1830   -1.5020   24.1940 N   0  0  0  0  0  0  0  0  0  0  0  0
    7.9880   -1.3080   22.8310 C   0  0  0  0  0  0  0  0  0  0  0  0
    9.3250   -1.2350   22.3210 C   0  0  0  0  0  0  0  0  0  0  0  0
   10.2980   -1.3710   23.3620 C   0  0  0  0  0  0  0  0  0  0  0  0
    8.3040   -6.1480   22.8860 C   0  0  0  0  0  0  0  0  0  0  0  0
    9.3280   -6.2300   23.7730 C   0  0  0  0  0  0  0  0  0  0  0  0
    9.7370   -5.1100   24.4820 C   0  0  0  0  0  0  0  0  0  0  0  0
    9.0890   -3.9060   24.2790 C   0  0  0  0  0  0  0  0  0  0  0  0
    8.0460   -3.8340   23.3710 C   0  0  0  0  0  0  0  0  0  0  0  0
    7.6520   -4.9530   22.6690 C   0  0  0  0  0  0  0  0  0  0  0  0
    4.6920   -6.0620   22.0230 C   0  0  0  0  0  0  0  0  0  0  0  0
    5.3600   -5.0400   22.6180 C   0  0  1  0  0  0  0  0  0  0  0  0
    5.4810   -5.3040   24.0140 C   0  0  0  0  0  0  0  0  0  0  0  0
    4.0120   -6.2940   24.3260 S   0  0  0  0  0  0  0  0  0  0  0  0
    3.8460   -6.7930   22.7760 C   0  0  0  0  0  0  0  0  0  0  0  0
  2  4  1  0
  1  7  1  0
  3  7  2  0
  4  7  1  0
  1  8  1  0
  5  9  1  0
  6  9  2  0
  8  9  1  6
 10  5  1  0
 10 11  1  0
 10 12  1  0
 10 13  1  0
 14 15  1  0
 14 16  1  0
 14 17  1  0
  2 18  1  6
  2 19  1  0
 22 23  2  0
 23 24  1  0
 24 25  2  0
  8 26  1  0
 25 26  1  0
 22 27  1  0
 26 27  2  0
 28 29  1  0
  1 30  1  0
 29 30  2  0
 30 31  1  0
 14 32  1  0
 28 32  1  0
 31 32  2  0
 33 34  2  0
 34 35  1  0
 35 36  2  0
 36 37  1  0
 19 38  1  0
 33 38  1  0
 37 38  2  0
 40 19  1  6
 39 40  1  0
 40 41  1  0
 42 20  1  0
 21 42  1  0
 41 42  1  0
 39 43  2  0
 42 43  1  0
M  END
