x1187-x1358-x2912
     RDKit          3D

 40 43  0  0  0  0  0  0  0  0999 V2000
    6.7380   -1.9630   25.4240 N   0  0  0  0  0  0  0  0  0  0  0  0
    5.0600    0.1030   25.6080 O   0  0  0  0  0  0  0  0  0  0  0  0
    5.0490   -3.4980   25.8850 O   0  0  0  0  0  0  0  0  0  0  0  0
    5.1540   -4.3460   19.7700 O   0  0  0  0  0  0  0  0  0  0  0  0
    6.0550   -3.1670   25.2510 C   0  0  0  0  0  0  0  0  0  0  0  0
    6.2240   -3.9030   20.1380 C   0  0  0  0  0  0  0  0  0  0  0  0
    7.1340   -3.1590   19.1360 C   0  0  0  0  0  0  0  0  0  0  0  0
    7.2710   -0.3470   21.0920 N   0  0  0  0  0  0  0  0  0  0  0  0
    8.1190   -0.5480   24.1700 C   0  0  0  0  0  0  0  0  0  0  0  0
    8.8100    1.1080   21.3030 O   0  0  0  0  0  0  0  0  0  0  0  0
    8.7330   -0.7920   22.7980 C   0  0  1  0  0  0  0  0  0  0  0  0
    8.2180    0.0560   21.6260 C   0  0  0  0  0  0  0  0  0  0  0  0
   13.5910   -3.2180   20.6260 N   0  0  0  0  0  0  0  0  0  0  0  0
    4.9610    1.3080   21.7060 C   0  0  0  0  0  0  0  0  0  0  0  0
   13.0930   -2.1090   21.4240 C   0  0  0  0  0  0  0  0  0  0  0  0
    6.8470   -1.0910   24.3180 C   0  0  0  0  0  0  0  0  0  0  0  0
    5.8240   -0.1810   26.7080 C   0  0  0  0  0  0  0  0  0  0  0  0
    6.7200   -1.2430   26.7130 C   0  0  0  0  0  0  0  0  0  0  0  0
    7.5320   -1.5970   27.8000 C   0  0  0  0  0  0  0  0  0  0  0  0
    7.4500   -0.8230   28.9890 C   0  0  0  0  0  0  0  0  0  0  0  0
    6.5710    0.2780   29.0750 C   0  0  0  0  0  0  0  0  0  0  0  0
    5.7080    0.6030   27.8400 C   0  0  0  0  0  0  0  0  0  0  0  0
    6.6490   -4.1020   21.4480 N   0  0  0  0  0  0  0  0  0  0  0  0
    7.5390   -3.1270   22.0530 C   0  0  0  0  0  0  0  0  0  0  0  0
    7.7420   -3.5600   23.5090 C   0  0  0  0  0  0  0  0  0  0  0  0
    6.6150   -4.0570   24.1970 C   0  0  0  0  0  0  0  0  0  0  0  0
    5.5690   -4.4550   23.3390 C   0  0  0  0  0  0  0  0  0  0  0  0
    6.2260   -5.0820   22.2550 C   0  0  0  0  0  0  0  0  0  0  0  0
    6.2490    0.5860   17.6610 N   0  0  0  0  0  0  0  0  0  0  0  0
    5.1890    1.3540   17.9500 C   0  0  0  0  0  0  0  0  0  0  0  0
    4.7530    1.5990   19.2560 C   0  0  0  0  0  0  0  0  0  0  0  0
    5.4420    1.0330   20.3120 C   0  0  0  0  0  0  0  0  0  0  0  0
    6.5590    0.2290   20.0310 C   0  0  0  0  0  0  0  0  0  0  0  0
    6.9120    0.0360   18.7150 C   0  0  0  0  0  0  0  0  0  0  0  0
   10.7520    0.5250   23.6270 C   0  0  0  0  0  0  0  0  0  0  0  0
   12.1270    0.7150   23.6430 C   0  0  0  0  0  0  0  0  0  0  0  0
   12.9570   -0.1330   22.9230 C   0  0  0  0  0  0  0  0  0  0  0  0
   12.3950   -1.1740   22.1900 C   0  0  0  0  0  0  0  0  0  0  0  0
   11.0370   -1.3560   22.1750 C   0  0  0  0  0  0  0  0  0  0  0  0
   10.1960   -0.5190   22.8820 C   0  0  0  0  0  0  0  0  0  0  0  0
  1  5  1  0
  3  5  2  0
  4  6  2  0
  6  7  1  0
 11  9  1  1
  8 12  1  0
 10 12  2  0
 11 12  1  0
 13 15  3  0
  1 16  1  0
  9 16  1  0
  2 17  1  0
  1 18  1  0
 17 18  2  0
 18 19  1  0
 19 20  2  0
 20 21  1  0
 17 22  1  0
 21 22  2  0
  6 23  1  0
 23 24  1  0
 24 25  1  0
  5 26  1  0
 25 26  1  0
 26 27  1  0
 23 28  1  0
 27 28  1  0
 29 30  2  0
 30 31  1  0
 14 32  1  0
 31 32  2  0
  8 33  1  0
 32 33  1  0
 29 34  1  0
 33 34  2  0
 35 36  2  0
 36 37  1  0
 15 38  1  0
 37 38  2  0
 38 39  1  0
 11 40  1  0
 35 40  1  0
 39 40  2  0
M  END
