x1187-x3115-x0995
     RDKit          3D

 30 31  0  0  0  0  0  0  0  0999 V2000
    6.9260   -1.7560   21.8540 N   0  0  0  0  0  0  0  0  0  0  0  0
    6.8490   -5.0150   20.4580 C   0  0  0  0  0  0  0  0  0  0  0  0
    4.8170   -3.0420   21.2950 O   0  0  0  0  0  0  0  0  0  0  0  0
    6.7780   -4.2060   21.6830 C   0  0  0  0  0  0  0  0  0  0  0  0
    7.2350    1.8790   22.8160 N   0  0  0  0  0  0  0  0  0  0  0  0
    8.7120    0.5590   21.6980 O   0  0  0  0  0  0  0  0  0  0  0  0
    6.0730   -2.9380   21.5980 C   0  0  0  0  0  0  0  0  0  0  0  0
    8.4600    4.9810   22.9300 O   0  0  0  0  0  0  0  0  0  0  0  0
    6.4580   -0.3340   21.7670 C   0  0  1  0  0  0  0  0  0  0  0  0
    7.5530    0.7060   22.0980 C   0  0  0  0  0  0  0  0  0  0  0  0
    7.9910    2.7190   23.0950 C   0  0  0  0  0  0  0  0  0  0  0  0
    7.8080    3.8640   22.3050 C   0  0  0  0  0  0  0  0  0  0  0  0
    8.1820    6.2030   22.2350 C   0  0  0  0  0  0  0  0  0  0  0  0
   12.1950   -1.9170   24.2240 C   0  0  0  0  0  0  0  0  0  0  0  0
   13.1990   -2.1980   23.2970 C   0  0  0  0  0  0  0  0  0  0  0  0
   12.1270   -3.1010   25.1850 C   0  0  0  0  0  0  0  0  0  0  0  0
   12.3560   -0.7840   24.9270 C   0  0  0  0  0  0  0  0  0  0  0  0
    3.3690    2.3380   18.8070 N   0  0  0  0  0  0  0  0  0  0  0  0
    6.2760    0.3260   17.9090 N   0  0  0  0  0  0  0  0  0  0  0  0
    5.1820    1.1460   17.8700 C   0  0  0  0  0  0  0  0  0  0  0  0
    4.3830    1.5690   18.9410 C   0  0  0  0  0  0  0  0  0  0  0  0
    4.8140    1.0430   20.2920 C   0  0  0  0  0  0  0  0  0  0  0  0
    6.0040    0.1490   20.4300 C   0  0  0  0  0  0  0  0  0  0  0  0
    6.6920   -0.1630   19.0940 C   0  0  0  0  0  0  0  0  0  0  0  0
    9.3250   -1.6650   21.7160 C   0  0  0  0  0  0  0  0  0  0  0  0
   10.6700   -1.6790   22.1580 C   0  0  0  0  0  0  0  0  0  0  0  0
   10.8400   -1.8810   23.5420 C   0  0  0  0  0  0  0  0  0  0  0  0
    9.6970   -2.0630   24.3600 C   0  0  0  0  0  0  0  0  0  0  0  0
    8.4000   -2.0400   23.8400 C   0  0  0  0  0  0  0  0  0  0  0  0
    8.1990   -1.8350   22.5040 C   0  0  0  0  0  0  0  0  0  0  0  0
  2  4  1  0
  1  7  1  0
  3  7  2  0
  4  7  1  0
  1  9  1  0
  5 10  1  0
  6 10  2  0
  9 10  1  6
  5 11  1  0
  8 12  1  0
 11 12  1  0
  8 13  1  0
 14 15  1  0
 14 16  1  0
 14 17  1  0
 19 20  2  0
 18 21  1  0
 20 21  1  0
 21 22  2  0
  9 23  1  0
 22 23  1  0
 19 24  1  0
 23 24  2  0
 25 26  2  0
 14 27  1  0
 26 27  1  0
 27 28  2  0
 28 29  1  0
  1 30  1  0
 25 30  1  0
 29 30  2  0
M  END
