x1226-x1358
     RDKit          3D

 19 20  0  0  0  0  0  0  0  0999 V2000
    6.7980   -2.2400   25.8280 N   0  0  0  0  0  0  0  0  0  0  0  0
    5.6820   -0.0600   25.2000 O   0  0  0  0  0  0  0  0  0  0  0  0
    4.8860   -3.5610   25.8800 O   0  0  0  0  0  0  0  0  0  0  0  0
    5.2270   -4.4320   19.5180 O   0  0  0  0  0  0  0  0  0  0  0  0
    5.8440   -3.0830   25.2910 C   0  0  0  0  0  0  0  0  0  0  0  0
    5.9460   -3.5920   20.0320 C   0  0  0  0  0  0  0  0  0  0  0  0
    6.2690   -2.3140   19.3240 C   0  0  0  0  0  0  0  0  0  0  0  0
    6.0860   -0.1770   26.5070 C   0  0  0  0  0  0  0  0  0  0  0  0
    6.6940   -1.3610   26.8930 C   0  0  0  0  0  0  0  0  0  0  0  0
    7.1050   -1.5030   28.2320 C   0  0  0  0  0  0  0  0  0  0  0  0
    6.9040   -0.4540   29.1310 C   0  0  0  0  0  0  0  0  0  0  0  0
    6.2960    0.7290   28.7160 C   0  0  0  0  0  0  0  0  0  0  0  0
    5.8730    0.8860   27.3880 C   0  0  0  0  0  0  0  0  0  0  0  0
    6.4960   -3.8200   21.2660 N   0  0  0  0  0  0  0  0  0  0  0  0
    7.5980   -3.0300   21.8280 C   0  0  0  0  0  0  0  0  0  0  0  0
    7.4330   -2.8210   23.3260 C   0  0  0  0  0  0  0  0  0  0  0  0
    6.0880   -3.3760   23.8020 C   0  0  0  0  0  0  0  0  0  0  0  0
    5.9620   -4.8620   23.4470 C   0  0  0  0  0  0  0  0  0  0  0  0
    6.0550   -5.0530   21.9390 C   0  0  0  0  0  0  0  0  0  0  0  0
  1  5  1  0
  3  5  2  0
  4  6  2  0
  6  7  1  0
  2  8  1  0
  1  9  1  0
  8  9  2  0
  9 10  1  0
 10 11  2  0
 11 12  1  0
  8 13  1  0
 12 13  2  0
  6 14  1  0
 14 15  1  0
 15 16  1  0
  5 17  1  0
 16 17  1  0
 17 18  1  0
 14 19  1  0
 18 19  1  0
M  END
