x1226-x0478
     RDKit          3D

 15 15  0  0  0  0  0  0  0  0999 V2000
   15.9840    1.8720  -14.5860 C   0  0  0  0  0  0  0  0  0  0  0  0
   16.8940    2.8070  -14.0040 O   0  0  0  0  0  0  0  0  0  0  0  0
   16.6080    3.0820  -12.7100 C   0  0  0  0  0  0  0  0  0  0  0  0
   15.7080    3.8030  -12.3400 O   0  0  0  0  0  0  0  0  0  0  0  0
   17.6500    1.2070   -8.2350 N   0  0  0  0  0  0  0  0  0  0  0  0
   17.8350    2.4450   -7.0960 S   0  0  0  0  0  0  0  0  0  0  0  0
   17.4670    1.8920   -5.8110 O   0  0  0  0  0  0  0  0  0  0  0  0
   19.0470    3.2060   -7.2830 O   0  0  0  0  0  0  0  0  0  0  0  0
   16.5090    3.4630   -7.5850 C   0  0  0  0  0  0  0  0  0  0  0  0
   17.5440    2.3610  -11.7990 C   0  0  0  0  0  0  0  0  0  0  0  0
   17.1480    2.1490  -10.4770 C   0  0  0  0  0  0  0  0  0  0  0  0
   18.0100    1.4600   -9.5960 C   0  0  0  0  0  0  0  0  0  0  0  0
   19.2440    1.0100  -10.0730 C   0  0  0  0  0  0  0  0  0  0  0  0
   19.6220    1.2350  -11.3940 C   0  0  0  0  0  0  0  0  0  0  0  0
   18.7750    1.9130  -12.2770 C   0  0  0  0  0  0  0  0  0  0  0  0
  1  2  1  0
  2  3  1  0
  3  4  2  0
  6  5  1  0
  6  7  2  0
  6  8  2  0
  6  9  1  0
  3 10  1  0
 10 11  2  0
  5 12  1  0
 11 12  1  0
 12 13  2  0
 13 14  1  0
 10 15  1  0
 14 15  2  0
M  END
