x1226-x0194
     RDKit          3D

 25 31  0  0  0  0  0  0  0  0999 V2000
   24.3650  -14.7870   24.8760 C   0  0  0  0  0  0  0  0  0  0  0  0
   23.5460  -15.2690   26.0970 C   0  0  0  0  0  0  0  0  0  0  0  0
   23.4410  -14.5440   27.0520 O   0  0  0  0  0  0  0  0  0  0  0  0
   23.0130  -16.5410   25.9400 N   0  0  0  0  0  0  0  0  0  0  0  0
   23.6690  -20.2900   22.8790 C   0  0  1  0  0  0  0  0  0  0  0  0
   24.7440  -17.9640   23.9050 C   0  0  1  0  0  0  0  0  0  0  0  0
   22.8860  -20.9350   24.0070 C   0  0  0  0  0  0  0  0  0  0  0  0
   20.3160  -25.2290   24.6330 C   0  0  0  0  0  0  0  0  0  0  0  0
   23.8230  -17.4500   25.1580 C   0  0  0  0  0  0  0  0  0  0  0  0
   23.3640  -17.7600   23.6770 C   0  0  2  0  0  0  0  0  0  0  0  0
   23.8080  -18.8790   22.9320 C   0  0  2  0  0  0  0  0  0  0  0  0
   25.0240  -19.4790   23.2070 C   0  0  1  0  0  0  0  0  0  0  0  0
   25.5180  -19.1150   24.4810 C   0  0  2  0  0  0  0  0  0  0  0  0
   24.8350  -18.2410   25.3180 C   0  0  0  0  0  0  0  0  0  0  0  0
   24.7440  -20.2710   20.6890 N   0  0  0  0  0  0  0  0  0  0  0  0
   24.9800  -20.6990   19.4350 C   0  0  0  0  0  0  0  0  0  0  0  0
   24.3840  -21.8090   18.8590 C   0  0  0  0  0  0  0  0  0  0  0  0
   23.4380  -22.4780   19.8550 C   0  0  0  0  0  0  0  0  0  0  0  0
   23.2110  -22.0450   21.1090 N   0  0  0  0  0  0  0  0  0  0  0  0
   23.8650  -20.9330   21.5010 C   0  0  0  0  0  0  0  0  0  0  0  0
   20.9150  -24.0220   24.1330 N   0  0  0  0  0  0  0  0  0  0  0  0
   20.7130  -23.6410   22.8720 N   0  0  0  0  0  0  0  0  0  0  0  0
   21.3860  -22.4940   22.6680 N   0  0  0  0  0  0  0  0  0  0  0  0
   22.0220  -22.1580   23.8310 C   0  0  0  0  0  0  0  0  0  0  0  0
   21.7170  -23.1430   24.7870 C   0  0  0  0  0  0  0  0  0  0  0  0
  1  2  1  0
  2  3  2  0
  2  4  1  0
  5  7  1  1
  4  9  1  0
  6 10  1  0
 10  9  1  1
 11  5  1  1
  6 11  1  0
 10 11  1  0
 12  5  1  1
 11 12  1  0
  6 13  1  0
 12 13  1  0
  6 14  1  6
  9 14  2  0
 13 14  1  1
 15 16  2  0
 16 17  1  0
 17 18  2  0
 18 19  1  0
  5 20  1  0
 15 20  1  0
 19 20  2  0
  8 21  1  0
 21 22  1  0
 22 23  2  0
  7 24  1  0
 23 24  1  0
 21 25  1  0
 24 25  2  0
M  END
