x1226-x0769
     RDKit          3D

 19 20  0  0  0  0  0  0  0  0999 V2000
    5.7810   -5.0760   26.8860 O   0  0  0  0  0  0  0  0  0  0  0  0
    3.8610   -6.4400   26.0030 O   0  0  0  0  0  0  0  0  0  0  0  0
    5.5880   -4.3710   19.8940 O   0  0  0  0  0  0  0  0  0  0  0  0
    6.4540   -4.1750   20.7620 C   0  0  0  0  0  0  0  0  0  0  0  0
    7.3770   -2.9600   20.6870 C   0  0  0  0  0  0  0  0  0  0  0  0
    5.5880   -2.4390   26.2000 F   0  0  0  0  0  0  0  0  0  0  0  0
    4.7190   -5.2810   25.9140 S   0  0  0  0  0  0  0  0  0  0  0  0
    4.2640   -2.5900   26.0740 C   0  0  0  0  0  0  0  0  0  0  0  0
    3.6870   -3.8490   25.9280 C   0  0  0  0  0  0  0  0  0  0  0  0
    2.3090   -3.9870   25.8000 C   0  0  0  0  0  0  0  0  0  0  0  0
    1.4940   -2.8500   25.8190 C   0  0  0  0  0  0  0  0  0  0  0  0
    2.0810   -1.5870   25.9700 C   0  0  0  0  0  0  0  0  0  0  0  0
    3.4620   -1.4570   26.0930 C   0  0  0  0  0  0  0  0  0  0  0  0
    6.6630   -5.0150   21.8350 N   0  0  0  0  0  0  0  0  0  0  0  0
    5.7450   -6.1380   22.0480 C   0  0  0  0  0  0  0  0  0  0  0  0
    4.7660   -5.8530   23.1990 C   0  0  0  0  0  0  0  0  0  0  0  0
    5.4740   -5.2820   24.3930 N   0  0  0  0  0  0  0  0  0  0  0  0
    6.3720   -4.1330   24.1090 C   0  0  0  0  0  0  0  0  0  0  0  0
    7.3730   -4.5660   23.0390 C   0  0  0  0  0  0  0  0  0  0  0  0
  3  4  2  0
  4  5  1  0
  1  7  2  0
  2  7  2  0
  6  8  1  0
  7  9  1  0
  8  9  2  0
  9 10  1  0
 10 11  2  0
 11 12  1  0
  8 13  1  0
 12 13  2  0
  4 14  1  0
 14 15  1  0
 15 16  1  0
  7 17  1  0
 16 17  1  0
 17 18  1  0
 14 19  1  0
 18 19  1  0
M  END
