x1226-x0177
     RDKit          3D

 25 29  0  0  0  0  0  0  0  0999 V2000
   23.5720  -17.3360   25.8920 N   0  0  0  0  0  0  0  0  0  0  0  0
   24.1290  -17.8540   24.6600 C   0  0  2  0  0  0  0  0  0  0  0  0
   25.0920  -16.9020   24.2350 O   0  0  0  0  0  0  0  0  0  0  0  0
   22.9700  -21.9800   21.8330 C   0  0  0  0  0  0  0  0  0  0  0  0
   21.8410  -22.7350   22.1140 N   0  0  0  0  0  0  0  0  0  0  0  0
   23.5250  -22.3290   20.6230 N   0  0  0  0  0  0  0  0  0  0  0  0
   23.0840  -18.4780   23.7230 C   0  0  2  0  0  0  0  0  0  0  0  0
   20.4710  -25.7230   24.5750 C   0  0  0  0  0  0  0  0  0  0  0  0
   24.6560  -19.2860   24.8220 C   0  0  1  0  0  0  0  0  0  0  0  0
   23.2190  -19.5960   24.7120 C   0  0  2  0  0  0  0  0  0  0  0  0
   22.7390  -19.9580   23.3520 C   0  0  2  0  0  0  0  0  0  0  0  0
   23.5890  -20.9030   22.5690 N   0  0  0  0  0  0  0  0  0  0  0  0
   24.9870  -21.0140   23.0190 C   0  0  0  0  0  0  0  0  0  0  0  0
   25.4440  -19.8050   23.5930 C   0  0  0  0  0  0  0  0  0  0  0  0
   22.6110  -23.0290   18.4830 C   0  0  0  0  0  0  0  0  0  0  0  0
   21.9550  -24.0090   17.6970 C   0  0  0  0  0  0  0  0  0  0  0  0
   21.5780  -25.2250   18.2650 C   0  0  0  0  0  0  0  0  0  0  0  0
   21.8290  -25.5070   19.5980 C   0  0  0  0  0  0  0  0  0  0  0  0
   22.4700  -24.6060   20.4470 C   0  0  0  0  0  0  0  0  0  0  0  0
   22.8970  -23.2560   19.8370 C   0  0  0  0  0  0  0  0  0  0  0  0
   20.5430  -24.2830   24.5200 N   0  0  0  0  0  0  0  0  0  0  0  0
   20.2780  -23.6400   23.3570 N   0  0  0  0  0  0  0  0  0  0  0  0
   21.1060  -22.5930   23.2030 N   0  0  0  0  0  0  0  0  0  0  0  0
   21.7250  -22.4600   24.4100 C   0  0  0  0  0  0  0  0  0  0  0  0
   21.3960  -23.4870   25.2400 C   0  0  0  0  0  0  0  0  0  0  0  0
  2  1  1  1
  2  3  1  0
  4  5  2  3
  4  6  1  0
  7  2  1  6
  2  9  1  0
  7 10  1  0
 10  9  1  6
  7 11  1  0
 10 11  1  0
  4 12  1  0
 11 12  1  6
 12 13  1  0
  9 14  1  6
 13 14  1  0
 15 16  2  0
 16 17  1  0
 17 18  2  0
 18 19  1  0
  6 20  1  0
 15 20  1  0
 19 20  2  0
  8 21  1  0
 21 22  1  0
  5 23  1  0
 22 23  1  0
 23 24  1  0
 21 25  1  0
 24 25  2  0
M  END
