x1235-x1226
     RDKit          3D

 29 31  0  0  0  0  0  0  0  0999 V2000
   22.5020  -22.2760   19.5220 N   0  0  0  0  0  0  0  0  0  0  0  0
   25.3730  -19.9300   20.2820 C   0  0  0  0  0  0  0  0  0  0  0  0
   24.4030  -21.0130   20.4710 N   0  0  0  0  0  0  0  0  0  0  0  0
   23.8120  -21.7450   19.3860 C   0  0  0  0  0  0  0  0  0  0  0  0
   24.3650  -21.9690   18.3120 O   0  0  0  0  0  0  0  0  0  0  0  0
   21.2610  -27.3410   18.5590 C   0  0  0  0  0  0  0  0  0  0  0  0
   23.1920  -20.0470   23.7370 N   0  0  0  0  0  0  0  0  0  0  0  0
   24.1210  -17.7760   23.6460 C   0  0  0  0  0  0  0  0  0  0  0  0
   22.9420  -18.6120   23.9570 C   0  0  0  0  0  0  0  0  0  0  0  0
   21.9160  -20.7060   24.0420 C   0  0  0  0  0  0  0  0  0  0  0  0
   20.8900  -25.6050   24.5080 C   0  0  0  0  0  0  0  0  0  0  0  0
   23.8870  -21.3540   21.7920 C   0  0  0  0  0  0  0  0  0  0  0  0
   23.8480  -20.2280   22.5650 C   0  0  0  0  0  0  0  0  0  0  0  0
   21.3330  -24.9990   17.4660 N   0  0  0  0  0  0  0  0  0  0  0  0
   21.5450  -25.8810   18.5890 C   0  0  0  0  0  0  0  0  0  0  0  0
   22.1540  -25.0860   19.9820 S   0  0  0  0  0  0  0  0  0  0  0  0
   22.1220  -23.6080   19.1160 C   0  0  0  0  0  0  0  0  0  0  0  0
   21.6520  -23.7660   17.8230 C   0  0  0  0  0  0  0  0  0  0  0  0
   20.7500  -21.5480   17.2290 C   0  0  0  0  0  0  0  0  0  0  0  0
   20.4600  -20.3930   16.3430 C   0  0  0  0  0  0  0  0  0  0  0  0
   20.9880  -20.5360   14.9890 C   0  0  0  0  0  0  0  0  0  0  0  0
   21.7510  -21.7830   14.6300 C   0  0  0  0  0  0  0  0  0  0  0  0
   21.9810  -22.8180   15.5270 C   0  0  0  0  0  0  0  0  0  0  0  0
   21.4700  -22.6990   16.8360 C   0  0  0  0  0  0  0  0  0  0  0  0
   21.1620  -24.2670   24.0590 N   0  0  0  0  0  0  0  0  0  0  0  0
   21.1030  -23.9840   22.7530 N   0  0  0  0  0  0  0  0  0  0  0  0
   21.3810  -22.6980   22.6120 N   0  0  0  0  0  0  0  0  0  0  0  0
   21.6170  -22.1600   23.8490 C   0  0  0  0  0  0  0  0  0  0  0  0
   21.4850  -23.1760   24.7880 C   0  0  0  0  0  0  0  0  0  0  0  0
  2  3  1  0
  1  4  1  0
  3  4  1  0
  4  5  2  0
  7  9  1  0
  8  9  1  0
  7 10  1  0
  3 12  1  0
  7 13  1  0
 12 13  1  0
  6 15  1  0
 14 15  2  0
 15 16  1  0
  1 17  1  0
 16 17  1  0
 14 18  1  0
 17 18  2  0
 19 20  2  0
 20 21  1  0
 21 22  2  0
 22 23  1  0
 18 24  1  0
 19 24  1  0
 23 24  2  0
 11 25  1  0
 25 26  1  0
 26 27  2  0
 10 28  1  0
 27 28  1  0
 25 29  1  0
 28 29  2  0
M  END
