x1237-x0499
     RDKit          3D

 17 18  0  0  0  0  0  0  0  0999 V2000
   25.8320    6.3140   13.7240 N   0  0  0  0  0  0  0  0  0  0  0  0
   25.7050    4.9450   13.4730 C   0  0  0  0  0  0  0  0  0  0  0  0
   25.9240    4.1300   14.3650 O   0  0  0  0  0  0  0  0  0  0  0  0
   24.1560    3.4090    8.1340 N   0  0  0  0  0  0  0  0  0  0  0  0
   22.9400    2.8320    7.7980 C   0  0  0  0  0  0  0  0  0  0  0  0
   22.0340    2.6170    8.5920 O   0  0  0  0  0  0  0  0  0  0  0  0
   25.3040    4.5810   12.0490 C   0  0  0  0  0  0  0  0  0  0  0  0
   24.9700    3.2430   11.8600 C   0  0  0  0  0  0  0  0  0  0  0  0
   24.5990    2.8690   10.5780 C   0  0  0  0  0  0  0  0  0  0  0  0
   24.5540    3.7630    9.5150 C   0  0  0  0  0  0  0  0  0  0  0  0
   24.8970    5.1000    9.7370 C   0  0  0  0  0  0  0  0  0  0  0  0
   25.2740    5.5140   11.0140 C   0  0  0  0  0  0  0  0  0  0  0  0
   23.0390    1.1970    5.8610 C   0  0  0  0  0  0  0  0  0  0  0  0
   22.8370    2.4830    6.3590 C   0  0  2  0  0  0  0  0  0  0  0  0
   23.7500    3.3320    5.6300 O   0  0  0  0  0  0  0  0  0  0  0  0
   24.3640    2.6030    4.5760 C   0  0  0  0  0  0  0  0  0  0  0  0
   23.5830    1.3050    4.5650 C   0  0  0  0  0  0  0  0  0  0  0  0
  1  2  1  0
  2  3  2  0
  4  5  1  0
  5  6  2  0
  2  7  1  0
  7  8  2  0
  8  9  1  0
  4 10  1  0
  9 10  2  0
 10 11  1  0
  7 12  1  0
 11 12  2  0
 14  5  1  1
 13 14  1  0
 14 15  1  0
 15 16  1  0
 13 17  1  0
 16 17  1  0
M  END
