x1237-x0104
     RDKit          3D

 16 17  0  0  0  0  0  0  0  0999 V2000
    9.1500    6.4900   22.6910 C   0  0  0  0  0  0  0  0  0  0  0  0
   10.3360    6.1520   23.3540 C   0  0  0  0  0  0  0  0  0  0  0  0
   10.4380    6.3090   24.5760 O   0  0  0  0  0  0  0  0  0  0  0  0
   11.3520    5.6430   22.5640 N   0  0  0  0  0  0  0  0  0  0  0  0
   12.5250    4.9800   23.1700 C   0  0  0  0  0  0  0  0  0  0  0  0
   12.6430    3.6810   22.6400 C   0  0  0  0  0  0  0  0  0  0  0  0
   13.5550   -2.0760   22.2240 F   0  0  0  0  0  0  0  0  0  0  0  0
   11.8140    2.6460   23.1200 C   0  0  0  0  0  0  0  0  0  0  0  0
   10.6160    2.9090   23.7580 C   0  0  0  0  0  0  0  0  0  0  0  0
    9.9440    1.7070   24.1450 N   0  0  0  0  0  0  0  0  0  0  0  0
   10.7950    0.6210   23.7050 C   0  0  0  0  0  0  0  0  0  0  0  0
   11.9310    1.1800   23.0920 C   0  0  0  0  0  0  0  0  0  0  0  0
   10.5810   -0.7570   23.8330 C   0  0  0  0  0  0  0  0  0  0  0  0
   11.5280   -1.6320   23.3230 C   0  0  0  0  0  0  0  0  0  0  0  0
   12.6790   -1.2130   22.7050 C   0  0  0  0  0  0  0  0  0  0  0  0
   12.8760    0.2890   22.6070 C   0  0  0  0  0  0  0  0  0  0  0  0
  1  2  1  0
  2  3  2  0
  2  4  1  0
  4  5  1  0
  5  6  1  0
  6  8  1  0
  8  9  2  0
  9 10  1  0
 10 11  1  0
  8 12  1  0
 11 12  2  0
 11 13  1  0
 13 14  2  0
  7 15  1  0
 14 15  1  0
 12 16  1  0
 15 16  2  0
M  END
