x1237-x1002
     RDKit          3D

 14 15  0  0  0  0  0  0  0  0999 V2000
   15.8620  -25.9310    7.2190 C   0  0  0  0  0  0  0  0  0  0  0  0
   15.2940  -28.4000    7.8790 O   0  0  0  0  0  0  0  0  0  0  0  0
   16.1580  -28.0720    5.4330 C   0  0  0  0  0  0  0  0  0  0  0  0
   17.8140  -27.7760    7.5620 O   0  0  0  0  0  0  0  0  0  0  0  0
   16.2840  -27.6400    7.1520 S   0  0  0  0  0  0  0  0  0  0  0  0
   14.6550  -26.1080    4.4840 N   0  0  0  0  0  0  0  0  0  0  0  0
   14.9030  -27.4630    4.7800 C   0  0  0  0  0  0  0  0  0  0  0  0
   13.8210  -28.2040    4.3780 N   0  0  0  0  0  0  0  0  0  0  0  0
   12.8340  -27.4600    3.8050 C   0  0  0  0  0  0  0  0  0  0  0  0
   13.4080  -26.1040    3.8900 C   0  0  0  0  0  0  0  0  0  0  0  0
   12.4940  -25.0350    3.3020 C   0  0  0  0  0  0  0  0  0  0  0  0
   11.1480  -25.4070    2.7000 C   0  0  0  0  0  0  0  0  0  0  0  0
   10.8140  -26.7700    2.7290 C   0  0  0  0  0  0  0  0  0  0  0  0
   11.5920  -27.7730    3.2530 C   0  0  0  0  0  0  0  0  0  0  0  0
  5  1  1  0
  2  5  2  0
  3  5  1  0
  4  5  2  0
  3  7  1  0
  6  7  2  0
  7  8  1  0
  8  9  1  0
  6 10  1  0
  9 10  2  0
 10 11  1  0
 11 12  2  0
 12 13  1  0
  9 14  1  0
 13 14  2  0
M  END
