x1237-x1226
     RDKit          3D

 14 15  0  0  0  0  0  0  0  0999 V2000
   15.7800  -25.8900    7.3520 C   0  0  0  0  0  0  0  0  0  0  0  0
   15.2620  -28.4300    7.5660 O   0  0  0  0  0  0  0  0  0  0  0  0
   16.2950  -27.5360    5.3810 C   0  0  0  0  0  0  0  0  0  0  0  0
   17.6480  -27.6450    7.5650 O   0  0  0  0  0  0  0  0  0  0  0  0
   16.2860  -27.5370    7.0830 S   0  0  0  0  0  0  0  0  0  0  0  0
   14.5840  -25.8040    4.4710 N   0  0  0  0  0  0  0  0  0  0  0  0
   15.0580  -27.1530    4.8240 C   0  0  0  0  0  0  0  0  0  0  0  0
   13.9820  -28.1100    4.4700 N   0  0  0  0  0  0  0  0  0  0  0  0
   12.9470  -27.4610    3.9350 C   0  0  0  0  0  0  0  0  0  0  0  0
   13.2820  -26.1200    3.9310 C   0  0  0  0  0  0  0  0  0  0  0  0
   12.4520  -25.1340    3.4450 C   0  0  0  0  0  0  0  0  0  0  0  0
   11.2140  -25.5300    2.9240 C   0  0  0  0  0  0  0  0  0  0  0  0
   10.8530  -26.8830    2.9160 C   0  0  0  0  0  0  0  0  0  0  0  0
   11.7180  -27.8490    3.4270 C   0  0  0  0  0  0  0  0  0  0  0  0
  5  1  1  0
  2  5  2  0
  3  5  1  0
  4  5  2  0
  3  7  1  0
  6  7  1  0
  7  8  2  0
  8  9  1  0
  6 10  1  0
  9 10  2  0
 10 11  1  0
 11 12  2  0
 12 13  1  0
  9 14  1  0
 13 14  2  0
M  END
