x1237-x1425
     RDKit          3D

 14 15  0  0  0  0  0  0  0  0999 V2000
   15.8190  -25.9110    7.2930 C   0  0  0  0  0  0  0  0  0  0  0  0
   15.2920  -28.4140    7.8090 O   0  0  0  0  0  0  0  0  0  0  0  0
   16.2010  -27.8560    5.4740 C   0  0  0  0  0  0  0  0  0  0  0  0
   17.6680  -27.6700    7.5670 O   0  0  0  0  0  0  0  0  0  0  0  0
   16.2830  -27.5950    7.1580 S   0  0  0  0  0  0  0  0  0  0  0  0
   14.6610  -26.0110    4.5700 N   0  0  0  0  0  0  0  0  0  0  0  0
   15.0030  -27.3910    4.8940 C   0  0  0  0  0  0  0  0  0  0  0  0
   13.8790  -28.2620    4.4940 N   0  0  0  0  0  0  0  0  0  0  0  0
   12.9140  -27.5250    3.9510 C   0  0  0  0  0  0  0  0  0  0  0  0
   13.3440  -26.2110    3.9860 C   0  0  0  0  0  0  0  0  0  0  0  0
   12.5810  -25.1600    3.4960 C   0  0  0  0  0  0  0  0  0  0  0  0
   11.3330  -25.4690    2.9420 C   0  0  0  0  0  0  0  0  0  0  0  0
   10.8850  -26.7970    2.8960 C   0  0  0  0  0  0  0  0  0  0  0  0
   11.6740  -27.8220    3.4060 C   0  0  0  0  0  0  0  0  0  0  0  0
  5  1  1  0
  2  5  2  0
  3  5  1  0
  4  5  2  0
  3  7  1  0
  6  7  2  0
  7  8  1  0
  8  9  1  0
  6 10  1  0
  9 10  2  0
 10 11  1  0
 11 12  2  0
 12 13  1  0
  9 14  1  0
 13 14  2  0
M  END
