x1235-x0165
     RDKit          3D

 26 28  0  0  0  0  0  0  0  0999 V2000
   22.8200  -22.5380   20.0530 N   0  0  0  0  0  0  0  0  0  0  0  0
   25.3640  -20.1670   19.7260 C   0  0  0  0  0  0  0  0  0  0  0  0
   24.4110  -20.7590   20.2210 O   0  0  0  0  0  0  0  0  0  0  0  0
   23.9440  -21.8670   19.4530 C   0  0  0  0  0  0  0  0  0  0  0  0
   24.4690  -22.1950   18.3900 O   0  0  0  0  0  0  0  0  0  0  0  0
   21.0960  -27.3880   18.4820 C   0  0  0  0  0  0  0  0  0  0  0  0
   23.1230  -17.7470   24.1310 C   0  0  0  0  0  0  0  0  0  0  0  0
   22.4400  -22.4350   21.5060 C   0  0  0  0  0  0  0  0  0  0  0  0
   21.4330  -23.0420   21.8790 O   0  0  0  0  0  0  0  0  0  0  0  0
   21.2830  -24.9760   17.6940 N   0  0  0  0  0  0  0  0  0  0  0  0
   21.5000  -25.8790   18.6440 C   0  0  0  0  0  0  0  0  0  0  0  0
   22.2490  -25.2990   20.0750 S   0  0  0  0  0  0  0  0  0  0  0  0
   22.2630  -23.6950   19.3320 C   0  0  0  0  0  0  0  0  0  0  0  0
   21.7080  -23.6490   18.0500 C   0  0  0  0  0  0  0  0  0  0  0  0
   20.7570  -21.4210   17.3790 C   0  0  0  0  0  0  0  0  0  0  0  0
   20.5260  -20.4580   16.3860 C   0  0  0  0  0  0  0  0  0  0  0  0
   20.9640  -20.6170   15.1130 C   0  0  0  0  0  0  0  0  0  0  0  0
   21.6790  -21.7330   14.6640 C   0  0  0  0  0  0  0  0  0  0  0  0
   21.9140  -22.6940   15.6430 C   0  0  0  0  0  0  0  0  0  0  0  0
   21.4640  -22.5910   17.0430 C   0  0  0  0  0  0  0  0  0  0  0  0
   23.0130  -19.0270   23.4280 N   0  0  0  0  0  0  0  0  0  0  0  0
   24.0480  -19.3260   22.6110 C   0  0  0  0  0  0  0  0  0  0  0  0
   24.3390  -20.8180   22.3730 C   0  0  0  0  0  0  0  0  0  0  0  0
   23.1100  -21.6250   22.5030 N   0  0  0  0  0  0  0  0  0  0  0  0
   22.3340  -21.3310   23.7270 C   0  0  0  0  0  0  0  0  0  0  0  0
   22.8140  -20.1440   24.3440 C   0  0  0  0  0  0  0  0  0  0  0  0
  2  3  1  0
  1  4  1  0
  3  4  1  0
  4  5  2  0
  1  8  1  0
  8  9  2  0
  6 11  1  0
 10 11  2  0
 11 12  1  0
  1 13  1  0
 12 13  1  0
 10 14  1  0
 13 14  2  0
 15 16  2  0
 16 17  1  0
 17 18  2  0
 18 19  1  0
 14 20  1  0
 15 20  1  0
 19 20  2  0
  7 21  1  0
 21 22  1  0
 22 23  1  0
  8 24  1  0
 23 24  1  0
 24 25  1  0
 21 26  1  0
 25 26  1  0
M  END
