x1237-x0830
     RDKit          3D

 14 15  0  0  0  0  0  0  0  0999 V2000
   15.8180  -25.9040    7.2990 C   0  0  0  0  0  0  0  0  0  0  0  0
   15.2950  -28.4150    7.7600 O   0  0  0  0  0  0  0  0  0  0  0  0
   16.2340  -27.7950    5.4540 C   0  0  0  0  0  0  0  0  0  0  0  0
   17.6750  -27.6580    7.5730 O   0  0  0  0  0  0  0  0  0  0  0  0
   16.2970  -27.5810    7.1450 S   0  0  0  0  0  0  0  0  0  0  0  0
   14.6540  -25.9800    4.5300 N   0  0  0  0  0  0  0  0  0  0  0  0
   15.0290  -27.3430    4.8790 C   0  0  0  0  0  0  0  0  0  0  0  0
   13.9000  -28.2250    4.5000 N   0  0  0  0  0  0  0  0  0  0  0  0
   12.9190  -27.5070    3.9520 C   0  0  0  0  0  0  0  0  0  0  0  0
   13.3350  -26.1890    3.9620 C   0  0  0  0  0  0  0  0  0  0  0  0
   12.5640  -25.1530    3.4650 C   0  0  0  0  0  0  0  0  0  0  0  0
   11.3130  -25.4770    2.9250 C   0  0  0  0  0  0  0  0  0  0  0  0
   10.8780  -26.8070    2.9020 C   0  0  0  0  0  0  0  0  0  0  0  0
   11.6780  -27.8200    3.4200 C   0  0  0  0  0  0  0  0  0  0  0  0
  5  1  1  0
  2  5  2  0
  3  5  1  0
  4  5  2  0
  3  7  1  0
  6  7  1  0
  7  8  2  0
  8  9  1  0
  6 10  1  0
  9 10  2  0
 10 11  1  0
 11 12  2  0
 12 13  1  0
  9 14  1  0
 13 14  2  0
M  END
