x1237-x0425
     RDKit          3D

 14 15  0  0  0  0  0  0  0  0999 V2000
   15.7850  -25.8910    7.3560 C   0  0  0  0  0  0  0  0  0  0  0  0
   15.2670  -28.4300    7.5570 O   0  0  0  0  0  0  0  0  0  0  0  0
   16.2940  -27.5380    5.3740 C   0  0  0  0  0  0  0  0  0  0  0  0
   17.6540  -27.6550    7.5490 O   0  0  0  0  0  0  0  0  0  0  0  0
   16.2910  -27.5360    7.0750 S   0  0  0  0  0  0  0  0  0  0  0  0
   14.5830  -25.8100    4.4690 N   0  0  0  0  0  0  0  0  0  0  0  0
   15.0570  -27.1540    4.8210 C   0  0  0  0  0  0  0  0  0  0  0  0
   13.9780  -28.1120    4.4700 N   0  0  0  0  0  0  0  0  0  0  0  0
   12.9440  -27.4610    3.9370 C   0  0  0  0  0  0  0  0  0  0  0  0
   13.2810  -26.1200    3.9310 C   0  0  0  0  0  0  0  0  0  0  0  0
   12.4500  -25.1330    3.4470 C   0  0  0  0  0  0  0  0  0  0  0  0
   11.2130  -25.5270    2.9310 C   0  0  0  0  0  0  0  0  0  0  0  0
   10.8480  -26.8800    2.9210 C   0  0  0  0  0  0  0  0  0  0  0  0
   11.7120  -27.8490    3.4310 C   0  0  0  0  0  0  0  0  0  0  0  0
  5  1  1  0
  2  5  2  0
  3  5  1  0
  4  5  2  0
  3  7  1  0
  6  7  1  0
  7  8  2  0
  8  9  1  0
  6 10  1  0
  9 10  2  0
 10 11  1  0
 11 12  2  0
 12 13  1  0
  9 14  1  0
 13 14  2  0
M  END
