x1237-x0978
     RDKit          3D

 14 13  0  0  0  0  0  0  0  0999 V2000
    2.1320   -8.2070   24.6400 C   0  0  0  0  0  0  0  0  0  0  0  0
    1.8850   -5.6520   23.3560 N   0  0  0  0  0  0  0  0  0  0  0  0
    4.2860   -7.8330   24.4490 O   0  0  0  0  0  0  0  0  0  0  0  0
    3.1820   -7.3140   24.4120 C   0  0  1  0  0  0  0  0  0  0  0  0
    5.5190   -6.4850   22.8360 N   0  0  0  0  0  0  0  0  0  0  0  0
    0.5060   -7.2030   21.8160 O   0  0  0  0  0  0  0  0  0  0  0  0
    3.0550   -6.5270   23.2700 C   0  0  2  0  0  0  0  0  0  0  0  0
    4.2640   -4.5240   23.1280 O   0  0  0  0  0  0  0  0  0  0  0  0
    0.6530   -6.0580   22.6630 C   0  0  0  0  0  0  0  0  0  0  0  0
   -0.4780   -5.2630   22.8440 C   0  0  0  0  0  0  0  0  0  0  0  0
    4.2490   -5.7560   23.0830 C   0  0  0  0  0  0  0  0  0  0  0  0
    6.7100   -5.7200   22.4710 C   0  0  0  0  0  0  0  0  0  0  0  0
    6.7740   -5.0860   21.2630 C   0  0  0  0  0  0  0  0  0  0  0  0
    5.7110   -5.1760   20.3960 C   0  0  0  0  0  0  0  0  0  0  0  0
  4  1  1  6
  3  4  1  0
  7  2  1  1
  4  7  1  0
  2  9  1  0
  6  9  2  0
  9 10  1  0
  5 11  1  0
  7 11  1  0
  8 11  2  0
  5 12  1  0
 12 13  2  3
 13 14  1  0
M  END
