x1237-x0678
     RDKit          3D

 14 15  0  0  0  0  0  0  0  0999 V2000
   15.7800  -25.8890    7.3560 C   0  0  0  0  0  0  0  0  0  0  0  0
   15.2630  -28.4280    7.5630 O   0  0  0  0  0  0  0  0  0  0  0  0
   16.2930  -27.5370    5.3780 C   0  0  0  0  0  0  0  0  0  0  0  0
   17.6480  -27.6490    7.5590 O   0  0  0  0  0  0  0  0  0  0  0  0
   16.2890  -27.5360    7.0800 S   0  0  0  0  0  0  0  0  0  0  0  0
   14.5830  -25.8060    4.4710 N   0  0  0  0  0  0  0  0  0  0  0  0
   15.0570  -27.1540    4.8240 C   0  0  0  0  0  0  0  0  0  0  0  0
   13.9790  -28.1120    4.4710 N   0  0  0  0  0  0  0  0  0  0  0  0
   12.9460  -27.4590    3.9360 C   0  0  0  0  0  0  0  0  0  0  0  0
   13.2820  -26.1200    3.9310 C   0  0  0  0  0  0  0  0  0  0  0  0
   12.4500  -25.1330    3.4440 C   0  0  0  0  0  0  0  0  0  0  0  0
   11.2120  -25.5290    2.9270 C   0  0  0  0  0  0  0  0  0  0  0  0
   10.8510  -26.8800    2.9180 C   0  0  0  0  0  0  0  0  0  0  0  0
   11.7140  -27.8480    3.4280 C   0  0  0  0  0  0  0  0  0  0  0  0
  5  1  1  0
  2  5  2  0
  3  5  1  0
  4  5  2  0
  3  7  1  0
  6  7  1  0
  7  8  2  0
  8  9  1  0
  6 10  1  0
  9 10  2  0
 10 11  1  0
 11 12  2  0
 12 13  1  0
  9 14  1  0
 13 14  2  0
M  END
