x1237-x0426
     RDKit          3D

 18 19  0  0  0  0  0  0  0  0999 V2000
    2.2710    1.6840   23.8360 C   0  0  0  0  0  0  0  0  0  0  0  0
    2.1780    0.4500   23.8490 O   0  0  0  0  0  0  0  0  0  0  0  0
    3.3140    2.3410   23.2110 N   0  0  0  0  0  0  0  0  0  0  0  0
    4.2070    1.6550   22.2920 C   0  0  0  0  0  0  0  0  0  0  0  0
    3.5930    1.4090   21.0590 C   0  0  0  0  0  0  0  0  0  0  0  0
    2.7570    4.2510   25.1610 F   0  0  0  0  0  0  0  0  0  0  0  0
    1.5140    3.7430   25.1470 C   0  0  0  0  0  0  0  0  0  0  0  0
    1.2330    2.5210   24.5260 C   0  0  0  0  0  0  0  0  0  0  0  0
   -0.0850    2.0550   24.5480 C   0  0  0  0  0  0  0  0  0  0  0  0
   -1.0950    2.7960   25.1780 C   0  0  0  0  0  0  0  0  0  0  0  0
   -0.8030    4.0080   25.7910 C   0  0  0  0  0  0  0  0  0  0  0  0
    0.5070    4.4800   25.7730 C   0  0  0  0  0  0  0  0  0  0  0  0
    5.6080    0.1080   20.2350 C   0  0  0  0  0  0  0  0  0  0  0  0
    6.5040   -0.1750   19.2200 C   0  0  0  0  0  0  0  0  0  0  0  0
    6.4630    0.4140   18.0070 N   0  0  0  0  0  0  0  0  0  0  0  0
    5.4940    1.3210   17.8050 C   0  0  0  0  0  0  0  0  0  0  0  0
    4.5560    1.6720   18.7500 C   0  0  0  0  0  0  0  0  0  0  0  0
    4.6040    1.0560   19.9980 C   0  0  0  0  0  0  0  0  0  0  0  0
  1  2  2  0
  1  3  1  0
  3  4  1  0
  4  5  1  0
  6  7  1  0
  1  8  1  0
  7  8  2  0
  8  9  1  0
  9 10  2  0
 10 11  1  0
  7 12  1  0
 11 12  2  0
 13 14  2  0
 14 15  1  0
 15 16  2  0
 16 17  1  0
  5 18  1  0
 13 18  1  0
 17 18  2  0
M  END
