x1237-x0336
     RDKit          3D

 15 15  0  0  0  0  0  0  0  0999 V2000
    5.2840  -29.9610   10.7320 C   0  0  0  0  0  0  0  0  0  0  0  0
    4.8440  -29.7790    9.4120 C   0  0  0  0  0  0  0  0  0  0  0  0
    4.7810  -30.7520    8.6540 O   0  0  0  0  0  0  0  0  0  0  0  0
    4.4880  -28.4920    9.0100 N   0  0  0  0  0  0  0  0  0  0  0  0
    5.0470  -27.3280    9.7100 C   0  0  0  0  0  0  0  0  0  0  0  0
    1.4540  -22.5910    9.1300 S   0  0  0  0  0  0  0  0  0  0  0  0
    1.7270  -21.5730   10.1060 O   0  0  0  0  0  0  0  0  0  0  0  0
    0.1010  -23.0920    9.2070 O   0  0  0  0  0  0  0  0  0  0  0  0
    1.7120  -21.9180    7.5820 N   0  0  0  0  0  0  0  0  0  0  0  0
    4.2010  -26.2190    9.5770 C   0  0  0  0  0  0  0  0  0  0  0  0
    3.8190  -25.7770    8.3260 C   0  0  0  0  0  0  0  0  0  0  0  0
    2.9880  -24.6700    8.1870 C   0  0  0  0  0  0  0  0  0  0  0  0
    2.5230  -24.0020    9.3170 C   0  0  0  0  0  0  0  0  0  0  0  0
    2.8980  -24.4510   10.5680 C   0  0  0  0  0  0  0  0  0  0  0  0
    3.7400  -25.5530   10.7040 C   0  0  0  0  0  0  0  0  0  0  0  0
  1  2  1  0
  2  3  2  0
  2  4  1  0
  4  5  1  0
  6  7  2  0
  6  8  2  0
  6  9  1  0
  5 10  1  0
 10 11  2  0
 11 12  1  0
  6 13  1  0
 12 13  2  0
 13 14  1  0
 10 15  1  0
 14 15  2  0
M  END
