x1237-x0692
     RDKit          3D

 14 15  0  0  0  0  0  0  0  0999 V2000
   15.8380  -25.9120    7.2790 C   0  0  0  0  0  0  0  0  0  0  0  0
   15.2770  -28.4230    7.7290 O   0  0  0  0  0  0  0  0  0  0  0  0
   16.2440  -27.8020    5.4350 C   0  0  0  0  0  0  0  0  0  0  0  0
   17.6680  -27.6950    7.5660 O   0  0  0  0  0  0  0  0  0  0  0  0
   16.2950  -27.5980    7.1260 S   0  0  0  0  0  0  0  0  0  0  0  0
   14.6640  -25.9940    4.5210 N   0  0  0  0  0  0  0  0  0  0  0  0
   15.0360  -27.3590    4.8650 C   0  0  0  0  0  0  0  0  0  0  0  0
   13.9030  -28.2380    4.4900 N   0  0  0  0  0  0  0  0  0  0  0  0
   12.9210  -27.5140    3.9480 C   0  0  0  0  0  0  0  0  0  0  0  0
   13.3420  -26.1950    3.9590 C   0  0  0  0  0  0  0  0  0  0  0  0
   12.5660  -25.1550    3.4700 C   0  0  0  0  0  0  0  0  0  0  0  0
   11.3130  -25.4770    2.9360 C   0  0  0  0  0  0  0  0  0  0  0  0
   10.8760  -26.8080    2.9120 C   0  0  0  0  0  0  0  0  0  0  0  0
   11.6800  -27.8240    3.4250 C   0  0  0  0  0  0  0  0  0  0  0  0
  5  1  1  0
  2  5  2  0
  3  5  1  0
  4  5  2  0
  3  7  1  0
  6  7  1  0
  7  8  2  0
  8  9  1  0
  6 10  1  0
  9 10  2  0
 10 11  1  0
 11 12  2  0
 12 13  1  0
  9 14  1  0
 13 14  2  0
M  END
