x1237-x0771
     RDKit          3D

 20 21  0  0  0  0  0  0  0  0999 V2000
    0.6560   -1.4130   26.0210 C   0  0  0  0  0  0  0  0  0  0  0  0
    4.4100   -6.8990   25.8760 O   0  0  0  0  0  0  0  0  0  0  0  0
    5.9570   -5.1950   26.8670 O   0  0  0  0  0  0  0  0  0  0  0  0
    5.7370   -4.0880   19.8120 O   0  0  0  0  0  0  0  0  0  0  0  0
    2.0530   -6.0120   25.0330 C   0  0  0  0  0  0  0  0  0  0  0  0
    6.6090   -3.8920   20.6870 C   0  0  0  0  0  0  0  0  0  0  0  0
    7.5650   -2.8890   20.5570 C   0  0  0  0  0  0  0  0  0  0  0  0
    4.9950   -5.5830   25.8590 S   0  0  0  0  0  0  0  0  0  0  0  0
    1.7290   -2.4640   25.9630 C   0  0  0  0  0  0  0  0  0  0  0  0
    1.4170   -3.7440   25.5310 C   0  0  0  0  0  0  0  0  0  0  0  0
    2.4200   -4.7280   25.4830 C   0  0  0  0  0  0  0  0  0  0  0  0
    3.7140   -4.4140   25.8710 C   0  0  0  0  0  0  0  0  0  0  0  0
    4.0310   -3.1210   26.2980 C   0  0  0  0  0  0  0  0  0  0  0  0
    3.0330   -2.1490   26.3430 C   0  0  0  0  0  0  0  0  0  0  0  0
    6.6720   -4.6590   21.8340 N   0  0  0  0  0  0  0  0  0  0  0  0
    5.9710   -5.9430   21.9470 C   0  0  0  0  0  0  0  0  0  0  0  0
    5.0550   -5.9810   23.1690 C   0  0  0  0  0  0  0  0  0  0  0  0
    5.7480   -5.3600   24.3540 N   0  0  0  0  0  0  0  0  0  0  0  0
    6.2230   -4.0640   24.1010 C   0  0  0  0  0  0  0  0  0  0  0  0
    7.1820   -4.1080   23.1000 C   0  0  0  0  0  0  0  0  0  0  0  0
  4  6  2  0
  6  7  1  0
  2  8  2  0
  3  8  2  0
  1  9  1  0
  9 10  2  0
  5 11  1  0
 10 11  1  0
  8 12  1  0
 11 12  2  0
 12 13  1  0
  9 14  1  0
 13 14  2  0
  6 15  1  0
 15 16  1  0
 16 17  1  0
  8 18  1  0
 17 18  1  0
 18 19  1  0
 15 20  1  0
 19 20  1  0
M  END
