x1249-x0946
     RDKit          3D

 26 28  0  0  0  0  0  0  0  0999 V2000
    8.2830    0.4930   24.8970 N   0  0  0  0  0  0  0  0  0  0  0  0
    7.5080    1.3240   24.1230 C   0  0  0  0  0  0  0  0  0  0  0  0
    7.9490    2.3600   23.6320 O   0  0  0  0  0  0  0  0  0  0  0  0
    9.5780    0.7940   25.2970 C   0  0  0  0  0  0  0  0  0  0  0  0
   13.5090   -2.1830   20.7690 N   0  0  0  0  0  0  0  0  0  0  0  0
   12.8310   -1.6800   21.5070 C   0  0  0  0  0  0  0  0  0  0  0  0
    9.1170    5.2200   22.5420 N   0  0  0  0  0  0  0  0  0  0  0  0
   10.2220    5.4770   24.7290 O   0  0  0  0  0  0  0  0  0  0  0  0
   11.5210    6.0570   22.5600 O   0  0  0  0  0  0  0  0  0  0  0  0
   10.6050    5.1380   23.3140 S   0  0  0  0  0  0  0  0  0  0  0  0
    3.3680    0.9060   23.5890 O   0  0  0  0  0  0  0  0  0  0  0  0
    4.2320    0.8670   22.4490 C   0  0  0  0  0  0  0  0  0  0  0  0
    5.5370    1.5180   22.7450 C   0  0  0  0  0  0  0  0  0  0  0  0
    6.2060    0.9300   23.9300 N   0  0  0  0  0  0  0  0  0  0  0  0
    5.3120    0.7380   25.0740 C   0  0  0  0  0  0  0  0  0  0  0  0
    3.9610    0.1630   24.6580 C   0  0  0  0  0  0  0  0  0  0  0  0
   11.2070    1.0300   23.3760 C   0  0  1  0  0  0  0  0  0  0  0  0
   11.9060    0.3250   22.5000 C   0  0  0  0  0  0  0  0  0  0  0  0
   12.0030   -1.0510   22.4320 C   0  0  0  0  0  0  0  0  0  0  0  0
   11.3270   -1.8280   23.2660 C   0  0  0  0  0  0  0  0  0  0  0  0
   10.5560   -1.1670   24.2040 C   0  0  0  0  0  0  0  0  0  0  0  0
   10.4980    0.2160   24.2740 C   0  0  0  0  0  0  0  0  0  0  0  0
   12.6240    1.6730   23.4290 C   0  0  0  0  0  0  0  0  0  0  0  0
   12.4090    3.0990   23.2790 C   0  0  0  0  0  0  0  0  0  0  0  0
   11.1300    3.4650   23.2460 C   0  0  0  0  0  0  0  0  0  0  0  0
   10.3430    2.3220   23.1980 C   0  0  0  0  0  0  0  0  0  0  0  0
  1  2  1  0
  2  3  2  0
  1  4  1  0
  5  6  3  0
 10  7  1  0
  8 10  2  0
  9 10  2  0
 11 12  1  0
 12 13  1  0
  2 14  1  0
 13 14  1  0
 14 15  1  0
 11 16  1  0
 15 16  1  0
 17 18  1  6
  6 19  1  0
 18 19  2  0
 19 20  1  0
 20 21  1  0
  4 22  1  0
 17 22  1  0
 21 22  2  0
 17 23  1  0
 23 24  2  0
 10 25  1  0
 24 25  1  0
 17 26  1  0
 25 26  2  0
M  END
