x1249-x0731
     RDKit          3D

 39 43  0  0  0  0  0  0  0  0999 V2000
    1.2660   -0.9410   26.1640 C   0  0  0  0  0  0  0  0  0  0  0  0
    6.5130   -4.9480   26.7520 O   0  0  0  0  0  0  0  0  0  0  0  0
    4.7240   -6.6030   26.1190 O   0  0  0  0  0  0  0  0  0  0  0  0
    5.2810   -5.1220   19.9970 O   0  0  0  0  0  0  0  0  0  0  0  0
    6.2570   -4.6240   20.5140 C   0  0  0  0  0  0  0  0  0  0  0  0
    6.9390   -3.4690   19.7540 C   0  0  0  0  0  0  0  0  0  0  0  0
    5.4110   -5.3480   25.9160 S   0  0  0  0  0  0  0  0  0  0  0  0
    8.1280    0.6450   24.8380 N   0  0  0  0  0  0  0  0  0  0  0  0
    7.4800    1.5780   24.0790 C   0  0  0  0  0  0  0  0  0  0  0  0
    8.0660    2.5430   23.5970 O   0  0  0  0  0  0  0  0  0  0  0  0
    9.4900    0.8890   25.2260 C   0  0  0  0  0  0  0  0  0  0  0  0
   13.5120   -2.5320   20.7510 N   0  0  0  0  0  0  0  0  0  0  0  0
   12.8950   -1.7580   21.6340 C   0  0  0  0  0  0  0  0  0  0  0  0
    1.9030    0.3280   25.5950 C   0  0  0  0  0  0  0  0  0  0  0  0
    2.8870   -0.0190   24.4720 C   0  0  1  0  0  0  0  0  0  0  0  0
    2.2610   -2.0610   26.1170 C   0  0  0  0  0  0  0  0  0  0  0  0
    1.8680   -3.3770   25.9720 C   0  0  0  0  0  0  0  0  0  0  0  0
    2.8340   -4.3740   25.9140 C   0  0  0  0  0  0  0  0  0  0  0  0
    4.1890   -4.0660   26.0040 C   0  0  0  0  0  0  0  0  0  0  0  0
    4.5870   -2.7440   26.1610 C   0  0  0  0  0  0  0  0  0  0  0  0
    3.6250   -1.7530   26.2160 C   0  0  0  0  0  0  0  0  0  0  0  0
    6.7330   -5.1330   21.7190 N   0  0  0  0  0  0  0  0  0  0  0  0
    7.3270   -4.2120   22.7140 C   0  0  0  0  0  0  0  0  0  0  0  0
    6.4570   -3.9700   23.7890 C   0  0  0  0  0  0  0  0  0  0  0  0
    5.9270   -5.2610   24.3140 N   0  0  0  0  0  0  0  0  0  0  0  0
    5.4270   -6.0930   23.3780 C   0  0  0  0  0  0  0  0  0  0  0  0
    6.1910   -6.3800   22.2580 C   0  0  0  0  0  0  0  0  0  0  0  0
    3.5730    0.9440   23.6310 N   0  0  0  0  0  0  0  0  0  0  0  0
    4.1410    0.8010   22.4460 C   0  0  0  0  0  0  0  0  0  0  0  0
    5.4890    1.2810   22.5320 C   0  0  0  0  0  0  0  0  0  0  0  0
    6.1240    1.3580   23.8920 N   0  0  0  0  0  0  0  0  0  0  0  0
    5.3400    0.8870   25.0450 C   0  0  0  0  0  0  0  0  0  0  0  0
    4.4020    0.0910   24.4730 C   0  0  1  0  0  0  0  0  0  0  0  0
   11.6210    0.8890   23.8510 C   0  0  0  0  0  0  0  0  0  0  0  0
   12.4760    0.2480   22.9660 C   0  0  0  0  0  0  0  0  0  0  0  0
   12.1240   -1.0280   22.5280 C   0  0  0  0  0  0  0  0  0  0  0  0
   10.9770   -1.6660   22.9450 C   0  0  0  0  0  0  0  0  0  0  0  0
   10.1350   -1.0320   23.8220 C   0  0  0  0  0  0  0  0  0  0  0  0
   10.4440    0.2420   24.2790 C   0  0  0  0  0  0  0  0  0  0  0  0
  4  5  2  0
  5  6  1  0
  2  7  2  0
  3  7  2  0
  8  9  1  0
  9 10  2  0
  8 11  1  0
 12 13  3  0
  1 14  1  0
 15 14  1  1
  1 16  1  0
 16 17  2  0
 17 18  1  0
  7 19  1  0
 18 19  2  0
 19 20  1  0
 16 21  1  0
 20 21  2  0
  5 22  1  0
 22 23  1  0
 23 24  1  0
  7 25  1  0
 24 25  1  0
 25 26  1  0
 22 27  1  0
 26 27  1  0
 15 28  1  0
 28 29  1  0
 29 30  1  0
  9 31  1  0
 30 31  1  0
 31 32  1  0
 15 33  1  0
 28 33  1  0
 33 32  1  1
 34 35  2  0
 13 36  1  0
 35 36  1  0
 36 37  2  0
 37 38  1  0
 11 39  1  0
 34 39  1  0
 38 39  2  0
M  END
