x1249-x0387
     RDKit          3D

 26 28  0  0  0  0  0  0  0  0999 V2000
    8.2550    0.6870   24.8480 N   0  0  0  0  0  0  0  0  0  0  0  0
    7.5190    1.4420   23.9810 C   0  0  0  0  0  0  0  0  0  0  0  0
    7.9880    2.4420   23.4260 O   0  0  0  0  0  0  0  0  0  0  0  0
    9.5600    0.9880   25.1730 C   0  0  0  0  0  0  0  0  0  0  0  0
   13.6890   -1.9570   20.7290 N   0  0  0  0  0  0  0  0  0  0  0  0
   13.1110   -1.5050   21.5650 C   0  0  0  0  0  0  0  0  0  0  0  0
    9.2340   -4.3330   27.7320 O   0  0  0  0  0  0  0  0  0  0  0  0
    9.0430   -1.8620   24.0990 C   0  0  0  0  0  0  0  0  0  0  0  0
    3.4040    0.8930   23.5680 O   0  0  0  0  0  0  0  0  0  0  0  0
    4.0860    1.0090   22.5490 C   0  0  0  0  0  0  0  0  0  0  0  0
    5.5540    1.4460   22.6780 C   0  0  0  0  0  0  0  0  0  0  0  0
    6.2280    0.9830   23.7950 N   0  0  0  0  0  0  0  0  0  0  0  0
    5.3340    0.7570   24.9430 C   0  0  0  0  0  0  0  0  0  0  0  0
    4.0850    0.2150   24.6180 C   0  0  0  0  0  0  0  0  0  0  0  0
   11.6700    0.9610   23.8120 C   0  0  0  0  0  0  0  0  0  0  0  0
   12.5190    0.3340   22.9380 C   0  0  0  0  0  0  0  0  0  0  0  0
   12.2580   -0.8980   22.4740 C   0  0  0  0  0  0  0  0  0  0  0  0
   11.1330   -1.6210   22.8520 C   0  0  0  0  0  0  0  0  0  0  0  0
   10.2380   -1.0480   23.7330 C   0  0  0  0  0  0  0  0  0  0  0  0
   10.5080    0.3060   24.2340 C   0  0  0  0  0  0  0  0  0  0  0  0
    9.3550   -4.9570   26.5130 C   0  0  0  0  0  0  0  0  0  0  0  0
    8.1560   -4.8160   25.8210 C   0  0  0  0  0  0  0  0  0  0  0  0
    8.1060   -3.4990   25.3900 C   0  0  0  0  0  0  0  0  0  0  0  0
    9.2860   -3.1370   24.5930 N   0  0  0  0  0  0  0  0  0  0  0  0
   10.4580   -3.2970   25.2580 C   0  0  0  0  0  0  0  0  0  0  0  0
   10.5320   -4.5350   25.8850 C   0  0  0  0  0  0  0  0  0  0  0  0
  1  2  1  0
  2  3  2  0
  1  4  1  0
  5  6  3  0
  9 10  1  0
 10 11  1  0
  2 12  1  0
 11 12  1  0
 12 13  1  0
  9 14  1  0
 13 14  1  0
 15 16  2  0
  6 17  1  0
 16 17  1  0
 17 18  2  0
  8 19  1  0
 18 19  1  0
  4 20  1  0
 15 20  1  0
 19 20  2  0
  7 21  1  0
 21 22  1  0
 22 23  1  0
  8 24  1  0
 23 24  1  0
 24 25  1  0
 21 26  1  0
 25 26  1  0
M  END
