x1249-x2600
     RDKit          3D

 28 30  0  0  0  0  0  0  0  0999 V2000
    8.3210    0.7800   24.7380 N   0  0  0  0  0  0  0  0  0  0  0  0
    7.4760    1.6150   24.0710 C   0  0  0  0  0  0  0  0  0  0  0  0
    7.8720    2.6890   23.6140 O   0  0  0  0  0  0  0  0  0  0  0  0
    9.6480    1.0860   24.9420 C   0  0  0  0  0  0  0  0  0  0  0  0
   13.5530   -2.6860   20.7000 N   0  0  0  0  0  0  0  0  0  0  0  0
   13.0750   -1.9730   21.4120 C   0  0  0  0  0  0  0  0  0  0  0  0
    8.1470   -0.0890   21.6550 C   0  0  0  0  0  0  0  0  0  0  0  0
    8.8720    1.1140   21.2740 O   0  0  0  0  0  0  0  0  0  0  0  0
    8.6190   -0.8680   22.8410 C   0  0  0  0  0  0  0  0  0  0  0  0
    7.0310   -0.6020   21.0050 N   0  0  0  0  0  0  0  0  0  0  0  0
    3.4170    0.8140   23.7020 O   0  0  0  0  0  0  0  0  0  0  0  0
    4.0480    1.0800   22.6860 C   0  0  0  0  0  0  0  0  0  0  0  0
    5.4210    1.7330   22.8350 C   0  0  0  0  0  0  0  0  0  0  0  0
    6.1720    1.1780   23.9550 N   0  0  0  0  0  0  0  0  0  0  0  0
    5.3050    0.8660   25.1030 C   0  0  0  0  0  0  0  0  0  0  0  0
    4.1670    0.1810   24.7330 C   0  0  0  0  0  0  0  0  0  0  0  0
   11.9230    0.4800   24.0650 C   0  0  0  0  0  0  0  0  0  0  0  0
   12.7240   -0.2100   23.2670 C   0  0  0  0  0  0  0  0  0  0  0  0
   12.3250   -1.1390   22.3340 C   0  0  0  0  0  0  0  0  0  0  0  0
   10.9750   -1.3130   22.2510 C   0  0  0  0  0  0  0  0  0  0  0  0
    9.9910   -0.6190   23.0510 C   0  0  0  0  0  0  0  0  0  0  0  0
   10.5500    0.3190   24.0210 C   0  0  0  0  0  0  0  0  0  0  0  0
    6.3800    0.6810   17.6480 N   0  0  0  0  0  0  0  0  0  0  0  0
    6.8750    0.0660   18.7450 C   0  0  0  0  0  0  0  0  0  0  0  0
    6.3020    0.1230   19.9880 C   0  0  0  0  0  0  0  0  0  0  0  0
    5.1180    0.8580   20.1220 C   0  0  0  0  0  0  0  0  0  0  0  0
    4.5930    1.4910   19.0250 C   0  0  0  0  0  0  0  0  0  0  0  0
    5.2290    1.4000   17.7980 C   0  0  0  0  0  0  0  0  0  0  0  0
  1  2  1  0
  2  3  2  0
  1  4  1  0
  5  6  3  0
  7  8  2  0
  7  9  1  0
  7 10  1  0
 11 12  1  0
 12 13  1  0
  2 14  1  0
 13 14  1  0
 14 15  1  0
 11 16  1  0
 15 16  1  0
 17 18  2  0
  6 19  1  0
 18 19  1  0
 19 20  2  0
  9 21  1  0
 20 21  1  0
  4 22  1  0
 17 22  1  0
 21 22  2  0
 23 24  2  0
 10 25  1  0
 24 25  1  0
 25 26  2  0
 26 27  1  0
 23 28  1  0
 27 28  2  0
M  END
