x1249-x0831
     RDKit          3D

 29 31  0  0  0  0  0  0  0  0999 V2000
    8.2310    0.5560   24.8150 N   0  0  0  0  0  0  0  0  0  0  0  0
    7.5470    1.4930   24.0670 C   0  0  0  0  0  0  0  0  0  0  0  0
    8.1190    2.4740   23.5800 O   0  0  0  0  0  0  0  0  0  0  0  0
    9.5360    0.7350   25.2540 C   0  0  0  0  0  0  0  0  0  0  0  0
   13.8170   -1.7380   20.6420 N   0  0  0  0  0  0  0  0  0  0  0  0
   13.2600   -1.3330   21.5100 C   0  0  0  0  0  0  0  0  0  0  0  0
    5.3410   -4.3940   19.8150 O   0  0  0  0  0  0  0  0  0  0  0  0
    9.2290   -1.9870   24.1560 C   0  0  0  0  0  0  0  0  0  0  0  0
    6.1820   -3.4810   19.9850 C   0  0  0  0  0  0  0  0  0  0  0  0
    7.1240   -3.0550   18.9050 C   0  0  0  0  0  0  0  0  0  0  0  0
    3.4800    0.4520   23.5720 O   0  0  0  0  0  0  0  0  0  0  0  0
    4.2290    0.8080   22.4150 C   0  0  0  0  0  0  0  0  0  0  0  0
    5.3610    1.5870   22.7050 C   0  0  0  0  0  0  0  0  0  0  0  0
    6.1840    1.2460   23.9120 N   0  0  0  0  0  0  0  0  0  0  0  0
    5.4970    0.2690   24.7710 C   0  0  0  0  0  0  0  0  0  0  0  0
    4.1740    0.7080   24.8010 C   0  0  0  0  0  0  0  0  0  0  0  0
   11.6210    0.9430   23.8810 C   0  0  0  0  0  0  0  0  0  0  0  0
   12.5730    0.4800   22.9660 C   0  0  0  0  0  0  0  0  0  0  0  0
   12.4090   -0.7900   22.4460 C   0  0  0  0  0  0  0  0  0  0  0  0
   11.3200   -1.6430   22.8200 C   0  0  0  0  0  0  0  0  0  0  0  0
   10.3700   -1.1330   23.7630 C   0  0  0  0  0  0  0  0  0  0  0  0
   10.5300    0.1530   24.2750 C   0  0  0  0  0  0  0  0  0  0  0  0
    6.2720   -2.8370   21.2140 N   0  0  0  0  0  0  0  0  0  0  0  0
    6.3010   -1.4910   21.3020 C   0  0  0  0  0  0  0  0  0  0  0  0
    7.5410   -0.8480   21.1980 C   0  0  0  0  0  0  0  0  0  0  0  0
    8.5380   -1.5360   21.8310 C   0  0  0  0  0  0  0  0  0  0  0  0
    8.1570   -1.9900   23.1790 N   0  0  0  0  0  0  0  0  0  0  0  0
    7.1820   -2.9330   23.3950 C   0  0  0  0  0  0  0  0  0  0  0  0
    6.9600   -3.5100   22.1650 C   0  0  0  0  0  0  0  0  0  0  0  0
  1  2  1  0
  2  3  2  0
  1  4  1  0
  5  6  3  0
  7  9  2  0
  9 10  1  0
 11 12  1  0
 12 13  1  0
  2 14  1  0
 13 14  1  0
 14 15  1  0
 11 16  1  0
 15 16  1  0
 17 18  2  0
  6 19  1  0
 18 19  1  0
 19 20  2  0
  8 21  1  0
 20 21  1  0
  4 22  1  0
 17 22  1  0
 21 22  2  0
  9 23  1  0
 23 24  1  0
 24 25  1  0
 25 26  1  0
  8 27  1  0
 26 27  1  0
 27 28  1  0
 23 29  1  0
 28 29  1  0
M  END
