x1249-x1418
     RDKit          3D

 28 30  0  0  0  0  0  0  0  0999 V2000
    8.2950    0.5860   24.9510 N   0  0  0  0  0  0  0  0  0  0  0  0
    7.6930    1.4680   24.1060 C   0  0  0  0  0  0  0  0  0  0  0  0
    8.2890    2.4190   23.5980 O   0  0  0  0  0  0  0  0  0  0  0  0
    9.7010    0.7290   25.2930 C   0  0  0  0  0  0  0  0  0  0  0  0
   14.0390   -1.6550   20.4280 N   0  0  0  0  0  0  0  0  0  0  0  0
   13.3160   -1.1890   21.4260 C   0  0  0  0  0  0  0  0  0  0  0  0
    6.8690   -2.3140   18.4280 C   0  0  0  0  0  0  0  0  0  0  0  0
    5.5610   -3.9220   19.6510 O   0  0  0  0  0  0  0  0  0  0  0  0
    6.3200   -2.9450   19.6930 C   0  0  0  0  0  0  0  0  0  0  0  0
    9.4770   -2.0700   24.0120 C   0  0  0  0  0  0  0  0  0  0  0  0
    3.6470    1.2450   23.6260 O   0  0  0  0  0  0  0  0  0  0  0  0
    4.5090    1.1410   22.4970 C   0  0  0  0  0  0  0  0  0  0  0  0
    5.6230    1.8970   22.7850 C   0  0  0  0  0  0  0  0  0  0  0  0
    6.3600    1.2350   23.8540 N   0  0  0  0  0  0  0  0  0  0  0  0
    5.5690    0.5180   24.8720 C   0  0  0  0  0  0  0  0  0  0  0  0
    4.2260    0.8730   24.8840 C   0  0  0  0  0  0  0  0  0  0  0  0
   11.7750    1.0200   23.8700 C   0  0  0  0  0  0  0  0  0  0  0  0
   12.6800    0.5630   22.9350 C   0  0  0  0  0  0  0  0  0  0  0  0
   12.4770   -0.6880   22.4030 C   0  0  0  0  0  0  0  0  0  0  0  0
   11.4350   -1.4810   22.7750 C   0  0  0  0  0  0  0  0  0  0  0  0
   10.5450   -1.0550   23.6990 C   0  0  0  0  0  0  0  0  0  0  0  0
   10.6830    0.2180   24.2650 C   0  0  0  0  0  0  0  0  0  0  0  0
    6.7330   -2.3840   20.8580 N   0  0  0  0  0  0  0  0  0  0  0  0
    6.5600   -3.1620   22.1190 C   0  0  0  0  0  0  0  0  0  0  0  0
    7.7730   -3.3210   22.7780 C   0  0  0  0  0  0  0  0  0  0  0  0
    8.4150   -2.0320   23.0050 N   0  0  0  0  0  0  0  0  0  0  0  0
    8.7990   -1.4790   21.7080 C   0  0  0  0  0  0  0  0  0  0  0  0
    7.7000   -1.2680   20.8750 C   0  0  0  0  0  0  0  0  0  0  0  0
  1  2  1  0
  2  3  2  0
  1  4  1  0
  5  6  3  0
  7  9  1  0
  8  9  2  0
 11 12  1  0
 12 13  1  0
  2 14  1  0
 13 14  1  0
 14 15  1  0
 11 16  1  0
 15 16  1  0
 17 18  2  0
  6 19  1  0
 18 19  1  0
 19 20  2  0
 10 21  1  0
 20 21  1  0
  4 22  1  0
 17 22  1  0
 21 22  2  0
  9 23  1  0
 23 24  1  0
 24 25  1  0
 10 26  1  0
 25 26  1  0
 26 27  1  0
 23 28  1  0
 27 28  1  0
M  END
