x1249-x0395
     RDKit          3D

 25 27  0  0  0  0  0  0  0  0999 V2000
    8.2100    0.6930   24.7850 N   0  0  0  0  0  0  0  0  0  0  0  0
    7.4820    1.5030   23.9780 C   0  0  0  0  0  0  0  0  0  0  0  0
    7.9710    2.4850   23.4240 O   0  0  0  0  0  0  0  0  0  0  0  0
    9.5300    0.9980   25.0010 C   0  0  0  0  0  0  0  0  0  0  0  0
   13.6900   -2.0400   20.7120 N   0  0  0  0  0  0  0  0  0  0  0  0
   13.0930   -1.5250   21.4870 C   0  0  0  0  0  0  0  0  0  0  0  0
    9.0950   -5.7150   26.3050 C   0  0  0  0  0  0  0  0  0  0  0  0
    8.7800   -1.3580   23.3260 C   0  0  0  0  0  0  0  0  0  0  0  0
    3.4490    0.8750   23.5640 O   0  0  0  0  0  0  0  0  0  0  0  0
    4.3100    0.9240   22.4180 C   0  0  0  0  0  0  0  0  0  0  0  0
    5.4600    1.6580   22.6720 C   0  0  0  0  0  0  0  0  0  0  0  0
    6.1670    1.1270   23.8470 N   0  0  0  0  0  0  0  0  0  0  0  0
    5.3810    0.8020   24.8940 C   0  0  0  0  0  0  0  0  0  0  0  0
    4.0920    0.2930   24.6930 C   0  0  0  0  0  0  0  0  0  0  0  0
   11.7580    0.8100   23.9180 C   0  0  0  0  0  0  0  0  0  0  0  0
   12.6740    0.2270   23.0760 C   0  0  0  0  0  0  0  0  0  0  0  0
   12.2460   -0.8750   22.3590 C   0  0  0  0  0  0  0  0  0  0  0  0
   10.9760   -1.3990   22.4360 C   0  0  0  0  0  0  0  0  0  0  0  0
   10.0860   -0.8000   23.2760 C   0  0  0  0  0  0  0  0  0  0  0  0
   10.4590    0.3060   24.0390 C   0  0  0  0  0  0  0  0  0  0  0  0
    8.8200   -4.3750   25.7300 C   0  0  0  0  0  0  0  0  0  0  0  0
    8.0730   -3.2830   26.3950 N   0  0  0  0  0  0  0  0  0  0  0  0
    8.0230   -2.1720   25.5820 N   0  0  0  0  0  0  0  0  0  0  0  0
    8.6620   -2.3710   24.3990 C   0  0  0  0  0  0  0  0  0  0  0  0
    9.3700   -3.9240   24.1810 S   0  0  0  0  0  0  0  0  0  0  0  0
  1  2  1  0
  2  3  2  0
  1  4  1  0
  5  6  3  0
  9 10  1  0
 10 11  1  0
  2 12  1  0
 11 12  1  0
 12 13  1  0
  9 14  1  0
 13 14  1  0
 15 16  2  0
  6 17  1  0
 16 17  1  0
 17 18  2  0
  8 19  1  0
 18 19  1  0
  4 20  1  0
 15 20  1  0
 19 20  2  0
  7 21  1  0
 21 22  2  0
 22 23  1  0
  8 24  1  0
 23 24  2  0
 21 25  1  0
 24 25  1  0
M  END
