x1249-x0995
     RDKit          3D

 26 28  0  0  0  0  0  0  0  0999 V2000
    8.2120    0.5650   24.8920 N   0  0  0  0  0  0  0  0  0  0  0  0
    7.5540    1.3960   24.0260 C   0  0  0  0  0  0  0  0  0  0  0  0
    8.1050    2.3900   23.5470 O   0  0  0  0  0  0  0  0  0  0  0  0
    9.5150    0.8020   25.2850 C   0  0  0  0  0  0  0  0  0  0  0  0
   13.6520   -2.0100   20.7440 N   0  0  0  0  0  0  0  0  0  0  0  0
   13.0540   -1.5690   21.5760 C   0  0  0  0  0  0  0  0  0  0  0  0
    3.5280    1.5700   20.1600 N   0  0  0  0  0  0  0  0  0  0  0  0
    3.7660    2.5200   21.2660 C   0  0  0  0  0  0  0  0  0  0  0  0
    3.5270    1.4150   23.2800 O   0  0  0  0  0  0  0  0  0  0  0  0
    4.3320    2.0270   22.5940 C   0  0  1  0  0  0  0  0  0  0  0  0
    5.6960    1.3690   22.4010 C   0  0  0  0  0  0  0  0  0  0  0  0
    6.2520    1.0550   23.7240 N   0  0  0  0  0  0  0  0  0  0  0  0
    5.4950    1.0460   24.6280 C   0  0  0  0  0  0  0  0  0  0  0  0
    4.1920    0.6280   24.2920 C   0  0  0  0  0  0  0  0  0  0  0  0
   11.5970    0.8670   23.8630 C   0  0  0  0  0  0  0  0  0  0  0  0
   12.4390    0.2550   22.9630 C   0  0  0  0  0  0  0  0  0  0  0  0
   12.1940   -0.9930   22.5050 C   0  0  0  0  0  0  0  0  0  0  0  0
   11.0970   -1.7660   22.9020 C   0  0  0  0  0  0  0  0  0  0  0  0
   10.2400   -1.1760   23.8060 C   0  0  0  0  0  0  0  0  0  0  0  0
   10.4650    0.1760   24.3160 C   0  0  0  0  0  0  0  0  0  0  0  0
    4.5540    0.9440   19.5540 C   0  0  0  0  0  0  0  0  0  0  0  0
    5.1660    1.3550   18.3530 C   0  0  0  0  0  0  0  0  0  0  0  0
    6.2990    0.6240   17.7530 N   0  0  0  0  0  0  0  0  0  0  0  0
    6.6750   -0.5510   18.5560 C   0  0  0  0  0  0  0  0  0  0  0  0
    6.1040   -0.9530   19.6860 N   0  0  0  0  0  0  0  0  0  0  0  0
    5.0750   -0.1930   20.1330 C   0  0  0  0  0  0  0  0  0  0  0  0
  1  2  1  0
  2  3  2  0
  1  4  1  0
  5  6  3  0
  7  8  1  0
 10  8  1  6
  9 10  1  0
 10 11  1  0
  2 12  1  0
 11 12  1  0
 12 13  1  0
  9 14  1  0
 13 14  1  0
 15 16  2  0
  6 17  1  0
 16 17  1  0
 17 18  2  0
 18 19  1  0
  4 20  1  0
 15 20  1  0
 19 20  2  0
  7 21  1  0
 21 22  2  0
 22 23  1  0
 23 24  2  0
 24 25  1  0
 21 26  1  0
 25 26  2  0
M  END
