x1249-x1012
     RDKit          3D

 18 19  0  0  0  0  0  0  0  0999 V2000
    8.1050    0.5940   24.8440 N   0  0  0  0  0  0  0  0  0  0  0  0
    7.4580    1.5060   24.0670 C   0  0  0  0  0  0  0  0  0  0  0  0
    8.0350    2.4650   23.5580 O   0  0  0  0  0  0  0  0  0  0  0  0
    9.4500    0.8560   25.2840 C   0  0  0  0  0  0  0  0  0  0  0  0
   13.6540   -2.1040   20.7120 N   0  0  0  0  0  0  0  0  0  0  0  0
   12.9910   -1.5080   21.6530 C   0  0  0  0  0  0  0  0  0  0  0  0
    3.3520    1.0760   23.6000 O   0  0  0  0  0  0  0  0  0  0  0  0
    4.1400    0.8580   22.4240 C   0  0  0  0  0  0  0  0  0  0  0  0
    5.5450    1.4540   22.5300 C   0  0  0  0  0  0  0  0  0  0  0  0
    6.1140    1.2620   23.8990 N   0  0  0  0  0  0  0  0  0  0  0  0
    5.3210    0.3030   24.7650 C   0  0  0  0  0  0  0  0  0  0  0  0
    3.9080    0.5080   24.7910 C   0  0  0  0  0  0  0  0  0  0  0  0
   11.5500    0.9960   23.8890 C   0  0  0  0  0  0  0  0  0  0  0  0
   12.4290    0.4170   23.0000 C   0  0  0  0  0  0  0  0  0  0  0  0
   12.1720   -0.8730   22.5610 C   0  0  0  0  0  0  0  0  0  0  0  0
   11.0560   -1.5980   23.0060 C   0  0  0  0  0  0  0  0  0  0  0  0
   10.2030   -1.0060   23.8890 C   0  0  0  0  0  0  0  0  0  0  0  0
   10.4280    0.2690   24.3320 C   0  0  0  0  0  0  0  0  0  0  0  0
  1  2  1  0
  2  3  2  0
  1  4  1  0
  5  6  3  0
  7  8  1  0
  8  9  1  0
  2 10  1  0
  9 10  1  0
 10 11  1  0
  7 12  1  0
 11 12  1  0
 13 14  2  0
  6 15  1  0
 14 15  1  0
 15 16  2  0
 16 17  1  0
  4 18  1  0
 13 18  1  0
 17 18  2  0
M  END
