x1249-x1386
     RDKit          3D

 28 30  0  0  0  0  0  0  0  0999 V2000
    8.2240    0.4560   24.8410 N   0  0  0  0  0  0  0  0  0  0  0  0
    7.5780    1.3760   24.0590 C   0  0  0  0  0  0  0  0  0  0  0  0
    8.1440    2.3670   23.6060 O   0  0  0  0  0  0  0  0  0  0  0  0
    9.5080    0.7450   25.2550 C   0  0  0  0  0  0  0  0  0  0  0  0
   13.6780   -2.0120   20.7150 N   0  0  0  0  0  0  0  0  0  0  0  0
   13.1360   -1.5020   21.5400 C   0  0  0  0  0  0  0  0  0  0  0  0
    7.3290   -2.9660   18.7140 C   0  0  0  0  0  0  0  0  0  0  0  0
    5.4820   -3.8640   19.5880 O   0  0  0  0  0  0  0  0  0  0  0  0
    6.4410   -3.0810   19.6890 C   0  0  0  0  0  0  0  0  0  0  0  0
    9.2140   -1.9900   24.0900 C   0  0  0  0  0  0  0  0  0  0  0  0
    3.4570    0.8680   23.6700 O   0  0  0  0  0  0  0  0  0  0  0  0
    4.1750    0.9130   22.4360 C   0  0  0  0  0  0  0  0  0  0  0  0
    5.5590    1.5580   22.5950 C   0  0  0  0  0  0  0  0  0  0  0  0
    6.2520    1.1040   23.8140 N   0  0  0  0  0  0  0  0  0  0  0  0
    5.4530    0.8660   24.8910 C   0  0  0  0  0  0  0  0  0  0  0  0
    4.2150    0.2470   24.7180 C   0  0  0  0  0  0  0  0  0  0  0  0
   11.6710    0.9570   23.8690 C   0  0  0  0  0  0  0  0  0  0  0  0
   12.5800    0.4120   22.9580 C   0  0  0  0  0  0  0  0  0  0  0  0
   12.3380   -0.8640   22.4650 C   0  0  0  0  0  0  0  0  0  0  0  0
   11.2510   -1.5370   22.8900 C   0  0  0  0  0  0  0  0  0  0  0  0
   10.3480   -1.0580   23.7720 C   0  0  0  0  0  0  0  0  0  0  0  0
   10.5440    0.2210   24.2810 C   0  0  0  0  0  0  0  0  0  0  0  0
    6.6420   -2.3280   20.8390 N   0  0  0  0  0  0  0  0  0  0  0  0
    7.6540   -1.4180   20.8400 C   0  0  0  0  0  0  0  0  0  0  0  0
    8.7370   -1.5760   21.7030 C   0  0  0  0  0  0  0  0  0  0  0  0
    8.2350   -1.9980   23.0220 N   0  0  0  0  0  0  0  0  0  0  0  0
    7.5050   -3.1170   22.9460 C   0  0  0  0  0  0  0  0  0  0  0  0
    6.3530   -2.8860   22.1650 C   0  0  0  0  0  0  0  0  0  0  0  0
  1  2  1  0
  2  3  2  0
  1  4  1  0
  5  6  3  0
  7  9  1  0
  8  9  2  0
 11 12  1  0
 12 13  1  0
  2 14  1  0
 13 14  1  0
 14 15  1  0
 11 16  1  0
 15 16  1  0
 17 18  2  0
  6 19  1  0
 18 19  1  0
 19 20  2  0
 10 21  1  0
 20 21  1  0
  4 22  1  0
 17 22  1  0
 21 22  2  0
  9 23  1  0
 23 24  1  0
 24 25  1  0
 10 26  1  0
 25 26  1  0
 26 27  1  0
 23 28  1  0
 27 28  1  0
M  END
