x1249-x2563
     RDKit          3D

 31 34  0  0  0  0  0  0  0  0999 V2000
    8.1180    0.6430   24.8640 N   0  0  0  0  0  0  0  0  0  0  0  0
    7.3980    1.6040   24.1750 C   0  0  0  0  0  0  0  0  0  0  0  0
    7.9500    2.5980   23.6950 O   0  0  0  0  0  0  0  0  0  0  0  0
    9.4250    0.8240   25.3130 C   0  0  0  0  0  0  0  0  0  0  0  0
   13.6280   -2.1750   20.7550 N   0  0  0  0  0  0  0  0  0  0  0  0
   13.0880   -1.6390   21.5710 C   0  0  0  0  0  0  0  0  0  0  0  0
    8.5430   -0.0680   21.3460 C   0  0  0  0  0  0  0  0  0  0  0  0
    8.6770    1.3340   21.0170 O   0  0  0  0  0  0  0  0  0  0  0  0
    7.6170   -0.9050   20.5580 C   0  0  0  0  0  0  0  0  0  0  0  0
    9.2190   -0.7500   22.3350 N   0  0  0  0  0  0  0  0  0  0  0  0
    3.6940    0.4500   22.9400 O   0  0  0  0  0  0  0  0  0  0  0  0
    4.3600    1.2980   22.3460 C   0  0  2  0  0  0  0  0  0  0  0  0
    5.1890    2.2320   23.2110 C   0  0  0  0  0  0  0  0  0  0  0  0
    6.0270    1.3800   24.0640 N   0  0  0  0  0  0  0  0  0  0  0  0
    5.2380    0.3600   24.7760 C   0  0  0  0  0  0  0  0  0  0  0  0
    3.9160    0.3290   24.3560 C   0  0  0  0  0  0  0  0  0  0  0  0
   11.4740    0.9690   23.8340 C   0  0  0  0  0  0  0  0  0  0  0  0
   12.3420    0.4020   22.9600 C   0  0  0  0  0  0  0  0  0  0  0  0
   12.2440   -0.9390   22.5310 C   0  0  0  0  0  0  0  0  0  0  0  0
   11.2210   -1.7010   23.0540 C   0  0  0  0  0  0  0  0  0  0  0  0
   10.2630   -1.1660   23.9920 C   0  0  0  0  0  0  0  0  0  0  0  0
   10.4170    0.2250   24.3670 C   0  0  0  0  0  0  0  0  0  0  0  0
    6.1690    0.7200   17.5420 N   0  0  0  0  0  0  0  0  0  0  0  0
    5.1040    1.4180   18.0410 C   0  0  0  0  0  0  0  0  0  0  0  0
    4.7870    1.3720   19.4090 C   0  0  0  0  0  0  0  0  0  0  0  0
    5.6230    0.5960   20.2340 C   0  0  0  0  0  0  0  0  0  0  0  0
    6.6700   -0.0940   19.7470 C   0  0  0  0  0  0  0  0  0  0  0  0
    6.8900    0.0040   18.4270 C   0  0  0  0  0  0  0  0  0  0  0  0
    3.6570    2.0850   19.9750 C   0  0  0  0  0  0  0  0  0  0  0  0
    3.4500    2.0510   21.3690 C   0  0  0  0  0  0  0  0  0  0  0  0
    5.4120    0.5460   21.5970 C   0  0  0  0  0  0  0  0  0  0  0  0
  1  2  1  0
  2  3  2  0
  1  4  1  0
  5  6  3  0
  7  8  2  0
  7  9  1  0
  7 10  1  0
 12 11  1  0
 12 13  1  1
  2 14  1  0
 13 14  1  0
 14 15  1  0
 11 16  1  0
 15 16  1  0
 17 18  2  0
  6 19  1  0
 18 19  1  0
 19 20  2  0
 20 21  1  0
  4 22  1  0
 17 22  1  0
 21 22  2  0
 23 24  1  0
 24 25  2  0
 25 26  1  0
  9 27  1  0
 26 27  1  0
 23 28  1  0
 27 28  2  0
 25 29  1  0
 12 30  1  0
 29 30  2  0
 12 31  1  0
 26 31  2  0
M  END
