x1249-x0195
     RDKit          3D

 25 27  0  0  0  0  0  0  0  0999 V2000
    8.1930    0.5540   24.9670 N   0  0  0  0  0  0  0  0  0  0  0  0
    7.4740    1.3380   24.1000 C   0  0  0  0  0  0  0  0  0  0  0  0
    7.9710    2.3120   23.5410 O   0  0  0  0  0  0  0  0  0  0  0  0
    9.5350    0.7510   25.2340 C   0  0  0  0  0  0  0  0  0  0  0  0
   13.5900   -2.1550   20.7990 N   0  0  0  0  0  0  0  0  0  0  0  0
   12.9030   -1.6530   21.5240 C   0  0  0  0  0  0  0  0  0  0  0  0
   10.2420    4.6370   23.1880 S   0  0  0  0  0  0  0  0  0  0  0  0
   10.4440    5.1420   24.5180 O   0  0  0  0  0  0  0  0  0  0  0  0
    8.9710    4.9190   22.5790 O   0  0  0  0  0  0  0  0  0  0  0  0
   11.3760    5.4960   22.3220 N   0  0  0  0  0  0  0  0  0  0  0  0
    3.3370    0.9180   23.5620 O   0  0  0  0  0  0  0  0  0  0  0  0
    4.2020    0.8910   22.4240 C   0  0  0  0  0  0  0  0  0  0  0  0
    5.4970    1.5590   22.7270 C   0  0  0  0  0  0  0  0  0  0  0  0
    6.1660    0.9640   23.9080 N   0  0  0  0  0  0  0  0  0  0  0  0
    5.2740    0.7600   25.0470 C   0  0  0  0  0  0  0  0  0  0  0  0
    3.9320    0.1700   24.6280 C   0  0  0  0  0  0  0  0  0  0  0  0
   11.0240    0.9850   23.2070 C   0  0  1  0  0  0  0  0  0  0  0  0
   11.9730    0.3470   22.5060 C   0  0  0  0  0  0  0  0  0  0  0  0
   11.9470   -1.0190   22.3040 C   0  0  0  0  0  0  0  0  0  0  0  0
   10.9730   -1.7710   22.8300 C   0  0  0  0  0  0  0  0  0  0  0  0
   10.2800   -1.1980   23.8980 C   0  0  0  0  0  0  0  0  0  0  0  0
   10.3050    0.1750   24.0950 C   0  0  0  0  0  0  0  0  0  0  0  0
   11.6420    2.3190   23.7590 C   0  0  0  0  0  0  0  0  0  0  0  0
   10.6020    2.9700   23.1070 C   0  0  0  0  0  0  0  0  0  0  0  0
   10.0240    1.9390   22.4650 C   0  0  0  0  0  0  0  0  0  0  0  0
  1  2  1  0
  2  3  2  0
  1  4  1  0
  5  6  3  0
  7  8  2  0
  7  9  2  0
  7 10  1  0
 11 12  1  0
 12 13  1  0
  2 14  1  0
 13 14  1  0
 14 15  1  0
 11 16  1  0
 15 16  1  0
 17 18  1  6
  6 19  1  0
 18 19  2  0
 19 20  1  0
 20 21  1  0
  4 22  1  0
 17 22  1  0
 21 22  2  0
 17 23  1  0
  7 24  1  0
 23 24  1  0
 17 25  1  0
 24 25  2  0
M  END
