x1249-x0705
     RDKit          3D

 37 40  0  0  0  0  0  0  0  0999 V2000
    8.2580    0.7890   24.9910 N   0  0  0  0  0  0  0  0  0  0  0  0
    7.5000    1.3630   24.0020 C   0  0  0  0  0  0  0  0  0  0  0  0
    7.9950    2.2070   23.2580 O   0  0  0  0  0  0  0  0  0  0  0  0
    9.6080    1.2030   25.0590 C   0  0  0  0  0  0  0  0  0  0  0  0
   13.5390   -2.5600   20.7450 N   0  0  0  0  0  0  0  0  0  0  0  0
   12.9710   -1.7470   21.6030 C   0  0  0  0  0  0  0  0  0  0  0  0
    1.0980   -2.7820   27.8010 C   0  0  0  0  0  0  0  0  0  0  0  0
    6.9630   -0.9120   26.0350 N   0  0  0  0  0  0  0  0  0  0  0  0
    5.7710   -3.9120   19.7260 O   0  0  0  0  0  0  0  0  0  0  0  0
    6.3020   -1.8240   25.4480 C   0  0  0  0  0  0  0  0  0  0  0  0
    6.5480   -3.1850   20.3660 C   0  0  0  0  0  0  0  0  0  0  0  0
    7.0270   -1.9470   19.8400 C   0  0  0  0  0  0  0  0  0  0  0  0
    8.2280   -0.5420   25.5030 C   0  0  0  0  0  0  0  0  0  0  0  0
    3.4620    1.1840   23.5760 O   0  0  0  0  0  0  0  0  0  0  0  0
    4.2880    0.9070   22.4430 C   0  0  0  0  0  0  0  0  0  0  0  0
    5.5910    1.3800   22.5890 C   0  0  0  0  0  0  0  0  0  0  0  0
    6.1700    0.9870   23.8870 N   0  0  0  0  0  0  0  0  0  0  0  0
    5.2780    1.2030   25.0370 C   0  0  0  0  0  0  0  0  0  0  0  0
    4.0310    0.6410   24.7670 C   0  0  0  0  0  0  0  0  0  0  0  0
   11.7590    1.0440   23.7180 C   0  0  0  0  0  0  0  0  0  0  0  0
   12.6080    0.3310   22.8700 C   0  0  0  0  0  0  0  0  0  0  0  0
   12.2310   -0.9440   22.4620 C   0  0  0  0  0  0  0  0  0  0  0  0
   11.0600   -1.4900   22.8940 C   0  0  0  0  0  0  0  0  0  0  0  0
   10.2430   -0.8010   23.7180 C   0  0  0  0  0  0  0  0  0  0  0  0
   10.5490    0.4700   24.1520 C   0  0  0  0  0  0  0  0  0  0  0  0
    2.4570   -2.5580   27.2100 C   0  0  0  0  0  0  0  0  0  0  0  0
    2.5880   -1.7650   26.0670 C   0  0  0  0  0  0  0  0  0  0  0  0
    3.8540   -1.5550   25.5190 C   0  0  0  0  0  0  0  0  0  0  0  0
    4.9790   -2.1140   26.0880 C   0  0  0  0  0  0  0  0  0  0  0  0
    4.8590   -2.9110   27.2260 C   0  0  0  0  0  0  0  0  0  0  0  0
    3.5970   -3.1320   27.7860 C   0  0  0  0  0  0  0  0  0  0  0  0
    7.0440   -3.5830   21.6840 N   0  0  0  0  0  0  0  0  0  0  0  0
    6.0830   -4.1880   22.5810 C   0  0  0  0  0  0  0  0  0  0  0  0
    5.5820   -3.1410   23.5620 C   0  0  0  0  0  0  0  0  0  0  0  0
    6.6640   -2.5250   24.3130 N   0  0  0  0  0  0  0  0  0  0  0  0
    7.8590   -2.0990   23.5500 C   0  0  0  0  0  0  0  0  0  0  0  0
    8.2130   -3.0030   22.3550 C   0  0  0  0  0  0  0  0  0  0  0  0
  1  2  1  0
  2  3  2  0
  1  4  1  0
  5  6  3  0
  8 10  2  3
  9 11  2  0
 11 12  1  0
  1 13  1  0
  8 13  1  0
 14 15  1  0
 15 16  1  0
  2 17  1  0
 16 17  1  0
 17 18  1  0
 14 19  1  0
 18 19  1  0
 20 21  2  0
  6 22  1  0
 21 22  1  0
 22 23  2  0
 23 24  1  0
  4 25  1  0
 20 25  1  0
 24 25  2  0
  7 26  1  0
 26 27  2  0
 27 28  1  0
 10 29  1  0
 28 29  2  0
 29 30  1  0
 26 31  1  0
 30 31  2  0
 11 32  1  0
 32 33  1  0
 33 34  1  0
 10 35  1  0
 34 35  1  0
 35 36  1  0
 32 37  1  0
 36 37  1  0
M  END
