x1249-x1478
     RDKit          3D

 32 35  0  0  0  0  0  0  0  0999 V2000
    8.2460    0.6760   24.9850 N   0  0  0  0  0  0  0  0  0  0  0  0
    7.7870    1.1880   23.8090 C   0  0  1  0  0  0  0  0  0  0  0  0
    8.3430    2.1670   23.3050 O   0  0  0  0  0  0  0  0  0  0  0  0
    9.5530    0.8010   25.3760 C   0  0  0  0  0  0  0  0  0  0  0  0
   13.5920   -2.1840   20.7650 N   0  0  0  0  0  0  0  0  0  0  0  0
   13.0310   -1.6450   21.5670 C   0  0  0  0  0  0  0  0  0  0  0  0
    6.6040   -2.6410   21.4180 N   0  0  0  0  0  0  0  0  0  0  0  0
    7.7510   -3.5910   19.5380 C   0  0  0  0  0  0  0  0  0  0  0  0
    5.4780   -3.4660   19.4700 O   0  0  0  0  0  0  0  0  0  0  0  0
    6.5320   -5.8000   22.3800 Cl  0  0  0  0  0  0  0  0  0  0  0  0
    6.5270   -3.1900   20.1460 C   0  0  0  0  0  0  0  0  0  0  0  0
    7.2480    0.2960   22.8860 C   0  0  1  0  0  0  0  0  0  0  0  0
    7.4880   -1.2100   23.0410 C   0  0  0  0  0  0  0  0  0  0  0  0
    7.6300   -1.8130   21.7750 C   0  0  0  0  0  0  0  0  0  0  0  0
    3.6750    1.4460   23.7930 O   0  0  0  0  0  0  0  0  0  0  0  0
    4.3200    1.6670   22.5340 C   0  0  0  0  0  0  0  0  0  0  0  0
    5.6540    1.8870   22.7770 C   0  0  0  0  0  0  0  0  0  0  0  0
    6.1730    0.8450   23.4380 C   0  0  0  0  0  0  0  0  0  0  0  0
    5.6050    0.3730   24.6470 C   0  0  0  0  0  0  0  0  0  0  0  0
    4.2020    0.3480   24.5490 C   0  0  0  0  0  0  0  0  0  0  0  0
   11.5970    0.9190   23.8920 C   0  0  0  0  0  0  0  0  0  0  0  0
   12.5020    0.3210   22.9260 C   0  0  0  0  0  0  0  0  0  0  0  0
   12.2400   -0.9880   22.5050 C   0  0  0  0  0  0  0  0  0  0  0  0
   11.1490   -1.6720   23.0200 C   0  0  0  0  0  0  0  0  0  0  0  0
   10.3150   -1.0600   23.9470 C   0  0  0  0  0  0  0  0  0  0  0  0
   10.5030    0.2060   24.3890 C   0  0  0  0  0  0  0  0  0  0  0  0
    4.8960   -4.7750   24.0180 N   0  0  0  0  0  0  0  0  0  0  0  0
    5.6960   -4.4260   22.9840 C   0  0  0  0  0  0  0  0  0  0  0  0
    5.8060   -3.1160   22.4950 C   0  0  0  0  0  0  0  0  0  0  0  0
    5.0800   -2.0990   23.0740 C   0  0  0  0  0  0  0  0  0  0  0  0
    4.2490   -2.3870   24.1360 C   0  0  0  0  0  0  0  0  0  0  0  0
    4.1430   -3.6860   24.6130 C   0  0  0  0  0  0  0  0  0  0  0  0
  1  2  1  0
  2  3  1  6
  1  4  1  0
  5  6  3  0
  7 11  1  0
  8 11  1  0
  9 11  2  0
  2 12  1  0
 12 13  1  1
  7 14  1  0
 13 14  1  0
 15 16  1  0
 16 17  1  0
  2 18  1  0
 12 18  1  0
 18 17  1  0
 18 19  1  0
 15 20  1  0
 19 20  1  0
 21 22  2  0
  6 23  1  0
 22 23  1  0
 23 24  2  0
 24 25  1  0
  4 26  1  0
 21 26  1  0
 25 26  2  0
 10 28  1  0
 27 28  2  0
  7 29  1  0
 28 29  1  0
 29 30  2  0
 30 31  1  0
 27 32  1  0
 31 32  2  0
M  END
