x1249-x0678
     RDKit          3D

 28 30  0  0  0  0  0  0  0  0999 V2000
    8.2920    0.8850   24.7330 N   0  0  0  0  0  0  0  0  0  0  0  0
    7.5510    1.8590   24.1620 C   0  0  0  0  0  0  0  0  0  0  0  0
    8.0500    2.8890   23.7210 O   0  0  0  0  0  0  0  0  0  0  0  0
    9.6860    1.1410   24.9640 C   0  0  0  0  0  0  0  0  0  0  0  0
   13.6080   -2.5790   20.6720 N   0  0  0  0  0  0  0  0  0  0  0  0
   13.0130   -1.7900   21.5070 C   0  0  0  0  0  0  0  0  0  0  0  0
    9.0030    1.1300   21.3450 O   0  0  0  0  0  0  0  0  0  0  0  0
    8.2320   -0.0480   21.7390 C   0  0  0  0  0  0  0  0  0  0  0  0
    8.6590   -0.8330   22.9900 C   0  0  0  0  0  0  0  0  0  0  0  0
    7.1370   -0.5820   21.1230 N   0  0  0  0  0  0  0  0  0  0  0  0
    3.7430    1.4110   23.8050 O   0  0  0  0  0  0  0  0  0  0  0  0
    4.3820    1.2570   22.7640 C   0  0  0  0  0  0  0  0  0  0  0  0
    5.5760    1.9730   22.8520 C   0  0  0  0  0  0  0  0  0  0  0  0
    6.2010    1.5970   24.1090 N   0  0  0  0  0  0  0  0  0  0  0  0
    5.6150    0.3770   24.6980 C   0  0  0  0  0  0  0  0  0  0  0  0
    4.2400    0.5700   24.8620 C   0  0  0  0  0  0  0  0  0  0  0  0
   11.9590    0.6000   24.0400 C   0  0  0  0  0  0  0  0  0  0  0  0
   12.8070   -0.1180   23.1900 C   0  0  0  0  0  0  0  0  0  0  0  0
   12.2380   -1.0410   22.3570 C   0  0  0  0  0  0  0  0  0  0  0  0
   10.9080   -1.2480   22.3310 C   0  0  0  0  0  0  0  0  0  0  0  0
   10.0930   -0.5380   23.1530 C   0  0  0  0  0  0  0  0  0  0  0  0
   10.5810    0.3790   24.0330 C   0  0  0  0  0  0  0  0  0  0  0  0
    5.3450    0.8230   20.2220 C   0  0  0  0  0  0  0  0  0  0  0  0
    4.7440    1.4530   19.1540 C   0  0  0  0  0  0  0  0  0  0  0  0
    5.2620    1.3490   17.8770 C   0  0  0  0  0  0  0  0  0  0  0  0
    6.4690    0.5410   17.6690 N   0  0  0  0  0  0  0  0  0  0  0  0
    7.0550   -0.1070   18.8320 C   0  0  0  0  0  0  0  0  0  0  0  0
    6.4890    0.0540   20.0810 C   0  0  0  0  0  0  0  0  0  0  0  0
  1  2  1  0
  2  3  2  0
  1  4  1  0
  5  6  3  0
  7  8  2  0
  8  9  1  0
  8 10  1  0
 11 12  1  0
 12 13  1  0
  2 14  1  0
 13 14  1  0
 14 15  1  0
 11 16  1  0
 15 16  1  0
 17 18  2  0
  6 19  1  0
 18 19  1  0
 19 20  2  0
  9 21  1  0
 20 21  1  0
  4 22  1  0
 17 22  1  0
 21 22  2  0
 23 24  2  0
 24 25  1  0
 25 26  2  0
 26 27  1  0
 10 28  1  0
 23 28  1  0
 27 28  2  0
M  END
