x1249-x0755
     RDKit          3D

 40 45  0  0  0  0  0  0  0  0999 V2000
    4.4570   -6.3770   26.1290 O   0  0  0  0  0  0  0  0  0  0  0  0
    6.1670   -4.6670   26.7670 O   0  0  0  0  0  0  0  0  0  0  0  0
    5.2900   -4.7970   19.9640 O   0  0  0  0  0  0  0  0  0  0  0  0
    6.3370   -4.5430   20.5320 C   0  0  0  0  0  0  0  0  0  0  0  0
    7.2660   -3.4890   19.8750 C   0  0  0  0  0  0  0  0  0  0  0  0
    2.1440   -5.4820   25.9760 F   0  0  0  0  0  0  0  0  0  0  0  0
    5.5580   -2.1200   25.7600 O   0  0  0  0  0  0  0  0  0  0  0  0
    5.1150   -5.1130   25.8870 S   0  0  0  0  0  0  0  0  0  0  0  0
    8.3060    0.3720   24.9880 N   0  0  0  0  0  0  0  0  0  0  0  0
    7.6230    1.3330   24.1520 C   0  0  0  0  0  0  0  0  0  0  0  0
    8.1510    2.3070   23.6300 O   0  0  0  0  0  0  0  0  0  0  0  0
    9.5770    0.6390   25.3600 C   0  0  0  0  0  0  0  0  0  0  0  0
   13.7110   -1.8780   20.6930 N   0  0  0  0  0  0  0  0  0  0  0  0
   13.0990   -1.4820   21.5350 C   0  0  0  0  0  0  0  0  0  0  0  0
    5.8420   -0.7040   25.8340 C   0  0  0  0  0  0  0  0  0  0  0  0
    5.3880    0.0230   24.7220 C   0  0  1  0  0  0  0  0  0  0  0  0
    2.5380   -4.2000   25.9390 C   0  0  0  0  0  0  0  0  0  0  0  0
    3.8890   -3.8410   25.8840 C   0  0  0  0  0  0  0  0  0  0  0  0
    4.2410   -2.4900   25.8360 C   0  0  0  0  0  0  0  0  0  0  0  0
    3.2390   -1.5260   25.8650 C   0  0  0  0  0  0  0  0  0  0  0  0
    1.8910   -1.8840   25.9260 C   0  0  0  0  0  0  0  0  0  0  0  0
    1.5310   -3.2270   25.9590 C   0  0  0  0  0  0  0  0  0  0  0  0
    6.6520   -5.2120   21.7160 N   0  0  0  0  0  0  0  0  0  0  0  0
    7.5490   -4.7240   22.7740 C   0  0  0  0  0  0  0  0  0  0  0  0
    6.8570   -4.2740   23.9090 C   0  0  0  0  0  0  0  0  0  0  0  0
    5.7400   -5.1830   24.3230 N   0  0  0  0  0  0  0  0  0  0  0  0
    4.8790   -5.6490   23.1980 C   0  0  0  0  0  0  0  0  0  0  0  0
    5.6710   -6.1890   22.1780 C   0  0  0  0  0  0  0  0  0  0  0  0
    3.5370    1.2600   23.4900 O   0  0  0  0  0  0  0  0  0  0  0  0
    4.4020    1.1320   22.3300 C   0  0  0  0  0  0  0  0  0  0  0  0
    5.7360    1.4030   22.6410 C   0  0  0  0  0  0  0  0  0  0  0  0
    6.1800    1.0850   23.9380 C   0  0  2  0  0  0  0  0  0  0  0  0
    5.3130    1.4920   24.9390 C   0  0  1  0  0  0  0  0  0  0  0  0
    4.1190    0.8370   24.7550 C   0  0  2  0  0  0  0  0  0  0  0  0
   11.6450    0.8530   23.9360 C   0  0  0  0  0  0  0  0  0  0  0  0
   12.5150    0.3330   23.0040 C   0  0  0  0  0  0  0  0  0  0  0  0
   12.2560   -0.9350   22.4910 C   0  0  0  0  0  0  0  0  0  0  0  0
   11.1660   -1.6840   22.8880 C   0  0  0  0  0  0  0  0  0  0  0  0
   10.3030   -1.1620   23.8230 C   0  0  0  0  0  0  0  0  0  0  0  0
   10.5330    0.1060   24.3540 C   0  0  0  0  0  0  0  0  0  0  0  0
  3  4  2  0
  4  5  1  0
  1  8  2  0
  2  8  2  0
  9 10  1  0
 10 11  2  0
  9 12  1  0
 13 14  3  0
  7 15  1  0
 16 15  1  1
  6 17  1  0
  8 18  1  0
 17 18  2  0
  7 19  1  0
 18 19  1  0
 19 20  2  0
 20 21  1  0
 17 22  1  0
 21 22  2  0
  4 23  1  0
 23 24  1  0
 24 25  1  0
  8 26  1  0
 25 26  1  0
 26 27  1  0
 23 28  1  0
 27 28  1  0
 29 30  1  0
 30 31  1  0
 32 10  1  1
 16 32  1  0
 31 32  1  0
 16 33  1  0
 32 33  1  0
 16 34  1  0
 34 29  1  6
 33 34  1  6
 35 36  2  0
 14 37  1  0
 36 37  1  0
 37 38  2  0
 38 39  1  0
 12 40  1  0
 35 40  1  0
 39 40  2  0
M  END
