x1308-x0771-x2705-x2600
     RDKit          3D

 52 58  0  0  0  0  0  0  0  0999 V2000
    6.7960   -1.2970   22.0230 N   0  0  0  0  0  0  0  0  0  0  0  0
    6.5710   -4.3870   20.1990 C   0  0  2  0  0  0  0  0  0  0  0  0
    4.7090   -2.9100   21.3690 O   0  0  0  0  0  0  0  0  0  0  0  0
    6.7850   -3.5950   21.4070 C   0  0  2  0  0  0  0  0  0  0  0  0
    7.4860    2.1030   22.9140 N   0  0  0  0  0  0  0  0  0  0  0  0
    8.5950    1.3490   21.1340 O   0  0  0  0  0  0  0  0  0  0  0  0
    5.9960   -2.5160   21.6150 C   0  0  0  0  0  0  0  0  0  0  0  0
    6.4850    0.1250   21.6140 C   0  0  1  0  0  0  0  0  0  0  0  0
    7.5960    1.2090   21.8770 C   0  0  0  0  0  0  0  0  0  0  0  0
   10.2110    2.1090   23.9800 C   0  0  0  0  0  0  0  0  0  0  0  0
    9.3290    1.2790   24.9060 C   0  0  0  0  0  0  0  0  0  0  0  0
    6.1860    4.5330   21.9620 C   0  0  0  0  0  0  0  0  0  0  0  0
   11.9450   -1.5410   23.2720 C   0  0  0  0  0  0  0  0  0  0  0  0
   12.4620   -0.2190   23.8840 C   0  0  0  0  0  0  0  0  0  0  0  0
   12.4050   -2.6430   24.2500 C   0  0  0  0  0  0  0  0  0  0  0  0
   12.6790   -1.7350   21.9930 C   0  0  0  0  0  0  0  0  0  0  0  0
    5.4680   -4.0470   19.3760 O   0  0  0  0  0  0  0  0  0  0  0  0
    0.5960   -1.3680   26.3050 C   0  0  0  0  0  0  0  0  0  0  0  0
    4.4340   -6.9310   25.6940 O   0  0  0  0  0  0  0  0  0  0  0  0
    5.9780   -5.1560   26.5320 O   0  0  0  0  0  0  0  0  0  0  0  0
    1.8840   -6.0410   24.9270 C   0  0  0  0  0  0  0  0  0  0  0  0
    4.9670   -5.5910   25.6010 S   0  0  0  0  0  0  0  0  0  0  0  0
   13.3020   -1.8650   21.0160 N   0  0  0  0  0  0  0  0  0  0  0  0
    6.3180    0.3310   17.8740 N   0  0  0  0  0  0  0  0  0  0  0  0
    5.1740    1.0280   17.7740 C   0  0  0  0  0  0  0  0  0  0  0  0
    4.3920    1.4380   18.8300 C   0  0  0  0  0  0  0  0  0  0  0  0
    4.8050    1.1330   20.0820 C   0  0  0  0  0  0  0  0  0  0  0  0
    5.9920    0.4240   20.2430 C   0  0  0  0  0  0  0  0  0  0  0  0
    6.7290    0.0270   19.1180 C   0  0  0  0  0  0  0  0  0  0  0  0
    9.6850   -1.5590   24.3040 N   0  0  0  0  0  0  0  0  0  0  0  0
    8.3840   -1.5000   23.9470 N   0  0  0  0  0  0  0  0  0  0  0  0
    8.1580   -1.4070   22.6030 C   0  0  0  0  0  0  0  0  0  0  0  0
    9.5010   -1.4210   22.0820 C   0  0  0  0  0  0  0  0  0  0  0  0
   10.3910   -1.5080   23.1670 C   0  0  0  0  0  0  0  0  0  0  0  0
    9.5030    3.3580   23.5050 C   0  0  0  0  0  0  0  0  0  0  0  0
   10.1820    4.5670   23.5850 C   0  0  0  0  0  0  0  0  0  0  0  0
    9.5580    5.7500   23.1420 C   0  0  0  0  0  0  0  0  0  0  0  0
    8.2680    5.7220   22.6200 C   0  0  0  0  0  0  0  0  0  0  0  0
    7.5800    4.5120   22.5380 C   0  0  0  0  0  0  0  0  0  0  0  0
    8.1950    3.3300   22.9860 C   0  0  0  0  0  0  0  0  0  0  0  0
    1.6380   -2.4170   26.1160 C   0  0  0  0  0  0  0  0  0  0  0  0
    1.3370   -3.7040   25.6280 C   0  0  0  0  0  0  0  0  0  0  0  0
    2.3020   -4.6960   25.4530 C   0  0  0  0  0  0  0  0  0  0  0  0
    3.6450   -4.4210   25.7730 C   0  0  0  0  0  0  0  0  0  0  0  0
    3.9790   -3.1370   26.2600 C   0  0  0  0  0  0  0  0  0  0  0  0
    2.9720   -2.1740   26.4180 C   0  0  0  0  0  0  0  0  0  0  0  0
    6.1880   -4.9930   21.5300 C   0  0  1  0  0  0  0  0  0  0  0  0
    6.0880   -6.3180   21.8000 C   0  0  0  0  0  0  0  0  0  0  0  0
    5.3050   -6.4900   22.9980 C   0  0  0  0  0  0  0  0  0  0  0  0
    5.5760   -5.4440   24.0090 N   0  0  0  0  0  0  0  0  0  0  0  0
    6.8820   -4.7710   23.9030 C   0  0  0  0  0  0  0  0  0  0  0  0
    7.2810   -4.5040   22.4270 C   0  0  2  0  0  0  0  0  0  0  0  0
  2  4  1  0
  1  7  1  0
  3  7  2  0
  4  7  1  6
  1  8  1  0
  5  9  1  0
  6  9  2  0
  8  9  1  6
 10 11  1  0
 13 14  1  0
 13 15  1  0
 13 16  1  0
  2 17  1  6
 19 22  2  0
 20 22  2  0
 16 23  3  0
 24 25  2  0
 25 26  1  0
 26 27  2  0
  8 28  1  0
 27 28  1  0
 24 29  1  0
 28 29  2  0
 30 31  1  0
  1 32  1  0
 31 32  1  0
 32 33  2  0
 13 34  1  0
 30 34  2  0
 33 34  1  0
 10 35  1  0
 35 36  2  0
 36 37  1  0
 37 38  2  0
 12 39  1  0
 38 39  1  0
  5 40  1  0
 35 40  1  0
 39 40  2  0
 18 41  1  0
 41 42  2  0
 21 43  1  0
 42 43  1  0
 22 44  1  0
 43 44  2  0
 44 45  1  0
 41 46  1  0
 45 46  2  0
  2 47  1  0
  4 47  1  0
 47 48  1  1
 48 49  1  0
 22 50  1  0
 49 50  1  0
 50 51  1  0
  4 52  1  0
 47 52  1  0
 52 51  1  1
M  END
