x1308-x0731-x0771-x2705-x3117
     RDKit          3D

 52 58  0  0  0  0  0  0  0  0999 V2000
    6.8450   -1.4280   21.9810 N   0  0  0  0  0  0  0  0  0  0  0  0
    6.7700   -4.5530   20.2880 C   0  0  2  0  0  0  0  0  0  0  0  0
    4.7420   -2.9650   21.3750 O   0  0  0  0  0  0  0  0  0  0  0  0
    6.8930   -3.7840   21.5000 C   0  0  2  0  0  0  0  0  0  0  0  0
    7.3540    1.9070   22.8130 N   0  0  0  0  0  0  0  0  0  0  0  0
    8.6670    0.7500   21.2980 O   0  0  0  0  0  0  0  0  0  0  0  0
    6.0340   -2.6770   21.6240 C   0  0  0  0  0  0  0  0  0  0  0  0
    6.5250    0.0080   21.6580 C   0  0  1  0  0  0  0  0  0  0  0  0
    7.5910    0.8720   21.8910 C   0  0  0  0  0  0  0  0  0  0  0  0
   10.0770    1.9750   23.9730 C   0  0  0  0  0  0  0  0  0  0  0  0
    9.2390    1.1550   24.9860 C   0  0  0  0  0  0  0  0  0  0  0  0
    6.0890    4.5150   21.8440 C   0  0  0  0  0  0  0  0  0  0  0  0
   11.9290   -1.5700   23.2040 C   0  0  0  0  0  0  0  0  0  0  0  0
   12.5140   -0.2630   23.7890 C   0  0  0  0  0  0  0  0  0  0  0  0
   12.4150   -2.7320   24.0790 C   0  0  0  0  0  0  0  0  0  0  0  0
   12.5860   -1.7880   21.8280 C   0  0  0  0  0  0  0  0  0  0  0  0
   13.3740   -2.3820   25.2370 C   0  0  0  0  0  0  0  0  0  0  0  0
    5.5070   -4.5090   19.6400 O   0  0  0  0  0  0  0  0  0  0  0  0
    0.4270   -1.4210   26.2320 C   0  0  0  0  0  0  0  0  0  0  0  0
    4.5000   -6.8770   25.5270 O   0  0  0  0  0  0  0  0  0  0  0  0
    6.1580   -5.1610   26.7420 O   0  0  0  0  0  0  0  0  0  0  0  0
    1.7970   -6.0160   24.9210 C   0  0  0  0  0  0  0  0  0  0  0  0
    5.0570   -5.5420   25.5970 S   0  0  0  0  0  0  0  0  0  0  0  0
    6.3800    0.3110   17.8850 N   0  0  0  0  0  0  0  0  0  0  0  0
    5.2520    1.0210   17.8060 C   0  0  0  0  0  0  0  0  0  0  0  0
    4.4630    1.4300   18.8390 C   0  0  0  0  0  0  0  0  0  0  0  0
    4.8680    1.0880   20.1160 C   0  0  0  0  0  0  0  0  0  0  0  0
    6.0520    0.3510   20.2750 C   0  0  0  0  0  0  0  0  0  0  0  0
    6.7650   -0.0160   19.1300 C   0  0  0  0  0  0  0  0  0  0  0  0
    9.6810   -1.5880   24.2810 N   0  0  0  0  0  0  0  0  0  0  0  0
    8.3660   -1.5600   23.9510 N   0  0  0  0  0  0  0  0  0  0  0  0
    8.1520   -1.5050   22.5880 C   0  0  0  0  0  0  0  0  0  0  0  0
    9.4660   -1.5120   22.0930 C   0  0  0  0  0  0  0  0  0  0  0  0
   10.3910   -1.5570   23.1450 C   0  0  0  0  0  0  0  0  0  0  0  0
    9.3490    3.2090   23.4740 C   0  0  0  0  0  0  0  0  0  0  0  0
   10.0310    4.4240   23.5900 C   0  0  0  0  0  0  0  0  0  0  0  0
    9.4600    5.6150   23.1610 C   0  0  0  0  0  0  0  0  0  0  0  0
    8.1790    5.5900   22.6020 C   0  0  0  0  0  0  0  0  0  0  0  0
    7.4530    4.3850   22.4660 C   0  0  0  0  0  0  0  0  0  0  0  0
    8.0330    3.1730   22.9080 C   0  0  0  0  0  0  0  0  0  0  0  0
    1.5480   -2.4020   26.0830 C   0  0  0  0  0  0  0  0  0  0  0  0
    1.2760   -3.6870   25.6130 C   0  0  0  0  0  0  0  0  0  0  0  0
    2.2530   -4.6810   25.4390 C   0  0  0  0  0  0  0  0  0  0  0  0
    3.7300   -4.3850   25.7740 C   0  0  0  0  0  0  0  0  0  0  0  0
    4.0410   -2.9630   26.2940 C   0  0  0  0  0  0  0  0  0  0  0  0
    2.8390   -2.0050   26.4200 C   0  0  0  0  0  0  0  0  0  0  0  0
    6.8400   -5.3600   21.5060 C   0  0  1  0  0  0  0  0  0  0  0  0
    5.7870   -6.3310   21.9320 C   0  0  0  0  0  0  0  0  0  0  0  0
    4.8460   -5.6480   22.8910 C   0  0  0  0  0  0  0  0  0  0  0  0
    5.5820   -5.0870   24.0400 N   0  0  0  0  0  0  0  0  0  0  0  0
    6.9990   -4.7000   23.8820 C   0  0  0  0  0  0  0  0  0  0  0  0
    7.5240   -4.5850   22.5720 C   0  0  2  0  0  0  0  0  0  0  0  0
  2  4  1  0
  1  7  1  0
  3  7  2  0
  4  7  1  1
  1  8  1  0
  5  9  1  0
  6  9  2  0
  8  9  1  6
 10 11  1  0
 13 14  1  0
 13 15  1  0
 13 16  1  0
 15 17  1  0
  2 18  1  1
 20 23  2  0
 21 23  2  0
 24 25  2  0
 25 26  1  0
 26 27  2  0
  8 28  1  0
 27 28  1  0
 24 29  1  0
 28 29  2  0
 30 31  1  0
  1 32  1  0
 31 32  2  0
 32 33  1  0
 13 34  1  0
 30 34  1  0
 33 34  2  0
 10 35  1  0
 35 36  2  0
 36 37  1  0
 37 38  2  0
 12 39  1  0
 38 39  1  0
  5 40  1  0
 35 40  1  0
 39 40  2  0
 19 41  1  0
 41 42  2  0
 22 43  1  0
 42 43  1  0
 23 44  1  0
 43 44  2  0
 44 45  1  0
 41 46  1  0
 45 46  2  0
  2 47  1  0
  4 47  1  0
 47 48  1  1
 48 49  1  0
 23 50  1  0
 49 50  1  0
 50 51  1  0
  4 52  1  0
 47 52  1  0
 52 51  1  1
M  END
