x1308-x1402
     RDKit          3D

 19 20  0  0  0  0  0  0  0  0999 V2000
    7.9260   -3.7140   20.2980 C   0  0  0  0  0  0  0  0  0  0  0  0
    5.6780   -4.4720   19.9590 O   0  0  0  0  0  0  0  0  0  0  0  0
    0.6510   -1.2550   26.4610 Cl  0  0  0  0  0  0  0  0  0  0  0  0
    6.7490   -4.5770   20.6420 C   0  0  0  0  0  0  0  0  0  0  0  0
    6.4920   -5.0720   26.7980 O   0  0  0  0  0  0  0  0  0  0  0  0
    4.7940   -6.7670   26.2090 O   0  0  0  0  0  0  0  0  0  0  0  0
    5.3860   -5.4690   25.9610 S   0  0  0  0  0  0  0  0  0  0  0  0
    6.8580   -5.5440   21.6820 N   0  0  0  0  0  0  0  0  0  0  0  0
    7.5070   -4.7880   22.6750 C   0  0  0  0  0  0  0  0  0  0  0  0
    6.7620   -4.3230   23.8880 C   0  0  0  0  0  0  0  0  0  0  0  0
    5.8570   -5.3940   24.3230 N   0  0  0  0  0  0  0  0  0  0  0  0
    4.9640   -5.8380   23.3610 C   0  0  0  0  0  0  0  0  0  0  0  0
    5.7870   -6.3260   22.1620 C   0  0  0  0  0  0  0  0  0  0  0  0
    4.3110   -2.9440   26.4640 C   0  0  0  0  0  0  0  0  0  0  0  0
    3.2450   -2.0390   26.5650 C   0  0  0  0  0  0  0  0  0  0  0  0
    1.9350   -2.3860   26.3140 C   0  0  0  0  0  0  0  0  0  0  0  0
    1.7200   -3.7040   25.9400 C   0  0  0  0  0  0  0  0  0  0  0  0
    2.7570   -4.5580   25.8490 C   0  0  0  0  0  0  0  0  0  0  0  0
    4.1020   -4.2420   26.1040 C   0  0  0  0  0  0  0  0  0  0  0  0
  1  4  1  0
  2  4  2  0
  5  7  2  0
  6  7  2  0
  4  8  1  0
  8  9  1  0
  9 10  1  0
  7 11  1  0
 10 11  1  0
 11 12  1  0
  8 13  1  0
 12 13  1  0
 14 15  2  0
  3 16  1  0
 15 16  1  0
 16 17  2  0
 17 18  1  0
  7 19  1  0
 14 19  1  0
 18 19  2  0
M  END
