x1308-x2705-x2912-x2643
     RDKit          3D

 52 58  0  0  0  0  0  0  0  0999 V2000
    6.8990   -1.4780   21.9610 N   0  0  0  0  0  0  0  0  0  0  0  0
    6.7980   -4.5940   20.3780 C   0  0  2  0  0  0  0  0  0  0  0  0
    4.7800   -2.9970   21.3520 O   0  0  0  0  0  0  0  0  0  0  0  0
    6.9450   -3.7850   21.5620 C   0  0  2  0  0  0  0  0  0  0  0  0
    7.3770    2.0580   22.7440 N   0  0  0  0  0  0  0  0  0  0  0  0
    8.8940    0.8320   21.5000 O   0  0  0  0  0  0  0  0  0  0  0  0
    6.0550   -2.6960   21.6200 C   0  0  0  0  0  0  0  0  0  0  0  0
    6.5960   -0.0430   21.6240 C   0  0  1  0  0  0  0  0  0  0  0  0
    7.7580    0.9720   21.9470 C   0  0  0  0  0  0  0  0  0  0  0  0
   10.1470    2.0870   23.9920 C   0  0  0  0  0  0  0  0  0  0  0  0
    9.3160    1.2350   24.9460 C   0  0  0  0  0  0  0  0  0  0  0  0
    6.1610    4.5360   21.8360 C   0  0  0  0  0  0  0  0  0  0  0  0
   12.0200   -1.5550   23.2820 C   0  0  0  0  0  0  0  0  0  0  0  0
   12.5370   -0.2200   23.8570 C   0  0  0  0  0  0  0  0  0  0  0  0
   12.5110   -2.6570   24.2410 C   0  0  0  0  0  0  0  0  0  0  0  0
   12.7180   -1.7500   21.9830 C   0  0  0  0  0  0  0  0  0  0  0  0
    5.5290   -4.6050   19.7520 O   0  0  0  0  0  0  0  0  0  0  0  0
    0.7250   -1.2720   26.3260 Cl  0  0  0  0  0  0  0  0  0  0  0  0
    6.4070   -5.0380   26.8560 O   0  0  0  0  0  0  0  0  0  0  0  0
    4.7520   -6.7830   26.0900 O   0  0  0  0  0  0  0  0  0  0  0  0
    5.3630   -5.4760   25.9580 S   0  0  0  0  0  0  0  0  0  0  0  0
   13.3050   -1.8810   20.9850 N   0  0  0  0  0  0  0  0  0  0  0  0
    4.0360    1.6250   21.2430 C   0  0  0  0  0  0  0  0  0  0  0  0
    6.3410    0.2590   17.8920 N   0  0  0  0  0  0  0  0  0  0  0  0
    5.2330    1.0030   17.7900 C   0  0  0  0  0  0  0  0  0  0  0  0
    4.4890    1.4350   18.8460 C   0  0  0  0  0  0  0  0  0  0  0  0
    4.8900    1.1060   20.1290 C   0  0  0  0  0  0  0  0  0  0  0  0
    6.0380    0.3430   20.2880 C   0  0  0  0  0  0  0  0  0  0  0  0
    6.7240   -0.0580   19.1370 C   0  0  0  0  0  0  0  0  0  0  0  0
    9.7630   -1.3400   24.2820 N   0  0  0  0  0  0  0  0  0  0  0  0
    8.4680   -1.3330   23.9170 N   0  0  0  0  0  0  0  0  0  0  0  0
    8.2330   -1.5000   22.5700 C   0  0  0  0  0  0  0  0  0  0  0  0
    9.5440   -1.6380   22.0630 C   0  0  0  0  0  0  0  0  0  0  0  0
   10.4690   -1.5220   23.1690 C   0  0  0  0  0  0  0  0  0  0  0  0
    9.4100    3.3100   23.4970 C   0  0  0  0  0  0  0  0  0  0  0  0
   10.0720    4.5540   23.6340 C   0  0  0  0  0  0  0  0  0  0  0  0
    9.4810    5.7390   23.2050 C   0  0  0  0  0  0  0  0  0  0  0  0
    8.2170    5.7030   22.6280 C   0  0  0  0  0  0  0  0  0  0  0  0
    7.5250    4.4810   22.4750 C   0  0  0  0  0  0  0  0  0  0  0  0
    8.1220    3.2670   22.9150 C   0  0  0  0  0  0  0  0  0  0  0  0
    6.8590   -5.3570   21.6360 C   0  0  2  0  0  0  0  0  0  0  0  0
    7.5880   -4.5450   22.6550 C   0  0  2  0  0  0  0  0  0  0  0  0
    7.0620   -4.4330   24.0660 C   0  0  0  0  0  0  0  0  0  0  0  0
    5.9500   -5.3580   24.3610 N   0  0  0  0  0  0  0  0  0  0  0  0
    5.0260   -5.7020   23.2590 C   0  0  0  0  0  0  0  0  0  0  0  0
    5.7950   -6.2910   22.0840 C   0  0  0  0  0  0  0  0  0  0  0  0
    4.3500   -2.9550   26.4210 C   0  0  0  0  0  0  0  0  0  0  0  0
    3.3100   -2.0260   26.5000 C   0  0  0  0  0  0  0  0  0  0  0  0
    2.0010   -2.4180   26.2110 C   0  0  0  0  0  0  0  0  0  0  0  0
    1.7140   -3.7320   25.8340 C   0  0  0  0  0  0  0  0  0  0  0  0
    2.7480   -4.6660   25.7530 C   0  0  0  0  0  0  0  0  0  0  0  0
    4.0600   -4.2720   26.0510 C   0  0  0  0  0  0  0  0  0  0  0  0
  2  4  1  0
  1  7  1  0
  3  7  2  0
  4  7  1  1
  1  8  1  0
  5  9  1  0
  6  9  2  0
  8  9  1  6
 10 11  1  0
 13 14  1  0
 13 15  1  0
 13 16  1  0
  2 17  1  1
 19 21  2  0
 20 21  2  0
 16 22  3  0
 24 25  2  0
 25 26  1  0
 23 27  1  0
 26 27  2  0
  8 28  1  0
 27 28  1  0
 24 29  1  0
 28 29  2  0
 30 31  1  0
  1 32  1  0
 31 32  1  0
 32 33  2  0
 13 34  1  0
 30 34  2  0
 33 34  1  0
 10 35  1  0
 35 36  2  0
 36 37  1  0
 37 38  2  0
 12 39  1  0
 38 39  1  0
  5 40  1  0
 35 40  1  0
 39 40  2  0
  2 41  1  0
  4 41  1  0
  4 42  1  0
 41 42  1  0
 42 43  1  1
 21 44  1  0
 43 44  1  0
 44 45  1  0
 41 46  1  1
 45 46  1  0
 47 48  2  0
 18 49  1  0
 48 49  1  0
 49 50  2  0
 50 51  1  0
 21 52  1  0
 47 52  1  0
 51 52  2  0
M  END
