x1308-x0771-x2705-x2912
     RDKit          3D

 53 59  0  0  0  0  0  0  0  0999 V2000
    6.9160   -1.4200   21.9480 N   0  0  0  0  0  0  0  0  0  0  0  0
    6.7660   -4.5080   20.3730 C   0  0  2  0  0  0  0  0  0  0  0  0
    4.8000   -2.9690   21.2650 O   0  0  0  0  0  0  0  0  0  0  0  0
    6.9710   -3.7370   21.5810 C   0  0  2  0  0  0  0  0  0  0  0  0
    7.4420    2.0910   22.7980 N   0  0  0  0  0  0  0  0  0  0  0  0
    8.7650    1.2580   21.1120 O   0  0  0  0  0  0  0  0  0  0  0  0
    6.0860   -2.6270   21.5810 C   0  0  0  0  0  0  0  0  0  0  0  0
    6.6250    0.0310   21.5910 C   0  0  1  0  0  0  0  0  0  0  0  0
    7.7440    1.1660   21.8030 C   0  0  0  0  0  0  0  0  0  0  0  0
   10.1940    2.1140   23.9780 C   0  0  0  0  0  0  0  0  0  0  0  0
    9.3470    1.2380   24.8820 C   0  0  0  0  0  0  0  0  0  0  0  0
    6.1710    4.5320   21.9030 C   0  0  0  0  0  0  0  0  0  0  0  0
   12.0570   -1.5170   23.3050 C   0  0  0  0  0  0  0  0  0  0  0  0
   12.5720   -0.1760   23.8680 C   0  0  0  0  0  0  0  0  0  0  0  0
   12.4880   -2.6230   24.2740 C   0  0  0  0  0  0  0  0  0  0  0  0
   12.7740   -1.7410   21.9570 C   0  0  0  0  0  0  0  0  0  0  0  0
    5.5000   -4.3780   19.7350 O   0  0  0  0  0  0  0  0  0  0  0  0
    0.6290   -1.4360   26.0150 C   0  0  0  0  0  0  0  0  0  0  0  0
    4.4250   -6.9890   25.7830 O   0  0  0  0  0  0  0  0  0  0  0  0
    6.0440   -5.2950   26.7040 O   0  0  0  0  0  0  0  0  0  0  0  0
    2.0140   -6.1030   24.9440 C   0  0  0  0  0  0  0  0  0  0  0  0
    5.0520   -5.6840   25.7260 S   0  0  0  0  0  0  0  0  0  0  0  0
   13.3600   -1.8650   20.9630 N   0  0  0  0  0  0  0  0  0  0  0  0
    3.9390    1.4840   21.2960 C   0  0  0  0  0  0  0  0  0  0  0  0
    6.2990    0.3190   17.8250 N   0  0  0  0  0  0  0  0  0  0  0  0
    5.1350    0.9760   17.7920 C   0  0  0  0  0  0  0  0  0  0  0  0
    4.3610    1.3500   18.8870 C   0  0  0  0  0  0  0  0  0  0  0  0
    4.8040    1.0460   20.1560 C   0  0  0  0  0  0  0  0  0  0  0  0
    5.9940    0.3850   20.2920 C   0  0  0  0  0  0  0  0  0  0  0  0
    6.7390    0.0190   19.0340 C   0  0  0  0  0  0  0  0  0  0  0  0
    9.6810   -1.5260   24.2630 N   0  0  0  0  0  0  0  0  0  0  0  0
    8.3490   -1.5090   23.9720 N   0  0  0  0  0  0  0  0  0  0  0  0
    8.1940   -1.4730   22.6430 C   0  0  0  0  0  0  0  0  0  0  0  0
    9.5730   -1.4770   22.1280 C   0  0  0  0  0  0  0  0  0  0  0  0
   10.5230   -1.5070   23.1780 C   0  0  0  0  0  0  0  0  0  0  0  0
    9.4590    3.3490   23.5020 C   0  0  0  0  0  0  0  0  0  0  0  0
   10.1230    4.5620   23.6300 C   0  0  0  0  0  0  0  0  0  0  0  0
    9.5220    5.7510   23.2100 C   0  0  0  0  0  0  0  0  0  0  0  0
    8.2280    5.7290   22.6460 C   0  0  0  0  0  0  0  0  0  0  0  0
    7.5540    4.4970   22.5170 C   0  0  0  0  0  0  0  0  0  0  0  0
    8.1600    3.3100   22.9440 C   0  0  0  0  0  0  0  0  0  0  0  0
    1.7210   -2.4630   25.9420 C   0  0  0  0  0  0  0  0  0  0  0  0
    1.4430   -3.7580   25.5050 C   0  0  0  0  0  0  0  0  0  0  0  0
    2.4380   -4.7440   25.4280 C   0  0  0  0  0  0  0  0  0  0  0  0
    3.7600   -4.4500   25.7940 C   0  0  0  0  0  0  0  0  0  0  0  0
    4.1270   -3.1770   26.2390 C   0  0  0  0  0  0  0  0  0  0  0  0
    3.0210   -2.1320   26.3090 C   0  0  0  0  0  0  0  0  0  0  0  0
    6.9050   -5.3210   21.6370 C   0  0  1  0  0  0  0  0  0  0  0  0
    5.9050   -6.4180   21.9750 C   0  0  0  0  0  0  0  0  0  0  0  0
    4.9950   -6.0690   23.0000 C   0  0  0  0  0  0  0  0  0  0  0  0
    5.7480   -5.5580   24.1770 N   0  0  0  0  0  0  0  0  0  0  0  0
    6.4460   -4.2840   23.9130 C   0  0  0  0  0  0  0  0  0  0  0  0
    7.2800   -4.4440   22.7980 C   0  0  2  0  0  0  0  0  0  0  0  0
  2  4  1  0
  1  7  1  0
  3  7  2  0
  4  7  1  1
  1  8  1  0
  5  9  1  0
  6  9  2  0
  8  9  1  6
 10 11  1  0
 13 14  1  0
 13 15  1  0
 13 16  1  0
  2 17  1  1
 19 22  2  0
 20 22  2  0
 16 23  3  0
 25 26  2  0
 26 27  1  0
 24 28  1  0
 27 28  2  0
  8 29  1  0
 28 29  1  0
 25 30  1  0
 29 30  2  0
 31 32  1  0
  1 33  1  0
 32 33  2  0
 33 34  1  0
 13 35  1  0
 31 35  1  0
 34 35  2  0
 10 36  1  0
 36 37  2  0
 37 38  1  0
 38 39  2  0
 12 40  1  0
 39 40  1  0
  5 41  1  0
 36 41  1  0
 40 41  2  0
 18 42  1  0
 42 43  2  0
 21 44  1  0
 43 44  1  0
 22 45  1  0
 44 45  2  0
 45 46  1  0
 42 47  1  0
 46 47  2  0
  2 48  1  0
  4 48  1  0
 48 49  1  1
 49 50  1  0
 22 51  1  0
 50 51  1  0
 51 52  1  0
  4 53  1  0
 48 53  1  0
 53 52  1  1
M  END
