x1308-x0771-x2705-x1402
     RDKit          3D

 51 57  0  0  0  0  0  0  0  0999 V2000
    6.8600   -1.3980   21.9340 N   0  0  0  0  0  0  0  0  0  0  0  0
    6.8560   -4.4910   20.2850 C   0  0  2  0  0  0  0  0  0  0  0  0
    4.7870   -2.9800   21.3010 O   0  0  0  0  0  0  0  0  0  0  0  0
    6.9920   -3.6910   21.4370 C   0  0  2  0  0  0  0  0  0  0  0  0
    7.4780    2.0260   22.8520 N   0  0  0  0  0  0  0  0  0  0  0  0
    8.8240    0.9010   21.3720 O   0  0  0  0  0  0  0  0  0  0  0  0
    6.0710   -2.6220   21.5550 C   0  0  0  0  0  0  0  0  0  0  0  0
    6.5480    0.0270   21.6000 C   0  0  1  0  0  0  0  0  0  0  0  0
    7.7290    1.0100   21.9350 C   0  0  0  0  0  0  0  0  0  0  0  0
   10.1410    2.0780   23.9520 C   0  0  0  0  0  0  0  0  0  0  0  0
    9.2680    1.2300   24.8720 C   0  0  0  0  0  0  0  0  0  0  0  0
    6.1560    4.6340   21.9000 C   0  0  0  0  0  0  0  0  0  0  0  0
   11.9700   -1.5450   23.2230 C   0  0  0  0  0  0  0  0  0  0  0  0
   12.4910   -0.1340   23.5850 C   0  0  0  0  0  0  0  0  0  0  0  0
   12.4860   -2.5780   24.2760 C   0  0  0  0  0  0  0  0  0  0  0  0
   12.6650   -1.9210   21.8810 C   0  0  0  0  0  0  0  0  0  0  0  0
    5.5940   -4.3950   19.6280 O   0  0  0  0  0  0  0  0  0  0  0  0
    0.6890   -1.4590   26.2290 C   0  0  0  0  0  0  0  0  0  0  0  0
    4.4440   -6.9640   25.8230 O   0  0  0  0  0  0  0  0  0  0  0  0
    6.0740   -5.2690   26.7310 O   0  0  0  0  0  0  0  0  0  0  0  0
    2.0070   -6.1020   24.9750 C   0  0  0  0  0  0  0  0  0  0  0  0
    5.0540   -5.6490   25.7860 S   0  0  0  0  0  0  0  0  0  0  0  0
    6.3700    0.3650   17.8980 N   0  0  0  0  0  0  0  0  0  0  0  0
    5.2060    1.0140   17.7870 C   0  0  0  0  0  0  0  0  0  0  0  0
    4.3570    1.3840   18.8220 C   0  0  0  0  0  0  0  0  0  0  0  0
    4.7560    1.0590   20.1160 C   0  0  0  0  0  0  0  0  0  0  0  0
    5.9560    0.4030   20.2750 C   0  0  0  0  0  0  0  0  0  0  0  0
    6.7250    0.0690   19.1580 C   0  0  0  0  0  0  0  0  0  0  0  0
    9.6550   -1.6210   24.2460 N   0  0  0  0  0  0  0  0  0  0  0  0
    8.3320   -1.6000   24.0330 N   0  0  0  0  0  0  0  0  0  0  0  0
    8.1710   -1.4910   22.5930 C   0  0  0  0  0  0  0  0  0  0  0  0
    9.4910   -1.4630   22.0600 C   0  0  0  0  0  0  0  0  0  0  0  0
   10.4270   -1.5410   23.1220 C   0  0  0  0  0  0  0  0  0  0  0  0
    9.4250    3.3290   23.4840 C   0  0  0  0  0  0  0  0  0  0  0  0
   10.1160    4.5280   23.6100 C   0  0  0  0  0  0  0  0  0  0  0  0
    9.5350    5.7170   23.1950 C   0  0  0  0  0  0  0  0  0  0  0  0
    8.2380    5.6980   22.6420 C   0  0  0  0  0  0  0  0  0  0  0  0
    7.5280    4.4990   22.5100 C   0  0  0  0  0  0  0  0  0  0  0  0
    8.1100    3.3040   22.9330 C   0  0  0  0  0  0  0  0  0  0  0  0
    1.7620   -2.4990   26.0950 C   0  0  0  0  0  0  0  0  0  0  0  0
    1.4220   -3.7820   25.6050 C   0  0  0  0  0  0  0  0  0  0  0  0
    2.4210   -4.7520   25.4980 C   0  0  0  0  0  0  0  0  0  0  0  0
    3.7370   -4.4430   25.8750 C   0  0  0  0  0  0  0  0  0  0  0  0
    4.0770   -3.1640   26.3520 C   0  0  0  0  0  0  0  0  0  0  0  0
    3.0690   -2.1900   26.4590 C   0  0  0  0  0  0  0  0  0  0  0  0
    6.8390   -5.1530   21.6350 C   0  0  1  0  0  0  0  0  0  0  0  0
    5.6200   -5.8350   21.8380 C   0  0  0  0  0  0  0  0  0  0  0  0
    4.8940   -5.6630   23.0320 C   0  0  0  0  0  0  0  0  0  0  0  0
    5.7330   -5.4600   24.2190 N   0  0  0  0  0  0  0  0  0  0  0  0
    6.5020   -4.2550   23.9870 C   0  0  0  0  0  0  0  0  0  0  0  0
    7.3890   -4.5070   22.7830 C   0  0  2  0  0  0  0  0  0  0  0  0
  2  4  1  0
  1  7  1  0
  3  7  2  0
  4  7  1  1
  1  8  1  0
  5  9  1  0
  6  9  2  0
  8  9  1  6
 10 11  1  0
 13 14  1  0
 13 15  1  0
 13 16  1  0
  2 17  1  1
 19 22  2  0
 20 22  2  0
 23 24  2  0
 24 25  1  0
 25 26  2  0
  8 27  1  0
 26 27  1  0
 23 28  1  0
 27 28  2  0
 29 30  1  0
  1 31  1  0
 30 31  2  0
 31 32  1  0
 13 33  1  0
 29 33  1  0
 32 33  2  0
 10 34  1  0
 34 35  2  0
 35 36  1  0
 36 37  2  0
 12 38  1  0
 37 38  1  0
  5 39  1  0
 34 39  1  0
 38 39  2  0
 18 40  1  0
 40 41  2  0
 21 42  1  0
 41 42  1  0
 22 43  1  0
 42 43  2  0
 43 44  1  0
 40 45  1  0
 44 45  2  0
  2 46  1  0
  4 46  1  0
 46 47  1  1
 47 48  1  0
 22 49  1  0
 48 49  1  0
 49 50  1  0
  4 51  1  0
 46 51  1  0
 51 50  1  1
M  END
