x1308-x2705-x2649-x0995
     RDKit          3D

 52 58  0  0  0  0  0  0  0  0999 V2000
    6.9170   -1.4410   21.9530 N   0  0  0  0  0  0  0  0  0  0  0  0
    6.8080   -4.5560   20.4300 C   0  0  2  0  0  0  0  0  0  0  0  0
    4.8140   -3.0120   21.3130 O   0  0  0  0  0  0  0  0  0  0  0  0
    7.0280   -3.7480   21.5740 C   0  0  2  0  0  0  0  0  0  0  0  0
    7.4140    2.0460   22.8210 N   0  0  0  0  0  0  0  0  0  0  0  0
    8.8720    0.9080   21.4410 O   0  0  0  0  0  0  0  0  0  0  0  0
    6.1100   -2.6610   21.6050 C   0  0  0  0  0  0  0  0  0  0  0  0
    6.6140   -0.0280   21.6000 C   0  0  1  0  0  0  0  0  0  0  0  0
    7.7510    1.0060   21.9500 C   0  0  0  0  0  0  0  0  0  0  0  0
   10.1270    2.0540   23.9700 C   0  0  0  0  0  0  0  0  0  0  0  0
    9.3040    1.2060   24.9410 C   0  0  0  0  0  0  0  0  0  0  0  0
    6.1720    4.4710   21.9000 C   0  0  0  0  0  0  0  0  0  0  0  0
   12.0360   -1.5330   23.2410 C   0  0  0  0  0  0  0  0  0  0  0  0
   12.5740   -0.1280   23.6060 C   0  0  0  0  0  0  0  0  0  0  0  0
   12.5540   -2.5780   24.2820 C   0  0  0  0  0  0  0  0  0  0  0  0
   12.6990   -1.9130   21.8850 C   0  0  0  0  0  0  0  0  0  0  0  0
    5.5280   -4.4810   19.8090 O   0  0  0  0  0  0  0  0  0  0  0  0
    0.7630   -1.2230   26.3390 Cl  0  0  0  0  0  0  0  0  0  0  0  0
    6.3740   -5.1830   26.7880 O   0  0  0  0  0  0  0  0  0  0  0  0
    4.6600   -6.8720   26.0380 O   0  0  0  0  0  0  0  0  0  0  0  0
    5.3090   -5.5900   25.8980 S   0  0  0  0  0  0  0  0  0  0  0  0
    4.1630    1.6170   21.3580 C   0  0  0  0  0  0  0  0  0  0  0  0
    3.3760    2.3020   18.8220 N   0  0  0  0  0  0  0  0  0  0  0  0
    6.2990    0.3250   17.8900 N   0  0  0  0  0  0  0  0  0  0  0  0
    5.2010    1.0930   17.8250 C   0  0  0  0  0  0  0  0  0  0  0  0
    4.4690    1.5350   18.9140 C   0  0  0  0  0  0  0  0  0  0  0  0
    4.9260    1.1510   20.1570 C   0  0  0  0  0  0  0  0  0  0  0  0
    6.0610    0.3690   20.2730 C   0  0  0  0  0  0  0  0  0  0  0  0
    6.7110   -0.0240   19.1210 C   0  0  0  0  0  0  0  0  0  0  0  0
    9.7650   -1.5970   24.2980 N   0  0  0  0  0  0  0  0  0  0  0  0
    8.4580   -1.5760   23.9320 N   0  0  0  0  0  0  0  0  0  0  0  0
    8.2260   -1.5070   22.5770 C   0  0  0  0  0  0  0  0  0  0  0  0
    9.5700   -1.4950   22.1170 C   0  0  0  0  0  0  0  0  0  0  0  0
   10.4900   -1.5420   23.1740 C   0  0  0  0  0  0  0  0  0  0  0  0
    9.4520    3.3190   23.4980 C   0  0  0  0  0  0  0  0  0  0  0  0
   10.1720    4.5590   23.6260 C   0  0  0  0  0  0  0  0  0  0  0  0
    9.5140    5.7060   23.1710 C   0  0  0  0  0  0  0  0  0  0  0  0
    8.2380    5.6650   22.6230 C   0  0  0  0  0  0  0  0  0  0  0  0
    7.5530    4.4460   22.5090 C   0  0  0  0  0  0  0  0  0  0  0  0
    8.1490    3.2730   22.9460 C   0  0  0  0  0  0  0  0  0  0  0  0
    6.9240   -5.3110   21.7590 C   0  0  2  0  0  0  0  0  0  0  0  0
    7.3410   -4.4460   22.8020 C   0  0  2  0  0  0  0  0  0  0  0  0
    6.4640   -4.1700   23.8840 C   0  0  0  0  0  0  0  0  0  0  0  0
    5.8360   -5.4270   24.2810 N   0  0  0  0  0  0  0  0  0  0  0  0
    5.0930   -6.1050   23.1940 C   0  0  0  0  0  0  0  0  0  0  0  0
    5.9630   -6.4080   22.1250 C   0  0  0  0  0  0  0  0  0  0  0  0
    4.3480   -3.0650   26.3940 C   0  0  0  0  0  0  0  0  0  0  0  0
    3.3270   -2.0960   26.4910 C   0  0  0  0  0  0  0  0  0  0  0  0
    1.9880   -2.4290   26.1980 C   0  0  0  0  0  0  0  0  0  0  0  0
    1.6310   -3.7160   25.7990 C   0  0  0  0  0  0  0  0  0  0  0  0
    2.6070   -4.7130   25.6880 C   0  0  0  0  0  0  0  0  0  0  0  0
    4.0230   -4.3640   26.0040 C   0  0  0  0  0  0  0  0  0  0  0  0
  2  4  1  0
  1  7  1  0
  3  7  2  0
  4  7  1  1
  1  8  1  0
  5  9  1  0
  6  9  2  0
  8  9  1  6
 10 11  1  0
 13 14  1  0
 13 15  1  0
 13 16  1  0
  2 17  1  1
 19 21  2  0
 20 21  2  0
 24 25  2  0
 23 26  1  0
 25 26  1  0
 22 27  1  0
 26 27  2  0
  8 28  1  0
 27 28  1  0
 24 29  1  0
 28 29  2  0
 30 31  1  0
  1 32  1  0
 31 32  1  0
 32 33  2  0
 13 34  1  0
 30 34  2  0
 33 34  1  0
 10 35  1  0
 35 36  2  0
 36 37  1  0
 37 38  2  0
 12 39  1  0
 38 39  1  0
  5 40  1  0
 35 40  1  0
 39 40  2  0
  2 41  1  0
  4 41  1  0
  4 42  1  0
 41 42  1  0
 42 43  1  1
 21 44  1  0
 43 44  1  0
 44 45  1  0
 41 46  1  1
 45 46  1  0
 47 48  2  0
 18 49  1  0
 48 49  1  0
 49 50  2  0
 50 51  1  0
 21 52  1  0
 47 52  1  0
 51 52  2  0
M  END
