x1308-x1458
     RDKit          3D

 25 27  0  0  0  0  0  0  0  0999 V2000
    7.4010   -3.4840   26.2650 N   0  0  0  0  0  0  0  0  0  0  0  0
    8.9220   -5.3340   26.6860 C   0  0  0  0  0  0  0  0  0  0  0  0
    5.0940   -3.6810   26.1490 N   0  0  0  0  0  0  0  0  0  0  0  0
    7.6750   -4.5740   27.1090 C   0  0  2  0  0  0  0  0  0  0  0  0
    5.3420   -4.8660   19.9860 O   0  0  0  0  0  0  0  0  0  0  0  0
    6.5210   -5.5360   27.3480 C   0  0  0  0  0  0  0  0  0  0  0  0
    7.9480   -2.1870   26.7640 C   0  0  0  0  0  0  0  0  0  0  0  0
    6.2300   -3.2140   25.5290 C   0  0  2  0  0  0  0  0  0  0  0  0
    6.3400   -4.2480   20.3600 C   0  0  0  0  0  0  0  0  0  0  0  0
    7.0570   -3.3360   19.3640 C   0  0  0  0  0  0  0  0  0  0  0  0
    0.5730   -1.1750   26.6360 Cl  0  0  0  0  0  0  0  0  0  0  0  0
    4.4390   -7.0000   26.7750 O   0  0  0  0  0  0  0  0  0  0  0  0
    5.4190   -6.0730   26.2680 S   0  0  0  0  0  0  0  0  0  0  0  0
    6.9020   -4.3800   21.6410 N   0  0  0  0  0  0  0  0  0  0  0  0
    7.5630   -3.3030   22.1200 C   0  0  0  0  0  0  0  0  0  0  0  0
    7.5310   -2.9910   23.6090 C   0  0  0  0  0  0  0  0  0  0  0  0
    6.3660   -3.5110   24.1570 C   0  0  0  0  0  0  0  0  0  0  0  0
    6.3120   -5.0310   23.8880 C   0  0  0  0  0  0  0  0  0  0  0  0
    6.5510   -5.3460   22.5360 C   0  0  0  0  0  0  0  0  0  0  0  0
    3.9760   -3.0940   26.2440 C   0  0  0  0  0  0  0  0  0  0  0  0
    3.2290   -2.0480   26.6560 C   0  0  0  0  0  0  0  0  0  0  0  0
    1.8140   -2.3020   26.2620 C   0  0  0  0  0  0  0  0  0  0  0  0
    1.5300   -3.5160   25.5630 C   0  0  0  0  0  0  0  0  0  0  0  0
    2.5730   -4.5950   25.1810 C   0  0  0  0  0  0  0  0  0  0  0  0
    3.9890   -4.2720   25.6220 C   0  0  0  0  0  0  0  0  0  0  0  0
  1  4  1  0
  4  2  1  6
  4  6  1  0
  1  7  1  0
  8  1  1  1
  3  8  1  0
  5  9  2  0
  9 10  1  0
  6 13  2  0
 12 13  2  0
  9 14  1  0
 14 15  1  0
 15 16  1  0
  8 17  1  0
 16 17  1  0
 17 18  1  0
 14 19  1  0
 18 19  1  0
  3 20  1  0
 20 21  2  0
 11 22  1  0
 21 22  1  0
 22 23  2  0
 23 24  1  0
  3 25  1  0
 20 25  1  0
 24 25  2  0
M  END
