x1308-x3108
     RDKit          3D

 42 45  0  0  0  0  0  0  0  0999 V2000
    5.9140    1.8790   22.0460 C   0  0  0  0  0  0  0  0  0  0  0  0
    9.1600    1.8110   21.3070 O   0  0  0  0  0  0  0  0  0  0  0  0
    7.9730   -0.1900   21.2450 N   0  0  0  0  0  0  0  0  0  0  0  0
    8.4880    0.3880   25.2580 O   0  0  0  0  0  0  0  0  0  0  0  0
    9.3730   -0.9250   23.5120 N   0  0  0  0  0  0  0  0  0  0  0  0
    8.9730    0.6560   21.7490 C   0  0  0  0  0  0  0  0  0  0  0  0
    9.8920    0.1920   22.8150 C   0  0  0  0  0  0  0  0  0  0  0  0
    8.4610   -0.8730   24.6150 C   0  0  0  0  0  0  0  0  0  0  0  0
    7.6090   -2.0370   24.9600 C   0  0  0  0  0  0  0  0  0  0  0  0
    7.2780   -3.5610   20.0740 C   0  0  0  0  0  0  0  0  0  0  0  0
    5.3980   -4.9680   20.0040 O   0  0  0  0  0  0  0  0  0  0  0  0
    0.7800   -1.1370   26.4180 Cl  0  0  0  0  0  0  0  0  0  0  0  0
    6.4380   -4.6680   20.6240 C   0  0  0  0  0  0  0  0  0  0  0  0
    6.2950   -5.3370   26.8280 O   0  0  0  0  0  0  0  0  0  0  0  0
    4.5920   -6.9640   26.1580 O   0  0  0  0  0  0  0  0  0  0  0  0
    5.1800   -5.6130   25.8470 S   0  0  0  0  0  0  0  0  0  0  0  0
    8.3690   -1.5050   20.8110 C   0  0  0  0  0  0  0  0  0  0  0  0
    7.6950   -2.6050   21.2130 C   0  0  0  0  0  0  0  0  0  0  0  0
    6.3110    0.2570   18.0170 N   0  0  0  0  0  0  0  0  0  0  0  0
    7.1050   -0.1220   19.0410 C   0  0  0  0  0  0  0  0  0  0  0  0
    7.0270    0.3540   20.3120 C   0  0  0  0  0  0  0  0  0  0  0  0
    6.0780    1.3050   20.6710 C   0  0  0  0  0  0  0  0  0  0  0  0
    5.2300    1.7310   19.6520 C   0  0  0  0  0  0  0  0  0  0  0  0
    5.3830    1.1700   18.3020 C   0  0  0  0  0  0  0  0  0  0  0  0
    9.9320   -5.0310   24.7160 N   0  0  0  0  0  0  0  0  0  0  0  0
    9.2670   -3.8860   24.4390 C   0  0  0  0  0  0  0  0  0  0  0  0
    8.3450   -3.3060   25.3120 C   0  0  0  0  0  0  0  0  0  0  0  0
    8.1090   -3.9450   26.5350 C   0  0  0  0  0  0  0  0  0  0  0  0
    8.8000   -5.1320   26.8220 C   0  0  0  0  0  0  0  0  0  0  0  0
    9.6760   -5.6240   25.9040 C   0  0  0  0  0  0  0  0  0  0  0  0
    6.7540   -5.3720   21.7720 N   0  0  0  0  0  0  0  0  0  0  0  0
    7.5350   -4.8730   22.8990 C   0  0  0  0  0  0  0  0  0  0  0  0
    6.6680   -4.4370   23.8790 C   0  0  0  0  0  0  0  0  0  0  0  0
    5.7900   -5.5810   24.2460 N   0  0  0  0  0  0  0  0  0  0  0  0
    5.0020   -6.0290   23.2650 C   0  0  0  0  0  0  0  0  0  0  0  0
    5.7950   -6.4170   22.1780 C   0  0  0  0  0  0  0  0  0  0  0  0
    4.2990   -3.0620   26.3810 C   0  0  0  0  0  0  0  0  0  0  0  0
    3.3150   -2.0720   26.5060 C   0  0  0  0  0  0  0  0  0  0  0  0
    1.9690   -2.3620   26.2380 C   0  0  0  0  0  0  0  0  0  0  0  0
    1.5830   -3.6400   25.8320 C   0  0  0  0  0  0  0  0  0  0  0  0
    2.5040   -4.6590   25.6900 C   0  0  0  0  0  0  0  0  0  0  0  0
    3.9630   -4.3630   25.9860 C   0  0  0  0  0  0  0  0  0  0  0  0
  2  6  2  0
  3  6  1  0
  5  7  1  0
  6  7  1  0
  4  8  2  0
  5  8  1  0
  8  9  1  0
 10 13  1  0
 11 13  2  0
 14 16  2  0
 15 16  2  0
  3 17  1  0
 10 18  1  0
 17 18  1  0
 19 20  2  0
  3 21  1  0
 20 21  1  0
  1 22  1  0
 21 22  2  0
 22 23  1  0
 19 24  1  0
 23 24  2  0
 25 26  2  0
  9 27  1  0
 26 27  1  0
 27 28  2  0
 28 29  1  0
 25 30  1  0
 29 30  2  0
 13 31  1  0
 31 32  1  0
 32 33  1  0
 16 34  1  0
 33 34  1  0
 34 35  1  0
 31 36  1  0
 35 36  1  0
 37 38  2  0
 12 39  1  0
 38 39  1  0
 39 40  2  0
 40 41  1  0
 16 42  1  0
 37 42  1  0
 41 42  2  0
M  END
