x1308-x0161
     RDKit          3D

 38 40  0  0  0  0  0  0  0  0999 V2000
    8.0950   -4.0690   20.6060 C   0  0  0  0  0  0  0  0  0  0  0  0
    5.7430   -4.3010   19.8750 O   0  0  0  0  0  0  0  0  0  0  0  0
    0.5510   -1.2810   26.3680 Cl  0  0  0  0  0  0  0  0  0  0  0  0
    6.6560   -4.4560   20.7450 C   0  0  0  0  0  0  0  0  0  0  0  0
    6.3160   -5.3890   27.0000 O   0  0  0  0  0  0  0  0  0  0  0  0
    4.6290   -6.8920   25.9300 O   0  0  0  0  0  0  0  0  0  0  0  0
    5.2400   -5.5900   26.0640 S   0  0  0  0  0  0  0  0  0  0  0  0
   13.2780   -1.8720   24.5510 C   0  0  0  0  0  0  0  0  0  0  0  0
   13.1640   -0.6580   24.4920 O   0  0  0  0  0  0  0  0  0  0  0  0
   12.9820   -0.1900   23.3600 C   0  0  0  0  0  0  0  0  0  0  0  0
   13.3450   -0.7070   22.3180 O   0  0  0  0  0  0  0  0  0  0  0  0
   10.1970    5.1310   23.6730 S   0  0  0  0  0  0  0  0  0  0  0  0
   11.0360    6.1460   23.0760 O   0  0  0  0  0  0  0  0  0  0  0  0
    9.6350    5.3190   24.9890 O   0  0  0  0  0  0  0  0  0  0  0  0
    8.8770    4.9290   22.6640 N   0  0  0  0  0  0  0  0  0  0  0  0
    8.3550   -2.6890   21.2500 C   0  0  0  0  0  0  0  0  0  0  0  0
    9.2590   -2.8220   22.4890 C   0  0  0  0  0  0  0  0  0  0  0  0
   10.5480   -2.0300   22.3950 C   0  0  0  0  0  0  0  0  0  0  0  0
   11.4840   -2.7930   23.0580 C   0  0  0  0  0  0  0  0  0  0  0  0
   11.9540   -2.4810   24.2860 C   0  0  0  0  0  0  0  0  0  0  0  0
    6.4020   -5.0260   21.9700 N   0  0  0  0  0  0  0  0  0  0  0  0
    7.2530   -4.6040   23.0860 C   0  0  0  0  0  0  0  0  0  0  0  0
    6.3880   -4.3090   24.0720 C   0  0  0  0  0  0  0  0  0  0  0  0
    5.7800   -5.5930   24.5360 N   0  0  0  0  0  0  0  0  0  0  0  0
    5.0280   -6.1770   23.5710 C   0  0  0  0  0  0  0  0  0  0  0  0
    5.5960   -6.2230   22.3050 C   0  0  0  0  0  0  0  0  0  0  0  0
    4.3270   -2.7860   26.4950 C   0  0  0  0  0  0  0  0  0  0  0  0
    3.1660   -1.8930   26.5370 C   0  0  0  0  0  0  0  0  0  0  0  0
    1.8800   -2.3650   26.2900 C   0  0  0  0  0  0  0  0  0  0  0  0
    1.6640   -3.7110   25.9830 C   0  0  0  0  0  0  0  0  0  0  0  0
    2.7140   -4.6390   25.9220 C   0  0  0  0  0  0  0  0  0  0  0  0
    4.0050   -4.2480   26.1630 C   0  0  0  0  0  0  0  0  0  0  0  0
   12.2750    1.1210   23.4280 C   0  0  0  0  0  0  0  0  0  0  0  0
   12.8720    2.2560   22.9390 C   0  0  0  0  0  0  0  0  0  0  0  0
   12.2600    3.5000   22.9880 C   0  0  0  0  0  0  0  0  0  0  0  0
   11.0070    3.6110   23.5540 C   0  0  0  0  0  0  0  0  0  0  0  0
   10.3470    2.4760   24.0640 C   0  0  0  0  0  0  0  0  0  0  0  0
   11.0020    1.2200   23.9920 C   0  0  0  0  0  0  0  0  0  0  0  0
  1  4  1  0
  2  4  2  0
  5  7  2  0
  6  7  2  0
  8  9  1  0
  9 10  1  0
 10 11  2  0
 12 13  2  0
 12 14  2  0
 12 15  1  0
  1 16  1  0
 16 17  1  0
 17 18  1  0
 18 19  1  0
  8 20  1  0
 19 20  1  0
  4 21  1  0
 21 22  1  0
 22 23  1  0
  7 24  1  0
 23 24  1  0
 24 25  1  0
 21 26  1  0
 25 26  1  0
 27 28  2  0
  3 29  1  0
 28 29  1  0
 29 30  2  0
 30 31  1  0
  7 32  1  0
 27 32  1  0
 31 32  2  0
 10 33  1  0
 33 34  2  0
 34 35  1  0
 12 36  1  0
 35 36  2  0
 36 37  1  0
 33 38  1  0
 37 38  2  0
M  END
