x1308-x2705-x3117-x2646
     RDKit          3D

 52 58  0  0  0  0  0  0  0  0999 V2000
    6.8690   -1.4370   21.8790 N   0  0  0  0  0  0  0  0  0  0  0  0
    6.7620   -4.5900   20.3330 C   0  0  2  0  0  0  0  0  0  0  0  0
    4.8030   -2.9980   21.2890 O   0  0  0  0  0  0  0  0  0  0  0  0
    6.9220   -3.8500   21.4720 C   0  0  2  0  0  0  0  0  0  0  0  0
    7.4670    1.9900   22.8460 N   0  0  0  0  0  0  0  0  0  0  0  0
    8.8760    0.8140   21.4440 O   0  0  0  0  0  0  0  0  0  0  0  0
    6.0780   -2.6920   21.5450 C   0  0  0  0  0  0  0  0  0  0  0  0
    6.5570    0.0090   21.5980 C   0  0  1  0  0  0  0  0  0  0  0  0
    7.7650    0.9540   21.9490 C   0  0  0  0  0  0  0  0  0  0  0  0
   10.1360    2.0500   23.9470 C   0  0  0  0  0  0  0  0  0  0  0  0
    9.2730    1.2250   24.8980 C   0  0  0  0  0  0  0  0  0  0  0  0
    6.0890    4.5680   21.8720 C   0  0  0  0  0  0  0  0  0  0  0  0
   11.9920   -1.5490   23.2410 C   0  0  0  0  0  0  0  0  0  0  0  0
   12.5650   -0.2540   23.8680 C   0  0  0  0  0  0  0  0  0  0  0  0
   12.4570   -2.7630   24.0450 C   0  0  0  0  0  0  0  0  0  0  0  0
   12.6080   -1.7090   21.9010 C   0  0  0  0  0  0  0  0  0  0  0  0
   13.4040   -2.5410   25.1980 C   0  0  0  0  0  0  0  0  0  0  0  0
    5.5150   -4.5480   19.6690 O   0  0  0  0  0  0  0  0  0  0  0  0
    0.5070   -1.6370   26.1300 Cl  0  0  0  0  0  0  0  0  0  0  0  0
    6.2850   -5.3870   26.9220 O   0  0  0  0  0  0  0  0  0  0  0  0
    4.2960   -6.6760   26.0850 O   0  0  0  0  0  0  0  0  0  0  0  0
    5.1870   -5.5430   25.9910 S   0  0  0  0  0  0  0  0  0  0  0  0
    4.0350    1.4540   21.3350 C   0  0  0  0  0  0  0  0  0  0  0  0
    6.4120    0.4270   17.8600 N   0  0  0  0  0  0  0  0  0  0  0  0
    5.1820    1.1720   17.7930 C   0  0  0  0  0  0  0  0  0  0  0  0
    4.4170    1.4960   18.8870 C   0  0  0  0  0  0  0  0  0  0  0  0
    4.8650    1.0960   20.1420 C   0  0  0  0  0  0  0  0  0  0  0  0
    6.0600    0.3910   20.2470 C   0  0  0  0  0  0  0  0  0  0  0  0
    6.8100    0.0610   19.0860 C   0  0  0  0  0  0  0  0  0  0  0  0
    9.7080   -1.5310   24.2560 N   0  0  0  0  0  0  0  0  0  0  0  0
    8.4030   -1.5120   23.8710 N   0  0  0  0  0  0  0  0  0  0  0  0
    8.1910   -1.4970   22.5310 C   0  0  0  0  0  0  0  0  0  0  0  0
    9.5540   -1.5220   22.0660 C   0  0  0  0  0  0  0  0  0  0  0  0
   10.4540   -1.5350   23.1540 C   0  0  0  0  0  0  0  0  0  0  0  0
    9.4180    3.3000   23.4710 C   0  0  0  0  0  0  0  0  0  0  0  0
   10.1130    4.4900   23.5930 C   0  0  0  0  0  0  0  0  0  0  0  0
    9.5160    5.6620   23.1700 C   0  0  0  0  0  0  0  0  0  0  0  0
    8.2200    5.6570   22.6200 C   0  0  0  0  0  0  0  0  0  0  0  0
    7.4640    4.4540   22.4760 C   0  0  0  0  0  0  0  0  0  0  0  0
    8.1010    3.2730   22.9210 C   0  0  0  0  0  0  0  0  0  0  0  0
    6.6890   -5.1630   21.8260 C   0  0  2  0  0  0  0  0  0  0  0  0
    7.2550   -4.6110   22.8350 C   0  0  2  0  0  0  0  0  0  0  0  0
    6.5420   -4.2550   23.9850 C   0  0  0  0  0  0  0  0  0  0  0  0
    5.8400   -5.4830   24.4200 N   0  0  0  0  0  0  0  0  0  0  0  0
    4.9780   -6.0430   23.3280 C   0  0  0  0  0  0  0  0  0  0  0  0
    5.7420   -6.2610   22.1790 C   0  0  0  0  0  0  0  0  0  0  0  0
    4.4970   -2.8140   26.4280 C   0  0  0  0  0  0  0  0  0  0  0  0
    3.3040   -1.8660   26.4550 C   0  0  0  0  0  0  0  0  0  0  0  0
    1.9660   -2.5550   26.1380 C   0  0  0  0  0  0  0  0  0  0  0  0
    1.9720   -3.9380   25.8570 C   0  0  0  0  0  0  0  0  0  0  0  0
    3.2050   -4.8650   25.8380 C   0  0  0  0  0  0  0  0  0  0  0  0
    4.3050   -4.1550   26.1340 C   0  0  0  0  0  0  0  0  0  0  0  0
  2  4  1  0
  1  7  1  0
  3  7  2  0
  4  7  1  1
  1  8  1  0
  5  9  1  0
  6  9  2  0
  8  9  1  6
 10 11  1  0
 13 14  1  0
 13 15  1  0
 13 16  1  0
 15 17  1  0
  2 18  1  1
 20 22  2  0
 21 22  2  0
 24 25  2  0
 25 26  1  0
 23 27  1  0
 26 27  2  0
  8 28  1  0
 27 28  1  0
 24 29  1  0
 28 29  2  0
 30 31  1  0
  1 32  1  0
 31 32  2  0
 32 33  1  0
 13 34  1  0
 30 34  1  0
 33 34  2  0
 10 35  1  0
 35 36  2  0
 36 37  1  0
 37 38  2  0
 12 39  1  0
 38 39  1  0
  5 40  1  0
 35 40  1  0
 39 40  2  0
  2 41  1  0
  4 41  1  0
  4 42  1  0
 41 42  1  0
 42 43  1  1
 22 44  1  0
 43 44  1  0
 44 45  1  0
 41 46  1  1
 45 46  1  0
 47 48  2  0
 19 49  1  0
 48 49  1  0
 49 50  2  0
 50 51  1  0
 22 52  1  0
 47 52  1  0
 51 52  2  0
M  END
