x1308-x2705-x2572-x0731
     RDKit          3D

 52 58  0  0  0  0  0  0  0  0999 V2000
    6.9020   -1.4070   21.9630 N   0  0  0  0  0  0  0  0  0  0  0  0
    6.8060   -4.5090   20.4070 C   0  0  2  0  0  0  0  0  0  0  0  0
    4.8540   -3.0380   21.2740 O   0  0  0  0  0  0  0  0  0  0  0  0
    7.1510   -3.7030   21.5990 C   0  0  2  0  0  0  0  0  0  0  0  0
    7.5410    2.0200   22.8720 N   0  0  0  0  0  0  0  0  0  0  0  0
    8.6880    1.3130   21.1080 O   0  0  0  0  0  0  0  0  0  0  0  0
    6.1440   -2.6670   21.5880 C   0  0  0  0  0  0  0  0  0  0  0  0
    6.5910    0.0230   21.5490 C   0  0  1  0  0  0  0  0  0  0  0  0
    7.6910    1.1370   21.8290 C   0  0  0  0  0  0  0  0  0  0  0  0
   10.1310    2.0520   24.0000 C   0  0  0  0  0  0  0  0  0  0  0  0
    9.3300    1.1710   24.9530 C   0  0  0  0  0  0  0  0  0  0  0  0
    6.1750    4.5520   21.8670 C   0  0  0  0  0  0  0  0  0  0  0  0
   12.0030   -1.5310   23.3030 C   0  0  0  0  0  0  0  0  0  0  0  0
   12.5310   -0.1860   23.8630 C   0  0  0  0  0  0  0  0  0  0  0  0
   12.4450   -2.6280   24.3120 C   0  0  0  0  0  0  0  0  0  0  0  0
   12.7270   -1.7570   21.9570 C   0  0  0  0  0  0  0  0  0  0  0  0
    5.5230   -4.3840   19.7830 O   0  0  0  0  0  0  0  0  0  0  0  0
    0.6510   -1.1450   26.2840 Cl  0  0  0  0  0  0  0  0  0  0  0  0
    6.3330   -5.1750   26.7430 O   0  0  0  0  0  0  0  0  0  0  0  0
    4.6360   -6.9040   26.0800 O   0  0  0  0  0  0  0  0  0  0  0  0
    5.2590   -5.6140   25.8860 S   0  0  0  0  0  0  0  0  0  0  0  0
    4.1140    1.3820   21.3220 C   0  0  0  0  0  0  0  0  0  0  0  0
   13.3240   -1.9110   20.9680 N   0  0  0  0  0  0  0  0  0  0  0  0
    6.3250    0.2700   17.8620 N   0  0  0  0  0  0  0  0  0  0  0  0
    5.1610    0.9420   17.8260 C   0  0  0  0  0  0  0  0  0  0  0  0
    4.4260    1.3100   18.8660 C   0  0  0  0  0  0  0  0  0  0  0  0
    4.8990    0.9850   20.0990 C   0  0  0  0  0  0  0  0  0  0  0  0
    6.0930    0.3090   20.1760 C   0  0  0  0  0  0  0  0  0  0  0  0
    6.7790   -0.0410   19.0130 C   0  0  0  0  0  0  0  0  0  0  0  0
    9.6740   -1.4360   24.3100 N   0  0  0  0  0  0  0  0  0  0  0  0
    8.3460   -1.4100   23.9460 N   0  0  0  0  0  0  0  0  0  0  0  0
    8.2040   -1.4490   22.6150 C   0  0  0  0  0  0  0  0  0  0  0  0
    9.5060   -1.5110   22.0850 C   0  0  0  0  0  0  0  0  0  0  0  0
   10.4560   -1.4990   23.1620 C   0  0  0  0  0  0  0  0  0  0  0  0
    9.4760    3.3400   23.5260 C   0  0  0  0  0  0  0  0  0  0  0  0
   10.1790    4.6940   23.6410 C   0  0  0  0  0  0  0  0  0  0  0  0
    9.4850    5.8020   23.1680 C   0  0  0  0  0  0  0  0  0  0  0  0
    8.2220    5.7100   22.6160 C   0  0  0  0  0  0  0  0  0  0  0  0
    7.5420    4.4970   22.4920 C   0  0  0  0  0  0  0  0  0  0  0  0
    8.1620    3.3030   22.9510 C   0  0  0  0  0  0  0  0  0  0  0  0
    6.9000   -5.2880   21.7170 C   0  0  2  0  0  0  0  0  0  0  0  0
    7.3160   -4.4920   22.8030 C   0  0  2  0  0  0  0  0  0  0  0  0
    6.4870   -4.2610   23.8880 C   0  0  0  0  0  0  0  0  0  0  0  0
    5.8440   -5.5070   24.2700 N   0  0  0  0  0  0  0  0  0  0  0  0
    5.0580   -6.0660   23.1540 C   0  0  0  0  0  0  0  0  0  0  0  0
    5.9380   -6.3810   22.0950 C   0  0  0  0  0  0  0  0  0  0  0  0
    4.2950   -3.0750   26.3820 C   0  0  0  0  0  0  0  0  0  0  0  0
    3.3070   -2.0800   26.4770 C   0  0  0  0  0  0  0  0  0  0  0  0
    1.8690   -2.3510   26.1650 C   0  0  0  0  0  0  0  0  0  0  0  0
    1.5730   -3.6990   25.7580 C   0  0  0  0  0  0  0  0  0  0  0  0
    2.6650   -4.7140   25.6750 C   0  0  0  0  0  0  0  0  0  0  0  0
    3.9840   -4.3800   25.9870 C   0  0  0  0  0  0  0  0  0  0  0  0
  2  4  1  0
  1  7  1  0
  3  7  2  0
  4  7  1  1
  1  8  1  0
  5  9  1  0
  6  9  2  0
  8  9  1  6
 10 11  1  0
 13 14  1  0
 13 15  1  0
 13 16  1  0
  2 17  1  1
 19 21  2  0
 20 21  2  0
 16 23  3  0
 24 25  2  0
 25 26  1  0
 22 27  1  0
 26 27  2  0
  8 28  1  0
 27 28  1  0
 24 29  1  0
 28 29  2  0
 30 31  1  0
  1 32  1  0
 31 32  2  0
 32 33  1  0
 13 34  1  0
 30 34  1  0
 33 34  2  0
 10 35  1  0
 35 36  2  0
 36 37  1  0
 37 38  2  0
 12 39  1  0
 38 39  1  0
  5 40  1  0
 35 40  1  0
 39 40  2  0
  2 41  1  0
  4 41  1  0
  4 42  1  0
 41 42  1  0
 42 43  1  1
 21 44  1  0
 43 44  1  0
 44 45  1  0
 41 46  1  1
 45 46  1  0
 47 48  2  0
 18 49  1  0
 48 49  1  0
 49 50  2  0
 50 51  1  0
 21 52  1  0
 47 52  1  0
 51 52  2  0
M  END
