x1308-x2705-x2569-x2643
     RDKit          3D

 51 57  0  0  0  0  0  0  0  0999 V2000
    6.8450   -1.4450   22.0270 N   0  0  0  0  0  0  0  0  0  0  0  0
    6.8320   -4.5930   20.4090 C   0  0  2  0  0  0  0  0  0  0  0  0
    4.7530   -3.0110   21.4440 O   0  0  0  0  0  0  0  0  0  0  0  0
    6.9400   -3.7730   21.6600 C   0  0  2  0  0  0  0  0  0  0  0  0
    7.3320    2.0510   22.8470 N   0  0  0  0  0  0  0  0  0  0  0  0
    8.7560    0.8550   21.4800 O   0  0  0  0  0  0  0  0  0  0  0  0
    6.0340   -2.6910   21.7200 C   0  0  0  0  0  0  0  0  0  0  0  0
    6.4740   -0.0390   21.6820 C   0  0  1  0  0  0  0  0  0  0  0  0
    7.6410    0.9870   21.9990 C   0  0  0  0  0  0  0  0  0  0  0  0
   10.0970    2.0390   24.0020 C   0  0  0  0  0  0  0  0  0  0  0  0
    9.2630    1.2180   24.9750 C   0  0  0  0  0  0  0  0  0  0  0  0
    6.1350    4.4890   21.8920 C   0  0  0  0  0  0  0  0  0  0  0  0
   12.0340   -1.5150   23.2420 C   0  0  0  0  0  0  0  0  0  0  0  0
   12.5580   -0.2000   23.8520 C   0  0  0  0  0  0  0  0  0  0  0  0
   12.4930   -2.6210   24.2130 C   0  0  0  0  0  0  0  0  0  0  0  0
   12.7570   -1.7270   21.9060 C   0  0  0  0  0  0  0  0  0  0  0  0
    5.6480   -4.4740   19.6120 O   0  0  0  0  0  0  0  0  0  0  0  0
    0.7090   -1.1800   26.5660 Cl  0  0  0  0  0  0  0  0  0  0  0  0
    6.5510   -4.7830   26.5500 O   0  0  0  0  0  0  0  0  0  0  0  0
    4.9240   -6.5940   25.9500 O   0  0  0  0  0  0  0  0  0  0  0  0
    5.4480   -5.2560   25.7510 S   0  0  0  0  0  0  0  0  0  0  0  0
   13.3770   -1.8430   20.9330 N   0  0  0  0  0  0  0  0  0  0  0  0
    6.3550    0.3350   17.9020 N   0  0  0  0  0  0  0  0  0  0  0  0
    5.2240    1.0430   17.7850 C   0  0  0  0  0  0  0  0  0  0  0  0
    4.3870    1.4420   18.8710 C   0  0  0  0  0  0  0  0  0  0  0  0
    4.8440    1.0340   20.2140 C   0  0  0  0  0  0  0  0  0  0  0  0
    6.0220    0.3140   20.2980 C   0  0  0  0  0  0  0  0  0  0  0  0
    6.7530   -0.0300   19.1480 C   0  0  0  0  0  0  0  0  0  0  0  0
    9.6330   -1.3800   24.2920 N   0  0  0  0  0  0  0  0  0  0  0  0
    8.3120   -1.3700   23.9920 N   0  0  0  0  0  0  0  0  0  0  0  0
    8.1580   -1.4660   22.6570 C   0  0  0  0  0  0  0  0  0  0  0  0
    9.4830   -1.5500   22.1420 C   0  0  0  0  0  0  0  0  0  0  0  0
   10.4960   -1.4960   23.1270 C   0  0  0  0  0  0  0  0  0  0  0  0
    9.4060    3.2930   23.5030 C   0  0  0  0  0  0  0  0  0  0  0  0
   10.0830    4.4990   23.5900 C   0  0  0  0  0  0  0  0  0  0  0  0
    9.5090    5.7050   23.1410 C   0  0  0  0  0  0  0  0  0  0  0  0
    8.2120    5.6510   22.5920 C   0  0  0  0  0  0  0  0  0  0  0  0
    7.5130    4.4440   22.4970 C   0  0  0  0  0  0  0  0  0  0  0  0
    8.0970    3.2630   22.9530 C   0  0  0  0  0  0  0  0  0  0  0  0
    6.6000   -5.3080   21.5850 C   0  0  2  0  0  0  0  0  0  0  0  0
    7.4520   -4.9510   22.5690 C   0  0  2  0  0  0  0  0  0  0  0  0
    6.8930   -4.1270   23.5550 C   0  0  0  0  0  0  0  0  0  0  0  0
    5.7900   -5.0730   24.0720 N   0  0  0  0  0  0  0  0  0  0  0  0
    4.9610   -5.8530   23.0440 C   0  0  0  0  0  0  0  0  0  0  0  0
    5.7260   -6.3750   21.9770 C   0  0  0  0  0  0  0  0  0  0  0  0
    4.3570   -2.9110   26.3960 C   0  0  0  0  0  0  0  0  0  0  0  0
    3.2940   -2.0040   26.5750 C   0  0  0  0  0  0  0  0  0  0  0  0
    1.9560   -2.3360   26.3200 C   0  0  0  0  0  0  0  0  0  0  0  0
    1.6220   -3.7530   25.8180 C   0  0  0  0  0  0  0  0  0  0  0  0
    2.7560   -4.6750   25.6430 C   0  0  0  0  0  0  0  0  0  0  0  0
    4.1660   -4.2080   25.9520 C   0  0  0  0  0  0  0  0  0  0  0  0
  2  4  1  0
  1  7  1  0
  3  7  2  0
  4  7  1  6
  1  8  1  0
  5  9  1  0
  6  9  2  0
  8  9  1  6
 10 11  1  0
 13 14  1  0
 13 15  1  0
 13 16  1  0
  2 17  1  6
 19 21  2  0
 20 21  2  0
 16 22  3  0
 23 24  2  0
 24 25  1  0
 25 26  2  0
  8 27  1  0
 26 27  1  0
 23 28  1  0
 27 28  2  0
 29 30  1  0
  1 31  1  0
 30 31  1  0
 31 32  2  0
 13 33  1  0
 29 33  2  0
 32 33  1  0
 10 34  1  0
 34 35  2  0
 35 36  1  0
 36 37  2  0
 12 38  1  0
 37 38  1  0
  5 39  1  0
 34 39  1  0
 38 39  2  0
  2 40  1  0
  4 40  1  0
  4 41  1  0
 40 41  1  0
 41 42  1  1
 21 43  1  0
 42 43  1  0
 43 44  1  0
 40 45  1  6
 44 45  1  0
 46 47  2  0
 18 48  1  0
 47 48  1  0
 48 49  2  0
 49 50  1  0
 21 51  1  0
 46 51  1  0
 50 51  2  0
M  END
