x1308-x0771-x2705-x0995
     RDKit          3D

 52 58  0  0  0  0  0  0  0  0999 V2000
    6.9270   -1.4540   21.9590 N   0  0  0  0  0  0  0  0  0  0  0  0
    6.8720   -4.5520   20.2690 C   0  0  2  0  0  0  0  0  0  0  0  0
    4.7920   -2.9710   21.2690 O   0  0  0  0  0  0  0  0  0  0  0  0
    7.0380   -3.7850   21.4590 C   0  0  2  0  0  0  0  0  0  0  0  0
    7.3890    1.9120   22.8080 N   0  0  0  0  0  0  0  0  0  0  0  0
    8.7750    0.7410   21.3670 O   0  0  0  0  0  0  0  0  0  0  0  0
    6.0970   -2.6750   21.5480 C   0  0  0  0  0  0  0  0  0  0  0  0
    6.6270   -0.0020   21.6400 C   0  0  1  0  0  0  0  0  0  0  0  0
    7.6790    0.8720   21.9140 C   0  0  0  0  0  0  0  0  0  0  0  0
   10.0880    1.9880   23.9780 C   0  0  0  0  0  0  0  0  0  0  0  0
    9.2340    1.1880   24.9980 C   0  0  0  0  0  0  0  0  0  0  0  0
    6.0970    4.4890   21.8400 C   0  0  0  0  0  0  0  0  0  0  0  0
   12.0400   -1.5480   23.2490 C   0  0  0  0  0  0  0  0  0  0  0  0
   12.5740   -0.1690   23.6860 C   0  0  0  0  0  0  0  0  0  0  0  0
   12.5340   -2.5740   24.2910 C   0  0  0  0  0  0  0  0  0  0  0  0
   12.6680   -1.8840   21.9420 C   0  0  0  0  0  0  0  0  0  0  0  0
    5.6170   -4.2630   19.6830 O   0  0  0  0  0  0  0  0  0  0  0  0
    0.5300   -1.4520   26.2360 C   0  0  0  0  0  0  0  0  0  0  0  0
    4.4090   -7.0990   25.8660 O   0  0  0  0  0  0  0  0  0  0  0  0
    6.0560   -5.3800   26.7610 O   0  0  0  0  0  0  0  0  0  0  0  0
    1.8860   -6.0710   24.9650 C   0  0  0  0  0  0  0  0  0  0  0  0
    5.0870   -5.6670   25.7320 S   0  0  0  0  0  0  0  0  0  0  0  0
    3.2760    2.2280   18.9410 N   0  0  0  0  0  0  0  0  0  0  0  0
    6.3360    0.3370   17.8720 N   0  0  0  0  0  0  0  0  0  0  0  0
    5.2170    1.0580   17.8240 C   0  0  0  0  0  0  0  0  0  0  0  0
    4.5060    1.4460   18.9400 C   0  0  0  0  0  0  0  0  0  0  0  0
    4.9410    1.1010   20.2040 C   0  0  0  0  0  0  0  0  0  0  0  0
    6.1060    0.3610   20.2810 C   0  0  0  0  0  0  0  0  0  0  0  0
    6.7640   -0.0030   19.1030 C   0  0  0  0  0  0  0  0  0  0  0  0
    9.6820   -1.6010   24.2450 N   0  0  0  0  0  0  0  0  0  0  0  0
    8.3630   -1.5820   23.9400 N   0  0  0  0  0  0  0  0  0  0  0  0
    8.2290   -1.5170   22.6040 C   0  0  0  0  0  0  0  0  0  0  0  0
    9.5400   -1.5010   22.1040 C   0  0  0  0  0  0  0  0  0  0  0  0
   10.4990   -1.5510   23.1470 C   0  0  0  0  0  0  0  0  0  0  0  0
    9.3680    3.2240   23.4840 C   0  0  0  0  0  0  0  0  0  0  0  0
   10.0550    4.4460   23.6120 C   0  0  0  0  0  0  0  0  0  0  0  0
    9.4520    5.6140   23.1750 C   0  0  0  0  0  0  0  0  0  0  0  0
    8.1670    5.5800   22.6070 C   0  0  0  0  0  0  0  0  0  0  0  0
    7.4590    4.3800   22.4660 C   0  0  0  0  0  0  0  0  0  0  0  0
    8.0580    3.1850   22.9100 C   0  0  0  0  0  0  0  0  0  0  0  0
    1.6580   -2.4440   26.1110 C   0  0  0  0  0  0  0  0  0  0  0  0
    1.3500   -3.7390   25.6260 C   0  0  0  0  0  0  0  0  0  0  0  0
    2.3240   -4.7240   25.4890 C   0  0  0  0  0  0  0  0  0  0  0  0
    3.8130   -4.4270   25.8730 C   0  0  0  0  0  0  0  0  0  0  0  0
    4.1070   -3.0110   26.3850 C   0  0  0  0  0  0  0  0  0  0  0  0
    2.9440   -2.0500   26.4770 C   0  0  0  0  0  0  0  0  0  0  0  0
    6.9390   -5.1860   21.7340 C   0  0  1  0  0  0  0  0  0  0  0  0
    5.7280   -6.0840   22.0030 C   0  0  0  0  0  0  0  0  0  0  0  0
    4.9200   -5.8410   23.1090 C   0  0  0  0  0  0  0  0  0  0  0  0
    5.8220   -5.5370   24.2190 N   0  0  0  0  0  0  0  0  0  0  0  0
    6.5810   -4.3140   23.9580 C   0  0  0  0  0  0  0  0  0  0  0  0
    7.4240   -4.5030   22.8630 C   0  0  2  0  0  0  0  0  0  0  0  0
  2  4  1  0
  1  7  1  0
  3  7  2  0
  4  7  1  1
  1  8  1  0
  5  9  1  0
  6  9  2  0
  8  9  1  6
 10 11  1  0
 13 14  1  0
 13 15  1  0
 13 16  1  0
  2 17  1  1
 19 22  2  0
 20 22  2  0
 24 25  2  0
 23 26  1  0
 25 26  1  0
 26 27  2  0
  8 28  1  0
 27 28  1  0
 24 29  1  0
 28 29  2  0
 30 31  1  0
  1 32  1  0
 31 32  1  0
 32 33  2  0
 13 34  1  0
 30 34  2  0
 33 34  1  0
 10 35  1  0
 35 36  2  0
 36 37  1  0
 37 38  2  0
 12 39  1  0
 38 39  1  0
  5 40  1  0
 35 40  1  0
 39 40  2  0
 18 41  1  0
 41 42  2  0
 21 43  1  0
 42 43  1  0
 22 44  1  0
 43 44  2  0
 44 45  1  0
 41 46  1  0
 45 46  2  0
  2 47  1  0
  4 47  1  0
 47 48  1  1
 48 49  1  0
 22 50  1  0
 49 50  1  0
 50 51  1  0
  4 52  1  0
 47 52  1  0
 52 51  1  1
M  END
