x1308-x0771-x2705-x0395
     RDKit          3D

 56 63  0  0  0  0  0  0  0  0999 V2000
    7.0520   -1.5050   22.0020 N   0  0  0  0  0  0  0  0  0  0  0  0
    6.8300   -4.6000   20.3730 C   0  0  2  0  0  0  0  0  0  0  0  0
    4.8520   -3.0350   21.2870 O   0  0  0  0  0  0  0  0  0  0  0  0
    7.1550   -3.8260   21.6030 C   0  0  2  0  0  0  0  0  0  0  0  0
    7.3950    1.9070   22.8180 N   0  0  0  0  0  0  0  0  0  0  0  0
    8.8240    0.7830   21.4000 O   0  0  0  0  0  0  0  0  0  0  0  0
    6.1860   -2.7240   21.6110 C   0  0  0  0  0  0  0  0  0  0  0  0
    6.7080   -0.0490   21.6570 C   0  0  1  0  0  0  0  0  0  0  0  0
    7.7230    0.8680   21.9400 C   0  0  0  0  0  0  0  0  0  0  0  0
   10.1230    2.0070   23.9340 C   0  0  0  0  0  0  0  0  0  0  0  0
    9.3620    1.1050   24.9370 C   0  0  0  0  0  0  0  0  0  0  0  0
    6.1120    4.4240   21.9000 C   0  0  0  0  0  0  0  0  0  0  0  0
   12.1340   -1.2560   23.0640 C   0  0  0  0  0  0  0  0  0  0  0  0
   12.5250    0.2050   23.3520 C   0  0  0  0  0  0  0  0  0  0  0  0
   12.7510   -2.1280   24.1870 C   0  0  0  0  0  0  0  0  0  0  0  0
   12.7770   -1.7070   21.8090 C   0  0  0  0  0  0  0  0  0  0  0  0
    5.5730   -4.2460   19.8280 O   0  0  0  0  0  0  0  0  0  0  0  0
    0.8400   -1.0970   26.3840 C   0  0  0  0  0  0  0  0  0  0  0  0
    4.5440   -7.1970   25.9680 O   0  0  0  0  0  0  0  0  0  0  0  0
    5.9420   -5.2150   26.7050 O   0  0  0  0  0  0  0  0  0  0  0  0
    1.4460   -6.0970   24.6720 C   0  0  0  0  0  0  0  0  0  0  0  0
    5.0130   -5.7030   25.7110 S   0  0  0  0  0  0  0  0  0  0  0  0
    9.3560   -5.2090   26.2750 C   0  0  0  0  0  0  0  0  0  0  0  0
    6.3970    0.2920   17.9130 N   0  0  0  0  0  0  0  0  0  0  0  0
    5.1790    1.0910   17.7910 C   0  0  0  0  0  0  0  0  0  0  0  0
    4.5350    1.4320   18.9750 C   0  0  0  0  0  0  0  0  0  0  0  0
    4.9940    1.0690   20.2230 C   0  0  0  0  0  0  0  0  0  0  0  0
    6.1640    0.3220   20.3030 C   0  0  0  0  0  0  0  0  0  0  0  0
    6.8090   -0.0390   19.1400 C   0  0  0  0  0  0  0  0  0  0  0  0
   10.0610   -1.9770   24.1390 N   0  0  0  0  0  0  0  0  0  0  0  0
    8.7510   -2.2100   23.9070 C   0  0  2  0  0  0  0  0  0  0  0  0
    8.3980   -1.6430   22.6360 C   0  0  0  0  0  0  0  0  0  0  0  0
    9.6290   -1.2210   22.0690 C   0  0  0  0  0  0  0  0  0  0  0  0
   10.5950   -1.4880   23.0760 C   0  0  0  0  0  0  0  0  0  0  0  0
    9.3860    3.2400   23.4580 C   0  0  0  0  0  0  0  0  0  0  0  0
   10.0460    4.4890   23.5620 C   0  0  0  0  0  0  0  0  0  0  0  0
    9.4530    5.6760   23.1450 C   0  0  0  0  0  0  0  0  0  0  0  0
    8.1660    5.5950   22.6100 C   0  0  0  0  0  0  0  0  0  0  0  0
    7.4920    4.3600   22.4990 C   0  0  0  0  0  0  0  0  0  0  0  0
    8.0960    3.1470   22.9300 C   0  0  0  0  0  0  0  0  0  0  0  0
    1.7060   -2.2870   26.1410 C   0  0  0  0  0  0  0  0  0  0  0  0
    1.1230   -3.6230   25.5040 C   0  0  0  0  0  0  0  0  0  0  0  0
    2.0300   -4.8540   25.2720 C   0  0  0  0  0  0  0  0  0  0  0  0
    3.4490   -4.7130   25.6740 C   0  0  0  0  0  0  0  0  0  0  0  0
    4.0880   -3.4920   26.2730 C   0  0  0  0  0  0  0  0  0  0  0  0
    3.1950   -2.2930   26.4960 C   0  0  0  0  0  0  0  0  0  0  0  0
    6.7890   -5.4350   21.6220 C   0  0  1  0  0  0  0  0  0  0  0  0
    5.7220   -6.3180   21.8640 C   0  0  0  0  0  0  0  0  0  0  0  0
    4.8760   -6.0310   22.9640 C   0  0  0  0  0  0  0  0  0  0  0  0
    5.6480   -5.5780   24.1520 N   0  0  0  0  0  0  0  0  0  0  0  0
    6.4160   -4.3760   23.8870 C   0  0  0  0  0  0  0  0  0  0  0  0
    7.2420   -4.6410   22.7930 C   0  0  2  0  0  0  0  0  0  0  0  0
    8.8330   -4.0210   25.5270 C   0  0  0  0  0  0  0  0  0  0  0  0
    8.3150   -2.9660   26.0620 N   0  0  0  0  0  0  0  0  0  0  0  0
    7.9540   -2.0570   25.1210 N   0  0  0  0  0  0  0  0  0  0  0  0
    8.8940   -4.0070   23.7990 S   0  0  0  0  0  0  0  0  0  0  0  0
  2  4  1  0
  1  7  1  0
  3  7  2  0
  4  7  1  1
  1  8  1  0
  5  9  1  0
  6  9  2  0
  8  9  1  6
 10 11  1  0
 13 14  1  0
 13 15  1  0
 13 16  1  0
  2 17  1  1
 19 22  2  0
 20 22  2  0
 24 25  2  0
 25 26  1  0
 26 27  2  0
  8 28  1  0
 27 28  1  0
 24 29  1  0
 28 29  2  0
 31 30  1  1
  1 32  1  0
 31 32  1  0
 32 33  2  0
 13 34  1  0
 30 34  2  0
 33 34  1  0
 10 35  1  0
 35 36  2  0
 36 37  1  0
 37 38  2  0
 12 39  1  0
 38 39  1  0
  5 40  1  0
 35 40  1  0
 39 40  2  0
 18 41  1  0
 41 42  2  0
 21 43  1  0
 42 43  1  0
 22 44  1  0
 43 44  2  0
 44 45  1  0
 41 46  1  0
 45 46  2  0
  2 47  1  0
  4 47  1  0
 47 48  1  1
 48 49  1  0
 22 50  1  0
 49 50  1  0
 50 51  1  0
  4 52  1  0
 47 52  1  0
 52 51  1  1
 23 53  1  0
 53 54  2  0
 31 55  1  0
 54 55  1  0
 31 56  1  0
 53 56  1  0
M  END
