x1308-x2705-x2572-x0991
     RDKit          3D

 57 64  0  0  0  0  0  0  0  0999 V2000
    6.9620   -1.4270   21.8870 N   0  0  0  0  0  0  0  0  0  0  0  0
    6.8580   -4.5820   20.3910 C   0  0  2  0  0  0  0  0  0  0  0  0
    4.8280   -3.0040   21.2750 O   0  0  0  0  0  0  0  0  0  0  0  0
    6.9820   -3.8290   21.5950 C   0  0  2  0  0  0  0  0  0  0  0  0
    7.5120    2.0670   22.7730 N   0  0  0  0  0  0  0  0  0  0  0  0
    8.7310    1.2510   21.0320 O   0  0  0  0  0  0  0  0  0  0  0  0
    6.1310   -2.6770   21.5760 C   0  0  0  0  0  0  0  0  0  0  0  0
    6.6170    0.0060   21.5560 C   0  0  1  0  0  0  0  0  0  0  0  0
    7.7410    1.1500   21.7540 C   0  0  0  0  0  0  0  0  0  0  0  0
   10.1390    2.0970   23.8570 C   0  0  0  0  0  0  0  0  0  0  0  0
    9.2650    1.2610   24.7700 C   0  0  0  0  0  0  0  0  0  0  0  0
    6.1260    4.5150   21.8860 C   0  0  0  0  0  0  0  0  0  0  0  0
   12.0790   -1.4880   23.2470 C   0  0  0  0  0  0  0  0  0  0  0  0
   12.6220   -0.1730   23.8340 C   0  0  0  0  0  0  0  0  0  0  0  0
   12.5220   -2.6170   24.1790 C   0  0  0  0  0  0  0  0  0  0  0  0
   12.7900   -1.6980   21.8990 C   0  0  0  0  0  0  0  0  0  0  0  0
    5.6760   -4.3750   19.6220 O   0  0  0  0  0  0  0  0  0  0  0  0
    0.6100   -1.1560   26.2120 Cl  0  0  0  0  0  0  0  0  0  0  0  0
    6.2660   -5.0270   26.9270 O   0  0  0  0  0  0  0  0  0  0  0  0
    4.6050   -6.8240   26.3150 O   0  0  0  0  0  0  0  0  0  0  0  0
    5.2340   -5.5480   26.0550 S   0  0  0  0  0  0  0  0  0  0  0  0
    3.8210    1.4690   21.1880 C   0  0  0  0  0  0  0  0  0  0  0  0
   13.3910   -1.8290   20.9170 N   0  0  0  0  0  0  0  0  0  0  0  0
    9.7470   -6.1090   24.8710 N   0  0  0  0  0  0  0  0  0  0  0  0
    8.9180   -3.4720   23.6620 C   0  0  0  0  0  0  0  0  0  0  0  0
    8.1910   -4.5830   23.9170 C   0  0  2  0  0  0  0  0  0  0  0  0
    7.9300   -5.5270   26.0740 N   0  0  0  0  0  0  0  0  0  0  0  0
    8.6410   -5.4280   24.9370 C   0  0  0  0  0  0  0  0  0  0  0  0
    6.3130    0.3880   17.9080 N   0  0  0  0  0  0  0  0  0  0  0  0
    5.1550    1.0290   17.7790 C   0  0  0  0  0  0  0  0  0  0  0  0
    4.3180    1.3890   18.8060 C   0  0  0  0  0  0  0  0  0  0  0  0
    4.7250    1.0690   20.0690 C   0  0  0  0  0  0  0  0  0  0  0  0
    6.0360    0.3630   20.2310 C   0  0  0  0  0  0  0  0  0  0  0  0
    6.7210    0.0730   19.1240 C   0  0  0  0  0  0  0  0  0  0  0  0
    9.7050   -1.1620   24.1770 N   0  0  0  0  0  0  0  0  0  0  0  0
    8.3630   -1.1440   23.8760 N   0  0  0  0  0  0  0  0  0  0  0  0
    8.2320   -1.4100   22.5610 C   0  0  0  0  0  0  0  0  0  0  0  0
    9.5640   -1.5930   22.1150 C   0  0  0  0  0  0  0  0  0  0  0  0
   10.5420   -1.4350   23.1230 C   0  0  0  0  0  0  0  0  0  0  0  0
    9.4330    3.3720   23.4200 C   0  0  0  0  0  0  0  0  0  0  0  0
   10.1380    4.5750   23.5750 C   0  0  0  0  0  0  0  0  0  0  0  0
    9.5340    5.7760   23.1820 C   0  0  0  0  0  0  0  0  0  0  0  0
    8.2470    5.7150   22.6460 C   0  0  0  0  0  0  0  0  0  0  0  0
    7.5040    4.5430   22.4710 C   0  0  0  0  0  0  0  0  0  0  0  0
    8.1290    3.3570   22.8780 C   0  0  0  0  0  0  0  0  0  0  0  0
    6.6080   -5.3240   21.6690 C   0  0  2  0  0  0  0  0  0  0  0  0
    7.2690   -4.7240   22.7250 C   0  0  2  0  0  0  0  0  0  0  0  0
    6.7200   -4.5250   23.9800 C   0  0  1  0  0  0  0  0  0  0  0  0
    5.7900   -5.5760   24.4420 N   0  0  0  0  0  0  0  0  0  0  0  0
    4.9970   -6.3130   23.4130 C   0  0  0  0  0  0  0  0  0  0  0  0
    5.3270   -5.9730   21.9470 C   0  0  0  0  0  0  0  0  0  0  0  0
    4.2580   -3.0140   26.4320 C   0  0  0  0  0  0  0  0  0  0  0  0
    3.1870   -1.9310   26.4850 C   0  0  0  0  0  0  0  0  0  0  0  0
    1.8800   -2.3120   26.1660 C   0  0  0  0  0  0  0  0  0  0  0  0
    1.5940   -3.7600   25.7800 C   0  0  0  0  0  0  0  0  0  0  0  0
    2.6330   -4.7090   25.7530 C   0  0  0  0  0  0  0  0  0  0  0  0
    3.9490   -4.3300   26.0800 C   0  0  0  0  0  0  0  0  0  0  0  0
  2  4  1  0
  1  7  1  0
  3  7  2  0
  4  7  1  6
  1  8  1  0
  5  9  1  0
  6  9  2  0
  8  9  1  6
 10 11  1  0
 13 14  1  0
 13 15  1  0
 13 16  1  0
  2 17  1  6
 19 21  2  0
 20 21  2  0
 16 23  3  0
 26 25  1  6
 24 28  2  3
 26 28  1  0
 27 28  1  0
 29 30  2  0
 30 31  1  0
 22 32  1  0
 31 32  2  0
  8 33  1  0
 32 33  1  0
 29 34  1  0
 33 34  2  0
 35 36  1  0
  1 37  1  0
 36 37  2  0
 37 38  1  0
 13 39  1  0
 35 39  1  0
 38 39  2  0
 10 40  1  0
 40 41  2  0
 41 42  1  0
 42 43  2  0
 12 44  1  0
 43 44  1  0
  5 45  1  0
 40 45  1  0
 44 45  2  0
  2 46  1  0
  4 46  1  0
  4 47  1  0
 47 26  1  1
 46 47  1  0
 26 48  1  0
 47 48  1  0
 21 49  1  0
 48 49  1  1
 49 50  1  0
 46 51  1  6
 50 51  1  0
 52 53  2  0
 18 54  1  0
 53 54  1  0
 54 55  2  0
 55 56  1  0
 21 57  1  0
 52 57  1  0
 56 57  2  0
M  END
