x1308-x2705-x3117-x2569
     RDKit          3D

 52 58  0  0  0  0  0  0  0  0999 V2000
    6.8830   -1.3780   21.9240 N   0  0  0  0  0  0  0  0  0  0  0  0
    6.8060   -4.5390   20.4140 C   0  0  2  0  0  0  0  0  0  0  0  0
    4.8070   -2.9970   21.2980 O   0  0  0  0  0  0  0  0  0  0  0  0
    7.0300   -3.7130   21.5450 C   0  0  2  0  0  0  0  0  0  0  0  0
    7.4740    2.0350   22.8670 N   0  0  0  0  0  0  0  0  0  0  0  0
    8.6580    1.2000   21.0890 O   0  0  0  0  0  0  0  0  0  0  0  0
    6.1010   -2.6260   21.5820 C   0  0  0  0  0  0  0  0  0  0  0  0
    6.5360    0.0420   21.5810 C   0  0  1  0  0  0  0  0  0  0  0  0
    7.6640    1.1280   21.8300 C   0  0  0  0  0  0  0  0  0  0  0  0
   10.1850    2.0780   23.9610 C   0  0  0  0  0  0  0  0  0  0  0  0
    9.3530    1.2120   24.9050 C   0  0  0  0  0  0  0  0  0  0  0  0
    6.1900    4.4630   21.9310 C   0  0  0  0  0  0  0  0  0  0  0  0
   11.9700   -1.4810   23.2710 C   0  0  2  0  0  0  0  0  0  0  0  0
   12.5280   -0.1700   23.8710 C   0  0  0  0  0  0  0  0  0  0  0  0
   12.4240   -2.7210   24.0840 C   0  0  0  0  0  0  0  0  0  0  0  0
   12.7090   -1.6870   21.9210 C   0  0  0  0  0  0  0  0  0  0  0  0
   13.4030   -2.5640   25.2270 C   0  0  0  0  0  0  0  0  0  0  0  0
    5.5290   -4.4590   19.7760 O   0  0  0  0  0  0  0  0  0  0  0  0
    0.7330   -1.2360   26.4170 Cl  0  0  0  0  0  0  0  0  0  0  0  0
    6.3540   -5.2150   26.8140 O   0  0  0  0  0  0  0  0  0  0  0  0
    4.6440   -6.8760   26.0150 O   0  0  0  0  0  0  0  0  0  0  0  0
    5.3010   -5.5980   25.9010 S   0  0  0  0  0  0  0  0  0  0  0  0
   13.3150   -1.8610   20.9450 N   0  0  0  0  0  0  0  0  0  0  0  0
    6.3350    0.4130   17.9020 N   0  0  0  0  0  0  0  0  0  0  0  0
    5.1710    1.0570   17.7710 C   0  0  0  0  0  0  0  0  0  0  0  0
    4.3260    1.4080   18.8010 C   0  0  0  0  0  0  0  0  0  0  0  0
    4.7240    1.0770   20.0880 C   0  0  0  0  0  0  0  0  0  0  0  0
    5.9450    0.4180   20.2630 C   0  0  0  0  0  0  0  0  0  0  0  0
    6.6990    0.1050   19.1540 C   0  0  0  0  0  0  0  0  0  0  0  0
    9.6960   -1.5190   24.2860 N   0  0  0  0  0  0  0  0  0  0  0  0
    8.3980   -1.4960   23.9110 N   0  0  0  0  0  0  0  0  0  0  0  0
    8.1900   -1.4400   22.5520 C   0  0  0  0  0  0  0  0  0  0  0  0
    9.5340   -1.4350   22.0880 C   0  0  0  0  0  0  0  0  0  0  0  0
   10.4300   -1.4800   23.1660 C   0  0  0  0  0  0  0  0  0  0  0  0
    9.5000    3.3370   23.4900 C   0  0  0  0  0  0  0  0  0  0  0  0
   10.2180    4.5770   23.5970 C   0  0  0  0  0  0  0  0  0  0  0  0
    9.5460    5.7160   23.1410 C   0  0  0  0  0  0  0  0  0  0  0  0
    8.2630    5.6620   22.6140 C   0  0  0  0  0  0  0  0  0  0  0  0
    7.5780    4.4410   22.5200 C   0  0  0  0  0  0  0  0  0  0  0  0
    8.1910    3.2750   22.9610 C   0  0  0  0  0  0  0  0  0  0  0  0
    6.9310   -5.2820   21.7410 C   0  0  2  0  0  0  0  0  0  0  0  0
    7.3370   -4.4090   22.7760 C   0  0  2  0  0  0  0  0  0  0  0  0
    6.5060   -4.1710   23.8980 C   0  0  0  0  0  0  0  0  0  0  0  0
    5.8410   -5.4150   24.2900 N   0  0  0  0  0  0  0  0  0  0  0  0
    5.1170   -6.0900   23.1870 C   0  0  0  0  0  0  0  0  0  0  0  0
    5.9790   -6.3870   22.1100 C   0  0  0  0  0  0  0  0  0  0  0  0
    4.3420   -3.0660   26.4220 C   0  0  0  0  0  0  0  0  0  0  0  0
    3.3060   -2.1060   26.5320 C   0  0  0  0  0  0  0  0  0  0  0  0
    1.9550   -2.4370   26.2500 C   0  0  0  0  0  0  0  0  0  0  0  0
    1.5960   -3.7250   25.8450 C   0  0  0  0  0  0  0  0  0  0  0  0
    2.6050   -4.6700   25.7370 C   0  0  0  0  0  0  0  0  0  0  0  0
    4.0280   -4.3670   26.0300 C   0  0  0  0  0  0  0  0  0  0  0  0
  2  4  1  0
  1  7  1  0
  3  7  2  0
  4  7  1  1
  1  8  1  0
  5  9  1  0
  6  9  2  0
  8  9  1  6
 10 11  1  0
 13 14  1  1
 13 15  1  0
 13 16  1  0
 15 17  1  0
  2 18  1  1
 20 22  2  0
 21 22  2  0
 16 23  3  0
 24 25  2  0
 25 26  1  0
 26 27  2  0
  8 28  1  0
 27 28  1  0
 24 29  1  0
 28 29  2  0
 30 31  1  0
  1 32  1  0
 31 32  1  0
 32 33  2  0
 13 34  1  0
 30 34  2  0
 33 34  1  0
 10 35  1  0
 35 36  2  0
 36 37  1  0
 37 38  2  0
 12 39  1  0
 38 39  1  0
  5 40  1  0
 35 40  1  0
 39 40  2  0
  2 41  1  0
  4 41  1  0
  4 42  1  0
 41 42  1  0
 42 43  1  1
 22 44  1  0
 43 44  1  0
 44 45  1  0
 41 46  1  1
 45 46  1  0
 47 48  2  0
 19 49  1  0
 48 49  1  0
 49 50  2  0
 50 51  1  0
 22 52  1  0
 47 52  1  0
 51 52  2  0
M  END
