x1308-x2600-x2705-x2649
     RDKit          3D

 52 58  0  0  0  0  0  0  0  0999 V2000
    6.8490   -1.4740   21.9510 N   0  0  0  0  0  0  0  0  0  0  0  0
    6.8250   -4.5860   20.3770 C   0  0  2  0  0  0  0  0  0  0  0  0
    4.7840   -3.0250   21.4010 O   0  0  0  0  0  0  0  0  0  0  0  0
    6.9490   -3.7960   21.5350 C   0  0  2  0  0  0  0  0  0  0  0  0
    7.4960    2.0710   22.9820 N   0  0  0  0  0  0  0  0  0  0  0  0
    8.6920    1.2260   21.0150 O   0  0  0  0  0  0  0  0  0  0  0  0
    6.0650   -2.7020   21.6450 C   0  0  0  0  0  0  0  0  0  0  0  0
    6.4780   -0.0750   21.6130 C   0  0  1  0  0  0  0  0  0  0  0  0
    7.5790    1.0690   21.9060 C   0  0  0  0  0  0  0  0  0  0  0  0
   10.1690    2.1180   24.0240 C   0  0  0  0  0  0  0  0  0  0  0  0
    9.2890    1.2920   24.9550 C   0  0  0  0  0  0  0  0  0  0  0  0
    6.1760    4.6370   21.9670 C   0  0  0  0  0  0  0  0  0  0  0  0
   11.9690   -1.5300   23.2460 C   0  0  0  0  0  0  0  0  0  0  0  0
   12.4840   -0.2070   23.8620 C   0  0  0  0  0  0  0  0  0  0  0  0
   12.4400   -2.6480   24.2000 C   0  0  0  0  0  0  0  0  0  0  0  0
   12.6890   -1.7180   21.9690 C   0  0  0  0  0  0  0  0  0  0  0  0
    5.5760   -4.6120   19.6850 O   0  0  0  0  0  0  0  0  0  0  0  0
    0.7180   -1.1470   26.3170 Cl  0  0  0  0  0  0  0  0  0  0  0  0
    6.4970   -4.9860   26.7790 O   0  0  0  0  0  0  0  0  0  0  0  0
    4.8570   -6.7510   26.0970 O   0  0  0  0  0  0  0  0  0  0  0  0
    5.4550   -5.4530   25.9040 S   0  0  0  0  0  0  0  0  0  0  0  0
    3.7240    1.5420   21.4460 C   0  0  0  0  0  0  0  0  0  0  0  0
   13.3340   -1.8310   21.0060 N   0  0  0  0  0  0  0  0  0  0  0  0
    6.4570    0.2780   17.8660 N   0  0  0  0  0  0  0  0  0  0  0  0
    5.3380    0.9660   17.8030 C   0  0  0  0  0  0  0  0  0  0  0  0
    4.5140    1.3480   18.8300 C   0  0  0  0  0  0  0  0  0  0  0  0
    4.6260    1.1120   20.3370 C   0  0  0  0  0  0  0  0  0  0  0  0
    5.9290    0.3420   20.2870 C   0  0  0  0  0  0  0  0  0  0  0  0
    6.7850   -0.0500   19.0780 C   0  0  0  0  0  0  0  0  0  0  0  0
    9.6220   -1.4040   24.1980 N   0  0  0  0  0  0  0  0  0  0  0  0
    8.3080   -1.3940   23.9320 N   0  0  0  0  0  0  0  0  0  0  0  0
    8.1740   -1.4980   22.6030 C   0  0  0  0  0  0  0  0  0  0  0  0
    9.4900   -1.5860   22.0570 C   0  0  0  0  0  0  0  0  0  0  0  0
   10.4230   -1.5150   23.1080 C   0  0  0  0  0  0  0  0  0  0  0  0
    9.4590    3.3630   23.5360 C   0  0  0  0  0  0  0  0  0  0  0  0
   10.1470    4.5640   23.6090 C   0  0  0  0  0  0  0  0  0  0  0  0
    9.5430    5.7570   23.1590 C   0  0  0  0  0  0  0  0  0  0  0  0
    8.2610    5.7380   22.6370 C   0  0  0  0  0  0  0  0  0  0  0  0
    7.5580    4.5390   22.5580 C   0  0  0  0  0  0  0  0  0  0  0  0
    8.1440    3.3370   23.0130 C   0  0  0  0  0  0  0  0  0  0  0  0
    6.8320   -5.3520   21.6430 C   0  0  2  0  0  0  0  0  0  0  0  0
    7.6120   -4.6070   22.5920 C   0  0  2  0  0  0  0  0  0  0  0  0
    7.2230   -4.5890   23.9560 C   0  0  0  0  0  0  0  0  0  0  0  0
    6.0010   -5.3670   24.2830 N   0  0  0  0  0  0  0  0  0  0  0  0
    5.0390   -5.5830   23.1900 C   0  0  0  0  0  0  0  0  0  0  0  0
    5.7050   -6.1920   22.1200 C   0  0  0  0  0  0  0  0  0  0  0  0
    4.3310   -2.9590   26.3970 C   0  0  0  0  0  0  0  0  0  0  0  0
    3.2830   -2.0130   26.4860 C   0  0  0  0  0  0  0  0  0  0  0  0
    1.9530   -2.3370   26.1840 C   0  0  0  0  0  0  0  0  0  0  0  0
    1.6000   -3.7280   25.7430 C   0  0  0  0  0  0  0  0  0  0  0  0
    2.7000   -4.7700   25.6360 C   0  0  0  0  0  0  0  0  0  0  0  0
    4.1000   -4.2900   25.9960 C   0  0  0  0  0  0  0  0  0  0  0  0
  2  4  1  0
  1  7  1  0
  3  7  2  0
  4  7  1  1
  1  8  1  0
  5  9  1  0
  6  9  2  0
  8  9  1  6
 10 11  1  0
 13 14  1  0
 13 15  1  0
 13 16  1  0
  2 17  1  1
 19 21  2  0
 20 21  2  0
 16 23  3  0
 24 25  2  0
 25 26  1  0
 22 27  1  0
 26 27  2  0
  8 28  1  0
 27 28  1  0
 24 29  1  0
 28 29  2  0
 30 31  1  0
  1 32  1  0
 31 32  2  0
 32 33  1  0
 13 34  1  0
 30 34  1  0
 33 34  2  0
 10 35  1  0
 35 36  2  0
 36 37  1  0
 37 38  2  0
 12 39  1  0
 38 39  1  0
  5 40  1  0
 35 40  1  0
 39 40  2  0
  2 41  1  0
  4 41  1  0
  4 42  1  0
 41 42  1  0
 42 43  1  1
 21 44  1  0
 43 44  1  0
 44 45  1  0
 41 46  1  1
 45 46  1  0
 47 48  2  0
 18 49  1  0
 48 49  1  0
 49 50  2  0
 50 51  1  0
 21 52  1  0
 47 52  1  0
 51 52  2  0
M  END
