x1308-x0771
     RDKit          3D

 20 21  0  0  0  0  0  0  0  0999 V2000
    0.7250   -1.2670   26.1760 C   0  0  0  0  0  0  0  0  0  0  0  0
    4.5320   -6.9180   25.8020 O   0  0  0  0  0  0  0  0  0  0  0  0
    5.9940   -5.1250   26.7840 O   0  0  0  0  0  0  0  0  0  0  0  0
    5.2920   -4.5210   19.8970 O   0  0  0  0  0  0  0  0  0  0  0  0
    2.0380   -6.1830   24.9150 C   0  0  0  0  0  0  0  0  0  0  0  0
    6.3950   -4.2480   20.4160 C   0  0  0  0  0  0  0  0  0  0  0  0
    7.2870   -3.2910   19.7070 C   0  0  0  0  0  0  0  0  0  0  0  0
    5.0590   -5.5730   25.7830 S   0  0  0  0  0  0  0  0  0  0  0  0
    1.7370   -2.3650   26.0410 C   0  0  0  0  0  0  0  0  0  0  0  0
    1.3340   -3.7430   25.5210 C   0  0  0  0  0  0  0  0  0  0  0  0
    2.4080   -4.8160   25.4190 C   0  0  0  0  0  0  0  0  0  0  0  0
    3.6950   -4.4200   25.8240 C   0  0  0  0  0  0  0  0  0  0  0  0
    4.0300   -3.1560   26.2860 C   0  0  0  0  0  0  0  0  0  0  0  0
    3.0600   -2.1620   26.3860 C   0  0  0  0  0  0  0  0  0  0  0  0
    6.7230   -4.8930   21.6410 N   0  0  0  0  0  0  0  0  0  0  0  0
    6.0460   -6.1070   22.0100 C   0  0  0  0  0  0  0  0  0  0  0  0
    5.1840   -6.1290   23.1080 C   0  0  0  0  0  0  0  0  0  0  0  0
    5.7710   -5.3680   24.2450 N   0  0  0  0  0  0  0  0  0  0  0  0
    6.1790   -3.9850   23.8320 C   0  0  0  0  0  0  0  0  0  0  0  0
    7.2130   -4.1090   22.7840 C   0  0  0  0  0  0  0  0  0  0  0  0
  4  6  2  0
  6  7  1  0
  2  8  2  0
  3  8  2  0
  1  9  1  0
  9 10  2  0
  5 11  1  0
 10 11  1  0
  8 12  1  0
 11 12  2  0
 12 13  1  0
  9 14  1  0
 13 14  2  0
  6 15  1  0
 15 16  1  0
 16 17  1  0
  8 18  1  0
 17 18  1  0
 18 19  1  0
 15 20  1  0
 19 20  1  0
M  END
