x1308-x2703
     RDKit          3D

 50 56  0  0  0  0  0  0  0  0999 V2000
    6.8100   -1.5090   21.8670 N   0  0  0  0  0  0  0  0  0  0  0  0
    6.7900   -4.6440   20.3200 C   0  0  2  0  0  0  0  0  0  0  0  0
    4.7680   -2.9850   21.3080 O   0  0  0  0  0  0  0  0  0  0  0  0
    6.9530   -3.7940   21.5010 C   0  0  2  0  0  0  0  0  0  0  0  0
    7.2580    1.8830   22.8070 N   0  0  0  0  0  0  0  0  0  0  0  0
    8.7350    0.7220   21.4510 O   0  0  0  0  0  0  0  0  0  0  0  0
    6.0230   -2.7100   21.5500 C   0  0  0  0  0  0  0  0  0  0  0  0
    6.4620   -0.0840   21.5640 C   0  0  1  0  0  0  0  0  0  0  0  0
    7.6070    0.8460   21.9240 C   0  0  0  0  0  0  0  0  0  0  0  0
    9.8720    1.9220   24.0680 C   0  0  0  0  0  0  0  0  0  0  0  0
    9.1140    1.1400   25.1330 C   0  0  0  0  0  0  0  0  0  0  0  0
    6.0580    4.3160   21.7150 C   0  0  0  0  0  0  0  0  0  0  0  0
   11.9410   -1.6580   24.4800 C   0  0  0  0  0  0  0  0  0  0  0  0
   12.5800   -2.8700   24.6880 C   0  0  0  0  0  0  0  0  0  0  0  0
   12.9150   -0.7450   23.7490 C   0  0  0  0  0  0  0  0  0  0  0  0
    5.5130   -4.6200   19.6930 O   0  0  0  0  0  0  0  0  0  0  0  0
    0.7320   -1.2150   26.5040 Cl  0  0  0  0  0  0  0  0  0  0  0  0
    6.4380   -5.2050   26.9710 O   0  0  0  0  0  0  0  0  0  0  0  0
    4.7700   -6.8850   26.2770 O   0  0  0  0  0  0  0  0  0  0  0  0
    5.3400   -5.5220   25.9840 S   0  0  0  0  0  0  0  0  0  0  0  0
    6.2850    0.4580   17.8720 N   0  0  0  0  0  0  0  0  0  0  0  0
    5.1290    1.1470   17.7940 C   0  0  0  0  0  0  0  0  0  0  0  0
    4.3120    1.4710   18.8540 C   0  0  0  0  0  0  0  0  0  0  0  0
    4.6980    1.0640   20.1880 C   0  0  0  0  0  0  0  0  0  0  0  0
    5.9550    0.3350   20.2550 C   0  0  0  0  0  0  0  0  0  0  0  0
    6.6790    0.0640   19.0940 C   0  0  0  0  0  0  0  0  0  0  0  0
   10.6040   -2.0070   22.4530 N   0  0  0  0  0  0  0  0  0  0  0  0
   10.6650   -1.6630   23.7570 C   0  0  0  0  0  0  0  0  0  0  0  0
    9.4940   -1.3040   24.4060 C   0  0  0  0  0  0  0  0  0  0  0  0
    8.2670   -1.2600   23.8430 C   0  0  0  0  0  0  0  0  0  0  0  0
    8.1080   -1.5790   22.5150 C   0  0  0  0  0  0  0  0  0  0  0  0
    9.3340   -1.9420   21.9130 C   0  0  0  0  0  0  0  0  0  0  0  0
    9.2820    3.1770   23.5140 C   0  0  0  0  0  0  0  0  0  0  0  0
   10.0060    4.3910   23.6110 C   0  0  0  0  0  0  0  0  0  0  0  0
    9.4200    5.5370   23.0870 C   0  0  0  0  0  0  0  0  0  0  0  0
    8.1790    5.4480   22.5040 C   0  0  0  0  0  0  0  0  0  0  0  0
    7.4210    4.2950   22.3780 C   0  0  0  0  0  0  0  0  0  0  0  0
    7.9940    3.1150   22.9020 C   0  0  0  0  0  0  0  0  0  0  0  0
    6.8700   -5.2490   21.6880 C   0  0  2  0  0  0  0  0  0  0  0  0
    7.6120   -4.6520   22.7530 C   0  0  2  0  0  0  0  0  0  0  0  0
    7.0530   -4.5140   24.1780 C   0  0  0  0  0  0  0  0  0  0  0  0
    5.9240   -5.4050   24.4130 N   0  0  0  0  0  0  0  0  0  0  0  0
    4.9520   -5.4640   23.3320 C   0  0  0  0  0  0  0  0  0  0  0  0
    5.6480   -6.0440   22.1030 C   0  0  0  0  0  0  0  0  0  0  0  0
    4.3030   -3.0210   26.4940 C   0  0  0  0  0  0  0  0  0  0  0  0
    3.3170   -2.0620   26.6150 C   0  0  0  0  0  0  0  0  0  0  0  0
    1.9420   -2.4270   26.3250 C   0  0  0  0  0  0  0  0  0  0  0  0
    1.5180   -3.6970   25.9150 C   0  0  0  0  0  0  0  0  0  0  0  0
    2.6150   -4.6840   25.8020 C   0  0  0  0  0  0  0  0  0  0  0  0
    4.0420   -4.3070   26.1120 C   0  0  0  0  0  0  0  0  0  0  0  0
  2  4  1  0
  1  7  1  0
  3  7  2  0
  4  7  1  1
  1  8  1  0
  5  9  1  0
  6  9  2  0
  8  9  1  6
 10 11  1  0
 13 14  1  0
 13 15  1  0
  2 16  1  1
 18 20  2  0
 19 20  2  0
 21 22  2  0
 22 23  1  0
 23 24  2  0
  8 25  1  0
 24 25  1  0
 21 26  1  0
 25 26  2  0
 13 28  1  0
 27 28  2  0
 28 29  1  0
 29 30  2  0
  1 31  1  0
 30 31  1  0
 27 32  1  0
 31 32  2  0
 10 33  1  0
 33 34  2  0
 34 35  1  0
 35 36  2  0
 12 37  1  0
 36 37  1  0
  5 38  1  0
 33 38  1  0
 37 38  2  0
  2 39  1  0
  4 39  1  0
  4 40  1  0
 39 40  1  0
 40 41  1  1
 20 42  1  0
 41 42  1  0
 42 43  1  0
 39 44  1  1
 43 44  1  0
 45 46  2  0
 17 47  1  0
 46 47  1  0
 47 48  2  0
 48 49  1  0
 20 50  1  0
 45 50  1  0
 49 50  2  0
M  END
