x1308-x0434
     RDKit          3D

 36 39  0  0  0  0  0  0  0  0999 V2000
    7.5290   -3.6020   20.2960 C   0  0  0  0  0  0  0  0  0  0  0  0
    5.5610   -4.9500   20.0250 O   0  0  0  0  0  0  0  0  0  0  0  0
    0.7160   -1.3200   26.3440 Cl  0  0  0  0  0  0  0  0  0  0  0  0
    6.5940   -4.6830   20.6970 C   0  0  0  0  0  0  0  0  0  0  0  0
    6.3570   -5.2050   27.0050 O   0  0  0  0  0  0  0  0  0  0  0  0
    4.4060   -6.5870   26.2400 O   0  0  0  0  0  0  0  0  0  0  0  0
    5.2950   -5.4610   26.0600 S   0  0  0  0  0  0  0  0  0  0  0  0
    8.4550    0.4360   21.2080 O   0  0  0  0  0  0  0  0  0  0  0  0
    8.1720   -0.7430   21.4350 C   0  0  0  0  0  0  0  0  0  0  0  0
    9.1170   -1.3230   22.3970 N   0  0  0  0  0  0  0  0  0  0  0  0
    6.9830   -1.0840   20.6350 N   0  0  0  0  0  0  0  0  0  0  0  0
    6.6830   -2.3460   20.0290 C   0  0  0  0  0  0  0  0  0  0  0  0
    6.9100   -5.3760   21.8560 N   0  0  0  0  0  0  0  0  0  0  0  0
    7.7260   -4.8170   22.9390 C   0  0  0  0  0  0  0  0  0  0  0  0
    7.0290   -4.4690   24.2340 C   0  0  0  0  0  0  0  0  0  0  0  0
    5.9110   -5.4020   24.5080 N   0  0  0  0  0  0  0  0  0  0  0  0
    5.1800   -5.8490   23.4610 C   0  0  0  0  0  0  0  0  0  0  0  0
    5.8730   -6.2960   22.3250 C   0  0  0  0  0  0  0  0  0  0  0  0
    4.3090   -2.9860   26.4810 C   0  0  0  0  0  0  0  0  0  0  0  0
    3.2470   -2.0830   26.5330 C   0  0  0  0  0  0  0  0  0  0  0  0
    1.9830   -2.4780   26.2440 C   0  0  0  0  0  0  0  0  0  0  0  0
    1.6700   -3.7990   25.8720 C   0  0  0  0  0  0  0  0  0  0  0  0
    2.6930   -4.7420   25.8040 C   0  0  0  0  0  0  0  0  0  0  0  0
    4.0600   -4.3100   26.1270 C   0  0  0  0  0  0  0  0  0  0  0  0
   10.5570    0.4500   23.4640 C   0  0  0  0  0  0  0  0  0  0  0  0
   11.8480    0.9160   23.6440 C   0  0  0  0  0  0  0  0  0  0  0  0
   12.9830    0.3170   23.1260 C   0  0  0  0  0  0  0  0  0  0  0  0
   12.8700   -0.8430   22.3700 C   0  0  0  0  0  0  0  0  0  0  0  0
   11.6180   -1.3400   22.1630 C   0  0  0  0  0  0  0  0  0  0  0  0
   10.4160   -0.8290   22.6170 C   0  0  0  0  0  0  0  0  0  0  0  0
    5.1470    0.5190   20.1750 C   0  0  0  0  0  0  0  0  0  0  0  0
    4.6120    1.3820   19.2400 C   0  0  0  0  0  0  0  0  0  0  0  0
    5.2080    1.5750   18.0140 C   0  0  0  0  0  0  0  0  0  0  0  0
    6.3450    0.9440   17.6490 N   0  0  0  0  0  0  0  0  0  0  0  0
    6.8510    0.1030   18.5720 C   0  0  0  0  0  0  0  0  0  0  0  0
    6.3180   -0.1540   19.8240 C   0  0  0  0  0  0  0  0  0  0  0  0
  1  4  1  0
  2  4  2  0
  5  7  2  0
  6  7  2  0
  8  9  2  0
  9 10  1  0
  9 11  1  0
  1 12  1  0
 11 12  1  0
  4 13  1  0
 13 14  1  0
 14 15  1  0
  7 16  1  0
 15 16  1  0
 16 17  1  0
 13 18  1  0
 17 18  1  0
 19 20  2  0
  3 21  1  0
 20 21  1  0
 21 22  2  0
 22 23  1  0
  7 24  1  0
 19 24  1  0
 23 24  2  0
 25 26  2  0
 26 27  1  0
 27 28  2  0
 28 29  1  0
 10 30  1  0
 25 30  1  0
 29 30  2  0
 31 32  2  0
 32 33  1  0
 33 34  2  0
 34 35  1  0
 11 36  1  0
 31 36  1  0
 35 36  2  0
M  END
