x1308-x0771-x2705-x2643
     RDKit          3D

 51 57  0  0  0  0  0  0  0  0999 V2000
    6.9000   -1.4200   21.9900 N   0  0  0  0  0  0  0  0  0  0  0  0
    6.8460   -4.5030   20.2730 C   0  0  2  0  0  0  0  0  0  0  0  0
    4.8020   -2.9880   21.2950 O   0  0  0  0  0  0  0  0  0  0  0  0
    7.0230   -3.7020   21.4510 C   0  0  2  0  0  0  0  0  0  0  0  0
    7.5090    2.0310   22.8470 N   0  0  0  0  0  0  0  0  0  0  0  0
    8.7190    1.2660   21.0660 O   0  0  0  0  0  0  0  0  0  0  0  0
    6.0910   -2.6370   21.5700 C   0  0  0  0  0  0  0  0  0  0  0  0
    6.6010    0.0220   21.5910 C   0  0  1  0  0  0  0  0  0  0  0  0
    7.7350    1.1500   21.8010 C   0  0  0  0  0  0  0  0  0  0  0  0
   10.1360    2.0960   23.9910 C   0  0  0  0  0  0  0  0  0  0  0  0
    9.2820    1.2600   24.9270 C   0  0  0  0  0  0  0  0  0  0  0  0
    6.1750    4.6250   21.8920 C   0  0  0  0  0  0  0  0  0  0  0  0
   11.9320   -1.5460   23.2320 C   0  0  0  0  0  0  0  0  0  0  0  0
   12.4640   -0.1520   23.6310 C   0  0  0  0  0  0  0  0  0  0  0  0
   12.4430   -2.5570   24.2700 C   0  0  0  0  0  0  0  0  0  0  0  0
   12.5670   -1.9040   21.8690 C   0  0  0  0  0  0  0  0  0  0  0  0
    5.5710   -4.4230   19.6430 O   0  0  0  0  0  0  0  0  0  0  0  0
    0.6920   -1.4570   26.1910 C   0  0  0  0  0  0  0  0  0  0  0  0
    4.4570   -6.9620   25.8400 O   0  0  0  0  0  0  0  0  0  0  0  0
    6.0420   -5.2360   26.7590 O   0  0  0  0  0  0  0  0  0  0  0  0
    1.9840   -6.0880   24.9850 C   0  0  0  0  0  0  0  0  0  0  0  0
    5.0550   -5.6450   25.7860 S   0  0  0  0  0  0  0  0  0  0  0  0
    6.2930    0.3100   17.8400 N   0  0  0  0  0  0  0  0  0  0  0  0
    5.1510    1.0040   17.7960 C   0  0  0  0  0  0  0  0  0  0  0  0
    4.4250    1.3830   18.8950 C   0  0  0  0  0  0  0  0  0  0  0  0
    4.8880    1.0480   20.1510 C   0  0  0  0  0  0  0  0  0  0  0  0
    6.0770    0.3400   20.2310 C   0  0  0  0  0  0  0  0  0  0  0  0
    6.7370   -0.0110   19.0620 C   0  0  0  0  0  0  0  0  0  0  0  0
    9.6640   -1.5320   24.2970 N   0  0  0  0  0  0  0  0  0  0  0  0
    8.3410   -1.5080   24.0150 N   0  0  0  0  0  0  0  0  0  0  0  0
    8.1950   -1.4830   22.6650 C   0  0  0  0  0  0  0  0  0  0  0  0
    9.4460   -1.5010   22.0780 C   0  0  0  0  0  0  0  0  0  0  0  0
   10.3630   -1.5290   23.2310 C   0  0  0  0  0  0  0  0  0  0  0  0
    9.4310    3.3520   23.5210 C   0  0  0  0  0  0  0  0  0  0  0  0
   10.1090    4.5850   23.6610 C   0  0  0  0  0  0  0  0  0  0  0  0
    9.5140    5.7670   23.2410 C   0  0  0  0  0  0  0  0  0  0  0  0
    8.2400    5.7330   22.6730 C   0  0  0  0  0  0  0  0  0  0  0  0
    7.5400    4.5150   22.5230 C   0  0  0  0  0  0  0  0  0  0  0  0
    8.1330    3.3060   22.9520 C   0  0  0  0  0  0  0  0  0  0  0  0
    1.7570   -2.4930   26.0690 C   0  0  0  0  0  0  0  0  0  0  0  0
    1.4280   -3.7570   25.6010 C   0  0  0  0  0  0  0  0  0  0  0  0
    2.4170   -4.7400   25.4960 C   0  0  0  0  0  0  0  0  0  0  0  0
    3.7350   -4.4410   25.8660 C   0  0  0  0  0  0  0  0  0  0  0  0
    4.0550   -3.1620   26.3270 C   0  0  0  0  0  0  0  0  0  0  0  0
    3.0630   -2.1870   26.4270 C   0  0  0  0  0  0  0  0  0  0  0  0
    6.9080   -5.1820   21.6040 C   0  0  1  0  0  0  0  0  0  0  0  0
    5.7200   -6.1060   21.8800 C   0  0  0  0  0  0  0  0  0  0  0  0
    4.8440   -5.7640   23.0770 C   0  0  0  0  0  0  0  0  0  0  0  0
    5.6910   -5.4560   24.2300 N   0  0  0  0  0  0  0  0  0  0  0  0
    6.4860   -4.2580   23.9840 C   0  0  0  0  0  0  0  0  0  0  0  0
    7.3960   -4.5050   22.7780 C   0  0  2  0  0  0  0  0  0  0  0  0
  2  4  1  0
  1  7  1  0
  3  7  2  0
  4  7  1  1
  1  8  1  0
  5  9  1  0
  6  9  2  0
  8  9  1  6
 10 11  1  0
 13 14  1  0
 13 15  1  0
 13 16  1  0
  2 17  1  1
 19 22  2  0
 20 22  2  0
 23 24  2  0
 24 25  1  0
 25 26  2  0
  8 27  1  0
 26 27  1  0
 23 28  1  0
 27 28  2  0
 29 30  1  0
  1 31  1  0
 30 31  2  0
 31 32  1  0
 13 33  1  0
 29 33  1  0
 32 33  2  0
 10 34  1  0
 34 35  2  0
 35 36  1  0
 36 37  2  0
 12 38  1  0
 37 38  1  0
  5 39  1  0
 34 39  1  0
 38 39  2  0
 18 40  1  0
 40 41  2  0
 21 42  1  0
 41 42  1  0
 22 43  1  0
 42 43  2  0
 43 44  1  0
 40 45  1  0
 44 45  2  0
  2 46  1  0
  4 46  1  0
 46 47  1  1
 47 48  1  0
 22 49  1  0
 48 49  1  0
 49 50  1  0
  4 51  1  0
 46 51  1  0
 51 50  1  1
M  END
