x1308-x2705-x3117-x2912
     RDKit          3D

 53 59  0  0  0  0  0  0  0  0999 V2000
    6.8690   -1.4260   22.0370 N   0  0  0  0  0  0  0  0  0  0  0  0
    6.7010   -4.5200   20.3120 C   0  0  2  0  0  0  0  0  0  0  0  0
    4.7530   -2.9680   21.3680 O   0  0  0  0  0  0  0  0  0  0  0  0
    6.9110   -3.7420   21.5080 C   0  0  2  0  0  0  0  0  0  0  0  0
    7.5080    2.0370   22.8410 N   0  0  0  0  0  0  0  0  0  0  0  0
    8.7160    1.2500   21.0670 O   0  0  0  0  0  0  0  0  0  0  0  0
    6.0380   -2.6400   21.6420 C   0  0  0  0  0  0  0  0  0  0  0  0
    6.5960    0.0120   21.6180 C   0  0  1  0  0  0  0  0  0  0  0  0
    7.7330    1.1430   21.8060 C   0  0  0  0  0  0  0  0  0  0  0  0
   10.1390    2.1030   23.9660 C   0  0  0  0  0  0  0  0  0  0  0  0
    9.2860    1.2570   24.8930 C   0  0  0  0  0  0  0  0  0  0  0  0
    6.1730    4.6320   21.8900 C   0  0  0  0  0  0  0  0  0  0  0  0
   11.9300   -1.5320   23.2770 C   0  0  2  0  0  0  0  0  0  0  0  0
   12.4650   -0.2230   23.8980 C   0  0  0  0  0  0  0  0  0  0  0  0
   12.3780   -2.7200   24.1170 C   0  0  0  0  0  0  0  0  0  0  0  0
   12.6490   -1.7070   21.9210 C   0  0  0  0  0  0  0  0  0  0  0  0
   13.3840   -2.4690   25.2100 C   0  0  0  0  0  0  0  0  0  0  0  0
    5.4810   -4.3360   19.6090 O   0  0  0  0  0  0  0  0  0  0  0  0
    0.5440   -1.1300   26.3330 Cl  0  0  0  0  0  0  0  0  0  0  0  0
    6.1240   -5.1760   26.7580 O   0  0  0  0  0  0  0  0  0  0  0  0
    4.5520   -6.8670   25.8040 O   0  0  0  0  0  0  0  0  0  0  0  0
    5.1230   -5.5390   25.7870 S   0  0  0  0  0  0  0  0  0  0  0  0
   13.2820   -1.8500   20.9530 N   0  0  0  0  0  0  0  0  0  0  0  0
    4.1330    1.4540   21.3640 C   0  0  0  0  0  0  0  0  0  0  0  0
    6.2940    0.3310   17.7760 N   0  0  0  0  0  0  0  0  0  0  0  0
    5.1590    1.0270   17.7730 C   0  0  0  0  0  0  0  0  0  0  0  0
    4.4570    1.3850   18.8970 C   0  0  0  0  0  0  0  0  0  0  0  0
    4.9200    1.0360   20.1580 C   0  0  0  0  0  0  0  0  0  0  0  0
    6.0990    0.3240   20.2510 C   0  0  0  0  0  0  0  0  0  0  0  0
    6.7700   -0.0310   19.0990 C   0  0  0  0  0  0  0  0  0  0  0  0
    9.6930   -1.4890   24.3990 N   0  0  0  0  0  0  0  0  0  0  0  0
    8.4020   -1.4690   24.0360 N   0  0  0  0  0  0  0  0  0  0  0  0
    8.1740   -1.4750   22.6750 C   0  0  0  0  0  0  0  0  0  0  0  0
    9.4260   -1.5100   22.1080 C   0  0  0  0  0  0  0  0  0  0  0  0
   10.3680   -1.5120   23.2580 C   0  0  0  0  0  0  0  0  0  0  0  0
    9.4320    3.3580   23.5040 C   0  0  0  0  0  0  0  0  0  0  0  0
   10.1120    4.5900   23.6450 C   0  0  0  0  0  0  0  0  0  0  0  0
    9.5160    5.7730   23.2290 C   0  0  0  0  0  0  0  0  0  0  0  0
    8.2410    5.7400   22.6680 C   0  0  0  0  0  0  0  0  0  0  0  0
    7.5370    4.5200   22.5170 C   0  0  0  0  0  0  0  0  0  0  0  0
    8.1330    3.3130   22.9430 C   0  0  0  0  0  0  0  0  0  0  0  0
    6.5920   -5.2120   21.6150 C   0  0  2  0  0  0  0  0  0  0  0  0
    7.3990   -4.6140   22.6030 C   0  0  2  0  0  0  0  0  0  0  0  0
    7.1390   -4.8240   23.9610 C   0  0  0  0  0  0  0  0  0  0  0  0
    5.7100   -5.2130   24.2110 N   0  0  0  0  0  0  0  0  0  0  0  0
    4.9700   -5.8560   23.0570 C   0  0  0  0  0  0  0  0  0  0  0  0
    5.8470   -6.3560   22.0830 C   0  0  0  0  0  0  0  0  0  0  0  0
    4.3260   -3.0660   26.3680 C   0  0  0  0  0  0  0  0  0  0  0  0
    3.2510   -1.9780   26.5100 C   0  0  0  0  0  0  0  0  0  0  0  0
    1.7840   -2.3090   26.1850 C   0  0  0  0  0  0  0  0  0  0  0  0
    1.4810   -3.7380   25.7270 C   0  0  0  0  0  0  0  0  0  0  0  0
    2.5300   -4.6420   25.6340 C   0  0  0  0  0  0  0  0  0  0  0  0
    3.9740   -4.3470   25.9480 C   0  0  0  0  0  0  0  0  0  0  0  0
  2  4  1  0
  1  7  1  0
  3  7  2  0
  4  7  1  1
  1  8  1  0
  5  9  1  0
  6  9  2  0
  8  9  1  6
 10 11  1  0
 13 14  1  1
 13 15  1  0
 13 16  1  0
 15 17  1  0
  2 18  1  1
 20 22  2  0
 21 22  2  0
 16 23  3  0
 25 26  2  0
 26 27  1  0
 24 28  1  0
 27 28  2  0
  8 29  1  0
 28 29  1  0
 25 30  1  0
 29 30  2  0
 31 32  1  0
  1 33  1  0
 32 33  1  0
 33 34  2  0
 13 35  1  0
 31 35  2  0
 34 35  1  0
 10 36  1  0
 36 37  2  0
 37 38  1  0
 38 39  2  0
 12 40  1  0
 39 40  1  0
  5 41  1  0
 36 41  1  0
 40 41  2  0
  2 42  1  0
  4 42  1  0
  4 43  1  0
 42 43  1  0
 43 44  1  1
 22 45  1  0
 44 45  1  0
 45 46  1  0
 42 47  1  1
 46 47  1  0
 48 49  2  0
 19 50  1  0
 49 50  1  0
 50 51  2  0
 51 52  1  0
 22 53  1  0
 48 53  1  0
 52 53  2  0
M  END
