x1308-x2705-x2776-x2572
     RDKit          3D

 55 61  0  0  0  0  0  0  0  0999 V2000
    7.0740   -1.4510   21.7410 N   0  0  0  0  0  0  0  0  0  0  0  0
    6.7860   -4.3210   20.3810 C   0  0  2  0  0  0  0  0  0  0  0  0
    5.0250   -3.3970   21.3970 O   0  0  0  0  0  0  0  0  0  0  0  0
    6.9210   -3.4140   21.4970 C   0  0  2  0  0  0  0  0  0  0  0  0
    7.5390    2.1190   22.7490 N   0  0  0  0  0  0  0  0  0  0  0  0
    8.8310    1.2760   21.1520 O   0  0  0  0  0  0  0  0  0  0  0  0
    5.8710   -2.3720   21.5690 C   0  0  0  0  0  0  0  0  0  0  0  0
    6.7370   -0.0000   21.5090 C   0  0  1  0  0  0  0  0  0  0  0  0
    7.7740    1.1440   21.8040 C   0  0  0  0  0  0  0  0  0  0  0  0
   10.2590    1.9360   23.9350 C   0  0  0  0  0  0  0  0  0  0  0  0
    9.3870    1.1340   24.8880 C   0  0  0  0  0  0  0  0  0  0  0  0
    6.4130    4.6240   21.9840 C   0  0  0  0  0  0  0  0  0  0  0  0
   12.0060   -1.5490   23.3100 C   0  0  2  0  0  0  0  0  0  0  0  0
   12.4780   -0.2430   23.9790 C   0  0  0  0  0  0  0  0  0  0  0  0
   12.4750   -2.7650   24.1210 C   0  0  0  0  0  0  0  0  0  0  0  0
   12.7150   -1.6680   22.0120 C   0  0  0  0  0  0  0  0  0  0  0  0
   13.4370   -2.5600   25.2710 C   0  0  0  0  0  0  0  0  0  0  0  0
   10.4910    6.8200   23.6220 O   0  0  0  0  0  0  0  0  0  0  0  0
   11.6480    6.7570   24.4710 C   0  0  0  0  0  0  0  0  0  0  0  0
    5.5640   -4.3180   19.6420 O   0  0  0  0  0  0  0  0  0  0  0  0
    0.5760   -1.0350   26.2760 Cl  0  0  0  0  0  0  0  0  0  0  0  0
    6.2220   -5.1400   26.8340 O   0  0  0  0  0  0  0  0  0  0  0  0
    4.5280   -6.9970   25.9390 O   0  0  0  0  0  0  0  0  0  0  0  0
    5.2480   -5.5370   25.8500 S   0  0  0  0  0  0  0  0  0  0  0  0
    4.1170    1.4670   21.3740 C   0  0  0  0  0  0  0  0  0  0  0  0
   13.3330   -1.7880   21.0290 N   0  0  0  0  0  0  0  0  0  0  0  0
    6.3160    0.4600   17.7760 N   0  0  0  0  0  0  0  0  0  0  0  0
    5.1680    1.1370   17.7660 C   0  0  0  0  0  0  0  0  0  0  0  0
    4.4630    1.4530   18.9170 C   0  0  0  0  0  0  0  0  0  0  0  0
    4.9160    1.0950   20.1600 C   0  0  0  0  0  0  0  0  0  0  0  0
    6.1360    0.3950   20.2070 C   0  0  0  0  0  0  0  0  0  0  0  0
    6.7670    0.1040   19.0260 C   0  0  0  0  0  0  0  0  0  0  0  0
    9.6310   -1.6900   24.3090 N   0  0  0  0  0  0  0  0  0  0  0  0
    8.3350   -1.6760   23.8980 N   0  0  0  0  0  0  0  0  0  0  0  0
    8.3010   -1.5450   22.5310 C   0  0  0  0  0  0  0  0  0  0  0  0
    9.6690   -1.4770   22.0310 C   0  0  0  0  0  0  0  0  0  0  0  0
   10.4780   -1.5670   23.1540 C   0  0  0  0  0  0  0  0  0  0  0  0
    9.6000    3.2300   23.5310 C   0  0  0  0  0  0  0  0  0  0  0  0
   10.3350    4.3870   23.7510 C   0  0  0  0  0  0  0  0  0  0  0  0
    9.8200    5.6400   23.4180 C   0  0  0  0  0  0  0  0  0  0  0  0
    8.5260    5.6910   22.8330 C   0  0  0  0  0  0  0  0  0  0  0  0
    7.7850    4.5030   22.6110 C   0  0  0  0  0  0  0  0  0  0  0  0
    8.3090    3.2980   22.9600 C   0  0  0  0  0  0  0  0  0  0  0  0
    6.8250   -5.0150   21.7190 C   0  0  2  0  0  0  0  0  0  0  0  0
    7.2560   -4.1760   22.7100 C   0  0  2  0  0  0  0  0  0  0  0  0
    6.5130   -4.0570   23.9630 C   0  0  0  0  0  0  0  0  0  0  0  0
    5.8970   -5.3700   24.2900 N   0  0  0  0  0  0  0  0  0  0  0  0
    5.0920   -5.9290   23.1720 C   0  0  0  0  0  0  0  0  0  0  0  0
    5.8810   -6.1600   22.0400 C   0  0  0  0  0  0  0  0  0  0  0  0
    4.3060   -3.0190   26.3470 C   0  0  0  0  0  0  0  0  0  0  0  0
    3.2320   -1.9790   26.4480 C   0  0  0  0  0  0  0  0  0  0  0  0
    1.7610   -2.2680   26.1360 C   0  0  0  0  0  0  0  0  0  0  0  0
    1.3790   -3.6870   25.6960 C   0  0  0  0  0  0  0  0  0  0  0  0
    2.5500   -4.6630   25.6290 C   0  0  0  0  0  0  0  0  0  0  0  0
    3.9840   -4.3130   25.9560 C   0  0  0  0  0  0  0  0  0  0  0  0
  2  4  1  0
  1  7  1  0
  3  7  2  0
  4  7  1  1
  1  8  1  0
  5  9  1  0
  6  9  2  0
  8  9  1  6
 10 11  1  0
 13 14  1  1
 13 15  1  0
 13 16  1  0
 15 17  1  0
 18 19  1  0
  2 20  1  1
 22 24  2  0
 23 24  2  0
 16 26  3  0
 27 28  2  0
 28 29  1  0
 25 30  1  0
 29 30  2  0
  8 31  1  0
 30 31  1  0
 27 32  1  0
 31 32  2  0
 33 34  1  0
  1 35  1  0
 34 35  2  0
 35 36  1  0
 13 37  1  0
 33 37  1  0
 36 37  2  0
 10 38  1  0
 38 39  2  0
 18 40  1  0
 39 40  1  0
 40 41  2  0
 12 42  1  0
 41 42  1  0
  5 43  1  0
 38 43  1  0
 42 43  2  0
  2 44  1  0
  4 44  1  0
  4 45  1  0
 44 45  1  0
 45 46  1  1
 24 47  1  0
 46 47  1  0
 47 48  1  0
 44 49  1  1
 48 49  1  0
 50 51  2  0
 21 52  1  0
 51 52  1  0
 52 53  2  0
 53 54  1  0
 24 55  1  0
 50 55  1  0
 54 55  2  0
M  END
