x1308-x2643
     RDKit          3D

 36 39  0  0  0  0  0  0  0  0999 V2000
    7.7530   -3.5820   20.2450 C   0  0  0  0  0  0  0  0  0  0  0  0
    5.6070   -4.6260   19.9710 O   0  0  0  0  0  0  0  0  0  0  0  0
    0.6910   -1.1770   26.4070 Cl  0  0  0  0  0  0  0  0  0  0  0  0
    6.6650   -4.5300   20.6700 C   0  0  0  0  0  0  0  0  0  0  0  0
    6.4050   -5.1220   26.8730 O   0  0  0  0  0  0  0  0  0  0  0  0
    4.8370   -6.7670   25.8230 O   0  0  0  0  0  0  0  0  0  0  0  0
    5.3590   -5.4230   25.9250 S   0  0  0  0  0  0  0  0  0  0  0  0
    6.7350   -1.1750   20.5510 N   0  0  0  0  0  0  0  0  0  0  0  0
    8.3340    0.4420   21.1940 O   0  0  0  0  0  0  0  0  0  0  0  0
   13.4230    0.2720   22.9860 Cl  0  0  0  0  0  0  0  0  0  0  0  0
    8.2120   -1.4040   22.6200 C   0  0  0  0  0  0  0  0  0  0  0  0
    7.7850   -0.6470   21.4240 C   0  0  0  0  0  0  0  0  0  0  0  0
    7.1080   -2.2960   19.6840 C   0  0  0  0  0  0  0  0  0  0  0  0
    6.8220   -5.3060   21.8240 N   0  0  0  0  0  0  0  0  0  0  0  0
    7.7180   -4.7710   22.8530 C   0  0  0  0  0  0  0  0  0  0  0  0
    6.8870   -4.3480   24.0610 C   0  0  0  0  0  0  0  0  0  0  0  0
    5.9460   -5.4200   24.4040 N   0  0  0  0  0  0  0  0  0  0  0  0
    5.0840   -5.9610   23.3430 C   0  0  0  0  0  0  0  0  0  0  0  0
    5.8270   -6.2140   22.2090 C   0  0  0  0  0  0  0  0  0  0  0  0
    4.3340   -2.9610   26.4230 C   0  0  0  0  0  0  0  0  0  0  0  0
    3.3100   -2.0780   26.5160 C   0  0  0  0  0  0  0  0  0  0  0  0
    1.9630   -2.3850   26.2440 C   0  0  0  0  0  0  0  0  0  0  0  0
    1.6610   -3.6860   25.8410 C   0  0  0  0  0  0  0  0  0  0  0  0
    2.7140   -4.7070   25.7140 C   0  0  0  0  0  0  0  0  0  0  0  0
    4.0770   -4.2730   26.0320 C   0  0  0  0  0  0  0  0  0  0  0  0
   11.7930    0.0600   23.2040 C   0  0  0  0  0  0  0  0  0  0  0  0
   10.9140    0.7220   24.0280 C   0  0  0  0  0  0  0  0  0  0  0  0
    9.6240    0.2560   23.8940 C   0  0  0  0  0  0  0  0  0  0  0  0
    9.4900   -0.7540   22.9780 C   0  0  0  0  0  0  0  0  0  0  0  0
   10.9710   -1.2160   22.2280 S   0  0  0  0  0  0  0  0  0  0  0  0
    6.3230    0.9570   17.6300 N   0  0  0  0  0  0  0  0  0  0  0  0
    6.7440    0.0900   18.5620 C   0  0  0  0  0  0  0  0  0  0  0  0
    6.1090   -0.2080   19.7340 C   0  0  0  0  0  0  0  0  0  0  0  0
    4.9120    0.4320   20.0280 C   0  0  0  0  0  0  0  0  0  0  0  0
    4.4210    1.3500   19.0980 C   0  0  0  0  0  0  0  0  0  0  0  0
    5.1630    1.5630   17.9340 C   0  0  0  0  0  0  0  0  0  0  0  0
  1  4  1  0
  2  4  2  0
  5  7  2  0
  6  7  2  0
  8 12  1  0
  9 12  2  0
 11 12  1  0
  1 13  1  0
  8 13  1  0
  4 14  1  0
 14 15  1  0
 15 16  1  0
  7 17  1  0
 16 17  1  0
 17 18  1  0
 14 19  1  0
 18 19  1  0
 20 21  2  0
  3 22  1  0
 21 22  1  0
 22 23  2  0
 23 24  1  0
  7 25  1  0
 20 25  1  0
 24 25  2  0
 10 26  1  0
 26 27  2  0
 27 28  1  0
 11 29  1  0
 28 29  2  0
 26 30  1  0
 29 30  1  0
 31 32  2  0
  8 33  1  0
 32 33  1  0
 33 34  2  0
 34 35  1  0
 31 36  1  0
 35 36  2  0
M  END
