x1308-x0771-x2705-x0991
     RDKit          3D

 56 63  0  0  0  0  0  0  0  0999 V2000
    6.9030   -1.3970   21.8850 N   0  0  0  0  0  0  0  0  0  0  0  0
    6.8410   -4.5300   20.3690 C   0  0  2  0  0  0  0  0  0  0  0  0
    4.8020   -2.9730   21.2700 O   0  0  0  0  0  0  0  0  0  0  0  0
    6.9550   -3.7540   21.5750 C   0  0  2  0  0  0  0  0  0  0  0  0
    7.3260    2.0710   22.8180 N   0  0  0  0  0  0  0  0  0  0  0  0
    8.7720    0.9130   21.4390 O   0  0  0  0  0  0  0  0  0  0  0  0
    6.0940   -2.6370   21.5640 C   0  0  0  0  0  0  0  0  0  0  0  0
    6.5030    0.0020   21.5700 C   0  0  1  0  0  0  0  0  0  0  0  0
    7.6500    1.0270   21.9460 C   0  0  0  0  0  0  0  0  0  0  0  0
   10.0800    2.0600   24.0070 C   0  0  0  0  0  0  0  0  0  0  0  0
    9.1990    1.3600   25.0320 C   0  0  0  0  0  0  0  0  0  0  0  0
    6.1290    4.5050   21.8690 C   0  0  0  0  0  0  0  0  0  0  0  0
   12.0400   -1.5140   23.2300 C   0  0  0  0  0  0  0  0  0  0  0  0
   12.6060   -0.1770   23.7530 C   0  0  0  0  0  0  0  0  0  0  0  0
   12.4700   -2.5780   24.2640 C   0  0  0  0  0  0  0  0  0  0  0  0
   12.7260   -1.8380   21.8940 C   0  0  0  0  0  0  0  0  0  0  0  0
    5.6770   -4.3220   19.5630 O   0  0  0  0  0  0  0  0  0  0  0  0
    0.6440   -1.4010   26.0540 C   0  0  0  0  0  0  0  0  0  0  0  0
    4.4780   -6.9790   26.0580 O   0  0  0  0  0  0  0  0  0  0  0  0
    6.0980   -5.2380   26.8550 O   0  0  0  0  0  0  0  0  0  0  0  0
    1.8910   -6.0970   24.9580 C   0  0  0  0  0  0  0  0  0  0  0  0
    5.1140   -5.6930   25.8990 S   0  0  0  0  0  0  0  0  0  0  0  0
    9.7530   -6.0400   24.5900 N   0  0  0  0  0  0  0  0  0  0  0  0
    8.8420   -3.2560   24.0120 C   0  0  0  0  0  0  0  0  0  0  0  0
    8.1700   -4.4310   23.9810 C   0  0  1  0  0  0  0  0  0  0  0  0
    7.9700   -5.6850   25.9680 N   0  0  0  0  0  0  0  0  0  0  0  0
    8.6750   -5.4250   24.8350 C   0  0  0  0  0  0  0  0  0  0  0  0
    6.3170    0.4110   17.8370 N   0  0  0  0  0  0  0  0  0  0  0  0
    5.2120    1.1540   17.7470 C   0  0  0  0  0  0  0  0  0  0  0  0
    4.4640    1.5370   18.8080 C   0  0  0  0  0  0  0  0  0  0  0  0
    4.9170    1.1250   20.0270 C   0  0  0  0  0  0  0  0  0  0  0  0
    6.0890    0.3480   20.1830 C   0  0  0  0  0  0  0  0  0  0  0  0
    6.7980   -0.0220   19.0420 C   0  0  0  0  0  0  0  0  0  0  0  0
    9.6990   -1.0520   24.1480 N   0  0  0  0  0  0  0  0  0  0  0  0
    8.3670   -1.0110   23.8500 N   0  0  0  0  0  0  0  0  0  0  0  0
    8.1990   -1.3550   22.5580 C   0  0  0  0  0  0  0  0  0  0  0  0
    9.5310   -1.6060   22.1130 C   0  0  0  0  0  0  0  0  0  0  0  0
   10.5090   -1.4150   23.1080 C   0  0  0  0  0  0  0  0  0  0  0  0
    9.3870    3.2990   23.5030 C   0  0  0  0  0  0  0  0  0  0  0  0
   10.0910    4.5240   23.6080 C   0  0  0  0  0  0  0  0  0  0  0  0
    9.4930    5.7220   23.1460 C   0  0  0  0  0  0  0  0  0  0  0  0
    8.2090    5.7000   22.5840 C   0  0  0  0  0  0  0  0  0  0  0  0
    7.5090    4.4850   22.4790 C   0  0  0  0  0  0  0  0  0  0  0  0
    8.0860    3.2800   22.9380 C   0  0  0  0  0  0  0  0  0  0  0  0
    1.7220   -2.4310   25.9970 C   0  0  0  0  0  0  0  0  0  0  0  0
    1.4150   -3.7240   25.5390 C   0  0  0  0  0  0  0  0  0  0  0  0
    2.3540   -4.7540   25.4620 C   0  0  0  0  0  0  0  0  0  0  0  0
    3.8070   -4.4700   25.9030 C   0  0  0  0  0  0  0  0  0  0  0  0
    4.1570   -3.1160   26.3770 C   0  0  0  0  0  0  0  0  0  0  0  0
    3.0110   -2.1170   26.3940 C   0  0  0  0  0  0  0  0  0  0  0  0
    6.5600   -5.2560   21.6380 C   0  0  1  0  0  0  0  0  0  0  0  0
    5.2530   -5.8700   21.9890 C   0  0  0  0  0  0  0  0  0  0  0  0
    5.1020   -6.4100   23.2840 C   0  0  0  0  0  0  0  0  0  0  0  0
    5.8640   -5.6920   24.3570 N   0  0  0  0  0  0  0  0  0  0  0  0
    6.7000   -4.5470   23.9360 C   0  0  2  0  0  0  0  0  0  0  0  0
    7.3410   -4.6140   22.6890 C   0  0  0  0  0  0  0  0  0  0  0  0
  2  4  1  0
  1  7  1  0
  3  7  2  0
  4  7  1  6
  1  8  1  0
  5  9  1  0
  6  9  2  0
  8  9  1  6
 10 11  1  0
 13 14  1  0
 13 15  1  0
 13 16  1  0
  2 17  1  6
 19 22  2  0
 20 22  2  0
 25 24  1  6
 23 27  2  3
 25 27  1  0
 26 27  1  0
 28 29  2  0
 29 30  1  0
 30 31  2  0
  8 32  1  0
 31 32  1  0
 28 33  1  0
 32 33  2  0
 34 35  1  0
  1 36  1  0
 35 36  1  0
 36 37  2  0
 13 38  1  0
 34 38  2  0
 37 38  1  0
 10 39  1  0
 39 40  2  0
 40 41  1  0
 41 42  2  0
 12 43  1  0
 42 43  1  0
  5 44  1  0
 39 44  1  0
 43 44  2  0
 18 45  1  0
 45 46  2  0
 21 47  1  0
 46 47  1  0
 22 48  1  0
 47 48  2  0
 48 49  1  0
 45 50  1  0
 49 50  2  0
  2 51  1  0
  4 51  1  0
 51 52  1  6
 52 53  1  0
 22 54  1  0
 53 54  1  0
 25 55  1  0
 55 54  1  1
  4 56  1  0
 25 56  1  0
 51 56  1  0
 55 56  1  0
M  END
