x1308-x2705-x2572-x0995
     RDKit          3D

 53 59  0  0  0  0  0  0  0  0999 V2000
    6.9410   -1.4230   21.9250 N   0  0  0  0  0  0  0  0  0  0  0  0
    6.8110   -4.5670   20.4240 C   0  0  2  0  0  0  0  0  0  0  0  0
    4.8250   -3.0120   21.2930 O   0  0  0  0  0  0  0  0  0  0  0  0
    7.0450   -3.7430   21.5540 C   0  0  2  0  0  0  0  0  0  0  0  0
    7.4860    2.0130   22.8570 N   0  0  0  0  0  0  0  0  0  0  0  0
    8.7430    1.1770   21.1200 O   0  0  0  0  0  0  0  0  0  0  0  0
    6.1290   -2.6530   21.5840 C   0  0  0  0  0  0  0  0  0  0  0  0
    6.6290   -0.0060   21.5730 C   0  0  1  0  0  0  0  0  0  0  0  0
    7.7320    1.0960   21.8370 C   0  0  0  0  0  0  0  0  0  0  0  0
   10.1550    2.0840   23.9910 C   0  0  0  0  0  0  0  0  0  0  0  0
    9.3340    1.2210   24.9480 C   0  0  0  0  0  0  0  0  0  0  0  0
    6.1710    4.4280   21.9090 C   0  0  0  0  0  0  0  0  0  0  0  0
   12.0220   -1.5300   23.3190 C   0  0  0  0  0  0  0  0  0  0  0  0
   12.5480   -0.1700   23.8290 C   0  0  0  0  0  0  0  0  0  0  0  0
   12.5050   -2.6550   24.2850 C   0  0  0  0  0  0  0  0  0  0  0  0
   12.7480   -1.7800   21.9690 C   0  0  0  0  0  0  0  0  0  0  0  0
    5.5310   -4.4910   19.7960 O   0  0  0  0  0  0  0  0  0  0  0  0
    0.7320   -1.2220   26.2420 Cl  0  0  0  0  0  0  0  0  0  0  0  0
    6.3410   -5.1630   26.8170 O   0  0  0  0  0  0  0  0  0  0  0  0
    4.6430   -6.8620   26.0840 O   0  0  0  0  0  0  0  0  0  0  0  0
    5.2940   -5.5870   25.9130 S   0  0  0  0  0  0  0  0  0  0  0  0
    4.0900    1.4990   21.4000 C   0  0  0  0  0  0  0  0  0  0  0  0
   13.3310   -1.9420   20.9770 N   0  0  0  0  0  0  0  0  0  0  0  0
    3.2370    2.2030   18.8480 N   0  0  0  0  0  0  0  0  0  0  0  0
    6.2810    0.3670   17.8810 N   0  0  0  0  0  0  0  0  0  0  0  0
    5.1440    1.0800   17.8500 C   0  0  0  0  0  0  0  0  0  0  0  0
    4.4050    1.4630   18.9550 C   0  0  0  0  0  0  0  0  0  0  0  0
    4.8690    1.0930   20.1890 C   0  0  0  0  0  0  0  0  0  0  0  0
    6.0420    0.3750   20.2670 C   0  0  0  0  0  0  0  0  0  0  0  0
    6.7020    0.0310   19.1080 C   0  0  0  0  0  0  0  0  0  0  0  0
    9.7370   -1.5400   24.3200 N   0  0  0  0  0  0  0  0  0  0  0  0
    8.4320   -1.5170   23.9330 N   0  0  0  0  0  0  0  0  0  0  0  0
    8.2390   -1.4850   22.5740 C   0  0  0  0  0  0  0  0  0  0  0  0
    9.5880   -1.4990   22.1180 C   0  0  0  0  0  0  0  0  0  0  0  0
   10.4780   -1.5260   23.2020 C   0  0  0  0  0  0  0  0  0  0  0  0
    9.4680    3.3410   23.5190 C   0  0  0  0  0  0  0  0  0  0  0  0
   10.1650    4.5900   23.6460 C   0  0  0  0  0  0  0  0  0  0  0  0
    9.4860    5.7240   23.1860 C   0  0  0  0  0  0  0  0  0  0  0  0
    8.2120    5.6580   22.6350 C   0  0  0  0  0  0  0  0  0  0  0  0
    7.5510    4.4250   22.5220 C   0  0  0  0  0  0  0  0  0  0  0  0
    8.1730    3.2660   22.9670 C   0  0  0  0  0  0  0  0  0  0  0  0
    6.9380   -5.3120   21.7550 C   0  0  2  0  0  0  0  0  0  0  0  0
    7.3310   -4.4320   22.7890 C   0  0  2  0  0  0  0  0  0  0  0  0
    6.5000   -4.2090   23.9150 C   0  0  0  0  0  0  0  0  0  0  0  0
    5.8760   -5.4800   24.3100 N   0  0  0  0  0  0  0  0  0  0  0  0
    5.0970   -6.1060   23.2130 C   0  0  0  0  0  0  0  0  0  0  0  0
    5.9670   -6.4020   22.1320 C   0  0  0  0  0  0  0  0  0  0  0  0
    4.3200   -3.0570   26.3800 C   0  0  0  0  0  0  0  0  0  0  0  0
    3.2980   -2.0890   26.4540 C   0  0  0  0  0  0  0  0  0  0  0  0
    1.9630   -2.4240   26.1390 C   0  0  0  0  0  0  0  0  0  0  0  0
    1.6170   -3.7170   25.7410 C   0  0  0  0  0  0  0  0  0  0  0  0
    2.5960   -4.7100   25.6530 C   0  0  0  0  0  0  0  0  0  0  0  0
    4.0080   -4.3600   25.9900 C   0  0  0  0  0  0  0  0  0  0  0  0
  2  4  1  0
  1  7  1  0
  3  7  2  0
  4  7  1  1
  1  8  1  0
  5  9  1  0
  6  9  2  0
  8  9  1  6
 10 11  1  0
 13 14  1  0
 13 15  1  0
 13 16  1  0
  2 17  1  1
 19 21  2  0
 20 21  2  0
 16 23  3  0
 25 26  2  0
 24 27  1  0
 26 27  1  0
 22 28  1  0
 27 28  2  0
  8 29  1  0
 28 29  1  0
 25 30  1  0
 29 30  2  0
 31 32  1  0
  1 33  1  0
 32 33  1  0
 33 34  2  0
 13 35  1  0
 31 35  2  0
 34 35  1  0
 10 36  1  0
 36 37  2  0
 37 38  1  0
 38 39  2  0
 12 40  1  0
 39 40  1  0
  5 41  1  0
 36 41  1  0
 40 41  2  0
  2 42  1  0
  4 42  1  0
  4 43  1  0
 42 43  1  0
 43 44  1  1
 21 45  1  0
 44 45  1  0
 45 46  1  0
 42 47  1  1
 46 47  1  0
 48 49  2  0
 18 50  1  0
 49 50  1  0
 50 51  2  0
 51 52  1  0
 21 53  1  0
 48 53  1  0
 52 53  2  0
M  END
