x1308-x0946
     RDKit          3D

 34 36  0  0  0  0  0  0  0  0999 V2000
    8.2090   -3.8650   20.5040 C   0  0  0  0  0  0  0  0  0  0  0  0
    5.8630   -4.3480   19.9170 O   0  0  0  0  0  0  0  0  0  0  0  0
    0.6870   -1.1810   26.4240 Cl  0  0  0  0  0  0  0  0  0  0  0  0
    6.8450   -4.4540   20.7320 C   0  0  0  0  0  0  0  0  0  0  0  0
    6.4510   -5.1540   26.9250 O   0  0  0  0  0  0  0  0  0  0  0  0
    4.8280   -6.8070   25.9600 O   0  0  0  0  0  0  0  0  0  0  0  0
    5.3740   -5.4700   26.0150 S   0  0  0  0  0  0  0  0  0  0  0  0
    9.2950    5.2870   22.8550 N   0  0  0  0  0  0  0  0  0  0  0  0
   10.4880    5.6830   25.0370 O   0  0  0  0  0  0  0  0  0  0  0  0
   11.6030    6.1840   22.9930 O   0  0  0  0  0  0  0  0  0  0  0  0
   12.5510   -0.9540   23.2460 Se  0  0  0  0  0  2  0  0  0  0  0  0
   10.6120    5.2640   23.6050 S   0  0  0  0  0  0  0  0  0  0  0  0
    8.1790   -2.4240   20.9120 C   0  0  0  0  0  0  0  0  0  0  0  0
    9.2040   -1.8910   21.8940 C   0  0  0  0  0  0  0  0  0  0  0  0
   10.4810   -2.6380   22.0470 C   0  0  0  0  0  0  0  0  0  0  0  0
   11.5530   -1.6050   21.7220 C   0  0  0  0  0  0  0  0  0  0  0  0
    6.7670   -5.1620   21.9200 N   0  0  0  0  0  0  0  0  0  0  0  0
    7.4800   -4.7140   22.9780 C   0  0  0  0  0  0  0  0  0  0  0  0
    6.9180   -4.7340   24.2370 C   0  0  0  0  0  0  0  0  0  0  0  0
    5.8960   -5.5110   24.4800 N   0  0  0  0  0  0  0  0  0  0  0  0
    5.0830   -5.8080   23.4380 C   0  0  0  0  0  0  0  0  0  0  0  0
    5.6790   -6.1010   22.2060 C   0  0  0  0  0  0  0  0  0  0  0  0
    4.3220   -2.8630   26.5100 C   0  0  0  0  0  0  0  0  0  0  0  0
    3.2220   -1.9830   26.5730 C   0  0  0  0  0  0  0  0  0  0  0  0
    1.9090   -2.3780   26.2760 C   0  0  0  0  0  0  0  0  0  0  0  0
    1.5600   -3.7520   25.8610 C   0  0  0  0  0  0  0  0  0  0  0  0
    2.7300   -4.6230   25.8120 C   0  0  0  0  0  0  0  0  0  0  0  0
    4.0290   -4.2510   26.1100 C   0  0  0  0  0  0  0  0  0  0  0  0
   12.0010    0.8710   23.3600 C   0  0  0  0  0  0  0  0  0  0  0  0
   12.8270    1.9150   22.9310 C   0  0  0  0  0  0  0  0  0  0  0  0
   12.4310    3.2320   22.9900 C   0  0  0  0  0  0  0  0  0  0  0  0
   11.1910    3.6040   23.4890 C   0  0  0  0  0  0  0  0  0  0  0  0
   10.3750    2.5760   23.9180 C   0  0  0  0  0  0  0  0  0  0  0  0
   10.7820    1.2470   23.8480 C   0  0  0  0  0  0  0  0  0  0  0  0
  1  4  1  0
  2  4  2  0
  5  7  2  0
  6  7  2  0
 12  8  1  0
  9 12  2  0
 10 12  2  0
  1 13  1  0
 13 14  1  0
 14 15  1  0
 11 16  1  0
 15 16  1  0
  4 17  1  0
 17 18  1  0
 18 19  1  0
  7 20  1  0
 19 20  1  0
 20 21  1  0
 17 22  1  0
 21 22  1  0
 23 24  2  0
  3 25  1  0
 24 25  1  0
 25 26  2  0
 26 27  1  0
  7 28  1  0
 23 28  1  0
 27 28  2  0
 11 29  1  0
 29 30  2  0
 30 31  1  0
 12 32  1  0
 31 32  2  0
 32 33  1  0
 29 34  1  0
 33 34  2  0
M  END
