x1308-x0771-x2705-x1493
     RDKit          3D

 52 58  0  0  0  0  0  0  0  0999 V2000
    6.8770   -1.4010   21.9310 N   0  0  0  0  0  0  0  0  0  0  0  0
    6.7980   -4.5190   20.2860 C   0  0  2  0  0  0  0  0  0  0  0  0
    4.7600   -2.9510   21.3060 O   0  0  0  0  0  0  0  0  0  0  0  0
    6.9250   -3.7310   21.4710 C   0  0  2  0  0  0  0  0  0  0  0  0
    7.3520    1.9240   22.8190 N   0  0  0  0  0  0  0  0  0  0  0  0
    8.6770    0.7880   21.3000 O   0  0  0  0  0  0  0  0  0  0  0  0
    6.0590   -2.6400   21.5660 C   0  0  0  0  0  0  0  0  0  0  0  0
    6.5400    0.0340   21.6480 C   0  0  1  0  0  0  0  0  0  0  0  0
    7.5990    0.8990   21.8900 C   0  0  0  0  0  0  0  0  0  0  0  0
   10.0630    1.9770   23.9620 C   0  0  0  0  0  0  0  0  0  0  0  0
    9.2190    1.1610   24.9740 C   0  0  0  0  0  0  0  0  0  0  0  0
    6.0870    4.5340   21.8520 C   0  0  0  0  0  0  0  0  0  0  0  0
   11.9810   -1.5550   23.2180 C   0  0  0  0  0  0  0  0  0  0  0  0
   12.5540   -0.1910   23.6770 C   0  0  0  0  0  0  0  0  0  0  0  0
   12.4840   -2.5810   24.2600 C   0  0  0  0  0  0  0  0  0  0  0  0
   12.6400   -1.8880   21.8650 C   0  0  0  0  0  0  0  0  0  0  0  0
    5.5350   -4.4140   19.6340 O   0  0  0  0  0  0  0  0  0  0  0  0
    0.3810   -1.4130   26.2710 C   0  0  0  0  0  0  0  0  0  0  0  0
    4.7430   -6.8640   25.5020 O   0  0  0  0  0  0  0  0  0  0  0  0
    6.2770   -5.5200   26.9020 C   0  0  0  0  0  0  0  0  0  0  0  0
    1.8240   -5.9840   24.9220 C   0  0  0  0  0  0  0  0  0  0  0  0
    5.0810   -5.4630   25.6190 S   0  0  2  0  0  0  0  0  0  0  0  0
    7.0890   -5.5910   27.7270 O   0  0  0  0  0  0  0  0  0  0  0  0
    6.3460    0.3630   17.8840 N   0  0  0  0  0  0  0  0  0  0  0  0
    5.2200    1.0820   17.8000 C   0  0  0  0  0  0  0  0  0  0  0  0
    4.4590    1.4800   18.8620 C   0  0  0  0  0  0  0  0  0  0  0  0
    4.8770    1.1300   20.1310 C   0  0  0  0  0  0  0  0  0  0  0  0
    6.0560    0.3870   20.2720 C   0  0  0  0  0  0  0  0  0  0  0  0
    6.7500    0.0230   19.1200 C   0  0  0  0  0  0  0  0  0  0  0  0
    9.7110   -1.6030   24.2750 N   0  0  0  0  0  0  0  0  0  0  0  0
    8.3980   -1.5680   23.9120 N   0  0  0  0  0  0  0  0  0  0  0  0
    8.1890   -1.4850   22.5510 C   0  0  0  0  0  0  0  0  0  0  0  0
    9.5120   -1.4800   22.0810 C   0  0  0  0  0  0  0  0  0  0  0  0
   10.4320   -1.5470   23.1420 C   0  0  0  0  0  0  0  0  0  0  0  0
    9.3470    3.2180   23.4710 C   0  0  0  0  0  0  0  0  0  0  0  0
   10.0380    4.4300   23.5850 C   0  0  0  0  0  0  0  0  0  0  0  0
    9.4650    5.6190   23.1550 C   0  0  0  0  0  0  0  0  0  0  0  0
    8.1830    5.6070   22.6000 C   0  0  0  0  0  0  0  0  0  0  0  0
    7.4520    4.4040   22.4690 C   0  0  0  0  0  0  0  0  0  0  0  0
    8.0310    3.1910   22.9100 C   0  0  0  0  0  0  0  0  0  0  0  0
    1.5190   -2.3730   26.1040 C   0  0  0  0  0  0  0  0  0  0  0  0
    1.2630   -3.6630   25.6240 C   0  0  0  0  0  0  0  0  0  0  0  0
    2.2630   -4.6420   25.4440 C   0  0  0  0  0  0  0  0  0  0  0  0
    3.7380   -4.3290   25.7790 C   0  0  0  0  0  0  0  0  0  0  0  0
    4.0110   -2.9040   26.2970 C   0  0  0  0  0  0  0  0  0  0  0  0
    2.8050   -1.9670   26.4310 C   0  0  0  0  0  0  0  0  0  0  0  0
    6.8420   -5.3120   21.5260 C   0  0  1  0  0  0  0  0  0  0  0  0
    5.7950   -6.3330   21.8900 C   0  0  0  0  0  0  0  0  0  0  0  0
    4.8570   -5.7390   22.9170 C   0  0  0  0  0  0  0  0  0  0  0  0
    5.7130   -5.3620   24.0500 N   0  0  0  0  0  0  0  0  0  0  0  0
    6.6210   -4.2340   23.8020 C   0  0  0  0  0  0  0  0  0  0  0  0
    7.3850   -4.4880   22.6340 C   0  0  2  0  0  0  0  0  0  0  0  0
  2  4  1  0
  1  7  1  0
  3  7  2  0
  4  7  1  1
  1  8  1  0
  5  9  1  0
  6  9  2  0
  8  9  1  6
 10 11  1  0
 13 14  1  0
 13 15  1  0
 13 16  1  0
  2 17  1  1
 19 22  2  0
 20 22  2  0
 20 23  2  0
 24 25  2  0
 25 26  1  0
 26 27  2  0
  8 28  1  0
 27 28  1  0
 24 29  1  0
 28 29  2  0
 30 31  1  0
  1 32  1  0
 31 32  1  0
 32 33  2  0
 13 34  1  0
 30 34  2  0
 33 34  1  0
 10 35  1  0
 35 36  2  0
 36 37  1  0
 37 38  2  0
 12 39  1  0
 38 39  1  0
  5 40  1  0
 35 40  1  0
 39 40  2  0
 18 41  1  0
 41 42  2  0
 21 43  1  0
 42 43  1  0
 22 44  1  1
 43 44  2  0
 44 45  1  0
 41 46  1  0
 45 46  2  0
  2 47  1  0
  4 47  1  0
 47 48  1  1
 48 49  1  0
 22 50  1  0
 49 50  1  0
 50 51  1  0
  4 52  1  0
 47 52  1  0
 52 51  1  1
M  END
