x1308-x2705-x2649-x2646
     RDKit          3D

 51 57  0  0  0  0  0  0  0  0999 V2000
    6.8820   -1.4380   21.9210 N   0  0  0  0  0  0  0  0  0  0  0  0
    6.6500   -4.5430   20.2680 C   0  0  2  0  0  0  0  0  0  0  0  0
    4.7490   -2.9600   21.3520 O   0  0  0  0  0  0  0  0  0  0  0  0
    6.8640   -3.8660   21.4690 C   0  0  2  0  0  0  0  0  0  0  0  0
    7.3600    1.9780   22.7900 N   0  0  0  0  0  0  0  0  0  0  0  0
    8.7320    0.7510   21.4610 O   0  0  0  0  0  0  0  0  0  0  0  0
    6.0450   -2.7120   21.5850 C   0  0  0  0  0  0  0  0  0  0  0  0
    6.5020   -0.0570   21.6420 C   0  0  1  0  0  0  0  0  0  0  0  0
    7.6000    0.9220   21.9850 C   0  0  0  0  0  0  0  0  0  0  0  0
   10.1760    2.0200   23.9760 C   0  0  0  0  0  0  0  0  0  0  0  0
    9.3460    1.1560   24.9180 C   0  0  0  0  0  0  0  0  0  0  0  0
    6.1500    4.4360   21.8830 C   0  0  0  0  0  0  0  0  0  0  0  0
   12.0630   -1.5210   23.2170 C   0  0  0  0  0  0  0  0  0  0  0  0
   12.5730   -0.2000   23.7930 C   0  0  0  0  0  0  0  0  0  0  0  0
   12.5260   -2.5700   24.2270 C   0  0  0  0  0  0  0  0  0  0  0  0
   12.7450   -1.8300   21.9270 C   0  0  0  0  0  0  0  0  0  0  0  0
    5.4340   -4.3270   19.5690 O   0  0  0  0  0  0  0  0  0  0  0  0
    0.6810   -1.2560   26.3890 Cl  0  0  0  0  0  0  0  0  0  0  0  0
    6.4370   -5.0390   26.8230 O   0  0  0  0  0  0  0  0  0  0  0  0
    4.7730   -6.7600   26.0260 O   0  0  0  0  0  0  0  0  0  0  0  0
    5.3740   -5.4450   25.9360 S   0  0  0  0  0  0  0  0  0  0  0  0
    3.9710    1.6270   21.2230 C   0  0  0  0  0  0  0  0  0  0  0  0
    6.3890    0.3810   17.8540 N   0  0  0  0  0  0  0  0  0  0  0  0
    5.2840    1.1360   17.7560 C   0  0  0  0  0  0  0  0  0  0  0  0
    4.4990    1.5360   18.8110 C   0  0  0  0  0  0  0  0  0  0  0  0
    4.8370    1.1670   20.0990 C   0  0  0  0  0  0  0  0  0  0  0  0
    6.0340    0.3570   20.2730 C   0  0  0  0  0  0  0  0  0  0  0  0
    6.7570   -0.0110   19.1690 C   0  0  0  0  0  0  0  0  0  0  0  0
    9.7010   -1.5520   24.1780 N   0  0  0  0  0  0  0  0  0  0  0  0
    8.3730   -1.5410   23.9030 N   0  0  0  0  0  0  0  0  0  0  0  0
    8.1990   -1.4980   22.5760 C   0  0  0  0  0  0  0  0  0  0  0  0
    9.5840   -1.4930   22.0500 C   0  0  0  0  0  0  0  0  0  0  0  0
   10.5280   -1.5240   23.0930 C   0  0  0  0  0  0  0  0  0  0  0  0
    9.4190    3.2380   23.4810 C   0  0  0  0  0  0  0  0  0  0  0  0
   10.0790    4.4700   23.5890 C   0  0  0  0  0  0  0  0  0  0  0  0
    9.4630    5.6370   23.1540 C   0  0  0  0  0  0  0  0  0  0  0  0
    8.1960    5.5840   22.6100 C   0  0  0  0  0  0  0  0  0  0  0  0
    7.5290    4.3840   22.4960 C   0  0  0  0  0  0  0  0  0  0  0  0
    8.1160    3.1890   22.9280 C   0  0  0  0  0  0  0  0  0  0  0  0
    6.5120   -5.1680   21.7520 C   0  0  2  0  0  0  0  0  0  0  0  0
    7.5010   -4.9270   22.6520 C   0  0  2  0  0  0  0  0  0  0  0  0
    7.3630   -5.1200   24.0230 C   0  0  0  0  0  0  0  0  0  0  0  0
    5.8860   -5.2250   24.3200 N   0  0  0  0  0  0  0  0  0  0  0  0
    4.9250   -5.5820   23.2080 C   0  0  0  0  0  0  0  0  0  0  0  0
    5.6530   -6.2300   22.2170 C   0  0  0  0  0  0  0  0  0  0  0  0
    4.3250   -2.9250   26.4510 C   0  0  0  0  0  0  0  0  0  0  0  0
    3.2700   -2.0080   26.5430 C   0  0  0  0  0  0  0  0  0  0  0  0
    1.9550   -2.3900   26.2580 C   0  0  0  0  0  0  0  0  0  0  0  0
    1.6840   -3.6970   25.8700 C   0  0  0  0  0  0  0  0  0  0  0  0
    2.6530   -4.6860   25.7450 C   0  0  0  0  0  0  0  0  0  0  0  0
    4.0610   -4.2500   26.0650 C   0  0  0  0  0  0  0  0  0  0  0  0
  2  4  1  0
  1  7  1  0
  3  7  2  0
  4  7  1  1
  1  8  1  0
  5  9  1  0
  6  9  2  0
  8  9  1  6
 10 11  1  0
 13 14  1  0
 13 15  1  0
 13 16  1  0
  2 17  1  1
 19 21  2  0
 20 21  2  0
 23 24  2  0
 24 25  1  0
 22 26  1  0
 25 26  2  0
  8 27  1  0
 26 27  1  0
 23 28  1  0
 27 28  2  0
 29 30  1  0
  1 31  1  0
 30 31  1  0
 31 32  2  0
 13 33  1  0
 29 33  2  0
 32 33  1  0
 10 34  1  0
 34 35  2  0
 35 36  1  0
 36 37  2  0
 12 38  1  0
 37 38  1  0
  5 39  1  0
 34 39  1  0
 38 39  2  0
  2 40  1  0
  4 40  1  0
  4 41  1  0
 40 41  1  0
 41 42  1  1
 21 43  1  0
 42 43  1  0
 43 44  1  0
 40 45  1  1
 44 45  1  0
 46 47  2  0
 18 48  1  0
 47 48  1  0
 48 49  2  0
 49 50  1  0
 21 51  1  0
 46 51  1  0
 50 51  2  0
M  END
