x1308-x0771-x2705-x2572
     RDKit          3D

 53 59  0  0  0  0  0  0  0  0999 V2000
    6.9000   -1.4260   21.9500 N   0  0  0  0  0  0  0  0  0  0  0  0
    6.7890   -4.5330   20.2850 C   0  0  2  0  0  0  0  0  0  0  0  0
    4.7610   -2.9590   21.3290 O   0  0  0  0  0  0  0  0  0  0  0  0
    6.9210   -3.7490   21.4730 C   0  0  2  0  0  0  0  0  0  0  0  0
    7.3730    1.9110   22.8030 N   0  0  0  0  0  0  0  0  0  0  0  0
    8.7210    0.7540   21.3150 O   0  0  0  0  0  0  0  0  0  0  0  0
    6.0640   -2.6580   21.5830 C   0  0  0  0  0  0  0  0  0  0  0  0
    6.5790    0.0050   21.6480 C   0  0  1  0  0  0  0  0  0  0  0  0
    7.6380    0.8720   21.8910 C   0  0  0  0  0  0  0  0  0  0  0  0
   10.0760    1.9880   23.9570 C   0  0  0  0  0  0  0  0  0  0  0  0
    9.2280    1.1480   24.9460 C   0  0  0  0  0  0  0  0  0  0  0  0
    6.0930    4.5140   21.8310 C   0  0  0  0  0  0  0  0  0  0  0  0
   11.9660   -1.5580   23.2950 C   0  0  0  0  0  0  0  0  0  0  0  0
   12.5040   -0.2250   23.8650 C   0  0  0  0  0  0  0  0  0  0  0  0
   12.4520   -2.6380   24.2870 C   0  0  0  0  0  0  0  0  0  0  0  0
   12.6990   -1.7790   21.9600 C   0  0  0  0  0  0  0  0  0  0  0  0
    5.5290   -4.4320   19.6260 O   0  0  0  0  0  0  0  0  0  0  0  0
    0.5030   -1.4070   26.0170 C   0  0  0  0  0  0  0  0  0  0  0  0
    4.4960   -6.9470   25.7280 O   0  0  0  0  0  0  0  0  0  0  0  0
    6.1420   -5.2050   26.8830 O   0  0  0  0  0  0  0  0  0  0  0  0
    1.8580   -6.0530   24.8820 C   0  0  0  0  0  0  0  0  0  0  0  0
    5.1040   -5.6340   25.7000 S   0  0  0  0  0  0  0  0  0  0  0  0
    4.0610    1.4320   21.3350 C   0  0  0  0  0  0  0  0  0  0  0  0
   13.3010   -1.9260   20.9760 N   0  0  0  0  0  0  0  0  0  0  0  0
    6.3700    0.3570   17.8900 N   0  0  0  0  0  0  0  0  0  0  0  0
    5.2210    1.0370   17.8090 C   0  0  0  0  0  0  0  0  0  0  0  0
    4.4530    1.3930   18.8820 C   0  0  0  0  0  0  0  0  0  0  0  0
    4.8870    1.0440   20.1450 C   0  0  0  0  0  0  0  0  0  0  0  0
    6.0890    0.3460   20.2750 C   0  0  0  0  0  0  0  0  0  0  0  0
    6.7890    0.0190   19.1160 C   0  0  0  0  0  0  0  0  0  0  0  0
    9.6660   -1.6370   24.3050 N   0  0  0  0  0  0  0  0  0  0  0  0
    8.3490   -1.6110   23.9460 N   0  0  0  0  0  0  0  0  0  0  0  0
    8.2020   -1.5140   22.5900 C   0  0  0  0  0  0  0  0  0  0  0  0
    9.5120   -1.4910   22.0990 C   0  0  0  0  0  0  0  0  0  0  0  0
   10.4180   -1.5620   23.1850 C   0  0  0  0  0  0  0  0  0  0  0  0
    9.3520    3.2230   23.4640 C   0  0  0  0  0  0  0  0  0  0  0  0
   10.0350    4.4400   23.5840 C   0  0  0  0  0  0  0  0  0  0  0  0
    9.4570    5.6290   23.1550 C   0  0  0  0  0  0  0  0  0  0  0  0
    8.1790    5.5970   22.5940 C   0  0  0  0  0  0  0  0  0  0  0  0
    7.4550    4.3920   22.4540 C   0  0  0  0  0  0  0  0  0  0  0  0
    8.0410    3.1840   22.8970 C   0  0  0  0  0  0  0  0  0  0  0  0
    1.6280   -2.3970   25.9460 C   0  0  0  0  0  0  0  0  0  0  0  0
    1.3750   -3.6910   25.5000 C   0  0  0  0  0  0  0  0  0  0  0  0
    2.3240   -4.7170   25.3850 C   0  0  0  0  0  0  0  0  0  0  0  0
    3.7930   -4.4400   25.7750 C   0  0  0  0  0  0  0  0  0  0  0  0
    4.1010   -3.0040   26.2720 C   0  0  0  0  0  0  0  0  0  0  0  0
    2.9120   -2.0150   26.3260 C   0  0  0  0  0  0  0  0  0  0  0  0
    6.8290   -5.3250   21.5260 C   0  0  1  0  0  0  0  0  0  0  0  0
    5.7650   -6.2990   21.9260 C   0  0  0  0  0  0  0  0  0  0  0  0
    4.9120   -5.7310   23.0380 C   0  0  0  0  0  0  0  0  0  0  0  0
    5.8420   -5.4260   24.1650 N   0  0  0  0  0  0  0  0  0  0  0  0
    6.7850   -4.2690   23.8510 C   0  0  0  0  0  0  0  0  0  0  0  0
    7.4370   -4.5140   22.6130 C   0  0  2  0  0  0  0  0  0  0  0  0
  2  4  1  0
  1  7  1  0
  3  7  2  0
  4  7  1  1
  1  8  1  0
  5  9  1  0
  6  9  2  0
  8  9  1  6
 10 11  1  0
 13 14  1  0
 13 15  1  0
 13 16  1  0
  2 17  1  1
 19 22  2  0
 20 22  2  0
 16 24  3  0
 25 26  2  0
 26 27  1  0
 23 28  1  0
 27 28  2  0
  8 29  1  0
 28 29  1  0
 25 30  1  0
 29 30  2  0
 31 32  1  0
  1 33  1  0
 32 33  2  0
 33 34  1  0
 13 35  1  0
 31 35  1  0
 34 35  2  0
 10 36  1  0
 36 37  2  0
 37 38  1  0
 38 39  2  0
 12 40  1  0
 39 40  1  0
  5 41  1  0
 36 41  1  0
 40 41  2  0
 18 42  1  0
 42 43  2  0
 21 44  1  0
 43 44  1  0
 22 45  1  0
 44 45  2  0
 45 46  1  0
 42 47  1  0
 46 47  2  0
  2 48  1  0
  4 48  1  0
 48 49  1  1
 49 50  1  0
 22 51  1  0
 50 51  1  0
 51 52  1  0
  4 53  1  0
 48 53  1  0
 53 52  1  1
M  END
