x1308-x1163
     RDKit          3D

 19 20  0  0  0  0  0  0  0  0999 V2000
    7.2450   -3.0270   20.7000 C   0  0  0  0  0  0  0  0  0  0  0  0
    5.6240   -4.6900   20.0060 O   0  0  0  0  0  0  0  0  0  0  0  0
    0.7030   -1.1840   26.3330 Cl  0  0  0  0  0  0  0  0  0  0  0  0
    6.4660   -4.3160   20.8350 C   0  0  0  0  0  0  0  0  0  0  0  0
    6.1830   -5.0640   26.9880 O   0  0  0  0  0  0  0  0  0  0  0  0
    4.5560   -6.7830   26.0850 O   0  0  0  0  0  0  0  0  0  0  0  0
    5.1780   -5.4790   26.0390 S   0  0  0  0  0  0  0  0  0  0  0  0
    6.7970   -5.0340   21.9570 N   0  0  0  0  0  0  0  0  0  0  0  0
    7.4900   -4.3890   23.0570 C   0  0  0  0  0  0  0  0  0  0  0  0
    6.4970   -4.0580   24.1400 C   0  0  0  0  0  0  0  0  0  0  0  0
    5.7830   -5.3090   24.4630 N   0  0  0  0  0  0  0  0  0  0  0  0
    5.1060   -5.8920   23.4040 C   0  0  0  0  0  0  0  0  0  0  0  0
    5.9170   -6.1780   22.3100 C   0  0  0  0  0  0  0  0  0  0  0  0
    4.2530   -2.9900   26.4540 C   0  0  0  0  0  0  0  0  0  0  0  0
    3.2440   -2.0370   26.5170 C   0  0  0  0  0  0  0  0  0  0  0  0
    1.9390   -2.3730   26.2370 C   0  0  0  0  0  0  0  0  0  0  0  0
    1.6210   -3.6880   25.8790 C   0  0  0  0  0  0  0  0  0  0  0  0
    2.6290   -4.6580   25.8130 C   0  0  0  0  0  0  0  0  0  0  0  0
    3.9470   -4.3070   26.1050 C   0  0  0  0  0  0  0  0  0  0  0  0
  1  4  1  0
  2  4  2  0
  5  7  2  0
  6  7  2  0
  4  8  1  0
  8  9  1  0
  9 10  1  0
  7 11  1  0
 10 11  1  0
 11 12  1  0
  8 13  1  0
 12 13  1  0
 14 15  2  0
  3 16  1  0
 15 16  1  0
 16 17  2  0
 17 18  1  0
  7 19  1  0
 14 19  1  0
 18 19  2  0
M  END
