x1308-x3298
     RDKit          3D

 49 53  0  0  0  0  0  0  0  0999 V2000
    7.5730    1.7320   22.7620 N   0  0  0  0  0  0  0  0  0  0  0  0
    7.2600   -0.1580   21.2010 C   0  0  1  0  0  0  0  0  0  0  0  0
    6.5140   -0.5550   22.0910 O   0  0  0  0  0  0  0  0  0  0  0  0
    8.0300    1.0790   21.6500 C   0  0  0  0  0  0  0  0  0  0  0  0
    9.0470    1.5720   25.1970 N   0  0  0  0  0  0  0  0  0  0  0  0
    8.9860    1.4700   20.9950 O   0  0  0  0  0  0  0  0  0  0  0  0
   10.6610   -0.1040   26.2790 O   0  0  0  0  0  0  0  0  0  0  0  0
    8.8060   -1.0170   24.9150 O   0  0  0  0  0  0  0  0  0  0  0  0
   13.7120   -1.4320   20.8960 F   0  0  0  0  0  0  0  0  0  0  0  0
    9.8630    0.0250   25.1060 S   0  0  0  0  0  0  0  0  0  0  0  0
    7.2420   -3.5720   20.1320 C   0  0  0  0  0  0  0  0  0  0  0  0
    5.3950   -4.9930   20.0340 O   0  0  0  0  0  0  0  0  0  0  0  0
    0.6050   -1.1960   26.4470 Cl  0  0  0  0  0  0  0  0  0  0  0  0
    6.4500   -4.7230   20.6660 C   0  0  0  0  0  0  0  0  0  0  0  0
    6.4940   -4.9350   26.6670 O   0  0  0  0  0  0  0  0  0  0  0  0
    4.8110   -6.7410   26.1120 O   0  0  0  0  0  0  0  0  0  0  0  0
    5.4020   -5.4420   25.8640 S   0  0  0  0  0  0  0  0  0  0  0  0
    8.1760   -1.2620   20.8390 C   0  0  0  0  0  0  0  0  0  0  0  0
    7.8500   -2.6920   21.2490 C   0  0  0  0  0  0  0  0  0  0  0  0
    6.2560    0.5270   17.6480 N   0  0  0  0  0  0  0  0  0  0  0  0
    6.8700    0.1140   18.7400 C   0  0  0  0  0  0  0  0  0  0  0  0
    6.4250    0.3520   20.0090 C   0  0  0  0  0  0  0  0  0  0  0  0
    5.2810    1.0370   20.2430 C   0  0  0  0  0  0  0  0  0  0  0  0
    4.6220    1.4760   19.1030 C   0  0  0  0  0  0  0  0  0  0  0  0
    5.1280    1.2150   17.8720 C   0  0  0  0  0  0  0  0  0  0  0  0
    8.2660    4.0860   22.4590 C   0  0  0  0  0  0  0  0  0  0  0  0
    8.9840    5.2060   22.8960 C   0  0  0  0  0  0  0  0  0  0  0  0
    9.7820    5.1700   24.1270 C   0  0  0  0  0  0  0  0  0  0  0  0
    9.7090    3.8680   24.7860 C   0  0  0  0  0  0  0  0  0  0  0  0
    8.9920    2.7780   24.3390 C   0  0  0  0  0  0  0  0  0  0  0  0
    8.2660    2.8670   23.1740 C   0  0  0  0  0  0  0  0  0  0  0  0
   12.2780    0.4230   23.6660 C   0  0  0  0  0  0  0  0  0  0  0  0
   13.1340    0.0280   22.6870 C   0  0  0  0  0  0  0  0  0  0  0  0
   12.8670   -1.0550   21.8500 C   0  0  0  0  0  0  0  0  0  0  0  0
   11.6780   -1.7310   22.0240 C   0  0  0  0  0  0  0  0  0  0  0  0
   10.7680   -1.3740   23.0020 C   0  0  0  0  0  0  0  0  0  0  0  0
   11.0910   -0.2980   23.8210 C   0  0  0  0  0  0  0  0  0  0  0  0
    6.8750   -5.5570   21.7400 N   0  0  0  0  0  0  0  0  0  0  0  0
    6.6600   -4.3410   22.2890 C   0  0  0  0  0  0  0  0  0  0  0  0
    6.6020   -4.2180   23.6950 C   0  0  0  0  0  0  0  0  0  0  0  0
    5.8860   -5.3880   24.2330 N   0  0  0  0  0  0  0  0  0  0  0  0
    5.1160   -6.1420   23.2470 C   0  0  0  0  0  0  0  0  0  0  0  0
    5.9370   -6.5790   22.2030 C   0  0  0  0  0  0  0  0  0  0  0  0
    4.3910   -3.0190   26.4140 C   0  0  0  0  0  0  0  0  0  0  0  0
    3.3160   -1.9600   26.5760 C   0  0  0  0  0  0  0  0  0  0  0  0
    1.8760   -2.3350   26.2720 C   0  0  0  0  0  0  0  0  0  0  0  0
    1.6170   -3.7650   25.8140 C   0  0  0  0  0  0  0  0  0  0  0  0
    2.7990   -4.7490   25.6880 C   0  0  0  0  0  0  0  0  0  0  0  0
    4.1170   -4.3240   25.9980 C   0  0  0  0  0  0  0  0  0  0  0  0
  2  3  1  1
  1  4  1  0
  2  4  1  0
  4  6  2  0
 10  5  1  0
  7 10  2  0
  8 10  2  0
 11 14  1  0
 12 14  2  0
 15 17  2  0
 16 17  2  0
  2 18  1  0
 11 19  1  0
 18 19  1  0
 20 21  2  0
  2 22  1  0
 21 22  1  0
 22 23  2  0
 23 24  1  0
 20 25  1  0
 24 25  2  0
 26 27  2  0
 27 28  1  0
 28 29  2  0
  5 30  1  0
 29 30  1  0
  1 31  1  0
 26 31  1  0
 30 31  2  0
 32 33  2  0
  9 34  1  0
 33 34  1  0
 34 35  2  0
 35 36  1  0
 10 37  1  0
 32 37  1  0
 36 37  2  0
 14 38  1  0
 38 39  1  0
 39 40  1  0
 17 41  1  0
 40 41  1  0
 41 42  1  0
 38 43  1  0
 42 43  1  0
 44 45  2  0
 13 46  1  0
 45 46  1  0
 46 47  2  0
 47 48  1  0
 17 49  1  0
 44 49  1  0
 48 49  2  0
M  END
