x1308-x0771-x2705-x2563
     RDKit          3D

 53 61  0  0  0  0  0  0  0  0999 V2000
    6.9410   -1.6130   21.6900 N   0  0  0  0  0  0  0  0  0  0  0  0
    6.7090   -4.2990   20.3150 C   0  0  2  0  0  0  0  0  0  0  0  0
    4.9840   -3.3410   21.3340 O   0  0  0  0  0  0  0  0  0  0  0  0
    6.7400   -3.4380   21.4840 C   0  0  2  0  0  0  0  0  0  0  0  0
    7.5610    1.8060   22.7110 N   0  0  0  0  0  0  0  0  0  0  0  0
    8.7830    1.0760   21.0280 O   0  0  0  0  0  0  0  0  0  0  0  0
    5.7510   -2.3640   21.5050 C   0  0  0  0  0  0  0  0  0  0  0  0
    6.8110   -0.1420   21.5400 C   0  0  1  0  0  0  0  0  0  0  0  0
    8.0380    0.7220   21.9400 C   0  0  2  0  0  0  0  0  0  0  0  0
   10.3370    2.0370   23.8760 C   0  0  0  0  0  0  0  0  0  0  0  0
    9.5770    1.0160   24.7270 C   0  0  0  0  0  0  0  0  0  0  0  0
    6.1520    4.2680   21.8510 C   0  0  0  0  0  0  0  0  0  0  0  0
   12.2760   -1.6520   23.4240 C   0  0  0  0  0  0  0  0  0  0  0  0
   12.9510   -0.3730   23.9110 C   0  0  0  0  0  0  0  0  0  0  0  0
   12.5750   -2.7370   24.4710 C   0  0  0  0  0  0  0  0  0  0  0  0
   12.8420   -2.0330   22.0500 C   0  0  0  0  0  0  0  0  0  0  0  0
    5.5090   -4.2440   19.5500 O   0  0  0  0  0  0  0  0  0  0  0  0
    0.6850   -1.4810   26.0860 C   0  0  0  0  0  0  0  0  0  0  0  0
    4.6890   -6.8350   25.6420 O   0  0  0  0  0  0  0  0  0  0  0  0
    6.1780   -5.1490   26.7120 O   0  0  0  0  0  0  0  0  0  0  0  0
    2.1170   -6.1220   24.9140 C   0  0  0  0  0  0  0  0  0  0  0  0
    5.2520   -5.5050   25.6660 S   0  0  0  0  0  0  0  0  0  0  0  0
    5.4640    1.3050   18.5780 C   0  0  1  0  0  0  0  0  0  0  0  0
    4.8670    0.1600   18.3940 C   0  0  0  0  0  0  0  0  0  0  0  0
    4.9710    0.0570   19.7380 C   0  0  1  0  0  0  0  0  0  0  0  0
    6.1920    0.3620   20.2830 C   0  0  0  0  0  0  0  0  0  0  0  0
    6.6630    1.2440   19.4370 C   0  0  0  0  0  0  0  0  0  0  0  0
    9.8130   -1.8530   23.9800 N   0  0  0  0  0  0  0  0  0  0  0  0
    8.7000   -1.1820   23.5520 N   0  0  0  0  0  0  0  0  0  0  0  0
    8.9820   -0.2250   22.6260 C   0  0  0  0  0  0  0  0  0  0  0  0
   10.3460   -0.3440   22.4920 C   0  0  0  0  0  0  0  0  0  0  0  0
   10.8310   -1.2980   23.3000 C   0  0  0  0  0  0  0  0  0  0  0  0
    9.5040    3.2120   23.4110 C   0  0  0  0  0  0  0  0  0  0  0  0
   10.0810    4.4990   23.5390 C   0  0  0  0  0  0  0  0  0  0  0  0
    9.4280    5.6700   23.1450 C   0  0  0  0  0  0  0  0  0  0  0  0
    8.1500    5.5320   22.6020 C   0  0  0  0  0  0  0  0  0  0  0  0
    7.5330    4.2720   22.4550 C   0  0  0  0  0  0  0  0  0  0  0  0
    8.2090    3.0840   22.8640 C   0  0  0  0  0  0  0  0  0  0  0  0
    1.7870   -2.4950   25.9710 C   0  0  0  0  0  0  0  0  0  0  0  0
    1.5130   -3.7930   25.5230 C   0  0  0  0  0  0  0  0  0  0  0  0
    2.5310   -4.7630   25.4060 C   0  0  0  0  0  0  0  0  0  0  0  0
    3.8550   -4.3990   25.7540 C   0  0  0  0  0  0  0  0  0  0  0  0
    4.1110   -3.1030   26.1980 C   0  0  0  0  0  0  0  0  0  0  0  0
    3.0990   -2.1500   26.3110 C   0  0  0  0  0  0  0  0  0  0  0  0
    6.6390   -5.0200   21.5910 C   0  0  1  0  0  0  0  0  0  0  0  0
    5.5400   -5.9260   21.8570 C   0  0  0  0  0  0  0  0  0  0  0  0
    4.8570   -5.3980   23.0750 C   0  0  0  0  0  0  0  0  0  0  0  0
    5.9000   -5.1320   24.0890 N   0  0  0  0  0  0  0  0  0  0  0  0
    6.4460   -3.7700   24.0030 C   0  0  0  0  0  0  0  0  0  0  0  0
    7.1880   -4.1970   22.7050 C   0  0  2  0  0  0  0  0  0  0  0  0
    4.4890    2.4300   19.0340 C   0  0  0  0  0  0  0  0  0  0  0  0
    4.4260    1.2420   19.7230 C   0  0  0  0  0  0  0  0  0  0  0  0
    3.8690    0.6250   20.6560 C   0  0  0  0  0  0  0  0  0  0  0  0
  2  4  1  0
  1  7  1  0
  3  7  2  0
  4  7  1  6
  8  1  1  6
  5  9  1  0
  9  6  1  6
  8  9  1  0
 10 11  1  0
 13 14  1  0
 13 15  1  0
 13 16  1  0
  2 17  1  6
 19 22  2  0
 20 22  2  0
 23 24  1  6
 23 25  1  0
 25 24  1  6
  8 26  1  0
 25 26  1  0
 23 27  1  0
 26 27  2  0
 28 29  1  0
  9 30  1  0
 29 30  1  0
 30 31  2  0
 13 32  1  0
 28 32  2  0
 31 32  1  0
 10 33  1  0
 33 34  2  0
 34 35  1  0
 35 36  2  0
 12 37  1  0
 36 37  1  0
  5 38  1  0
 33 38  1  0
 37 38  2  0
 18 39  1  0
 39 40  2  0
 21 41  1  0
 40 41  1  0
 22 42  1  0
 41 42  2  0
 42 43  1  0
 39 44  1  0
 43 44  2  0
  2 45  1  0
  4 45  1  0
 45 46  1  6
 46 47  1  0
 22 48  1  0
 47 48  1  0
 48 49  1  0
  4 50  1  0
 45 50  1  0
 50 49  1  1
 23 51  1  0
 51 52  1  0
 25 53  1  0
 52 53  2  0
M  END
