x1308-x2563-x2705-x2649
     RDKit          3D

 52 60  0  0  0  0  0  0  0  0999 V2000
    7.1200   -1.5160   21.7400 N   0  0  0  0  0  0  0  0  0  0  0  0
    6.8000   -4.3880   20.3850 C   0  0  2  0  0  0  0  0  0  0  0  0
    4.9940   -3.3740   21.4610 O   0  0  0  0  0  0  0  0  0  0  0  0
    6.8800   -3.4480   21.5230 C   0  0  2  0  0  0  0  0  0  0  0  0
    7.5380    2.0490   22.9570 N   0  0  0  0  0  0  0  0  0  0  0  0
    9.3650    0.8720   21.7570 O   0  0  0  0  0  0  0  0  0  0  0  0
    5.8840   -2.3740   21.6140 C   0  0  0  0  0  0  0  0  0  0  0  0
    7.0170   -0.0800   21.3510 C   0  0  1  0  0  0  0  0  0  0  0  0
    7.9790    0.9470   22.0790 C   0  0  0  0  0  0  0  0  0  0  0  0
   10.1920    2.1270   23.9990 C   0  0  0  0  0  0  0  0  0  0  0  0
    9.3020    1.2820   24.9060 C   0  0  0  0  0  0  0  0  0  0  0  0
    6.1760    4.5210   21.9610 C   0  0  0  0  0  0  0  0  0  0  0  0
   12.0660   -1.5940   23.2850 C   0  0  0  0  0  0  0  0  0  0  0  0
   12.5720   -0.2240   23.7870 C   0  0  0  0  0  0  0  0  0  0  0  0
   12.5660   -2.6440   24.3020 C   0  0  0  0  0  0  0  0  0  0  0  0
   12.7130   -1.8760   21.9840 C   0  0  0  0  0  0  0  0  0  0  0  0
    5.5710   -4.4990   19.6700 O   0  0  0  0  0  0  0  0  0  0  0  0
    0.6090   -1.1740   26.3920 Cl  0  0  0  0  0  0  0  0  0  0  0  0
    6.4260   -4.7800   26.6060 O   0  0  0  0  0  0  0  0  0  0  0  0
    4.8830   -6.6150   25.9420 O   0  0  0  0  0  0  0  0  0  0  0  0
    5.3990   -5.2820   25.7390 S   0  0  0  0  0  0  0  0  0  0  0  0
    5.1850    0.8990   18.5420 C   0  0  1  0  0  0  0  0  0  0  0  0
    4.8280   -0.4630   18.9330 C   0  0  0  0  0  0  0  0  0  0  0  0
    5.5200    0.3480   19.7940 C   0  0  1  0  0  0  0  0  0  0  0  0
    7.0370    0.4190   19.8910 C   0  0  0  0  0  0  0  0  0  0  0  0
    6.6530    0.9110   18.4560 C   0  0  0  0  0  0  0  0  0  0  0  0
    9.6790   -1.7460   24.2080 N   0  0  0  0  0  0  0  0  0  0  0  0
    8.3580   -1.7480   23.8830 N   0  0  0  0  0  0  0  0  0  0  0  0
    8.3190   -1.6230   22.5370 C   0  0  0  0  0  0  0  0  0  0  0  0
    9.6190   -1.5610   22.0990 C   0  0  0  0  0  0  0  0  0  0  0  0
   10.5300   -1.6320   23.1530 C   0  0  0  0  0  0  0  0  0  0  0  0
    9.4920    3.3750   23.5210 C   0  0  0  0  0  0  0  0  0  0  0  0
   10.2250    4.6030   23.6200 C   0  0  0  0  0  0  0  0  0  0  0  0
    9.5440    5.7270   23.1580 C   0  0  0  0  0  0  0  0  0  0  0  0
    8.2420    5.6700   22.6300 C   0  0  0  0  0  0  0  0  0  0  0  0
    7.5640    4.4710   22.5490 C   0  0  0  0  0  0  0  0  0  0  0  0
    8.1810    3.3190   22.9980 C   0  0  0  0  0  0  0  0  0  0  0  0
    6.7880   -5.1290   21.6100 C   0  0  2  0  0  0  0  0  0  0  0  0
    7.4310   -4.4960   22.5840 C   0  0  2  0  0  0  0  0  0  0  0  0
    6.5680   -3.9110   23.5480 C   0  0  0  0  0  0  0  0  0  0  0  0
    5.8080   -5.0990   24.0910 N   0  0  0  0  0  0  0  0  0  0  0  0
    5.0470   -5.9020   23.0950 C   0  0  0  0  0  0  0  0  0  0  0  0
    5.8480   -6.2240   21.9730 C   0  0  0  0  0  0  0  0  0  0  0  0
    4.2630   -2.8510   26.3130 C   0  0  0  0  0  0  0  0  0  0  0  0
    3.1860   -1.9520   26.4520 C   0  0  0  0  0  0  0  0  0  0  0  0
    1.8630   -2.3340   26.1920 C   0  0  0  0  0  0  0  0  0  0  0  0
    1.5360   -3.6240   25.7790 C   0  0  0  0  0  0  0  0  0  0  0  0
    2.6170   -4.6560   25.6020 C   0  0  0  0  0  0  0  0  0  0  0  0
    4.0310   -4.1660   25.9050 C   0  0  0  0  0  0  0  0  0  0  0  0
    4.3790    2.1040   19.1450 C   0  0  0  0  0  0  0  0  0  0  0  0
    3.8320    2.1520   20.5720 C   0  0  0  0  0  0  0  0  0  0  0  0
    4.6690    0.9560   20.8880 C   0  0  0  0  0  0  0  0  0  0  0  0
  2  4  1  0
  1  7  1  0
  3  7  2  0
  4  7  1  1
  1  8  1  0
  5  9  1  0
  6  9  2  0
  8  9  1  1
 10 11  1  0
 13 14  1  0
 13 15  1  0
 13 16  1  0
  2 17  1  1
 19 21  2  0
 20 21  2  0
 22 23  1  6
 22 24  1  0
 24 23  1  6
  8 25  1  0
 24 25  1  0
 22 26  1  0
 25 26  2  0
 27 28  1  0
  1 29  1  0
 28 29  2  0
 29 30  1  0
 13 31  1  0
 27 31  1  0
 30 31  2  0
 10 32  1  0
 32 33  2  0
 33 34  1  0
 34 35  2  0
 12 36  1  0
 35 36  1  0
  5 37  1  0
 32 37  1  0
 36 37  2  0
  2 38  1  0
  4 38  1  0
  4 39  1  0
 38 39  1  0
 39 40  1  1
 21 41  1  0
 40 41  1  0
 41 42  1  0
 38 43  1  1
 42 43  1  0
 44 45  2  0
 18 46  1  0
 45 46  1  0
 46 47  2  0
 47 48  1  0
 21 49  1  0
 44 49  1  0
 48 49  2  0
 22 50  1  0
 50 51  1  0
 24 52  1  0
 51 52  2  0
M  END
