x1308-x2705-x0691-x2572
     RDKit          3D

 53 59  0  0  0  0  0  0  0  0999 V2000
    6.9180   -1.3990   21.9190 N   0  0  0  0  0  0  0  0  0  0  0  0
    6.8120   -4.5420   20.4100 C   0  0  2  0  0  0  0  0  0  0  0  0
    4.8160   -3.0010   21.2920 O   0  0  0  0  0  0  0  0  0  0  0  0
    7.0340   -3.7230   21.5450 C   0  0  2  0  0  0  0  0  0  0  0  0
    7.4800    2.0350   22.8530 N   0  0  0  0  0  0  0  0  0  0  0  0
    8.7050    1.1880   21.1030 O   0  0  0  0  0  0  0  0  0  0  0  0
    6.1140   -2.6340   21.5800 C   0  0  0  0  0  0  0  0  0  0  0  0
    6.5850    0.0190   21.5700 C   0  0  1  0  0  0  0  0  0  0  0  0
    7.7000    1.1150   21.8290 C   0  0  0  0  0  0  0  0  0  0  0  0
   10.1820    2.0740   23.9620 C   0  0  0  0  0  0  0  0  0  0  0  0
    9.3480    1.2070   24.9050 C   0  0  0  0  0  0  0  0  0  0  0  0
    6.1930    4.4520   21.9200 C   0  0  0  0  0  0  0  0  0  0  0  0
   12.0140   -1.5100   23.2930 C   0  0  0  0  0  0  0  0  0  0  0  0
   12.5540   -0.1470   23.7780 C   0  0  0  0  0  0  0  0  0  0  0  0
   12.4990   -2.6260   24.2700 C   0  0  0  0  0  0  0  0  0  0  0  0
   12.7310   -1.7900   21.9440 C   0  0  0  0  0  0  0  0  0  0  0  0
    5.5330   -4.4670   19.7800 O   0  0  0  0  0  0  0  0  0  0  0  0
    0.6220   -1.2640   26.1870 Cl  0  0  0  0  0  0  0  0  0  0  0  0
    6.3590   -5.1410   26.8150 O   0  0  0  0  0  0  0  0  0  0  0  0
    4.6710   -6.8530   26.0630 O   0  0  0  0  0  0  0  0  0  0  0  0
    5.3090   -5.5670   25.9140 S   0  0  0  0  0  0  0  0  0  0  0  0
    3.4790   -0.7350   26.4450 F   0  0  0  0  0  0  0  0  0  0  0  0
    3.9280    1.4230   21.2750 C   0  0  0  0  0  0  0  0  0  0  0  0
   13.3070   -1.9840   20.9540 N   0  0  0  0  0  0  0  0  0  0  0  0
    6.3290    0.3790   17.8850 N   0  0  0  0  0  0  0  0  0  0  0  0
    5.1650    1.0310   17.7770 C   0  0  0  0  0  0  0  0  0  0  0  0
    4.3530    1.3820   18.8270 C   0  0  0  0  0  0  0  0  0  0  0  0
    4.7800    1.0470   20.1020 C   0  0  0  0  0  0  0  0  0  0  0  0
    5.9920    0.3840   20.2520 C   0  0  0  0  0  0  0  0  0  0  0  0
    6.7200    0.0670   19.1270 C   0  0  0  0  0  0  0  0  0  0  0  0
    9.7200   -1.5270   24.2870 N   0  0  0  0  0  0  0  0  0  0  0  0
    8.4230   -1.5060   23.9160 N   0  0  0  0  0  0  0  0  0  0  0  0
    8.2220   -1.4650   22.5570 C   0  0  0  0  0  0  0  0  0  0  0  0
    9.5750   -1.4720   22.0990 C   0  0  0  0  0  0  0  0  0  0  0  0
   10.4700   -1.5050   23.1840 C   0  0  0  0  0  0  0  0  0  0  0  0
    9.5010    3.3350   23.4880 C   0  0  0  0  0  0  0  0  0  0  0  0
   10.2160    4.5750   23.5970 C   0  0  0  0  0  0  0  0  0  0  0  0
    9.5470    5.7160   23.1390 C   0  0  0  0  0  0  0  0  0  0  0  0
    8.2640    5.6590   22.6070 C   0  0  0  0  0  0  0  0  0  0  0  0
    7.5830    4.4370   22.5120 C   0  0  0  0  0  0  0  0  0  0  0  0
    8.1940    3.2720   22.9540 C   0  0  0  0  0  0  0  0  0  0  0  0
    6.9260   -5.2900   21.7380 C   0  0  2  0  0  0  0  0  0  0  0  0
    7.3300   -4.4190   22.7770 C   0  0  2  0  0  0  0  0  0  0  0  0
    6.4940   -4.1750   23.8890 C   0  0  0  0  0  0  0  0  0  0  0  0
    5.8540   -5.4230   24.3010 N   0  0  0  0  0  0  0  0  0  0  0  0
    5.1200   -6.1070   23.2080 C   0  0  0  0  0  0  0  0  0  0  0  0
    5.9570   -6.3840   22.1020 C   0  0  0  0  0  0  0  0  0  0  0  0
    4.3040   -2.9920   26.1920 C   0  0  0  0  0  0  0  0  0  0  0  0
    3.2430   -2.0410   26.2490 C   0  0  0  0  0  0  0  0  0  0  0  0
    1.8870   -2.4310   26.1010 C   0  0  0  0  0  0  0  0  0  0  0  0
    1.5910   -3.7680   25.8880 C   0  0  0  0  0  0  0  0  0  0  0  0
    2.5870   -4.7220   25.8240 C   0  0  0  0  0  0  0  0  0  0  0  0
    4.0140   -4.3500   25.9820 C   0  0  0  0  0  0  0  0  0  0  0  0
  2  4  1  0
  1  7  1  0
  3  7  2  0
  4  7  1  1
  1  8  1  0
  5  9  1  0
  6  9  2  0
  8  9  1  6
 10 11  1  0
 13 14  1  0
 13 15  1  0
 13 16  1  0
  2 17  1  1
 19 21  2  0
 20 21  2  0
 16 24  3  0
 25 26  2  0
 26 27  1  0
 23 28  1  0
 27 28  2  0
  8 29  1  0
 28 29  1  0
 25 30  1  0
 29 30  2  0
 31 32  1  0
  1 33  1  0
 32 33  2  0
 33 34  1  0
 13 35  1  0
 31 35  1  0
 34 35  2  0
 10 36  1  0
 36 37  2  0
 37 38  1  0
 38 39  2  0
 12 40  1  0
 39 40  1  0
  5 41  1  0
 36 41  1  0
 40 41  2  0
  2 42  1  0
  4 42  1  0
  4 43  1  0
 42 43  1  0
 43 44  1  1
 21 45  1  0
 44 45  1  0
 45 46  1  0
 42 47  1  1
 46 47  1  0
 22 49  1  0
 48 49  2  0
 18 50  1  0
 49 50  1  0
 50 51  2  0
 51 52  1  0
 21 53  1  0
 48 53  1  0
 52 53  2  0
M  END
