x1308-x2705-x2572-x1493
     RDKit          3D

 52 58  0  0  0  0  0  0  0  0999 V2000
    6.9990   -1.4840   21.8910 N   0  0  0  0  0  0  0  0  0  0  0  0
    6.8170   -4.3950   20.4370 C   0  0  2  0  0  0  0  0  0  0  0  0
    5.0210   -3.4690   21.4930 O   0  0  0  0  0  0  0  0  0  0  0  0
    6.9190   -3.4340   21.6060 C   0  0  2  0  0  0  0  0  0  0  0  0
    7.4770    2.0750   22.8000 N   0  0  0  0  0  0  0  0  0  0  0  0
    8.7910    1.3060   21.0840 O   0  0  0  0  0  0  0  0  0  0  0  0
    5.8250   -2.4260   21.6960 C   0  0  0  0  0  0  0  0  0  0  0  0
    6.7170   -0.0130   21.6020 C   0  0  1  0  0  0  0  0  0  0  0  0
    7.7920    1.1710   21.7890 C   0  0  0  0  0  0  0  0  0  0  0  0
   10.2040    2.1050   23.9720 C   0  0  0  0  0  0  0  0  0  0  0  0
    9.3610    1.2410   24.8960 C   0  0  0  0  0  0  0  0  0  0  0  0
    6.1910    4.5460   21.9080 C   0  0  0  0  0  0  0  0  0  0  0  0
   12.0570   -1.5730   23.3320 C   0  0  0  0  0  0  0  0  0  0  0  0
   12.5340   -0.2160   23.8930 C   0  0  0  0  0  0  0  0  0  0  0  0
   12.5270   -2.6560   24.3030 C   0  0  0  0  0  0  0  0  0  0  0  0
   12.7830   -1.7760   21.9830 C   0  0  0  0  0  0  0  0  0  0  0  0
    5.5550   -4.4720   19.7790 O   0  0  0  0  0  0  0  0  0  0  0  0
    0.4970   -1.1210   26.4610 Cl  0  0  0  0  0  0  0  0  0  0  0  0
    6.4090   -4.8090   26.5780 O   0  0  0  0  0  0  0  0  0  0  0  0
    4.8300   -6.6480   25.9220 O   0  0  0  0  0  0  0  0  0  0  0  0
    5.3490   -5.3100   25.7310 S   0  0  0  0  0  0  0  0  0  0  0  0
    4.1730    1.5560   21.3000 C   0  0  0  0  0  0  0  0  0  0  0  0
   13.3670   -1.8850   20.9850 N   0  0  0  0  0  0  0  0  0  0  0  0
    6.3330    0.3000   17.8450 N   0  0  0  0  0  0  0  0  0  0  0  0
    5.2060    1.0200   17.8110 C   0  0  0  0  0  0  0  0  0  0  0  0
    4.5080    1.4200   18.9080 C   0  0  0  0  0  0  0  0  0  0  0  0
    4.9950    1.0720   20.1440 C   0  0  0  0  0  0  0  0  0  0  0  0
    6.1670    0.3340   20.2450 C   0  0  0  0  0  0  0  0  0  0  0  0
    6.7890   -0.0290   19.0640 C   0  0  0  0  0  0  0  0  0  0  0  0
    9.7510   -1.5890   24.3000 N   0  0  0  0  0  0  0  0  0  0  0  0
    8.4440   -1.5770   23.9430 N   0  0  0  0  0  0  0  0  0  0  0  0
    8.2600   -1.5530   22.5860 C   0  0  0  0  0  0  0  0  0  0  0  0
    9.7260   -1.5670   22.1110 C   0  0  0  0  0  0  0  0  0  0  0  0
   10.5180   -1.5790   23.1980 C   0  0  0  0  0  0  0  0  0  0  0  0
    9.4730    3.3420   23.5040 C   0  0  0  0  0  0  0  0  0  0  0  0
   10.1270    4.5860   23.6350 C   0  0  0  0  0  0  0  0  0  0  0  0
    9.5020    5.7800   23.2120 C   0  0  0  0  0  0  0  0  0  0  0  0
    8.2300    5.7330   22.6580 C   0  0  0  0  0  0  0  0  0  0  0  0
    7.5650    4.5100   22.5210 C   0  0  0  0  0  0  0  0  0  0  0  0
    8.1760    3.3070   22.9440 C   0  0  0  0  0  0  0  0  0  0  0  0
    6.8680   -5.1980   21.5880 C   0  0  2  0  0  0  0  0  0  0  0  0
    7.3600   -4.5420   22.6150 C   0  0  2  0  0  0  0  0  0  0  0  0
    6.5000   -3.9340   23.5240 C   0  0  0  0  0  0  0  0  0  0  0  0
    5.7710   -5.1020   24.0790 N   0  0  0  0  0  0  0  0  0  0  0  0
    5.0590   -5.9320   23.0670 C   0  0  0  0  0  0  0  0  0  0  0  0
    5.8360   -6.2360   21.9350 C   0  0  0  0  0  0  0  0  0  0  0  0
    4.2610   -2.8690   26.3380 C   0  0  0  0  0  0  0  0  0  0  0  0
    3.2340   -1.9260   26.5080 C   0  0  0  0  0  0  0  0  0  0  0  0
    1.7590   -2.2630   26.2520 C   0  0  0  0  0  0  0  0  0  0  0  0
    1.5120   -3.6880   25.7990 C   0  0  0  0  0  0  0  0  0  0  0  0
    2.7020   -4.6110   25.6520 C   0  0  0  0  0  0  0  0  0  0  0  0
    4.0000   -4.1790   25.9210 C   0  0  0  0  0  0  0  0  0  0  0  0
  2  4  1  0
  1  7  1  0
  3  7  2  0
  4  7  1  1
  1  8  1  0
  5  9  1  0
  6  9  2  0
  8  9  1  6
 10 11  1  0
 13 14  1  0
 13 15  1  0
 13 16  1  0
  2 17  1  1
 19 21  2  0
 20 21  2  0
 16 23  3  0
 24 25  2  0
 25 26  1  0
 22 27  1  0
 26 27  2  0
  8 28  1  0
 27 28  1  0
 24 29  1  0
 28 29  2  0
 30 31  1  0
  1 32  1  0
 31 32  2  0
 32 33  1  0
 13 34  1  0
 30 34  1  0
 33 34  2  0
 10 35  1  0
 35 36  2  0
 36 37  1  0
 37 38  2  0
 12 39  1  0
 38 39  1  0
  5 40  1  0
 35 40  1  0
 39 40  2  0
  2 41  1  0
  4 41  1  0
  4 42  1  0
 41 42  1  0
 42 43  1  1
 21 44  1  0
 43 44  1  0
 44 45  1  0
 41 46  1  1
 45 46  1  0
 47 48  2  0
 18 49  1  0
 48 49  1  0
 49 50  2  0
 50 51  1  0
 21 52  1  0
 47 52  1  0
 51 52  2  0
M  END
