x1308-x2705-x2776-x3117
     RDKit          3D

 53 59  0  0  0  0  0  0  0  0999 V2000
    6.8990   -1.4510   21.8960 N   0  0  0  0  0  0  0  0  0  0  0  0
    6.7450   -4.5030   20.3030 C   0  0  2  0  0  0  0  0  0  0  0  0
    4.7710   -2.9780   21.3250 O   0  0  0  0  0  0  0  0  0  0  0  0
    6.9140   -3.7780   21.4230 C   0  0  2  0  0  0  0  0  0  0  0  0
    7.4640    2.0470   22.7910 N   0  0  0  0  0  0  0  0  0  0  0  0
    8.9060    0.8310   21.4740 O   0  0  0  0  0  0  0  0  0  0  0  0
    6.0430   -2.6510   21.5530 C   0  0  0  0  0  0  0  0  0  0  0  0
    6.5750   -0.0040   21.6050 C   0  0  1  0  0  0  0  0  0  0  0  0
    7.7740    0.9730   21.9470 C   0  0  0  0  0  0  0  0  0  0  0  0
   10.1190    1.9600   23.9940 C   0  0  0  0  0  0  0  0  0  0  0  0
    9.2780    1.1640   24.9950 C   0  0  0  0  0  0  0  0  0  0  0  0
    6.2960    4.7080   21.9240 C   0  0  0  0  0  0  0  0  0  0  0  0
   11.9960   -1.5750   23.2410 C   0  0  0  0  0  0  0  0  0  0  0  0
   12.5080   -0.2400   23.8360 C   0  0  0  0  0  0  0  0  0  0  0  0
   12.4940   -2.7580   24.1210 C   0  0  0  0  0  0  0  0  0  0  0  0
   12.6440   -1.7510   21.8540 C   0  0  0  0  0  0  0  0  0  0  0  0
   13.4300   -2.4960   25.2830 C   0  0  0  0  0  0  0  0  0  0  0  0
   10.5110    6.7150   23.6840 O   0  0  0  0  0  0  0  0  0  0  0  0
   11.5470    6.5070   24.5850 C   0  0  0  0  0  0  0  0  0  0  0  0
    5.5050   -4.3890   19.6100 O   0  0  0  0  0  0  0  0  0  0  0  0
    0.7440   -1.1630   26.3310 Cl  0  0  0  0  0  0  0  0  0  0  0  0
    6.0690   -5.3450   26.9570 O   0  0  0  0  0  0  0  0  0  0  0  0
    4.4350   -6.8940   25.9800 O   0  0  0  0  0  0  0  0  0  0  0  0
    5.1450   -5.6350   25.9050 S   0  0  0  0  0  0  0  0  0  0  0  0
    6.3890    0.3600   17.8770 N   0  0  0  0  0  0  0  0  0  0  0  0
    5.1760    1.1140   17.7800 C   0  0  0  0  0  0  0  0  0  0  0  0
    4.4210    1.4750   18.8640 C   0  0  0  0  0  0  0  0  0  0  0  0
    4.8710    1.0980   20.1090 C   0  0  0  0  0  0  0  0  0  0  0  0
    6.0500    0.3770   20.2590 C   0  0  0  0  0  0  0  0  0  0  0  0
    6.7600    0.0310   19.1260 C   0  0  0  0  0  0  0  0  0  0  0  0
    9.6610   -1.5930   24.2850 N   0  0  0  0  0  0  0  0  0  0  0  0
    8.3280   -1.5700   24.0540 N   0  0  0  0  0  0  0  0  0  0  0  0
    8.1670   -1.5170   22.6060 C   0  0  0  0  0  0  0  0  0  0  0  0
    9.4870   -1.5190   22.1470 C   0  0  0  0  0  0  0  0  0  0  0  0
   10.4550   -1.5620   23.1630 C   0  0  0  0  0  0  0  0  0  0  0  0
    9.4520    3.2420   23.5530 C   0  0  0  0  0  0  0  0  0  0  0  0
   10.1760    4.4190   23.7600 C   0  0  0  0  0  0  0  0  0  0  0  0
    9.6640    5.6620   23.3930 C   0  0  0  0  0  0  0  0  0  0  0  0
    8.3870    5.7330   22.7890 C   0  0  0  0  0  0  0  0  0  0  0  0
    7.6420    4.5340   22.5740 C   0  0  0  0  0  0  0  0  0  0  0  0
    8.1650    3.2850   22.9600 C   0  0  0  0  0  0  0  0  0  0  0  0
    6.7220   -5.1170   21.7850 C   0  0  2  0  0  0  0  0  0  0  0  0
    7.3710   -4.4980   22.8010 C   0  0  2  0  0  0  0  0  0  0  0  0
    6.6890   -4.3130   24.0140 C   0  0  0  0  0  0  0  0  0  0  0  0
    5.8500   -5.5100   24.3420 N   0  0  0  0  0  0  0  0  0  0  0  0
    4.9950   -5.9850   23.2160 C   0  0  0  0  0  0  0  0  0  0  0  0
    5.8140   -6.2430   22.1230 C   0  0  0  0  0  0  0  0  0  0  0  0
    4.2600   -3.0850   26.3720 C   0  0  0  0  0  0  0  0  0  0  0  0
    3.2810   -2.0880   26.4700 C   0  0  0  0  0  0  0  0  0  0  0  0
    1.9470   -2.3810   26.1930 C   0  0  0  0  0  0  0  0  0  0  0  0
    1.5870   -3.6720   25.8070 C   0  0  0  0  0  0  0  0  0  0  0  0
    2.5800   -4.6550   25.7160 C   0  0  0  0  0  0  0  0  0  0  0  0
    3.9180   -4.3530   26.0060 C   0  0  0  0  0  0  0  0  0  0  0  0
  2  4  1  0
  1  7  1  0
  3  7  2  0
  4  7  1  1
  1  8  1  0
  5  9  1  0
  6  9  2  0
  8  9  1  6
 10 11  1  0
 13 14  1  0
 13 15  1  0
 13 16  1  0
 15 17  1  0
 18 19  1  0
  2 20  1  1
 22 24  2  0
 23 24  2  0
 25 26  2  0
 26 27  1  0
 27 28  2  0
  8 29  1  0
 28 29  1  0
 25 30  1  0
 29 30  2  0
 31 32  1  0
  1 33  1  0
 32 33  2  0
 33 34  1  0
 13 35  1  0
 31 35  1  0
 34 35  2  0
 10 36  1  0
 36 37  2  0
 18 38  1  0
 37 38  1  0
 38 39  2  0
 12 40  1  0
 39 40  1  0
  5 41  1  0
 36 41  1  0
 40 41  2  0
  2 42  1  0
  4 42  1  0
  4 43  1  0
 42 43  1  0
 43 44  1  1
 24 45  1  0
 44 45  1  0
 45 46  1  0
 42 47  1  1
 46 47  1  0
 48 49  2  0
 21 50  1  0
 49 50  1  0
 50 51  2  0
 51 52  1  0
 24 53  1  0
 48 53  1  0
 52 53  2  0
M  END
