x1308-x2705-x3117-x3124
     RDKit          3D

 51 57  0  0  0  0  0  0  0  0999 V2000
    6.8590   -1.3990   21.9720 N   0  0  0  0  0  0  0  0  0  0  0  0
    6.8290   -4.4940   20.3780 C   0  0  2  0  0  0  0  0  0  0  0  0
    4.8160   -3.0280   21.3310 O   0  0  0  0  0  0  0  0  0  0  0  0
    7.0690   -3.6690   21.5220 C   0  0  2  0  0  0  0  0  0  0  0  0
    7.4200    2.0420   22.8530 N   0  0  0  0  0  0  0  0  0  0  0  0
    8.8470    0.9060   21.4440 O   0  0  0  0  0  0  0  0  0  0  0  0
    6.0830   -2.6330   21.6030 C   0  0  0  0  0  0  0  0  0  0  0  0
    6.5390    0.0310   21.6220 C   0  0  1  0  0  0  0  0  0  0  0  0
    7.7280    1.0100   21.9590 C   0  0  0  0  0  0  0  0  0  0  0  0
   10.2130    2.0580   23.9550 C   0  0  0  0  0  0  0  0  0  0  0  0
    9.3380    1.2280   24.8980 C   0  0  0  0  0  0  0  0  0  0  0  0
    6.1730    4.5250   21.9180 C   0  0  0  0  0  0  0  0  0  0  0  0
   11.9750   -1.5360   23.2370 C   0  0  0  0  0  0  0  0  0  0  0  0
   12.5130   -0.2090   23.8430 C   0  0  0  0  0  0  0  0  0  0  0  0
   12.4400   -2.7330   24.1050 C   0  0  0  0  0  0  0  0  0  0  0  0
   12.6040   -1.7160   21.8420 C   0  0  0  0  0  0  0  0  0  0  0  0
   13.4020   -2.4840   25.2420 C   0  0  0  0  0  0  0  0  0  0  0  0
    5.5600   -4.3610   19.7340 O   0  0  0  0  0  0  0  0  0  0  0  0
    0.7640   -1.2470   26.3320 Cl  0  0  0  0  0  0  0  0  0  0  0  0
    6.3170   -5.1560   26.8750 O   0  0  0  0  0  0  0  0  0  0  0  0
    4.6410   -6.8610   26.1130 O   0  0  0  0  0  0  0  0  0  0  0  0
    5.2860   -5.5790   25.9560 S   0  0  0  0  0  0  0  0  0  0  0  0
    6.3320    0.3700   17.8900 N   0  0  0  0  0  0  0  0  0  0  0  0
    5.1810    1.0550   17.7960 C   0  0  0  0  0  0  0  0  0  0  0  0
    4.3980    1.4250   18.8550 C   0  0  0  0  0  0  0  0  0  0  0  0
    4.8240    1.0830   20.1120 C   0  0  0  0  0  0  0  0  0  0  0  0
    6.0120    0.3870   20.2730 C   0  0  0  0  0  0  0  0  0  0  0  0
    6.7310    0.0450   19.1290 C   0  0  0  0  0  0  0  0  0  0  0  0
    9.6130   -1.5170   24.2260 N   0  0  0  0  0  0  0  0  0  0  0  0
    8.2980   -1.4920   23.9500 N   0  0  0  0  0  0  0  0  0  0  0  0
    8.1790   -1.4620   22.6150 C   0  0  0  0  0  0  0  0  0  0  0  0
    9.5210   -1.4800   22.0730 C   0  0  0  0  0  0  0  0  0  0  0  0
   10.4290   -1.5120   23.1410 C   0  0  0  0  0  0  0  0  0  0  0  0
    9.4810    3.2850   23.4680 C   0  0  0  0  0  0  0  0  0  0  0  0
   10.1680    4.5160   23.5480 C   0  0  0  0  0  0  0  0  0  0  0  0
    9.5750    5.6980   23.1170 C   0  0  0  0  0  0  0  0  0  0  0  0
    8.2820    5.6740   22.5950 C   0  0  0  0  0  0  0  0  0  0  0  0
    7.5620    4.4650   22.4990 C   0  0  0  0  0  0  0  0  0  0  0  0
    8.1650    3.2590   22.9440 C   0  0  0  0  0  0  0  0  0  0  0  0
    6.9120   -5.2790   21.6500 C   0  0  2  0  0  0  0  0  0  0  0  0
    7.3270   -4.3900   22.7690 C   0  0  2  0  0  0  0  0  0  0  0  0
    6.4640   -4.1540   23.9720 C   0  0  0  0  0  0  0  0  0  0  0  0
    5.8940   -5.4550   24.3600 N   0  0  0  0  0  0  0  0  0  0  0  0
    5.0830   -6.0870   23.2720 C   0  0  0  0  0  0  0  0  0  0  0  0
    5.9350   -6.3460   22.0280 C   0  0  0  0  0  0  0  0  0  0  0  0
    4.3280   -3.0520   26.4240 C   0  0  0  0  0  0  0  0  0  0  0  0
    3.3240   -2.0840   26.5100 C   0  0  0  0  0  0  0  0  0  0  0  0
    2.0010   -2.4330   26.2100 C   0  0  0  0  0  0  0  0  0  0  0  0
    1.6730   -3.7300   25.8170 C   0  0  0  0  0  0  0  0  0  0  0  0
    2.6740   -4.7020   25.7290 C   0  0  0  0  0  0  0  0  0  0  0  0
    3.9970   -4.3570   26.0370 C   0  0  0  0  0  0  0  0  0  0  0  0
  2  4  1  0
  1  7  1  0
  3  7  2  0
  4  7  1  1
  1  8  1  0
  5  9  1  0
  6  9  2  0
  8  9  1  6
 10 11  1  0
 13 14  1  0
 13 15  1  0
 13 16  1  0
 15 17  1  0
  2 18  1  1
 20 22  2  0
 21 22  2  0
 23 24  2  0
 24 25  1  0
 25 26  2  0
  8 27  1  0
 26 27  1  0
 23 28  1  0
 27 28  2  0
 29 30  1  0
  1 31  1  0
 30 31  2  0
 31 32  1  0
 13 33  1  0
 29 33  1  0
 32 33  2  0
 10 34  1  0
 34 35  2  0
 35 36  1  0
 36 37  2  0
 12 38  1  0
 37 38  1  0
  5 39  1  0
 34 39  1  0
 38 39  2  0
  2 40  1  0
  4 40  1  0
  4 41  1  0
 40 41  1  0
 41 42  1  1
 22 43  1  0
 42 43  1  0
 43 44  1  0
 40 45  1  1
 44 45  1  0
 46 47  2  0
 19 48  1  0
 47 48  1  0
 48 49  2  0
 49 50  1  0
 22 51  1  0
 46 51  1  0
 50 51  2  0
M  END
