x1308-x1402-x2705-x3117
     RDKit          3D

 51 57  0  0  0  0  0  0  0  0999 V2000
    6.7940   -1.4450   22.0980 N   0  0  0  0  0  0  0  0  0  0  0  0
    6.7160   -4.5270   20.2810 C   0  0  2  0  0  0  0  0  0  0  0  0
    4.7340   -2.9860   21.4250 O   0  0  0  0  0  0  0  0  0  0  0  0
    6.8600   -3.7290   21.4590 C   0  0  2  0  0  0  0  0  0  0  0  0
    7.3940    2.1100   22.7650 N   0  0  0  0  0  0  0  0  0  0  0  0
    8.7670    0.9120   21.4970 O   0  0  0  0  0  0  0  0  0  0  0  0
    6.0130   -2.6570   21.6740 C   0  0  0  0  0  0  0  0  0  0  0  0
    6.4920   -0.0310   21.6400 C   0  0  1  0  0  0  0  0  0  0  0  0
    7.6230    1.0050   21.9690 C   0  0  0  0  0  0  0  0  0  0  0  0
   10.2050    2.1160   23.9650 C   0  0  0  0  0  0  0  0  0  0  0  0
    9.3630    1.2520   24.8970 C   0  0  0  0  0  0  0  0  0  0  0  0
    6.1830    4.5200   21.8950 C   0  0  0  0  0  0  0  0  0  0  0  0
   11.8920   -1.5350   23.2140 C   0  0  0  0  0  0  0  0  0  0  0  0
   12.4710   -0.2310   23.8120 C   0  0  0  0  0  0  0  0  0  0  0  0
   12.3360   -2.6980   24.1080 C   0  0  0  0  0  0  0  0  0  0  0  0
   12.5380   -1.7600   21.8950 C   0  0  0  0  0  0  0  0  0  0  0  0
   13.3530   -2.4070   25.1940 C   0  0  0  0  0  0  0  0  0  0  0  0
    5.4860   -4.4130   19.5840 O   0  0  0  0  0  0  0  0  0  0  0  0
    0.6830   -1.1890   26.5430 Cl  0  0  0  0  0  0  0  0  0  0  0  0
    6.1700   -5.1890   26.7680 O   0  0  0  0  0  0  0  0  0  0  0  0
    4.5710   -6.8230   25.7700 O   0  0  0  0  0  0  0  0  0  0  0  0
    5.1920   -5.5190   25.7720 S   0  0  0  0  0  0  0  0  0  0  0  0
    6.3420    0.3280   17.8780 N   0  0  0  0  0  0  0  0  0  0  0  0
    5.2030    1.0300   17.8010 C   0  0  0  0  0  0  0  0  0  0  0  0
    4.4320    1.3930   18.8660 C   0  0  0  0  0  0  0  0  0  0  0  0
    4.8510    1.0270   20.1280 C   0  0  0  0  0  0  0  0  0  0  0  0
    6.0190    0.3190   20.2590 C   0  0  0  0  0  0  0  0  0  0  0  0
    6.7430   -0.0230   19.1090 C   0  0  0  0  0  0  0  0  0  0  0  0
    9.6820   -1.4900   24.2960 N   0  0  0  0  0  0  0  0  0  0  0  0
    8.3420   -1.4730   24.0600 N   0  0  0  0  0  0  0  0  0  0  0  0
    8.1250   -1.4860   22.7100 C   0  0  0  0  0  0  0  0  0  0  0  0
    9.4300   -1.5200   22.1080 C   0  0  0  0  0  0  0  0  0  0  0  0
   10.3570   -1.5170   23.1520 C   0  0  0  0  0  0  0  0  0  0  0  0
    9.4620    3.3450   23.4860 C   0  0  0  0  0  0  0  0  0  0  0  0
   10.1900    4.5770   23.6380 C   0  0  0  0  0  0  0  0  0  0  0  0
    9.5300    5.7240   23.1970 C   0  0  0  0  0  0  0  0  0  0  0  0
    8.2400    5.6740   22.6400 C   0  0  0  0  0  0  0  0  0  0  0  0
    7.5620    4.4720   22.5070 C   0  0  0  0  0  0  0  0  0  0  0  0
    8.1650    3.2990   22.9320 C   0  0  0  0  0  0  0  0  0  0  0  0
    6.6480   -5.2250   21.5770 C   0  0  2  0  0  0  0  0  0  0  0  0
    7.4280   -4.5570   22.5660 C   0  0  2  0  0  0  0  0  0  0  0  0
    7.2000   -4.8410   23.9330 C   0  0  0  0  0  0  0  0  0  0  0  0
    5.7440   -5.1640   24.1960 N   0  0  0  0  0  0  0  0  0  0  0  0
    4.9630   -5.7700   23.0420 C   0  0  0  0  0  0  0  0  0  0  0  0
    5.8170   -6.3120   22.0610 C   0  0  0  0  0  0  0  0  0  0  0  0
    4.2290   -3.0530   26.4000 C   0  0  0  0  0  0  0  0  0  0  0  0
    3.2110   -2.0930   26.5670 C   0  0  0  0  0  0  0  0  0  0  0  0
    1.8740   -2.3990   26.3070 C   0  0  0  0  0  0  0  0  0  0  0  0
    1.4710   -3.6600   25.8650 C   0  0  0  0  0  0  0  0  0  0  0  0
    2.4580   -4.6880   25.6730 C   0  0  0  0  0  0  0  0  0  0  0  0
    3.9170   -4.3330   25.9680 C   0  0  0  0  0  0  0  0  0  0  0  0
  2  4  1  0
  1  7  1  0
  3  7  2  0
  4  7  1  1
  1  8  1  0
  5  9  1  0
  6  9  2  0
  8  9  1  6
 10 11  1  0
 13 14  1  0
 13 15  1  0
 13 16  1  0
 15 17  1  0
  2 18  1  1
 20 22  2  0
 21 22  2  0
 23 24  2  0
 24 25  1  0
 25 26  2  0
  8 27  1  0
 26 27  1  0
 23 28  1  0
 27 28  2  0
 29 30  1  0
  1 31  1  0
 30 31  2  0
 31 32  1  0
 13 33  1  0
 29 33  1  0
 32 33  2  0
 10 34  1  0
 34 35  2  0
 35 36  1  0
 36 37  2  0
 12 38  1  0
 37 38  1  0
  5 39  1  0
 34 39  1  0
 38 39  2  0
  2 40  1  0
  4 40  1  0
  4 41  1  0
 40 41  1  0
 41 42  1  1
 22 43  1  0
 42 43  1  0
 43 44  1  0
 40 45  1  1
 44 45  1  0
 46 47  2  0
 19 48  1  0
 47 48  1  0
 48 49  2  0
 49 50  1  0
 22 51  1  0
 46 51  1  0
 50 51  2  0
M  END
