x1308-x0104
     RDKit          3D

 19 20  0  0  0  0  0  0  0  0999 V2000
    7.4260   -3.0950   20.8170 C   0  0  0  0  0  0  0  0  0  0  0  0
    5.5940   -4.4540   20.0120 O   0  0  0  0  0  0  0  0  0  0  0  0
    0.7390   -1.2200   26.3690 Cl  0  0  0  0  0  0  0  0  0  0  0  0
    6.5120   -4.3020   20.8380 C   0  0  0  0  0  0  0  0  0  0  0  0
    6.3450   -5.0200   26.8720 O   0  0  0  0  0  0  0  0  0  0  0  0
    4.6680   -6.7500   26.0870 O   0  0  0  0  0  0  0  0  0  0  0  0
    5.2870   -5.4500   25.9850 S   0  0  0  0  0  0  0  0  0  0  0  0
    6.8290   -5.1950   21.8340 N   0  0  0  0  0  0  0  0  0  0  0  0
    7.7100   -4.7850   22.9080 C   0  0  0  0  0  0  0  0  0  0  0  0
    6.9050   -4.3260   24.1090 C   0  0  0  0  0  0  0  0  0  0  0  0
    5.8480   -5.3240   24.3870 N   0  0  0  0  0  0  0  0  0  0  0  0
    5.0580   -5.7330   23.3230 C   0  0  0  0  0  0  0  0  0  0  0  0
    5.7880   -6.1750   22.2260 C   0  0  0  0  0  0  0  0  0  0  0  0
    4.3210   -2.9710   26.4430 C   0  0  0  0  0  0  0  0  0  0  0  0
    3.2960   -2.0330   26.5260 C   0  0  0  0  0  0  0  0  0  0  0  0
    1.9930   -2.3900   26.2500 C   0  0  0  0  0  0  0  0  0  0  0  0
    1.6960   -3.7040   25.8770 C   0  0  0  0  0  0  0  0  0  0  0  0
    2.7190   -4.6560   25.7900 C   0  0  0  0  0  0  0  0  0  0  0  0
    4.0380   -4.2880   26.0770 C   0  0  0  0  0  0  0  0  0  0  0  0
  1  4  1  0
  2  4  2  0
  5  7  2  0
  6  7  2  0
  4  8  1  0
  8  9  1  0
  9 10  1  0
  7 11  1  0
 10 11  1  0
 11 12  1  0
  8 13  1  0
 12 13  1  0
 14 15  2  0
  3 16  1  0
 15 16  1  0
 16 17  2  0
 17 18  1  0
  7 19  1  0
 14 19  1  0
 18 19  2  0
M  END
