x1308-x0771-x2705-x0755
     RDKit          3D

 52 58  0  0  0  0  0  0  0  0999 V2000
    6.9660   -1.3920   21.7400 N   0  0  0  0  0  0  0  0  0  0  0  0
    6.7410   -4.1950   20.2810 C   0  0  2  0  0  0  0  0  0  0  0  0
    4.9770   -3.3230   21.3870 O   0  0  0  0  0  0  0  0  0  0  0  0
    6.7930   -3.3620   21.4780 C   0  0  2  0  0  0  0  0  0  0  0  0
    7.4900    2.0550   22.7690 N   0  0  0  0  0  0  0  0  0  0  0  0
    8.8150    1.2140   21.0790 O   0  0  0  0  0  0  0  0  0  0  0  0
    5.7840   -2.3130   21.5630 C   0  0  0  0  0  0  0  0  0  0  0  0
    6.6760    0.0600   21.4970 C   0  0  1  0  0  0  0  0  0  0  0  0
    7.7880    1.1430   21.7550 C   0  0  0  0  0  0  0  0  0  0  0  0
   10.2510    2.1260   23.9430 C   0  0  0  0  0  0  0  0  0  0  0  0
    9.3980    1.2150   24.8240 C   0  0  0  0  0  0  0  0  0  0  0  0
    6.1590    4.5810   21.9080 C   0  0  0  0  0  0  0  0  0  0  0  0
   12.0710   -1.5760   23.3200 C   0  0  0  0  0  0  0  0  0  0  0  0
   12.5670   -0.2010   23.8200 C   0  0  0  0  0  0  0  0  0  0  0  0
   12.5310   -2.6290   24.3490 C   0  0  0  0  0  0  0  0  0  0  0  0
   12.7420   -1.8680   22.0240 C   0  0  0  0  0  0  0  0  0  0  0  0
    5.5230   -4.2220   19.5590 O   0  0  0  0  0  0  0  0  0  0  0  0
    0.6150   -1.3270   26.1990 C   0  0  0  0  0  0  0  0  0  0  0  0
    4.6530   -6.7990   25.7760 O   0  0  0  0  0  0  0  0  0  0  0  0
    6.1270   -4.9930   26.6900 O   0  0  0  0  0  0  0  0  0  0  0  0
    2.0020   -6.1610   25.0250 C   0  0  0  0  0  0  0  0  0  0  0  0
    5.1760   -5.4520   25.7070 S   0  0  0  0  0  0  0  0  0  0  0  0
    5.2800   -2.5530   26.4980 F   0  0  0  0  0  0  0  0  0  0  0  0
    6.3340    0.4620   17.8300 N   0  0  0  0  0  0  0  0  0  0  0  0
    5.1780    1.1380   17.7660 C   0  0  0  0  0  0  0  0  0  0  0  0
    4.3910    1.5050   18.8560 C   0  0  0  0  0  0  0  0  0  0  0  0
    4.8340    1.1600   20.1250 C   0  0  0  0  0  0  0  0  0  0  0  0
    6.0360    0.4730   20.2070 C   0  0  0  0  0  0  0  0  0  0  0  0
    6.7410    0.1400   19.0570 C   0  0  0  0  0  0  0  0  0  0  0  0
    9.7170   -1.6950   24.2680 N   0  0  0  0  0  0  0  0  0  0  0  0
    8.4360   -1.6540   23.8190 N   0  0  0  0  0  0  0  0  0  0  0  0
    8.2650   -1.5110   22.4460 C   0  0  0  0  0  0  0  0  0  0  0  0
    9.6340   -1.4670   21.9920 C   0  0  0  0  0  0  0  0  0  0  0  0
   10.5230   -1.5830   23.2130 C   0  0  0  0  0  0  0  0  0  0  0  0
    9.4860    3.3480   23.4940 C   0  0  0  0  0  0  0  0  0  0  0  0
   10.1260    4.5850   23.6380 C   0  0  0  0  0  0  0  0  0  0  0  0
    9.5100    5.7770   23.2430 C   0  0  0  0  0  0  0  0  0  0  0  0
    8.2180    5.7720   22.6800 C   0  0  0  0  0  0  0  0  0  0  0  0
    7.5330    4.5430   22.5160 C   0  0  0  0  0  0  0  0  0  0  0  0
    8.1890    3.2790   22.9420 C   0  0  0  0  0  0  0  0  0  0  0  0
    1.6820   -2.3590   26.0490 C   0  0  0  0  0  0  0  0  0  0  0  0
    1.3500   -3.7440   25.6090 C   0  0  0  0  0  0  0  0  0  0  0  0
    2.3950   -4.7780   25.4680 C   0  0  0  0  0  0  0  0  0  0  0  0
    3.8130   -4.3270   25.8010 C   0  0  0  0  0  0  0  0  0  0  0  0
    4.0490   -2.9960   26.2010 C   0  0  0  0  0  0  0  0  0  0  0  0
    3.0150   -2.0460   26.3200 C   0  0  0  0  0  0  0  0  0  0  0  0
    6.7180   -4.9540   21.5310 C   0  0  1  0  0  0  0  0  0  0  0  0
    5.7420   -5.9090   21.8800 C   0  0  0  0  0  0  0  0  0  0  0  0
    4.9810   -5.6880   23.0210 C   0  0  0  0  0  0  0  0  0  0  0  0
    5.8440   -5.2860   24.1490 N   0  0  0  0  0  0  0  0  0  0  0  0
    6.6800   -4.0770   23.8600 C   0  0  0  0  0  0  0  0  0  0  0  0
    7.3470   -4.1460   22.6110 C   0  0  2  0  0  0  0  0  0  0  0  0
  2  4  1  0
  1  7  1  0
  3  7  2  0
  4  7  1  1
  1  8  1  0
  5  9  1  0
  6  9  2  0
  8  9  1  6
 10 11  1  0
 13 14  1  0
 13 15  1  0
 13 16  1  0
  2 17  1  1
 19 22  2  0
 20 22  2  0
 24 25  2  0
 25 26  1  0
 26 27  2  0
  8 28  1  0
 27 28  1  0
 24 29  1  0
 28 29  2  0
 30 31  1  0
  1 32  1  0
 31 32  2  0
 32 33  1  0
 13 34  1  0
 30 34  1  0
 33 34  2  0
 10 35  1  0
 35 36  2  0
 36 37  1  0
 37 38  2  0
 12 39  1  0
 38 39  1  0
  5 40  1  0
 35 40  1  0
 39 40  2  0
 18 41  1  0
 41 42  2  0
 21 43  1  0
 42 43  1  0
 22 44  1  0
 43 44  2  0
 23 45  1  0
 44 45  1  0
 41 46  1  0
 45 46  2  0
  2 47  1  0
  4 47  1  0
 47 48  1  1
 48 49  1  0
 22 50  1  0
 49 50  1  0
 50 51  1  0
  4 52  1  0
 47 52  1  0
 52 51  1  1
M  END
