x1308-x2569
     RDKit          3D

 39 42  0  0  0  0  0  0  0  0999 V2000
    7.7280   -3.6240   20.1610 C   0  0  0  0  0  0  0  0  0  0  0  0
    5.5670   -4.7400   19.9910 O   0  0  0  0  0  0  0  0  0  0  0  0
    0.7210   -1.2670   26.4020 Cl  0  0  0  0  0  0  0  0  0  0  0  0
    6.6090   -4.5860   20.6390 C   0  0  0  0  0  0  0  0  0  0  0  0
    6.5330   -5.0120   26.8770 O   0  0  0  0  0  0  0  0  0  0  0  0
    4.7580   -6.9140   26.2520 O   0  0  0  0  0  0  0  0  0  0  0  0
    5.3430   -5.4710   25.9230 S   0  0  0  0  0  0  0  0  0  0  0  0
    8.0930    0.4710   21.7290 C   0  0  0  0  0  0  0  0  0  0  0  0
    8.7470    1.3970   21.1980 O   0  0  0  0  0  0  0  0  0  0  0  0
    8.5100   -0.0550   23.0890 C   0  0  0  0  0  0  0  0  0  0  0  0
   13.6370   -2.2180   20.7390 N   0  0  0  0  0  0  0  0  0  0  0  0
    6.9970   -0.1280   21.1390 N   0  0  0  0  0  0  0  0  0  0  0  0
   13.0640   -1.6690   21.5150 C   0  0  0  0  0  0  0  0  0  0  0  0
    7.1610   -2.2410   19.8550 C   0  0  0  0  0  0  0  0  0  0  0  0
    7.0340   -1.4550   21.1500 C   0  0  0  0  0  0  0  0  0  0  0  0
    6.7820   -5.2940   21.8190 N   0  0  0  0  0  0  0  0  0  0  0  0
    7.6360   -4.7130   22.8650 C   0  0  0  0  0  0  0  0  0  0  0  0
    6.9090   -4.4100   23.9990 C   0  0  0  0  0  0  0  0  0  0  0  0
    5.8720   -5.4570   24.3000 N   0  0  0  0  0  0  0  0  0  0  0  0
    4.8340   -5.6360   23.2770 C   0  0  0  0  0  0  0  0  0  0  0  0
    5.8250   -6.2860   22.3070 C   0  0  0  0  0  0  0  0  0  0  0  0
    4.3320   -2.9730   26.4180 C   0  0  0  0  0  0  0  0  0  0  0  0
    3.3040   -2.0380   26.5260 C   0  0  0  0  0  0  0  0  0  0  0  0
    1.9880   -2.4180   26.2530 C   0  0  0  0  0  0  0  0  0  0  0  0
    1.6970   -3.7230   25.8650 C   0  0  0  0  0  0  0  0  0  0  0  0
    2.7170   -4.6640   25.7550 C   0  0  0  0  0  0  0  0  0  0  0  0
    4.0320   -4.2820   26.0360 C   0  0  0  0  0  0  0  0  0  0  0  0
   12.1540    0.5690   24.2600 N   0  0  0  0  0  0  0  0  0  0  0  0
   12.8630   -0.1800   23.3890 C   0  0  0  0  0  0  0  0  0  0  0  0
   12.2910   -0.9340   22.3860 C   0  0  0  0  0  0  0  0  0  0  0  0
   10.8060   -0.9580   22.2140 C   0  0  0  0  0  0  0  0  0  0  0  0
    9.9800   -0.1310   23.1600 C   0  0  0  0  0  0  0  0  0  0  0  0
   10.8050    0.6180   24.1800 C   0  0  0  0  0  0  0  0  0  0  0  0
    6.3400    0.7580   17.6540 N   0  0  0  0  0  0  0  0  0  0  0  0
    6.8680    0.2650   18.7720 C   0  0  0  0  0  0  0  0  0  0  0  0
    6.3410    0.4270   20.0320 C   0  0  0  0  0  0  0  0  0  0  0  0
    5.1720    1.1380   20.1600 C   0  0  0  0  0  0  0  0  0  0  0  0
    4.5760    1.6720   19.0220 C   0  0  0  0  0  0  0  0  0  0  0  0
    5.2060    1.4560   17.7880 C   0  0  0  0  0  0  0  0  0  0  0  0
  1  4  1  0
  2  4  2  0
  5  7  2  0
  6  7  2  0
  8  9  2  0
  8 10  1  0
  8 12  1  0
 11 13  3  0
  1 14  1  0
 12 15  1  0
 14 15  1  0
  4 16  1  0
 16 17  1  0
 17 18  1  0
  7 19  1  0
 18 19  1  0
 19 20  1  0
 16 21  1  0
 20 21  1  0
 22 23  2  0
  3 24  1  0
 23 24  1  0
 24 25  2  0
 25 26  1  0
  7 27  1  0
 22 27  1  0
 26 27  2  0
 28 29  2  0
 13 30  1  0
 29 30  1  0
 30 31  2  0
 10 32  1  0
 31 32  1  0
 28 33  1  0
 32 33  2  0
 34 35  2  0
 12 36  1  0
 35 36  1  0
 36 37  2  0
 37 38  1  0
 34 39  1  0
 38 39  2  0
M  END
