x1308-x0771-x2705-x0731
     RDKit          3D

 51 57  0  0  0  0  0  0  0  0999 V2000
    6.8610   -1.4030   21.9520 N   0  0  0  0  0  0  0  0  0  0  0  0
    6.7890   -4.5930   20.3820 C   0  0  2  0  0  0  0  0  0  0  0  0
    4.8060   -2.9840   21.2710 O   0  0  0  0  0  0  0  0  0  0  0  0
    7.0360   -3.7150   21.5820 C   0  0  2  0  0  0  0  0  0  0  0  0
    7.4720    2.0360   22.8400 N   0  0  0  0  0  0  0  0  0  0  0  0
    8.8270    0.9060   21.4050 O   0  0  0  0  0  0  0  0  0  0  0  0
    6.0910   -2.6210   21.5850 C   0  0  0  0  0  0  0  0  0  0  0  0
    6.5350    0.0170   21.6240 C   0  0  1  0  0  0  0  0  0  0  0  0
    7.7260    1.0060   21.9450 C   0  0  0  0  0  0  0  0  0  0  0  0
   10.1400    2.0560   23.9610 C   0  0  0  0  0  0  0  0  0  0  0  0
    9.2680    1.2280   24.9190 C   0  0  0  0  0  0  0  0  0  0  0  0
    6.1760    4.5880   21.9000 C   0  0  0  0  0  0  0  0  0  0  0  0
   11.9980   -1.5530   23.2160 C   0  0  0  0  0  0  0  0  0  0  0  0
   12.5400   -0.1660   23.6460 C   0  0  0  0  0  0  0  0  0  0  0  0
   12.4550   -2.5680   24.3060 C   0  0  0  0  0  0  0  0  0  0  0  0
   12.6710   -1.9040   21.8660 C   0  0  0  0  0  0  0  0  0  0  0  0
    5.5530   -4.2290   19.7900 O   0  0  0  0  0  0  0  0  0  0  0  0
    0.7230   -1.4230   26.2090 C   0  0  0  0  0  0  0  0  0  0  0  0
    4.3480   -7.1780   25.7910 O   0  0  0  0  0  0  0  0  0  0  0  0
    6.1280   -5.4200   26.8220 O   0  0  0  0  0  0  0  0  0  0  0  0
    1.8950   -6.0530   24.9150 C   0  0  0  0  0  0  0  0  0  0  0  0
    4.9890   -5.7220   25.7010 S   0  0  0  0  0  0  0  0  0  0  0  0
    6.3690    0.4800   17.9110 N   0  0  0  0  0  0  0  0  0  0  0  0
    5.2110    1.2060   17.7390 C   0  0  0  0  0  0  0  0  0  0  0  0
    4.3670    1.5900   18.7380 C   0  0  0  0  0  0  0  0  0  0  0  0
    4.7580    1.1920   20.1240 C   0  0  0  0  0  0  0  0  0  0  0  0
    5.9980    0.4360   20.2940 C   0  0  0  0  0  0  0  0  0  0  0  0
    6.7400    0.1100   19.1630 C   0  0  0  0  0  0  0  0  0  0  0  0
    9.7700   -1.5880   24.2740 N   0  0  0  0  0  0  0  0  0  0  0  0
    8.4540   -1.5540   23.9440 N   0  0  0  0  0  0  0  0  0  0  0  0
    8.1870   -1.4800   22.5930 C   0  0  0  0  0  0  0  0  0  0  0  0
    9.5040   -1.4770   22.1040 C   0  0  0  0  0  0  0  0  0  0  0  0
   10.4490   -1.5400   23.1470 C   0  0  0  0  0  0  0  0  0  0  0  0
    9.4270    3.3050   23.4870 C   0  0  0  0  0  0  0  0  0  0  0  0
   10.1010    4.5130   23.6060 C   0  0  0  0  0  0  0  0  0  0  0  0
    9.5140    5.6970   23.1860 C   0  0  0  0  0  0  0  0  0  0  0  0
    8.2000    5.7370   22.6150 C   0  0  0  0  0  0  0  0  0  0  0  0
    7.5510    4.5030   22.5110 C   0  0  0  0  0  0  0  0  0  0  0  0
    8.1270    3.3030   22.9330 C   0  0  0  0  0  0  0  0  0  0  0  0
    1.7610   -2.4820   26.0580 C   0  0  0  0  0  0  0  0  0  0  0  0
    1.3940   -3.7310   25.5700 C   0  0  0  0  0  0  0  0  0  0  0  0
    2.3540   -4.7370   25.4390 C   0  0  0  0  0  0  0  0  0  0  0  0
    3.6760   -4.4850   25.8010 C   0  0  0  0  0  0  0  0  0  0  0  0
    4.0530   -3.2330   26.2810 C   0  0  0  0  0  0  0  0  0  0  0  0
    3.0860   -2.2110   26.4140 C   0  0  0  0  0  0  0  0  0  0  0  0
    6.9060   -5.3330   21.6710 C   0  0  1  0  0  0  0  0  0  0  0  0
    5.9260   -6.4270   22.0110 C   0  0  0  0  0  0  0  0  0  0  0  0
    4.9800   -5.8710   22.9650 C   0  0  0  0  0  0  0  0  0  0  0  0
    5.7300   -5.5600   24.2050 N   0  0  0  0  0  0  0  0  0  0  0  0
    6.4430   -4.2630   24.0320 C   0  0  0  0  0  0  0  0  0  0  0  0
    7.3300   -4.3990   22.7920 C   0  0  2  0  0  0  0  0  0  0  0  0
  2  4  1  0
  1  7  1  0
  3  7  2  0
  4  7  1  1
  1  8  1  0
  5  9  1  0
  6  9  2  0
  8  9  1  6
 10 11  1  0
 13 14  1  0
 13 15  1  0
 13 16  1  0
  2 17  1  1
 19 22  2  0
 20 22  2  0
 23 24  2  0
 24 25  1  0
 25 26  2  0
  8 27  1  0
 26 27  1  0
 23 28  1  0
 27 28  2  0
 29 30  1  0
  1 31  1  0
 30 31  1  0
 31 32  2  0
 13 33  1  0
 29 33  2  0
 32 33  1  0
 10 34  1  0
 34 35  2  0
 35 36  1  0
 36 37  2  0
 12 38  1  0
 37 38  1  0
  5 39  1  0
 34 39  1  0
 38 39  2  0
 18 40  1  0
 40 41  2  0
 21 42  1  0
 41 42  1  0
 22 43  1  0
 42 43  2  0
 43 44  1  0
 40 45  1  0
 44 45  2  0
  2 46  1  0
  4 46  1  0
 46 47  1  1
 47 48  1  0
 22 49  1  0
 48 49  1  0
 49 50  1  0
  4 51  1  0
 46 51  1  0
 51 50  1  1
M  END
