x1308-x2705-x0769-x2643
     RDKit          3D

 51 57  0  0  0  0  0  0  0  0999 V2000
    6.8050   -1.4790   22.1340 N   0  0  0  0  0  0  0  0  0  0  0  0
    6.7220   -4.6240   20.3340 C   0  0  2  0  0  0  0  0  0  0  0  0
    4.7170   -3.0110   21.5070 O   0  0  0  0  0  0  0  0  0  0  0  0
    6.8380   -3.7870   21.5470 C   0  0  2  0  0  0  0  0  0  0  0  0
    7.4800    2.0200   22.8910 N   0  0  0  0  0  0  0  0  0  0  0  0
    8.7690    0.9070   21.4750 O   0  0  0  0  0  0  0  0  0  0  0  0
    5.9970   -2.7010   21.7560 C   0  0  0  0  0  0  0  0  0  0  0  0
    6.5090   -0.0530   21.6750 C   0  0  1  0  0  0  0  0  0  0  0  0
    7.6530    0.9690   22.0130 C   0  0  0  0  0  0  0  0  0  0  0  0
   10.1100    2.1030   23.9810 C   0  0  0  0  0  0  0  0  0  0  0  0
    9.2450    1.2930   24.9380 C   0  0  0  0  0  0  0  0  0  0  0  0
    6.1660    4.6060   21.8830 C   0  0  0  0  0  0  0  0  0  0  0  0
   11.9630   -1.5540   23.2380 C   0  0  0  0  0  0  0  0  0  0  0  0
   12.5170   -0.1980   23.7290 C   0  0  0  0  0  0  0  0  0  0  0  0
   12.4730   -2.6010   24.2500 C   0  0  0  0  0  0  0  0  0  0  0  0
   12.5910   -1.8480   21.9250 C   0  0  0  0  0  0  0  0  0  0  0  0
    5.5020   -4.5180   19.6140 O   0  0  0  0  0  0  0  0  0  0  0  0
    0.5900   -1.3070   26.4160 Cl  0  0  0  0  0  0  0  0  0  0  0  0
    6.4500   -4.8360   26.6060 O   0  0  0  0  0  0  0  0  0  0  0  0
    4.8330   -6.6230   25.9550 O   0  0  0  0  0  0  0  0  0  0  0  0
    5.4140   -5.3150   25.7310 S   0  0  0  0  0  0  0  0  0  0  0  0
    5.5370   -2.3860   26.5200 F   0  0  0  0  0  0  0  0  0  0  0  0
    6.3520    0.2100   17.8880 N   0  0  0  0  0  0  0  0  0  0  0  0
    5.2200    0.9200   17.8230 C   0  0  0  0  0  0  0  0  0  0  0  0
    4.4670    1.3170   18.8800 C   0  0  0  0  0  0  0  0  0  0  0  0
    4.8700    0.9920   20.1370 C   0  0  0  0  0  0  0  0  0  0  0  0
    6.0540    0.2580   20.2670 C   0  0  0  0  0  0  0  0  0  0  0  0
    6.7530   -0.1130   19.1270 C   0  0  0  0  0  0  0  0  0  0  0  0
    9.8170   -1.3610   24.3710 N   0  0  0  0  0  0  0  0  0  0  0  0
    8.4920   -1.3490   24.0650 N   0  0  0  0  0  0  0  0  0  0  0  0
    8.1610   -1.4900   22.6920 C   0  0  0  0  0  0  0  0  0  0  0  0
    9.4770   -1.6070   22.1310 C   0  0  0  0  0  0  0  0  0  0  0  0
   10.4150   -1.5160   23.1850 C   0  0  0  0  0  0  0  0  0  0  0  0
    9.4150    3.3630   23.4890 C   0  0  0  0  0  0  0  0  0  0  0  0
   10.1540    4.5450   23.6150 C   0  0  0  0  0  0  0  0  0  0  0  0
    9.5400    5.7720   23.1540 C   0  0  0  0  0  0  0  0  0  0  0  0
    8.2680    5.6520   22.6240 C   0  0  0  0  0  0  0  0  0  0  0  0
    7.5330    4.4740   22.4990 C   0  0  0  0  0  0  0  0  0  0  0  0
    8.1040    3.3060   22.9390 C   0  0  0  0  0  0  0  0  0  0  0  0
    6.5750   -5.3340   21.5380 C   0  0  2  0  0  0  0  0  0  0  0  0
    7.4060   -4.8720   22.4770 C   0  0  2  0  0  0  0  0  0  0  0  0
    6.7540   -4.1180   23.4910 C   0  0  0  0  0  0  0  0  0  0  0  0
    5.8590   -5.2040   24.0740 N   0  0  0  0  0  0  0  0  0  0  0  0
    4.9100   -5.7270   23.0400 C   0  0  0  0  0  0  0  0  0  0  0  0
    5.6570   -6.3380   22.0130 C   0  0  0  0  0  0  0  0  0  0  0  0
    4.3040   -2.8510   26.2910 C   0  0  0  0  0  0  0  0  0  0  0  0
    3.2150   -1.9690   26.4400 C   0  0  0  0  0  0  0  0  0  0  0  0
    1.8950   -2.4060   26.2130 C   0  0  0  0  0  0  0  0  0  0  0  0
    1.6410   -3.7170   25.8300 C   0  0  0  0  0  0  0  0  0  0  0  0
    2.7060   -4.5930   25.6810 C   0  0  0  0  0  0  0  0  0  0  0  0
    4.0650   -4.1700   25.9140 C   0  0  0  0  0  0  0  0  0  0  0  0
  2  4  1  0
  1  7  1  0
  3  7  2  0
  4  7  1  6
  1  8  1  0
  5  9  1  0
  6  9  2  0
  8  9  1  6
 10 11  1  0
 13 14  1  0
 13 15  1  0
 13 16  1  0
  2 17  1  6
 19 21  2  0
 20 21  2  0
 23 24  2  0
 24 25  1  0
 25 26  2  0
  8 27  1  0
 26 27  1  0
 23 28  1  0
 27 28  2  0
 29 30  1  0
  1 31  1  0
 30 31  1  0
 31 32  2  0
 13 33  1  0
 29 33  2  0
 32 33  1  0
 10 34  1  0
 34 35  2  0
 35 36  1  0
 36 37  2  0
 12 38  1  0
 37 38  1  0
  5 39  1  0
 34 39  1  0
 38 39  2  0
  2 40  1  0
  4 40  1  0
  4 41  1  0
 40 41  1  0
 41 42  1  1
 21 43  1  0
 42 43  1  0
 43 44  1  0
 40 45  1  6
 44 45  1  0
 22 46  1  0
 46 47  2  0
 18 48  1  0
 47 48  1  0
 48 49  2  0
 49 50  1  0
 21 51  1  0
 46 51  1  0
 50 51  2  0
M  END
