x1308-x2705-x3117-x2649
     RDKit          3D

 52 58  0  0  0  0  0  0  0  0999 V2000
    6.8580   -1.4650   21.9520 N   0  0  0  0  0  0  0  0  0  0  0  0
    6.5530   -4.5260   20.2870 C   0  0  2  0  0  0  0  0  0  0  0  0
    4.7250   -2.9240   21.3340 O   0  0  0  0  0  0  0  0  0  0  0  0
    6.7490   -3.8640   21.4310 C   0  0  2  0  0  0  0  0  0  0  0  0
    7.4500    2.0790   22.7460 N   0  0  0  0  0  0  0  0  0  0  0  0
    8.8780    0.7750   21.5340 O   0  0  0  0  0  0  0  0  0  0  0  0
    6.0180   -2.6600   21.5840 C   0  0  0  0  0  0  0  0  0  0  0  0
    6.5770   -0.0320   21.5750 C   0  0  1  0  0  0  0  0  0  0  0  0
    7.7340    0.9630   21.9630 C   0  0  0  0  0  0  0  0  0  0  0  0
   10.1690    2.0340   23.9600 C   0  0  0  0  0  0  0  0  0  0  0  0
    9.3310    1.1830   24.9120 C   0  0  0  0  0  0  0  0  0  0  0  0
    6.1420    4.4520   21.8620 C   0  0  0  0  0  0  0  0  0  0  0  0
   11.9740   -1.5490   23.1960 C   0  0  0  0  0  0  0  0  0  0  0  0
   12.4920   -0.2120   23.7880 C   0  0  0  0  0  0  0  0  0  0  0  0
   12.4370   -2.7400   24.0840 C   0  0  0  0  0  0  0  0  0  0  0  0
   12.6640   -1.7520   21.8290 C   0  0  0  0  0  0  0  0  0  0  0  0
   13.3960   -2.4860   25.2210 C   0  0  0  0  0  0  0  0  0  0  0  0
    5.4200   -4.2440   19.4940 O   0  0  0  0  0  0  0  0  0  0  0  0
    0.7420   -1.0530   26.3080 Cl  0  0  0  0  0  0  0  0  0  0  0  0
    6.1820   -5.2100   26.7280 O   0  0  0  0  0  0  0  0  0  0  0  0
    4.5740   -6.8850   25.9470 O   0  0  0  0  0  0  0  0  0  0  0  0
    5.1350   -5.5610   25.8180 S   0  0  0  0  0  0  0  0  0  0  0  0
    4.1120    1.4550   21.2840 C   0  0  0  0  0  0  0  0  0  0  0  0
    6.4030    0.3380   17.8140 N   0  0  0  0  0  0  0  0  0  0  0  0
    5.1870    1.1120   17.7440 C   0  0  0  0  0  0  0  0  0  0  0  0
    4.4910    1.4350   18.8910 C   0  0  0  0  0  0  0  0  0  0  0  0
    4.9510    1.0390   20.1170 C   0  0  0  0  0  0  0  0  0  0  0  0
    6.1200    0.3150   20.1920 C   0  0  0  0  0  0  0  0  0  0  0  0
    6.8110   -0.0260   19.0340 C   0  0  0  0  0  0  0  0  0  0  0  0
    9.6320   -1.6490   24.2290 N   0  0  0  0  0  0  0  0  0  0  0  0
    8.3100   -1.6380   23.9450 N   0  0  0  0  0  0  0  0  0  0  0  0
    8.1640   -1.5380   22.6120 C   0  0  0  0  0  0  0  0  0  0  0  0
    9.5030   -1.4980   22.1150 C   0  0  0  0  0  0  0  0  0  0  0  0
   10.4450   -1.5620   23.1350 C   0  0  0  0  0  0  0  0  0  0  0  0
    9.4150    3.2530   23.4800 C   0  0  0  0  0  0  0  0  0  0  0  0
   10.0820    4.5070   23.6280 C   0  0  0  0  0  0  0  0  0  0  0  0
    9.4450    5.6830   23.2010 C   0  0  0  0  0  0  0  0  0  0  0  0
    8.1730    5.6400   22.6330 C   0  0  0  0  0  0  0  0  0  0  0  0
    7.5130    4.4170   22.4860 C   0  0  0  0  0  0  0  0  0  0  0  0
    8.1190    3.2120   22.9070 C   0  0  0  0  0  0  0  0  0  0  0  0
    6.1940   -4.9740   21.8280 C   0  0  1  0  0  0  0  0  0  0  0  0
    7.2710   -4.9390   22.5200 C   0  0  2  0  0  0  0  0  0  0  0  0
    7.0990   -4.9900   23.9130 C   0  0  0  0  0  0  0  0  0  0  0  0
    5.6960   -5.4540   24.1950 N   0  0  0  0  0  0  0  0  0  0  0  0
    5.1200   -6.4480   23.2260 C   0  0  0  0  0  0  0  0  0  0  0  0
    5.8030   -6.3760   21.9940 C   0  0  0  0  0  0  0  0  0  0  0  0
    4.2650   -3.0910   26.3370 C   0  0  0  0  0  0  0  0  0  0  0  0
    3.2340   -2.1550   26.4210 C   0  0  0  0  0  0  0  0  0  0  0  0
    1.8730   -2.3380   26.1400 C   0  0  0  0  0  0  0  0  0  0  0  0
    1.4260   -3.6890   25.6860 C   0  0  0  0  0  0  0  0  0  0  0  0
    2.5100   -4.7390   25.5800 C   0  0  0  0  0  0  0  0  0  0  0  0
    3.9550   -4.3970   25.9240 C   0  0  0  0  0  0  0  0  0  0  0  0
  2  4  1  0
  1  7  1  0
  3  7  2  0
  4  7  1  6
  1  8  1  0
  5  9  1  0
  6  9  2  0
  8  9  1  6
 10 11  1  0
 13 14  1  0
 13 15  1  0
 13 16  1  0
 15 17  1  0
  2 18  1  6
 20 22  2  0
 21 22  2  0
 24 25  2  0
 25 26  1  0
 23 27  1  0
 26 27  2  0
  8 28  1  0
 27 28  1  0
 24 29  1  0
 28 29  2  0
 30 31  1  0
  1 32  1  0
 31 32  1  0
 32 33  2  0
 13 34  1  0
 30 34  2  0
 33 34  1  0
 10 35  1  0
 35 36  2  0
 36 37  1  0
 37 38  2  0
 12 39  1  0
 38 39  1  0
  5 40  1  0
 35 40  1  0
 39 40  2  0
  2 41  1  0
  4 41  1  0
  4 42  1  0
 41 42  1  0
 42 43  1  1
 22 44  1  0
 43 44  1  0
 44 45  1  0
 41 46  1  6
 45 46  1  0
 47 48  2  0
 19 49  1  0
 48 49  1  0
 49 50  2  0
 50 51  1  0
 22 52  1  0
 47 52  1  0
 51 52  2  0
M  END
