x1308-x2705-x2649-x3124
     RDKit          3D

 52 58  0  0  0  0  0  0  0  0999 V2000
    6.8580   -1.3870   21.9360 N   0  0  0  0  0  0  0  0  0  0  0  0
    6.8180   -4.5260   20.3800 C   0  0  2  0  0  0  0  0  0  0  0  0
    4.7820   -2.9760   21.3090 O   0  0  0  0  0  0  0  0  0  0  0  0
    6.9670   -3.7200   21.5330 C   0  0  2  0  0  0  0  0  0  0  0  0
    7.4900    2.0190   22.8640 N   0  0  0  0  0  0  0  0  0  0  0  0
    8.6350    1.1940   21.0590 O   0  0  0  0  0  0  0  0  0  0  0  0
    6.0610   -2.6270   21.5870 C   0  0  0  0  0  0  0  0  0  0  0  0
    6.5220    0.0280   21.5930 C   0  0  1  0  0  0  0  0  0  0  0  0
    7.6570    1.1170   21.8190 C   0  0  0  0  0  0  0  0  0  0  0  0
   10.1470    2.0800   23.9780 C   0  0  0  0  0  0  0  0  0  0  0  0
    9.2900    1.2170   24.9040 C   0  0  0  0  0  0  0  0  0  0  0  0
    6.1500    4.5490   21.8980 C   0  0  0  0  0  0  0  0  0  0  0  0
   11.9640   -1.5210   23.2310 C   0  0  0  0  0  0  0  0  0  0  0  0
   12.5100   -0.1990   23.8180 C   0  0  0  0  0  0  0  0  0  0  0  0
   12.4450   -2.7430   24.0460 C   0  0  0  0  0  0  0  0  0  0  0  0
   12.6640   -1.7270   21.8570 C   0  0  0  0  0  0  0  0  0  0  0  0
   13.3930   -2.5490   25.2070 C   0  0  0  0  0  0  0  0  0  0  0  0
    5.5580   -4.5040   19.7350 O   0  0  0  0  0  0  0  0  0  0  0  0
    0.6600   -1.1350   26.2960 Cl  0  0  0  0  0  0  0  0  0  0  0  0
    6.3780   -5.0990   26.8270 O   0  0  0  0  0  0  0  0  0  0  0  0
    4.6800   -6.7820   26.0500 O   0  0  0  0  0  0  0  0  0  0  0  0
    5.3510   -5.5110   25.9070 S   0  0  0  0  0  0  0  0  0  0  0  0
    3.9930    1.4080   21.3100 C   0  0  0  0  0  0  0  0  0  0  0  0
    6.3460    0.3710   17.8640 N   0  0  0  0  0  0  0  0  0  0  0  0
    5.1840    1.0400   17.7860 C   0  0  0  0  0  0  0  0  0  0  0  0
    4.4030    1.3820   18.8570 C   0  0  0  0  0  0  0  0  0  0  0  0
    4.8300    1.0350   20.1270 C   0  0  0  0  0  0  0  0  0  0  0  0
    6.0160    0.3690   20.2330 C   0  0  0  0  0  0  0  0  0  0  0  0
    6.7390    0.0470   19.0960 C   0  0  0  0  0  0  0  0  0  0  0  0
    9.7080   -1.5410   24.2710 N   0  0  0  0  0  0  0  0  0  0  0  0
    8.4120   -1.5150   23.9160 N   0  0  0  0  0  0  0  0  0  0  0  0
    8.1890   -1.4620   22.5560 C   0  0  0  0  0  0  0  0  0  0  0  0
    9.5150   -1.4650   22.0430 C   0  0  0  0  0  0  0  0  0  0  0  0
   10.4220   -1.5100   23.1550 C   0  0  0  0  0  0  0  0  0  0  0  0
    9.4340    3.3230   23.5010 C   0  0  0  0  0  0  0  0  0  0  0  0
   10.1160    4.5360   23.6200 C   0  0  0  0  0  0  0  0  0  0  0  0
    9.5110    5.7140   23.1890 C   0  0  0  0  0  0  0  0  0  0  0  0
    8.2190    5.6790   22.6330 C   0  0  0  0  0  0  0  0  0  0  0  0
    7.5250    4.4690   22.5100 C   0  0  0  0  0  0  0  0  0  0  0  0
    8.1310    3.2900   22.9480 C   0  0  0  0  0  0  0  0  0  0  0  0
    6.8530   -5.2870   21.6550 C   0  0  2  0  0  0  0  0  0  0  0  0
    7.4140   -4.4800   22.6950 C   0  0  2  0  0  0  0  0  0  0  0  0
    6.6960   -4.2240   23.8730 C   0  0  0  0  0  0  0  0  0  0  0  0
    5.9480   -5.4250   24.2880 N   0  0  0  0  0  0  0  0  0  0  0  0
    5.0430   -5.8460   23.1900 C   0  0  0  0  0  0  0  0  0  0  0  0
    5.7570   -6.2190   22.0300 C   0  0  0  0  0  0  0  0  0  0  0  0
    4.2910   -2.9730   26.3920 C   0  0  0  0  0  0  0  0  0  0  0  0
    3.2230   -2.0400   26.4660 C   0  0  0  0  0  0  0  0  0  0  0  0
    1.8760   -2.3430   26.1680 C   0  0  0  0  0  0  0  0  0  0  0  0
    1.5180   -3.7720   25.7290 C   0  0  0  0  0  0  0  0  0  0  0  0
    2.6580   -4.7130   25.6660 C   0  0  0  0  0  0  0  0  0  0  0  0
    4.0640   -4.2910   26.0090 C   0  0  0  0  0  0  0  0  0  0  0  0
  2  4  1  0
  1  7  1  0
  3  7  2  0
  4  7  1  1
  1  8  1  0
  5  9  1  0
  6  9  2  0
  8  9  1  6
 10 11  1  0
 13 14  1  0
 13 15  1  0
 13 16  1  0
 15 17  1  0
  2 18  1  1
 20 22  2  0
 21 22  2  0
 24 25  2  0
 25 26  1  0
 23 27  1  0
 26 27  2  0
  8 28  1  0
 27 28  1  0
 24 29  1  0
 28 29  2  0
 30 31  1  0
  1 32  1  0
 31 32  2  0
 32 33  1  0
 13 34  1  0
 30 34  1  0
 33 34  2  0
 10 35  1  0
 35 36  2  0
 36 37  1  0
 37 38  2  0
 12 39  1  0
 38 39  1  0
  5 40  1  0
 35 40  1  0
 39 40  2  0
  2 41  1  0
  4 41  1  0
  4 42  1  0
 41 42  1  0
 42 43  1  1
 22 44  1  0
 43 44  1  0
 44 45  1  0
 41 46  1  1
 45 46  1  0
 47 48  2  0
 19 49  1  0
 48 49  1  0
 49 50  2  0
 50 51  1  0
 22 52  1  0
 47 52  1  0
 51 52  2  0
M  END
