x1308-x2705-x0691-x2643
     RDKit          3D

 51 57  0  0  0  0  0  0  0  0999 V2000
    6.8430   -1.4480   22.0840 N   0  0  0  0  0  0  0  0  0  0  0  0
    6.7600   -4.5670   20.4420 C   0  0  2  0  0  0  0  0  0  0  0  0
    4.7580   -3.0030   21.4230 O   0  0  0  0  0  0  0  0  0  0  0  0
    6.9530   -3.7430   21.6690 C   0  0  2  0  0  0  0  0  0  0  0  0
    7.3700    2.0780   22.7280 N   0  0  0  0  0  0  0  0  0  0  0  0
    8.8570    0.7830   21.5360 O   0  0  0  0  0  0  0  0  0  0  0  0
    6.0390   -2.6750   21.7280 C   0  0  0  0  0  0  0  0  0  0  0  0
    6.5180   -0.0420   21.6610 C   0  0  1  0  0  0  0  0  0  0  0  0
    7.7130    0.9530   21.9650 C   0  0  0  0  0  0  0  0  0  0  0  0
   10.1480    2.0710   23.9550 C   0  0  0  0  0  0  0  0  0  0  0  0
    9.3320    1.2310   24.9350 C   0  0  0  0  0  0  0  0  0  0  0  0
    6.1500    4.5160   21.8640 C   0  0  0  0  0  0  0  0  0  0  0  0
   11.9680   -1.5430   23.2240 C   0  0  0  0  0  0  0  0  0  0  0  0
   12.5230   -0.1890   23.7250 C   0  0  0  0  0  0  0  0  0  0  0  0
   12.4420   -2.5880   24.2590 C   0  0  0  0  0  0  0  0  0  0  0  0
   12.6450   -1.8610   21.8820 C   0  0  0  0  0  0  0  0  0  0  0  0
    5.5070   -4.4470   19.7690 O   0  0  0  0  0  0  0  0  0  0  0  0
    0.5750   -1.2380   26.4040 Cl  0  0  0  0  0  0  0  0  0  0  0  0
    6.4450   -4.8500   26.5750 O   0  0  0  0  0  0  0  0  0  0  0  0
    4.8180   -6.6400   25.9590 O   0  0  0  0  0  0  0  0  0  0  0  0
    5.3860   -5.3280   25.7280 S   0  0  0  0  0  0  0  0  0  0  0  0
    3.3700   -0.6400   26.4120 F   0  0  0  0  0  0  0  0  0  0  0  0
    6.3340    0.3580   17.8880 N   0  0  0  0  0  0  0  0  0  0  0  0
    5.2080    1.0800   17.7870 C   0  0  0  0  0  0  0  0  0  0  0  0
    4.4300    1.4620   18.8380 C   0  0  0  0  0  0  0  0  0  0  0  0
    4.8900    1.0490   20.1850 C   0  0  0  0  0  0  0  0  0  0  0  0
    6.0450    0.3260   20.2880 C   0  0  0  0  0  0  0  0  0  0  0  0
    6.7330   -0.0050   19.1260 C   0  0  0  0  0  0  0  0  0  0  0  0
    9.7350   -1.4840   24.3030 N   0  0  0  0  0  0  0  0  0  0  0  0
    8.4000   -1.4640   24.0410 N   0  0  0  0  0  0  0  0  0  0  0  0
    8.1810   -1.4910   22.6900 C   0  0  0  0  0  0  0  0  0  0  0  0
    9.4840   -1.5400   22.1220 C   0  0  0  0  0  0  0  0  0  0  0  0
   10.4190   -1.5270   23.1620 C   0  0  0  0  0  0  0  0  0  0  0  0
    9.4130    3.3030   23.4820 C   0  0  0  0  0  0  0  0  0  0  0  0
   10.0860    4.5060   23.6330 C   0  0  0  0  0  0  0  0  0  0  0  0
    9.4690    5.7960   23.1980 C   0  0  0  0  0  0  0  0  0  0  0  0
    8.1830    5.6920   22.6320 C   0  0  0  0  0  0  0  0  0  0  0  0
    7.5250    4.4680   22.4900 C   0  0  0  0  0  0  0  0  0  0  0  0
    8.1210    3.2780   22.9090 C   0  0  0  0  0  0  0  0  0  0  0  0
    6.8040   -5.4130   21.6200 C   0  0  2  0  0  0  0  0  0  0  0  0
    7.4880   -4.8740   22.6550 C   0  0  2  0  0  0  0  0  0  0  0  0
    6.6110   -4.1560   23.4500 C   0  0  0  0  0  0  0  0  0  0  0  0
    5.7850   -5.2510   24.0620 N   0  0  0  0  0  0  0  0  0  0  0  0
    5.0280   -6.1060   23.0990 C   0  0  0  0  0  0  0  0  0  0  0  0
    5.8430   -6.4730   22.0070 C   0  0  0  0  0  0  0  0  0  0  0  0
    4.2630   -2.8340   26.0910 C   0  0  0  0  0  0  0  0  0  0  0  0
    3.1750   -1.9560   26.2340 C   0  0  0  0  0  0  0  0  0  0  0  0
    1.8410   -2.3820   26.2020 C   0  0  0  0  0  0  0  0  0  0  0  0
    1.5120   -3.7320   26.0120 C   0  0  0  0  0  0  0  0  0  0  0  0
    2.6020   -4.7060   25.8520 C   0  0  0  0  0  0  0  0  0  0  0  0
    4.0270   -4.1960   25.9040 C   0  0  0  0  0  0  0  0  0  0  0  0
  2  4  1  0
  1  7  1  0
  3  7  2  0
  4  7  1  1
  1  8  1  0
  5  9  1  0
  6  9  2  0
  8  9  1  6
 10 11  1  0
 13 14  1  0
 13 15  1  0
 13 16  1  0
  2 17  1  1
 19 21  2  0
 20 21  2  0
 23 24  2  0
 24 25  1  0
 25 26  2  0
  8 27  1  0
 26 27  1  0
 23 28  1  0
 27 28  2  0
 29 30  1  0
  1 31  1  0
 30 31  1  0
 31 32  2  0
 13 33  1  0
 29 33  2  0
 32 33  1  0
 10 34  1  0
 34 35  2  0
 35 36  1  0
 36 37  2  0
 12 38  1  0
 37 38  1  0
  5 39  1  0
 34 39  1  0
 38 39  2  0
  2 40  1  0
  4 40  1  0
  4 41  1  0
 40 41  1  0
 41 42  1  1
 21 43  1  0
 42 43  1  0
 43 44  1  0
 40 45  1  1
 44 45  1  0
 22 47  1  0
 46 47  2  0
 18 48  1  0
 47 48  1  0
 48 49  2  0
 49 50  1  0
 21 51  1  0
 46 51  1  0
 50 51  2  0
M  END
