x1308-x2705
     RDKit          3D

 50 56  0  0  0  0  0  0  0  0999 V2000
    6.8700   -1.3880   21.9280 N   0  0  0  0  0  0  0  0  0  0  0  0
    6.7820   -4.5720   20.3890 C   0  0  2  0  0  0  0  0  0  0  0  0
    4.7990   -2.9880   21.2900 O   0  0  0  0  0  0  0  0  0  0  0  0
    7.0280   -3.7400   21.5910 C   0  0  2  0  0  0  0  0  0  0  0  0
    7.5330    2.0300   22.8850 N   0  0  0  0  0  0  0  0  0  0  0  0
    8.6650    1.2140   21.0940 O   0  0  0  0  0  0  0  0  0  0  0  0
    6.0800   -2.6240   21.5900 C   0  0  0  0  0  0  0  0  0  0  0  0
    6.5440    0.0460   21.6070 C   0  0  1  0  0  0  0  0  0  0  0  0
    7.6820    1.1270   21.8460 C   0  0  0  0  0  0  0  0  0  0  0  0
   10.1690    2.1030   24.0100 C   0  0  0  0  0  0  0  0  0  0  0  0
    9.2550    1.2950   24.9440 C   0  0  0  0  0  0  0  0  0  0  0  0
    6.1790    4.5180   21.9320 C   0  0  0  0  0  0  0  0  0  0  0  0
   11.9800   -1.4760   23.2200 C   0  0  0  0  0  0  0  0  0  0  0  0
   12.4940   -0.2640   23.7090 C   0  0  0  0  0  0  0  0  0  0  0  0
   12.4670   -2.5210   24.2510 C   0  0  0  0  0  0  0  0  0  0  0  0
   12.4800   -1.8440   22.0260 C   0  0  0  0  0  0  0  0  0  0  0  0
    5.5120   -4.4920   19.7540 O   0  0  0  0  0  0  0  0  0  0  0  0
    0.7290   -1.2400   26.3400 Cl  0  0  0  0  0  0  0  0  0  0  0  0
    6.2920   -5.1040   26.8740 O   0  0  0  0  0  0  0  0  0  0  0  0
    4.6380   -6.8330   26.1460 O   0  0  0  0  0  0  0  0  0  0  0  0
    5.2720   -5.5510   25.9550 S   0  0  0  0  0  0  0  0  0  0  0  0
    6.3020    0.4340   17.7910 N   0  0  0  0  0  0  0  0  0  0  0  0
    5.1500    1.1340   17.7470 C   0  0  0  0  0  0  0  0  0  0  0  0
    4.3730    1.4990   18.8110 C   0  0  0  0  0  0  0  0  0  0  0  0
    4.8110    1.1240   20.1680 C   0  0  0  0  0  0  0  0  0  0  0  0
    6.0040    0.4160   20.2680 C   0  0  0  0  0  0  0  0  0  0  0  0
    6.7410    0.0710   18.9920 C   0  0  0  0  0  0  0  0  0  0  0  0
    9.6800   -1.5560   24.3210 N   0  0  0  0  0  0  0  0  0  0  0  0
    8.3960   -1.5320   23.9080 N   0  0  0  0  0  0  0  0  0  0  0  0
    8.2040   -1.4510   22.5420 C   0  0  0  0  0  0  0  0  0  0  0  0
    9.5330   -1.4280   22.0550 C   0  0  0  0  0  0  0  0  0  0  0  0
   10.4060   -1.4900   23.2060 C   0  0  0  0  0  0  0  0  0  0  0  0
    9.4620    3.3490   23.5370 C   0  0  0  0  0  0  0  0  0  0  0  0
   10.1260    4.5840   23.6570 C   0  0  0  0  0  0  0  0  0  0  0  0
    9.5290    5.7550   23.2350 C   0  0  0  0  0  0  0  0  0  0  0  0
    8.2500    5.7050   22.6810 C   0  0  0  0  0  0  0  0  0  0  0  0
    7.5550    4.4880   22.5470 C   0  0  0  0  0  0  0  0  0  0  0  0
    8.1650    3.3040   22.9810 C   0  0  0  0  0  0  0  0  0  0  0  0
    6.8160   -5.3110   21.6880 C   0  0  2  0  0  0  0  0  0  0  0  0
    7.4150   -4.5340   22.7560 C   0  0  2  0  0  0  0  0  0  0  0  0
    6.6520   -4.3480   23.9110 C   0  0  0  0  0  0  0  0  0  0  0  0
    5.8590   -5.5220   24.3510 N   0  0  0  0  0  0  0  0  0  0  0  0
    4.9330   -5.9110   23.2730 C   0  0  0  0  0  0  0  0  0  0  0  0
    5.6940   -6.2210   22.0030 C   0  0  0  0  0  0  0  0  0  0  0  0
    4.3040   -3.0250   26.4210 C   0  0  0  0  0  0  0  0  0  0  0  0
    3.2910   -2.0680   26.5080 C   0  0  0  0  0  0  0  0  0  0  0  0
    1.9710   -2.4230   26.2140 C   0  0  0  0  0  0  0  0  0  0  0  0
    1.6530   -3.7230   25.8260 C   0  0  0  0  0  0  0  0  0  0  0  0
    2.6600   -4.6880   25.7370 C   0  0  0  0  0  0  0  0  0  0  0  0
    3.9790   -4.3330   26.0390 C   0  0  0  0  0  0  0  0  0  0  0  0
  2  4  1  0
  1  7  1  0
  3  7  2  0
  4  7  1  1
  1  8  1  0
  5  9  1  0
  6  9  2  0
  8  9  1  6
 10 11  1  0
 13 14  1  0
 13 15  1  0
 13 16  1  0
  2 17  1  1
 19 21  2  0
 20 21  2  0
 22 23  2  0
 23 24  1  0
 24 25  2  0
  8 26  1  0
 25 26  1  0
 22 27  1  0
 26 27  2  0
 28 29  1  0
  1 30  1  0
 29 30  1  0
 30 31  2  0
 13 32  1  0
 28 32  2  0
 31 32  1  0
 10 33  1  0
 33 34  2  0
 34 35  1  0
 35 36  2  0
 12 37  1  0
 36 37  1  0
  5 38  1  0
 33 38  1  0
 37 38  2  0
  2 39  1  0
  4 39  1  0
  4 40  1  0
 39 40  1  0
 40 41  1  1
 21 42  1  0
 41 42  1  0
 42 43  1  0
 39 44  1  1
 43 44  1  0
 45 46  2  0
 18 47  1  0
 46 47  1  0
 47 48  2  0
 48 49  1  0
 21 50  1  0
 45 50  1  0
 49 50  2  0
M  END
