x1311-x2705
     RDKit          3D

 48 52  0  0  0  0  0  0  0  0999 V2000
    6.9380   -1.1990   21.7020 N   0  0  0  0  0  0  0  0  0  0  0  0
    6.8480   -4.3770   20.7720 C   0  0  2  0  0  0  0  0  0  0  0  0
    5.0070   -3.2650   21.2500 O   0  0  0  0  0  0  0  0  0  0  0  0
    6.9470   -3.1150   21.5840 C   0  0  0  0  0  0  0  0  0  0  0  0
    7.5520    2.1830   22.9150 N   0  0  0  0  0  0  0  0  0  0  0  0
    8.7900    1.3350   21.0970 O   0  0  0  0  0  0  0  0  0  0  0  0
    5.8000   -2.1640   21.4510 C   0  0  0  0  0  0  0  0  0  0  0  0
    6.6710    0.2570   21.5270 C   0  0  1  0  0  0  0  0  0  0  0  0
    7.7840    1.2750   21.8090 C   0  0  0  0  0  0  0  0  0  0  0  0
   10.2110    2.2270   23.9430 C   0  0  0  0  0  0  0  0  0  0  0  0
    9.3670    1.3320   24.8720 C   0  0  0  0  0  0  0  0  0  0  0  0
    6.2220    4.5750   22.0020 C   0  0  0  0  0  0  0  0  0  0  0  0
   12.0230   -1.3950   23.4150 C   0  0  0  0  0  0  0  0  0  0  0  0
   12.4260   -0.0690   24.0370 C   0  0  0  0  0  0  0  0  0  0  0  0
   12.5600   -2.4890   24.3720 C   0  0  0  0  0  0  0  0  0  0  0  0
   12.8030   -1.5080   22.0860 C   0  0  0  0  0  0  0  0  0  0  0  0
    5.6100   -4.4570   20.0780 O   0  0  0  0  0  0  0  0  0  0  0  0
    6.8470   -5.3500   21.9420 N   0  0  0  0  0  0  0  0  0  0  0  0
    4.1290   -7.5980   25.3190 O   0  0  0  0  0  0  0  0  0  0  0  0
    2.6110   -5.4720   24.7800 O   0  0  0  0  0  0  0  0  0  0  0  0
    6.3510    0.5080   17.7260 N   0  0  0  0  0  0  0  0  0  0  0  0
    5.1510    1.3320   17.6920 C   0  0  0  0  0  0  0  0  0  0  0  0
    4.3660    1.8210   18.9140 C   0  0  0  0  0  0  0  0  0  0  0  0
    4.8510    1.4640   20.1440 C   0  0  0  0  0  0  0  0  0  0  0  0
    6.1240    0.6100   20.2050 C   0  0  0  0  0  0  0  0  0  0  0  0
    6.7980    0.1730   18.9310 C   0  0  0  0  0  0  0  0  0  0  0  0
    9.6460   -1.6610   24.2970 N   0  0  0  0  0  0  0  0  0  0  0  0
    8.3410   -1.6120   23.8430 N   0  0  0  0  0  0  0  0  0  0  0  0
    8.1810   -1.3590   22.4870 C   0  0  0  0  0  0  0  0  0  0  0  0
    9.6640   -1.2540   22.1070 C   0  0  0  0  0  0  0  0  0  0  0  0
   10.4790   -1.4350   23.2380 C   0  0  0  0  0  0  0  0  0  0  0  0
    9.5630    3.4280   23.5210 C   0  0  0  0  0  0  0  0  0  0  0  0
   10.2170    4.6530   23.6050 C   0  0  0  0  0  0  0  0  0  0  0  0
    9.5910    5.8380   23.1810 C   0  0  0  0  0  0  0  0  0  0  0  0
    8.2970    5.7810   22.6670 C   0  0  0  0  0  0  0  0  0  0  0  0
    7.6190    4.5730   22.5730 C   0  0  0  0  0  0  0  0  0  0  0  0
    8.2530    3.4050   23.0050 C   0  0  0  0  0  0  0  0  0  0  0  0
    8.8410   -5.9120   23.2700 C   0  0  0  0  0  0  0  0  0  0  0  0
    9.6660   -5.6490   24.3480 C   0  0  0  0  0  0  0  0  0  0  0  0
    9.4140   -4.6150   25.2030 C   0  0  0  0  0  0  0  0  0  0  0  0
    8.3090   -3.8180   24.9770 C   0  0  0  0  0  0  0  0  0  0  0  0
    7.4780   -4.0760   23.8930 C   0  0  0  0  0  0  0  0  0  0  0  0
    7.7310   -5.1390   23.0080 C   0  0  0  0  0  0  0  0  0  0  0  0
    4.6860   -6.3800   22.0590 C   0  0  0  0  0  0  0  0  0  0  0  0
    5.5280   -5.3140   22.6400 C   0  0  1  0  0  0  0  0  0  0  0  0
    5.3550   -5.3740   24.1850 C   0  0  0  0  0  0  0  0  0  0  0  0
    3.8760   -6.3520   24.3520 S   0  0  0  0  0  0  0  0  0  0  0  0
    3.7370   -6.9370   22.8310 C   0  0  0  0  0  0  0  0  0  0  0  0
  2  4  1  0
  1  7  1  0
  3  7  2  0
  4  7  1  0
  1  8  1  0
  5  9  1  0
  6  9  2  0
  8  9  1  6
 10 11  1  0
 13 14  1  0
 13 15  1  0
 13 16  1  0
  2 17  1  1
  2 18  1  0
 21 22  2  0
 22 23  1  0
 23 24  2  0
  8 25  1  0
 24 25  1  0
 21 26  1  0
 25 26  2  0
 27 28  1  0
  1 29  1  0
 28 29  1  0
 29 30  2  0
 13 31  1  0
 27 31  2  0
 30 31  1  0
 10 32  1  0
 32 33  2  0
 33 34  1  0
 34 35  2  0
 12 36  1  0
 35 36  1  0
  5 37  1  0
 32 37  1  0
 36 37  2  0
 38 39  2  0
 39 40  1  0
 40 41  2  0
 41 42  1  0
 18 43  1  0
 38 43  1  0
 42 43  2  0
 45 18  1  1
 44 45  1  0
 45 46  1  0
 47 19  1  0
 20 47  1  0
 46 47  1  0
 44 48  2  0
 47 48  1  0
M  END
