x1311-x0107
     RDKit          3D

 30 32  0  0  0  0  0  0  0  0999 V2000
    5.7390   -4.5930   20.0220 O   0  0  0  0  0  0  0  0  0  0  0  0
    6.5970   -4.5310   20.9580 C   0  0  0  0  0  0  0  0  0  0  0  0
    8.1100   -4.3120   20.7080 C   0  0  0  0  0  0  0  0  0  0  0  0
    6.2860   -4.6650   22.3460 N   0  0  0  0  0  0  0  0  0  0  0  0
    4.1440   -7.6630   25.1650 O   0  0  0  0  0  0  0  0  0  0  0  0
    2.3900   -5.6980   24.7810 O   0  0  0  0  0  0  0  0  0  0  0  0
    9.7380   -0.5710   22.3430 C   0  0  0  0  0  0  0  0  0  0  0  0
    8.8450    0.1590   21.5500 C   0  0  0  0  0  0  0  0  0  0  0  0
    9.1340    1.3380   21.2680 O   0  0  0  0  0  0  0  0  0  0  0  0
    7.6810   -0.5000   21.0980 N   0  0  0  0  0  0  0  0  0  0  0  0
    5.1970    1.1970   21.9890 C   0  0  0  0  0  0  0  0  0  0  0  0
    8.4910   -2.9440   21.2910 C   0  0  0  0  0  0  0  0  0  0  0  0
    7.6670   -1.8780   20.5920 C   0  0  0  0  0  0  0  0  0  0  0  0
    8.1560   -5.7810   23.1530 C   0  0  0  0  0  0  0  0  0  0  0  0
    9.2860   -5.9740   24.0840 C   0  0  0  0  0  0  0  0  0  0  0  0
    9.5420   -4.9680   25.1530 C   0  0  0  0  0  0  0  0  0  0  0  0
    8.6090   -3.7000   25.2720 C   0  0  0  0  0  0  0  0  0  0  0  0
    7.4930   -3.5730   24.3020 C   0  0  0  0  0  0  0  0  0  0  0  0
    7.3300   -4.6900   23.2530 C   0  0  0  0  0  0  0  0  0  0  0  0
    4.7350   -6.4610   22.0240 C   0  0  0  0  0  0  0  0  0  0  0  0
    5.6040   -5.8710   22.8110 C   0  0  2  0  0  0  0  0  0  0  0  0
    5.0450   -5.2780   24.1250 C   0  0  0  0  0  0  0  0  0  0  0  0
    3.7030   -6.4270   24.2580 S   0  0  0  0  0  0  0  0  0  0  0  0
    3.5850   -6.8450   22.6540 C   0  0  0  0  0  0  0  0  0  0  0  0
    6.8150    0.1450   20.1770 C   0  0  0  0  0  0  0  0  0  0  0  0
    5.6170    0.9630   20.5710 C   0  0  0  0  0  0  0  0  0  0  0  0
    4.8570    1.5240   19.5340 C   0  0  0  0  0  0  0  0  0  0  0  0
    5.2530    1.2930   18.1780 C   0  0  0  0  0  0  0  0  0  0  0  0
    6.3170    0.5600   17.8260 N   0  0  0  0  0  0  0  0  0  0  0  0
    7.0550    0.0130   18.8130 C   0  0  0  0  0  0  0  0  0  0  0  0
  1  2  2  0
  2  3  1  0
  2  4  1  0
  7  8  1  0
  8  9  2  0
  8 10  1  0
  3 12  1  0
 10 13  1  0
 12 13  1  0
 14 15  2  0
 15 16  1  0
 16 17  2  0
 17 18  1  0
  4 19  1  0
 14 19  1  0
 18 19  2  0
 21  4  1  6
 20 21  1  0
 21 22  1  0
 23  5  1  0
  6 23  1  0
 22 23  1  0
 20 24  2  0
 23 24  1  0
 10 25  1  0
 11 26  1  0
 25 26  2  0
 26 27  1  0
 27 28  2  0
 28 29  1  0
 25 30  1  0
 29 30  2  0
M  END
