x1311-x0434
     RDKit          3D

 35 38  0  0  0  0  0  0  0  0999 V2000
    5.7310   -4.5600   19.9960 O   0  0  0  0  0  0  0  0  0  0  0  0
    6.6180   -4.4540   20.9200 C   0  0  0  0  0  0  0  0  0  0  0  0
    8.0760   -4.1600   20.7190 C   0  0  0  0  0  0  0  0  0  0  0  0
    6.2920   -4.6130   22.3010 N   0  0  0  0  0  0  0  0  0  0  0  0
    4.2060   -7.6260   25.3960 O   0  0  0  0  0  0  0  0  0  0  0  0
    2.4160   -5.8860   24.8870 O   0  0  0  0  0  0  0  0  0  0  0  0
    8.7800    1.1450   21.1440 O   0  0  0  0  0  0  0  0  0  0  0  0
    8.4180    0.0160   21.5120 C   0  0  0  0  0  0  0  0  0  0  0  0
    9.1600   -0.7690   22.3580 N   0  0  0  0  0  0  0  0  0  0  0  0
    7.2090   -0.5330   21.0490 N   0  0  0  0  0  0  0  0  0  0  0  0
    8.3170   -2.7610   21.2980 C   0  0  0  0  0  0  0  0  0  0  0  0
    7.0590   -1.9960   21.0990 C   0  0  0  0  0  0  0  0  0  0  0  0
    8.2240   -5.8700   23.1440 C   0  0  0  0  0  0  0  0  0  0  0  0
    9.3240   -6.0280   24.1440 C   0  0  0  0  0  0  0  0  0  0  0  0
    9.3910   -5.0450   25.1110 C   0  0  0  0  0  0  0  0  0  0  0  0
    8.5080   -3.9930   25.1430 C   0  0  0  0  0  0  0  0  0  0  0  0
    7.4930   -3.8650   24.2030 C   0  0  0  0  0  0  0  0  0  0  0  0
    7.3770   -4.8000   23.2390 C   0  0  0  0  0  0  0  0  0  0  0  0
    4.5390   -6.1430   22.2350 C   0  0  0  0  0  0  0  0  0  0  0  0
    4.9870   -5.0230   22.8620 C   0  0  1  0  0  0  0  0  0  0  0  0
    4.9710   -5.1430   24.3410 C   0  0  0  0  0  0  0  0  0  0  0  0
    3.7110   -6.3870   24.5310 S   0  0  0  0  0  0  0  0  0  0  0  0
    3.7610   -6.9290   22.9930 C   0  0  0  0  0  0  0  0  0  0  0  0
   10.8110    0.7530   23.0560 C   0  0  0  0  0  0  0  0  0  0  0  0
   12.1160    1.1520   23.2510 C   0  0  0  0  0  0  0  0  0  0  0  0
   13.1240    0.2760   22.9100 C   0  0  0  0  0  0  0  0  0  0  0  0
   12.8400   -0.9470   22.4010 C   0  0  0  0  0  0  0  0  0  0  0  0
   11.5360   -1.3720   22.1960 C   0  0  0  0  0  0  0  0  0  0  0  0
   10.5120   -0.4990   22.5280 C   0  0  0  0  0  0  0  0  0  0  0  0
    5.3270    0.8720   20.2720 C   0  0  0  0  0  0  0  0  0  0  0  0
    4.6720    1.5000   19.2130 C   0  0  0  0  0  0  0  0  0  0  0  0
    5.1890    1.3650   17.9270 C   0  0  0  0  0  0  0  0  0  0  0  0
    6.2890    0.6480   17.6660 N   0  0  0  0  0  0  0  0  0  0  0  0
    6.8950    0.0550   18.7080 C   0  0  0  0  0  0  0  0  0  0  0  0
    6.4820    0.1250   20.0230 C   0  0  0  0  0  0  0  0  0  0  0  0
  1  2  2  0
  2  3  1  0
  2  4  1  0
  7  8  2  0
  8  9  1  0
  8 10  1  0
  3 11  1  0
 10 12  1  0
 11 12  1  0
 13 14  2  0
 14 15  1  0
 15 16  2  0
 16 17  1  0
  4 18  1  0
 13 18  1  0
 17 18  2  0
 20  4  1  6
 19 20  1  0
 20 21  1  0
 22  5  1  0
  6 22  1  0
 21 22  1  0
 19 23  2  0
 22 23  1  0
 24 25  2  0
 25 26  1  0
 26 27  2  0
 27 28  1  0
  9 29  1  0
 24 29  1  0
 28 29  2  0
 30 31  2  0
 31 32  1  0
 32 33  2  0
 33 34  1  0
 10 35  1  0
 30 35  1  0
 34 35  2  0
M  END
