x1311-x0786
     RDKit          3D

 22 24  0  0  0  0  0  0  0  0999 V2000
    5.7470   -4.3850   19.9410 O   0  0  0  0  0  0  0  0  0  0  0  0
    6.6380   -4.3330   20.8700 C   0  0  0  0  0  0  0  0  0  0  0  0
    8.1110   -4.2230   20.6330 C   0  0  0  0  0  0  0  0  0  0  0  0
    6.2440   -4.4100   22.2280 N   0  0  0  0  0  0  0  0  0  0  0  0
    4.1140   -6.3010   25.9240 O   0  0  0  0  0  0  0  0  0  0  0  0
    8.1530   -5.7190   22.9450 C   0  0  0  0  0  0  0  0  0  0  0  0
    9.2800   -6.0810   23.8200 C   0  0  0  0  0  0  0  0  0  0  0  0
    9.5860   -5.2650   25.0070 C   0  0  0  0  0  0  0  0  0  0  0  0
    8.6370   -4.0710   25.1830 C   0  0  0  0  0  0  0  0  0  0  0  0
    7.4970   -3.7660   24.2320 C   0  0  0  0  0  0  0  0  0  0  0  0
    7.3150   -4.6240   23.1530 C   0  0  0  0  0  0  0  0  0  0  0  0
    5.3700   -6.4780   22.6120 C   0  0  0  0  0  0  0  0  0  0  0  0
    5.0330   -5.1520   22.5880 C   0  0  1  0  0  0  0  0  0  0  0  0
    4.4210   -4.6810   23.7210 C   0  0  0  0  0  0  0  0  0  0  0  0
    3.7620   -6.1950   24.3790 S   0  0  1  0  0  0  0  0  0  0  0  0
    4.7660   -7.1790   23.5520 C   0  0  0  0  0  0  0  0  0  0  0  0
    1.3500   -5.7280   23.2260 C   0  0  0  0  0  0  0  0  0  0  0  0
    0.0930   -5.1880   23.7600 C   0  0  0  0  0  0  0  0  0  0  0  0
   -1.0140   -6.5230   24.2760 S   0  0  0  0  0  0  0  0  0  0  0  0
    0.1840   -7.6490   25.0680 C   0  0  0  0  0  0  0  0  0  0  0  0
    1.3950   -7.7950   24.4120 C   0  0  0  0  0  0  0  0  0  0  0  0
    2.0640   -6.4960   24.2260 N   0  0  0  0  0  0  0  0  0  0  0  0
  1  2  2  0
  2  3  1  0
  2  4  1  0
  6  7  2  0
  7  8  1  0
  8  9  2  0
  9 10  1  0
  4 11  1  0
  6 11  1  0
 10 11  2  0
 13  4  1  1
 12 13  1  0
 13 14  1  0
 15  5  1  1
 14 15  1  0
 12 16  2  0
 15 16  1  0
 17 18  1  0
 18 19  1  0
 19 20  1  0
 20 21  1  0
 15 22  1  0
 17 22  1  0
 21 22  1  0
M  END
