x1311-x3117-x3110-x0755
     RDKit          3D

 58 65  0  0  0  0  0  0  0  0999 V2000
    8.1750    0.5460   22.2550 N   0  0  0  0  0  0  0  0  0  0  0  0
   13.4690    4.2680   23.1180 C   0  0  0  0  0  0  0  0  0  0  0  0
   11.3520    3.4000   23.9480 O   0  0  0  0  0  0  0  0  0  0  0  0
   12.0150    4.5600   23.4260 C   0  0  0  0  0  0  0  0  0  0  0  0
    6.8100   -2.0170   21.7120 N   0  0  0  0  0  0  0  0  0  0  0  0
   10.3280    2.8140   23.1130 C   0  0  1  0  0  0  0  0  0  0  0  0
    6.4130    0.7260   23.8080 O   0  0  0  0  0  0  0  0  0  0  0  0
   10.4430    1.3010   22.8440 C   0  0  0  0  0  0  0  0  0  0  0  0
    4.8050   -3.2040   21.5320 O   0  0  0  0  0  0  0  0  0  0  0  0
    6.8900    0.2660   22.7630 C   0  0  0  0  0  0  0  0  0  0  0  0
    6.1330   -0.7100   21.8120 C   0  0  1  0  0  0  0  0  0  0  0  0
    6.0480   -3.1700   21.3690 C   0  0  0  0  0  0  0  0  0  0  0  0
    6.7550   -4.4920   20.7470 C   0  0  2  0  0  0  0  0  0  0  0  0
    8.2270   -3.9280   20.4900 C   0  0  0  0  0  0  0  0  0  0  0  0
   12.1600   -1.8220   23.9790 C   0  0  0  0  0  0  0  0  0  0  0  0
   12.1750   -0.6810   25.0060 C   0  0  0  0  0  0  0  0  0  0  0  0
   13.2670   -1.5590   22.9340 C   0  0  0  0  0  0  0  0  0  0  0  0
   12.4800   -3.1240   24.7360 C   0  0  0  0  0  0  0  0  0  0  0  0
    6.1710   -4.8900   19.5140 O   0  0  0  0  0  0  0  0  0  0  0  0
    3.7290   -8.0630   24.5160 O   0  0  0  0  0  0  0  0  0  0  0  0
    5.2140   -6.8140   26.3420 O   0  0  0  0  0  0  0  0  0  0  0  0
    1.7400   -6.4620   23.8010 F   0  0  0  0  0  0  0  0  0  0  0  0
    4.8610   -4.2530   26.7390 F   0  0  0  0  0  0  0  0  0  0  0  0
    4.5070   -6.7470   25.0920 S   0  0  0  0  0  0  0  0  0  0  0  0
    6.2540    0.4350   18.0590 N   0  0  0  0  0  0  0  0  0  0  0  0
    5.0480    1.0640   17.9400 C   0  0  0  0  0  0  0  0  0  0  0  0
    4.0590    1.1870   19.0590 C   0  0  0  0  0  0  0  0  0  0  0  0
    4.3630    0.6380   20.2950 C   0  0  0  0  0  0  0  0  0  0  0  0
    5.7040   -0.0670   20.4570 C   0  0  0  0  0  0  0  0  0  0  0  0
    6.5920   -0.1140   19.2530 C   0  0  0  0  0  0  0  0  0  0  0  0
    9.2310   -1.7280   21.4720 C   0  0  0  0  0  0  0  0  0  0  0  0
   10.5270   -1.6790   21.9970 C   0  0  0  0  0  0  0  0  0  0  0  0
   10.7440   -1.8840   23.3510 C   0  0  0  0  0  0  0  0  0  0  0  0
    9.6490   -2.1550   24.1660 C   0  0  0  0  0  0  0  0  0  0  0  0
    8.3490   -2.2100   23.6560 C   0  0  0  0  0  0  0  0  0  0  0  0
    8.1330   -1.9920   22.2910 C   0  0  0  0  0  0  0  0  0  0  0  0
    7.9430    3.4820   23.7470 O   0  0  0  0  0  0  0  0  0  0  0  0
    8.9460    2.4210   23.7250 C   0  0  1  0  0  0  0  0  0  0  0  0
    8.9990    1.4650   22.6300 C   0  0  2  0  0  0  0  0  0  0  0  0
    8.4750    1.9910   21.5780 C   0  0  2  0  0  0  0  0  0  0  0  0
    7.4240    2.8890   21.6010 C   0  0  0  0  0  0  0  0  0  0  0  0
    7.5300    3.9540   22.4720 C   0  0  0  0  0  0  0  0  0  0  0  0
    2.1170   -5.4450   24.5970 C   0  0  0  0  0  0  0  0  0  0  0  0
    3.3550   -5.4170   25.2690 C   0  0  0  0  0  0  0  0  0  0  0  0
    3.6970   -4.3110   26.0920 C   0  0  0  0  0  0  0  0  0  0  0  0
    2.8370   -3.2190   26.2700 C   0  0  0  0  0  0  0  0  0  0  0  0
    1.5970   -3.1940   25.6260 C   0  0  0  0  0  0  0  0  0  0  0  0
    1.2500   -4.3800   24.7500 C   0  0  0  0  0  0  0  0  0  0  0  0
    6.5180   -5.6770   21.6600 N   0  0  0  0  0  0  0  0  0  0  0  0
    7.2530   -5.5260   22.9470 C   0  0  0  0  0  0  0  0  0  0  0  0
    6.8820   -5.7450   24.4870 C   0  0  0  0  0  0  0  0  0  0  0  0
    5.5880   -6.1520   23.9120 N   0  0  0  0  0  0  0  0  0  0  0  0
    4.8300   -5.1890   23.1220 C   0  0  0  0  0  0  0  0  0  0  0  0
    5.0590   -5.7940   21.7920 C   0  0  0  0  0  0  0  0  0  0  0  0
    8.6400   -5.0470   22.5620 C   0  0  0  0  0  0  0  0  0  0  0  0
    9.7690   -4.7130   23.3670 C   0  0  0  0  0  0  0  0  0  0  0  0
    9.5630   -4.8510   24.6560 C   0  0  0  0  0  0  0  0  0  0  0  0
    8.1720   -5.3400   25.0600 C   0  0  0  0  0  0  0  0  0  0  0  0
  2  4  1  0
  3  4  1  0
  6  3  1  1
  6  8  1  0
  1 10  1  0
  7 10  2  0
  5 11  1  0
 11 10  1  6
  5 12  1  0
  9 12  2  0
 12 13  1  0
 13 14  1  6
 15 16  1  0
 15 17  1  0
 15 18  1  0
 13 19  1  0
 20 24  2  0
 21 24  2  0
 25 26  2  0
 26 27  1  0
 27 28  2  0
 11 29  1  0
 28 29  1  0
 25 30  1  0
 29 30  2  0
 31 32  2  0
 15 33  1  0
 32 33  1  0
 33 34  2  0
 34 35  1  0
  5 36  1  0
 31 36  1  0
 35 36  2  0
  6 38  1  0
 38 37  1  6
 39  1  1  0
 39  8  1  6
 38 39  1  0
  1 40  1  0
 39 40  1  0
 40 41  1  1
 37 42  1  0
 41 42  1  0
 22 43  1  0
 24 44  1  0
 43 44  2  0
 23 45  1  0
 44 45  1  0
 45 46  2  0
 46 47  1  0
 43 48  1  0
 47 48  2  0
 13 49  1  0
 49 50  1  0
 50 51  2  0
 24 52  1  0
 51 52  1  0
 52 53  1  0
 49 54  1  0
 53 54  1  0
 50 55  1  0
 55 56  2  0
 56 57  1  0
 51 58  1  0
 57 58  2  0
M  END
