x1311-x0786-x3117-x3110
     RDKit          3D

 56 63  0  0  0  0  0  0  0  0999 V2000
    7.9830    1.8220   22.7510 N   0  0  0  0  0  0  0  0  0  0  0  0
   13.5510    4.8090   22.7730 C   0  0  0  0  0  0  0  0  0  0  0  0
   11.5710    3.5200   22.3280 O   0  0  0  0  0  0  0  0  0  0  0  0
   12.0650    4.8310   22.5440 C   0  0  0  0  0  0  0  0  0  0  0  0
    6.8670   -1.5950   21.9430 N   0  0  0  0  0  0  0  0  0  0  0  0
   11.0820    2.7400   23.4470 C   0  0  2  0  0  0  0  0  0  0  0  0
    8.9490    0.3990   21.3300 O   0  0  0  0  0  0  0  0  0  0  0  0
   10.2860    1.5220   23.0450 C   0  0  0  0  0  0  0  0  0  0  0  0
    4.7180   -2.9410   21.3580 O   0  0  0  0  0  0  0  0  0  0  0  0
    7.9300    0.7010   21.9190 C   0  0  0  0  0  0  0  0  0  0  0  0
    6.6020   -0.1170   21.6760 C   0  0  1  0  0  0  0  0  0  0  0  0
    6.0100   -2.7300   21.4310 C   0  0  0  0  0  0  0  0  0  0  0  0
    6.6560   -4.0400   20.8490 C   0  0  2  0  0  0  0  0  0  0  0  0
    8.1730   -3.7980   20.5470 C   0  0  0  0  0  0  0  0  0  0  0  0
   12.2960   -1.8410   24.1630 C   0  0  0  0  0  0  0  0  0  0  0  0
   12.4640   -0.5690   24.9960 C   0  0  0  0  0  0  0  0  0  0  0  0
   13.3220   -1.8140   23.0260 C   0  0  0  0  0  0  0  0  0  0  0  0
   12.7280   -2.9930   25.0820 C   0  0  0  0  0  0  0  0  0  0  0  0
    5.7780   -4.3810   19.7760 O   0  0  0  0  0  0  0  0  0  0  0  0
    6.4570   -4.9730   21.9720 N   0  0  0  0  0  0  0  0  0  0  0  0
    3.9690   -6.4750   25.8450 O   0  0  0  0  0  0  0  0  0  0  0  0
    6.3590    0.3880   17.9180 N   0  0  0  0  0  0  0  0  0  0  0  0
    5.2680    1.1650   17.8470 C   0  0  0  0  0  0  0  0  0  0  0  0
    4.5370    1.5640   18.9360 C   0  0  0  0  0  0  0  0  0  0  0  0
    4.9420    1.1510   20.2030 C   0  0  0  0  0  0  0  0  0  0  0  0
    6.0860    0.3430   20.3310 C   0  0  0  0  0  0  0  0  0  0  0  0
    6.7530   -0.0100   19.1460 C   0  0  0  0  0  0  0  0  0  0  0  0
    9.3390   -1.7780   21.7360 C   0  0  0  0  0  0  0  0  0  0  0  0
   10.6930   -1.8430   22.1280 C   0  0  0  0  0  0  0  0  0  0  0  0
   10.8710   -1.8180   23.5530 C   0  0  0  0  0  0  0  0  0  0  0  0
    9.7570   -1.7530   24.4050 C   0  0  0  0  0  0  0  0  0  0  0  0
    8.4440   -1.6940   23.9060 C   0  0  0  0  0  0  0  0  0  0  0  0
    8.2170   -1.7000   22.5460 C   0  0  0  0  0  0  0  0  0  0  0  0
    9.5100    4.5490   24.4010 O   0  0  0  0  0  0  0  0  0  0  0  0
    9.7530    3.1290   24.2010 C   0  0  1  0  0  0  0  0  0  0  0  0
    9.1410    2.4420   23.1060 C   0  0  2  0  0  0  0  0  0  0  0  0
    8.5440    3.1970   22.1740 C   0  0  2  0  0  0  0  0  0  0  0  0
    8.0740    4.4410   22.6430 C   0  0  0  0  0  0  0  0  0  0  0  0
    9.0220    5.2370   23.2570 C   0  0  0  0  0  0  0  0  0  0  0  0
    8.2690   -5.9650   23.1500 C   0  0  0  0  0  0  0  0  0  0  0  0
    9.2260   -5.9750   24.1740 C   0  0  0  0  0  0  0  0  0  0  0  0
    9.3610   -4.9580   25.1190 C   0  0  0  0  0  0  0  0  0  0  0  0
    8.5090   -3.8680   25.0660 C   0  0  0  0  0  0  0  0  0  0  0  0
    7.4540   -3.7880   23.9970 C   0  0  0  0  0  0  0  0  0  0  0  0
    7.3810   -4.9230   23.0130 C   0  0  0  0  0  0  0  0  0  0  0  0
    5.4480   -6.7180   22.6850 C   0  0  0  0  0  0  0  0  0  0  0  0
    5.1830   -5.4760   22.4550 C   0  0  1  0  0  0  0  0  0  0  0  0
    4.5500   -4.9480   23.7130 C   0  0  0  0  0  0  0  0  0  0  0  0
    3.6130   -6.3040   24.4540 S   0  0  1  0  0  0  0  0  0  0  0  0
    4.7410   -7.2110   23.6660 C   0  0  0  0  0  0  0  0  0  0  0  0
    1.2720   -5.7820   23.1500 C   0  0  0  0  0  0  0  0  0  0  0  0
    0.0950   -5.1780   23.6960 C   0  0  0  0  0  0  0  0  0  0  0  0
   -1.0710   -6.4210   24.3420 S   0  0  0  0  0  0  0  0  0  0  0  0
    0.0870   -7.6090   25.1210 C   0  0  0  0  0  0  0  0  0  0  0  0
    1.2800   -7.7950   24.3920 C   0  0  0  0  0  0  0  0  0  0  0  0
    1.9950   -6.5360   24.1370 N   0  0  0  0  0  0  0  0  0  0  0  0
  2  4  1  0
  3  4  1  0
  6  3  1  6
  6  8  1  0
  1 10  1  0
  7 10  2  0
  5 11  1  0
 11 10  1  6
  5 12  1  0
  9 12  2  0
 12 13  1  0
 13 14  1  6
 15 16  1  0
 15 17  1  0
 15 18  1  0
 13 19  1  0
 13 20  1  0
 22 23  2  0
 23 24  1  0
 24 25  2  0
 11 26  1  0
 25 26  1  0
 22 27  1  0
 26 27  2  0
 28 29  2  0
 15 30  1  0
 29 30  1  0
 30 31  2  0
 31 32  1  0
  5 33  1  0
 28 33  1  0
 32 33  2  0
  6 35  1  0
 35 34  1  6
 36  1  1  0
 36  8  1  6
 35 36  1  0
  1 37  1  0
 36 37  1  0
 37 38  1  1
 34 39  1  0
 38 39  1  0
 40 41  2  0
 41 42  1  0
 42 43  2  0
 43 44  1  0
 20 45  1  0
 40 45  1  0
 44 45  2  0
 47 20  1  1
 46 47  1  0
 47 48  1  0
 49 21  1  1
 48 49  1  0
 46 50  2  0
 49 50  1  0
 51 52  1  0
 52 53  1  0
 53 54  1  0
 54 55  1  0
 49 56  1  0
 51 56  1  0
 55 56  1  0
M  END
