x1311-x1493
     RDKit          3D

 19 20  0  0  0  0  0  0  0  0999 V2000
    5.6420   -4.4390   19.9320 O   0  0  0  0  0  0  0  0  0  0  0  0
    6.5130   -4.4070   20.8610 C   0  0  0  0  0  0  0  0  0  0  0  0
    8.0350   -4.3410   20.7490 C   0  0  0  0  0  0  0  0  0  0  0  0
    6.1610   -4.4260   22.2360 N   0  0  0  0  0  0  0  0  0  0  0  0
    4.2870   -6.7560   25.4890 O   0  0  0  0  0  0  0  0  0  0  0  0
    2.0890   -5.8430   24.6310 O   0  0  0  0  0  0  0  0  0  0  0  0
    6.2270   -5.7810   26.8170 O   0  0  0  0  0  0  0  0  0  0  0  0
    5.3600   -6.1230   26.0360 C   0  0  0  0  0  0  0  0  0  0  0  0
    8.0290   -5.6650   23.1140 C   0  0  0  0  0  0  0  0  0  0  0  0
    9.3430   -5.7520   23.7210 C   0  0  0  0  0  0  0  0  0  0  0  0
    9.9410   -4.3710   24.0140 C   0  0  0  0  0  0  0  0  0  0  0  0
    9.2160   -3.0910   23.7380 C   0  0  0  0  0  0  0  0  0  0  0  0
    7.9780   -3.2430   23.1690 C   0  0  0  0  0  0  0  0  0  0  0  0
    7.4160   -4.4420   22.8610 C   0  0  0  0  0  0  0  0  0  0  0  0
    4.6860   -6.2630   22.2150 C   0  0  0  0  0  0  0  0  0  0  0  0
    5.2270   -5.3030   22.9600 C   0  0  2  0  0  0  0  0  0  0  0  0
    4.3290   -4.6070   23.7880 C   0  0  0  0  0  0  0  0  0  0  0  0
    3.4760   -6.0580   24.3180 S   0  0  1  0  0  0  0  0  0  0  0  0
    3.6200   -6.8550   22.7910 C   0  0  0  0  0  0  0  0  0  0  0  0
  1  2  2  0
  2  3  1  0
  2  4  1  0
  5  8  1  0
  7  8  2  0
  9 10  2  0
 10 11  1  0
 11 12  2  0
 12 13  1  0
  4 14  1  0
  9 14  1  0
 13 14  2  0
 16  4  1  6
 15 16  1  0
 16 17  1  0
 18  5  1  0
 18  6  1  1
 17 18  1  0
 15 19  2  0
 18 19  1  0
M  END
