x1311-x3115
     RDKit          3D

 43 46  0  0  0  0  0  0  0  0999 V2000
    6.8300   -1.6140   21.8780 N   0  0  0  0  0  0  0  0  0  0  0  0
    6.7580   -4.6850   20.1670 C   0  0  0  0  0  0  0  0  0  0  0  0
    4.7740   -2.9660   21.2530 O   0  0  0  0  0  0  0  0  0  0  0  0
    6.8180   -3.9950   21.4620 C   0  0  1  0  0  0  0  0  0  0  0  0
    7.0710    1.7290   22.8540 N   0  0  0  0  0  0  0  0  0  0  0  0
    8.6430    0.6330   21.5340 O   0  0  0  0  0  0  0  0  0  0  0  0
    6.0280   -2.7930   21.5310 C   0  0  0  0  0  0  0  0  0  0  0  0
    8.5130    5.1770   22.8890 O   0  0  0  0  0  0  0  0  0  0  0  0
    6.3810   -0.2110   21.6580 C   0  0  1  0  0  0  0  0  0  0  0  0
    7.5010    0.7250   21.9930 C   0  0  0  0  0  0  0  0  0  0  0  0
    7.9350    2.8700   23.1950 C   0  0  0  0  0  0  0  0  0  0  0  0
    7.8120    4.0830   22.2890 C   0  0  0  0  0  0  0  0  0  0  0  0
    8.3240    6.4080   22.1940 C   0  0  0  0  0  0  0  0  0  0  0  0
   12.1860   -1.7980   24.2090 C   0  0  0  0  0  0  0  0  0  0  0  0
   13.2080   -1.9600   23.2830 C   0  0  0  0  0  0  0  0  0  0  0  0
   12.1960   -3.0630   25.0710 C   0  0  0  0  0  0  0  0  0  0  0  0
   12.3120   -0.7180   24.9890 C   0  0  0  0  0  0  0  0  0  0  0  0
    6.5560   -4.8870   22.6330 N   0  0  0  0  0  0  0  0  0  0  0  0
    4.0590   -7.7460   25.2920 O   0  0  0  0  0  0  0  0  0  0  0  0
    2.4410   -5.9320   25.0110 O   0  0  0  0  0  0  0  0  0  0  0  0
    6.3340    0.3040   17.8990 N   0  0  0  0  0  0  0  0  0  0  0  0
    5.2670    1.1070   17.8100 C   0  0  0  0  0  0  0  0  0  0  0  0
    4.4330    1.5540   18.9200 C   0  0  0  0  0  0  0  0  0  0  0  0
    4.8640    1.0500   20.2250 C   0  0  0  0  0  0  0  0  0  0  0  0
    5.9730    0.2360   20.2720 C   0  0  0  0  0  0  0  0  0  0  0  0
    6.6770   -0.1230   19.1250 C   0  0  0  0  0  0  0  0  0  0  0  0
    9.2650   -1.8660   21.7030 C   0  0  0  0  0  0  0  0  0  0  0  0
   10.5270   -1.9060   22.2370 C   0  0  0  0  0  0  0  0  0  0  0  0
   10.7810   -1.7630   23.5850 C   0  0  0  0  0  0  0  0  0  0  0  0
    9.6610   -1.5820   24.3840 C   0  0  0  0  0  0  0  0  0  0  0  0
    8.3490   -1.5340   23.8700 C   0  0  0  0  0  0  0  0  0  0  0  0
    8.1470   -1.6770   22.4880 C   0  0  0  0  0  0  0  0  0  0  0  0
    8.4960   -5.7800   23.6090 C   0  0  0  0  0  0  0  0  0  0  0  0
    9.4700   -5.7400   24.5820 C   0  0  0  0  0  0  0  0  0  0  0  0
    9.4990   -4.7780   25.5750 C   0  0  0  0  0  0  0  0  0  0  0  0
    8.5160   -3.8040   25.6100 C   0  0  0  0  0  0  0  0  0  0  0  0
    7.5050   -3.7840   24.6590 C   0  0  0  0  0  0  0  0  0  0  0  0
    7.4970   -4.8470   23.5840 C   0  0  0  0  0  0  0  0  0  0  0  0
    4.5920   -6.0570   22.1770 C   0  0  0  0  0  0  0  0  0  0  0  0
    5.2530   -5.1730   22.9590 C   0  0  1  0  0  0  0  0  0  0  0  0
    5.0630   -5.3620   24.4790 C   0  0  0  0  0  0  0  0  0  0  0  0
    3.7190   -6.5180   24.4820 S   0  0  0  0  0  0  0  0  0  0  0  0
    3.6730   -6.8460   22.7620 C   0  0  0  0  0  0  0  0  0  0  0  0
  4  2  1  6
  1  7  1  0
  3  7  2  0
  4  7  1  0
  1  9  1  0
  5 10  1  0
  6 10  2  0
  9 10  1  6
  5 11  1  0
  8 12  1  0
 11 12  1  0
  8 13  1  0
 14 15  1  0
 14 16  1  0
 14 17  1  0
  4 18  1  0
 21 22  2  0
 22 23  1  0
 23 24  2  0
  9 25  1  0
 24 25  1  0
 21 26  1  0
 25 26  2  0
 27 28  2  0
 14 29  1  0
 28 29  1  0
 29 30  2  0
 30 31  1  0
  1 32  1  0
 27 32  1  0
 31 32  2  0
 33 34  2  0
 34 35  1  0
 35 36  2  0
 36 37  1  0
 18 38  1  0
 33 38  1  0
 37 38  2  0
 40 18  1  1
 39 40  1  0
 40 41  1  0
 42 19  1  0
 20 42  1  0
 41 42  1  0
 39 43  2  0
 42 43  1  0
M  END
