x1311-x2581
     RDKit          3D

 41 45  0  0  0  0  0  0  0  0999 V2000
    5.7760   -4.4840   19.9930 O   0  0  0  0  0  0  0  0  0  0  0  0
    6.6600   -4.4450   20.9410 C   0  0  0  0  0  0  0  0  0  0  0  0
    8.1440   -4.2750   20.7890 C   0  0  0  0  0  0  0  0  0  0  0  0
    6.3230   -4.5840   22.3330 N   0  0  0  0  0  0  0  0  0  0  0  0
    3.9610   -7.5700   25.3200 O   0  0  0  0  0  0  0  0  0  0  0  0
    2.3120   -5.7530   24.7060 O   0  0  0  0  0  0  0  0  0  0  0  0
   10.5650   -2.4510   22.9590 C   0  0  0  0  0  0  0  0  0  0  0  0
   10.2830   -1.2580   23.7110 O   0  0  0  0  0  0  0  0  0  0  0  0
   10.5740    3.3300   22.1020 N   0  0  0  0  0  0  0  0  0  0  0  0
   11.0340    3.6680   24.3330 O   0  0  0  0  0  0  0  0  0  0  0  0
   11.1210    3.9840   23.1780 C   0  0  0  0  0  0  0  0  0  0  0  0
   11.8320    5.2180   22.7930 C   0  0  0  0  0  0  0  0  0  0  0  0
    8.5640   -2.9850   21.5180 C   0  0  0  0  0  0  0  0  0  0  0  0
    9.2820   -3.2360   22.8350 C   0  0  0  0  0  0  0  0  0  0  0  0
    8.3080   -5.8530   23.1940 C   0  0  0  0  0  0  0  0  0  0  0  0
    9.2800   -6.0190   24.1280 C   0  0  0  0  0  0  0  0  0  0  0  0
    9.3720   -5.1490   25.2010 C   0  0  0  0  0  0  0  0  0  0  0  0
    8.4810   -4.1350   25.3030 C   0  0  0  0  0  0  0  0  0  0  0  0
    7.4600   -3.9250   24.3610 C   0  0  0  0  0  0  0  0  0  0  0  0
    7.4040   -4.8190   23.3030 C   0  0  0  0  0  0  0  0  0  0  0  0
    4.5200   -6.1110   22.1850 C   0  0  0  0  0  0  0  0  0  0  0  0
    5.0360   -4.9820   22.8990 C   0  0  1  0  0  0  0  0  0  0  0  0
    4.9300   -5.1680   24.2660 C   0  0  0  0  0  0  0  0  0  0  0  0
    3.5910   -6.3260   24.3870 S   0  0  0  0  0  0  0  0  0  0  0  0
    3.6470   -6.8760   22.8520 C   0  0  0  0  0  0  0  0  0  0  0  0
    8.9150    1.8400   21.3140 N   0  0  0  0  0  0  0  0  0  0  0  0
    9.9670    2.0620   22.1160 C   0  0  0  0  0  0  0  0  0  0  0  0
   10.4770    1.0840   22.9260 C   0  0  0  0  0  0  0  0  0  0  0  0
    9.9180   -0.1820   22.9680 C   0  0  0  0  0  0  0  0  0  0  0  0
    8.8380   -0.4050   22.1460 C   0  0  0  0  0  0  0  0  0  0  0  0
    8.3660    0.6160   21.3370 C   0  0  0  0  0  0  0  0  0  0  0  0
    9.8600    6.7620   22.8320 C   0  0  0  0  0  0  0  0  0  0  0  0
    9.1400    7.8310   23.3570 C   0  0  0  0  0  0  0  0  0  0  0  0
    9.6550    8.5410   24.4410 C   0  0  0  0  0  0  0  0  0  0  0  0
   10.9000    8.1740   25.0040 C   0  0  0  0  0  0  0  0  0  0  0  0
   11.6020    7.1000   24.4640 C   0  0  0  0  0  0  0  0  0  0  0  0
   11.0930    6.3870   23.3770 C   0  0  0  0  0  0  0  0  0  0  0  0
    8.9460    9.6250   24.9690 C   0  0  0  0  0  0  0  0  0  0  0  0
    9.4630   10.4460   26.1460 C   0  0  0  0  0  0  0  0  0  0  0  0
   10.6790   10.0820   26.6970 C   0  0  0  0  0  0  0  0  0  0  0  0
   11.4310    8.8880   26.0950 C   0  0  0  0  0  0  0  0  0  0  0  0
  1  2  2  0
  2  3  1  0
  2  4  1  0
  7  8  1  0
  9 11  1  0
 10 11  2  0
 11 12  1  0
  3 13  1  0
  7 14  1  0
 13 14  1  0
 15 16  2  0
 16 17  1  0
 17 18  2  0
 18 19  1  0
  4 20  1  0
 15 20  1  0
 19 20  2  0
 22  4  1  1
 21 22  1  0
 22 23  1  0
 24  5  1  0
  6 24  1  0
 23 24  1  0
 21 25  2  0
 24 25  1  0
  9 27  1  0
 26 27  2  0
 27 28  1  0
  8 29  1  0
 28 29  2  0
 29 30  1  0
 26 31  1  0
 30 31  2  0
 32 33  2  0
 33 34  1  0
 34 35  2  0
 35 36  1  0
 12 37  1  0
 32 37  1  0
 36 37  2  0
 34 38  1  0
 38 39  2  0
 39 40  1  0
 35 41  1  0
 40 41  2  0
M  END
