x1311-x2562
     RDKit          3D

 41 45  0  0  0  0  0  0  0  0999 V2000
    5.7420   -4.7110   20.0470 O   0  0  0  0  0  0  0  0  0  0  0  0
    6.6420   -4.5810   20.9750 C   0  0  0  0  0  0  0  0  0  0  0  0
    8.0960   -4.2720   20.7300 C   0  0  0  0  0  0  0  0  0  0  0  0
    6.3500   -4.6880   22.3920 N   0  0  0  0  0  0  0  0  0  0  0  0
    4.1590   -7.8000   25.1420 O   0  0  0  0  0  0  0  0  0  0  0  0
    2.3760   -6.0450   24.9100 O   0  0  0  0  0  0  0  0  0  0  0  0
    8.3300    0.1550   21.3920 C   0  0  0  0  0  0  0  0  0  0  0  0
    8.5030    1.5420   21.0540 O   0  0  0  0  0  0  0  0  0  0  0  0
    7.0890   -0.5400   20.9730 C   0  0  2  0  0  0  0  0  0  0  0  0
   12.1110    2.9880   23.2640 O   0  0  0  0  0  0  0  0  0  0  0  0
    9.2380   -0.6100   22.0880 N   0  0  0  0  0  0  0  0  0  0  0  0
   13.4600    7.0270   22.3650 O   0  0  0  0  0  0  0  0  0  0  0  0
    8.3300   -2.8380   21.2080 C   0  0  0  0  0  0  0  0  0  0  0  0
    7.4290   -1.9010   20.4010 C   0  0  0  0  0  0  0  0  0  0  0  0
    8.2630   -5.7970   23.2070 C   0  0  0  0  0  0  0  0  0  0  0  0
    9.3280   -5.8800   24.0660 C   0  0  0  0  0  0  0  0  0  0  0  0
    9.5700   -4.8850   24.9470 C   0  0  0  0  0  0  0  0  0  0  0  0
    8.7450   -3.7750   24.9800 C   0  0  0  0  0  0  0  0  0  0  0  0
    7.7030   -3.7040   24.1370 C   0  0  0  0  0  0  0  0  0  0  0  0
    7.4370   -4.7300   23.2250 C   0  0  0  0  0  0  0  0  0  0  0  0
    4.6360   -6.3700   22.1330 C   0  0  0  0  0  0  0  0  0  0  0  0
    5.5580   -5.7350   22.9920 C   0  0  2  0  0  0  0  0  0  0  0  0
    4.8710   -5.3510   24.2430 C   0  0  0  0  0  0  0  0  0  0  0  0
    3.5910   -6.5620   24.3270 S   0  0  0  0  0  0  0  0  0  0  0  0
    3.5680   -6.8350   22.6990 C   0  0  0  0  0  0  0  0  0  0  0  0
    4.6220    1.7530   19.2770 N   0  0  0  0  0  0  0  0  0  0  0  0
    5.0820    1.5560   18.0220 C   0  0  0  0  0  0  0  0  0  0  0  0
    6.1000    0.7530   17.6580 N   0  0  0  0  0  0  0  0  0  0  0  0
    6.6830    0.1220   18.6800 C   0  0  0  0  0  0  0  0  0  0  0  0
    6.3180    0.2430   19.9710 C   0  0  0  0  0  0  0  0  0  0  0  0
    5.2670    1.0770   20.2390 C   0  0  0  0  0  0  0  0  0  0  0  0
   12.5810    4.8470   21.6640 N   0  0  0  0  0  0  0  0  0  0  0  0
   12.6900    5.8990   22.6990 C   0  0  1  0  0  0  0  0  0  0  0  0
   13.3890    4.9560   23.3480 C   0  0  0  0  0  0  0  0  0  0  0  0
   13.1040    3.8270   22.6480 C   0  0  1  0  0  0  0  0  0  0  0  0
   11.6720   -1.0870   22.2920 C   0  0  0  0  0  0  0  0  0  0  0  0
   12.9450   -0.5860   22.5540 C   0  0  0  0  0  0  0  0  0  0  0  0
   13.1230    0.7620   22.8750 C   0  0  0  0  0  0  0  0  0  0  0  0
   12.0510    1.6500   22.9540 C   0  0  0  0  0  0  0  0  0  0  0  0
   10.7710    1.2020   22.7030 C   0  0  0  0  0  0  0  0  0  0  0  0
   10.5520   -0.2480   22.3430 C   0  0  0  0  0  0  0  0  0  0  0  0
  1  2  2  0
  2  3  1  0
  2  4  1  0
  7  8  2  0
  7  9  1  0
  7 11  1  0
  3 13  1  0
  9 14  1  6
 13 14  1  0
 15 16  2  0
 16 17  1  0
 17 18  2  0
 18 19  1  0
  4 20  1  0
 15 20  1  0
 19 20  2  0
 22  4  1  6
 21 22  1  0
 22 23  1  0
 24  5  1  0
  6 24  1  0
 23 24  1  0
 21 25  2  0
 24 25  1  0
 26 27  2  0
 27 28  1  0
 28 29  2  0
  9 30  1  0
 29 30  1  0
 26 31  1  0
 30 31  2  0
 33 12  1  6
 32 33  1  0
 33 34  1  0
 35 10  1  1
 32 35  1  0
 34 35  1  0
 36 37  2  0
 37 38  1  0
 10 39  1  0
 38 39  2  0
 39 40  1  0
 11 41  1  0
 36 41  1  0
 40 41  2  0
M  END
