x1311-x1458
     RDKit          3D

 23 24  0  0  0  0  0  0  0  0999 V2000
    7.1650   -3.5200   26.9750 N   0  0  0  0  0  0  0  0  0  0  0  0
    9.1820   -4.9200   27.5260 C   0  0  0  0  0  0  0  0  0  0  0  0
    5.3150   -2.8390   25.7110 O   0  0  0  0  0  0  0  0  0  0  0  0
    7.7110   -4.8820   27.1790 C   0  0  0  0  0  0  0  0  0  0  0  0
    5.4970   -4.8320   20.0130 O   0  0  0  0  0  0  0  0  0  0  0  0
    6.9630   -5.6430   28.0810 C   0  0  0  0  0  0  0  0  0  0  0  0
    8.0650   -2.3510   27.2720 C   0  0  0  0  0  0  0  0  0  0  0  0
    6.4440   -3.3360   25.7490 C   0  0  0  0  0  0  0  0  0  0  0  0
    6.5090   -4.1990   20.3450 C   0  0  0  0  0  0  0  0  0  0  0  0
    7.2300   -3.3400   19.3080 C   0  0  0  0  0  0  0  0  0  0  0  0
    4.4250   -6.6660   26.0000 O   0  0  0  0  0  0  0  0  0  0  0  0
    2.2880   -5.5920   24.7620 O   0  0  0  0  0  0  0  0  0  0  0  0
    7.0960   -4.2550   21.6100 N   0  0  0  0  0  0  0  0  0  0  0  0
    7.9830   -3.2130   22.0840 C   0  0  0  0  0  0  0  0  0  0  0  0
    7.5620   -2.7350   23.4560 C   0  0  0  0  0  0  0  0  0  0  0  0
    7.1280   -3.7880   24.4660 C   0  0  2  0  0  0  0  0  0  0  0  0
    6.3530   -5.0130   23.8840 C   0  0  2  0  0  0  0  0  0  0  0  0
    6.8690   -5.3030   22.5160 C   0  0  0  0  0  0  0  0  0  0  0  0
    4.3900   -6.4560   22.4160 C   0  0  0  0  0  0  0  0  0  0  0  0
    4.3650   -4.9530   22.6650 C   0  0  0  0  0  0  0  0  0  0  0  0
    4.8440   -4.7940   23.9050 C   0  0  1  0  0  0  0  0  0  0  0  0
    3.8170   -6.0430   24.6720 S   0  0  0  0  0  0  0  0  0  0  0  0
    4.0470   -7.1530   23.5030 C   0  0  0  0  0  0  0  0  0  0  0  0
  1  4  1  0
  2  4  1  0
  4  6  1  0
  1  7  1  0
  1  8  1  0
  3  8  2  0
  5  9  2  0
  9 10  1  0
  9 13  1  0
 13 14  1  0
 14 15  1  0
 16  8  1  1
 15 16  1  0
 16 17  1  0
 13 18  1  0
 17 18  1  6
 19 20  1  0
 17 21  1  0
 21 20  1  6
 22 11  1  0
 12 22  1  0
 21 22  1  0
 19 23  2  0
 22 23  1  0
M  END
