x1311-x0991
     RDKit          3D

 19 22  0  0  0  0  0  0  0  0999 V2000
    5.8390   -4.3890   19.9510 O   0  0  0  0  0  0  0  0  0  0  0  0
    6.7270   -4.3550   20.8920 C   0  0  0  0  0  0  0  0  0  0  0  0
    8.1900   -4.1730   20.6950 C   0  0  0  0  0  0  0  0  0  0  0  0
    6.3190   -4.5300   22.2500 N   0  0  0  0  0  0  0  0  0  0  0  0
    3.9930   -6.1610   25.9530 O   0  0  0  0  0  0  0  0  0  0  0  0
    2.3000   -6.1550   24.0890 O   0  0  0  0  0  0  0  0  0  0  0  0
    8.6370   -2.9070   23.0190 C   0  0  0  0  0  0  0  0  0  0  0  0
    8.4440   -5.0980   26.0030 N   0  0  0  0  0  0  0  0  0  0  0  0
    8.0330   -6.0230   23.1200 C   0  0  0  0  0  0  0  0  0  0  0  0
    9.1950   -6.0150   23.9610 C   0  0  0  0  0  0  0  0  0  0  0  0
    9.2350   -4.7130   24.7630 C   0  0  2  0  0  0  0  0  0  0  0  0
    8.3310   -3.8030   25.2410 C   0  0  1  0  0  0  0  0  0  0  0  0
    8.1700   -3.9430   23.8220 C   0  0  1  0  0  0  0  0  0  0  0  0
    7.2940   -4.8940   23.2760 C   0  0  1  0  0  0  0  0  0  0  0  0
    5.2700   -6.4320   22.5510 C   0  0  0  0  0  0  0  0  0  0  0  0
    5.0070   -5.1150   22.4850 C   0  0  1  0  0  0  0  0  0  0  0  0
    4.3910   -4.5560   23.6360 C   0  0  0  0  0  0  0  0  0  0  0  0
    3.6940   -5.9890   24.4020 S   0  0  0  0  0  0  0  0  0  0  0  0
    4.6620   -7.0970   23.5300 C   0  0  0  0  0  0  0  0  0  0  0  0
  1  2  2  0
  2  3  1  0
  2  4  1  0
  9 10  2  0
  8 11  1  0
 11 10  1  1
 12  8  1  1
 11 12  1  0
 13  7  1  6
 11 13  1  0
 12 13  1  0
 14  4  1  6
  9 14  1  0
 13 14  1  0
 16  4  1  1
 15 16  1  0
 16 17  1  0
 18  5  1  0
  6 18  1  0
 17 18  1  0
 15 19  2  0
 18 19  1  0
M  END
