x1311-x3110
     RDKit          3D

 47 50  0  0  0  0  0  0  0  0999 V2000
    8.0760    1.0950   23.2970 N   0  0  0  0  0  0  0  0  0  0  0  0
   13.5030    5.1310   22.6020 C   0  0  0  0  0  0  0  0  0  0  0  0
   12.0030    3.2400   22.5050 O   0  0  0  0  0  0  0  0  0  0  0  0
   12.3210    4.5020   21.9040 C   0  0  0  0  0  0  0  0  0  0  0  0
    6.9150   -1.6480   21.9010 N   0  0  0  0  0  0  0  0  0  0  0  0
   10.8940    4.2980   24.1920 O   0  0  0  0  0  0  0  0  0  0  0  0
   11.0660    3.3160   23.4780 C   0  0  0  0  0  0  0  0  0  0  0  0
    8.5660    1.3760   21.0980 O   0  0  0  0  0  0  0  0  0  0  0  0
   10.3300    2.1340   23.5400 C   0  0  0  0  0  0  0  0  0  0  0  0
    4.7940   -2.9640   21.2250 O   0  0  0  0  0  0  0  0  0  0  0  0
    8.8170    2.2750   23.7120 C   0  0  0  0  0  0  0  0  0  0  0  0
    7.8510    0.8150   21.9590 C   0  0  0  0  0  0  0  0  0  0  0  0
    6.6630   -0.1580   21.6300 C   0  0  1  0  0  0  0  0  0  0  0  0
    6.1130   -2.8020   21.4000 C   0  0  0  0  0  0  0  0  0  0  0  0
    6.7320   -4.1810   21.0270 C   0  0  2  0  0  0  0  0  0  0  0  0
    8.2310   -3.9660   20.6710 C   0  0  0  0  0  0  0  0  0  0  0  0
   12.2930   -1.7560   24.1670 C   0  0  0  0  0  0  0  0  0  0  0  0
   12.4680   -0.5490   24.9740 C   0  0  0  0  0  0  0  0  0  0  0  0
   13.3630   -1.7240   23.0760 C   0  0  0  0  0  0  0  0  0  0  0  0
   12.6240   -2.9730   25.0330 C   0  0  0  0  0  0  0  0  0  0  0  0
    5.8620   -4.4710   19.8700 O   0  0  0  0  0  0  0  0  0  0  0  0
    6.5140   -5.1370   22.1380 N   0  0  0  0  0  0  0  0  0  0  0  0
    4.0390   -7.6180   25.4700 O   0  0  0  0  0  0  0  0  0  0  0  0
    2.3540   -5.6270   24.8940 O   0  0  0  0  0  0  0  0  0  0  0  0
    6.3600    0.4280   17.8050 N   0  0  0  0  0  0  0  0  0  0  0  0
    5.2400    1.1700   17.7630 C   0  0  0  0  0  0  0  0  0  0  0  0
    4.4090    1.5590   18.9900 C   0  0  0  0  0  0  0  0  0  0  0  0
    4.9240    1.0660   20.3100 C   0  0  0  0  0  0  0  0  0  0  0  0
    6.0880    0.3130   20.3250 C   0  0  0  0  0  0  0  0  0  0  0  0
    6.7920    0.0000   19.0120 C   0  0  0  0  0  0  0  0  0  0  0  0
    9.3470   -1.7270   21.7280 C   0  0  0  0  0  0  0  0  0  0  0  0
   10.7030   -1.7600   22.1960 C   0  0  0  0  0  0  0  0  0  0  0  0
   10.8800   -1.7480   23.5720 C   0  0  0  0  0  0  0  0  0  0  0  0
    9.7700   -1.7150   24.4220 C   0  0  0  0  0  0  0  0  0  0  0  0
    8.4700   -1.6860   23.9060 C   0  0  0  0  0  0  0  0  0  0  0  0
    8.2270   -1.6910   22.5370 C   0  0  0  0  0  0  0  0  0  0  0  0
    8.3700   -6.0410   23.2750 C   0  0  0  0  0  0  0  0  0  0  0  0
    9.3510   -5.9890   24.2280 C   0  0  0  0  0  0  0  0  0  0  0  0
    9.4760   -4.9150   25.0780 C   0  0  0  0  0  0  0  0  0  0  0  0
    8.5770   -3.8890   24.9410 C   0  0  0  0  0  0  0  0  0  0  0  0
    7.5820   -3.9420   23.9770 C   0  0  0  0  0  0  0  0  0  0  0  0
    7.4650   -5.0210   23.1250 C   0  0  0  0  0  0  0  0  0  0  0  0
    4.5190   -6.3750   22.2410 C   0  0  0  0  0  0  0  0  0  0  0  0
    5.2230   -5.2340   22.8270 C   0  0  1  0  0  0  0  0  0  0  0  0
    5.1050   -5.3340   24.3610 C   0  0  0  0  0  0  0  0  0  0  0  0
    3.6830   -6.4020   24.5010 S   0  0  0  0  0  0  0  0  0  0  0  0
    3.6240   -7.0250   22.9930 C   0  0  0  0  0  0  0  0  0  0  0  0
  2  4  1  0
  3  4  1  0
  3  7  1  0
  6  7  2  0
  7  9  1  0
  1 11  1  0
  9 11  1  0
  1 12  1  0
  8 12  2  0
  5 13  1  0
 13 12  1  6
  5 14  1  0
 10 14  2  0
 14 15  1  0
 15 16  1  6
 17 18  1  0
 17 19  1  0
 17 20  1  0
 15 21  1  0
 15 22  1  0
 25 26  2  0
 26 27  1  0
 27 28  2  0
 13 29  1  0
 28 29  1  0
 25 30  1  0
 29 30  2  0
 31 32  2  0
 17 33  1  0
 32 33  1  0
 33 34  2  0
 34 35  1  0
  5 36  1  0
 31 36  1  0
 35 36  2  0
 37 38  2  0
 38 39  1  0
 39 40  2  0
 40 41  1  0
 22 42  1  0
 37 42  1  0
 41 42  2  0
 44 22  1  1
 43 44  1  0
 44 45  1  0
 46 23  1  0
 24 46  1  0
 45 46  1  0
 43 47  2  0
 46 47  1  0
M  END
