x1311-x3117-x3110-x3113
     RDKit          3D

 51 57  0  0  0  0  0  0  0  0999 V2000
    7.9910    1.7640   22.8060 N   0  0  0  0  0  0  0  0  0  0  0  0
   13.1920    5.5990   22.7220 C   0  0  0  0  0  0  0  0  0  0  0  0
   12.2320    3.4490   23.2550 O   0  0  0  0  0  0  0  0  0  0  0  0
   12.9400    4.1870   22.2770 C   0  0  0  0  0  0  0  0  0  0  0  0
    6.9020   -1.6580   21.9330 N   0  0  0  0  0  0  0  0  0  0  0  0
   10.8610    3.1980   22.9700 C   0  0  1  0  0  0  0  0  0  0  0  0
    8.9750    0.3760   21.3620 O   0  0  0  0  0  0  0  0  0  0  0  0
   10.3890    1.7510   22.9440 C   0  0  0  0  0  0  0  0  0  0  0  0
    4.7490   -2.9490   21.2990 O   0  0  0  0  0  0  0  0  0  0  0  0
    7.9510    0.6540   21.9550 C   0  0  0  0  0  0  0  0  0  0  0  0
    6.6270   -0.1740   21.6850 C   0  0  1  0  0  0  0  0  0  0  0  0
    6.0390   -2.8040   21.4490 C   0  0  0  0  0  0  0  0  0  0  0  0
    6.6730   -4.1940   21.0250 C   0  0  2  0  0  0  0  0  0  0  0  0
    8.1930   -3.9870   20.7080 C   0  0  0  0  0  0  0  0  0  0  0  0
   12.3020   -1.8380   24.1710 C   0  0  0  0  0  0  0  0  0  0  0  0
   12.4520   -0.5690   25.0110 C   0  0  0  0  0  0  0  0  0  0  0  0
   13.3220   -1.7760   23.0300 C   0  0  0  0  0  0  0  0  0  0  0  0
   12.7590   -2.9960   25.0740 C   0  0  0  0  0  0  0  0  0  0  0  0
    5.8080   -4.6190   19.9680 O   0  0  0  0  0  0  0  0  0  0  0  0
    6.4640   -5.0680   22.2200 N   0  0  0  0  0  0  0  0  0  0  0  0
    3.9970   -7.7450   25.3670 O   0  0  0  0  0  0  0  0  0  0  0  0
    2.3140   -5.8010   25.0700 O   0  0  0  0  0  0  0  0  0  0  0  0
    6.3670    0.3550   17.9220 N   0  0  0  0  0  0  0  0  0  0  0  0
    5.2900    1.1520   17.8620 C   0  0  0  0  0  0  0  0  0  0  0  0
    4.5780    1.5550   18.9590 C   0  0  0  0  0  0  0  0  0  0  0  0
    4.9780    1.1350   20.2250 C   0  0  0  0  0  0  0  0  0  0  0  0
    6.1100    0.3030   20.3440 C   0  0  0  0  0  0  0  0  0  0  0  0
    6.7610   -0.0550   19.1480 C   0  0  0  0  0  0  0  0  0  0  0  0
    9.3660   -1.7670   21.7300 C   0  0  0  0  0  0  0  0  0  0  0  0
   10.7120   -1.8100   22.1410 C   0  0  0  0  0  0  0  0  0  0  0  0
   10.8830   -1.8320   23.5640 C   0  0  0  0  0  0  0  0  0  0  0  0
    9.7600   -1.8300   24.4080 C   0  0  0  0  0  0  0  0  0  0  0  0
    8.4520   -1.7880   23.9070 C   0  0  0  0  0  0  0  0  0  0  0  0
    8.2410   -1.7510   22.5470 C   0  0  0  0  0  0  0  0  0  0  0  0
    9.2650    4.4760   24.5620 O   0  0  0  0  0  0  0  0  0  0  0  0
    9.7900    3.2140   24.1040 C   0  0  1  0  0  0  0  0  0  0  0  0
    9.1180    2.4780   23.0880 C   0  0  2  0  0  0  0  0  0  0  0  0
    8.4060    3.1860   22.2020 C   0  0  2  0  0  0  0  0  0  0  0  0
    7.8810    4.4000   22.6950 C   0  0  0  0  0  0  0  0  0  0  0  0
    8.6500    5.2200   23.5020 C   0  0  0  0  0  0  0  0  0  0  0  0
    8.3900   -5.9190   23.2520 C   0  0  0  0  0  0  0  0  0  0  0  0
    9.3730   -5.8830   24.2300 C   0  0  0  0  0  0  0  0  0  0  0  0
    9.4390   -4.9090   25.2110 C   0  0  0  0  0  0  0  0  0  0  0  0
    8.4850   -3.9080   25.2420 C   0  0  0  0  0  0  0  0  0  0  0  0
    7.3570   -3.8370   24.2330 C   0  0  0  0  0  0  0  0  0  0  0  0
    7.4110   -4.9610   23.2200 C   0  0  0  0  0  0  0  0  0  0  0  0
    4.5800   -6.2140   22.2750 C   0  0  0  0  0  0  0  0  0  0  0  0
    5.1680   -5.2200   22.8740 C   0  0  1  0  0  0  0  0  0  0  0  0
    5.0970   -5.4990   24.3370 C   0  0  0  0  0  0  0  0  0  0  0  0
    3.6560   -6.5390   24.6470 S   0  0  0  0  0  0  0  0  0  0  0  0
    3.7620   -6.9250   23.0420 C   0  0  0  0  0  0  0  0  0  0  0  0
  2  4  1  0
  3  4  1  0
  6  3  1  1
  6  8  1  0
  1 10  1  0
  7 10  2  0
  5 11  1  0
 11 10  1  6
  5 12  1  0
  9 12  2  0
 12 13  1  0
 13 14  1  6
 15 16  1  0
 15 17  1  0
 15 18  1  0
 13 19  1  0
 13 20  1  0
 23 24  2  0
 24 25  1  0
 25 26  2  0
 11 27  1  0
 26 27  1  0
 23 28  1  0
 27 28  2  0
 29 30  2  0
 15 31  1  0
 30 31  1  0
 31 32  2  0
 32 33  1  0
  5 34  1  0
 29 34  1  0
 33 34  2  0
  6 36  1  0
 36 35  1  6
 37  1  1  0
 37  8  1  6
 36 37  1  0
  1 38  1  0
 37 38  1  0
 38 39  1  1
 35 40  1  0
 39 40  1  0
 41 42  2  0
 42 43  1  0
 43 44  2  0
 44 45  1  0
 20 46  1  0
 41 46  1  0
 45 46  2  0
 48 20  1  6
 47 48  1  0
 48 49  1  0
 50 21  1  0
 22 50  1  0
 49 50  1  0
 47 51  2  0
 50 51  1  0
M  END
