x1311-x1249
     RDKit          3D

 39 42  0  0  0  0  0  0  0  0999 V2000
    5.7530   -4.5960   20.0360 O   0  0  0  0  0  0  0  0  0  0  0  0
    6.6370   -4.6700   20.9950 C   0  0  0  0  0  0  0  0  0  0  0  0
    8.1100   -4.8270   20.8000 C   0  0  0  0  0  0  0  0  0  0  0  0
    6.3340   -4.6300   22.3900 N   0  0  0  0  0  0  0  0  0  0  0  0
    4.1170   -7.6920   25.2700 O   0  0  0  0  0  0  0  0  0  0  0  0
    2.4190   -5.8730   24.8400 O   0  0  0  0  0  0  0  0  0  0  0  0
    8.1570    0.7930   24.7060 N   0  0  0  0  0  0  0  0  0  0  0  0
    7.3930    1.5150   23.8750 C   0  0  0  0  0  0  0  0  0  0  0  0
    7.9970    2.6060   23.1920 O   0  0  0  0  0  0  0  0  0  0  0  0
    9.4010    1.2500   25.0470 C   0  0  0  0  0  0  0  0  0  0  0  0
   13.7990   -1.1600   20.7860 N   0  0  0  0  0  0  0  0  0  0  0  0
   13.0190   -1.5920   21.9190 C   0  0  2  0  0  0  0  0  0  0  0  0
    8.8680   -4.0090   21.8700 C   0  0  0  0  0  0  0  0  0  0  0  0
    9.8170   -2.9850   21.3780 C   0  0  0  0  0  0  0  0  0  0  0  0
   10.8910   -2.7770   22.1640 C   0  0  0  0  0  0  0  0  0  0  0  0
   11.7330   -2.0880   21.3770 C   0  0  0  0  0  0  0  0  0  0  0  0
    8.3120   -5.8970   23.2070 C   0  0  0  0  0  0  0  0  0  0  0  0
    9.2920   -6.0380   24.0940 C   0  0  0  0  0  0  0  0  0  0  0  0
    9.4850   -5.1660   25.1670 C   0  0  0  0  0  0  0  0  0  0  0  0
    8.6070   -4.0940   25.3090 C   0  0  0  0  0  0  0  0  0  0  0  0
    7.4990   -3.8560   24.3770 C   0  0  0  0  0  0  0  0  0  0  0  0
    7.4300   -4.8530   23.3150 C   0  0  0  0  0  0  0  0  0  0  0  0
    4.4900   -6.0150   22.1860 C   0  0  0  0  0  0  0  0  0  0  0  0
    5.0400   -5.0240   22.9290 C   0  0  1  0  0  0  0  0  0  0  0  0
    4.9530   -5.2190   24.3260 C   0  0  0  0  0  0  0  0  0  0  0  0
    3.6560   -6.4470   24.3920 S   0  0  0  0  0  0  0  0  0  0  0  0
    3.6390   -6.8500   22.7970 C   0  0  0  0  0  0  0  0  0  0  0  0
    3.4280    0.7170   23.6100 O   0  0  0  0  0  0  0  0  0  0  0  0
    4.2000    0.8390   22.4110 C   0  0  0  0  0  0  0  0  0  0  0  0
    5.2850    1.6760   22.6070 C   0  0  0  0  0  0  0  0  0  0  0  0
    6.0790    1.1690   23.7390 N   0  0  0  0  0  0  0  0  0  0  0  0
    5.3970    1.0140   24.8960 C   0  0  0  0  0  0  0  0  0  0  0  0
    4.2150    0.2850   24.7300 C   0  0  0  0  0  0  0  0  0  0  0  0
   11.7260    1.2320   23.8910 C   0  0  0  0  0  0  0  0  0  0  0  0
   12.6790    0.5610   23.1220 C   0  0  0  0  0  0  0  0  0  0  0  0
   12.3430   -0.6860   22.6810 C   0  0  0  0  0  0  0  0  0  0  0  0
   11.1320   -1.2780   22.9570 C   0  0  0  0  0  0  0  0  0  0  0  0
   10.1780   -0.6840   23.7040 C   0  0  0  0  0  0  0  0  0  0  0  0
   10.4800    0.6660   24.2240 C   0  0  0  0  0  0  0  0  0  0  0  0
  1  2  2  0
  2  3  1  0
  2  4  1  0
  7  8  1  0
  8  9  2  0
  7 10  1  0
 12 11  1  6
  3 13  1  0
 13 14  1  0
 14 15  1  0
 12 16  1  0
 15 16  1  0
 17 18  2  0
 18 19  1  0
 19 20  2  0
 20 21  1  0
  4 22  1  0
 17 22  1  0
 21 22  2  0
 24  4  1  6
 23 24  1  0
 24 25  1  0
 26  5  1  0
  6 26  1  0
 25 26  1  0
 23 27  2  0
 26 27  1  0
 28 29  1  0
 29 30  1  0
  8 31  1  0
 30 31  1  0
 31 32  1  0
 28 33  1  0
 32 33  1  0
 34 35  2  0
 12 36  1  0
 35 36  1  0
 36 37  2  0
 37 38  1  0
 10 39  1  0
 34 39  1  0
 38 39  2  0
M  END
