x1311-x2643
     RDKit          3D

 35 38  0  0  0  0  0  0  0  0999 V2000
    5.6990   -4.5490   20.0330 O   0  0  0  0  0  0  0  0  0  0  0  0
    6.5750   -4.5560   20.9990 C   0  0  0  0  0  0  0  0  0  0  0  0
    8.0420   -4.5980   20.8060 C   0  0  0  0  0  0  0  0  0  0  0  0
    6.2730   -4.5570   22.4060 N   0  0  0  0  0  0  0  0  0  0  0  0
    3.9990   -7.5980   25.3240 O   0  0  0  0  0  0  0  0  0  0  0  0
    2.3220   -5.7610   24.7700 O   0  0  0  0  0  0  0  0  0  0  0  0
    6.5700   -0.5830   21.0460 N   0  0  0  0  0  0  0  0  0  0  0  0
    8.2010    0.9300   21.6630 O   0  0  0  0  0  0  0  0  0  0  0  0
   13.4450    0.2410   23.0100 Cl  0  0  0  0  0  0  0  0  0  0  0  0
    8.3360   -1.2650   22.4670 C   0  0  1  0  0  0  0  0  0  0  0  0
    7.7010   -0.1920   21.7080 C   0  0  0  0  0  0  0  0  0  0  0  0
    8.7320   -3.6670   21.8210 C   0  0  0  0  0  0  0  0  0  0  0  0
    8.7610   -2.2270   21.3900 C   0  0  0  0  0  0  0  0  0  0  0  0
    8.1880   -5.8460   23.1420 C   0  0  0  0  0  0  0  0  0  0  0  0
    9.2240   -6.0140   24.0390 C   0  0  0  0  0  0  0  0  0  0  0  0
    9.4220   -5.1370   25.0550 C   0  0  0  0  0  0  0  0  0  0  0  0
    8.5800   -4.0470   25.2040 C   0  0  0  0  0  0  0  0  0  0  0  0
    7.5770   -3.9000   24.3200 C   0  0  0  0  0  0  0  0  0  0  0  0
    7.3450   -4.7930   23.2600 C   0  0  0  0  0  0  0  0  0  0  0  0
    4.4700   -6.0690   22.2210 C   0  0  0  0  0  0  0  0  0  0  0  0
    4.9870   -4.9200   22.9180 C   0  0  1  0  0  0  0  0  0  0  0  0
    4.8930   -5.1870   24.3630 C   0  0  0  0  0  0  0  0  0  0  0  0
    3.5720   -6.3650   24.4030 S   0  0  0  0  0  0  0  0  0  0  0  0
    3.6600   -6.8490   22.8470 C   0  0  0  0  0  0  0  0  0  0  0  0
   11.8170    0.0840   23.2270 C   0  0  0  0  0  0  0  0  0  0  0  0
   10.9680    0.7530   24.0900 C   0  0  0  0  0  0  0  0  0  0  0  0
    9.7020    0.3520   23.9410 C   0  0  0  0  0  0  0  0  0  0  0  0
    9.5560   -0.6120   22.9700 C   0  0  0  0  0  0  0  0  0  0  0  0
   11.0540   -1.0370   22.2670 S   0  0  0  0  0  0  0  0  0  0  0  0
    6.3370    0.7980   17.5840 N   0  0  0  0  0  0  0  0  0  0  0  0
    6.7990    0.0940   18.7120 C   0  0  0  0  0  0  0  0  0  0  0  0
    6.1290    0.0810   19.9130 C   0  0  0  0  0  0  0  0  0  0  0  0
    4.9370    0.7910   20.0030 C   0  0  0  0  0  0  0  0  0  0  0  0
    4.4510    1.4990   18.9020 C   0  0  0  0  0  0  0  0  0  0  0  0
    5.1860    1.4750   17.7210 C   0  0  0  0  0  0  0  0  0  0  0  0
  1  2  2  0
  2  3  1  0
  2  4  1  0
  7 11  1  0
  8 11  2  0
 10 11  1  0
  3 12  1  0
 10 13  1  6
 12 13  1  0
 14 15  2  0
 15 16  1  0
 16 17  2  0
 17 18  1  0
  4 19  1  0
 14 19  1  0
 18 19  2  0
 21  4  1  6
 20 21  1  0
 21 22  1  0
 23  5  1  0
  6 23  1  0
 22 23  1  0
 20 24  2  0
 23 24  1  0
  9 25  1  0
 25 26  2  0
 26 27  1  0
 10 28  1  0
 27 28  2  0
 25 29  1  0
 28 29  1  0
 30 31  2  0
  7 32  1  0
 31 32  1  0
 32 33  2  0
 33 34  1  0
 30 35  1  0
 34 35  2  0
M  END
