x1311-x0678
     RDKit          3D

 35 38  0  0  0  0  0  0  0  0999 V2000
    5.8020   -4.6330   20.0460 O   0  0  0  0  0  0  0  0  0  0  0  0
    6.6980   -4.5060   20.9860 C   0  0  0  0  0  0  0  0  0  0  0  0
    8.1610   -4.1900   20.7810 C   0  0  0  0  0  0  0  0  0  0  0  0
    6.4040   -4.6440   22.4070 N   0  0  0  0  0  0  0  0  0  0  0  0
    4.1880   -7.6210   25.1440 O   0  0  0  0  0  0  0  0  0  0  0  0
    2.2880   -5.9820   24.7170 O   0  0  0  0  0  0  0  0  0  0  0  0
    9.1450    1.2770   21.3100 O   0  0  0  0  0  0  0  0  0  0  0  0
    8.6230    0.2310   21.7220 C   0  0  0  0  0  0  0  0  0  0  0  0
    9.1860   -0.4330   22.9390 C   0  0  0  0  0  0  0  0  0  0  0  0
    7.5110   -0.3610   21.1330 N   0  0  0  0  0  0  0  0  0  0  0  0
    8.4800   -2.7720   21.3430 C   0  0  0  0  0  0  0  0  0  0  0  0
    7.6240   -1.7370   20.6100 C   0  0  0  0  0  0  0  0  0  0  0  0
    8.3570   -5.7090   23.2920 C   0  0  0  0  0  0  0  0  0  0  0  0
    9.4190   -5.7170   24.1720 C   0  0  0  0  0  0  0  0  0  0  0  0
    9.6410   -4.6830   25.0260 C   0  0  0  0  0  0  0  0  0  0  0  0
    8.7850   -3.5910   25.0200 C   0  0  0  0  0  0  0  0  0  0  0  0
    7.7470   -3.6020   24.1510 C   0  0  0  0  0  0  0  0  0  0  0  0
    7.5000   -4.6610   23.2620 C   0  0  0  0  0  0  0  0  0  0  0  0
    4.6670   -6.3670   22.1280 C   0  0  0  0  0  0  0  0  0  0  0  0
    5.5130   -5.6170   22.9960 C   0  0  2  0  0  0  0  0  0  0  0  0
    4.7060   -5.1230   24.1190 C   0  0  0  0  0  0  0  0  0  0  0  0
    3.5630   -6.4560   24.2510 S   0  0  0  0  0  0  0  0  0  0  0  0
    3.5830   -6.8650   22.6580 C   0  0  0  0  0  0  0  0  0  0  0  0
   11.2600   -1.6130   22.3000 C   0  0  0  0  0  0  0  0  0  0  0  0
   12.6330   -1.7480   22.5840 C   0  0  0  0  0  0  0  0  0  0  0  0
   13.2360   -0.8860   23.4580 C   0  0  0  0  0  0  0  0  0  0  0  0
   12.4780   -0.2910   24.4540 C   0  0  0  0  0  0  0  0  0  0  0  0
   11.1340   -0.4310   24.2940 C   0  0  0  0  0  0  0  0  0  0  0  0
   10.7270   -0.5560   22.9830 C   0  0  0  0  0  0  0  0  0  0  0  0
    5.6620    1.1240   20.4010 C   0  0  0  0  0  0  0  0  0  0  0  0
    4.9370    1.6990   19.3450 C   0  0  0  0  0  0  0  0  0  0  0  0
    5.3060    1.4090   18.0300 C   0  0  0  0  0  0  0  0  0  0  0  0
    6.3210    0.6020   17.7170 N   0  0  0  0  0  0  0  0  0  0  0  0
    7.0230    0.0400   18.8070 C   0  0  0  0  0  0  0  0  0  0  0  0
    6.7340    0.2710   20.1390 C   0  0  0  0  0  0  0  0  0  0  0  0
  1  2  2  0
  2  3  1  0
  2  4  1  0
  7  8  2  0
  8  9  1  0
  8 10  1  0
  3 11  1  0
 10 12  1  0
 11 12  1  0
 13 14  2  0
 14 15  1  0
 15 16  2  0
 16 17  1  0
  4 18  1  0
 13 18  1  0
 17 18  2  0
 20  4  1  6
 19 20  1  0
 20 21  1  0
 22  5  1  0
  6 22  1  0
 21 22  1  0
 19 23  2  0
 22 23  1  0
 24 25  1  0
 25 26  1  0
 26 27  1  0
 27 28  1  0
  9 29  1  0
 24 29  1  0
 28 29  1  0
 30 31  2  0
 31 32  1  0
 32 33  2  0
 33 34  1  0
 10 35  1  0
 30 35  1  0
 34 35  2  0
M  END
