x1311-x2563
     RDKit          3D

 38 42  0  0  0  0  0  0  0  0999 V2000
    5.6380   -5.0790   20.0800 O   0  0  0  0  0  0  0  0  0  0  0  0
    6.4410   -4.6420   20.9330 C   0  0  0  0  0  0  0  0  0  0  0  0
    7.6280   -3.7480   20.5630 C   0  0  0  0  0  0  0  0  0  0  0  0
    6.2960   -4.8140   22.3290 N   0  0  0  0  0  0  0  0  0  0  0  0
    4.1040   -7.8000   25.1990 O   0  0  0  0  0  0  0  0  0  0  0  0
    2.3200   -5.8650   24.9880 O   0  0  0  0  0  0  0  0  0  0  0  0
    8.2930   -0.5290   21.1400 C   0  0  0  0  0  0  0  0  0  0  0  0
    8.2800    0.7060   21.1440 O   0  0  0  0  0  0  0  0  0  0  0  0
    7.5220   -1.2140   20.2120 C   0  0  1  0  0  0  0  0  0  0  0  0
    9.0360   -1.2910   21.9860 N   0  0  0  0  0  0  0  0  0  0  0  0
    6.8660   -2.3910   20.5660 C   0  0  0  0  0  0  0  0  0  0  0  0
    8.2610   -5.9270   23.2370 C   0  0  0  0  0  0  0  0  0  0  0  0
    9.3170   -5.9810   24.1080 C   0  0  0  0  0  0  0  0  0  0  0  0
    9.6270   -4.9710   24.9940 C   0  0  0  0  0  0  0  0  0  0  0  0
    8.7810   -3.7170   25.0290 C   0  0  0  0  0  0  0  0  0  0  0  0
    7.6080   -3.6420   24.0740 C   0  0  0  0  0  0  0  0  0  0  0  0
    7.4300   -4.8420   23.1990 C   0  0  0  0  0  0  0  0  0  0  0  0
    4.6150   -6.4320   22.1500 C   0  0  0  0  0  0  0  0  0  0  0  0
    5.4600   -5.8300   22.9700 C   0  0  2  0  0  0  0  0  0  0  0  0
    4.9370   -5.4010   24.1940 C   0  0  0  0  0  0  0  0  0  0  0  0
    3.6070   -6.5520   24.3440 S   0  0  0  0  0  0  0  0  0  0  0  0
    3.4820   -6.9010   22.7290 C   0  0  0  0  0  0  0  0  0  0  0  0
    6.2160    0.9880   17.5240 N   0  0  0  0  0  0  0  0  0  0  0  0
    5.1070    1.5700   18.0270 C   0  0  0  0  0  0  0  0  0  0  0  0
    4.6200    1.3690   19.2630 C   0  0  0  0  0  0  0  0  0  0  0  0
    5.3220    0.4130   20.2310 C   0  0  0  0  0  0  0  0  0  0  0  0
    6.5560   -0.2290   19.6360 C   0  0  0  0  0  0  0  0  0  0  0  0
    6.8840    0.1430   18.3100 C   0  0  0  0  0  0  0  0  0  0  0  0
    3.4690    2.0290   19.6800 C   0  0  0  0  0  0  0  0  0  0  0  0
    2.9370    1.7770   21.1120 C   0  0  0  0  0  0  0  0  0  0  0  0
    3.6190    0.8930   21.9540 C   0  0  0  0  0  0  0  0  0  0  0  0
    4.7780    0.2290   21.5230 C   0  0  0  0  0  0  0  0  0  0  0  0
   11.2800   -0.7040   22.4070 C   0  0  0  0  0  0  0  0  0  0  0  0
   12.2200    0.0130   23.1240 C   0  0  0  0  0  0  0  0  0  0  0  0
   11.7890    0.8080   24.1550 C   0  0  0  0  0  0  0  0  0  0  0  0
   10.4420    0.9080   24.5040 C   0  0  0  0  0  0  0  0  0  0  0  0
    9.5160    0.1990   23.7920 C   0  0  0  0  0  0  0  0  0  0  0  0
    9.9360   -0.5950   22.7470 C   0  0  0  0  0  0  0  0  0  0  0  0
  1  2  2  0
  2  3  1  0
  2  4  1  0
  7  8  2  0
  7  9  1  0
  7 10  1  0
  3 11  1  0
  9 11  1  1
 12 13  2  0
 13 14  1  0
 14 15  2  0
 15 16  1  0
  4 17  1  0
 12 17  1  0
 16 17  2  0
 19  4  1  6
 18 19  1  0
 19 20  1  0
 21  5  1  0
  6 21  1  0
 20 21  1  0
 18 22  2  0
 21 22  1  0
 23 24  2  0
 24 25  1  0
 25 26  2  0
  9 27  1  0
 26 27  1  0
 23 28  1  0
 27 28  2  0
 25 29  1  0
 29 30  2  0
 30 31  1  0
 26 32  1  0
 31 32  2  0
 33 34  2  0
 34 35  1  0
 35 36  2  0
 36 37  1  0
 10 38  1  0
 33 38  1  0
 37 38  2  0
M  END
