x1311-x2649
     RDKit          3D

 38 41  0  0  0  0  0  0  0  0999 V2000
    5.5520   -5.1470   20.0500 O   0  0  0  0  0  0  0  0  0  0  0  0
    6.4140   -4.7160   20.8210 C   0  0  0  0  0  0  0  0  0  0  0  0
    7.4610   -3.7220   20.2760 C   0  0  0  0  0  0  0  0  0  0  0  0
    6.3710   -5.0210   22.1980 N   0  0  0  0  0  0  0  0  0  0  0  0
    4.0240   -7.5730   25.3950 O   0  0  0  0  0  0  0  0  0  0  0  0
    2.3370   -5.6960   24.9300 O   0  0  0  0  0  0  0  0  0  0  0  0
    7.1350   -0.4260   20.8650 N   0  0  0  0  0  0  0  0  0  0  0  0
    7.8430   -0.7560   24.1480 C   0  0  0  0  0  0  0  0  0  0  0  0
    8.4230    1.2320   21.7030 O   0  0  0  0  0  0  0  0  0  0  0  0
   13.3750   -1.7750   21.1970 Cl  0  0  0  0  0  0  0  0  0  0  0  0
    8.5800   -0.9030   22.8170 C   0  0  1  0  0  0  0  0  0  0  0  0
    8.0380    0.0610   21.7750 C   0  0  0  0  0  0  0  0  0  0  0  0
    4.8560    1.3000   21.7590 C   0  0  0  0  0  0  0  0  0  0  0  0
    6.8980   -2.4310   19.8090 C   0  0  0  0  0  0  0  0  0  0  0  0
    7.7270   -1.4670   20.1080 C   0  0  0  0  0  0  0  0  0  0  0  0
    8.2320   -6.0330   23.2380 C   0  0  0  0  0  0  0  0  0  0  0  0
    9.2930   -5.9750   24.2530 C   0  0  0  0  0  0  0  0  0  0  0  0
    9.4370   -4.8780   25.0670 C   0  0  0  0  0  0  0  0  0  0  0  0
    8.5680   -3.7950   24.9270 C   0  0  0  0  0  0  0  0  0  0  0  0
    7.5600   -3.8650   23.9530 C   0  0  0  0  0  0  0  0  0  0  0  0
    7.3990   -4.9730   23.1280 C   0  0  0  0  0  0  0  0  0  0  0  0
    4.5040   -6.2520   22.2570 C   0  0  0  0  0  0  0  0  0  0  0  0
    5.0890   -5.2130   22.8770 C   0  0  1  0  0  0  0  0  0  0  0  0
    5.0380   -5.3270   24.4130 C   0  0  0  0  0  0  0  0  0  0  0  0
    3.6750   -6.4600   24.5240 S   0  0  0  0  0  0  0  0  0  0  0  0
    3.6380   -6.9870   22.9740 C   0  0  0  0  0  0  0  0  0  0  0  0
    6.1710    0.8360   17.5800 N   0  0  0  0  0  0  0  0  0  0  0  0
    5.1340    1.6470   17.8430 C   0  0  0  0  0  0  0  0  0  0  0  0
    4.6160    1.8690   19.2100 C   0  0  0  0  0  0  0  0  0  0  0  0
    5.3170    1.1340   20.3450 C   0  0  0  0  0  0  0  0  0  0  0  0
    6.3760    0.3290   19.9710 C   0  0  0  0  0  0  0  0  0  0  0  0
    6.7240    0.2360   18.6370 C   0  0  0  0  0  0  0  0  0  0  0  0
   10.5110    0.3020   23.8240 C   0  0  0  0  0  0  0  0  0  0  0  0
   11.8630    0.5920   23.9190 C   0  0  0  0  0  0  0  0  0  0  0  0
   12.7730   -0.0530   23.1070 C   0  0  0  0  0  0  0  0  0  0  0  0
   12.3070   -0.9840   22.2150 C   0  0  0  0  0  0  0  0  0  0  0  0
   10.8620   -1.3250   22.0890 C   0  0  0  0  0  0  0  0  0  0  0  0
   10.0580   -0.6480   22.9040 C   0  0  0  0  0  0  0  0  0  0  0  0
  1  2  2  0
  2  3  1  0
  2  4  1  0
 11  8  1  1
  7 12  1  0
  9 12  2  0
 11 12  1  0
  3 14  1  0
  7 15  1  0
 14 15  1  0
 16 17  2  0
 17 18  1  0
 18 19  2  0
 19 20  1  0
  4 21  1  0
 16 21  1  0
 20 21  2  0
 23  4  1  6
 22 23  1  0
 23 24  1  0
 25  5  1  0
  6 25  1  0
 24 25  1  0
 22 26  2  0
 25 26  1  0
 27 28  2  0
 28 29  1  0
 13 30  1  0
 29 30  2  0
  7 31  1  0
 30 31  1  0
 27 32  1  0
 31 32  2  0
 33 34  2  0
 34 35  1  0
 10 36  1  0
 35 36  2  0
 36 37  1  0
 11 38  1  0
 33 38  1  0
 37 38  2  0
M  END
