x1311-x1375
     RDKit          3D

 18 19  0  0  0  0  0  0  0  0999 V2000
    5.6330   -4.5990   19.9980 O   0  0  0  0  0  0  0  0  0  0  0  0
    6.4840   -4.4150   20.9370 C   0  0  0  0  0  0  0  0  0  0  0  0
    8.0010   -4.3770   20.8210 C   0  0  0  0  0  0  0  0  0  0  0  0
    6.1160   -4.2160   22.3110 N   0  0  0  0  0  0  0  0  0  0  0  0
    2.4050   -7.2600   23.5040 O   0  0  0  0  0  0  0  0  0  0  0  0
    4.4270   -7.6750   24.8870 O   0  0  0  0  0  0  0  0  0  0  0  0
   11.3140   -3.6650   24.5250 F   0  0  0  0  0  0  0  0  0  0  0  0
    7.9090   -2.8250   23.1550 C   0  0  0  0  0  0  0  0  0  0  0  0
    9.2490   -2.6110   23.7190 C   0  0  0  0  0  0  0  0  0  0  0  0
   10.0860   -3.7760   24.0130 C   0  0  0  0  0  0  0  0  0  0  0  0
    9.4190   -5.1290   23.7010 C   0  0  0  0  0  0  0  0  0  0  0  0
    8.0590   -5.2680   23.1310 C   0  0  0  0  0  0  0  0  0  0  0  0
    7.3850   -4.0860   22.8830 C   0  0  0  0  0  0  0  0  0  0  0  0
    4.6140   -4.4550   24.1420 C   0  0  0  0  0  0  0  0  0  0  0  0
    5.3550   -5.1400   23.1850 C   0  0  1  0  0  0  0  0  0  0  0  0
    4.7650   -6.1970   22.6240 C   0  0  0  0  0  0  0  0  0  0  0  0
    3.8030   -6.7120   24.0260 S   0  0  0  0  0  0  0  0  0  0  0  0
    3.6820   -5.2050   24.7450 C   0  0  0  0  0  0  0  0  0  0  0  0
  1  2  2  0
  2  3  1  0
  2  4  1  0
  8  9  2  0
  7 10  1  0
  9 10  1  0
 10 11  2  0
 11 12  1  0
  4 13  1  0
  8 13  1  0
 12 13  2  0
 15  4  1  6
 14 15  1  0
 15 16  1  0
 17  5  1  0
  6 17  1  0
 16 17  1  0
 14 18  2  0
 17 18  1  0
M  END
