x1311-x3117-x3110-x1493
     RDKit          3D

 53 59  0  0  0  0  0  0  0  0999 V2000
    8.0670    1.9210   22.9770 N   0  0  0  0  0  0  0  0  0  0  0  0
   13.3850    5.0640   22.9330 C   0  0  0  0  0  0  0  0  0  0  0  0
   11.9130    3.2820   23.5730 O   0  0  0  0  0  0  0  0  0  0  0  0
   12.7970    3.7320   22.5540 C   0  0  0  0  0  0  0  0  0  0  0  0
    6.8920   -1.5830   21.9930 N   0  0  0  0  0  0  0  0  0  0  0  0
   10.5820    3.5950   23.3150 C   0  0  1  0  0  0  0  0  0  0  0  0
    9.0900    0.4450   21.5450 O   0  0  0  0  0  0  0  0  0  0  0  0
   10.1740    2.7580   22.1100 C   0  0  0  0  0  0  0  0  0  0  0  0
    4.7230   -2.9040   21.2900 O   0  0  0  0  0  0  0  0  0  0  0  0
    8.0480    0.7600   22.1160 C   0  0  0  0  0  0  0  0  0  0  0  0
    6.7060   -0.0850   21.7830 C   0  0  1  0  0  0  0  0  0  0  0  0
    6.0210   -2.7270   21.4580 C   0  0  0  0  0  0  0  0  0  0  0  0
    6.6610   -4.1160   21.0050 C   0  0  2  0  0  0  0  0  0  0  0  0
    8.1920   -4.0480   20.6750 C   0  0  0  0  0  0  0  0  0  0  0  0
   12.3160   -1.8500   24.1630 C   0  0  0  0  0  0  0  0  0  0  0  0
   12.4840   -0.5590   24.9560 C   0  0  0  0  0  0  0  0  0  0  0  0
   13.3050   -1.8060   23.0030 C   0  0  0  0  0  0  0  0  0  0  0  0
   12.7450   -2.9940   25.0830 C   0  0  0  0  0  0  0  0  0  0  0  0
    5.7960   -4.5670   19.9500 O   0  0  0  0  0  0  0  0  0  0  0  0
    6.3960   -4.9880   22.2040 N   0  0  0  0  0  0  0  0  0  0  0  0
    4.5360   -6.6650   25.8340 O   0  0  0  0  0  0  0  0  0  0  0  0
    2.5450   -5.5260   24.8580 O   0  0  0  0  0  0  0  0  0  0  0  0
    6.5880   -5.6290   26.1190 O   0  0  0  0  0  0  0  0  0  0  0  0
    5.5220   -6.0480   26.5520 C   0  0  0  0  0  0  0  0  0  0  0  0
    6.4100    0.3580   17.9850 N   0  0  0  0  0  0  0  0  0  0  0  0
    5.3260    1.1430   17.9060 C   0  0  0  0  0  0  0  0  0  0  0  0
    4.6200    1.5680   19.0120 C   0  0  0  0  0  0  0  0  0  0  0  0
    5.0460    1.1770   20.2800 C   0  0  0  0  0  0  0  0  0  0  0  0
    6.1730    0.3660   20.4160 C   0  0  0  0  0  0  0  0  0  0  0  0
    6.8110   -0.0150   19.2410 C   0  0  0  0  0  0  0  0  0  0  0  0
    9.3320   -1.7340   21.7370 C   0  0  0  0  0  0  0  0  0  0  0  0
   10.6220   -1.7970   22.2560 C   0  0  0  0  0  0  0  0  0  0  0  0
   10.8700   -1.8180   23.6170 C   0  0  0  0  0  0  0  0  0  0  0  0
    9.7550   -1.7890   24.4560 C   0  0  0  0  0  0  0  0  0  0  0  0
    8.4500   -1.7240   23.9560 C   0  0  0  0  0  0  0  0  0  0  0  0
    8.2220   -1.6910   22.5760 C   0  0  0  0  0  0  0  0  0  0  0  0
    8.6790    3.9950   24.8140 O   0  0  0  0  0  0  0  0  0  0  0  0
    9.3200    2.9600   24.0260 C   0  0  1  0  0  0  0  0  0  0  0  0
    8.8950    2.8700   22.6640 C   0  0  2  0  0  0  0  0  0  0  0  0
    7.8020    3.3560   22.2600 C   0  0  2  0  0  0  0  0  0  0  0  0
    7.5550    4.7220   22.8450 C   0  0  0  0  0  0  0  0  0  0  0  0
    8.3370    5.1620   24.0420 C   0  0  0  0  0  0  0  0  0  0  0  0
    8.2610   -6.0340   23.1650 C   0  0  0  0  0  0  0  0  0  0  0  0
    9.3450   -6.0110   24.1940 C   0  0  0  0  0  0  0  0  0  0  0  0
    9.4850   -4.9910   25.1000 C   0  0  0  0  0  0  0  0  0  0  0  0
    8.5690   -3.9520   25.0370 C   0  0  0  0  0  0  0  0  0  0  0  0
    7.5420   -3.9500   24.0810 C   0  0  0  0  0  0  0  0  0  0  0  0
    7.3930   -4.9820   23.1540 C   0  0  0  0  0  0  0  0  0  0  0  0
    4.5950   -6.4270   22.4200 C   0  0  0  0  0  0  0  0  0  0  0  0
    4.9980   -5.1310   22.6870 C   0  0  1  0  0  0  0  0  0  0  0  0
    4.9470   -4.8180   24.0570 C   0  0  0  0  0  0  0  0  0  0  0  0
    3.8770   -6.0730   24.6920 S   0  0  1  0  0  0  0  0  0  0  0  0
    3.9370   -7.0760   23.4000 C   0  0  0  0  0  0  0  0  0  0  0  0
  2  4  1  0
  3  4  1  0
  6  3  1  1
  6  8  1  0
  1 10  1  0
  7 10  2  0
  5 11  1  0
 11 10  1  6
  5 12  1  0
  9 12  2  0
 12 13  1  0
 13 14  1  6
 15 16  1  0
 15 17  1  0
 15 18  1  0
 13 19  1  0
 13 20  1  0
 21 24  1  0
 23 24  2  0
 25 26  2  0
 26 27  1  0
 27 28  2  0
 11 29  1  0
 28 29  1  0
 25 30  1  0
 29 30  2  0
 31 32  2  0
 15 33  1  0
 32 33  1  0
 33 34  2  0
 34 35  1  0
  5 36  1  0
 31 36  1  0
 35 36  2  0
  6 38  1  0
 38 37  1  1
 39  1  1  0
 39  8  1  6
 38 39  1  0
  1 40  1  0
 39 40  1  0
 40 41  1  1
 37 42  1  0
 41 42  1  0
 43 44  2  0
 44 45  1  0
 45 46  2  0
 46 47  1  0
 20 48  1  0
 43 48  1  0
 47 48  2  0
 50 20  1  1
 49 50  1  0
 50 51  1  0
 52 21  1  0
 52 22  1  1
 51 52  1  0
 49 53  2  0
 52 53  1  0
M  END
