x1334-x0946
     RDKit          3D

 30 32  0  0  0  0  0  0  0  0999 V2000
    7.3630   -3.0100   18.7830 C   0  0  0  0  0  0  0  0  0  0  0  0
    5.4550   -4.1340   19.7390 O   0  0  0  0  0  0  0  0  0  0  0  0
    7.4260   -5.8440   28.5010 Cl  0  0  0  0  0  0  0  0  0  0  0  0
    6.3800   -3.2910   19.8640 C   0  0  0  0  0  0  0  0  0  0  0  0
    9.4710   -3.3140   23.7980 C   0  0  2  0  0  0  0  0  0  0  0  0
    8.9940    5.5360   22.9090 N   0  0  0  0  0  0  0  0  0  0  0  0
    9.9680    5.5430   25.1570 O   0  0  0  0  0  0  0  0  0  0  0  0
   11.3200    6.3480   23.2180 O   0  0  0  0  0  0  0  0  0  0  0  0
   13.2370   -0.3170   22.6610 Se  0  0  0  0  0  2  0  0  0  0  0  0
   10.4050    5.3940   23.7950 S   0  0  0  0  0  0  0  0  0  0  0  0
   10.5470   -2.4080   24.1800 C   0  0  0  0  0  0  0  0  0  0  0  0
   11.6390   -2.3390   23.2180 C   0  0  0  0  0  0  0  0  0  0  0  0
   12.7820   -1.6530   23.9360 C   0  0  0  0  0  0  0  0  0  0  0  0
    6.5340   -2.5860   21.0480 N   0  0  0  0  0  0  0  0  0  0  0  0
    7.5540   -1.5560   21.2770 C   0  0  0  0  0  0  0  0  0  0  0  0
    8.6930   -1.8880   22.0140 C   0  0  0  0  0  0  0  0  0  0  0  0
    8.2780   -2.7480   23.1860 N   0  0  0  0  0  0  0  0  0  0  0  0
    7.4290   -3.8510   22.7800 C   0  0  0  0  0  0  0  0  0  0  0  0
    6.2320   -3.3540   22.2810 C   0  0  0  0  0  0  0  0  0  0  0  0
    9.7360   -5.2790   25.2950 C   0  0  0  0  0  0  0  0  0  0  0  0
    9.1110   -4.0830   24.9440 C   0  0  0  0  0  0  0  0  0  0  0  0
    7.9230   -3.8590   26.1490 S   0  0  0  0  0  0  0  0  0  0  0  0
    8.1900   -5.2550   27.0910 C   0  0  0  0  0  0  0  0  0  0  0  0
    9.2920   -5.9420   26.4210 C   0  0  0  0  0  0  0  0  0  0  0  0
   12.4070    1.3460   23.0060 C   0  0  0  0  0  0  0  0  0  0  0  0
   13.0100    2.5510   22.7240 C   0  0  0  0  0  0  0  0  0  0  0  0
   12.3550    3.7220   22.9830 C   0  0  0  0  0  0  0  0  0  0  0  0
   11.0960    3.8170   23.5320 C   0  0  0  0  0  0  0  0  0  0  0  0
   10.4330    2.6580   23.8480 C   0  0  0  0  0  0  0  0  0  0  0  0
   11.0010    1.4060   23.6250 C   0  0  0  0  0  0  0  0  0  0  0  0
  1  4  1  0
  2  4  2  0
 10  6  1  0
  7 10  2  0
  8 10  2  0
  5 11  1  1
 11 12  1  0
  9 13  1  0
 12 13  1  0
  4 14  1  0
 14 15  1  0
 15 16  1  0
  5 17  1  0
 16 17  1  0
 17 18  1  0
 14 19  1  0
 18 19  1  0
  5 21  1  0
 20 21  2  0
 21 22  1  0
  3 23  1  0
 22 23  1  0
 20 24  1  0
 23 24  2  0
  9 25  1  0
 25 26  2  0
 26 27  1  0
 10 28  1  0
 27 28  2  0
 28 29  1  0
 25 30  1  0
 29 30  2  0
M  END
