x1336-x0759
     RDKit          3D

 27 29  0  0  0  0  0  0  0  0999 V2000
    6.0600   -5.4430   29.1050 C   0  0  0  0  0  0  0  0  0  0  0  0
    8.7290   -0.9360   25.1930 N   0  0  0  0  0  0  0  0  0  0  0  0
    6.1610   -1.3980   25.5540 O   0  0  0  0  0  0  0  0  0  0  0  0
    5.3920   -4.2220   19.7610 O   0  0  0  0  0  0  0  0  0  0  0  0
   10.1780   -3.7080   25.2540 C   0  0  0  0  0  0  0  0  0  0  0  0
    6.4000   -3.4930   19.9500 C   0  0  0  0  0  0  0  0  0  0  0  0
    7.2980   -3.0670   18.8620 C   0  0  0  0  0  0  0  0  0  0  0  0
    7.4900   -1.8600   25.2180 S   0  0  2  0  0  0  0  0  0  0  0  0
   12.9270    0.6840   23.5400 F   0  0  0  0  0  0  0  0  0  0  0  0
    7.0550   -4.9450   28.0980 C   0  0  0  0  0  0  0  0  0  0  0  0
    6.7610   -3.7300   27.2320 C   0  0  0  0  0  0  0  0  0  0  0  0
    7.8270   -3.2890   26.2370 C   0  0  0  0  0  0  0  0  0  0  0  0
    9.0030   -4.0570   26.2130 C   0  0  0  0  0  0  0  0  0  0  0  0
    9.2260   -5.1550   27.0150 C   0  0  0  0  0  0  0  0  0  0  0  0
    8.2690   -5.5780   27.9290 C   0  0  0  0  0  0  0  0  0  0  0  0
    6.7600   -3.0560   21.2010 N   0  0  0  0  0  0  0  0  0  0  0  0
    6.7010   -3.9570   22.1980 C   0  0  0  0  0  0  0  0  0  0  0  0
    6.4940   -3.2880   23.4250 C   0  0  0  0  0  0  0  0  0  0  0  0
    7.3810   -2.3410   23.6850 N   0  0  0  0  0  0  0  0  0  0  0  0
    7.4630   -1.4100   22.7180 C   0  0  0  0  0  0  0  0  0  0  0  0
    7.7520   -1.9660   21.4080 C   0  0  0  0  0  0  0  0  0  0  0  0
    9.7580   -0.9870   24.3060 C   0  0  0  0  0  0  0  0  0  0  0  0
   10.8590   -0.1390   24.3270 C   0  0  0  0  0  0  0  0  0  0  0  0
   11.9150   -0.1880   23.4200 C   0  0  0  0  0  0  0  0  0  0  0  0
   11.9300   -1.1280   22.3950 C   0  0  0  0  0  0  0  0  0  0  0  0
   10.8870   -1.9950   22.2990 C   0  0  0  0  0  0  0  0  0  0  0  0
    9.7980   -2.0240   23.1550 C   0  0  0  0  0  0  0  0  0  0  0  0
  4  6  2  0
  6  7  1  0
  2  8  2  0
  3  8  2  0
  1 10  1  0
 10 11  2  0
  8 12  1  1
 11 12  1  0
  5 13  1  0
 12 13  2  0
 13 14  1  0
 10 15  1  0
 14 15  2  0
  6 16  1  0
 16 17  1  0
 17 18  1  0
  8 19  1  0
 18 19  1  0
 19 20  1  0
 16 21  1  0
 20 21  1  0
  2 22  1  0
 22 23  2  0
  9 24  1  0
 23 24  1  0
 24 25  2  0
 25 26  1  0
 22 27  1  0
 26 27  2  0
M  END
