x1334-x1412
     RDKit          3D

 17 18  0  0  0  0  0  0  0  0999 V2000
    7.3370   -2.9930   18.7660 C   0  0  0  0  0  0  0  0  0  0  0  0
    5.3800   -4.0690   19.7060 O   0  0  0  0  0  0  0  0  0  0  0  0
    7.3580   -5.9690   28.5160 Cl  0  0  0  0  0  0  0  0  0  0  0  0
    6.3250   -3.2950   19.8750 C   0  0  0  0  0  0  0  0  0  0  0  0
    8.9790   -2.7340   24.3850 C   0  0  0  0  0  0  0  0  0  0  0  0
    9.2210   -1.5880   24.7610 O   0  0  0  0  0  0  0  0  0  0  0  0
    6.5330   -2.6880   21.1110 N   0  0  0  0  0  0  0  0  0  0  0  0
    7.6050   -1.6480   21.2060 C   0  0  0  0  0  0  0  0  0  0  0  0
    8.8820   -1.9810   22.0520 C   0  0  0  0  0  0  0  0  0  0  0  0
    8.6220   -3.0080   23.0660 N   0  0  0  0  0  0  0  0  0  0  0  0
    7.6570   -4.0510   22.7880 C   0  0  0  0  0  0  0  0  0  0  0  0
    6.3420   -3.4400   22.3400 C   0  0  0  0  0  0  0  0  0  0  0  0
    9.8610   -5.1120   25.2790 C   0  0  0  0  0  0  0  0  0  0  0  0
    8.9800   -3.8770   25.2670 C   0  0  0  0  0  0  0  0  0  0  0  0
    7.7790   -3.8730   26.5170 S   0  0  0  0  0  0  0  0  0  0  0  0
    8.2140   -5.3570   27.1790 C   0  0  0  0  0  0  0  0  0  0  0  0
    9.3810   -5.9470   26.4100 C   0  0  0  0  0  0  0  0  0  0  0  0
  1  4  1  0
  2  4  2  0
  5  6  2  0
  4  7  1  0
  7  8  1  0
  8  9  1  0
  5 10  1  0
  9 10  1  0
 10 11  1  0
  7 12  1  0
 11 12  1  0
  5 14  1  0
 13 14  2  0
 14 15  1  0
  3 16  1  0
 15 16  1  0
 13 17  1  0
 16 17  2  0
M  END
