x1336-x0161
     RDKit          3D

 36 38  0  0  0  0  0  0  0  0999 V2000
    6.1350   -4.9970   29.1420 C   0  0  0  0  0  0  0  0  0  0  0  0
    8.6070   -0.7870   25.3510 O   0  0  0  0  0  0  0  0  0  0  0  0
    5.9250   -1.5190   25.6960 O   0  0  0  0  0  0  0  0  0  0  0  0
    5.4690   -4.1110   19.7110 O   0  0  0  0  0  0  0  0  0  0  0  0
   10.0050   -3.8820   24.8300 C   0  0  0  0  0  0  0  0  0  0  0  0
    6.5550   -3.4990   19.9110 C   0  0  0  0  0  0  0  0  0  0  0  0
    7.4360   -3.0810   18.8000 C   0  0  0  0  0  0  0  0  0  0  0  0
    7.4140   -1.9170   25.3080 S   0  0  0  0  0  0  0  0  0  0  0  0
   13.1770   -1.8880   24.7680 C   0  0  0  0  0  0  0  0  0  0  0  0
   12.5650   -0.8730   24.4670 O   0  0  0  0  0  0  0  0  0  0  0  0
   12.8510   -0.3140   23.4110 C   0  0  0  0  0  0  0  0  0  0  0  0
   13.5180   -0.7480   22.4870 O   0  0  0  0  0  0  0  0  0  0  0  0
   10.2450    5.2690   23.6640 S   0  0  0  0  0  0  0  0  0  0  0  0
   11.1250    6.2340   23.0490 O   0  0  0  0  0  0  0  0  0  0  0  0
    9.7220    5.4760   24.9940 O   0  0  0  0  0  0  0  0  0  0  0  0
    8.9070    5.1150   22.6700 N   0  0  0  0  0  0  0  0  0  0  0  0
   10.9420   -2.7040   24.9680 C   0  0  0  0  0  0  0  0  0  0  0  0
   12.2560   -3.1090   24.6960 C   0  0  0  0  0  0  0  0  0  0  0  0
    7.1790   -4.7620   28.0590 C   0  0  0  0  0  0  0  0  0  0  0  0
    6.9780   -3.6620   27.2470 C   0  0  0  0  0  0  0  0  0  0  0  0
    7.8470   -3.3700   26.2450 C   0  0  0  0  0  0  0  0  0  0  0  0
    9.0040   -4.1430   25.9470 C   0  0  0  0  0  0  0  0  0  0  0  0
    9.2300   -5.2580   26.7620 C   0  0  0  0  0  0  0  0  0  0  0  0
    8.2860   -5.5670   27.8440 C   0  0  0  0  0  0  0  0  0  0  0  0
    6.9930   -3.2210   21.1930 N   0  0  0  0  0  0  0  0  0  0  0  0
    6.6590   -4.0980   22.2620 C   0  0  0  0  0  0  0  0  0  0  0  0
    6.3020   -3.4980   23.4600 C   0  0  0  0  0  0  0  0  0  0  0  0
    7.3800   -2.5760   23.7950 N   0  0  0  0  0  0  0  0  0  0  0  0
    7.8440   -1.6890   22.7010 C   0  0  0  0  0  0  0  0  0  0  0  0
    8.1010   -2.2870   21.4700 C   0  0  0  0  0  0  0  0  0  0  0  0
   12.2030    1.1170   23.4380 C   0  0  0  0  0  0  0  0  0  0  0  0
   12.8330    2.2310   22.9530 C   0  0  0  0  0  0  0  0  0  0  0  0
   12.2500    3.4800   23.0040 C   0  0  0  0  0  0  0  0  0  0  0  0
   10.9860    3.6590   23.5620 C   0  0  0  0  0  0  0  0  0  0  0  0
   10.3340    2.5150   24.0490 C   0  0  0  0  0  0  0  0  0  0  0  0
   10.9380    1.2570   23.9870 C   0  0  0  0  0  0  0  0  0  0  0  0
  4  6  2  0
  6  7  1  0
  2  8  2  0
  3  8  2  0
  9 10  1  0
 10 11  1  0
 11 12  2  0
 13 14  2  0
 13 15  2  0
 13 16  1  0
  5 17  1  0
  9 18  1  0
 17 18  1  0
  1 19  1  0
 19 20  2  0
  8 21  1  0
 20 21  1  0
  5 22  1  0
 21 22  2  0
 22 23  1  0
 19 24  1  0
 23 24  2  0
  6 25  1  0
 25 26  1  0
 26 27  1  0
  8 28  1  0
 27 28  1  0
 28 29  1  0
 25 30  1  0
 29 30  1  0
 11 31  1  0
 31 32  2  0
 32 33  1  0
 13 34  1  0
 33 34  2  0
 34 35  1  0
 31 36  1  0
 35 36  2  0
M  END
