x1334-x2908
     RDKit          3D

 34 39  0  0  0  0  0  0  0  0999 V2000
    7.3120   -2.9980   18.7260 C   0  0  0  0  0  0  0  0  0  0  0  0
    5.4280   -4.0870   19.7070 O   0  0  0  0  0  0  0  0  0  0  0  0
    7.3770   -5.7680   28.4750 Cl  0  0  0  0  0  0  0  0  0  0  0  0
    6.3690   -3.2510   19.8420 C   0  0  0  0  0  0  0  0  0  0  0  0
    9.4760   -3.2520   24.0480 C   0  0  0  0  0  0  0  0  0  0  0  0
    4.4570    0.9880   21.6020 C   0  0  0  0  0  0  0  0  0  0  0  0
    8.4490    0.6480   20.9510 O   0  0  0  0  0  0  0  0  0  0  0  0
   13.3370   -1.8960   21.3360 Cl  0  0  0  0  0  0  0  0  0  0  0  0
    6.8060   -0.5170   21.2770 N   0  0  0  0  0  0  0  0  0  0  0  0
    8.7450   -0.6640   22.7240 N   0  0  0  0  0  0  0  0  0  0  0  0
    7.9410   -0.2310   21.6340 C   0  0  2  0  0  0  0  0  0  0  0  0
    6.5870   -2.5640   21.0240 N   0  0  0  0  0  0  0  0  0  0  0  0
    7.6260   -1.7450   21.1100 C   0  0  2  0  0  0  0  0  0  0  0  0
    8.6610   -2.0250   22.1330 C   0  0  2  0  0  0  0  0  0  0  0  0
    8.3200   -2.9080   23.2200 N   0  0  0  0  0  0  0  0  0  0  0  0
    7.4000   -3.8280   22.8670 C   0  0  0  0  0  0  0  0  0  0  0  0
    6.2830   -3.3440   22.2400 C   0  0  0  0  0  0  0  0  0  0  0  0
    9.8040   -5.3860   25.3510 C   0  0  0  0  0  0  0  0  0  0  0  0
    9.1800   -4.1940   25.1530 C   0  0  0  0  0  0  0  0  0  0  0  0
    7.9480   -3.8270   26.3270 S   0  0  0  0  0  0  0  0  0  0  0  0
    8.2940   -5.3560   27.0990 C   0  0  0  0  0  0  0  0  0  0  0  0
    9.2630   -6.1150   26.5490 C   0  0  0  0  0  0  0  0  0  0  0  0
    6.4080    0.6490   17.6220 N   0  0  0  0  0  0  0  0  0  0  0  0
    6.8990    0.0160   18.8070 C   0  0  0  0  0  0  0  0  0  0  0  0
    6.2580    0.1380   20.0900 C   0  0  0  0  0  0  0  0  0  0  0  0
    5.1030    0.8870   20.2330 C   0  0  0  0  0  0  0  0  0  0  0  0
    4.5830    1.5250   19.0890 C   0  0  0  0  0  0  0  0  0  0  0  0
    5.2250    1.4040   17.8360 C   0  0  0  0  0  0  0  0  0  0  0  0
   10.5740    0.6860   23.6400 C   0  0  0  0  0  0  0  0  0  0  0  0
   11.9370    0.9380   23.7200 C   0  0  0  0  0  0  0  0  0  0  0  0
   12.7960    0.1400   23.0140 C   0  0  0  0  0  0  0  0  0  0  0  0
   12.3450   -0.8910   22.2390 C   0  0  0  0  0  0  0  0  0  0  0  0
   11.0180   -1.1260   22.1670 C   0  0  0  0  0  0  0  0  0  0  0  0
   10.0980   -0.3570   22.8510 C   0  0  0  0  0  0  0  0  0  0  0  0
  1  4  1  0
  2  4  2  0
 11  7  1  6
  9 11  1  0
 10 11  1  0
  4 12  1  0
 13  9  1  6
 11 13  1  0
 12 13  1  0
 14 10  1  1
 13 14  1  0
  5 15  1  0
 14 15  1  0
 15 16  1  0
 12 17  1  0
 16 17  1  0
  5 19  1  0
 18 19  2  0
 19 20  1  0
  3 21  1  0
 20 21  1  0
 18 22  1  0
 21 22  2  0
 23 24  2  0
  9 25  1  0
 24 25  1  0
  6 26  1  0
 25 26  2  0
 26 27  1  0
 23 28  1  0
 27 28  2  0
 29 30  2  0
 30 31  1  0
  8 32  1  0
 31 32  2  0
 32 33  1  0
 10 34  1  0
 29 34  1  0
 33 34  2  0
M  END
