x1336-x2754
     RDKit          3D

 23 24  0  0  0  0  0  0  0  0999 V2000
    5.0330   -5.9500   28.9700 C   0  0  0  0  0  0  0  0  0  0  0  0
    6.8330   -1.9440   24.8110 O   0  0  0  0  0  0  0  0  0  0  0  0
    6.5320   -2.0960   26.1120 C   0  0  0  0  0  0  0  0  0  0  0  0
    5.3820   -4.0280   19.7100 O   0  0  0  0  0  0  0  0  0  0  0  0
    9.9540   -4.2130   26.5720 C   0  0  0  0  0  0  0  0  0  0  0  0
    6.5180   -3.5340   19.9270 C   0  0  0  0  0  0  0  0  0  0  0  0
    7.4030   -3.0160   18.8420 C   0  0  0  0  0  0  0  0  0  0  0  0
    7.4750   -3.3720   25.3120 S   0  0  0  0  0  0  0  0  0  0  0  0
    5.7300   -1.0110   26.7920 C   0  0  0  0  0  0  0  0  0  0  0  0
    6.3200   -0.0150   27.1920 O   0  0  0  0  0  0  0  0  0  0  0  0
    6.4060   -2.5790   27.5280 C   0  0  0  0  0  0  0  0  0  0  0  0
    6.4490   -5.5380   28.4230 C   0  0  0  0  0  0  0  0  0  0  0  0
    6.4240   -4.7730   27.3060 C   0  0  0  0  0  0  0  0  0  0  0  0
    7.5960   -4.3510   26.7430 C   0  0  0  0  0  0  0  0  0  0  0  0
    8.7900   -4.7000   27.2810 C   0  0  0  0  0  0  0  0  0  0  0  0
    8.8610   -5.5020   28.4480 C   0  0  0  0  0  0  0  0  0  0  0  0
    7.6480   -5.9340   29.0410 C   0  0  0  0  0  0  0  0  0  0  0  0
    7.0240   -3.4960   21.2430 N   0  0  0  0  0  0  0  0  0  0  0  0
    6.7000   -4.6860   22.0490 C   0  0  0  0  0  0  0  0  0  0  0  0
    7.6760   -4.9650   23.1210 C   0  0  0  0  0  0  0  0  0  0  0  0
    8.1170   -3.7400   23.8000 N   0  0  0  0  0  0  0  0  0  0  0  0
    8.5000   -2.6890   22.9090 C   0  0  0  0  0  0  0  0  0  0  0  0
    8.3090   -2.8440   21.5410 C   0  0  0  0  0  0  0  0  0  0  0  0
  4  6  2  0
  6  7  1  0
  2  8  2  0
  3  8  2  0
  3  9  1  0
  9 10  2  0
  3 11  1  0
  1 12  1  0
 12 13  2  0
  8 14  1  0
 13 14  1  0
  5 15  1  0
 14 15  2  0
 15 16  1  0
 12 17  1  0
 16 17  2  0
  6 18  1  0
 18 19  1  0
 19 20  1  0
  8 21  1  0
 20 21  1  0
 21 22  1  0
 18 23  1  0
 22 23  1  0
M  END
