x1334-x1392
     RDKit          3D

 22 24  0  0  0  0  0  0  0  0999 V2000
    7.5050   -2.9400   18.7300 C   0  0  0  0  0  0  0  0  0  0  0  0
    5.5520   -3.9160   19.6710 O   0  0  0  0  0  0  0  0  0  0  0  0
    7.2710   -5.9570   28.5760 Cl  0  0  0  0  0  0  0  0  0  0  0  0
    6.5880   -3.1920   19.8500 C   0  0  0  0  0  0  0  0  0  0  0  0
    9.4420   -3.2050   24.3770 C   0  0  0  0  0  0  0  0  0  0  0  0
    6.8720   -2.7020   21.1650 N   0  0  0  0  0  0  0  0  0  0  0  0
    8.0340   -1.7140   21.4610 C   0  0  0  0  0  0  0  0  0  0  0  0
    9.0700   -2.1330   22.5370 C   0  0  2  0  0  0  0  0  0  0  0  0
    8.3220   -2.9050   23.4840 N   0  0  0  0  0  0  0  0  0  0  0  0
    7.7000   -4.0770   22.9140 C   0  0  0  0  0  0  0  0  0  0  0  0
    6.4680   -3.5930   22.2330 C   0  0  0  0  0  0  0  0  0  0  0  0
    9.6930   -5.4440   25.5130 C   0  0  0  0  0  0  0  0  0  0  0  0
    9.1410   -4.2240   25.3700 C   0  0  0  0  0  0  0  0  0  0  0  0
    7.9480   -3.9400   26.5550 S   0  0  0  0  0  0  0  0  0  0  0  0
    8.2060   -5.4800   27.2300 C   0  0  0  0  0  0  0  0  0  0  0  0
    9.1670   -6.1720   26.5750 C   0  0  0  0  0  0  0  0  0  0  0  0
   11.4840   -1.6480   22.1040 C   0  0  0  0  0  0  0  0  0  0  0  0
   12.5770   -0.7890   22.2510 C   0  0  0  0  0  0  0  0  0  0  0  0
   12.4610    0.5310   22.8940 C   0  0  0  0  0  0  0  0  0  0  0  0
   11.1090    0.8550   23.3570 C   0  0  0  0  0  0  0  0  0  0  0  0
   10.0530   -0.0270   23.1980 C   0  0  0  0  0  0  0  0  0  0  0  0
   10.2230   -1.2700   22.5820 C   0  0  0  0  0  0  0  0  0  0  0  0
  1  4  1  0
  2  4  2  0
  4  6  1  0
  6  7  1  0
  7  8  1  0
  5  9  1  0
  8  9  1  0
  9 10  1  0
  6 11  1  0
 10 11  1  0
  5 13  1  0
 12 13  2  0
 13 14  1  0
  3 15  1  0
 14 15  1  0
 12 16  1  0
 15 16  2  0
 17 18  2  0
 18 19  1  0
 19 20  2  0
 20 21  1  0
  8 22  1  1
 17 22  1  0
 21 22  2  0
M  END
