x1336-x1334
     RDKit          3D

 20 21  0  0  0  0  0  0  0  0999 V2000
    6.0890   -5.4960   29.0970 C   0  0  0  0  0  0  0  0  0  0  0  0
    8.8220   -0.8320   25.3350 O   0  0  0  0  0  0  0  0  0  0  0  0
    6.0750   -1.2570   25.7120 O   0  0  0  0  0  0  0  0  0  0  0  0
    5.4120   -4.1400   19.7390 O   0  0  0  0  0  0  0  0  0  0  0  0
   10.0860   -3.6250   25.1740 C   0  0  0  0  0  0  0  0  0  0  0  0
    6.5020   -3.5420   19.9510 C   0  0  0  0  0  0  0  0  0  0  0  0
    7.3660   -3.0870   18.8490 C   0  0  0  0  0  0  0  0  0  0  0  0
    7.5030   -1.8080   25.2860 S   0  0  0  0  0  0  0  0  0  0  0  0
    7.0790   -4.9980   28.0930 C   0  0  0  0  0  0  0  0  0  0  0  0
    6.7960   -3.7470   27.2610 C   0  0  0  0  0  0  0  0  0  0  0  0
    7.8260   -3.2710   26.2500 C   0  0  0  0  0  0  0  0  0  0  0  0
    8.9870   -4.0480   26.1660 C   0  0  0  0  0  0  0  0  0  0  0  0
    9.1720   -5.1640   26.9460 C   0  0  0  0  0  0  0  0  0  0  0  0
    8.2810   -5.6640   27.8890 C   0  0  0  0  0  0  0  0  0  0  0  0
    6.9660   -3.3320   21.2590 N   0  0  0  0  0  0  0  0  0  0  0  0
    6.4060   -4.0340   22.3590 C   0  0  0  0  0  0  0  0  0  0  0  0
    6.1240   -3.1950   23.4460 C   0  0  0  0  0  0  0  0  0  0  0  0
    7.3640   -2.4150   23.7390 N   0  0  0  0  0  0  0  0  0  0  0  0
    7.5780   -1.5660   22.7080 C   0  0  0  0  0  0  0  0  0  0  0  0
    8.0130   -2.3710   21.5650 C   0  0  0  0  0  0  0  0  0  0  0  0
  4  6  2  0
  6  7  1  0
  2  8  2  0
  3  8  2  0
  1  9  1  0
  9 10  2  0
  8 11  1  0
 10 11  1  0
  5 12  1  0
 11 12  2  0
 12 13  1  0
  9 14  1  0
 13 14  2  0
  6 15  1  0
 15 16  1  0
 16 17  1  0
  8 18  1  0
 17 18  1  0
 18 19  1  0
 15 20  1  0
 19 20  1  0
M  END
