x1334-x2119
     RDKit          3D

 16 17  0  0  0  0  0  0  0  0999 V2000
    7.3570   -3.0050   18.7590 C   0  0  0  0  0  0  0  0  0  0  0  0
    5.4290   -4.0780   19.7120 O   0  0  0  0  0  0  0  0  0  0  0  0
    7.3900   -5.7540   28.3980 Cl  0  0  0  0  0  0  0  0  0  0  0  0
    6.4050   -3.2890   19.8640 C   0  0  0  0  0  0  0  0  0  0  0  0
    9.6720   -3.0520   24.1110 C   0  0  0  0  0  0  0  0  0  0  0  0
    6.6070   -2.6860   21.1260 N   0  0  0  0  0  0  0  0  0  0  0  0
    7.6380   -1.6150   21.2210 C   0  0  0  0  0  0  0  0  0  0  0  0
    8.8210   -2.0530   22.0180 C   0  0  0  0  0  0  0  0  0  0  0  0
    8.4900   -2.6660   23.3290 N   0  0  0  0  0  0  0  0  0  0  0  0
    7.6260   -3.8290   23.0640 C   0  0  0  0  0  0  0  0  0  0  0  0
    6.3450   -3.4260   22.3600 C   0  0  0  0  0  0  0  0  0  0  0  0
    9.8670   -5.3210   25.3450 C   0  0  0  0  0  0  0  0  0  0  0  0
    9.3280   -4.0820   25.1570 C   0  0  0  0  0  0  0  0  0  0  0  0
    8.1090   -3.7760   26.3200 S   0  0  0  0  0  0  0  0  0  0  0  0
    8.3370   -5.2990   27.0490 C   0  0  0  0  0  0  0  0  0  0  0  0
    9.2950   -6.0150   26.4360 C   0  0  0  0  0  0  0  0  0  0  0  0
  1  4  1  0
  2  4  2  0
  4  6  1  0
  6  7  1  0
  7  8  1  0
  5  9  1  0
  8  9  1  0
  9 10  1  0
  6 11  1  0
 10 11  1  0
  5 13  1  0
 12 13  2  0
 13 14  1  0
  3 15  1  0
 14 15  1  0
 12 16  1  0
 15 16  2  0
M  END
