x1334-x1336
     RDKit          3D

 20 21  0  0  0  0  0  0  0  0999 V2000
    6.0380   -5.5950   29.0220 C   0  0  0  0  0  0  0  0  0  0  0  0
    8.6550   -0.8780   25.3650 O   0  0  0  0  0  0  0  0  0  0  0  0
    6.1720   -1.2520   25.6150 O   0  0  0  0  0  0  0  0  0  0  0  0
    5.3960   -4.1590   19.7290 O   0  0  0  0  0  0  0  0  0  0  0  0
   10.0340   -3.5780   25.2660 C   0  0  0  0  0  0  0  0  0  0  0  0
    6.4270   -3.4610   19.9110 C   0  0  0  0  0  0  0  0  0  0  0  0
    7.3260   -3.0900   18.8100 C   0  0  0  0  0  0  0  0  0  0  0  0
    7.5000   -1.7310   25.3080 S   0  0  0  0  0  0  0  0  0  0  0  0
    7.0430   -5.0530   28.0550 C   0  0  0  0  0  0  0  0  0  0  0  0
    6.7330   -3.7800   27.2720 C   0  0  0  0  0  0  0  0  0  0  0  0
    7.8100   -3.3080   26.3080 C   0  0  0  0  0  0  0  0  0  0  0  0
    8.9830   -4.0750   26.2220 C   0  0  0  0  0  0  0  0  0  0  0  0
    9.1800   -5.2100   26.9640 C   0  0  0  0  0  0  0  0  0  0  0  0
    8.2510   -5.7040   27.8610 C   0  0  0  0  0  0  0  0  0  0  0  0
    6.7720   -3.0520   21.2050 N   0  0  0  0  0  0  0  0  0  0  0  0
    6.5570   -4.0280   22.2790 C   0  0  0  0  0  0  0  0  0  0  0  0
    6.3480   -3.3230   23.4690 C   0  0  0  0  0  0  0  0  0  0  0  0
    7.4790   -2.3870   23.7550 N   0  0  0  0  0  0  0  0  0  0  0  0
    7.8460   -1.4840   22.6330 C   0  0  0  0  0  0  0  0  0  0  0  0
    7.9480   -2.2100   21.3720 C   0  0  0  0  0  0  0  0  0  0  0  0
  4  6  2  0
  6  7  1  0
  2  8  2  0
  3  8  2  0
  1  9  1  0
  9 10  2  0
  8 11  1  0
 10 11  1  0
  5 12  1  0
 11 12  2  0
 12 13  1  0
  9 14  1  0
 13 14  2  0
  6 15  1  0
 15 16  1  0
 16 17  1  0
  8 18  1  0
 17 18  1  0
 18 19  1  0
 15 20  1  0
 19 20  1  0
M  END
