x1336-x0305
     RDKit          3D

 30 32  0  0  0  0  0  0  0  0999 V2000
    5.7220   -4.8560   29.0850 C   0  0  0  0  0  0  0  0  0  0  0  0
    8.7410   -0.5440   26.2400 C   0  0  0  0  0  0  0  0  0  0  0  0
    7.8950   -2.3570   27.0250 O   0  0  0  0  0  0  0  0  0  0  0  0
    5.4940   -4.2540   19.8190 O   0  0  0  0  0  0  0  0  0  0  0  0
    9.5980   -4.3040   24.8850 C   0  0  0  0  0  0  0  0  0  0  0  0
    6.5280   -3.5610   20.0460 C   0  0  0  0  0  0  0  0  0  0  0  0
    7.3850   -3.0860   18.9330 C   0  0  0  0  0  0  0  0  0  0  0  0
    8.1510   -2.0190   25.4500 S   0  0  2  0  0  0  0  0  0  0  0  0
    9.1060    0.3150   27.3870 C   0  0  0  0  0  0  0  0  0  0  0  0
    9.0770    0.1510   25.1320 N   0  0  0  0  0  0  0  0  0  0  0  0
   13.0900   -1.2810   21.6570 C   0  0  0  0  0  0  0  0  0  0  0  0
   13.9210   -1.5910   20.5350 N   0  0  0  0  0  0  0  0  0  0  0  0
    6.8060   -4.7900   27.9510 C   0  0  0  0  0  0  0  0  0  0  0  0
    6.9070   -3.6070   27.2900 C   0  0  0  0  0  0  0  0  0  0  0  0
    7.8500   -3.4940   26.2930 C   0  0  0  0  0  0  0  0  0  0  0  0
    8.6470   -4.5430   25.9630 C   0  0  0  0  0  0  0  0  0  0  0  0
    8.5620   -5.7780   26.6390 C   0  0  0  0  0  0  0  0  0  0  0  0
    7.6110   -5.8980   27.6670 C   0  0  0  0  0  0  0  0  0  0  0  0
    6.9440   -3.2340   21.3370 N   0  0  0  0  0  0  0  0  0  0  0  0
    7.0050   -4.2230   22.2590 C   0  0  0  0  0  0  0  0  0  0  0  0
    6.8140   -3.5370   23.5560 C   0  0  0  0  0  0  0  0  0  0  0  0
    7.8280   -2.4990   23.8390 N   0  0  0  0  0  0  0  0  0  0  0  0
    7.8030   -1.5880   22.8350 C   0  0  0  0  0  0  0  0  0  0  0  0
    8.0030   -2.2050   21.6040 C   0  0  0  0  0  0  0  0  0  0  0  0
   10.1020   -0.2620   24.2370 C   0  0  0  0  0  0  0  0  0  0  0  0
   11.1830    0.5650   24.1270 N   0  0  0  0  0  0  0  0  0  0  0  0
   12.2050    0.2670   23.2960 C   0  0  0  0  0  0  0  0  0  0  0  0
   12.1250   -0.9040   22.5540 C   0  0  0  0  0  0  0  0  0  0  0  0
   11.0560   -1.7130   22.6860 C   0  0  0  0  0  0  0  0  0  0  0  0
   10.0290   -1.4280   23.5180 C   0  0  0  0  0  0  0  0  0  0  0  0
  4  6  2  0
  6  7  1  0
  2  8  2  0
  3  8  2  0
  2  9  1  0
  2 10  1  0
 11 12  3  0
  1 13  1  0
 13 14  2  0
  8 15  1  1
 14 15  1  0
  5 16  1  0
 15 16  2  0
 16 17  1  0
 13 18  1  0
 17 18  2  0
  6 19  1  0
 19 20  1  0
 20 21  1  0
  8 22  1  0
 21 22  1  0
 22 23  1  0
 19 24  1  0
 23 24  1  0
 10 25  1  0
 25 26  2  0
 26 27  1  0
 11 28  1  0
 27 28  2  0
 28 29  1  0
 25 30  1  0
 29 30  2  0
M  END
