x1334-x2569
     RDKit          3D

 34 38  0  0  0  0  0  0  0  0999 V2000
    7.3050   -2.9610   18.9020 C   0  0  0  0  0  0  0  0  0  0  0  0
    5.2900   -4.0140   19.6230 O   0  0  0  0  0  0  0  0  0  0  0  0
    7.3660   -5.8380   28.5630 Cl  0  0  0  0  0  0  0  0  0  0  0  0
    6.2670   -3.2900   19.9320 C   0  0  0  0  0  0  0  0  0  0  0  0
    9.2740   -3.1990   24.0780 C   0  0  0  0  0  0  0  0  0  0  0  0
    8.4530    0.2640   21.6010 C   0  0  0  0  0  0  0  0  0  0  0  0
    9.0430    1.3060   21.2880 O   0  0  0  0  0  0  0  0  0  0  0  0
    8.8050   -0.7040   22.6900 C   0  0  1  0  0  0  0  0  0  0  0  0
   14.1690   -1.1900   20.1400 N   0  0  0  0  0  0  0  0  0  0  0  0
    7.2940   -0.3470   21.0630 N   0  0  0  0  0  0  0  0  0  0  0  0
   13.3810   -1.3260   21.2810 C   0  0  0  0  0  0  0  0  0  0  0  0
    6.3330   -2.8760   21.2580 N   0  0  0  0  0  0  0  0  0  0  0  0
    6.9950   -1.6550   21.7350 C   0  0  1  0  0  0  0  0  0  0  0  0
    8.1930   -1.9910   22.2810 C   0  0  2  0  0  0  0  0  0  0  0  0
    8.0450   -2.9670   23.3280 N   0  0  0  0  0  0  0  0  0  0  0  0
    7.4960   -4.0960   22.8220 C   0  0  0  0  0  0  0  0  0  0  0  0
    6.2080   -3.8650   22.3240 C   0  0  0  0  0  0  0  0  0  0  0  0
    9.7960   -5.3770   25.3360 C   0  0  0  0  0  0  0  0  0  0  0  0
    9.0960   -4.1870   25.1510 C   0  0  0  0  0  0  0  0  0  0  0  0
    7.8850   -3.9050   26.3490 S   0  0  0  0  0  0  0  0  0  0  0  0
    8.2640   -5.4180   27.1760 C   0  0  0  0  0  0  0  0  0  0  0  0
    9.3390   -6.1560   26.5370 C   0  0  0  0  0  0  0  0  0  0  0  0
   12.0660   -1.3510   24.6990 N   0  0  0  0  0  0  0  0  0  0  0  0
   12.8730   -1.4040   23.6730 C   0  0  0  0  0  0  0  0  0  0  0  0
   12.4650   -1.2640   22.3870 C   0  0  0  0  0  0  0  0  0  0  0  0
   11.1390   -1.0440   22.0780 C   0  0  0  0  0  0  0  0  0  0  0  0
   10.2280   -0.9500   23.0740 C   0  0  0  0  0  0  0  0  0  0  0  0
   10.6650   -1.1040   24.3500 C   0  0  0  0  0  0  0  0  0  0  0  0
    6.3340    0.6440   17.6460 N   0  0  0  0  0  0  0  0  0  0  0  0
    6.9960    0.0860   18.6690 C   0  0  0  0  0  0  0  0  0  0  0  0
    6.6250    0.2010   19.9640 C   0  0  0  0  0  0  0  0  0  0  0  0
    5.4930    0.9120   20.3310 C   0  0  0  0  0  0  0  0  0  0  0  0
    4.7600    1.5150   19.3120 C   0  0  0  0  0  0  0  0  0  0  0  0
    5.1360    1.4170   17.9650 C   0  0  0  0  0  0  0  0  0  0  0  0
  1  4  1  0
  2  4  2  0
  6  7  2  0
  6  8  1  0
  6 10  1  0
  9 11  3  0
  4 12  1  0
 13 10  1  6
 12 13  1  0
  8 14  1  0
 13 14  1  0
  5 15  1  0
 14 15  1  1
 15 16  1  0
 12 17  1  0
 16 17  1  0
  5 19  1  0
 18 19  2  0
 19 20  1  0
  3 21  1  0
 20 21  1  0
 18 22  1  0
 21 22  2  0
 23 24  2  0
 11 25  1  0
 24 25  1  0
 25 26  2  0
  8 27  1  6
 26 27  1  0
 23 28  1  0
 27 28  2  0
 29 30  2  0
 10 31  1  0
 30 31  1  0
 31 32  2  0
 32 33  1  0
 29 34  1  0
 33 34  2  0
M  END
