x1336-x0995
     RDKit          3D

 20 21  0  0  0  0  0  0  0  0999 V2000
    5.8860   -5.0760   28.9700 C   0  0  0  0  0  0  0  0  0  0  0  0
    8.5800   -0.8910   25.3270 O   0  0  0  0  0  0  0  0  0  0  0  0
    6.1040   -1.3050   25.6070 O   0  0  0  0  0  0  0  0  0  0  0  0
    5.4270   -4.0340   19.6490 O   0  0  0  0  0  0  0  0  0  0  0  0
   10.0680   -3.4410   25.0810 C   0  0  0  0  0  0  0  0  0  0  0  0
    6.2600   -3.1650   19.9130 C   0  0  0  0  0  0  0  0  0  0  0  0
    6.6220   -2.1880   18.9420 C   0  0  0  0  0  0  0  0  0  0  0  0
    7.4320   -1.7770   25.2860 S   0  0  0  0  0  0  0  0  0  0  0  0
    7.0150   -4.7680   28.0060 C   0  0  0  0  0  0  0  0  0  0  0  0
    6.8340   -3.6470   27.2060 C   0  0  0  0  0  0  0  0  0  0  0  0
    7.7600   -3.2060   26.2760 C   0  0  0  0  0  0  0  0  0  0  0  0
    9.0580   -3.9650   26.1040 C   0  0  0  0  0  0  0  0  0  0  0  0
    9.2910   -5.1950   26.9660 C   0  0  0  0  0  0  0  0  0  0  0  0
    8.1650   -5.5450   27.9380 C   0  0  0  0  0  0  0  0  0  0  0  0
    6.8640   -3.1250   21.1590 N   0  0  0  0  0  0  0  0  0  0  0  0
    6.3290   -4.0300   22.1760 C   0  0  0  0  0  0  0  0  0  0  0  0
    6.1830   -3.2930   23.5090 C   0  0  0  0  0  0  0  0  0  0  0  0
    7.3960   -2.4470   23.7340 N   0  0  0  0  0  0  0  0  0  0  0  0
    7.7820   -1.5990   22.6610 C   0  0  0  0  0  0  0  0  0  0  0  0
    8.0670   -2.3540   21.5160 C   0  0  0  0  0  0  0  0  0  0  0  0
  4  6  2  0
  6  7  1  0
  2  8  2  0
  3  8  2  0
  1  9  1  0
  9 10  2  0
  8 11  1  0
 10 11  1  0
  5 12  1  0
 11 12  2  0
 12 13  1  0
  9 14  1  0
 13 14  2  0
  6 15  1  0
 15 16  1  0
 16 17  1  0
  8 18  1  0
 17 18  1  0
 18 19  1  0
 15 20  1  0
 19 20  1  0
M  END
