x1336-x1385
     RDKit          3D

 20 21  0  0  0  0  0  0  0  0999 V2000
    6.0170   -5.5060   29.0400 C   0  0  0  0  0  0  0  0  0  0  0  0
    8.7320   -0.9850   25.3360 O   0  0  0  0  0  0  0  0  0  0  0  0
    6.2380   -1.2830   25.6630 O   0  0  0  0  0  0  0  0  0  0  0  0
    5.4120   -4.0730   19.6780 O   0  0  0  0  0  0  0  0  0  0  0  0
   10.1380   -3.7480   25.1940 C   0  0  0  0  0  0  0  0  0  0  0  0
    6.4900   -3.4610   19.8900 C   0  0  0  0  0  0  0  0  0  0  0  0
    7.4270   -3.0860   18.8130 C   0  0  0  0  0  0  0  0  0  0  0  0
    7.5440   -1.8060   25.3250 S   0  0  0  0  0  0  0  0  0  0  0  0
    7.0200   -5.0000   28.0530 C   0  0  0  0  0  0  0  0  0  0  0  0
    6.7620   -3.7320   27.2570 C   0  0  0  0  0  0  0  0  0  0  0  0
    7.8270   -3.2880   26.2690 C   0  0  0  0  0  0  0  0  0  0  0  0
    8.9750   -4.1010   26.1760 C   0  0  0  0  0  0  0  0  0  0  0  0
    9.1670   -5.2450   26.9230 C   0  0  0  0  0  0  0  0  0  0  0  0
    8.2070   -5.6710   27.8340 C   0  0  0  0  0  0  0  0  0  0  0  0
    6.8450   -3.1670   21.2040 N   0  0  0  0  0  0  0  0  0  0  0  0
    6.5020   -4.0260   22.2820 C   0  0  0  0  0  0  0  0  0  0  0  0
    6.3870   -3.4630   23.5460 C   0  0  0  0  0  0  0  0  0  0  0  0
    7.4720   -2.4720   23.7830 N   0  0  0  0  0  0  0  0  0  0  0  0
    7.7000   -1.5120   22.6600 C   0  0  0  0  0  0  0  0  0  0  0  0
    7.9830   -2.2940   21.4540 C   0  0  0  0  0  0  0  0  0  0  0  0
  4  6  2  0
  6  7  1  0
  2  8  2  0
  3  8  2  0
  1  9  1  0
  9 10  2  0
  8 11  1  0
 10 11  1  0
  5 12  1  0
 11 12  2  0
 12 13  1  0
  9 14  1  0
 13 14  2  0
  6 15  1  0
 15 16  1  0
 16 17  1  0
  8 18  1  0
 17 18  1  0
 18 19  1  0
 15 20  1  0
 19 20  1  0
M  END
