x1336-x1187
     RDKit          3D

 20 21  0  0  0  0  0  0  0  0999 V2000
    5.9090   -5.0300   29.0420 C   0  0  0  0  0  0  0  0  0  0  0  0
    8.5510   -0.8870   25.2760 O   0  0  0  0  0  0  0  0  0  0  0  0
    6.0970   -1.2290   25.7040 O   0  0  0  0  0  0  0  0  0  0  0  0
    5.4280   -4.0330   19.6600 O   0  0  0  0  0  0  0  0  0  0  0  0
   10.0390   -3.4460   25.0310 C   0  0  0  0  0  0  0  0  0  0  0  0
    6.2230   -3.1130   19.9230 C   0  0  0  0  0  0  0  0  0  0  0  0
    6.6040   -2.1880   18.9210 C   0  0  0  0  0  0  0  0  0  0  0  0
    7.3870   -1.7300   25.2800 S   0  0  0  0  0  0  0  0  0  0  0  0
    7.0300   -4.7290   28.0330 C   0  0  0  0  0  0  0  0  0  0  0  0
    6.8180   -3.6130   27.2130 C   0  0  0  0  0  0  0  0  0  0  0  0
    7.7410   -3.1830   26.2670 C   0  0  0  0  0  0  0  0  0  0  0  0
    9.0320   -3.9370   26.0840 C   0  0  0  0  0  0  0  0  0  0  0  0
    9.2820   -5.1670   26.9580 C   0  0  0  0  0  0  0  0  0  0  0  0
    8.1680   -5.5040   27.9500 C   0  0  0  0  0  0  0  0  0  0  0  0
    6.7720   -2.9930   21.1910 N   0  0  0  0  0  0  0  0  0  0  0  0
    6.3820   -4.0480   22.1240 C   0  0  0  0  0  0  0  0  0  0  0  0
    6.4380   -3.5790   23.5800 C   0  0  0  0  0  0  0  0  0  0  0  0
    7.1890   -2.2850   23.6580 N   0  0  0  0  0  0  0  0  0  0  0  0
    8.3020   -2.1160   22.8200 C   0  0  0  0  0  0  0  0  0  0  0  0
    8.0400   -2.2810   21.4420 C   0  0  0  0  0  0  0  0  0  0  0  0
  4  6  2  0
  6  7  1  0
  2  8  2  0
  3  8  2  0
  1  9  1  0
  9 10  2  0
  8 11  1  0
 10 11  1  0
  5 12  1  0
 11 12  2  0
 12 13  1  0
  9 14  1  0
 13 14  2  0
  6 15  1  0
 15 16  1  0
 16 17  1  0
  8 18  1  0
 17 18  1  0
 18 19  1  0
 15 20  1  0
 19 20  1  0
M  END
