x1334-x2608
     RDKit          3D

 32 37  0  0  0  0  0  0  0  0999 V2000
    7.3290   -3.0120   18.8910 C   0  0  0  0  0  0  0  0  0  0  0  0
    5.5000   -4.2050   19.8160 O   0  0  0  0  0  0  0  0  0  0  0  0
    7.3320   -5.6850   28.4740 Cl  0  0  0  0  0  0  0  0  0  0  0  0
    6.3850   -3.3140   20.0290 C   0  0  0  0  0  0  0  0  0  0  0  0
    9.4390   -3.2540   23.9030 C   0  0  0  0  0  0  0  0  0  0  0  0
    8.4950   -0.8460   22.3020 C   0  0  2  0  0  0  0  0  0  0  0  0
   13.0970    1.6930   22.9230 C   0  0  0  0  0  0  0  0  0  0  0  0
    8.5770    1.4430   21.3010 O   0  0  0  0  0  0  0  0  0  0  0  0
    7.6580   -0.6040   20.4380 N   0  0  0  0  0  0  0  0  0  0  0  0
    8.2810    0.2300   21.3270 C   0  0  0  0  0  0  0  0  0  0  0  0
    6.5070   -2.6300   21.2760 N   0  0  0  0  0  0  0  0  0  0  0  0
    7.6880   -1.7030   21.3890 C   0  0  2  0  0  0  0  0  0  0  0  0
    8.7150   -2.2830   21.7610 C   0  0  2  0  0  0  0  0  0  0  0  0
    8.6130   -3.3880   22.7060 N   0  0  0  0  0  0  0  0  0  0  0  0
    7.4040   -4.2170   22.7580 C   0  0  0  0  0  0  0  0  0  0  0  0
    6.2840   -3.4430   22.4630 C   0  0  0  0  0  0  0  0  0  0  0  0
    9.7760   -5.4290   25.2270 C   0  0  0  0  0  0  0  0  0  0  0  0
    9.1500   -4.1920   25.0180 C   0  0  0  0  0  0  0  0  0  0  0  0
    7.9510   -3.7970   26.2060 S   0  0  0  0  0  0  0  0  0  0  0  0
    8.2310   -5.3160   27.0720 C   0  0  0  0  0  0  0  0  0  0  0  0
    9.2510   -6.1320   26.4550 C   0  0  0  0  0  0  0  0  0  0  0  0
   12.0830    0.6900   22.8100 C   0  0  0  0  0  0  0  0  0  0  0  0
   12.2330   -0.6700   22.7840 C   0  0  0  0  0  0  0  0  0  0  0  0
   11.0320   -1.3280   22.6270 C   0  0  0  0  0  0  0  0  0  0  0  0
    9.9200   -0.4600   22.5320 C   0  0  0  0  0  0  0  0  0  0  0  0
   10.3220    1.1840   22.6650 S   0  0  0  0  0  0  0  0  0  0  0  0
    5.7000    0.9590   17.7110 N   0  0  0  0  0  0  0  0  0  0  0  0
    6.7920    0.3280   18.4400 C   0  0  0  0  0  0  0  0  0  0  0  0
    6.6420   -0.0560   19.7410 C   0  0  0  0  0  0  0  0  0  0  0  0
    5.4510    0.1340   20.4200 C   0  0  0  0  0  0  0  0  0  0  0  0
    4.4420    0.7340   19.7300 C   0  0  0  0  0  0  0  0  0  0  0  0
    4.5540    1.1390   18.4320 C   0  0  0  0  0  0  0  0  0  0  0  0
  1  4  1  0
  2  4  2  0
  6 10  1  0
  8 10  2  0
  9 10  1  0
  4 11  1  0
  6 12  1  0
 12  9  1  6
 11 12  1  0
  6 13  1  0
 12 13  1  0
  5 14  1  0
 13 14  1  1
 14 15  1  0
 11 16  1  0
 15 16  1  0
  5 18  1  0
 17 18  2  0
 18 19  1  0
  3 20  1  0
 19 20  1  0
 17 21  1  0
 20 21  2  0
  7 22  1  0
 22 23  2  0
 23 24  1  0
  6 25  1  1
 24 25  2  0
 22 26  1  0
 25 26  1  0
 27 28  2  0
  9 29  1  0
 28 29  1  0
 29 30  2  0
 30 31  1  0
 27 32  1  0
 31 32  2  0
M  END
