x1336-x0946
     RDKit          3D

 34 36  0  0  0  0  0  0  0  0999 V2000
    6.0640   -5.0990   29.1780 C   0  0  0  0  0  0  0  0  0  0  0  0
    8.6660   -0.9670   25.4280 O   0  0  0  0  0  0  0  0  0  0  0  0
    5.9220   -1.3990   25.5600 O   0  0  0  0  0  0  0  0  0  0  0  0
    5.3820   -4.1970   19.7540 O   0  0  0  0  0  0  0  0  0  0  0  0
    9.8950   -3.8400   25.0860 C   0  0  0  0  0  0  0  0  0  0  0  0
    6.4280   -3.5340   19.9670 C   0  0  0  0  0  0  0  0  0  0  0  0
    7.2960   -3.0850   18.8620 C   0  0  0  0  0  0  0  0  0  0  0  0
    7.3780   -1.9820   25.3000 S   0  0  0  0  0  0  0  0  0  0  0  0
    9.0840    5.4130   22.7970 N   0  0  0  0  0  0  0  0  0  0  0  0
   10.2150    5.5730   25.0980 O   0  0  0  0  0  0  0  0  0  0  0  0
   11.5060    6.2750   23.2000 O   0  0  0  0  0  0  0  0  0  0  0  0
   13.1830   -0.4350   22.7470 Se  0  0  0  0  0  2  0  0  0  0  0  0
   10.5330    5.2930   23.7130 S   0  0  0  0  0  0  0  0  0  0  0  0
   10.4580   -2.5190   24.8580 C   0  0  0  0  0  0  0  0  0  0  0  0
   11.9140   -2.3850   24.4020 C   0  0  0  0  0  0  0  0  0  0  0  0
   11.9530   -1.9450   22.9540 C   0  0  0  0  0  0  0  0  0  0  0  0
    7.1350   -4.7810   28.0770 C   0  0  0  0  0  0  0  0  0  0  0  0
    6.8600   -3.6960   27.2850 C   0  0  0  0  0  0  0  0  0  0  0  0
    7.7740   -3.3710   26.2840 C   0  0  0  0  0  0  0  0  0  0  0  0
    8.9040   -4.1150   26.1090 C   0  0  0  0  0  0  0  0  0  0  0  0
    9.2070   -5.2320   26.9130 C   0  0  0  0  0  0  0  0  0  0  0  0
    8.2900   -5.5410   27.9000 C   0  0  0  0  0  0  0  0  0  0  0  0
    6.8470   -3.2180   21.2510 N   0  0  0  0  0  0  0  0  0  0  0  0
    6.5110   -4.0140   22.2040 C   0  0  0  0  0  0  0  0  0  0  0  0
    6.4050   -3.3960   23.5280 C   0  0  0  0  0  0  0  0  0  0  0  0
    7.3800   -2.5750   23.7550 N   0  0  0  0  0  0  0  0  0  0  0  0
    7.8080   -1.6120   22.7350 C   0  0  0  0  0  0  0  0  0  0  0  0
    7.9190   -2.2790   21.5300 C   0  0  0  0  0  0  0  0  0  0  0  0
   12.2830    1.2000   23.0860 C   0  0  0  0  0  0  0  0  0  0  0  0
   12.9470    2.3420   22.8000 C   0  0  0  0  0  0  0  0  0  0  0  0
   12.4100    3.5880   22.9860 C   0  0  0  0  0  0  0  0  0  0  0  0
   11.1400    3.6620   23.4980 C   0  0  0  0  0  0  0  0  0  0  0  0
   10.4010    2.5080   23.8200 C   0  0  0  0  0  0  0  0  0  0  0  0
   10.9920    1.2500   23.6060 C   0  0  0  0  0  0  0  0  0  0  0  0
  4  6  2  0
  6  7  1  0
  2  8  2  0
  3  8  2  0
 13  9  1  0
 10 13  2  0
 11 13  2  0
  5 14  1  0
 14 15  1  0
 12 16  1  0
 15 16  1  0
  1 17  1  0
 17 18  2  0
  8 19  1  0
 18 19  1  0
  5 20  1  0
 19 20  2  0
 20 21  1  0
 17 22  1  0
 21 22  2  0
  6 23  1  0
 23 24  1  0
 24 25  1  0
  8 26  1  0
 25 26  1  0
 26 27  1  0
 23 28  1  0
 27 28  1  0
 12 29  1  0
 29 30  2  0
 30 31  1  0
 13 32  1  0
 31 32  2  0
 32 33  1  0
 29 34  1  0
 33 34  2  0
M  END
