x1336-x2097
     RDKit          3D

 20 21  0  0  0  0  0  0  0  0999 V2000
    5.9960   -5.3610   29.0800 C   0  0  0  0  0  0  0  0  0  0  0  0
    8.5900   -0.9320   25.3330 O   0  0  0  0  0  0  0  0  0  0  0  0
    5.9810   -1.2960   25.6750 O   0  0  0  0  0  0  0  0  0  0  0  0
    5.4020   -4.1450   19.7330 O   0  0  0  0  0  0  0  0  0  0  0  0
   10.1540   -3.6330   25.1820 C   0  0  0  0  0  0  0  0  0  0  0  0
    6.4310   -3.4880   19.9670 C   0  0  0  0  0  0  0  0  0  0  0  0
    7.3360   -3.0610   18.8100 C   0  0  0  0  0  0  0  0  0  0  0  0
    7.4460   -1.8190   25.3210 S   0  0  0  0  0  0  0  0  0  0  0  0
    7.0140   -4.9070   28.0930 C   0  0  0  0  0  0  0  0  0  0  0  0
    6.7450   -3.7480   27.3120 C   0  0  0  0  0  0  0  0  0  0  0  0
    7.7880   -3.2680   26.2910 C   0  0  0  0  0  0  0  0  0  0  0  0
    9.0770   -4.0350   26.1430 C   0  0  0  0  0  0  0  0  0  0  0  0
    9.2660   -5.1560   26.9350 C   0  0  0  0  0  0  0  0  0  0  0  0
    8.2150   -5.6010   27.9290 C   0  0  0  0  0  0  0  0  0  0  0  0
    6.8330   -3.1550   21.2570 N   0  0  0  0  0  0  0  0  0  0  0  0
    6.5640   -4.1420   22.2940 C   0  0  0  0  0  0  0  0  0  0  0  0
    6.3400   -3.5020   23.5000 C   0  0  0  0  0  0  0  0  0  0  0  0
    7.4250   -2.5070   23.7810 N   0  0  0  0  0  0  0  0  0  0  0  0
    7.7780   -1.5710   22.6740 C   0  0  0  0  0  0  0  0  0  0  0  0
    8.0110   -2.3060   21.5210 C   0  0  0  0  0  0  0  0  0  0  0  0
  4  6  2  0
  6  7  1  0
  2  8  2  0
  3  8  2  0
  1  9  1  0
  9 10  2  0
  8 11  1  0
 10 11  1  0
  5 12  1  0
 11 12  2  0
 12 13  1  0
  9 14  1  0
 13 14  2  0
  6 15  1  0
 15 16  1  0
 16 17  1  0
  8 18  1  0
 17 18  1  0
 18 19  1  0
 15 20  1  0
 19 20  1  0
M  END
