x1334-x2097
     RDKit          3D

 16 17  0  0  0  0  0  0  0  0999 V2000
    7.3770   -3.0180   18.7820 C   0  0  0  0  0  0  0  0  0  0  0  0
    5.4090   -4.0490   19.6940 O   0  0  0  0  0  0  0  0  0  0  0  0
    7.3770   -5.7470   28.3930 Cl  0  0  0  0  0  0  0  0  0  0  0  0
    6.3950   -3.2780   19.8640 C   0  0  0  0  0  0  0  0  0  0  0  0
    9.6640   -3.0520   24.1030 C   0  0  0  0  0  0  0  0  0  0  0  0
    6.5880   -2.6730   21.1270 N   0  0  0  0  0  0  0  0  0  0  0  0
    7.6280   -1.6090   21.2190 C   0  0  0  0  0  0  0  0  0  0  0  0
    8.8110   -2.0580   22.0110 C   0  0  0  0  0  0  0  0  0  0  0  0
    8.4800   -2.6650   23.3220 N   0  0  0  0  0  0  0  0  0  0  0  0
    7.6150   -3.8270   23.0590 C   0  0  0  0  0  0  0  0  0  0  0  0
    6.3320   -3.4200   22.3570 C   0  0  0  0  0  0  0  0  0  0  0  0
    9.8610   -5.3180   25.3430 C   0  0  0  0  0  0  0  0  0  0  0  0
    9.3190   -4.0810   25.1520 C   0  0  0  0  0  0  0  0  0  0  0  0
    8.0980   -3.7720   26.3100 S   0  0  0  0  0  0  0  0  0  0  0  0
    8.3260   -5.2920   27.0440 C   0  0  0  0  0  0  0  0  0  0  0  0
    9.2860   -6.0090   26.4360 C   0  0  0  0  0  0  0  0  0  0  0  0
  1  4  1  0
  2  4  2  0
  4  6  1  0
  6  7  1  0
  7  8  1  0
  5  9  1  0
  8  9  1  0
  9 10  1  0
  6 11  1  0
 10 11  1  0
  5 13  1  0
 12 13  2  0
 13 14  1  0
  3 15  1  0
 14 15  1  0
 12 16  1  0
 15 16  2  0
M  END
