x1336-x0967
     RDKit          3D

 40 42  0  0  0  0  0  0  0  0999 V2000
    7.4240    4.5430   22.3470 C   0  0  0  0  0  0  0  0  0  0  0  0
    8.0980    2.2470   22.9800 N   0  0  0  0  0  0  0  0  0  0  0  0
    5.9900    3.0180   23.5950 O   0  0  0  0  0  0  0  0  0  0  0  0
    7.0780    3.2070   23.0290 C   0  0  0  0  0  0  0  0  0  0  0  0
    9.1370   -1.1870   22.8920 N   0  0  0  0  0  0  0  0  0  0  0  0
    5.7380    0.8920   16.9940 O   0  0  0  0  0  0  0  0  0  0  0  0
    7.7600    0.8700   23.0920 C   0  0  1  0  0  0  0  0  0  0  0  0
    9.6980    0.8780   21.6980 O   0  0  0  0  0  0  0  0  0  0  0  0
    6.4000    0.5090   22.6220 C   0  0  0  0  0  0  0  0  0  0  0  0
    8.8310    0.1660   22.5740 C   0  0  0  0  0  0  0  0  0  0  0  0
   10.1640   -1.7050   21.9790 C   0  0  0  0  0  0  0  0  0  0  0  0
   11.5320   -1.0840   22.1600 C   0  0  0  0  0  0  0  0  0  0  0  0
   12.2980   -1.7160   23.1160 C   0  0  0  0  0  0  0  0  0  0  0  0
   13.3570   -2.5080   24.4660 Br  0  0  0  0  0  0  0  0  0  0  0  0
    6.0540   -5.2540   29.0490 C   0  0  0  0  0  0  0  0  0  0  0  0
    8.4670   -0.7870   25.4220 O   0  0  0  0  0  0  0  0  0  0  0  0
    6.1300   -1.2500   26.0040 O   0  0  0  0  0  0  0  0  0  0  0  0
    5.4590   -4.3020   19.8040 O   0  0  0  0  0  0  0  0  0  0  0  0
   10.0300   -3.7710   25.0200 C   0  0  0  0  0  0  0  0  0  0  0  0
    6.4850   -3.6190   20.0490 C   0  0  0  0  0  0  0  0  0  0  0  0
    7.3720   -3.1010   18.9580 C   0  0  0  0  0  0  0  0  0  0  0  0
    7.3710   -1.8190   25.3630 S   0  0  0  0  0  0  0  0  0  0  0  0
    6.1830    0.6350   21.1340 C   0  0  0  0  0  0  0  0  0  0  0  0
    7.0370   -0.2040   20.2830 C   0  0  0  0  0  0  0  0  0  0  0  0
    6.7910   -0.0340   18.8680 C   0  0  0  0  0  0  0  0  0  0  0  0
    5.8590    0.8220   18.3160 C   0  0  0  0  0  0  0  0  0  0  0  0
    5.0780    1.5890   19.1640 C   0  0  0  0  0  0  0  0  0  0  0  0
    5.2330    1.5010   20.5540 C   0  0  0  0  0  0  0  0  0  0  0  0
    7.0790   -4.8670   28.0030 C   0  0  0  0  0  0  0  0  0  0  0  0
    6.9060   -3.7350   27.2140 C   0  0  0  0  0  0  0  0  0  0  0  0
    7.8050   -3.3240   26.2390 C   0  0  0  0  0  0  0  0  0  0  0  0
    8.9610   -4.0850   26.0260 C   0  0  0  0  0  0  0  0  0  0  0  0
    9.1250   -5.2150   26.8200 C   0  0  0  0  0  0  0  0  0  0  0  0
    8.2280   -5.6370   27.8010 C   0  0  0  0  0  0  0  0  0  0  0  0
    6.8310   -3.3370   21.3810 N   0  0  0  0  0  0  0  0  0  0  0  0
    6.4210   -4.1340   22.5460 C   0  0  0  0  0  0  0  0  0  0  0  0
    6.0450   -3.2520   23.5840 C   0  0  0  0  0  0  0  0  0  0  0  0
    7.0410   -2.1800   23.7540 N   0  0  0  0  0  0  0  0  0  0  0  0
    8.2260   -2.2630   22.9290 C   0  0  1  0  0  0  0  0  0  0  0  0
    8.0860   -2.6810   21.6370 C   0  0  0  0  0  0  0  0  0  0  0  0
  1  4  1  0
  2  4  1  0
  3  4  2  0
  2  7  1  0
  7  9  1  6
  5 10  1  0
  7 10  1  0
  8 10  2  0
  5 11  1  0
 11 12  1  0
 12 13  3  0
 13 14  1  0
 18 20  2  0
 20 21  1  0
 16 22  2  0
 17 22  2  0
  9 23  1  0
 23 24  2  0
 24 25  1  0
  6 26  1  0
 25 26  2  0
 26 27  1  0
 23 28  1  0
 27 28  2  0
 15 29  1  0
 29 30  2  0
 22 31  1  0
 30 31  1  0
 19 32  1  0
 31 32  2  0
 32 33  1  0
 29 34  1  0
 33 34  2  0
 20 35  1  0
 35 36  1  0
 36 37  1  0
 22 38  1  0
 37 38  1  0
 39  5  1  6
 38 39  1  0
 35 40  1  0
 39 40  1  0
M  END
