x1336-x2119
     RDKit          3D

 20 21  0  0  0  0  0  0  0  0999 V2000
    6.0760   -5.5020   29.0800 C   0  0  0  0  0  0  0  0  0  0  0  0
    8.8150   -0.8360   25.3400 O   0  0  0  0  0  0  0  0  0  0  0  0
    6.0680   -1.2550   25.7020 O   0  0  0  0  0  0  0  0  0  0  0  0
    5.3900   -4.1430   19.7330 O   0  0  0  0  0  0  0  0  0  0  0  0
   10.0790   -3.6060   25.1800 C   0  0  0  0  0  0  0  0  0  0  0  0
    6.4660   -3.5250   19.9490 C   0  0  0  0  0  0  0  0  0  0  0  0
    7.3400   -3.0800   18.8530 C   0  0  0  0  0  0  0  0  0  0  0  0
    7.4980   -1.8100   25.2870 S   0  0  0  0  0  0  0  0  0  0  0  0
    7.0690   -5.0020   28.0820 C   0  0  0  0  0  0  0  0  0  0  0  0
    6.7880   -3.7520   27.2510 C   0  0  0  0  0  0  0  0  0  0  0  0
    7.8190   -3.2700   26.2490 C   0  0  0  0  0  0  0  0  0  0  0  0
    8.9840   -4.0410   26.1690 C   0  0  0  0  0  0  0  0  0  0  0  0
    9.1660   -5.1590   26.9470 C   0  0  0  0  0  0  0  0  0  0  0  0
    8.2740   -5.6640   27.8840 C   0  0  0  0  0  0  0  0  0  0  0  0
    6.9010   -3.2770   21.2570 N   0  0  0  0  0  0  0  0  0  0  0  0
    6.3920   -4.0230   22.3510 C   0  0  0  0  0  0  0  0  0  0  0  0
    6.1220   -3.2020   23.4520 C   0  0  0  0  0  0  0  0  0  0  0  0
    7.3610   -2.4130   23.7410 N   0  0  0  0  0  0  0  0  0  0  0  0
    7.5830   -1.5590   22.7110 C   0  0  0  0  0  0  0  0  0  0  0  0
    7.9810   -2.3600   21.5540 C   0  0  0  0  0  0  0  0  0  0  0  0
  4  6  2  0
  6  7  1  0
  2  8  2  0
  3  8  2  0
  1  9  1  0
  9 10  2  0
  8 11  1  0
 10 11  1  0
  5 12  1  0
 11 12  2  0
 12 13  1  0
  9 14  1  0
 13 14  2  0
  6 15  1  0
 15 16  1  0
 16 17  1  0
  8 18  1  0
 17 18  1  0
 18 19  1  0
 15 20  1  0
 19 20  1  0
M  END
