x1348-x2646
     RDKit          3D

 34 37  0  0  0  0  0  0  0  0999 V2000
    6.9950   -3.6210   21.4540 N   0  0  0  0  0  0  0  0  0  0  0  0
    7.8330   -5.3290   27.5150 C   0  0  0  0  0  0  0  0  0  0  0  0
    7.3650   -4.6590   26.5920 O   0  0  0  0  0  0  0  0  0  0  0  0
    5.3660   -4.2430   19.8330 O   0  0  0  0  0  0  0  0  0  0  0  0
    6.4510   -3.6980   20.1950 C   0  0  0  0  0  0  0  0  0  0  0  0
    7.3400   -3.1170   19.1890 C   0  0  0  0  0  0  0  0  0  0  0  0
    4.8360    1.0840   21.6720 C   0  0  0  0  0  0  0  0  0  0  0  0
    8.2770    0.9520   21.3490 O   0  0  0  0  0  0  0  0  0  0  0  0
   13.1840   -2.2180   21.2130 Cl  0  0  0  0  0  0  0  0  0  0  0  0
    7.0310   -0.8780   20.8060 N   0  0  0  0  0  0  0  0  0  0  0  0
    7.9360   -0.2070   21.6460 C   0  0  0  0  0  0  0  0  0  0  0  0
    8.5420   -0.9020   22.8800 C   0  0  0  0  0  0  0  0  0  0  0  0
    7.7970   -1.8820   20.0470 C   0  0  0  0  0  0  0  0  0  0  0  0
    6.3560   -5.3060   25.8720 C   0  0  0  0  0  0  0  0  0  0  0  0
    6.1450   -5.1520   24.5220 C   0  0  0  0  0  0  0  0  0  0  0  0
    5.1220   -5.8330   23.8670 C   0  0  0  0  0  0  0  0  0  0  0  0
    4.3210   -6.6560   24.5780 C   0  0  0  0  0  0  0  0  0  0  0  0
    4.4880   -6.8440   25.9630 C   0  0  0  0  0  0  0  0  0  0  0  0
    5.5170   -6.1640   26.6230 C   0  0  0  0  0  0  0  0  0  0  0  0
    6.8810   -4.3600   23.7730 N   0  0  0  0  0  0  0  0  0  0  0  0
    6.4590   -4.3880   22.5460 C   0  0  0  0  0  0  0  0  0  0  0  0
    5.1380   -5.4180   22.1990 S   0  0  0  0  0  0  0  0  0  0  0  0
    6.1510    0.6020   17.6020 N   0  0  0  0  0  0  0  0  0  0  0  0
    6.7020   -0.1290   18.5750 C   0  0  0  0  0  0  0  0  0  0  0  0
    6.3400   -0.0400   19.9030 C   0  0  0  0  0  0  0  0  0  0  0  0
    5.3410    0.8580   20.2810 C   0  0  0  0  0  0  0  0  0  0  0  0
    4.7550    1.6290   19.2590 C   0  0  0  0  0  0  0  0  0  0  0  0
    5.1960    1.4560   17.9810 C   0  0  0  0  0  0  0  0  0  0  0  0
   10.6000    0.3160   23.7680 C   0  0  0  0  0  0  0  0  0  0  0  0
   11.9610    0.5290   23.8060 C   0  0  0  0  0  0  0  0  0  0  0  0
   12.8000   -0.2450   23.0180 C   0  0  0  0  0  0  0  0  0  0  0  0
   12.2320   -1.2270   22.2080 C   0  0  0  0  0  0  0  0  0  0  0  0
   10.8650   -1.4440   22.1620 C   0  0  0  0  0  0  0  0  0  0  0  0
   10.0290   -0.6650   22.9470 C   0  0  0  0  0  0  0  0  0  0  0  0
  2  3  1  0
  1  5  1  0
  4  5  2  0
  5  6  1  0
  8 11  2  0
 10 11  1  0
 11 12  1  0
  6 13  1  0
 10 13  1  0
  3 14  1  0
 14 15  2  0
 15 16  1  0
 16 17  2  0
 17 18  1  0
 14 19  1  0
 18 19  2  0
 15 20  1  0
  1 21  1  0
 20 21  2  0
 16 22  1  0
 21 22  1  0
 23 24  2  0
 10 25  1  0
 24 25  1  0
  7 26  1  0
 25 26  2  0
 26 27  1  0
 23 28  1  0
 27 28  2  0
 29 30  2  0
 30 31  1  0
  9 32  1  0
 31 32  2  0
 32 33  1  0
 12 34  1  0
 29 34  1  0
 33 34  2  0
M  END
