x1348-x2052
     RDKit          3D

 29 32  0  0  0  0  0  0  0  0999 V2000
    6.0890   -1.5050   25.0730 C   0  0  0  0  0  0  0  0  0  0  0  0
    4.6680   -1.4050   25.0010 O   0  0  0  0  0  0  0  0  0  0  0  0
    6.8890   -0.8790   26.0180 N   0  0  0  0  0  0  0  0  0  0  0  0
    5.4350   -4.5690   19.9640 O   0  0  0  0  0  0  0  0  0  0  0  0
    5.3700    2.1270   30.4640 O   0  0  0  0  0  0  0  0  0  0  0  0
    6.3240   -3.7770   20.3260 C   0  0  0  0  0  0  0  0  0  0  0  0
    7.1450   -3.1300   19.1900 C   0  0  0  0  0  0  0  0  0  0  0  0
    6.0770    3.3550   30.6130 C   0  0  0  0  0  0  0  0  0  0  0  0
    7.8670   -4.8380   27.0420 C   0  0  0  0  0  0  0  0  0  0  0  0
    7.3050   -4.4270   26.0250 O   0  0  0  0  0  0  0  0  0  0  0  0
    6.6570   -3.4290   21.6870 N   0  0  0  0  0  0  0  0  0  0  0  0
    7.6150   -2.3000   21.8530 C   0  0  0  0  0  0  0  0  0  0  0  0
    7.4540   -1.5950   23.0580 C   0  0  0  0  0  0  0  0  0  0  0  0
    6.8670   -2.3620   24.0530 C   0  0  2  0  0  0  0  0  0  0  0  0
    6.0930   -3.4190   23.5900 C   0  0  0  0  0  0  0  0  0  0  0  0
    6.6690   -4.4720   22.8480 C   0  0  2  0  0  0  0  0  0  0  0  0
    6.5520    1.9710   28.4210 N   0  0  0  0  0  0  0  0  0  0  0  0
    6.8960    1.2000   27.3530 C   0  0  0  0  0  0  0  0  0  0  0  0
    6.4790   -0.1270   27.1620 C   0  0  0  0  0  0  0  0  0  0  0  0
    5.6410   -0.7030   28.1470 C   0  0  0  0  0  0  0  0  0  0  0  0
    5.2880    0.1040   29.2550 C   0  0  0  0  0  0  0  0  0  0  0  0
    5.7570    1.4080   29.3510 C   0  0  0  0  0  0  0  0  0  0  0  0
    6.3030   -5.2160   25.5200 C   0  0  0  0  0  0  0  0  0  0  0  0
    6.1020   -5.1860   24.1280 C   0  0  0  0  0  0  0  0  0  0  0  0
    5.1240   -5.9890   23.5790 C   0  0  0  0  0  0  0  0  0  0  0  0
    4.3000   -6.8050   24.3420 C   0  0  0  0  0  0  0  0  0  0  0  0
    4.4760   -6.8260   25.7190 C   0  0  0  0  0  0  0  0  0  0  0  0
    5.4720   -6.0430   26.2950 C   0  0  0  0  0  0  0  0  0  0  0  0
    5.4230   -5.5560   21.9930 S   0  0  0  0  0  0  0  0  0  0  0  0
  1  2  2  0
  1  3  1  0
  4  6  2  0
  6  7  1  0
  5  8  1  0
  9 10  1  0
  6 11  1  0
 11 12  1  0
 12 13  1  0
 14  1  1  6
 13 14  1  0
 14 15  1  0
 11 16  1  0
 16 15  1  6
 17 18  2  0
  3 19  1  0
 18 19  1  0
 19 20  2  0
 20 21  1  0
  5 22  1  0
 17 22  1  0
 21 22  2  0
 10 23  1  0
 16 24  1  0
 23 24  2  0
 24 25  1  0
 25 26  2  0
 26 27  1  0
 23 28  1  0
 27 28  2  0
 16 29  1  0
 25 29  1  0
M  END
