x1348-x2097
     RDKit          3D

 20 22  0  0  0  0  0  0  0  0999 V2000
    7.9460   -5.4220   27.5930 C   0  0  0  0  0  0  0  0  0  0  0  0
    7.4640   -4.7140   26.7070 O   0  0  0  0  0  0  0  0  0  0  0  0
    5.4380   -4.6200   19.9030 O   0  0  0  0  0  0  0  0  0  0  0  0
    6.3030   -3.7570   20.1520 C   0  0  0  0  0  0  0  0  0  0  0  0
    7.2110   -3.1910   19.1220 C   0  0  0  0  0  0  0  0  0  0  0  0
    6.4610   -5.3230   25.9580 C   0  0  0  0  0  0  0  0  0  0  0  0
    6.2130   -4.9690   24.5440 C   0  0  0  0  0  0  0  0  0  0  0  0
    5.0720   -5.7510   23.8930 C   0  0  0  0  0  0  0  0  0  0  0  0
    4.2660   -6.7920   24.6430 C   0  0  0  0  0  0  0  0  0  0  0  0
    4.6370   -6.9770   25.9820 C   0  0  0  0  0  0  0  0  0  0  0  0
    5.6690   -6.2910   26.6030 C   0  0  0  0  0  0  0  0  0  0  0  0
    6.8320   -4.0450   23.7360 N   0  0  0  0  0  0  0  0  0  0  0  0
    6.2070   -4.0640   22.5490 C   0  0  0  0  0  0  0  0  0  0  0  0
    4.9390   -5.1910   22.2550 S   0  0  0  0  0  0  0  0  0  0  0  0
    6.4630   -3.1970   21.5490 C   0  0  1  0  0  0  0  0  0  0  0  0
    7.7740   -2.4740   21.7240 N   0  0  0  0  0  0  0  0  0  0  0  0
    7.7130   -2.0090   23.0390 C   0  0  0  0  0  0  0  0  0  0  0  0
    6.5460   -1.4940   23.5810 C   0  0  0  0  0  0  0  0  0  0  0  0
    5.4190   -1.4720   22.6690 C   0  0  0  0  0  0  0  0  0  0  0  0
    5.3270   -2.2380   21.6620 N   0  0  0  0  0  0  0  0  0  0  0  0
  1  2  1  0
  3  4  2  0
  4  5  1  0
  2  6  1  0
  6  7  2  0
  7  8  1  0
  8  9  2  0
  9 10  1  0
  6 11  1  0
 10 11  2  0
  7 12  1  0
 12 13  2  0
  8 14  1  0
 13 14  1  0
 15  4  1  6
 13 15  1  0
 15 16  1  0
 16 17  1  0
 17 18  2  0
 18 19  1  0
 15 20  1  0
 19 20  2  0
M  END
