x1348-x2643
     RDKit          3D

 32 35  0  0  0  0  0  0  0  0999 V2000
    6.8490   -3.9110   21.4090 N   0  0  0  0  0  0  0  0  0  0  0  0
    8.0590   -5.2100   27.4780 C   0  0  0  0  0  0  0  0  0  0  0  0
    7.4630   -4.7230   26.5120 O   0  0  0  0  0  0  0  0  0  0  0  0
    5.2070   -4.3500   19.8050 O   0  0  0  0  0  0  0  0  0  0  0  0
    6.3030   -3.8670   20.1600 C   0  0  0  0  0  0  0  0  0  0  0  0
    7.1820   -3.2000   19.2150 C   0  0  0  0  0  0  0  0  0  0  0  0
    6.9150   -0.9600   20.5600 N   0  0  0  0  0  0  0  0  0  0  0  0
    8.1940    0.7180   21.4600 O   0  0  0  0  0  0  0  0  0  0  0  0
   13.4090    0.0970   22.9200 Cl  0  0  0  0  0  0  0  0  0  0  0  0
    8.1850   -1.3980   22.5890 C   0  0  0  0  0  0  0  0  0  0  0  0
    7.7730   -0.4530   21.5200 C   0  0  0  0  0  0  0  0  0  0  0  0
    7.7060   -1.8440   19.7290 C   0  0  0  0  0  0  0  0  0  0  0  0
    6.3890   -5.4190   25.9880 C   0  0  0  0  0  0  0  0  0  0  0  0
    6.1610   -5.2700   24.6250 C   0  0  0  0  0  0  0  0  0  0  0  0
    5.1140   -5.9230   23.9810 C   0  0  0  0  0  0  0  0  0  0  0  0
    4.2760   -6.7420   24.7290 C   0  0  0  0  0  0  0  0  0  0  0  0
    4.5130   -6.8680   26.0530 C   0  0  0  0  0  0  0  0  0  0  0  0
    5.5680   -6.2180   26.7250 C   0  0  0  0  0  0  0  0  0  0  0  0
    6.9230   -4.4770   23.7840 N   0  0  0  0  0  0  0  0  0  0  0  0
    6.3520   -4.5840   22.4540 C   0  0  0  0  0  0  0  0  0  0  0  0
    5.0230   -5.5960   22.3050 S   0  0  0  0  0  0  0  0  0  0  0  0
   11.7790   -0.1340   23.2140 C   0  0  0  0  0  0  0  0  0  0  0  0
   10.9860    0.3940   24.2850 C   0  0  0  0  0  0  0  0  0  0  0  0
    9.6810    0.0000   24.1820 C   0  0  0  0  0  0  0  0  0  0  0  0
    9.4530   -0.8060   23.0690 C   0  0  0  0  0  0  0  0  0  0  0  0
   10.8860   -1.0900   22.1660 S   0  0  0  0  0  0  0  0  0  0  0  0
    6.3100    0.9980   17.5630 N   0  0  0  0  0  0  0  0  0  0  0  0
    6.7760    0.2020   18.5200 C   0  0  0  0  0  0  0  0  0  0  0  0
    6.2070   -0.0790   19.7070 C   0  0  0  0  0  0  0  0  0  0  0  0
    4.9880    0.4840   20.0490 C   0  0  0  0  0  0  0  0  0  0  0  0
    4.4050    1.3380   19.1180 C   0  0  0  0  0  0  0  0  0  0  0  0
    5.0400    1.6000   17.9020 C   0  0  0  0  0  0  0  0  0  0  0  0
  2  3  1  0
  1  5  1  0
  4  5  2  0
  5  6  1  0
  7 11  1  0
  8 11  2  0
 10 11  1  0
  6 12  1  0
  7 12  1  0
  3 13  1  0
 13 14  2  0
 14 15  1  0
 15 16  2  0
 16 17  1  0
 13 18  1  0
 17 18  2  0
 14 19  1  0
  1 20  1  0
 19 20  2  0
 15 21  1  0
 20 21  1  0
  9 22  1  0
 22 23  2  0
 23 24  1  0
 10 25  1  0
 24 25  2  0
 22 26  1  0
 25 26  1  0
 27 28  2  0
  7 29  1  0
 28 29  1  0
 29 30  2  0
 30 31  1  0
 27 32  1  0
 31 32  2  0
M  END
