x1348-x2119
     RDKit          3D

 19 21  0  0  0  0  0  0  0  0999 V2000
    7.9540   -5.4170   27.6250 C   0  0  0  0  0  0  0  0  0  0  0  0
    7.4670   -4.7200   26.7330 O   0  0  0  0  0  0  0  0  0  0  0  0
    5.4620   -4.6710   19.9200 O   0  0  0  0  0  0  0  0  0  0  0  0
    6.3020   -3.7940   20.1930 C   0  0  0  0  0  0  0  0  0  0  0  0
    7.2100   -3.1950   19.1800 C   0  0  0  0  0  0  0  0  0  0  0  0
    6.4630   -5.3380   25.9930 C   0  0  0  0  0  0  0  0  0  0  0  0
    6.2070   -4.9930   24.5840 C   0  0  0  0  0  0  0  0  0  0  0  0
    5.0620   -5.7840   23.9400 C   0  0  0  0  0  0  0  0  0  0  0  0
    4.2640   -6.8220   24.7000 C   0  0  0  0  0  0  0  0  0  0  0  0
    4.6440   -6.9960   26.0350 C   0  0  0  0  0  0  0  0  0  0  0  0
    5.6770   -6.3050   26.6480 C   0  0  0  0  0  0  0  0  0  0  0  0
    6.8170   -4.0710   23.7680 N   0  0  0  0  0  0  0  0  0  0  0  0
    6.1800   -4.1070   22.5960 C   0  0  0  0  0  0  0  0  0  0  0  0
    4.9160   -5.2380   22.3010 S   0  0  0  0  0  0  0  0  0  0  0  0
    6.4100   -3.2520   21.6030 C   0  0  0  0  0  0  0  0  0  0  0  0
    5.1480   -2.4890   21.7440 N   0  0  0  0  0  0  0  0  0  0  0  0
    5.6600   -1.2940   22.1340 C   0  0  0  0  0  0  0  0  0  0  0  0
    7.0380   -1.2110   22.1990 C   0  0  0  0  0  0  0  0  0  0  0  0
    7.5750   -2.3290   21.8620 N   0  0  0  0  0  0  0  0  0  0  0  0
  1  2  1  0
  3  4  2  0
  4  5  1  0
  2  6  1  0
  6  7  2  0
  7  8  1  0
  8  9  2  0
  9 10  1  0
  6 11  1  0
 10 11  2  0
  7 12  1  0
 12 13  2  0
  8 14  1  0
 13 14  1  0
 15  4  1  0
 13 15  1  0
 15 16  1  0
 16 17  2  0
 17 18  1  0
 15 19  1  0
 18 19  2  0
M  END
