x1348-x0967
     RDKit          3D

 37 39  0  0  0  0  0  0  0  0999 V2000
    7.5980    5.2140   22.6340 C   0  0  0  0  0  0  0  0  0  0  0  0
    7.4570    2.7440   22.3230 N   0  0  0  0  0  0  0  0  0  0  0  0
    6.1640    3.8270   23.9540 O   0  0  0  0  0  0  0  0  0  0  0  0
    6.9960    3.8990   23.0530 C   0  0  0  0  0  0  0  0  0  0  0  0
    9.0160   -0.4700   21.8000 N   0  0  0  0  0  0  0  0  0  0  0  0
    5.6030    0.8800   17.0370 O   0  0  0  0  0  0  0  0  0  0  0  0
    7.6420    1.4160   22.8800 C   0  0  1  0  0  0  0  0  0  0  0  0
    9.8130    1.7370   21.9160 O   0  0  0  0  0  0  0  0  0  0  0  0
    6.4420    0.5650   22.6180 C   0  0  0  0  0  0  0  0  0  0  0  0
    8.9140    0.9550   22.1700 C   0  0  0  0  0  0  0  0  0  0  0  0
    9.7030   -1.3620   22.5870 C   0  0  2  0  0  0  0  0  0  0  0  0
   10.9510   -1.7400   22.0830 C   0  0  0  0  0  0  0  0  0  0  0  0
   11.9870   -1.9630   22.9750 C   0  0  0  0  0  0  0  0  0  0  0  0
   13.3330   -2.2830   24.2740 Br  0  0  0  0  0  0  0  0  0  0  0  0
    6.8730   -3.5940   21.2800 N   0  0  0  0  0  0  0  0  0  0  0  0
    7.8320   -5.1290   27.7870 C   0  0  0  0  0  0  0  0  0  0  0  0
    7.3880   -4.5190   26.5650 O   0  0  0  0  0  0  0  0  0  0  0  0
    5.2960   -4.4380   19.7650 O   0  0  0  0  0  0  0  0  0  0  0  0
    6.0740   -3.5700   20.1380 C   0  0  0  0  0  0  0  0  0  0  0  0
    6.2200   -2.3490   19.2210 C   0  0  0  0  0  0  0  0  0  0  0  0
    8.7540   -2.5290   22.6380 C   0  0  0  0  0  0  0  0  0  0  0  0
    8.1350   -2.8600   21.2800 C   0  0  0  0  0  0  0  0  0  0  0  0
    6.1590    0.6780   21.1560 C   0  0  0  0  0  0  0  0  0  0  0  0
    7.0420   -0.1120   20.1970 C   0  0  0  0  0  0  0  0  0  0  0  0
    6.7550    0.0330   18.7690 C   0  0  0  0  0  0  0  0  0  0  0  0
    5.7770    0.8110   18.3470 C   0  0  0  0  0  0  0  0  0  0  0  0
    4.9010    1.5870   19.2770 C   0  0  0  0  0  0  0  0  0  0  0  0
    5.1270    1.4900   20.6530 C   0  0  0  0  0  0  0  0  0  0  0  0
    6.3870   -5.2250   25.9030 C   0  0  0  0  0  0  0  0  0  0  0  0
    6.1360   -5.0830   24.4420 C   0  0  0  0  0  0  0  0  0  0  0  0
    5.1640   -5.7930   23.8580 C   0  0  0  0  0  0  0  0  0  0  0  0
    4.3050   -6.7340   24.6570 C   0  0  0  0  0  0  0  0  0  0  0  0
    4.5610   -6.8380   26.0290 C   0  0  0  0  0  0  0  0  0  0  0  0
    5.5820   -6.1030   26.6470 C   0  0  0  0  0  0  0  0  0  0  0  0
    6.8360   -4.2500   23.5930 N   0  0  0  0  0  0  0  0  0  0  0  0
    6.3940   -4.3270   22.3730 C   0  0  0  0  0  0  0  0  0  0  0  0
    5.1080   -5.4340   22.1700 S   0  0  0  0  0  0  0  0  0  0  0  0
  1  4  1  0
  2  4  1  0
  3  4  2  0
  2  7  1  0
  7  9  1  6
  5 10  1  0
  7 10  1  0
  8 10  2  0
  5 11  1  0
 11 12  1  6
 12 13  3  0
 13 14  1  0
 16 17  1  0
 15 19  1  0
 18 19  2  0
 19 20  1  0
 11 21  1  0
 15 22  1  0
 21 22  1  0
  9 23  1  0
 23 24  2  0
 24 25  1  0
  6 26  1  0
 25 26  2  0
 26 27  1  0
 23 28  1  0
 27 28  2  0
 17 29  1  0
 29 30  2  0
 30 31  1  0
 31 32  2  0
 32 33  1  0
 29 34  1  0
 33 34  2  0
 30 35  1  0
 15 36  1  0
 35 36  2  0
 31 37  1  0
 36 37  1  0
M  END
