x1348-x1382
     RDKit          3D

 26 29  0  0  0  0  0  0  0  0999 V2000
    7.8460   -3.2920   21.4190 C   0  0  0  0  0  0  0  0  0  0  0  0
    7.9760   -5.4870   27.5460 C   0  0  0  0  0  0  0  0  0  0  0  0
    7.2970   -4.6350   26.6170 O   0  0  0  0  0  0  0  0  0  0  0  0
    5.6700   -4.2330   19.9220 O   0  0  0  0  0  0  0  0  0  0  0  0
    6.7790   -3.6460   20.2030 C   0  0  0  0  0  0  0  0  0  0  0  0
    7.5490   -3.0590   19.1580 C   0  0  0  0  0  0  0  0  0  0  0  0
   13.1900   -2.4770   21.2030 Cl  0  0  0  0  0  0  0  0  0  0  0  0
    7.1570   -1.1060   22.8550 C   0  0  0  0  0  0  0  0  0  0  0  0
    8.1810   -2.2020   22.5230 C   0  0  2  0  0  0  0  0  0  0  0  0
    7.6450   -2.1160   20.3630 C   0  0  0  0  0  0  0  0  0  0  0  0
    7.5930   -0.8960   20.4710 O   0  0  0  0  0  0  0  0  0  0  0  0
    6.3670   -5.2450   25.7730 C   0  0  0  0  0  0  0  0  0  0  0  0
    6.3380   -5.0380   24.4250 C   0  0  0  0  0  0  0  0  0  0  0  0
    5.3820   -5.6730   23.6250 C   0  0  0  0  0  0  0  0  0  0  0  0
    4.4790   -6.5010   24.2230 C   0  0  0  0  0  0  0  0  0  0  0  0
    4.4650   -6.7490   25.6170 C   0  0  0  0  0  0  0  0  0  0  0  0
    5.4340   -6.1010   26.3970 C   0  0  0  0  0  0  0  0  0  0  0  0
    7.2080   -4.2160   23.7420 N   0  0  0  0  0  0  0  0  0  0  0  0
    6.9070   -4.2100   22.3390 C   0  0  0  0  0  0  0  0  0  0  0  0
    5.5760   -5.2290   21.9460 S   0  0  0  0  0  0  0  0  0  0  0  0
    9.6070   -1.5380   22.4970 C   0  0  0  0  0  0  0  0  0  0  0  0
   10.7130   -2.1420   21.9420 C   0  0  0  0  0  0  0  0  0  0  0  0
   11.9700   -1.5840   21.9290 C   0  0  0  0  0  0  0  0  0  0  0  0
   12.1950   -0.3340   22.4840 C   0  0  0  0  0  0  0  0  0  0  0  0
   11.1320    0.3050   23.0200 C   0  0  0  0  0  0  0  0  0  0  0  0
    9.8450   -0.2610   23.0510 C   0  0  0  0  0  0  0  0  0  0  0  0
  2  3  1  0
  1  5  1  0
  4  5  2  0
  5  6  1  0
  1  9  1  0
  9  8  1  6
  1 10  1  0
  6 10  1  0
 10 11  2  0
  3 12  1  0
 12 13  2  0
 13 14  1  0
 14 15  2  0
 15 16  1  0
 12 17  1  0
 16 17  2  0
 13 18  1  0
  1 19  1  0
 18 19  2  0
 14 20  1  0
 19 20  1  0
  9 21  1  0
 21 22  2  0
  7 23  1  0
 22 23  1  0
 23 24  2  0
 24 25  1  0
 21 26  1  0
 25 26  2  0
M  END
