x1358-x0397
     RDKit          3D

 29 37  0  0  0  0  0  0  0  0999 V2000
    6.8830   -2.4300   25.7960 N   0  0  0  0  0  0  0  0  0  0  0  0
    5.5410    0.1150   25.1760 O   0  0  0  0  0  0  0  0  0  0  0  0
    4.8120   -3.3420   25.6710 O   0  0  0  0  0  0  0  0  0  0  0  0
    5.5950   -4.4840   19.4340 O   0  0  0  0  0  0  0  0  0  0  0  0
    6.0080   -3.3870   25.3440 C   0  0  0  0  0  0  0  0  0  0  0  0
    5.9860   -3.6900   20.2680 C   0  0  1  0  0  0  0  0  0  0  0  0
    6.4420   -2.3160   19.8380 C   0  0  1  0  0  0  0  0  0  0  0  0
    7.7950   -1.9720   19.4620 C   0  0  0  0  0  0  0  0  0  0  0  0
    5.6440   -1.9230   18.6620 C   0  0  0  0  0  0  0  0  0  0  0  0
    3.9380    2.7780   19.3700 C   0  0  0  0  0  0  0  0  0  0  0  0
    6.1030   -2.7630   21.3700 S   0  0  0  0  0  0  0  0  0  0  0  0
    5.7810   -2.7820   23.1500 C   0  0  1  0  0  0  0  0  0  0  0  0
    6.0270   -0.1810   26.4280 C   0  0  0  0  0  0  0  0  0  0  0  0
    6.7030   -1.4480   26.8000 C   0  0  0  0  0  0  0  0  0  0  0  0
    7.1310   -1.6140   28.0920 C   0  0  0  0  0  0  0  0  0  0  0  0
    6.9730   -0.5680   29.1970 C   0  0  0  0  0  0  0  0  0  0  0  0
    6.2820    0.7310   28.7910 C   0  0  0  0  0  0  0  0  0  0  0  0
    5.8330    0.8380   27.3670 C   0  0  0  0  0  0  0  0  0  0  0  0
    6.0740   -4.0720   21.6990 C   0  0  2  0  0  0  0  0  0  0  0  0
    6.8870   -3.2290   22.5280 C   0  0  1  0  0  0  0  0  0  0  0  0
    6.8820   -3.2630   23.9880 C   0  0  2  0  0  0  0  0  0  0  0  0
    6.4270   -4.6190   24.3730 C   0  0  2  0  0  0  0  0  0  0  0  0
    5.2690   -5.2230   23.6430 C   0  0  0  0  0  0  0  0  0  0  0  0
    4.9840   -4.1030   22.6730 C   0  0  1  0  0  0  0  0  0  0  0  0
    4.5740    0.3140   19.2830 C   0  0  0  0  0  0  0  0  0  0  0  0
    5.4820   -0.4620   18.5290 C   0  0  0  0  0  0  0  0  0  0  0  0
    6.0960    0.4140   17.7270 N   0  0  0  0  0  0  0  0  0  0  0  0
    5.6280    1.6010   17.9390 O   0  0  0  0  0  0  0  0  0  0  0  0
    4.7110    1.6110   18.8570 C   0  0  0  0  0  0  0  0  0  0  0  0
  1  5  1  0
  3  5  2  0
  6  4  1  6
  6  7  1  0
  7  8  1  1
  7  9  1  0
  6 11  1  0
  7 11  1  0
 12 11  1  1
  2 13  1  0
  1 14  1  0
 13 14  2  0
 14 15  1  0
 15 16  2  0
 16 17  1  0
 13 18  1  0
 17 18  2  0
  6 19  1  0
 19 11  1  1
 20 11  1  6
 12 20  1  0
 19 20  1  0
 12 21  1  0
 20 21  1  0
 22  5  1  1
 21 22  1  6
 22 23  1  0
 12 24  1  0
 19 24  1  0
 24 23  1  1
  9 26  1  0
 25 26  1  0
 26 27  2  0
 27 28  1  0
 10 29  1  0
 25 29  2  0
 28 29  1  0
M  END
