x1351-x2964
     RDKit          3D

 38 41  0  0  0  0  0  0  0  0999 V2000
    6.8890   -3.3760   19.2410 C   0  0  0  0  0  0  0  0  0  0  0  0
    5.2700   -4.9090   19.9660 O   0  0  0  0  0  0  0  0  0  0  0  0
    6.2150   -4.1730   20.3070 C   0  0  0  0  0  0  0  0  0  0  0  0
    5.8490   -3.0060   25.4120 N   0  0  0  0  0  0  0  0  0  0  0  0
    7.9550   -2.8670   26.3240 O   0  0  0  0  0  0  0  0  0  0  0  0
    6.8350   -2.3960   26.1770 C   0  0  0  0  0  0  0  0  0  0  0  0
    3.3050    2.1880   19.1930 N   0  0  0  0  0  0  0  0  0  0  0  0
    8.6960    1.6710   21.1340 O   0  0  0  0  0  0  0  0  0  0  0  0
   13.1610   -2.2850   21.3120 Cl  0  0  0  0  0  0  0  0  0  0  0  0
    7.1930   -0.1070   21.1110 N   0  0  0  0  0  0  0  0  0  0  0  0
    8.9610   -0.0810   22.6050 N   0  0  0  0  0  0  0  0  0  0  0  0
    8.3150    0.5880   21.5910 C   0  0  0  0  0  0  0  0  0  0  0  0
    7.0090   -1.9010   19.5220 C   0  0  0  0  0  0  0  0  0  0  0  0
    7.3560   -1.5300   20.9470 C   0  0  0  0  0  0  0  0  0  0  0  0
    6.6160   -4.2060   21.6500 N   0  0  0  0  0  0  0  0  0  0  0  0
    7.5320   -3.1960   22.1880 C   0  0  0  0  0  0  0  0  0  0  0  0
    7.2100   -2.8780   23.5000 C   0  0  0  0  0  0  0  0  0  0  0  0
    5.9680   -3.2240   23.9610 C   0  0  0  0  0  0  0  0  0  0  0  0
    5.5120   -4.4950   23.5930 C   0  0  0  0  0  0  0  0  0  0  0  0
    6.1450   -5.1060   22.5500 C   0  0  0  0  0  0  0  0  0  0  0  0
    7.0880   -0.7500   28.0680 C   0  0  0  0  0  0  0  0  0  0  0  0
    6.7500    0.4440   28.7060 C   0  0  0  0  0  0  0  0  0  0  0  0
    5.7460    1.3760   28.1550 C   0  0  0  0  0  0  0  0  0  0  0  0
    5.1510    0.9260   26.8880 C   0  0  0  0  0  0  0  0  0  0  0  0
    5.5160   -0.2790   26.2800 C   0  0  0  0  0  0  0  0  0  0  0  0
    6.4770   -1.1140   26.8610 C   0  0  0  0  0  0  0  0  0  0  0  0
    4.5430    1.5590   19.0800 C   0  0  0  0  0  0  0  0  0  0  0  0
    5.2350    1.0580   20.1430 C   0  0  0  0  0  0  0  0  0  0  0  0
    6.4550    0.4290   20.0160 C   0  0  0  0  0  0  0  0  0  0  0  0
    6.9130    0.3370   18.7360 C   0  0  0  0  0  0  0  0  0  0  0  0
    6.3150    0.7980   17.6440 N   0  0  0  0  0  0  0  0  0  0  0  0
    5.1430    1.4050   17.8470 C   0  0  0  0  0  0  0  0  0  0  0  0
   10.9420    0.9100   23.4660 C   0  0  0  0  0  0  0  0  0  0  0  0
   12.3220    0.8970   23.5380 C   0  0  0  0  0  0  0  0  0  0  0  0
   13.0300   -0.0900   22.8750 C   0  0  0  0  0  0  0  0  0  0  0  0
   12.3550   -1.0550   22.1520 C   0  0  0  0  0  0  0  0  0  0  0  0
   10.9850   -1.0450   22.0790 C   0  0  0  0  0  0  0  0  0  0  0  0
   10.2820   -0.0570   22.7330 C   0  0  0  0  0  0  0  0  0  0  0  0
  1  3  1  0
  2  3  2  0
  4  6  1  0
  5  6  2  0
  8 12  2  0
 10 12  1  0
 11 12  1  0
  1 13  1  0
 10 14  1  0
 13 14  1  0
  3 15  1  0
 15 16  1  0
 16 17  1  0
  4 18  1  0
 17 18  1  0
 18 19  1  0
 15 20  1  0
 19 20  1  0
 21 22  2  0
 22 23  1  0
 23 24  2  0
 24 25  1  0
  6 26  1  0
 21 26  1  0
 25 26  2  0
  7 27  1  0
 27 28  2  0
 10 29  1  0
 28 29  1  0
 29 30  2  0
 30 31  1  0
 27 32  1  0
 31 32  2  0
 33 34  2  0
 34 35  1  0
  9 36  1  0
 35 36  2  0
 36 37  1  0
 11 38  1  0
 33 38  1  0
 37 38  2  0
M  END
