x1351-x1458
     RDKit          3D

 22 23  0  0  0  0  0  0  0  0999 V2000
    7.0620   -3.4780   26.5500 N   0  0  0  0  0  0  0  0  0  0  0  0
    8.9330   -4.4410   27.6380 C   0  0  0  0  0  0  0  0  0  0  0  0
    5.0420   -3.4710   25.4420 O   0  0  0  0  0  0  0  0  0  0  0  0
    7.7690   -4.6920   27.0610 C   0  0  0  0  0  0  0  0  0  0  0  0
    5.2840   -4.5540   19.8850 O   0  0  0  0  0  0  0  0  0  0  0  0
    6.8990   -5.6030   27.9250 C   0  0  0  0  0  0  0  0  0  0  0  0
    7.8040   -2.2020   26.7040 C   0  0  0  0  0  0  0  0  0  0  0  0
    6.2560   -3.6950   25.4440 C   0  0  0  0  0  0  0  0  0  0  0  0
    6.3900   -4.0740   20.2170 C   0  0  0  0  0  0  0  0  0  0  0  0
    7.2000   -3.2740   19.2600 C   0  0  0  0  0  0  0  0  0  0  0  0
    6.9040   -4.3120   21.4770 N   0  0  0  0  0  0  0  0  0  0  0  0
    7.8250   -3.3990   22.1570 C   0  0  0  0  0  0  0  0  0  0  0  0
    7.4290   -3.1520   23.4390 C   0  0  0  0  0  0  0  0  0  0  0  0
    6.9520   -4.2360   24.1730 C   0  0  0  0  0  0  0  0  0  0  0  0
    6.1240   -5.0920   23.5250 C   0  0  0  0  0  0  0  0  0  0  0  0
    6.4500   -5.4050   22.2000 C   0  0  0  0  0  0  0  0  0  0  0  0
    7.2820   -0.4550   28.4110 C   0  0  0  0  0  0  0  0  0  0  0  0
    6.5710    0.7140   28.9550 C   0  0  0  0  0  0  0  0  0  0  0  0
    5.5340    1.2600   28.0650 C   0  0  0  0  0  0  0  0  0  0  0  0
    5.2710    0.6910   26.8200 C   0  0  0  0  0  0  0  0  0  0  0  0
    5.9820   -0.4250   26.3550 C   0  0  0  0  0  0  0  0  0  0  0  0
    6.9930   -1.0000   27.1570 C   0  0  0  0  0  0  0  0  0  0  0  0
  1  4  1  0
  2  4  1  0
  4  6  1  0
  1  7  1  0
  1  8  1  0
  3  8  2  0
  5  9  2  0
  9 10  1  0
  9 11  1  0
 11 12  1  0
 12 13  1  0
  8 14  1  0
 13 14  1  0
 14 15  1  0
 11 16  1  0
 15 16  1  0
 17 18  2  0
 18 19  1  0
 19 20  2  0
 20 21  1  0
  7 22  1  0
 17 22  1  0
 21 22  2  0
M  END
