x1351-x2052
     RDKit          3D

 21 22  0  0  0  0  0  0  0  0999 V2000
    5.6210   -1.4430   24.9480 C   0  0  0  0  0  0  0  0  0  0  0  0
    4.4800   -1.0180   25.0230 O   0  0  0  0  0  0  0  0  0  0  0  0
    6.5200   -1.3500   26.1860 C   0  0  0  0  0  0  0  0  0  0  0  0
    5.4800   -4.4940   19.9350 O   0  0  0  0  0  0  0  0  0  0  0  0
    5.5170    2.2820   30.4600 O   0  0  0  0  0  0  0  0  0  0  0  0
    6.4060   -3.6780   20.2030 C   0  0  0  0  0  0  0  0  0  0  0  0
    7.2060   -3.1160   19.0940 C   0  0  0  0  0  0  0  0  0  0  0  0
    6.1840    3.3270   30.4710 C   0  0  0  0  0  0  0  0  0  0  0  0
    7.3940   -2.1810   26.2630 O   0  0  0  0  0  0  0  0  0  0  0  0
    6.7160   -3.3230   21.5610 N   0  0  0  0  0  0  0  0  0  0  0  0
    7.6670   -2.2200   21.8050 C   0  0  0  0  0  0  0  0  0  0  0  0
    7.3340   -1.5070   23.1210 C   0  0  0  0  0  0  0  0  0  0  0  0
    6.1820   -2.1110   23.6270 C   0  0  0  0  0  0  0  0  0  0  0  0
    6.1570   -3.4830   23.7290 C   0  0  0  0  0  0  0  0  0  0  0  0
    6.5480   -4.1930   22.5890 C   0  0  0  0  0  0  0  0  0  0  0  0
    6.5630    1.8750   28.3690 N   0  0  0  0  0  0  0  0  0  0  0  0
    6.8510    0.9740   27.2410 C   0  0  0  0  0  0  0  0  0  0  0  0
    6.3080   -0.3380   27.2530 C   0  0  0  0  0  0  0  0  0  0  0  0
    5.5160   -0.7400   28.3330 C   0  0  0  0  0  0  0  0  0  0  0  0
    5.1980    0.1180   29.4820 C   0  0  0  0  0  0  0  0  0  0  0  0
    5.7930    1.4460   29.3930 C   0  0  0  0  0  0  0  0  0  0  0  0
  1  2  2  0
  1  3  1  0
  4  6  2  0
  6  7  1  0
  5  8  1  0
  3  9  2  0
  6 10  1  0
 10 11  1  0
 11 12  1  0
  1 13  1  0
 12 13  1  0
 13 14  1  0
 10 15  1  0
 14 15  1  0
 16 17  2  0
  3 18  1  0
 17 18  1  0
 18 19  2  0
 19 20  1  0
  5 21  1  0
 16 21  1  0
 20 21  2  0
M  END
