x1351-x0434
     RDKit          3D

 35 38  0  0  0  0  0  0  0  0999 V2000
    7.1120   -3.2040   19.3650 C   0  0  0  0  0  0  0  0  0  0  0  0
    5.2220   -4.5720   19.8820 O   0  0  0  0  0  0  0  0  0  0  0  0
    6.2740   -4.0300   20.2890 C   0  0  0  0  0  0  0  0  0  0  0  0
    5.8940   -2.8550   25.3750 N   0  0  0  0  0  0  0  0  0  0  0  0
    7.8320   -2.8980   26.5970 O   0  0  0  0  0  0  0  0  0  0  0  0
    6.7840   -2.3380   26.3010 C   0  0  0  0  0  0  0  0  0  0  0  0
    8.3600    0.9530   21.2750 O   0  0  0  0  0  0  0  0  0  0  0  0
    8.1900   -0.2460   21.4720 C   0  0  0  0  0  0  0  0  0  0  0  0
    9.0190   -0.9900   22.2950 N   0  0  0  0  0  0  0  0  0  0  0  0
    7.1210   -0.9020   20.7980 N   0  0  0  0  0  0  0  0  0  0  0  0
    7.7520   -1.9210   19.9720 C   0  0  0  0  0  0  0  0  0  0  0  0
    6.6940   -4.2510   21.6020 N   0  0  0  0  0  0  0  0  0  0  0  0
    7.5920   -3.2670   22.1990 C   0  0  0  0  0  0  0  0  0  0  0  0
    6.9480   -2.5440   23.3560 C   0  0  0  0  0  0  0  0  0  0  0  0
    6.4210   -3.5240   24.1880 C   0  0  0  0  0  0  0  0  0  0  0  0
    5.5370   -4.4340   23.6510 C   0  0  0  0  0  0  0  0  0  0  0  0
    5.9990   -5.1400   22.5350 C   0  0  0  0  0  0  0  0  0  0  0  0
    7.0390   -0.6980   28.1400 C   0  0  0  0  0  0  0  0  0  0  0  0
    6.7120    0.5150   28.7680 C   0  0  0  0  0  0  0  0  0  0  0  0
    5.7700    1.3560   28.1780 C   0  0  0  0  0  0  0  0  0  0  0  0
    5.0900    1.0280   26.9070 C   0  0  0  0  0  0  0  0  0  0  0  0
    5.4910   -0.2590   26.3210 C   0  0  0  0  0  0  0  0  0  0  0  0
    6.4350   -1.0800   26.9350 C   0  0  0  0  0  0  0  0  0  0  0  0
   10.4970    0.4970   23.5230 C   0  0  0  0  0  0  0  0  0  0  0  0
   11.8240    0.8110   23.7640 C   0  0  0  0  0  0  0  0  0  0  0  0
   12.8560    0.1490   23.2180 C   0  0  0  0  0  0  0  0  0  0  0  0
   12.7190   -0.9150   22.3690 C   0  0  0  0  0  0  0  0  0  0  0  0
   11.4010   -1.2680   22.0930 C   0  0  0  0  0  0  0  0  0  0  0  0
   10.3130   -0.5640   22.6600 C   0  0  0  0  0  0  0  0  0  0  0  0
    5.1390    0.5230   20.2360 C   0  0  0  0  0  0  0  0  0  0  0  0
    4.5040    1.3060   19.2590 C   0  0  0  0  0  0  0  0  0  0  0  0
    5.1190    1.4350   18.0080 C   0  0  0  0  0  0  0  0  0  0  0  0
    6.2830    0.8430   17.7010 N   0  0  0  0  0  0  0  0  0  0  0  0
    6.8500    0.1070   18.6590 C   0  0  0  0  0  0  0  0  0  0  0  0
    6.3530   -0.0950   19.9300 C   0  0  0  0  0  0  0  0  0  0  0  0
  1  3  1  0
  2  3  2  0
  4  6  1  0
  5  6  2  0
  7  8  2  0
  8  9  1  0
  8 10  1  0
  1 11  1  0
 10 11  1  0
  3 12  1  0
 12 13  1  0
 13 14  1  0
  4 15  1  0
 14 15  1  0
 15 16  1  0
 12 17  1  0
 16 17  1  0
 18 19  2  0
 19 20  1  0
 20 21  2  0
 21 22  1  0
  6 23  1  0
 18 23  1  0
 22 23  2  0
 24 25  2  0
 25 26  1  0
 26 27  2  0
 27 28  1  0
  9 29  1  0
 24 29  1  0
 28 29  2  0
 30 31  2  0
 31 32  1  0
 32 33  2  0
 33 34  1  0
 10 35  1  0
 30 35  1  0
 34 35  2  0
M  END
