x1351-x1358
     RDKit          3D

 20 21  0  0  0  0  0  0  0  0999 V2000
    7.0710   -2.6150   26.1300 C   0  0  0  0  0  0  0  0  0  0  0  0
    5.3640   -0.1590   25.3510 O   0  0  0  0  0  0  0  0  0  0  0  0
    4.8800   -3.2270   25.4760 O   0  0  0  0  0  0  0  0  0  0  0  0
    5.1790   -4.3680   19.4630 O   0  0  0  0  0  0  0  0  0  0  0  0
    6.0720   -3.2150   25.1840 C   0  0  0  0  0  0  0  0  0  0  0  0
    5.9340   -3.5590   19.9650 C   0  0  0  0  0  0  0  0  0  0  0  0
    6.2890   -2.2410   19.2480 C   0  0  0  0  0  0  0  0  0  0  0  0
    8.1440   -3.1870   26.2510 O   0  0  0  0  0  0  0  0  0  0  0  0
    6.0350   -0.2940   26.5400 C   0  0  0  0  0  0  0  0  0  0  0  0
    6.8150   -1.3970   26.9180 C   0  0  0  0  0  0  0  0  0  0  0  0
    7.3230   -1.1290   28.2080 C   0  0  0  0  0  0  0  0  0  0  0  0
    7.3610   -0.3760   29.0840 C   0  0  0  0  0  0  0  0  0  0  0  0
    6.5950    0.7490   28.7610 C   0  0  0  0  0  0  0  0  0  0  0  0
    5.9300    0.7830   27.4760 C   0  0  0  0  0  0  0  0  0  0  0  0
    6.5200   -3.8380   21.1680 N   0  0  0  0  0  0  0  0  0  0  0  0
    7.4970   -2.9700   21.8000 C   0  0  0  0  0  0  0  0  0  0  0  0
    7.2300   -2.7770   23.1490 C   0  0  0  0  0  0  0  0  0  0  0  0
    6.6240   -3.7900   23.8970 C   0  0  0  0  0  0  0  0  0  0  0  0
    5.6720   -4.6400   23.3210 C   0  0  0  0  0  0  0  0  0  0  0  0
    6.0280   -5.0070   21.8890 C   0  0  0  0  0  0  0  0  0  0  0  0
  1  5  1  0
  3  5  2  0
  4  6  2  0
  6  7  1  0
  1  8  2  0
  2  9  1  0
  1 10  1  0
  9 10  2  0
 10 11  1  0
 11 12  2  0
 12 13  1  0
  9 14  1  0
 13 14  2  0
  6 15  1  0
 15 16  1  0
 16 17  1  0
  5 18  1  0
 17 18  1  0
 18 19  1  0
 15 20  1  0
 19 20  1  0
M  END
