x1358-x0305
     RDKit          3D

 31 33  0  0  0  0  0  0  0  0999 V2000
    6.9200   -2.2680   25.9290 N   0  0  0  0  0  0  0  0  0  0  0  0
    5.2530   -0.1870   25.5160 O   0  0  0  0  0  0  0  0  0  0  0  0
    5.1000   -3.7050   25.7390 O   0  0  0  0  0  0  0  0  0  0  0  0
    5.2190   -4.2210   19.7220 O   0  0  0  0  0  0  0  0  0  0  0  0
    6.0370   -3.1030   25.2290 C   0  0  0  0  0  0  0  0  0  0  0  0
    6.3480   -3.8230   20.0730 C   0  0  0  0  0  0  0  0  0  0  0  0
    7.3120   -3.1880   19.1290 C   0  0  0  0  0  0  0  0  0  0  0  0
    7.9690    0.2800   26.8530 C   0  0  0  0  0  0  0  0  0  0  0  0
    8.9340   -0.6950   26.3320 C   0  0  2  0  0  0  0  0  0  0  0  0
    9.7080    0.2030   25.5090 N   0  0  0  0  0  0  0  0  0  0  0  0
   13.1730   -1.3190   21.5330 C   0  0  0  0  0  0  0  0  0  0  0  0
   13.9920   -1.5350   20.4160 N   0  0  0  0  0  0  0  0  0  0  0  0
    8.3100   -1.8390   25.4670 C   0  0  0  0  0  0  0  0  0  0  0  0
    5.7700   -0.3000   26.7870 C   0  0  0  0  0  0  0  0  0  0  0  0
    6.6120   -1.3620   27.0140 C   0  0  0  0  0  0  0  0  0  0  0  0
    7.1900   -1.5720   28.2490 C   0  0  0  0  0  0  0  0  0  0  0  0
    6.9210   -0.7160   29.2400 C   0  0  0  0  0  0  0  0  0  0  0  0
    6.0800    0.4030   29.1200 C   0  0  0  0  0  0  0  0  0  0  0  0
    5.4920    0.6050   27.8520 C   0  0  0  0  0  0  0  0  0  0  0  0
    6.7620   -4.0070   21.3820 N   0  0  0  0  0  0  0  0  0  0  0  0
    7.8280   -3.2260   21.9930 C   0  0  0  0  0  0  0  0  0  0  0  0
    7.5480   -2.8560   23.3650 C   0  0  0  0  0  0  0  0  0  0  0  0
    6.2620   -3.2510   23.6940 C   0  0  0  0  0  0  0  0  0  0  0  0
    5.9650   -4.6040   23.4140 C   0  0  0  0  0  0  0  0  0  0  0  0
    6.4280   -5.0610   22.1540 C   0  0  0  0  0  0  0  0  0  0  0  0
   10.5440   -0.2270   24.4780 C   0  0  0  0  0  0  0  0  0  0  0  0
   11.6990    0.5350   24.3210 N   0  0  0  0  0  0  0  0  0  0  0  0
   12.5250    0.1420   23.3570 C   0  0  0  0  0  0  0  0  0  0  0  0
   12.2650   -0.9310   22.5680 C   0  0  0  0  0  0  0  0  0  0  0  0
   11.1310   -1.6980   22.6940 C   0  0  0  0  0  0  0  0  0  0  0  0
   10.2400   -1.3390   23.6770 C   0  0  0  0  0  0  0  0  0  0  0  0
  1  5  1  0
  3  5  2  0
  4  6  2  0
  6  7  1  0
  9  8  1  6
  9 10  1  0
 11 12  3  0
  1 13  1  0
  9 13  1  0
  2 14  1  0
  1 15  1  0
 14 15  2  0
 15 16  1  0
 16 17  2  0
 17 18  1  0
 14 19  1  0
 18 19  2  0
  6 20  1  0
 20 21  1  0
 21 22  1  0
  5 23  1  0
 22 23  1  0
 23 24  1  0
 20 25  1  0
 24 25  1  0
 10 26  1  0
 26 27  2  0
 27 28  1  0
 11 29  1  0
 28 29  2  0
 29 30  1  0
 26 31  1  0
 30 31  2  0
M  END
