x1358
     RDKit          3D

 20 21  0  0  0  0  0  0  0  0999 V2000
    6.9760   -2.4760   25.9000 N   0  0  0  0  0  0  0  0  0  0  0  0
    6.0110   -0.3080   26.5200 C   0  0  0  0  0  0  0  0  0  0  0  0
    5.3980   -0.2730   25.3120 O   0  0  0  0  0  0  0  0  0  0  0  0
    5.8840    0.7090   27.4690 C   0  0  0  0  0  0  0  0  0  0  0  0
    6.8630   -4.1190   21.0680 N   0  0  0  0  0  0  0  0  0  0  0  0
    4.8890   -3.2930   25.4840 O   0  0  0  0  0  0  0  0  0  0  0  0
    6.5380    0.6040   28.6850 C   0  0  0  0  0  0  0  0  0  0  0  0
    5.6220   -4.6330   19.2580 O   0  0  0  0  0  0  0  0  0  0  0  0
    7.3190   -0.4970   28.9680 C   0  0  0  0  0  0  0  0  0  0  0  0
    7.4560   -1.5120   28.0340 C   0  0  0  0  0  0  0  0  0  0  0  0
    6.7920   -1.4280   26.8260 C   0  0  0  0  0  0  0  0  0  0  0  0
    6.0660   -3.1610   25.1690 C   0  0  0  0  0  0  0  0  0  0  0  0
    6.6490   -3.7680   23.9060 C   0  0  1  0  0  0  0  0  0  0  0  0
    5.6570   -4.6390   23.1320 C   0  0  0  0  0  0  0  0  0  0  0  0
    6.3200   -5.2020   21.8970 C   0  0  0  0  0  0  0  0  0  0  0  0
    7.8140   -3.2510   21.7670 C   0  0  0  0  0  0  0  0  0  0  0  0
    7.1680   -2.6600   22.9880 C   0  0  0  0  0  0  0  0  0  0  0  0
    6.4870   -3.9430   19.7850 C   0  0  0  0  0  0  0  0  0  0  0  0
    7.1870   -2.8720   18.9930 C   0  0  0  0  0  0  0  0  0  0  0  0
    8.7690   -3.4580   18.3170 R   0  0  0  0  0  0  0  0  0  0  0  0
  2  3  1  0
  2  4  2  0
  4  7  1  0
  7  9  2  0
  9 10  1  0
  1 11  1  0
  2 11  1  0
 10 11  2  0
  1 12  1  0
  6 12  2  0
 13 12  1  1
 13 14  1  0
  5 15  1  0
 14 15  1  0
  5 16  1  0
 13 17  1  0
 16 17  1  0
  5 18  1  0
  8 18  2  0
 18 19  1  0
 19 20  1  0
M  END
