x1358-x0991
     RDKit          3D

 25 28  0  0  0  0  0  0  0  0999 V2000
    7.1430   -2.5660   25.9450 N   0  0  0  0  0  0  0  0  0  0  0  0
    5.5060   -0.4280   25.3140 O   0  0  0  0  0  0  0  0  0  0  0  0
    5.1150   -3.6700   25.5490 O   0  0  0  0  0  0  0  0  0  0  0  0
    5.0880   -4.0080   19.5060 O   0  0  0  0  0  0  0  0  0  0  0  0
    6.2710   -3.3810   25.2470 C   0  0  0  0  0  0  0  0  0  0  0  0
    6.2170   -3.6640   19.8870 C   0  0  0  0  0  0  0  0  0  0  0  0
    7.2780   -3.1100   18.9830 C   0  0  0  0  0  0  0  0  0  0  0  0
    9.9080   -5.8260   25.6500 N   0  0  0  0  0  0  0  0  0  0  0  0
    9.1600   -3.6780   23.7290 C   0  0  0  0  0  0  0  0  0  0  0  0
    8.1880   -4.6770   24.1520 C   0  0  1  0  0  0  0  0  0  0  0  0
    7.8030   -4.9020   26.7400 N   0  0  0  0  0  0  0  0  0  0  0  0
    8.6270   -5.1320   25.5450 C   0  0  0  0  0  0  0  0  0  0  0  0
    8.6370   -3.1070   22.4960 C   0  0  1  0  0  0  0  0  0  0  0  0
    6.1010   -0.4060   26.5550 C   0  0  0  0  0  0  0  0  0  0  0  0
    6.9150   -1.4630   26.8820 C   0  0  0  0  0  0  0  0  0  0  0  0
    7.5420   -1.5040   28.1100 C   0  0  0  0  0  0  0  0  0  0  0  0
    7.3880   -0.5320   29.0220 C   0  0  0  0  0  0  0  0  0  0  0  0
    6.5680    0.5840   28.7540 C   0  0  0  0  0  0  0  0  0  0  0  0
    5.9210    0.6370   27.5000 C   0  0  0  0  0  0  0  0  0  0  0  0
    6.5070   -3.8020   21.2130 N   0  0  0  0  0  0  0  0  0  0  0  0
    7.2840   -2.7790   21.8880 C   0  0  1  0  0  0  0  0  0  0  0  0
    7.3450   -2.7760   23.2740 C   0  0  1  0  0  0  0  0  0  0  0  0
    6.9370   -3.9180   23.9550 C   0  0  2  0  0  0  0  0  0  0  0  0
    5.9600   -4.6320   23.2640 C   0  0  0  0  0  0  0  0  0  0  0  0
    6.2990   -4.9400   21.9300 C   0  0  0  0  0  0  0  0  0  0  0  0
  1  5  1  0
  3  5  2  0
  4  6  2  0
  6  7  1  0
  9 10  1  0
  8 12  2  3
 10 12  1  1
 11 12  1  0
 13  9  1  1
  2 14  1  0
  1 15  1  0
 14 15  2  0
 15 16  1  0
 16 17  2  0
 17 18  1  0
 14 19  1  0
 18 19  2  0
  6 20  1  0
 13 21  1  0
 21 20  1  1
 22 13  1  6
 21 22  1  0
 23  5  1  1
 10 23  1  0
 22 23  1  0
 23 24  1  0
 20 25  1  0
 24 25  1  0
M  END
