x1358-x0734
     RDKit          3D

 25 27  0  0  0  0  0  0  0  0999 V2000
    6.6470   -1.1870   25.6610 N   0  0  0  0  0  0  0  0  0  0  0  0
    5.2100    0.7220   25.6300 O   0  0  0  0  0  0  0  0  0  0  0  0
    5.7710   -3.4080   25.6440 C   0  0  0  0  0  0  0  0  0  0  0  0
    5.6190   -4.5590   19.6600 O   0  0  0  0  0  0  0  0  0  0  0  0
    6.7680   -2.4240   25.5430 C   0  0  0  0  0  0  0  0  0  0  0  0
    6.6100   -3.7130   20.2560 C   0  0  0  0  0  0  0  0  0  0  0  0
    7.2360   -2.6090   19.4160 C   0  0  0  0  0  0  0  0  0  0  0  0
    4.8090   -4.3590   25.7420 N   0  0  0  0  0  0  0  0  0  0  0  0
    3.5870   -4.5330   25.9210 O   0  0  0  0  0  0  0  0  0  0  0  0
    5.7690    0.4470   26.8540 C   0  0  0  0  0  0  0  0  0  0  0  0
    6.5720   -0.6390   26.8950 C   0  0  0  0  0  0  0  0  0  0  0  0
    7.2480   -1.1030   28.1510 C   0  0  0  0  0  0  0  0  0  0  0  0
    7.0390   -0.3930   29.2420 C   0  0  0  0  0  0  0  0  0  0  0  0
    6.1580    0.8090   29.1530 C   0  0  0  0  0  0  0  0  0  0  0  0
    5.5570    1.1980   27.9940 C   0  0  0  0  0  0  0  0  0  0  0  0
    7.0190   -3.8380   21.5950 N   0  0  0  0  0  0  0  0  0  0  0  0
    6.4570   -3.0150   22.6130 C   0  0  0  0  0  0  0  0  0  0  0  0
    5.4840   -4.1120   23.1810 C   0  0  0  0  0  0  0  0  0  0  0  0
    6.2410   -5.0660   24.0980 C   0  0  0  0  0  0  0  0  0  0  0  0
    7.2750   -5.7510   23.5000 C   0  0  0  0  0  0  0  0  0  0  0  0
    6.6580   -5.1050   22.2160 C   0  0  0  0  0  0  0  0  0  0  0  0
    5.8080   -5.1150   25.5510 C   0  0  0  0  0  0  0  0  0  0  0  0
    7.8240   -6.3480   24.7720 C   0  0  0  0  0  0  0  0  0  0  0  0
    7.5060   -6.4500   26.2850 C   0  0  0  0  0  0  0  0  0  0  0  0
    6.3130   -5.7440   26.6380 C   0  0  0  0  0  0  0  0  0  0  0  0
  1  5  1  0
  3  5  2  0
  4  6  2  0
  6  7  1  0
  3  8  2  0
  8  9  1  0
  2 10  1  0
  1 11  1  0
 10 11  2  0
 11 12  1  0
 12 13  2  0
 13 14  1  0
 10 15  1  0
 14 15  2  0
  6 16  1  0
 16 17  1  0
 17 18  1  0
 18 19  1  0
 19 20  2  0
 16 21  1  0
 20 21  1  0
  8 22  1  0
 19 22  1  0
 20 23  1  0
 23 24  2  0
 22 25  2  0
 24 25  1  0
M  CHG  2   8   1   9  -1
M  END
