x1351-x1382
     RDKit          3D

 30 34  0  0  0  0  0  0  0  0999 V2000
    7.1960   -3.1460   19.4730 C   0  0  0  0  0  0  0  0  0  0  0  0
    5.3990   -4.7590   19.9290 O   0  0  0  0  0  0  0  0  0  0  0  0
    6.3020   -4.0080   20.3540 C   0  0  0  0  0  0  0  0  0  0  0  0
    5.8870   -3.1730   25.6560 N   0  0  0  0  0  0  0  0  0  0  0  0
    7.8710   -3.0150   26.7730 O   0  0  0  0  0  0  0  0  0  0  0  0
    6.7950   -2.5180   26.4740 C   0  0  0  0  0  0  0  0  0  0  0  0
   13.4440   -2.0530   21.1040 Cl  0  0  0  0  0  0  0  0  0  0  0  0
    7.9360   -1.8780   23.9600 C   0  0  0  0  0  0  0  0  0  0  0  0
    8.7160   -2.1590   22.7500 C   0  0  1  0  0  0  0  0  0  0  0  0
    7.6160   -1.9250   21.7860 N   0  0  0  0  0  0  0  0  0  0  0  0
    7.6480   -1.8610   20.3090 C   0  0  0  0  0  0  0  0  0  0  0  0
    7.9280   -0.7870   19.8060 O   0  0  0  0  0  0  0  0  0  0  0  0
    6.4620   -3.9280   21.7230 N   0  0  0  0  0  0  0  0  0  0  0  0
    6.4940   -2.5920   22.2930 C   0  0  1  0  0  0  0  0  0  0  0  0
    6.5770   -2.5120   23.6540 C   0  0  1  0  0  0  0  0  0  0  0  0
    6.3800   -3.6280   24.3650 C   0  0  2  0  0  0  0  0  0  0  0  0
    5.5550   -4.5500   23.7220 C   0  0  0  0  0  0  0  0  0  0  0  0
    5.9620   -4.9460   22.4790 C   0  0  0  0  0  0  0  0  0  0  0  0
    7.1070   -0.6780   28.1390 C   0  0  0  0  0  0  0  0  0  0  0  0
    6.8130    0.5830   28.6510 C   0  0  0  0  0  0  0  0  0  0  0  0
    5.8120    1.4660   28.0250 C   0  0  0  0  0  0  0  0  0  0  0  0
    5.1670    0.8950   26.8290 C   0  0  0  0  0  0  0  0  0  0  0  0
    5.4950   -0.3790   26.3500 C   0  0  0  0  0  0  0  0  0  0  0  0
    6.4580   -1.1630   26.9990 C   0  0  0  0  0  0  0  0  0  0  0  0
   10.0430   -1.4200   22.7610 C   0  0  0  0  0  0  0  0  0  0  0  0
   11.0790   -1.8860   22.0620 C   0  0  0  0  0  0  0  0  0  0  0  0
   12.2970   -1.2950   22.0530 C   0  0  0  0  0  0  0  0  0  0  0  0
   12.5370   -0.1470   22.7850 C   0  0  0  0  0  0  0  0  0  0  0  0
   11.5050    0.4000   23.5320 C   0  0  0  0  0  0  0  0  0  0  0  0
   10.2560   -0.2380   23.5210 C   0  0  0  0  0  0  0  0  0  0  0  0
  1  3  1  0
  2  3  2  0
  4  6  1  0
  5  6  2  0
  8  9  1  0
  9 10  1  0
  1 11  1  0
 10 11  1  0
 11 12  2  0
  3 13  1  0
 14 10  1  6
 13 14  1  0
 15  8  1  6
 14 15  1  0
 16  4  1  1
 15 16  1  0
 16 17  1  0
 13 18  1  0
 17 18  1  0
 19 20  2  0
 20 21  1  0
 21 22  2  0
 22 23  1  0
  6 24  1  0
 19 24  1  0
 23 24  2  0
  9 25  1  6
 25 26  2  0
  7 27  1  0
 26 27  1  0
 27 28  2  0
 28 29  1  0
 25 30  1  0
 29 30  2  0
M  END
