x1351-x1380
     RDKit          3D

 25 29  0  0  0  0  0  0  0  0999 V2000
    7.0460   -3.1860   19.1330 C   0  0  0  0  0  0  0  0  0  0  0  0
    5.1810   -4.5070   19.8340 O   0  0  0  0  0  0  0  0  0  0  0  0
    6.2030   -3.8750   20.1540 C   0  0  0  0  0  0  0  0  0  0  0  0
    5.9320   -3.2130   25.6070 N   0  0  1  0  0  0  0  0  0  0  0  0
    7.4990   -3.0950   27.0110 C   0  0  0  0  0  0  0  0  0  0  0  0
    6.5230   -2.1790   26.4860 C   0  0  0  0  0  0  0  0  0  0  0  0
    4.5730   -3.2290   25.7050 O   0  0  0  0  0  0  0  0  0  0  0  0
    6.6060   -3.8440   21.4710 N   0  0  0  0  0  0  0  0  0  0  0  0
    7.3990   -2.8290   22.0230 C   0  0  0  0  0  0  0  0  0  0  0  0
    6.7400   -2.3020   23.3090 C   0  0  0  0  0  0  0  0  0  0  0  0
    6.4960   -3.4880   24.2090 C   0  0  0  0  0  0  0  0  0  0  0  0
    5.7150   -4.4300   23.5350 C   0  0  0  0  0  0  0  0  0  0  0  0
    6.1620   -4.9290   22.3400 C   0  0  0  0  0  0  0  0  0  0  0  0
    7.1180   -0.2340   27.9170 C   0  0  0  0  0  0  0  0  0  0  0  0
    7.0440    1.0290   28.3460 C   0  0  0  0  0  0  0  0  0  0  0  0
    6.2010    1.9690   27.7360 C   0  0  0  0  0  0  0  0  0  0  0  0
    5.4270    1.5580   26.6430 C   0  0  0  0  0  0  0  0  0  0  0  0
    5.4600    0.1760   26.1120 C   0  0  0  0  0  0  0  0  0  0  0  0
    6.3730   -0.6960   26.8440 C   0  0  0  0  0  0  0  0  0  0  0  0
    7.9320   -4.4520   26.9850 C   0  0  1  0  0  0  0  0  0  0  0  0
    8.0640   -5.4280   27.9550 C   0  0  0  0  0  0  0  0  0  0  0  0
    6.9740   -5.4990   28.8250 C   0  0  0  0  0  0  0  0  0  0  0  0
    5.7580   -5.1620   28.3370 C   0  0  0  0  0  0  0  0  0  0  0  0
    5.6960   -5.1370   26.9600 C   0  0  0  0  0  0  0  0  0  0  0  0
    6.6130   -4.2470   26.4260 C   0  0  2  0  0  0  0  0  0  0  0  0
  1  3  1  0
  2  3  2  0
  4  6  1  0
  5  6  2  0
  4  7  1  6
  3  8  1  0
  8  9  1  0
  9 10  1  0
  4 11  1  0
 10 11  1  0
 11 12  1  0
  8 13  1  0
 12 13  1  0
 14 15  2  0
 15 16  1  0
 16 17  2  0
 17 18  1  0
  6 19  1  0
 14 19  1  0
 18 19  2  0
  5 20  1  0
 20 21  1  1
 21 22  1  0
 22 23  1  0
 23 24  1  0
  4 25  1  0
  5 25  1  0
 20 25  1  0
 25 24  1  1
M  CHG  2   4   1   7  -1
M  END
