x1358-x2193
     RDKit          3D

 36 39  0  0  0  0  0  0  0  0999 V2000
    6.6910   -2.5500   26.1920 N   0  0  0  0  0  0  0  0  0  0  0  0
    5.0920    0.0590   25.2060 O   0  0  0  0  0  0  0  0  0  0  0  0
    4.6110   -3.0560   25.3070 O   0  0  0  0  0  0  0  0  0  0  0  0
    5.2410   -4.1120   19.6700 O   0  0  0  0  0  0  0  0  0  0  0  0
    5.8340   -3.0370   25.2230 C   0  0  0  0  0  0  0  0  0  0  0  0
    6.4020   -3.8080   20.0120 C   0  0  0  0  0  0  0  0  0  0  0  0
    7.3640   -3.1730   19.0660 C   0  0  0  0  0  0  0  0  0  0  0  0
   11.1530    2.4570   23.2210 C   0  0  0  0  0  0  0  0  0  0  0  0
    9.3290    1.7900   21.2620 O   0  0  0  0  0  0  0  0  0  0  0  0
    8.4540    2.6400   23.3430 O   0  0  0  0  0  0  0  0  0  0  0  0
    9.5650    1.8160   22.7550 S   0  0  0  0  0  0  0  0  0  0  0  0
    7.6130   -3.1520   26.9790 C   0  0  0  0  0  0  0  0  0  0  0  0
    5.7130   -0.0630   26.4150 C   0  0  0  0  0  0  0  0  0  0  0  0
    6.4820   -1.2620   26.9440 C   0  0  0  0  0  0  0  0  0  0  0  0
    7.0500   -1.1760   28.2260 C   0  0  0  0  0  0  0  0  0  0  0  0
    6.9710   -0.1010   29.0490 C   0  0  0  0  0  0  0  0  0  0  0  0
    6.2910    1.0300   28.6480 C   0  0  0  0  0  0  0  0  0  0  0  0
    5.6940    1.0910   27.4350 C   0  0  0  0  0  0  0  0  0  0  0  0
    6.8410   -4.1000   21.2840 N   0  0  0  0  0  0  0  0  0  0  0  0
    7.5450   -3.1200   21.9500 C   0  0  0  0  0  0  0  0  0  0  0  0
    6.8820   -2.5580   23.0210 C   0  0  0  0  0  0  0  0  0  0  0  0
    6.4710   -3.6190   23.9510 C   0  0  0  0  0  0  0  0  0  0  0  0
    5.5250   -4.4490   23.1710 C   0  0  0  0  0  0  0  0  0  0  0  0
    6.1480   -4.9890   22.0410 C   0  0  0  0  0  0  0  0  0  0  0  0
    9.4710    0.1670   23.3960 C   0  0  0  0  0  0  0  0  0  0  0  0
    9.1540   -0.0830   24.7430 C   0  0  0  0  0  0  0  0  0  0  0  0
    9.0480   -1.3370   25.2750 C   0  0  0  0  0  0  0  0  0  0  0  0
    9.2600   -2.4420   24.4710 C   0  0  0  0  0  0  0  0  0  0  0  0
    9.5930   -2.2230   23.1330 C   0  0  0  0  0  0  0  0  0  0  0  0
    9.6950   -0.9340   22.6040 C   0  0  0  0  0  0  0  0  0  0  0  0
    8.8030   -6.2980   25.9830 N   0  0  0  0  0  0  0  0  0  0  0  0
    7.8060   -5.3470   26.1980 C   0  0  0  0  0  0  0  0  0  0  0  0
    8.4620   -4.1970   26.3740 C   0  0  1  0  0  0  0  0  0  0  0  0
    9.1280   -3.7940   25.0490 N   0  0  0  0  0  0  0  0  0  0  0  0
    9.6570   -4.8810   24.2450 C   0  0  0  0  0  0  0  0  0  0  0  0
    9.0990   -6.0920   24.6050 C   0  0  0  0  0  0  0  0  0  0  0  0
  1  5  1  0
  3  5  2  0
  4  6  2  0
  6  7  1  0
 11  8  1  0
  9 11  2  0
 10 11  2  0
  1 12  1  0
  2 13  1  0
  1 14  1  0
 13 14  2  0
 14 15  1  0
 15 16  2  0
 16 17  1  0
 13 18  1  0
 17 18  2  0
  6 19  1  0
 19 20  1  0
 20 21  1  0
  5 22  1  0
 21 22  1  0
 22 23  1  0
 19 24  1  0
 23 24  1  0
 11 25  1  0
 25 26  2  0
 26 27  1  0
 27 28  2  0
 28 29  1  0
 25 30  1  0
 29 30  2  0
 31 32  1  0
 33 12  1  6
 32 33  1  0
 28 34  1  0
 33 34  1  0
 34 35  1  0
 31 36  1  0
 35 36  1  0
M  END
