x1351-x2608
     RDKit          3D

 35 38  0  0  0  0  0  0  0  0999 V2000
    7.6150   -3.3440   19.9090 C   0  0  0  0  0  0  0  0  0  0  0  0
    5.4760   -4.5610   19.9050 O   0  0  0  0  0  0  0  0  0  0  0  0
    6.5240   -4.1840   20.4960 C   0  0  0  0  0  0  0  0  0  0  0  0
    5.7260   -2.9100   25.3930 N   0  0  0  0  0  0  0  0  0  0  0  0
    7.8640   -2.8920   26.2660 O   0  0  0  0  0  0  0  0  0  0  0  0
    6.7660   -2.3650   26.1400 C   0  0  0  0  0  0  0  0  0  0  0  0
    8.7040   -1.1750   21.9930 N   0  0  0  0  0  0  0  0  0  0  0  0
   12.9190    1.5960   23.0360 C   0  0  0  0  0  0  0  0  0  0  0  0
    8.2130    0.8010   21.0100 O   0  0  0  0  0  0  0  0  0  0  0  0
    6.7600   -1.0030   20.4660 N   0  0  0  0  0  0  0  0  0  0  0  0
    7.9170   -0.3950   21.1540 C   0  0  0  0  0  0  0  0  0  0  0  0
    7.0540   -2.0140   19.4280 C   0  0  0  0  0  0  0  0  0  0  0  0
    6.7310   -4.5440   21.8180 N   0  0  0  0  0  0  0  0  0  0  0  0
    7.6660   -3.7110   22.5830 C   0  0  0  0  0  0  0  0  0  0  0  0
    6.9910   -2.8360   23.4200 C   0  0  0  0  0  0  0  0  0  0  0  0
    5.8080   -3.2770   23.9650 C   0  0  0  0  0  0  0  0  0  0  0  0
    5.6040   -4.6620   23.8690 C   0  0  0  0  0  0  0  0  0  0  0  0
    5.7370   -5.2280   22.6370 C   0  0  0  0  0  0  0  0  0  0  0  0
    7.1630   -0.7000   28.0040 C   0  0  0  0  0  0  0  0  0  0  0  0
    6.8970    0.5000   28.6490 C   0  0  0  0  0  0  0  0  0  0  0  0
    5.8890    1.4170   28.1230 C   0  0  0  0  0  0  0  0  0  0  0  0
    5.1860    1.0110   26.9010 C   0  0  0  0  0  0  0  0  0  0  0  0
    5.4950   -0.2150   26.2880 C   0  0  0  0  0  0  0  0  0  0  0  0
    6.4770   -1.0720   26.8300 C   0  0  0  0  0  0  0  0  0  0  0  0
   12.0050    0.4900   22.7780 C   0  0  0  0  0  0  0  0  0  0  0  0
   12.2340   -0.8350   22.6650 C   0  0  0  0  0  0  0  0  0  0  0  0
   11.1270   -1.5850   22.3920 C   0  0  0  0  0  0  0  0  0  0  0  0
   10.0080   -0.7890   22.2920 C   0  0  0  0  0  0  0  0  0  0  0  0
   10.3840    0.8630   22.5680 S   0  0  0  0  0  0  0  0  0  0  0  0
    5.9520    1.1030   17.6680 N   0  0  0  0  0  0  0  0  0  0  0  0
    6.4810    0.2470   18.5120 C   0  0  0  0  0  0  0  0  0  0  0  0
    6.0080   -0.0430   19.7520 C   0  0  0  0  0  0  0  0  0  0  0  0
    4.8750    0.5930   20.2050 C   0  0  0  0  0  0  0  0  0  0  0  0
    4.2900    1.5120   19.3260 C   0  0  0  0  0  0  0  0  0  0  0  0
    4.8290    1.7750   18.0480 C   0  0  0  0  0  0  0  0  0  0  0  0
  1  3  1  0
  2  3  2  0
  4  6  1  0
  5  6  2  0
  7 11  1  0
  9 11  2  0
 10 11  1  0
  1 12  1  0
 10 12  1  0
  3 13  1  0
 13 14  1  0
 14 15  1  0
  4 16  1  0
 15 16  1  0
 16 17  1  0
 13 18  1  0
 17 18  1  0
 19 20  2  0
 20 21  1  0
 21 22  2  0
 22 23  1  0
  6 24  1  0
 19 24  1  0
 23 24  2  0
  8 25  1  0
 25 26  2  0
 26 27  1  0
  7 28  1  0
 27 28  2  0
 25 29  1  0
 28 29  1  0
 30 31  2  0
 10 32  1  0
 31 32  1  0
 32 33  2  0
 33 34  1  0
 30 35  1  0
 34 35  2  0
M  END
