x1351-x1093
     RDKit          3D

 38 42  0  0  0  0  0  0  0  0999 V2000
    6.9960   -3.2410   19.8300 C   0  0  0  0  0  0  0  0  0  0  0  0
    5.3030   -4.9290   19.9700 O   0  0  0  0  0  0  0  0  0  0  0  0
    6.2350   -4.3080   20.5120 C   0  0  0  0  0  0  0  0  0  0  0  0
    5.8500   -2.8050   25.3840 N   0  0  0  0  0  0  0  0  0  0  0  0
    7.7990   -2.8980   26.5850 O   0  0  0  0  0  0  0  0  0  0  0  0
    6.7630   -2.3110   26.2970 C   0  0  0  0  0  0  0  0  0  0  0  0
   13.4100   -0.9060   22.8820 C   0  0  0  0  0  0  0  0  0  0  0  0
    8.7110    1.3110   21.2670 O   0  0  0  0  0  0  0  0  0  0  0  0
    8.7240    0.0850   21.5510 C   0  0  0  0  0  0  0  0  0  0  0  0
    7.9580   -0.9110   20.6190 C   0  0  1  0  0  0  0  0  0  0  0  0
    7.3830   -2.2580   21.0230 C   0  0  0  0  0  0  0  0  0  0  0  0
    6.6020   -4.6100   21.8090 N   0  0  0  0  0  0  0  0  0  0  0  0
    7.6530   -3.8920   22.5400 C   0  0  0  0  0  0  0  0  0  0  0  0
    7.1490   -3.0530   23.4810 C   0  0  0  0  0  0  0  0  0  0  0  0
    6.3270   -3.7180   24.3610 C   0  0  0  0  0  0  0  0  0  0  0  0
    5.3160   -4.4000   23.7630 C   0  0  0  0  0  0  0  0  0  0  0  0
    5.6270   -5.1680   22.6220 C   0  0  0  0  0  0  0  0  0  0  0  0
    7.1210   -0.6100   28.1110 C   0  0  0  0  0  0  0  0  0  0  0  0
    6.8400    0.6760   28.7730 C   0  0  0  0  0  0  0  0  0  0  0  0
    5.8120    1.4910   28.1050 C   0  0  0  0  0  0  0  0  0  0  0  0
    5.1710    1.0590   26.9390 C   0  0  0  0  0  0  0  0  0  0  0  0
    5.4850   -0.1730   26.3600 C   0  0  0  0  0  0  0  0  0  0  0  0
    6.4540   -1.0080   26.9390 C   0  0  0  0  0  0  0  0  0  0  0  0
   12.0660   -0.8500   23.1790 N   0  0  0  0  0  0  0  0  0  0  0  0
   11.6150    0.5330   23.2680 C   0  0  0  0  0  0  0  0  0  0  0  0
   10.2500    0.5860   23.4830 C   0  0  0  0  0  0  0  0  0  0  0  0
    9.4870   -0.3440   22.6320 N   0  0  0  0  0  0  0  0  0  0  0  0
    9.9410   -1.6090   22.5930 C   0  0  0  0  0  0  0  0  0  0  0  0
   11.2940   -1.7200   22.3110 C   0  0  0  0  0  0  0  0  0  0  0  0
    6.1560    0.4820   17.8440 N   0  0  0  0  0  0  0  0  0  0  0  0
    7.1460   -0.2410   18.4380 C   0  0  0  0  0  0  0  0  0  0  0  0
    7.0120   -0.2130   19.7650 C   0  0  0  0  0  0  0  0  0  0  0  0
    5.9160    0.5330   20.0530 C   0  0  0  0  0  0  0  0  0  0  0  0
    5.3660    0.9810   18.8450 C   0  0  0  0  0  0  0  0  0  0  0  0
    4.2870    1.7450   18.6440 N   0  0  0  0  0  0  0  0  0  0  0  0
    3.6610    2.1150   19.7800 C   0  0  0  0  0  0  0  0  0  0  0  0
    4.0570    1.7660   21.0640 C   0  0  0  0  0  0  0  0  0  0  0  0
    5.2920    0.9020   21.2340 C   0  0  0  0  0  0  0  0  0  0  0  0
  1  3  1  0
  2  3  2  0
  4  6  1  0
  5  6  2  0
  8  9  2  0
  9 10  1  0
  1 11  1  0
 10 11  1  1
  3 12  1  0
 12 13  1  0
 13 14  1  0
  4 15  1  0
 14 15  1  0
 15 16  1  0
 12 17  1  0
 16 17  1  0
 18 19  2  0
 19 20  1  0
 20 21  2  0
 21 22  1  0
  6 23  1  0
 18 23  1  0
 22 23  2  0
  7 24  1  0
 24 25  1  0
 25 26  1  0
  9 27  1  0
 26 27  1  0
 27 28  1  0
 24 29  1  0
 28 29  1  0
 30 31  1  0
 10 32  1  0
 31 32  2  0
 32 33  1  0
 30 34  1  0
 33 34  2  0
 34 35  1  0
 35 36  2  0
 36 37  1  0
 33 38  1  0
 37 38  2  0
M  END
