x1351-x1425
     RDKit          3D

 25 27  0  0  0  0  0  0  0  0999 V2000
    7.1430   -3.1860   19.1810 C   0  0  0  0  0  0  0  0  0  0  0  0
    5.1460   -4.3970   19.8010 O   0  0  0  0  0  0  0  0  0  0  0  0
    6.2430   -3.9690   20.1280 C   0  0  0  0  0  0  0  0  0  0  0  0
    7.9480   -2.7760   26.0810 O   0  0  0  0  0  0  0  0  0  0  0  0
    6.7080   -2.1080   26.3980 C   0  0  0  0  0  0  0  0  0  0  0  0
    1.0410   -2.4750   28.0800 C   0  0  0  0  0  0  0  0  0  0  0  0
    2.4490   -2.3300   28.1660 O   0  0  0  0  0  0  0  0  0  0  0  0
    6.7620   -4.2530   21.3820 N   0  0  0  0  0  0  0  0  0  0  0  0
    7.2990   -3.1550   22.1090 C   0  0  0  0  0  0  0  0  0  0  0  0
    6.6040   -2.7800   23.4170 C   0  0  0  0  0  0  0  0  0  0  0  0
    6.0520   -3.9140   24.0630 C   0  0  0  0  0  0  0  0  0  0  0  0
    5.4920   -4.9060   23.2480 C   0  0  0  0  0  0  0  0  0  0  0  0
    6.2590   -5.3040   22.1660 C   0  0  0  0  0  0  0  0  0  0  0  0
    7.3640   -0.3840   28.1230 C   0  0  0  0  0  0  0  0  0  0  0  0
    7.2230    0.8710   28.7020 C   0  0  0  0  0  0  0  0  0  0  0  0
    6.2780    1.7630   28.1500 C   0  0  0  0  0  0  0  0  0  0  0  0
    5.4940    1.3930   27.0340 C   0  0  0  0  0  0  0  0  0  0  0  0
    5.6730    0.1150   26.4850 C   0  0  0  0  0  0  0  0  0  0  0  0
    6.5960   -0.7650   27.0230 C   0  0  0  0  0  0  0  0  0  0  0  0
    3.1910   -2.7800   27.1270 C   0  0  0  0  0  0  0  0  0  0  0  0
    4.4740   -2.3530   27.1330 C   0  0  0  0  0  0  0  0  0  0  0  0
    5.4000   -2.7000   26.1650 C   0  0  0  0  0  0  0  0  0  0  0  0
    5.0470   -3.5170   25.1250 C   0  0  0  0  0  0  0  0  0  0  0  0
    3.7250   -3.9810   25.0750 C   0  0  0  0  0  0  0  0  0  0  0  0
    2.8080   -3.6130   26.0710 C   0  0  0  0  0  0  0  0  0  0  0  0
  1  3  1  0
  2  3  2  0
  4  5  2  0
  6  7  1  0
  3  8  1  0
  8  9  1  0
  9 10  1  0
 10 11  1  0
 11 12  1  0
  8 13  1  0
 12 13  1  0
 14 15  2  0
 15 16  1  0
 16 17  2  0
 17 18  1  0
  5 19  1  0
 14 19  1  0
 18 19  2  0
  7 20  1  0
 20 21  2  0
  5 22  1  0
 21 22  1  0
 11 23  1  0
 22 23  2  0
 23 24  1  0
 20 25  1  0
 24 25  2  0
M  END
