x1358-x2581
     RDKit          3D

 43 47  0  0  0  0  0  0  0  0999 V2000
    6.7800   -2.4250   25.5520 N   0  0  0  0  0  0  0  0  0  0  0  0
    5.5390    0.0820   25.0890 O   0  0  0  0  0  0  0  0  0  0  0  0
    5.0540   -3.9100   25.9280 O   0  0  0  0  0  0  0  0  0  0  0  0
    5.1130   -4.3030   19.7330 O   0  0  0  0  0  0  0  0  0  0  0  0
    5.8340   -3.3570   25.1680 C   0  0  0  0  0  0  0  0  0  0  0  0
    6.2090   -3.8240   20.0610 C   0  0  0  0  0  0  0  0  0  0  0  0
    7.1080   -3.1570   19.0940 C   0  0  0  0  0  0  0  0  0  0  0  0
   10.0690   -2.5940   23.6240 C   0  0  0  0  0  0  0  0  0  0  0  0
   10.4300   -1.2160   23.7930 O   0  0  0  0  0  0  0  0  0  0  0  0
   10.4890    3.3080   22.0290 N   0  0  0  0  0  0  0  0  0  0  0  0
   10.9590    3.5960   24.2330 O   0  0  0  0  0  0  0  0  0  0  0  0
   11.0850    3.9690   23.0850 C   0  0  0  0  0  0  0  0  0  0  0  0
   11.8580    5.2290   22.7040 C   0  0  0  0  0  0  0  0  0  0  0  0
    7.9560   -1.9700   24.6340 C   0  0  0  0  0  0  0  0  0  0  0  0
    8.5780   -2.9640   23.8600 C   0  0  0  0  0  0  0  0  0  0  0  0
    5.9370   -0.2460   26.3550 C   0  0  0  0  0  0  0  0  0  0  0  0
    6.5430   -1.4600   26.6540 C   0  0  0  0  0  0  0  0  0  0  0  0
    6.9190   -1.7680   27.9270 C   0  0  0  0  0  0  0  0  0  0  0  0
    6.7450   -0.8900   29.0180 C   0  0  0  0  0  0  0  0  0  0  0  0
    6.1480    0.3450   28.7530 C   0  0  0  0  0  0  0  0  0  0  0  0
    5.7240    0.6830   27.3810 C   0  0  0  0  0  0  0  0  0  0  0  0
    6.6410   -3.9390   21.3660 N   0  0  0  0  0  0  0  0  0  0  0  0
    7.4210   -3.0790   22.0410 C   0  0  0  0  0  0  0  0  0  0  0  0
    6.4560   -2.6070   22.9500 C   0  0  0  0  0  0  0  0  0  0  0  0
    5.8020   -3.6500   23.6490 C   0  0  0  0  0  0  0  0  0  0  0  0
    6.1840   -4.9830   23.3910 C   0  0  0  0  0  0  0  0  0  0  0  0
    6.3950   -5.1890   22.0700 C   0  0  0  0  0  0  0  0  0  0  0  0
    8.9220    1.7910   21.2910 N   0  0  0  0  0  0  0  0  0  0  0  0
    9.9730    1.9590   22.1330 C   0  0  0  0  0  0  0  0  0  0  0  0
   10.4800    0.9690   22.9470 C   0  0  0  0  0  0  0  0  0  0  0  0
    9.8900   -0.2950   22.9450 C   0  0  0  0  0  0  0  0  0  0  0  0
    8.8180   -0.4920   22.0910 C   0  0  0  0  0  0  0  0  0  0  0  0
    8.3690    0.5590   21.2910 C   0  0  0  0  0  0  0  0  0  0  0  0
    9.8800    6.7770   22.8070 C   0  0  0  0  0  0  0  0  0  0  0  0
    9.1610    7.8330   23.3600 C   0  0  0  0  0  0  0  0  0  0  0  0
    9.6400    8.5540   24.4560 C   0  0  0  0  0  0  0  0  0  0  0  0
   10.8720    8.2410   25.0590 C   0  0  0  0  0  0  0  0  0  0  0  0
   11.7170    7.0990   24.5250 C   0  0  0  0  0  0  0  0  0  0  0  0
   11.1170    6.3790   23.3240 C   0  0  0  0  0  0  0  0  0  0  0  0
    8.8770    9.6160   24.9530 C   0  0  0  0  0  0  0  0  0  0  0  0
    9.4030   10.4110   26.1430 C   0  0  0  0  0  0  0  0  0  0  0  0
   10.6250   10.0400   26.6870 C   0  0  0  0  0  0  0  0  0  0  0  0
   11.3460    8.9800   26.1600 C   0  0  0  0  0  0  0  0  0  0  0  0
  1  5  1  0
  3  5  2  0
  4  6  2  0
  6  7  1  0
  8  9  1  0
 10 12  1  0
 11 12  2  0
 12 13  1  0
  1 14  1  0
  8 15  1  0
 14 15  1  0
  2 16  1  0
  1 17  1  0
 16 17  2  0
 17 18  1  0
 18 19  2  0
 19 20  1  0
 16 21  1  0
 20 21  2  0
  6 22  1  0
 22 23  1  0
 23 24  1  0
  5 25  1  0
 24 25  1  0
 25 26  1  0
 22 27  1  0
 26 27  1  0
 10 29  1  0
 28 29  2  0
 29 30  1  0
  9 31  1  0
 30 31  2  0
 31 32  1  0
 28 33  1  0
 32 33  2  0
 34 35  2  0
 35 36  1  0
 36 37  2  0
 37 38  1  0
 13 39  1  0
 34 39  1  0
 38 39  2  0
 36 40  1  0
 40 41  2  0
 41 42  1  0
 37 43  1  0
 42 43  2  0
M  END
