x1358-x2912
     RDKit          3D

 40 43  0  0  0  0  0  0  0  0999 V2000
    7.0590   -2.3220   25.8430 N   0  0  0  0  0  0  0  0  0  0  0  0
    5.2310   -0.0320   25.4750 O   0  0  0  0  0  0  0  0  0  0  0  0
    4.9960   -3.3430   25.5940 O   0  0  0  0  0  0  0  0  0  0  0  0
    5.1660   -4.2510   19.7220 O   0  0  0  0  0  0  0  0  0  0  0  0
    6.1600   -3.1850   25.1970 C   0  0  0  0  0  0  0  0  0  0  0  0
    6.2830   -3.8910   20.0480 C   0  0  0  0  0  0  0  0  0  0  0  0
    7.2490   -3.1690   19.1190 C   0  0  0  0  0  0  0  0  0  0  0  0
    7.0530   -0.3940   21.0650 N   0  0  0  0  0  0  0  0  0  0  0  0
    7.9080   -0.6880   24.1020 C   0  0  0  0  0  0  0  0  0  0  0  0
    8.8380    1.1910   21.3340 O   0  0  0  0  0  0  0  0  0  0  0  0
    8.7440   -0.7410   22.8040 C   0  0  1  0  0  0  0  0  0  0  0  0
    8.2510    0.1430   21.6740 C   0  0  0  0  0  0  0  0  0  0  0  0
   13.6850   -2.3220   20.6850 N   0  0  0  0  0  0  0  0  0  0  0  0
    4.8190    1.3180   21.6470 C   0  0  0  0  0  0  0  0  0  0  0  0
   13.1420   -1.7180   21.4190 C   0  0  0  0  0  0  0  0  0  0  0  0
    8.2140   -1.8380   25.0840 C   0  0  0  0  0  0  0  0  0  0  0  0
    5.8720   -0.2530   26.6620 C   0  0  0  0  0  0  0  0  0  0  0  0
    6.8140   -1.4400   26.8680 C   0  0  0  0  0  0  0  0  0  0  0  0
    7.4450   -1.5210   28.2690 C   0  0  0  0  0  0  0  0  0  0  0  0
    7.1440   -0.5590   29.2280 C   0  0  0  0  0  0  0  0  0  0  0  0
    6.2720    0.4890   28.9410 C   0  0  0  0  0  0  0  0  0  0  0  0
    5.6450    0.6450   27.6900 C   0  0  0  0  0  0  0  0  0  0  0  0
    6.7340   -4.1760   21.3270 N   0  0  0  0  0  0  0  0  0  0  0  0
    7.8000   -3.4400   21.9790 C   0  0  0  0  0  0  0  0  0  0  0  0
    7.3930   -3.0190   23.2030 C   0  0  0  0  0  0  0  0  0  0  0  0
    6.6930   -3.9350   23.9570 C   0  0  0  0  0  0  0  0  0  0  0  0
    5.7140   -4.6820   23.2920 C   0  0  0  0  0  0  0  0  0  0  0  0
    6.1140   -5.1460   22.0280 C   0  0  0  0  0  0  0  0  0  0  0  0
    6.2270    0.5710   17.6340 N   0  0  0  0  0  0  0  0  0  0  0  0
    5.1880    1.3790   17.8790 C   0  0  0  0  0  0  0  0  0  0  0  0
    4.7050    1.6390   19.1590 C   0  0  0  0  0  0  0  0  0  0  0  0
    5.3250    1.0420   20.2610 C   0  0  0  0  0  0  0  0  0  0  0  0
    6.4090    0.2050   19.9910 C   0  0  0  0  0  0  0  0  0  0  0  0
    6.8210   -0.0040   18.6960 C   0  0  0  0  0  0  0  0  0  0  0  0
   10.7050    0.5020   23.8440 C   0  0  0  0  0  0  0  0  0  0  0  0
   12.0670    0.7050   23.8980 C   0  0  0  0  0  0  0  0  0  0  0  0
   12.9070   -0.0270   23.0990 C   0  0  0  0  0  0  0  0  0  0  0  0
   12.3710   -0.9580   22.2560 C   0  0  0  0  0  0  0  0  0  0  0  0
   11.0290   -1.1790   22.1830 C   0  0  0  0  0  0  0  0  0  0  0  0
   10.1840   -0.4450   22.9740 C   0  0  0  0  0  0  0  0  0  0  0  0
  1  5  1  0
  3  5  2  0
  4  6  2  0
  6  7  1  0
 11  9  1  1
  8 12  1  0
 10 12  2  0
 11 12  1  0
 13 15  3  0
  1 16  1  0
  9 16  1  0
  2 17  1  0
  1 18  1  0
 17 18  2  0
 18 19  1  0
 19 20  2  0
 20 21  1  0
 17 22  1  0
 21 22  2  0
  6 23  1  0
 23 24  1  0
 24 25  1  0
  5 26  1  0
 25 26  1  0
 26 27  1  0
 23 28  1  0
 27 28  1  0
 29 30  2  0
 30 31  1  0
 14 32  1  0
 31 32  2  0
  8 33  1  0
 32 33  1  0
 29 34  1  0
 33 34  2  0
 35 36  2  0
 36 37  1  0
 15 38  1  0
 37 38  2  0
 38 39  1  0
 11 40  1  0
 35 40  1  0
 39 40  2  0
M  END
