x1351-x1402
     RDKit          3D

 27 29  0  0  0  0  0  0  0  0999 V2000
    7.3460   -3.4930   19.9610 C   0  0  0  0  0  0  0  0  0  0  0  0
    5.2530   -4.6030   19.9180 O   0  0  0  0  0  0  0  0  0  0  0  0
    0.8680   -1.3690   26.3010 Cl  0  0  0  0  0  0  0  0  0  0  0  0
    6.3600   -4.5000   20.4850 C   0  0  0  0  0  0  0  0  0  0  0  0
    3.9660   -6.4560   25.8470 O   0  0  0  0  0  0  0  0  0  0  0  0
    6.0600   -5.3750   26.7560 O   0  0  0  0  0  0  0  0  0  0  0  0
    5.0180   -5.4610   25.7600 S   0  0  0  0  0  0  0  0  0  0  0  0
    5.9370   -2.3630   25.2650 N   0  0  0  0  0  0  0  0  0  0  0  0
    7.8830   -2.6780   26.5000 O   0  0  0  0  0  0  0  0  0  0  0  0
    6.8660   -2.0480   26.2290 C   0  0  0  0  0  0  0  0  0  0  0  0
    6.6340   -5.3380   21.5750 N   0  0  0  0  0  0  0  0  0  0  0  0
    7.5250   -4.8990   22.6460 C   0  0  0  0  0  0  0  0  0  0  0  0
    6.7440   -4.5330   23.8660 C   0  0  0  0  0  0  0  0  0  0  0  0
    5.7190   -5.5580   24.2310 N   0  0  0  0  0  0  0  0  0  0  0  0
    4.9000   -6.0500   23.1150 C   0  0  0  0  0  0  0  0  0  0  0  0
    5.7790   -6.4200   21.9390 C   0  0  0  0  0  0  0  0  0  0  0  0
    2.4410   -3.9070   26.1750 S   0  0  0  0  0  0  0  0  0  0  0  0
    4.1380   -3.9240   25.8120 C   0  0  0  0  0  0  0  0  0  0  0  0
    4.5430   -2.6540   25.6060 C   0  0  0  0  0  0  0  0  0  0  0  0
    3.5570   -1.7280   25.7400 C   0  0  0  0  0  0  0  0  0  0  0  0
    2.3440   -2.2060   26.0490 C   0  0  0  0  0  0  0  0  0  0  0  0
    7.1490   -0.5390   28.2070 C   0  0  0  0  0  0  0  0  0  0  0  0
    6.8290    0.6310   28.8860 C   0  0  0  0  0  0  0  0  0  0  0  0
    5.8650    1.6120   28.3500 C   0  0  0  0  0  0  0  0  0  0  0  0
    5.2830    1.2450   27.0500 C   0  0  0  0  0  0  0  0  0  0  0  0
    5.6360    0.0630   26.4080 C   0  0  0  0  0  0  0  0  0  0  0  0
    6.5550   -0.8180   26.9780 C   0  0  0  0  0  0  0  0  0  0  0  0
  1  4  1  0
  2  4  2  0
  5  7  2  0
  6  7  2  0
  8 10  1  0
  9 10  2  0
  4 11  1  0
 11 12  1  0
 12 13  1  0
  7 14  1  0
 13 14  1  0
 14 15  1  0
 11 16  1  0
 15 16  1  0
  7 18  1  0
 17 18  1  0
  8 19  1  0
 18 19  2  0
 19 20  1  0
  3 21  1  0
 17 21  1  0
 20 21  2  0
 22 23  2  0
 23 24  1  0
 24 25  2  0
 25 26  1  0
 10 27  1  0
 22 27  1  0
 26 27  2  0
M  END
