x1351-x1336
     RDKit          3D

 27 30  0  0  0  0  0  0  0  0999 V2000
    6.1970   -4.9060   29.1280 C   0  0  0  0  0  0  0  0  0  0  0  0
    8.2930   -0.9410   25.9830 O   0  0  0  0  0  0  0  0  0  0  0  0
    6.1550   -1.3220   25.8070 C   0  0  0  0  0  0  0  0  0  0  0  0
    5.3730   -4.2280   19.6510 O   0  0  0  0  0  0  0  0  0  0  0  0
    9.7440   -4.2090   24.6730 C   0  0  0  0  0  0  0  0  0  0  0  0
    5.9730   -3.1710   19.9270 C   0  0  0  0  0  0  0  0  0  0  0  0
    6.0820   -2.1910   18.9120 C   0  0  0  0  0  0  0  0  0  0  0  0
    7.6170   -2.0140   25.2890 S   0  0  0  0  0  0  0  0  0  0  0  0
    5.0230   -2.1700   25.4830 N   0  0  0  0  0  0  0  0  0  0  0  0
    7.1730   -4.8360   28.0210 C   0  0  0  0  0  0  0  0  0  0  0  0
    7.3090   -3.8160   27.0590 C   0  0  0  0  0  0  0  0  0  0  0  0
    7.8970   -3.4580   26.1280 C   0  0  0  0  0  0  0  0  0  0  0  0
    8.8450   -4.4010   25.8270 C   0  0  0  0  0  0  0  0  0  0  0  0
    8.9690   -5.5770   26.6440 C   0  0  0  0  0  0  0  0  0  0  0  0
    8.1120   -5.8000   27.7730 C   0  0  0  0  0  0  0  0  0  0  0  0
    6.5600   -2.9370   21.1750 N   0  0  0  0  0  0  0  0  0  0  0  0
    6.6760   -3.9920   22.1510 C   0  0  0  0  0  0  0  0  0  0  0  0
    6.3550   -3.4450   23.3850 C   0  0  0  0  0  0  0  0  0  0  0  0
    7.1350   -2.2770   23.7060 N   0  0  0  0  0  0  0  0  0  0  0  0
    8.1550   -2.0290   22.6860 C   0  0  0  0  0  0  0  0  0  0  0  0
    7.5270   -1.8730   21.3140 C   0  0  0  0  0  0  0  0  0  0  0  0
    6.3120   -0.6480   28.5360 C   0  0  0  0  0  0  0  0  0  0  0  0
    6.1620    0.6560   28.9920 C   0  0  0  0  0  0  0  0  0  0  0  0
    5.9040    1.7630   28.0310 C   0  0  0  0  0  0  0  0  0  0  0  0
    5.8070    1.4470   26.5060 C   0  0  0  0  0  0  0  0  0  0  0  0
    5.9660    0.1360   26.1200 C   0  0  0  0  0  0  0  0  0  0  0  0
    6.2180   -0.8820   27.1730 C   0  0  0  0  0  0  0  0  0  0  0  0
  4  6  2  0
  6  7  1  0
  2  8  2  0
  3  8  1  0
  3  9  1  0
  1 10  1  0
 10 11  2  0
  8 12  1  0
 11 12  1  0
  5 13  1  0
 12 13  2  0
 13 14  1  0
 10 15  1  0
 14 15  2  0
  6 16  1  0
 16 17  1  0
 17 18  1  0
  8 19  1  0
 18 19  1  0
 19 20  1  0
 16 21  1  0
 20 21  1  0
 22 23  2  0
 23 24  1  0
 24 25  2  0
  3 26  1  0
 25 26  1  0
  3 27  1  0
 22 27  1  0
 26 27  2  0
M  END
