x1358-x1382
     RDKit          3D

 31 35  0  0  0  0  0  0  0  0999 V2000
    6.9120   -2.7480   26.2090 N   0  0  0  0  0  0  0  0  0  0  0  0
    5.4450   -0.4270   25.3910 O   0  0  0  0  0  0  0  0  0  0  0  0
    4.7950   -3.6730   25.8270 O   0  0  0  0  0  0  0  0  0  0  0  0
    5.2760   -4.3110   19.7600 O   0  0  0  0  0  0  0  0  0  0  0  0
    5.9440   -3.4210   25.4890 C   0  0  0  0  0  0  0  0  0  0  0  0
    6.3560   -3.8810   20.2200 C   0  0  0  0  0  0  0  0  0  0  0  0
    7.3860   -3.1160   19.4200 C   0  0  0  0  0  0  0  0  0  0  0  0
   13.3860   -1.9740   21.0680 Cl  0  0  0  0  0  0  0  0  0  0  0  0
    7.6460   -1.5820   23.7650 C   0  0  0  0  0  0  0  0  0  0  0  0
    8.7840   -2.0850   22.9760 C   0  0  1  0  0  0  0  0  0  0  0  0
    8.0930   -2.5830   21.7450 N   0  0  0  0  0  0  0  0  0  0  0  0
    7.9180   -2.0000   20.4200 C   0  0  0  0  0  0  0  0  0  0  0  0
    8.0850   -0.8120   20.1590 O   0  0  0  0  0  0  0  0  0  0  0  0
    6.0930   -0.4450   26.6030 C   0  0  0  0  0  0  0  0  0  0  0  0
    6.8320   -1.5590   27.0600 C   0  0  0  0  0  0  0  0  0  0  0  0
    7.4910   -1.6030   28.2610 C   0  0  0  0  0  0  0  0  0  0  0  0
    7.3980   -0.4760   29.0410 C   0  0  0  0  0  0  0  0  0  0  0  0
    6.6940    0.5860   28.6110 C   0  0  0  0  0  0  0  0  0  0  0  0
    5.9980    0.6880   27.3830 C   0  0  0  0  0  0  0  0  0  0  0  0
    6.6370   -4.0880   21.5660 N   0  0  0  0  0  0  0  0  0  0  0  0
    6.7620   -2.8960   22.1190 C   0  0  1  0  0  0  0  0  0  0  0  0
    6.5200   -2.5390   23.4760 C   0  0  1  0  0  0  0  0  0  0  0  0
    6.4860   -3.8310   24.1290 C   0  0  2  0  0  0  0  0  0  0  0  0
    5.5980   -4.7530   23.5490 C   0  0  0  0  0  0  0  0  0  0  0  0
    6.0100   -5.0530   22.2400 C   0  0  0  0  0  0  0  0  0  0  0  0
   10.1000   -1.3460   22.9230 C   0  0  0  0  0  0  0  0  0  0  0  0
   11.0900   -1.8110   22.1630 C   0  0  0  0  0  0  0  0  0  0  0  0
   12.3020   -1.2190   22.0890 C   0  0  0  0  0  0  0  0  0  0  0  0
   12.5820   -0.0760   22.8100 C   0  0  0  0  0  0  0  0  0  0  0  0
   11.5940    0.4680   23.6170 C   0  0  0  0  0  0  0  0  0  0  0  0
   10.3470   -0.1700   23.6750 C   0  0  0  0  0  0  0  0  0  0  0  0
  1  5  1  0
  3  5  2  0
  4  6  2  0
  6  7  1  0
  9 10  1  0
 10 11  1  0
  7 12  1  0
 11 12  1  0
 12 13  2  0
  2 14  1  0
  1 15  1  0
 14 15  2  0
 15 16  1  0
 16 17  2  0
 17 18  1  0
 14 19  1  0
 18 19  2  0
  6 20  1  0
 21 11  1  1
 20 21  1  0
 22  9  1  1
 21 22  1  0
 23  5  1  1
 22 23  1  0
 23 24  1  0
 20 25  1  0
 24 25  1  0
 10 26  1  6
 26 27  2  0
  8 28  1  0
 27 28  1  0
 28 29  2  0
 29 30  1  0
 26 31  1  0
 30 31  2  0
M  END
