x1351-x2910
     RDKit          3D

 42 46  0  0  0  0  0  0  0  0999 V2000
    7.0990   -1.6790   21.3120 N   0  0  0  0  0  0  0  0  0  0  0  0
   10.4640    2.7160   23.4620 C   0  0  0  0  0  0  0  0  0  0  0  0
   10.0980    1.3500   23.6720 O   0  0  0  0  0  0  0  0  0  0  0  0
    9.3890   -1.2630   22.5980 O   0  0  0  0  0  0  0  0  0  0  0  0
    5.0310   -2.5520   20.9370 O   0  0  0  0  0  0  0  0  0  0  0  0
    6.2970    1.2270   16.9340 O   0  0  0  0  0  0  0  0  0  0  0  0
    9.0970   -2.6080   22.1870 C   0  0  0  0  0  0  0  0  0  0  0  0
    5.8410   -1.6490   20.7870 C   0  0  0  0  0  0  0  0  0  0  0  0
    7.2760   -3.2430   19.1930 C   0  0  0  0  0  0  0  0  0  0  0  0
    5.4020   -4.5400   19.9120 O   0  0  0  0  0  0  0  0  0  0  0  0
    6.4650   -3.9300   20.2180 C   0  0  0  0  0  0  0  0  0  0  0  0
    5.9920   -3.0080   25.4000 N   0  0  0  0  0  0  0  0  0  0  0  0
    7.8640   -2.9070   26.8440 O   0  0  0  0  0  0  0  0  0  0  0  0
    6.8330   -2.3800   26.4330 C   0  0  0  0  0  0  0  0  0  0  0  0
   11.0360    0.5010   23.1440 C   0  0  0  0  0  0  0  0  0  0  0  0
   10.6650   -0.7550   22.6330 C   0  0  0  0  0  0  0  0  0  0  0  0
   11.6320   -1.5730   22.1160 C   0  0  0  0  0  0  0  0  0  0  0  0
   12.9410   -1.1530   22.1010 C   0  0  0  0  0  0  0  0  0  0  0  0
   13.2830    0.0530   22.5880 C   0  0  0  0  0  0  0  0  0  0  0  0
   12.3380    0.9230   23.1300 C   0  0  0  0  0  0  0  0  0  0  0  0
    4.7770    1.7730   18.4390 N   0  0  0  0  0  0  0  0  0  0  0  0
    4.1310    1.5590   19.5800 C   0  0  0  0  0  0  0  0  0  0  0  0
    4.3930    0.4420   20.4840 C   0  0  0  0  0  0  0  0  0  0  0  0
    5.4450   -0.4570   20.0160 C   0  0  0  0  0  0  0  0  0  0  0  0
    6.1050   -0.2140   18.8180 C   0  0  0  0  0  0  0  0  0  0  0  0
    5.7190    0.9100   18.0940 C   0  0  0  0  0  0  0  0  0  0  0  0
    3.1350    2.4670   19.9380 C   0  0  0  0  0  0  0  0  0  0  0  0
    2.4340    2.3070   21.1020 C   0  0  0  0  0  0  0  0  0  0  0  0
    2.6690    1.2530   21.9850 C   0  0  0  0  0  0  0  0  0  0  0  0
    3.6480    0.3260   21.6700 C   0  0  0  0  0  0  0  0  0  0  0  0
    6.9740   -3.9190   21.5300 N   0  0  0  0  0  0  0  0  0  0  0  0
    7.5240   -2.8000   22.1610 C   0  0  2  0  0  0  0  0  0  0  0  0
    7.1930   -2.5190   23.4760 C   0  0  0  0  0  0  0  0  0  0  0  0
    6.6550   -3.5600   24.2270 C   0  0  2  0  0  0  0  0  0  0  0  0
    5.8570   -4.4560   23.5280 C   0  0  0  0  0  0  0  0  0  0  0  0
    6.3640   -4.8660   22.2980 C   0  0  0  0  0  0  0  0  0  0  0  0
    7.0400   -0.6680   28.1910 C   0  0  0  0  0  0  0  0  0  0  0  0
    6.7430    0.5430   28.8160 C   0  0  0  0  0  0  0  0  0  0  0  0
    5.7220    1.4850   28.1930 C   0  0  0  0  0  0  0  0  0  0  0  0
    5.0430    1.0780   26.8860 C   0  0  0  0  0  0  0  0  0  0  0  0
    5.3820   -0.1460   26.3090 C   0  0  0  0  0  0  0  0  0  0  0  0
    6.4220   -1.0590   26.9880 C   0  0  0  0  0  0  0  0  0  0  0  0
  2  3  1  0
  4  7  1  0
  1  8  1  0
  5  8  2  0
  9 11  1  0
 10 11  2  0
 12 14  1  0
 13 14  2  0
  3 15  1  0
  4 16  1  0
 15 16  2  0
 16 17  1  0
 17 18  2  0
 18 19  1  0
 15 20  1  0
 19 20  2  0
 21 22  2  0
 22 23  1  0
  8 24  1  0
 23 24  2  0
 24 25  1  0
  6 26  1  0
 21 26  1  0
 25 26  2  0
 22 27  1  0
 27 28  2  0
 28 29  1  0
 23 30  1  0
 29 30  2  0
 11 31  1  0
 32  1  1  0
 32  7  1  1
 31 32  1  0
 32 33  1  0
 34 12  1  1
 33 34  1  0
 34 35  1  0
 31 36  1  0
 35 36  1  0
 37 38  2  0
 38 39  1  0
 39 40  2  0
 40 41  1  0
 14 42  1  0
 37 42  1  0
 41 42  2  0
M  END
