x1358-x0161
     RDKit          3D

 37 39  0  0  0  0  0  0  0  0999 V2000
    6.9940   -2.1080   25.6400 N   0  0  0  0  0  0  0  0  0  0  0  0
    5.3350    0.0850   25.4220 O   0  0  0  0  0  0  0  0  0  0  0  0
    4.9200   -3.1870   25.5360 O   0  0  0  0  0  0  0  0  0  0  0  0
    5.2010   -4.1540   19.6840 O   0  0  0  0  0  0  0  0  0  0  0  0
    6.0590   -3.0050   25.1120 C   0  0  0  0  0  0  0  0  0  0  0  0
    6.3270   -3.7910   20.0730 C   0  0  0  0  0  0  0  0  0  0  0  0
    7.3220   -3.1740   19.1430 C   0  0  0  0  0  0  0  0  0  0  0  0
   13.4950   -2.3260   24.2360 C   0  0  0  0  0  0  0  0  0  0  0  0
   12.6470   -1.2470   24.1340 N   0  0  0  0  0  0  0  0  0  0  0  0
   12.9360   -0.1860   23.2840 C   0  0  0  0  0  0  0  0  0  0  0  0
   13.7440   -0.2820   22.3870 O   0  0  0  0  0  0  0  0  0  0  0  0
   10.2360    5.2390   23.6940 S   0  0  0  0  0  0  0  0  0  0  0  0
   11.1330    6.2110   23.0970 O   0  0  0  0  0  0  0  0  0  0  0  0
    9.7010    5.4550   25.0190 O   0  0  0  0  0  0  0  0  0  0  0  0
    8.9050    5.0910   22.6750 N   0  0  0  0  0  0  0  0  0  0  0  0
    8.0400   -1.4500   24.8620 C   0  0  0  0  0  0  0  0  0  0  0  0
    9.4070   -1.8650   25.3570 C   0  0  0  0  0  0  0  0  0  0  0  0
   10.4240   -1.0870   24.8590 C   0  0  0  0  0  0  0  0  0  0  0  0
   11.2770   -1.6810   23.9660 C   0  0  0  0  0  0  0  0  0  0  0  0
    5.9670   -0.2040   26.6020 C   0  0  0  0  0  0  0  0  0  0  0  0
    6.7800   -1.2530   26.7890 C   0  0  0  0  0  0  0  0  0  0  0  0
    7.4270   -1.5640   27.9800 C   0  0  0  0  0  0  0  0  0  0  0  0
    7.2480   -0.7480   29.0870 C   0  0  0  0  0  0  0  0  0  0  0  0
    6.3700    0.4480   29.0000 C   0  0  0  0  0  0  0  0  0  0  0  0
    5.7390    0.6630   27.6720 C   0  0  0  0  0  0  0  0  0  0  0  0
    6.6760   -4.0130   21.4030 N   0  0  0  0  0  0  0  0  0  0  0  0
    7.6840   -3.3140   21.9650 C   0  0  0  0  0  0  0  0  0  0  0  0
    7.4120   -3.0380   23.3180 C   0  0  0  0  0  0  0  0  0  0  0  0
    6.4240   -3.8550   23.9300 C   0  0  0  0  0  0  0  0  0  0  0  0
    6.7020   -5.0600   23.3320 C   0  0  0  0  0  0  0  0  0  0  0  0
    6.4040   -5.1790   21.9970 C   0  0  0  0  0  0  0  0  0  0  0  0
   12.2060    1.1550   23.4080 C   0  0  0  0  0  0  0  0  0  0  0  0
   12.8310    2.2880   22.9510 C   0  0  0  0  0  0  0  0  0  0  0  0
   12.2510    3.5370   23.0210 C   0  0  0  0  0  0  0  0  0  0  0  0
   10.9840    3.7140   23.5730 C   0  0  0  0  0  0  0  0  0  0  0  0
   10.3090    2.5720   24.0520 C   0  0  0  0  0  0  0  0  0  0  0  0
   10.9260    1.3050   23.9640 C   0  0  0  0  0  0  0  0  0  0  0  0
  1  5  1  0
  3  5  2  0
  4  6  2  0
  6  7  1  0
  8  9  1  0
  9 10  1  0
 10 11  2  0
 12 13  2  0
 12 14  2  0
 12 15  1  0
  1 16  1  0
 16 17  1  0
 17 18  1  0
  9 19  1  0
 18 19  1  0
  2 20  1  0
  1 21  1  0
 20 21  2  0
 21 22  1  0
 22 23  2  0
 23 24  1  0
 20 25  1  0
 24 25  2  0
  6 26  1  0
 26 27  1  0
 27 28  1  0
  5 29  1  0
 28 29  1  0
 29 30  1  0
 26 31  1  0
 30 31  1  0
 10 32  1  0
 32 33  2  0
 33 34  1  0
 12 35  1  0
 34 35  2  0
 35 36  1  0
 32 37  1  0
 36 37  2  0
M  END
