x1358-x2097
     RDKit          3D

 19 20  0  0  0  0  0  0  0  0999 V2000
    6.9260   -2.6650   26.1500 N   0  0  0  0  0  0  0  0  0  0  0  0
    5.3300   -0.1710   25.4060 O   0  0  0  0  0  0  0  0  0  0  0  0
    4.9590   -3.5820   25.3560 O   0  0  0  0  0  0  0  0  0  0  0  0
    5.2680   -4.1190   19.6830 O   0  0  0  0  0  0  0  0  0  0  0  0
    6.1580   -3.3500   25.2420 C   0  0  0  0  0  0  0  0  0  0  0  0
    6.4410   -3.8130   19.9910 C   0  0  0  0  0  0  0  0  0  0  0  0
    7.3640   -3.1490   19.0340 C   0  0  0  0  0  0  0  0  0  0  0  0
    6.0470   -0.2490   26.6410 C   0  0  0  0  0  0  0  0  0  0  0  0
    6.7930   -1.5130   26.9020 C   0  0  0  0  0  0  0  0  0  0  0  0
    7.5480   -1.5430   28.2460 C   0  0  0  0  0  0  0  0  0  0  0  0
    7.4810   -0.3390   29.1680 C   0  0  0  0  0  0  0  0  0  0  0  0
    6.7210    0.7410   28.7260 C   0  0  0  0  0  0  0  0  0  0  0  0
    6.0340    0.8130   27.5410 C   0  0  0  0  0  0  0  0  0  0  0  0
    6.9350   -4.1220   21.2390 N   0  0  0  0  0  0  0  0  0  0  0  0
    7.8510   -3.2660   21.9850 C   0  0  0  0  0  0  0  0  0  0  0  0
    7.3020   -2.9370   23.1600 C   0  0  0  0  0  0  0  0  0  0  0  0
    6.6860   -3.9090   23.9640 C   0  0  0  0  0  0  0  0  0  0  0  0
    5.6640   -4.5050   23.2100 C   0  0  0  0  0  0  0  0  0  0  0  0
    6.2120   -5.1420   21.9990 C   0  0  0  0  0  0  0  0  0  0  0  0
  1  5  1  0
  3  5  2  0
  4  6  2  0
  6  7  1  0
  2  8  1  0
  1  9  1  0
  8  9  2  0
  9 10  1  0
 10 11  2  0
 11 12  1  0
  8 13  1  0
 12 13  2  0
  6 14  1  0
 14 15  1  0
 15 16  1  0
  5 17  1  0
 16 17  1  0
 17 18  1  0
 14 19  1  0
 18 19  1  0
M  END
