x1358-x0755
     RDKit          3D

 29 31  0  0  0  0  0  0  0  0999 V2000
    4.3520   -6.5580   26.0740 O   0  0  0  0  0  0  0  0  0  0  0  0
    6.1320   -4.9320   26.7320 O   0  0  0  0  0  0  0  0  0  0  0  0
    5.5660   -4.5900   19.9590 O   0  0  0  0  0  0  0  0  0  0  0  0
    6.5670   -4.5950   20.6940 C   0  0  0  0  0  0  0  0  0  0  0  0
    7.8020   -3.6980   20.3880 C   0  0  0  0  0  0  0  0  0  0  0  0
    2.0840   -5.5340   25.6370 F   0  0  0  0  0  0  0  0  0  0  0  0
    5.6870   -2.2460   26.1180 C   0  0  0  0  0  0  0  0  0  0  0  0
    5.0380   -5.3010   25.8600 S   0  0  0  0  0  0  0  0  0  0  0  0
    8.0450   -2.5700   25.3470 N   0  0  0  0  0  0  0  0  0  0  0  0
    5.1540    0.5370   25.6590 O   0  0  0  0  0  0  0  0  0  0  0  0
    6.6080   -2.8170   25.3590 C   0  0  0  0  0  0  0  0  0  0  0  0
    2.5210   -4.2730   25.7560 C   0  0  0  0  0  0  0  0  0  0  0  0
    3.8690   -3.9570   25.8690 C   0  0  0  0  0  0  0  0  0  0  0  0
    4.2500   -2.6320   25.9920 C   0  0  0  0  0  0  0  0  0  0  0  0
    3.2890   -1.6290   26.0030 C   0  0  0  0  0  0  0  0  0  0  0  0
    1.9470   -1.9450   25.8930 C   0  0  0  0  0  0  0  0  0  0  0  0
    1.5550   -3.2750   25.7660 C   0  0  0  0  0  0  0  0  0  0  0  0
    6.6260   -5.4190   21.8180 N   0  0  0  0  0  0  0  0  0  0  0  0
    7.5390   -5.2290   22.7890 C   0  0  0  0  0  0  0  0  0  0  0  0
    6.9220   -4.6610   23.9170 C   0  0  0  0  0  0  0  0  0  0  0  0
    5.6730   -5.4220   24.2710 N   0  0  0  0  0  0  0  0  0  0  0  0
    4.7190   -5.6980   23.1620 C   0  0  0  0  0  0  0  0  0  0  0  0
    5.5330   -6.2340   22.1650 C   0  0  0  0  0  0  0  0  0  0  0  0
    5.8920    0.2300   26.7640 C   0  0  0  0  0  0  0  0  0  0  0  0
    6.2080   -1.2330   27.0520 C   0  0  0  0  0  0  0  0  0  0  0  0
    6.9360   -1.6330   28.1150 C   0  0  0  0  0  0  0  0  0  0  0  0
    7.4190   -0.4800   29.0300 C   0  0  0  0  0  0  0  0  0  0  0  0
    7.0720    0.9450   28.7020 C   0  0  0  0  0  0  0  0  0  0  0  0
    6.3400    1.2450   27.6080 C   0  0  0  0  0  0  0  0  0  0  0  0
  3  4  2  0
  4  5  1  0
  1  8  2  0
  2  8  2  0
  7 11  2  3
  9 11  1  0
  6 12  1  0
  8 13  1  0
 12 13  2  0
  7 14  1  0
 13 14  1  0
 14 15  2  0
 15 16  1  0
 12 17  1  0
 16 17  2  0
  4 18  1  0
 18 19  1  0
 19 20  1  0
  8 21  1  0
 20 21  1  0
 21 22  1  0
 18 23  1  0
 22 23  1  0
 10 24  1  0
  7 25  1  0
 24 25  2  0
 25 26  1  0
 26 27  2  0
 27 28  1  0
 24 29  1  0
 28 29  2  0
M  END
