x1375-x1012
     RDKit          3D

 18 19  0  0  0  0  0  0  0  0999 V2000
    5.4890   -4.6130   20.1470 O   0  0  0  0  0  0  0  0  0  0  0  0
    6.1570   -4.0360   21.0280 C   0  0  0  0  0  0  0  0  0  0  0  0
    7.2360   -3.0620   20.6100 C   0  0  0  0  0  0  0  0  0  0  0  0
    5.9850   -4.2010   22.4840 N   0  0  0  0  0  0  0  0  0  0  0  0
    2.1970   -6.8580   24.0620 O   0  0  0  0  0  0  0  0  0  0  0  0
    4.4900   -7.8620   24.3440 O   0  0  0  0  0  0  0  0  0  0  0  0
   10.5550   -5.1230   25.5430 F   0  0  0  0  0  0  0  0  0  0  0  0
    7.8210   -3.0230   23.8700 C   0  0  0  0  0  0  0  0  0  0  0  0
    9.0830   -3.3700   24.7140 C   0  0  0  0  0  0  0  0  0  0  0  0
    9.5320   -4.7330   24.8480 C   0  0  0  0  0  0  0  0  0  0  0  0
    8.8050   -5.6780   24.1840 C   0  0  0  0  0  0  0  0  0  0  0  0
    7.7330   -5.0960   23.5190 C   0  0  0  0  0  0  0  0  0  0  0  0
    7.1820   -4.1130   23.2810 C   0  0  0  0  0  0  0  0  0  0  0  0
    4.9950   -4.7360   24.4920 C   0  0  0  0  0  0  0  0  0  0  0  0
    5.2630   -5.2990   23.2340 C   0  0  1  0  0  0  0  0  0  0  0  0
    4.2070   -5.9300   22.6280 C   0  0  0  0  0  0  0  0  0  0  0  0
    3.6380   -6.7400   24.0990 S   0  0  0  0  0  0  0  0  0  0  0  0
    4.0760   -5.4110   25.1880 C   0  0  0  0  0  0  0  0  0  0  0  0
  1  2  2  0
  2  3  1  0
  2  4  1  0
  8  9  2  0
  7 10  1  0
  9 10  1  0
 10 11  2  0
 11 12  1  0
  4 13  1  0
  8 13  1  0
 12 13  2  0
 15  4  1  6
 14 15  1  0
 15 16  1  0
 17  5  1  0
  6 17  1  0
 16 17  1  0
 14 18  2  0
 17 18  1  0
M  END
