x1375-x0161
     RDKit          3D

 34 36  0  0  0  0  0  0  0  0999 V2000
    5.7920   -4.5320   19.9720 O   0  0  0  0  0  0  0  0  0  0  0  0
    6.6900   -4.2970   20.8560 C   0  0  0  0  0  0  0  0  0  0  0  0
    8.1280   -3.8930   20.6180 C   0  0  0  0  0  0  0  0  0  0  0  0
    6.3810   -4.3980   22.2510 N   0  0  0  0  0  0  0  0  0  0  0  0
    2.1730   -6.6090   23.4650 O   0  0  0  0  0  0  0  0  0  0  0  0
    4.2730   -7.9810   24.9410 O   0  0  0  0  0  0  0  0  0  0  0  0
   10.7280   -4.6070   25.5810 O   0  0  0  0  0  0  0  0  0  0  0  0
   13.2600   -2.3550   24.3590 C   0  0  0  0  0  0  0  0  0  0  0  0
   13.1390   -0.9300   24.4580 O   0  0  0  0  0  0  0  0  0  0  0  0
   13.0330   -0.2840   23.2750 C   0  0  0  0  0  0  0  0  0  0  0  0
   13.4940   -0.6850   22.2250 O   0  0  0  0  0  0  0  0  0  0  0  0
   10.2090    5.1670   23.6660 S   0  0  0  0  0  0  0  0  0  0  0  0
   11.1980    6.2000   23.0810 O   0  0  0  0  0  0  0  0  0  0  0  0
    9.6990    5.3490   24.9980 O   0  0  0  0  0  0  0  0  0  0  0  0
    8.8720    5.2380   22.6560 N   0  0  0  0  0  0  0  0  0  0  0  0
   11.4660   -3.6210   25.6230 C   0  0  0  0  0  0  0  0  0  0  0  0
   11.8470   -2.9550   24.3060 C   0  0  0  0  0  0  0  0  0  0  0  0
    8.0340   -3.3170   23.7240 C   0  0  0  0  0  0  0  0  0  0  0  0
    9.1420   -3.4540   24.5570 C   0  0  0  0  0  0  0  0  0  0  0  0
    9.7650   -4.6340   24.8450 C   0  0  0  0  0  0  0  0  0  0  0  0
    9.1970   -5.7330   24.2370 C   0  0  0  0  0  0  0  0  0  0  0  0
    8.1260   -5.6290   23.4260 C   0  0  0  0  0  0  0  0  0  0  0  0
    7.4850   -4.4160   23.1180 C   0  0  0  0  0  0  0  0  0  0  0  0
    4.9860   -4.4070   24.1200 C   0  0  0  0  0  0  0  0  0  0  0  0
    5.0670   -4.8130   22.6990 C   0  0  2  0  0  0  0  0  0  0  0  0
    5.0080   -6.2850   22.6670 C   0  0  0  0  0  0  0  0  0  0  0  0
    3.6040   -6.5290   23.8790 S   0  0  0  0  0  0  0  0  0  0  0  0
    4.2990   -5.1050   24.9420 C   0  0  0  0  0  0  0  0  0  0  0  0
   12.2790    1.0180   23.3990 C   0  0  0  0  0  0  0  0  0  0  0  0
   12.8220    2.2190   22.9490 C   0  0  0  0  0  0  0  0  0  0  0  0
   12.2390    3.4470   23.0060 C   0  0  0  0  0  0  0  0  0  0  0  0
   10.9830    3.5930   23.5610 C   0  0  0  0  0  0  0  0  0  0  0  0
   10.4060    2.4040   24.0220 C   0  0  0  0  0  0  0  0  0  0  0  0
   11.0300    1.1460   23.9470 C   0  0  0  0  0  0  0  0  0  0  0  0
  1  2  2  0
  2  3  1  0
  2  4  1  0
  8  9  1  0
  9 10  1  0
 10 11  2  0
 12 13  2  0
 12 14  2  0
 12 15  1  0
  7 16  1  0
  8 17  1  0
 16 17  1  0
 18 19  2  0
  7 20  1  0
 19 20  1  0
 20 21  2  0
 21 22  1  0
  4 23  1  0
 18 23  1  0
 22 23  2  0
 25  4  1  1
 24 25  1  0
 25 26  1  0
 27  5  1  0
  6 27  1  0
 26 27  1  0
 24 28  2  0
 27 28  1  0
 10 29  1  0
 29 30  2  0
 30 31  1  0
 12 32  1  0
 31 32  2  0
 32 33  1  0
 29 34  1  0
 33 34  2  0
M  END
