x1375-x2908
     RDKit          3D

 38 41  0  0  0  0  0  0  0  0999 V2000
    5.7650   -4.7980   20.0750 O   0  0  0  0  0  0  0  0  0  0  0  0
    6.6380   -4.4970   20.9890 C   0  0  0  0  0  0  0  0  0  0  0  0
    8.0360   -3.9860   20.7610 C   0  0  0  0  0  0  0  0  0  0  0  0
    6.3840   -4.5810   22.4290 N   0  0  0  0  0  0  0  0  0  0  0  0
    2.1040   -6.7720   24.1420 O   0  0  0  0  0  0  0  0  0  0  0  0
    4.4420   -7.9890   24.3500 O   0  0  0  0  0  0  0  0  0  0  0  0
   10.7530   -4.3730   25.8800 F   0  0  0  0  0  0  0  0  0  0  0  0
    4.7080    1.3310   21.4760 C   0  0  0  0  0  0  0  0  0  0  0  0
    8.6810    1.2470   21.1150 O   0  0  0  0  0  0  0  0  0  0  0  0
   13.3010   -1.9150   21.2700 Cl  0  0  0  0  0  0  0  0  0  0  0  0
    7.0110   -0.3560   20.9370 N   0  0  0  0  0  0  0  0  0  0  0  0
    8.7290   -0.5330   22.5090 N   0  0  0  0  0  0  0  0  0  0  0  0
    8.1550    0.1810   21.4900 C   0  0  0  0  0  0  0  0  0  0  0  0
    8.1070   -2.5190   21.2050 C   0  0  0  0  0  0  0  0  0  0  0  0
    6.7870   -1.7720   21.0610 C   0  0  0  0  0  0  0  0  0  0  0  0
    7.9430   -3.2510   23.8380 C   0  0  0  0  0  0  0  0  0  0  0  0
    9.0390   -3.2500   24.7030 C   0  0  0  0  0  0  0  0  0  0  0  0
    9.7090   -4.3940   25.0440 C   0  0  0  0  0  0  0  0  0  0  0  0
    9.2640   -5.5810   24.4910 C   0  0  0  0  0  0  0  0  0  0  0  0
    8.2000   -5.5740   23.6490 C   0  0  0  0  0  0  0  0  0  0  0  0
    7.4890   -4.4080   23.2900 C   0  0  0  0  0  0  0  0  0  0  0  0
    5.2680   -4.9090   24.4290 C   0  0  0  0  0  0  0  0  0  0  0  0
    5.5670   -5.5640   23.1210 C   0  0  1  0  0  0  0  0  0  0  0  0
    4.2530   -5.9140   22.6320 C   0  0  0  0  0  0  0  0  0  0  0  0
    3.6860   -6.6260   24.1460 S   0  0  0  0  0  0  0  0  0  0  0  0
    4.2870   -5.3990   25.0710 C   0  0  0  0  0  0  0  0  0  0  0  0
    6.3080    0.6640   17.5360 N   0  0  0  0  0  0  0  0  0  0  0  0
    6.8390    0.0930   18.6130 C   0  0  0  0  0  0  0  0  0  0  0  0
    6.3500    0.2920   19.8900 C   0  0  0  0  0  0  0  0  0  0  0  0
    5.2680    1.0970   20.1040 C   0  0  0  0  0  0  0  0  0  0  0  0
    4.6240    1.7490   19.0680 C   0  0  0  0  0  0  0  0  0  0  0  0
    5.1540    1.5250   17.8250 C   0  0  0  0  0  0  0  0  0  0  0  0
   10.5540    0.5050   23.7620 C   0  0  0  0  0  0  0  0  0  0  0  0
   11.9330    0.6060   23.9360 C   0  0  0  0  0  0  0  0  0  0  0  0
   12.8180   -0.1380   23.1830 C   0  0  0  0  0  0  0  0  0  0  0  0
   12.3020   -0.9960   22.2420 C   0  0  0  0  0  0  0  0  0  0  0  0
   10.9510   -1.1050   22.0660 C   0  0  0  0  0  0  0  0  0  0  0  0
   10.0690   -0.3660   22.8030 C   0  0  0  0  0  0  0  0  0  0  0  0
  1  2  2  0
  2  3  1  0
  2  4  1  0
  9 13  2  0
 11 13  1  0
 12 13  1  0
  3 14  1  0
 11 15  1  0
 14 15  1  0
 16 17  2  0
  7 18  1  0
 17 18  1  0
 18 19  2  0
 19 20  1  0
  4 21  1  0
 16 21  1  0
 20 21  2  0
 23  4  1  6
 22 23  1  0
 23 24  1  0
 25  5  1  0
  6 25  1  0
 24 25  1  0
 22 26  2  0
 25 26  1  0
 27 28  2  0
 11 29  1  0
 28 29  1  0
  8 30  1  0
 29 30  2  0
 30 31  1  0
 27 32  1  0
 31 32  2  0
 33 34  2  0
 34 35  1  0
 10 36  1  0
 35 36  2  0
 36 37  1  0
 12 38  1  0
 33 38  1  0
 37 38  2  0
M  END
