x1375-x1311
     RDKit          3D

 18 19  0  0  0  0  0  0  0  0999 V2000
    5.6930   -4.5580   19.9700 O   0  0  0  0  0  0  0  0  0  0  0  0
    6.5470   -4.2620   20.8250 C   0  0  0  0  0  0  0  0  0  0  0  0
    8.0290   -3.8940   20.5940 C   0  0  0  0  0  0  0  0  0  0  0  0
    6.2290   -4.2190   22.2070 N   0  0  0  0  0  0  0  0  0  0  0  0
    2.3530   -6.8640   23.7260 O   0  0  0  0  0  0  0  0  0  0  0  0
    4.4200   -7.8140   24.9980 O   0  0  0  0  0  0  0  0  0  0  0  0
   10.2150   -5.3220   25.9150 F   0  0  0  0  0  0  0  0  0  0  0  0
    7.5710   -3.4210   24.0440 C   0  0  0  0  0  0  0  0  0  0  0  0
    8.5510   -3.6640   24.9780 C   0  0  0  0  0  0  0  0  0  0  0  0
    9.2990   -5.0060   25.0520 C   0  0  0  0  0  0  0  0  0  0  0  0
    8.8830   -5.9800   24.0140 C   0  0  0  0  0  0  0  0  0  0  0  0
    7.8880   -5.6620   23.1160 C   0  0  0  0  0  0  0  0  0  0  0  0
    7.2470   -4.4310   23.1340 C   0  0  0  0  0  0  0  0  0  0  0  0
    4.6610   -4.2730   24.0910 C   0  0  0  0  0  0  0  0  0  0  0  0
    4.9550   -4.8080   22.6910 C   0  0  2  0  0  0  0  0  0  0  0  0
    4.8850   -6.3370   22.7420 C   0  0  0  0  0  0  0  0  0  0  0  0
    3.8620   -6.5950   24.1670 S   0  0  0  0  0  0  0  0  0  0  0  0
    4.0840   -5.1270   24.9550 C   0  0  0  0  0  0  0  0  0  0  0  0
  1  2  2  0
  2  3  1  0
  2  4  1  0
  8  9  2  0
  7 10  1  0
  9 10  1  0
 10 11  2  0
 11 12  1  0
  4 13  1  0
  8 13  1  0
 12 13  2  0
 15  4  1  1
 14 15  1  0
 15 16  1  0
 17  5  1  0
  6 17  1  0
 16 17  1  0
 14 18  2  0
 17 18  1  0
M  END
