x1374-x2705-x1311-x2572
     RDKit          3D

 51 55  0  0  0  0  0  0  0  0999 V2000
    7.0030   -1.4160   21.6850 N   0  0  0  0  0  0  0  0  0  0  0  0
    6.6210   -4.7500   20.7310 C   0  0  1  0  0  0  0  0  0  0  0  0
    4.7770   -2.8800   21.1070 O   0  0  0  0  0  0  0  0  0  0  0  0
    6.5180   -3.8980   21.8400 C   0  0  2  0  0  0  0  0  0  0  0  0
    7.5390    1.9990   22.8110 N   0  0  0  0  0  0  0  0  0  0  0  0
    8.7490    1.1790   21.0640 O   0  0  0  0  0  0  0  0  0  0  0  0
    6.0530   -2.6080   21.5260 C   0  0  0  0  0  0  0  0  0  0  0  0
    6.6240    0.0150   21.4730 C   0  0  1  0  0  0  0  0  0  0  0  0
    7.7430    1.0940   21.7770 C   0  0  0  0  0  0  0  0  0  0  0  0
   10.1620    2.1260   23.9430 C   0  0  0  0  0  0  0  0  0  0  0  0
    9.3410    1.3310   24.9520 C   0  0  0  0  0  0  0  0  0  0  0  0
    6.1530    4.5940   21.8570 C   0  0  0  0  0  0  0  0  0  0  0  0
   12.0070   -1.5530   23.3060 C   0  0  0  0  0  0  0  0  0  0  0  0
   12.5240   -0.2370   23.9330 C   0  0  0  0  0  0  0  0  0  0  0  0
   12.4310   -2.7490   24.2030 C   0  0  0  0  0  0  0  0  0  0  0  0
   12.7900   -1.6970   21.9710 C   0  0  0  0  0  0  0  0  0  0  0  0
   10.4330   -4.5560   26.1220 C   0  0  0  0  0  0  0  0  0  0  0  0
    6.7560   -5.9120   21.5810 N   0  0  0  0  0  0  0  0  0  0  0  0
    2.5930   -7.1020   23.2290 O   0  0  0  0  0  0  0  0  0  0  0  0
    4.2410   -7.5930   25.0750 O   0  0  0  0  0  0  0  0  0  0  0  0
    5.4590   -4.7490   19.9490 O   0  0  0  0  0  0  0  0  0  0  0  0
    3.9300    1.3920   21.2840 C   0  0  0  0  0  0  0  0  0  0  0  0
   13.3960   -1.7830   20.9840 N   0  0  0  0  0  0  0  0  0  0  0  0
    6.3170    0.4430   17.8230 N   0  0  0  0  0  0  0  0  0  0  0  0
    5.1450    1.0790   17.7560 C   0  0  0  0  0  0  0  0  0  0  0  0
    4.3420    1.3950   18.8500 C   0  0  0  0  0  0  0  0  0  0  0  0
    4.7910    1.0390   20.1160 C   0  0  0  0  0  0  0  0  0  0  0  0
    5.9880    0.4070   20.1980 C   0  0  0  0  0  0  0  0  0  0  0  0
    6.7140    0.1180   19.0560 C   0  0  0  0  0  0  0  0  0  0  0  0
    9.7480   -0.9830   24.1060 N   0  0  0  0  0  0  0  0  0  0  0  0
    8.4710   -0.9550   23.6750 N   0  0  0  0  0  0  0  0  0  0  0  0
    8.2990   -1.3990   22.3810 C   0  0  0  0  0  0  0  0  0  0  0  0
    9.6260   -1.7400   22.0070 C   0  0  0  0  0  0  0  0  0  0  0  0
   10.4820   -1.4490   23.0940 C   0  0  0  0  0  0  0  0  0  0  0  0
    9.4300    3.3610   23.4770 C   0  0  0  0  0  0  0  0  0  0  0  0
   10.0920    4.5740   23.6240 C   0  0  0  0  0  0  0  0  0  0  0  0
    9.4860    5.7510   23.2110 C   0  0  0  0  0  0  0  0  0  0  0  0
    8.1960    5.7000   22.6400 C   0  0  0  0  0  0  0  0  0  0  0  0
    7.5170    4.4850   22.4870 C   0  0  0  0  0  0  0  0  0  0  0  0
    8.1270    3.3020   22.9080 C   0  0  0  0  0  0  0  0  0  0  0  0
    9.4360   -4.4050   25.0310 C   0  0  0  0  0  0  0  0  0  0  0  0
    8.9040   -3.1400   24.7450 C   0  0  0  0  0  0  0  0  0  0  0  0
    7.9810   -3.0330   23.7160 C   0  0  0  0  0  0  0  0  0  0  0  0
    7.5650   -4.1090   22.9580 C   0  0  0  0  0  0  0  0  0  0  0  0
    8.1110   -5.3840   23.2610 C   0  0  0  0  0  0  0  0  0  0  0  0
    9.0430   -5.5100   24.3060 C   0  0  0  0  0  0  0  0  0  0  0  0
    5.4320   -4.7700   23.5080 C   0  0  0  0  0  0  0  0  0  0  0  0
    6.0730   -5.8940   22.9220 C   0  0  1  0  0  0  0  0  0  0  0  0
    5.2640   -6.9200   22.7100 C   0  0  0  0  0  0  0  0  0  0  0  0
    3.9940   -6.7620   23.9150 S   0  0  0  0  0  0  0  0  0  0  0  0
    4.2650   -5.0270   24.1540 C   0  0  0  0  0  0  0  0  0  0  0  0
  2  4  1  0
  1  7  1  0
  3  7  2  0
  4  7  1  6
  1  8  1  0
  5  9  1  0
  6  9  2  0
  8  9  1  6
 10 11  1  0
 13 14  1  0
 13 15  1  0
 13 16  1  0
  2 18  1  0
  2 21  1  6
 16 23  3  0
 24 25  2  0
 25 26  1  0
 22 27  1  0
 26 27  2  0
  8 28  1  0
 27 28  1  0
 24 29  1  0
 28 29  2  0
 30 31  1  0
  1 32  1  0
 31 32  1  0
 32 33  2  0
 13 34  1  0
 30 34  2  0
 33 34  1  0
 10 35  1  0
 35 36  2  0
 36 37  1  0
 37 38  2  0
 12 39  1  0
 38 39  1  0
  5 40  1  0
 35 40  1  0
 39 40  2  0
 17 41  1  0
 41 42  2  0
 42 43  1  0
  4 44  1  0
 43 44  2  0
 44 45  1  0
 41 46  1  0
 45 46  2  0
 48 18  1  6
 47 48  1  0
 48 49  1  0
 50 19  1  0
 20 50  1  0
 49 50  1  0
 47 51  2  0
 50 51  1  0
M  END
