x1375-x2608
     RDKit          3D

 36 39  0  0  0  0  0  0  0  0999 V2000
    5.7370   -4.7400   20.0360 O   0  0  0  0  0  0  0  0  0  0  0  0
    6.6180   -4.5020   20.9380 C   0  0  0  0  0  0  0  0  0  0  0  0
    8.0320   -4.0950   20.7090 C   0  0  0  0  0  0  0  0  0  0  0  0
    6.3220   -4.6000   22.3340 N   0  0  0  0  0  0  0  0  0  0  0  0
    2.2940   -6.7790   23.7960 O   0  0  0  0  0  0  0  0  0  0  0  0
    4.3360   -7.8370   25.0910 O   0  0  0  0  0  0  0  0  0  0  0  0
   10.5890   -4.5520   25.9120 F   0  0  0  0  0  0  0  0  0  0  0  0
    8.7550   -0.6560   22.4870 N   0  0  0  0  0  0  0  0  0  0  0  0
   12.8230    2.2520   22.7920 C   0  0  0  0  0  0  0  0  0  0  0  0
    8.5890    1.1610   21.0590 O   0  0  0  0  0  0  0  0  0  0  0  0
    6.9040   -0.4810   21.0470 N   0  0  0  0  0  0  0  0  0  0  0  0
    8.1160    0.0900   21.5000 C   0  0  0  0  0  0  0  0  0  0  0  0
    8.0920   -2.6500   21.1770 C   0  0  0  0  0  0  0  0  0  0  0  0
    6.7640   -1.9320   21.0020 C   0  0  0  0  0  0  0  0  0  0  0  0
    7.7870   -3.3980   23.9020 C   0  0  0  0  0  0  0  0  0  0  0  0
    8.8610   -3.4050   24.7970 C   0  0  0  0  0  0  0  0  0  0  0  0
    9.5610   -4.5540   25.0510 C   0  0  0  0  0  0  0  0  0  0  0  0
    9.1850   -5.7180   24.3970 C   0  0  0  0  0  0  0  0  0  0  0  0
    8.1430   -5.6910   23.5320 C   0  0  0  0  0  0  0  0  0  0  0  0
    7.3990   -4.5320   23.2480 C   0  0  0  0  0  0  0  0  0  0  0  0
    4.7020   -4.3910   24.1060 C   0  0  0  0  0  0  0  0  0  0  0  0
    5.0030   -4.9720   22.7760 C   0  0  2  0  0  0  0  0  0  0  0  0
    4.7810   -6.4170   22.8100 C   0  0  0  0  0  0  0  0  0  0  0  0
    3.8050   -6.6060   24.2610 S   0  0  0  0  0  0  0  0  0  0  0  0
    4.0890   -5.1200   24.9670 C   0  0  0  0  0  0  0  0  0  0  0  0
   12.0210    1.0300   22.8790 C   0  0  0  0  0  0  0  0  0  0  0  0
   12.3180   -0.3120   23.1740 C   0  0  0  0  0  0  0  0  0  0  0  0
   11.2180   -1.1140   23.0900 C   0  0  0  0  0  0  0  0  0  0  0  0
   10.0700   -0.4200   22.7370 C   0  0  0  0  0  0  0  0  0  0  0  0
   10.3720    1.2210   22.5480 S   0  0  0  0  0  0  0  0  0  0  0  0
    6.1090    0.7580   17.6610 N   0  0  0  0  0  0  0  0  0  0  0  0
    6.6640    0.1480   18.7170 C   0  0  0  0  0  0  0  0  0  0  0  0
    6.2040    0.2080   20.0130 C   0  0  0  0  0  0  0  0  0  0  0  0
    5.0560    0.9640   20.2300 C   0  0  0  0  0  0  0  0  0  0  0  0
    4.4430    1.6220   19.1660 C   0  0  0  0  0  0  0  0  0  0  0  0
    5.0160    1.4910   17.9030 C   0  0  0  0  0  0  0  0  0  0  0  0
  1  2  2  0
  2  3  1  0
  2  4  1  0
  8 12  1  0
 10 12  2  0
 11 12  1  0
  3 13  1  0
 11 14  1  0
 13 14  1  0
 15 16  2  0
  7 17  1  0
 16 17  1  0
 17 18  2  0
 18 19  1  0
  4 20  1  0
 15 20  1  0
 19 20  2  0
 22  4  1  1
 21 22  1  0
 22 23  1  0
 24  5  1  0
  6 24  1  0
 23 24  1  0
 21 25  2  0
 24 25  1  0
  9 26  1  0
 26 27  2  0
 27 28  1  0
  8 29  1  0
 28 29  2  0
 26 30  1  0
 29 30  1  0
 31 32  2  0
 11 33  1  0
 32 33  1  0
 33 34  2  0
 34 35  1  0
 31 36  1  0
 35 36  2  0
M  END
