x1375-x2908-x2705-x1311
     RDKit          3D

 50 54  0  0  0  0  0  0  0  0999 V2000
    6.6130   -1.2380   22.1940 N   0  0  0  0  0  0  0  0  0  0  0  0
    6.6590   -4.2180   20.3390 C   0  0  2  0  0  0  0  0  0  0  0  0
    4.6320   -3.0080   21.6600 O   0  0  0  0  0  0  0  0  0  0  0  0
    6.4070   -2.8060   20.3700 C   0  0  0  0  0  0  0  0  0  0  0  0
    7.4720    2.0920   22.9250 N   0  0  0  0  0  0  0  0  0  0  0  0
    8.8250    0.8790   21.4920 O   0  0  0  0  0  0  0  0  0  0  0  0
    5.7950   -2.3450   21.5180 C   0  0  0  0  0  0  0  0  0  0  0  0
    6.4740    0.1900   21.7210 C   0  0  1  0  0  0  0  0  0  0  0  0
    7.7320    1.0610   22.0240 C   0  0  0  0  0  0  0  0  0  0  0  0
   10.1590    2.1490   24.0210 C   0  0  0  0  0  0  0  0  0  0  0  0
    9.3190    1.2960   24.9630 C   0  0  0  0  0  0  0  0  0  0  0  0
    6.1800    4.6600   21.8930 C   0  0  0  0  0  0  0  0  0  0  0  0
   11.8820   -1.5260   23.3040 C   0  0  0  0  0  0  0  0  0  0  0  0
   12.4720   -0.2410   23.9330 C   0  0  0  0  0  0  0  0  0  0  0  0
   12.3160   -2.6920   24.2100 C   0  0  0  0  0  0  0  0  0  0  0  0
   12.5550   -1.6950   21.9940 C   0  0  0  0  0  0  0  0  0  0  0  0
    5.6060   -4.9540   19.7560 O   0  0  0  0  0  0  0  0  0  0  0  0
    6.6510   -4.7630   21.8190 N   0  0  0  0  0  0  0  0  0  0  0  0
    2.6220   -6.7810   23.5230 O   0  0  0  0  0  0  0  0  0  0  0  0
    4.4610   -7.6960   24.8480 O   0  0  0  0  0  0  0  0  0  0  0  0
   10.5460   -4.7050   25.7900 F   0  0  0  0  0  0  0  0  0  0  0  0
    4.0610    1.7820   21.2180 C   0  0  0  0  0  0  0  0  0  0  0  0
    6.3920    0.3250   17.9170 N   0  0  0  0  0  0  0  0  0  0  0  0
    5.2880    1.0720   17.7780 C   0  0  0  0  0  0  0  0  0  0  0  0
    4.5380    1.5350   18.8060 C   0  0  0  0  0  0  0  0  0  0  0  0
    4.8990    1.2520   20.1040 C   0  0  0  0  0  0  0  0  0  0  0  0
    6.0430    0.4860   20.3130 C   0  0  0  0  0  0  0  0  0  0  0  0
    6.7510    0.0430   19.1850 C   0  0  0  0  0  0  0  0  0  0  0  0
    9.6710   -1.1610   24.3500 N   0  0  0  0  0  0  0  0  0  0  0  0
    8.3610   -1.1030   24.0240 N   0  0  0  0  0  0  0  0  0  0  0  0
    8.0380   -1.3160   22.6900 C   0  0  0  0  0  0  0  0  0  0  0  0
    9.3450   -1.5410   22.1470 C   0  0  0  0  0  0  0  0  0  0  0  0
   10.3260   -1.4240   23.2170 C   0  0  0  0  0  0  0  0  0  0  0  0
    9.4500    3.3820   23.5090 C   0  0  0  0  0  0  0  0  0  0  0  0
   10.1510    4.6050   23.5850 C   0  0  0  0  0  0  0  0  0  0  0  0
    9.5700    5.7830   23.1290 C   0  0  0  0  0  0  0  0  0  0  0  0
    8.2860    5.7570   22.5910 C   0  0  0  0  0  0  0  0  0  0  0  0
    7.5580    4.5530   22.5000 C   0  0  0  0  0  0  0  0  0  0  0  0
    8.1410    3.3500   22.9680 C   0  0  0  0  0  0  0  0  0  0  0  0
    8.0750   -3.4990   23.4140 C   0  0  0  0  0  0  0  0  0  0  0  0
    9.0490   -3.4860   24.4180 C   0  0  0  0  0  0  0  0  0  0  0  0
    9.6060   -4.6800   24.8340 C   0  0  0  0  0  0  0  0  0  0  0  0
    9.1940   -5.8590   24.2620 C   0  0  0  0  0  0  0  0  0  0  0  0
    8.2170   -5.8720   23.2580 C   0  0  0  0  0  0  0  0  0  0  0  0
    7.6500   -4.6820   22.8230 C   0  0  0  0  0  0  0  0  0  0  0  0
    5.0740   -4.2340   23.7740 C   0  0  0  0  0  0  0  0  0  0  0  0
    5.3910   -4.9550   22.4550 C   0  0  2  0  0  0  0  0  0  0  0  0
    5.0990   -6.4550   22.5790 C   0  0  0  0  0  0  0  0  0  0  0  0
    3.9930   -6.6500   23.9720 S   0  0  0  0  0  0  0  0  0  0  0  0
    4.2680   -5.0850   24.7570 C   0  0  0  0  0  0  0  0  0  0  0  0
  2  4  1  0
  1  7  1  0
  3  7  2  0
  4  7  1  0
  1  8  1  0
  5  9  1  0
  6  9  2  0
  8  9  1  6
 10 11  1  0
 13 14  1  0
 13 15  1  0
 13 16  1  0
  2 17  1  6
  2 18  1  0
 23 24  2  0
 24 25  1  0
 22 26  1  0
 25 26  2  0
  8 27  1  0
 26 27  1  0
 23 28  1  0
 27 28  2  0
 29 30  1  0
  1 31  1  0
 30 31  1  0
 31 32  2  0
 13 33  1  0
 29 33  2  0
 32 33  1  0
 10 34  1  0
 34 35  2  0
 35 36  1  0
 36 37  2  0
 12 38  1  0
 37 38  1  0
  5 39  1  0
 34 39  1  0
 38 39  2  0
 40 41  2  0
 21 42  1  0
 41 42  1  0
 42 43  2  0
 43 44  1  0
 18 45  1  0
 40 45  1  0
 44 45  2  0
 47 18  1  1
 46 47  1  0
 47 48  1  0
 49 19  1  0
 20 49  1  0
 48 49  1  0
 46 50  2  0
 49 50  1  0
M  END
