x1375-x2705
     RDKit          3D

 49 53  0  0  0  0  0  0  0  0999 V2000
    6.6710   -1.2080   22.1210 N   0  0  0  0  0  0  0  0  0  0  0  0
    6.7730   -4.1910   20.4100 C   0  0  2  0  0  0  0  0  0  0  0  0
    4.6630   -2.9810   21.5860 O   0  0  0  0  0  0  0  0  0  0  0  0
    6.5290   -2.7750   20.3450 C   0  0  0  0  0  0  0  0  0  0  0  0
    7.5170    2.0270   22.9540 N   0  0  0  0  0  0  0  0  0  0  0  0
    8.6270    1.2110   21.0930 O   0  0  0  0  0  0  0  0  0  0  0  0
    5.8480   -2.3090   21.4530 C   0  0  0  0  0  0  0  0  0  0  0  0
    6.4750    0.2170   21.6760 C   0  0  1  0  0  0  0  0  0  0  0  0
    7.6570    1.1650   21.8650 C   0  0  0  0  0  0  0  0  0  0  0  0
   10.1100    2.0460   23.9890 C   0  0  0  0  0  0  0  0  0  0  0  0
    9.2520    1.3390   25.0310 C   0  0  0  0  0  0  0  0  0  0  0  0
    6.1690    4.4160   21.9550 C   0  0  0  0  0  0  0  0  0  0  0  0
   11.9250   -1.4470   23.2890 C   0  0  0  0  0  0  0  0  0  0  0  0
   12.4440   -0.2830   23.8710 C   0  0  0  0  0  0  0  0  0  0  0  0
   12.4050   -2.5950   24.2090 C   0  0  0  0  0  0  0  0  0  0  0  0
   12.5830   -1.6810   21.9250 C   0  0  0  0  0  0  0  0  0  0  0  0
    5.6600   -4.7270   19.7030 O   0  0  0  0  0  0  0  0  0  0  0  0
    6.6340   -4.7440   21.8420 N   0  0  0  0  0  0  0  0  0  0  0  0
    2.5970   -6.8170   23.6650 O   0  0  0  0  0  0  0  0  0  0  0  0
    4.4470   -7.7070   24.9270 O   0  0  0  0  0  0  0  0  0  0  0  0
   10.6500   -4.6400   25.8860 F   0  0  0  0  0  0  0  0  0  0  0  0
    6.3360    0.3640   17.9410 N   0  0  0  0  0  0  0  0  0  0  0  0
    5.1790    1.0420   17.7760 C   0  0  0  0  0  0  0  0  0  0  0  0
    4.3030    1.5000   18.8400 C   0  0  0  0  0  0  0  0  0  0  0  0
    4.7540    1.1960   20.1610 C   0  0  0  0  0  0  0  0  0  0  0  0
    5.9880    0.4910   20.3360 C   0  0  0  0  0  0  0  0  0  0  0  0
    6.7190    0.1020   19.2090 C   0  0  0  0  0  0  0  0  0  0  0  0
    9.7260   -1.1660   24.4020 N   0  0  0  0  0  0  0  0  0  0  0  0
    8.3940   -1.1090   24.1220 N   0  0  0  0  0  0  0  0  0  0  0  0
    8.0880   -1.2610   22.7890 C   0  0  0  0  0  0  0  0  0  0  0  0
    9.3620   -1.4290   22.2300 C   0  0  0  0  0  0  0  0  0  0  0  0
   10.3680   -1.3620   23.2330 C   0  0  0  0  0  0  0  0  0  0  0  0
    9.4780    3.3160   23.5170 C   0  0  0  0  0  0  0  0  0  0  0  0
   10.1290    4.5590   23.5690 C   0  0  0  0  0  0  0  0  0  0  0  0
    9.5100    5.7250   23.1120 C   0  0  0  0  0  0  0  0  0  0  0  0
    8.2170    5.6760   22.5850 C   0  0  0  0  0  0  0  0  0  0  0  0
    7.5580    4.4410   22.5300 C   0  0  0  0  0  0  0  0  0  0  0  0
    8.1970    3.2850   23.0010 C   0  0  0  0  0  0  0  0  0  0  0  0
    8.0300   -3.4900   23.4320 C   0  0  0  0  0  0  0  0  0  0  0  0
    9.0050   -3.4230   24.4300 C   0  0  0  0  0  0  0  0  0  0  0  0
    9.7060   -4.6620   24.9370 C   0  0  0  0  0  0  0  0  0  0  0  0
    9.2670   -5.9580   24.2920 C   0  0  0  0  0  0  0  0  0  0  0  0
    8.3100   -5.9580   23.3270 C   0  0  0  0  0  0  0  0  0  0  0  0
    7.6340   -4.6940   22.8370 C   0  0  0  0  0  0  0  0  0  0  0  0
    5.0550   -4.3980   23.6530 C   0  0  0  0  0  0  0  0  0  0  0  0
    5.3140   -5.0760   22.4470 C   0  0  2  0  0  0  0  0  0  0  0  0
    5.1060   -6.4750   22.5960 C   0  0  0  0  0  0  0  0  0  0  0  0
    4.0470   -6.5770   24.0210 S   0  0  0  0  0  0  0  0  0  0  0  0
    4.3730   -5.0550   24.6200 C   0  0  0  0  0  0  0  0  0  0  0  0
  2  4  1  0
  1  7  1  0
  3  7  2  0
  4  7  1  0
  1  8  1  0
  5  9  1  0
  6  9  2  0
  8  9  1  6
 10 11  1  0
 13 14  1  0
 13 15  1  0
 13 16  1  0
  2 17  1  6
  2 18  1  0
 22 23  2  0
 23 24  1  0
 24 25  2  0
  8 26  1  0
 25 26  1  0
 22 27  1  0
 26 27  2  0
 28 29  1  0
  1 30  1  0
 29 30  1  0
 30 31  2  0
 13 32  1  0
 28 32  2  0
 31 32  1  0
 10 33  1  0
 33 34  2  0
 34 35  1  0
 35 36  2  0
 12 37  1  0
 36 37  1  0
  5 38  1  0
 33 38  1  0
 37 38  2  0
 39 40  2  0
 21 41  1  0
 40 41  1  0
 41 42  2  0
 42 43  1  0
 18 44  1  0
 39 44  1  0
 43 44  2  0
 46 18  1  1
 45 46  1  0
 46 47  1  0
 48 19  1  0
 20 48  1  0
 47 48  1  0
 45 49  2  0
 48 49  1  0
M  END
