x1375-x0397
     RDKit          3D

 26 28  0  0  0  0  0  0  0  0999 V2000
    5.4760   -4.7060   19.9860 O   0  0  0  0  0  0  0  0  0  0  0  0
    6.3760   -4.1090   20.6380 C   0  0  0  0  0  0  0  0  0  0  0  0
    7.3240   -3.1860   19.8750 C   0  0  2  0  0  0  0  0  0  0  0  0
    6.3540   -4.3640   22.0770 N   0  0  0  0  0  0  0  0  0  0  0  0
    2.4030   -6.5300   23.6410 O   0  0  0  0  0  0  0  0  0  0  0  0
    4.4010   -7.8150   24.8350 O   0  0  0  0  0  0  0  0  0  0  0  0
   10.6710   -4.5700   25.8130 F   0  0  0  0  0  0  0  0  0  0  0  0
    7.8330   -2.1570   20.8400 C   0  0  0  0  0  0  0  0  0  0  0  0
    6.6100   -2.4050   18.7100 C   0  0  0  0  0  0  0  0  0  0  0  0
    4.1410    2.0580   19.6360 C   0  0  0  0  0  0  0  0  0  0  0  0
    8.0520   -3.0180   23.6520 C   0  0  0  0  0  0  0  0  0  0  0  0
    9.1970   -3.1540   24.6440 C   0  0  0  0  0  0  0  0  0  0  0  0
    9.6680   -4.4250   24.9380 C   0  0  0  0  0  0  0  0  0  0  0  0
    9.1070   -5.5240   24.3330 C   0  0  0  0  0  0  0  0  0  0  0  0
    8.0490   -5.4980   23.4080 C   0  0  0  0  0  0  0  0  0  0  0  0
    7.4910   -4.3060   23.0390 C   0  0  0  0  0  0  0  0  0  0  0  0
    4.9450   -4.3270   23.9850 C   0  0  0  0  0  0  0  0  0  0  0  0
    5.0610   -4.7950   22.6710 C   0  0  2  0  0  0  0  0  0  0  0  0
    4.9890   -6.2720   22.6220 C   0  0  0  0  0  0  0  0  0  0  0  0
    3.9480   -6.5290   24.0360 S   0  0  0  0  0  0  0  0  0  0  0  0
    4.3490   -5.1420   24.8790 C   0  0  0  0  0  0  0  0  0  0  0  0
    5.0930   -0.3910   19.6050 C   0  0  0  0  0  0  0  0  0  0  0  0
    6.0670   -0.9630   18.7830 C   0  0  0  0  0  0  0  0  0  0  0  0
    6.5220   -0.0190   17.9350 N   0  0  0  0  0  0  0  0  0  0  0  0
    5.8500    1.1510   18.1990 O   0  0  0  0  0  0  0  0  0  0  0  0
    4.9770    0.9230   19.2090 C   0  0  0  0  0  0  0  0  0  0  0  0
  1  2  2  0
  3  2  1  0
  2  4  1  0
  3  8  1  1
  3  9  1  0
 11 12  2  0
  7 13  1  0
 12 13  1  0
 13 14  2  0
 14 15  1  0
  4 16  1  0
 11 16  1  0
 15 16  2  0
 18  4  1  1
 17 18  1  0
 18 19  1  0
 20  5  1  0
  6 20  1  0
 19 20  1  0
 17 21  2  0
 20 21  1  0
  9 23  1  0
 22 23  1  0
 23 24  2  0
 24 25  1  0
 10 26  1  0
 22 26  2  0
 25 26  1  0
M  END
