x1374-x2908
     RDKit          3D

 38 41  0  0  0  0  0  0  0  0999 V2000
   10.7880   -4.2170   25.7500 C   0  0  0  0  0  0  0  0  0  0  0  0
    6.2860   -4.5510   22.2940 N   0  0  0  0  0  0  0  0  0  0  0  0
    6.5370   -4.4540   20.9030 C   0  0  0  0  0  0  0  0  0  0  0  0
    5.6890   -4.6820   20.0100 O   0  0  0  0  0  0  0  0  0  0  0  0
    8.0140   -3.9900   20.6850 C   0  0  0  0  0  0  0  0  0  0  0  0
    2.0110   -6.8600   23.9230 O   0  0  0  0  0  0  0  0  0  0  0  0
    4.3110   -7.9490   24.7770 O   0  0  0  0  0  0  0  0  0  0  0  0
    4.5010    1.1380   21.4600 C   0  0  0  0  0  0  0  0  0  0  0  0
    8.6000    1.3210   21.0760 O   0  0  0  0  0  0  0  0  0  0  0  0
   13.3200   -1.9030   21.2700 Cl  0  0  0  0  0  0  0  0  0  0  0  0
    7.0400   -0.3690   20.8160 N   0  0  0  0  0  0  0  0  0  0  0  0
    8.7130   -0.5250   22.4590 N   0  0  0  0  0  0  0  0  0  0  0  0
    8.1520    0.2160   21.4410 C   0  0  0  0  0  0  0  0  0  0  0  0
    8.1410   -2.5490   21.1240 C   0  0  0  0  0  0  0  0  0  0  0  0
    7.2510   -1.6870   20.2730 C   0  0  0  0  0  0  0  0  0  0  0  0
    9.6320   -4.2880   24.8330 C   0  0  0  0  0  0  0  0  0  0  0  0
    9.0270   -3.1230   24.3740 C   0  0  0  0  0  0  0  0  0  0  0  0
    7.9270   -3.1930   23.5270 C   0  0  0  0  0  0  0  0  0  0  0  0
    7.4340   -4.4330   23.1370 C   0  0  0  0  0  0  0  0  0  0  0  0
    8.0480   -5.6010   23.5860 C   0  0  0  0  0  0  0  0  0  0  0  0
    9.1400   -5.5240   24.4320 C   0  0  0  0  0  0  0  0  0  0  0  0
    4.9830   -4.7770   24.3550 C   0  0  0  0  0  0  0  0  0  0  0  0
    5.4550   -5.4650   23.0870 C   0  0  1  0  0  0  0  0  0  0  0  0
    4.2910   -6.1880   22.5470 C   0  0  0  0  0  0  0  0  0  0  0  0
    3.5810   -6.7260   24.0790 S   0  0  0  0  0  0  0  0  0  0  0  0
    3.9620   -5.3730   24.9870 C   0  0  0  0  0  0  0  0  0  0  0  0
    6.2750    0.8850   17.5330 N   0  0  0  0  0  0  0  0  0  0  0  0
    6.8170    0.2850   18.5840 C   0  0  0  0  0  0  0  0  0  0  0  0
    6.3100    0.3290   19.8620 C   0  0  0  0  0  0  0  0  0  0  0  0
    5.1450    1.0350   20.1070 C   0  0  0  0  0  0  0  0  0  0  0  0
    4.5620    1.6750   19.0100 C   0  0  0  0  0  0  0  0  0  0  0  0
    5.1560    1.5760   17.7580 C   0  0  0  0  0  0  0  0  0  0  0  0
   10.5450    0.4500   23.7460 C   0  0  0  0  0  0  0  0  0  0  0  0
   11.9140    0.5540   23.9580 C   0  0  0  0  0  0  0  0  0  0  0  0
   12.7930   -0.1740   23.2030 C   0  0  0  0  0  0  0  0  0  0  0  0
   12.2910   -1.0080   22.2380 C   0  0  0  0  0  0  0  0  0  0  0  0
   10.9390   -1.1300   22.0140 C   0  0  0  0  0  0  0  0  0  0  0  0
   10.0600   -0.3890   22.7660 C   0  0  0  0  0  0  0  0  0  0  0  0
  2  3  1  0
  3  4  2  0
  3  5  1  0
  9 13  2  0
 11 13  1  0
 12 13  1  0
  5 14  1  0
 11 15  1  0
 14 15  1  0
  1 16  1  0
 16 17  2  0
 17 18  1  0
  2 19  1  0
 18 19  2  0
 19 20  1  0
 16 21  1  0
 20 21  2  0
 23  2  1  6
 22 23  1  0
 23 24  1  0
 25  6  1  0
  7 25  1  0
 24 25  1  0
 22 26  2  0
 25 26  1  0
 27 28  2  0
 11 29  1  0
 28 29  1  0
  8 30  1  0
 29 30  2  0
 30 31  1  0
 27 32  1  0
 31 32  2  0
 33 34  2  0
 34 35  1  0
 10 36  1  0
 35 36  2  0
 36 37  1  0
 12 38  1  0
 33 38  1  0
 37 38  2  0
M  END
