x1374-x0305
     RDKit          3D

 31 33  0  0  0  0  0  0  0  0999 V2000
    9.8740   -3.7530   25.0500 C   0  0  0  0  0  0  0  0  0  0  0  0
    6.0710   -5.2610   21.6520 N   0  0  0  0  0  0  0  0  0  0  0  0
    6.2970   -4.3970   20.5620 C   0  0  0  0  0  0  0  0  0  0  0  0
    5.4000   -4.1580   19.7490 O   0  0  0  0  0  0  0  0  0  0  0  0
    7.7100   -3.8020   20.5110 C   0  0  0  0  0  0  0  0  0  0  0  0
    2.3370   -6.4790   23.9930 O   0  0  0  0  0  0  0  0  0  0  0  0
    4.1750   -7.7560   25.0330 O   0  0  0  0  0  0  0  0  0  0  0  0
    8.0010    0.5510   27.0440 C   0  0  0  0  0  0  0  0  0  0  0  0
    8.5340   -0.3220   25.9690 C   0  0  1  0  0  0  0  0  0  0  0  0
    9.5640    0.3950   25.4030 N   0  0  0  0  0  0  0  0  0  0  0  0
   13.1040   -1.3760   21.5830 C   0  0  0  0  0  0  0  0  0  0  0  0
   13.9470   -1.6360   20.4740 N   0  0  0  0  0  0  0  0  0  0  0  0
    9.3970   -2.2980   25.1260 C   0  0  0  0  0  0  0  0  0  0  0  0
    9.1310   -1.5550   26.2870 C   0  0  0  0  0  0  0  0  0  0  0  0
    8.9550   -4.2840   24.2130 C   0  0  0  0  0  0  0  0  0  0  0  0
    8.2490   -3.3640   23.5430 C   0  0  0  0  0  0  0  0  0  0  0  0
    7.3460   -3.7360   22.7410 C   0  0  0  0  0  0  0  0  0  0  0  0
    7.0410   -5.0470   22.5050 C   0  0  0  0  0  0  0  0  0  0  0  0
    7.7410   -6.0210   23.1600 C   0  0  0  0  0  0  0  0  0  0  0  0
    8.7700   -5.6390   24.0810 C   0  0  0  0  0  0  0  0  0  0  0  0
    4.9710   -4.6310   23.7210 C   0  0  0  0  0  0  0  0  0  0  0  0
    4.8670   -5.3140   22.5120 C   0  0  2  0  0  0  0  0  0  0  0  0
    4.5480   -6.6350   22.7490 C   0  0  0  0  0  0  0  0  0  0  0  0
    3.7570   -6.6250   24.2350 S   0  0  0  0  0  0  0  0  0  0  0  0
    4.4170   -5.1930   24.8000 C   0  0  0  0  0  0  0  0  0  0  0  0
   10.4870   -0.0430   24.4430 C   0  0  0  0  0  0  0  0  0  0  0  0
   11.7020    0.5470   24.3540 N   0  0  0  0  0  0  0  0  0  0  0  0
   12.5320    0.0840   23.4140 C   0  0  0  0  0  0  0  0  0  0  0  0
   12.1780   -0.9290   22.5910 C   0  0  0  0  0  0  0  0  0  0  0  0
   10.9630   -1.5490   22.6540 C   0  0  0  0  0  0  0  0  0  0  0  0
   10.0890   -1.0890   23.6070 C   0  0  0  0  0  0  0  0  0  0  0  0
  2  3  1  0
  3  4  2  0
  3  5  1  0
  9  8  1  1
  9 10  1  0
 11 12  3  0
  1 13  1  0
  9 14  1  0
 13 14  1  0
  1 15  1  0
 15 16  2  0
 16 17  1  0
  2 18  1  0
 17 18  2  0
 18 19  1  0
 15 20  1  0
 19 20  2  0
 22  2  1  1
 21 22  1  0
 22 23  1  0
 24  6  1  0
  7 24  1  0
 23 24  1  0
 21 25  2  0
 24 25  1  0
 10 26  1  0
 26 27  2  0
 27 28  1  0
 11 29  1  0
 28 29  2  0
 29 30  1  0
 26 31  1  0
 30 31  2  0
M  END
