x1374-x2119-x1458
     RDKit          3D

 23 24  0  0  0  0  0  0  0  0999 V2000
    7.2910   -3.7230   26.3970 N   0  0  0  0  0  0  0  0  0  0  0  0
    8.9920   -5.5220   26.9450 C   0  0  0  0  0  0  0  0  0  0  0  0
    5.2670   -2.8950   25.7540 O   0  0  0  0  0  0  0  0  0  0  0  0
    7.5230   -5.1070   26.8850 C   0  0  0  0  0  0  0  0  0  0  0  0
    5.3890   -4.5840   19.9300 O   0  0  0  0  0  0  0  0  0  0  0  0
    6.8230   -5.4400   28.1950 C   0  0  0  0  0  0  0  0  0  0  0  0
    7.7370   -2.5920   27.2220 C   0  0  0  0  0  0  0  0  0  0  0  0
    6.3510   -3.4070   25.4370 C   0  0  0  0  0  0  0  0  0  0  0  0
    6.4520   -4.0350   20.2150 C   0  0  0  0  0  0  0  0  0  0  0  0
    7.2530   -3.2440   19.1800 C   0  0  0  0  0  0  0  0  0  0  0  0
    1.9750   -7.3230   23.4030 O   0  0  0  0  0  0  0  0  0  0  0  0
    3.8750   -8.0770   25.1130 O   0  0  0  0  0  0  0  0  0  0  0  0
    7.0770   -4.1340   21.4630 N   0  0  0  0  0  0  0  0  0  0  0  0
    7.8400   -3.0220   22.0800 C   0  0  0  0  0  0  0  0  0  0  0  0
    7.6770   -3.0260   23.4650 C   0  0  0  0  0  0  0  0  0  0  0  0
    6.5440   -3.6700   23.9420 C   0  0  1  0  0  0  0  0  0  0  0  0
    6.2690   -4.9370   23.4630 C   0  0  2  0  0  0  0  0  0  0  0  0
    6.8290   -5.3140   22.2710 C   0  0  0  0  0  0  0  0  0  0  0  0
    3.9720   -4.6210   24.1820 C   0  0  0  0  0  0  0  0  0  0  0  0
    4.7800   -5.1070   23.1660 C   0  0  2  0  0  0  0  0  0  0  0  0
    4.5520   -6.5810   22.9580 C   0  0  0  0  0  0  0  0  0  0  0  0
    3.3330   -6.9510   24.1470 S   0  0  0  0  0  0  0  0  0  0  0  0
    3.1520   -5.4490   24.8270 C   0  0  0  0  0  0  0  0  0  0  0  0
  1  4  1  0
  2  4  1  0
  4  6  1  0
  1  7  1  0
  1  8  1  0
  3  8  2  0
  5  9  2  0
  9 10  1  0
  9 13  1  0
 13 14  1  0
 14 15  1  0
 16  8  1  1
 15 16  1  0
 16 17  1  0
 13 18  1  0
 17 18  1  6
 17 20  1  0
 20 19  1  1
 20 21  1  0
 22 11  1  0
 12 22  1  0
 21 22  1  0
 19 23  2  0
 22 23  1  0
M  END
