x1375-x2569
     RDKit          3D

 38 41  0  0  0  0  0  0  0  0999 V2000
    5.7440   -4.6600   20.0020 O   0  0  0  0  0  0  0  0  0  0  0  0
    6.6480   -4.3660   20.8590 C   0  0  0  0  0  0  0  0  0  0  0  0
    8.0060   -3.8100   20.5430 C   0  0  0  0  0  0  0  0  0  0  0  0
    6.3830   -4.5540   22.2530 N   0  0  0  0  0  0  0  0  0  0  0  0
    2.3390   -6.7890   23.6890 O   0  0  0  0  0  0  0  0  0  0  0  0
    4.2750   -7.9050   25.0110 O   0  0  0  0  0  0  0  0  0  0  0  0
   10.5950   -4.5210   25.9750 F   0  0  0  0  0  0  0  0  0  0  0  0
    8.1500    0.3900   21.7470 C   0  0  0  0  0  0  0  0  0  0  0  0
    8.7890    1.3320   21.2230 O   0  0  0  0  0  0  0  0  0  0  0  0
    8.6170   -0.2230   23.0200 C   0  0  0  0  0  0  0  0  0  0  0  0
   13.7530   -2.0900   20.6420 N   0  0  0  0  0  0  0  0  0  0  0  0
    6.9710   -0.1890   21.2390 N   0  0  0  0  0  0  0  0  0  0  0  0
   13.0150   -1.5360   21.5880 C   0  0  0  0  0  0  0  0  0  0  0  0
    8.0080   -2.2770   20.6980 C   0  0  0  0  0  0  0  0  0  0  0  0
    6.8070   -1.6470   21.3580 C   0  0  0  0  0  0  0  0  0  0  0  0
    7.9070   -3.3840   23.8490 C   0  0  0  0  0  0  0  0  0  0  0  0
    8.9290   -3.3540   24.7590 C   0  0  0  0  0  0  0  0  0  0  0  0
    9.5940   -4.5210   25.0870 C   0  0  0  0  0  0  0  0  0  0  0  0
    9.2040   -5.6640   24.4830 C   0  0  0  0  0  0  0  0  0  0  0  0
    8.1560   -5.7380   23.5360 C   0  0  0  0  0  0  0  0  0  0  0  0
    7.4820   -4.5630   23.2080 C   0  0  0  0  0  0  0  0  0  0  0  0
    4.7940   -4.4170   24.1030 C   0  0  0  0  0  0  0  0  0  0  0  0
    5.0810   -5.0030   22.7900 C   0  0  2  0  0  0  0  0  0  0  0  0
    4.9140   -6.3840   22.7480 C   0  0  0  0  0  0  0  0  0  0  0  0
    3.8570   -6.6540   24.1430 S   0  0  0  0  0  0  0  0  0  0  0  0
    4.1280   -5.2120   24.9520 C   0  0  0  0  0  0  0  0  0  0  0  0
   12.0380    0.3510   24.4430 N   0  0  0  0  0  0  0  0  0  0  0  0
   12.7630   -0.2890   23.5340 C   0  0  0  0  0  0  0  0  0  0  0  0
   12.2050   -0.9050   22.4850 C   0  0  0  0  0  0  0  0  0  0  0  0
   10.8620   -0.9310   22.2520 C   0  0  0  0  0  0  0  0  0  0  0  0
   10.0980   -0.2760   23.1680 C   0  0  0  0  0  0  0  0  0  0  0  0
   10.7090    0.3450   24.2410 C   0  0  0  0  0  0  0  0  0  0  0  0
    6.3610    0.7030   17.6920 N   0  0  0  0  0  0  0  0  0  0  0  0
    6.8820    0.1950   18.8210 C   0  0  0  0  0  0  0  0  0  0  0  0
    6.3450    0.3750   20.0850 C   0  0  0  0  0  0  0  0  0  0  0  0
    5.1720    1.1240   20.1760 C   0  0  0  0  0  0  0  0  0  0  0  0
    4.6110    1.6550   19.0230 C   0  0  0  0  0  0  0  0  0  0  0  0
    5.2380    1.4240   17.8050 C   0  0  0  0  0  0  0  0  0  0  0  0
  1  2  2  0
  2  3  1  0
  2  4  1  0
  8  9  2  0
  8 10  1  0
  8 12  1  0
 11 13  3  0
  3 14  1  0
 12 15  1  0
 14 15  1  0
 16 17  2  0
  7 18  1  0
 17 18  1  0
 18 19  2  0
 19 20  1  0
  4 21  1  0
 16 21  1  0
 20 21  2  0
 23  4  1  1
 22 23  1  0
 23 24  1  0
 25  5  1  0
  6 25  1  0
 24 25  1  0
 22 26  2  0
 25 26  1  0
 27 28  2  0
 13 29  1  0
 28 29  1  0
 29 30  2  0
 10 31  1  0
 30 31  1  0
 27 32  1  0
 31 32  2  0
 33 34  2  0
 12 35  1  0
 34 35  1  0
 35 36  2  0
 36 37  1  0
 33 38  1  0
 37 38  2  0
M  END
