x1375-x0434
     RDKit          3D

 36 39  0  0  0  0  0  0  0  0999 V2000
    5.7670   -4.7890   20.0750 O   0  0  0  0  0  0  0  0  0  0  0  0
    6.6470   -4.5040   20.9870 C   0  0  0  0  0  0  0  0  0  0  0  0
    8.0710   -4.0820   20.7690 C   0  0  0  0  0  0  0  0  0  0  0  0
    6.3980   -4.5160   22.4270 N   0  0  0  0  0  0  0  0  0  0  0  0
    2.1390   -7.0210   23.6530 O   0  0  0  0  0  0  0  0  0  0  0  0
    4.4320   -7.7330   24.8310 O   0  0  0  0  0  0  0  0  0  0  0  0
   10.8480   -4.5590   25.8790 F   0  0  0  0  0  0  0  0  0  0  0  0
    8.7850    1.1660   21.1040 O   0  0  0  0  0  0  0  0  0  0  0  0
    8.3630    0.0600   21.4770 C   0  0  0  0  0  0  0  0  0  0  0  0
    9.0560   -0.7710   22.3170 N   0  0  0  0  0  0  0  0  0  0  0  0
    7.1230   -0.4400   21.0460 N   0  0  0  0  0  0  0  0  0  0  0  0
    8.2120   -2.6470   21.2660 C   0  0  0  0  0  0  0  0  0  0  0  0
    6.9500   -1.8940   21.1050 C   0  0  0  0  0  0  0  0  0  0  0  0
    8.0530   -3.0870   23.9630 C   0  0  0  0  0  0  0  0  0  0  0  0
    9.2560   -3.1520   24.8930 C   0  0  0  0  0  0  0  0  0  0  0  0
    9.7950   -4.4260   25.0680 C   0  0  0  0  0  0  0  0  0  0  0  0
    9.2890   -5.5400   24.4450 C   0  0  0  0  0  0  0  0  0  0  0  0
    8.2010   -5.5460   23.5860 C   0  0  0  0  0  0  0  0  0  0  0  0
    7.5590   -4.3830   23.3210 C   0  0  0  0  0  0  0  0  0  0  0  0
    4.8280   -4.5360   24.1710 C   0  0  0  0  0  0  0  0  0  0  0  0
    5.4760   -5.3360   23.2270 C   0  0  1  0  0  0  0  0  0  0  0  0
    4.5410   -6.1450   22.5160 C   0  0  0  0  0  0  0  0  0  0  0  0
    3.6530   -6.6500   23.9740 S   0  0  0  0  0  0  0  0  0  0  0  0
    3.7680   -5.1540   24.7050 C   0  0  0  0  0  0  0  0  0  0  0  0
   10.6720    0.5270   23.4150 C   0  0  0  0  0  0  0  0  0  0  0  0
   11.9620    0.8250   23.7280 C   0  0  0  0  0  0  0  0  0  0  0  0
   12.9950    0.0490   23.2420 C   0  0  0  0  0  0  0  0  0  0  0  0
   12.7210   -1.0200   22.4520 C   0  0  0  0  0  0  0  0  0  0  0  0
   11.4260   -1.3640   22.1060 C   0  0  0  0  0  0  0  0  0  0  0  0
   10.3950   -0.5660   22.5980 C   0  0  0  0  0  0  0  0  0  0  0  0
    5.2520    0.9380   20.2270 C   0  0  0  0  0  0  0  0  0  0  0  0
    4.6350    1.5450   19.1350 C   0  0  0  0  0  0  0  0  0  0  0  0
    5.1930    1.4050   17.8650 C   0  0  0  0  0  0  0  0  0  0  0  0
    6.3040    0.6980   17.6350 N   0  0  0  0  0  0  0  0  0  0  0  0
    6.8650    0.1280   18.7050 C   0  0  0  0  0  0  0  0  0  0  0  0
    6.4220    0.1990   20.0060 C   0  0  0  0  0  0  0  0  0  0  0  0
  1  2  2  0
  2  3  1  0
  2  4  1  0
  8  9  2  0
  9 10  1  0
  9 11  1  0
  3 12  1  0
 11 13  1  0
 12 13  1  0
 14 15  2  0
  7 16  1  0
 15 16  1  0
 16 17  2  0
 17 18  1  0
  4 19  1  0
 14 19  1  0
 18 19  2  0
 21  4  1  6
 20 21  1  0
 21 22  1  0
 23  5  1  0
  6 23  1  0
 22 23  1  0
 20 24  2  0
 23 24  1  0
 25 26  2  0
 26 27  1  0
 27 28  2  0
 28 29  1  0
 10 30  1  0
 25 30  1  0
 29 30  2  0
 31 32  2  0
 32 33  1  0
 33 34  2  0
 34 35  1  0
 11 36  1  0
 31 36  1  0
 35 36  2  0
M  END
