x1375-x2649
     RDKit          3D

 39 42  0  0  0  0  0  0  0  0999 V2000
    5.7370   -5.2470   20.1120 O   0  0  0  0  0  0  0  0  0  0  0  0
    6.6060   -4.7010   20.8910 C   0  0  0  0  0  0  0  0  0  0  0  0
    7.6480   -3.7690   20.3950 C   0  0  0  0  0  0  0  0  0  0  0  0
    6.5920   -4.8430   22.3470 N   0  0  0  0  0  0  0  0  0  0  0  0
    2.2710   -7.1690   23.4140 O   0  0  0  0  0  0  0  0  0  0  0  0
    4.4030   -7.6740   24.8300 O   0  0  0  0  0  0  0  0  0  0  0  0
   10.7670   -4.2490   25.8590 F   0  0  0  0  0  0  0  0  0  0  0  0
    7.2440   -0.3150   20.8120 N   0  0  0  0  0  0  0  0  0  0  0  0
    7.8150   -0.3620   24.0270 C   0  0  0  0  0  0  0  0  0  0  0  0
    8.6920    1.4210   21.3680 O   0  0  0  0  0  0  0  0  0  0  0  0
   13.2990   -1.9680   21.0990 Cl  0  0  0  0  0  0  0  0  0  0  0  0
    8.5390   -0.5860   22.7480 C   0  0  1  0  0  0  0  0  0  0  0  0
    8.1760    0.3050   21.6010 C   0  0  0  0  0  0  0  0  0  0  0  0
    4.8310    1.4130   21.6500 C   0  0  0  0  0  0  0  0  0  0  0  0
    6.8840   -2.5200   20.0620 C   0  0  0  0  0  0  0  0  0  0  0  0
    7.7270   -1.4770   20.1480 C   0  0  0  0  0  0  0  0  0  0  0  0
    8.1330   -3.3190   23.5830 C   0  0  0  0  0  0  0  0  0  0  0  0
    9.1970   -3.2220   24.4890 C   0  0  0  0  0  0  0  0  0  0  0  0
    9.7580   -4.3600   24.9890 C   0  0  0  0  0  0  0  0  0  0  0  0
    9.3420   -5.6570   24.6480 C   0  0  0  0  0  0  0  0  0  0  0  0
    8.2960   -5.7590   23.7510 C   0  0  0  0  0  0  0  0  0  0  0  0
    7.6970   -4.5440   23.2320 C   0  0  0  0  0  0  0  0  0  0  0  0
    4.7770   -4.4660   23.9880 C   0  0  0  0  0  0  0  0  0  0  0  0
    5.5560   -5.3950   23.1780 C   0  0  1  0  0  0  0  0  0  0  0  0
    4.7600   -6.2160   22.4580 C   0  0  0  0  0  0  0  0  0  0  0  0
    3.7120   -6.6400   23.8390 S   0  0  0  0  0  0  0  0  0  0  0  0
    3.6690   -5.0220   24.4830 C   0  0  0  0  0  0  0  0  0  0  0  0
    6.2260    0.8670   17.5690 N   0  0  0  0  0  0  0  0  0  0  0  0
    5.0840    1.7070   17.9150 C   0  0  0  0  0  0  0  0  0  0  0  0
    4.7010    1.8280   19.2330 C   0  0  0  0  0  0  0  0  0  0  0  0
    5.3540    1.1960   20.2670 C   0  0  0  0  0  0  0  0  0  0  0  0
    6.4470    0.4070   19.9460 C   0  0  0  0  0  0  0  0  0  0  0  0
    6.8270    0.2760   18.6260 C   0  0  0  0  0  0  0  0  0  0  0  0
   10.6250    0.1860   24.0220 C   0  0  0  0  0  0  0  0  0  0  0  0
   12.0180    0.2060   24.1390 C   0  0  0  0  0  0  0  0  0  0  0  0
   12.8190   -0.4630   23.2350 C   0  0  0  0  0  0  0  0  0  0  0  0
   12.3020   -1.1790   22.1900 C   0  0  0  0  0  0  0  0  0  0  0  0
   10.9570   -1.2250   22.0480 C   0  0  0  0  0  0  0  0  0  0  0  0
   10.0250   -0.5170   22.9790 C   0  0  0  0  0  0  0  0  0  0  0  0
  1  2  2  0
  2  3  1  0
  2  4  1  0
 12  9  1  1
  8 13  1  0
 10 13  2  0
 12 13  1  0
  3 15  1  0
  8 16  1  0
 15 16  1  0
 17 18  2  0
  7 19  1  0
 18 19  1  0
 19 20  2  0
 20 21  1  0
  4 22  1  0
 17 22  1  0
 21 22  2  0
 24  4  1  6
 23 24  1  0
 24 25  1  0
 26  5  1  0
  6 26  1  0
 25 26  1  0
 23 27  2  0
 26 27  1  0
 28 29  2  0
 29 30  1  0
 14 31  1  0
 30 31  2  0
  8 32  1  0
 31 32  1  0
 28 33  1  0
 32 33  2  0
 34 35  2  0
 35 36  1  0
 11 37  1  0
 36 37  2  0
 37 38  1  0
 12 39  1  0
 34 39  1  0
 38 39  2  0
M  END
