x1374-x0107
     RDKit          3D

 30 32  0  0  0  0  0  0  0  0999 V2000
   11.1210   -3.7570   25.0680 C   0  0  0  0  0  0  0  0  0  0  0  0
    6.2950   -4.7190   22.1880 N   0  0  0  0  0  0  0  0  0  0  0  0
    6.5060   -4.4670   20.8310 C   0  0  0  0  0  0  0  0  0  0  0  0
    5.6600   -4.8110   19.9940 O   0  0  0  0  0  0  0  0  0  0  0  0
    7.7830   -3.6990   20.6320 C   0  0  0  0  0  0  0  0  0  0  0  0
    2.3890   -6.8230   23.5520 O   0  0  0  0  0  0  0  0  0  0  0  0
    4.1210   -7.9170   24.9250 O   0  0  0  0  0  0  0  0  0  0  0  0
    9.9460   -1.4270   21.9820 C   0  0  0  0  0  0  0  0  0  0  0  0
    8.9950   -0.4310   21.4280 C   0  0  0  0  0  0  0  0  0  0  0  0
    9.1090    0.7980   21.5320 O   0  0  0  0  0  0  0  0  0  0  0  0
    7.9170   -1.0020   20.7390 N   0  0  0  0  0  0  0  0  0  0  0  0
    5.6960    0.5120   22.0010 C   0  0  0  0  0  0  0  0  0  0  0  0
    7.3200   -2.2430   21.0060 C   0  0  0  0  0  0  0  0  0  0  0  0
    9.8150   -4.2690   24.4070 C   0  0  0  0  0  0  0  0  0  0  0  0
    9.1720   -3.2370   23.8140 C   0  0  0  0  0  0  0  0  0  0  0  0
    8.0210   -3.4290   23.1210 C   0  0  0  0  0  0  0  0  0  0  0  0
    7.4960   -4.6500   23.0100 C   0  0  0  0  0  0  0  0  0  0  0  0
    8.0440   -5.7840   23.5980 C   0  0  0  0  0  0  0  0  0  0  0  0
    9.2220   -5.5450   24.3030 C   0  0  0  0  0  0  0  0  0  0  0  0
    4.7920   -4.5170   24.0680 C   0  0  0  0  0  0  0  0  0  0  0  0
    5.0440   -5.1820   22.8020 C   0  0  2  0  0  0  0  0  0  0  0  0
    4.9250   -6.5680   22.7680 C   0  0  0  0  0  0  0  0  0  0  0  0
    3.7370   -6.8150   24.0780 S   0  0  0  0  0  0  0  0  0  0  0  0
    4.0300   -5.3830   24.8950 C   0  0  0  0  0  0  0  0  0  0  0  0
    6.9910   -0.2520   20.0150 C   0  0  0  0  0  0  0  0  0  0  0  0
    5.9330    0.4770   20.5280 C   0  0  0  0  0  0  0  0  0  0  0  0
    5.0900    1.1750   19.6630 C   0  0  0  0  0  0  0  0  0  0  0  0
    5.3400    1.1170   18.3120 C   0  0  0  0  0  0  0  0  0  0  0  0
    6.3500    0.4200   17.7900 N   0  0  0  0  0  0  0  0  0  0  0  0
    7.1370   -0.2400   18.6530 C   0  0  0  0  0  0  0  0  0  0  0  0
  2  3  1  0
  3  4  2  0
  3  5  1  0
  8  9  1  0
  9 10  2  0
  9 11  1  0
  5 13  1  0
 11 13  1  0
  1 14  1  0
 14 15  2  0
 15 16  1  0
  2 17  1  0
 16 17  2  0
 17 18  1  0
 14 19  1  0
 18 19  2  0
 21  2  1  1
 20 21  1  0
 21 22  1  0
 23  6  1  0
  7 23  1  0
 22 23  1  0
 20 24  2  0
 23 24  1  0
 11 25  1  0
 12 26  1  0
 25 26  2  0
 26 27  1  0
 27 28  2  0
 28 29  1  0
 25 30  1  0
 29 30  2  0
M  END
