x1375-x1374
     RDKit          3D

 18 19  0  0  0  0  0  0  0  0999 V2000
    5.6840   -4.6030   19.9820 O   0  0  0  0  0  0  0  0  0  0  0  0
    6.5390   -4.3630   20.8890 C   0  0  0  0  0  0  0  0  0  0  0  0
    8.0280   -4.1000   20.7490 C   0  0  0  0  0  0  0  0  0  0  0  0
    6.1670   -4.3040   22.2610 N   0  0  0  0  0  0  0  0  0  0  0  0
    2.1100   -6.8040   24.0320 O   0  0  0  0  0  0  0  0  0  0  0  0
    4.5020   -7.9620   24.3890 O   0  0  0  0  0  0  0  0  0  0  0  0
   10.5660   -5.1800   25.7130 F   0  0  0  0  0  0  0  0  0  0  0  0
    7.8240   -3.3090   23.9430 C   0  0  0  0  0  0  0  0  0  0  0  0
    8.9510   -3.5110   24.8420 C   0  0  0  0  0  0  0  0  0  0  0  0
    9.5830   -4.8500   24.9470 C   0  0  0  0  0  0  0  0  0  0  0  0
    8.9970   -5.9110   24.0630 C   0  0  0  0  0  0  0  0  0  0  0  0
    7.8420   -5.6720   23.1540 C   0  0  0  0  0  0  0  0  0  0  0  0
    7.2580   -4.4150   23.0970 C   0  0  0  0  0  0  0  0  0  0  0  0
    5.1450   -4.6720   24.2800 C   0  0  0  0  0  0  0  0  0  0  0  0
    5.3560   -5.2710   23.0480 C   0  0  1  0  0  0  0  0  0  0  0  0
    4.3030   -5.9140   22.5690 C   0  0  0  0  0  0  0  0  0  0  0  0
    3.6900   -6.6550   24.0710 S   0  0  0  0  0  0  0  0  0  0  0  0
    4.1040   -5.4520   25.0630 C   0  0  0  0  0  0  0  0  0  0  0  0
  1  2  2  0
  2  3  1  0
  2  4  1  0
  8  9  2  0
  7 10  1  0
  9 10  1  0
 10 11  2  0
 11 12  1  0
  4 13  1  0
  8 13  1  0
 12 13  2  0
 15  4  1  6
 14 15  1  0
 15 16  1  0
 17  5  1  0
  6 17  1  0
 16 17  1  0
 14 18  2  0
 17 18  1  0
M  END
