x1374-x2572
     RDKit          3D

 39 42  0  0  0  0  0  0  0  0999 V2000
   10.9120   -3.9880   25.7270 C   0  0  0  0  0  0  0  0  0  0  0  0
    6.5700   -4.8980   22.1760 N   0  0  0  0  0  0  0  0  0  0  0  0
    6.5750   -4.5400   20.7840 C   0  0  0  0  0  0  0  0  0  0  0  0
    5.6290   -4.8850   20.0300 O   0  0  0  0  0  0  0  0  0  0  0  0
    7.7390   -3.6570   20.3660 C   0  0  0  0  0  0  0  0  0  0  0  0
    2.3290   -6.7990   23.8100 O   0  0  0  0  0  0  0  0  0  0  0  0
    4.4350   -7.7910   24.6400 O   0  0  0  0  0  0  0  0  0  0  0  0
    4.7580    1.3480   21.6330 C   0  0  0  0  0  0  0  0  0  0  0  0
    8.9660    1.5350   21.2660 O   0  0  0  0  0  0  0  0  0  0  0  0
    7.2930   -0.1070   21.1330 N   0  0  0  0  0  0  0  0  0  0  0  0
   13.8600   -1.7600   20.5520 N   0  0  0  0  0  0  0  0  0  0  0  0
    8.3210    0.5970   21.7350 C   0  0  0  0  0  0  0  0  0  0  0  0
    8.5320   -0.0150   23.1360 C   0  0  0  0  0  0  0  0  0  0  0  0
   13.1200   -1.4520   21.5620 C   0  0  0  0  0  0  0  0  0  0  0  0
    7.2730   -2.2220   20.1110 C   0  0  0  0  0  0  0  0  0  0  0  0
    7.4640   -1.4320   21.1880 C   0  0  0  0  0  0  0  0  0  0  0  0
    9.7860   -4.2690   24.7850 C   0  0  0  0  0  0  0  0  0  0  0  0
    9.1810   -3.2360   24.1480 C   0  0  0  0  0  0  0  0  0  0  0  0
    8.1120   -3.3550   23.2550 C   0  0  0  0  0  0  0  0  0  0  0  0
    7.6870   -4.6470   23.0440 C   0  0  0  0  0  0  0  0  0  0  0  0
    8.2870   -5.8000   23.6750 C   0  0  0  0  0  0  0  0  0  0  0  0
    9.3810   -5.5360   24.5810 C   0  0  0  0  0  0  0  0  0  0  0  0
    5.1220   -4.7180   24.0510 C   0  0  0  0  0  0  0  0  0  0  0  0
    5.5190   -5.4530   22.9320 C   0  0  1  0  0  0  0  0  0  0  0  0
    4.4740   -6.1640   22.4320 C   0  0  0  0  0  0  0  0  0  0  0  0
    3.7600   -6.7060   23.9690 S   0  0  0  0  0  0  0  0  0  0  0  0
    4.1380   -5.2840   24.7680 C   0  0  0  0  0  0  0  0  0  0  0  0
    6.2760    0.5880   17.6940 N   0  0  0  0  0  0  0  0  0  0  0  0
    6.9410    0.1470   18.7820 C   0  0  0  0  0  0  0  0  0  0  0  0
    6.5230    0.3630   20.0690 C   0  0  0  0  0  0  0  0  0  0  0  0
    5.3390    1.0550   20.2780 C   0  0  0  0  0  0  0  0  0  0  0  0
    4.6370    1.5170   19.1760 C   0  0  0  0  0  0  0  0  0  0  0  0
    5.1480    1.2650   17.9090 C   0  0  0  0  0  0  0  0  0  0  0  0
   10.6770   -0.0600   24.6830 C   0  0  0  0  0  0  0  0  0  0  0  0
   12.0470   -0.3260   24.8080 C   0  0  0  0  0  0  0  0  0  0  0  0
   12.8450   -0.7800   23.7940 C   0  0  0  0  0  0  0  0  0  0  0  0
   12.3010   -1.0080   22.5630 C   0  0  0  0  0  0  0  0  0  0  0  0
   10.8570   -0.8000   22.2200 C   0  0  0  0  0  0  0  0  0  0  0  0
    9.9910   -0.2880   23.3420 C   0  0  0  0  0  0  0  0  0  0  0  0
  2  3  1  0
  3  4  2  0
  3  5  1  0
  9 12  2  0
 10 12  1  0
 12 13  1  0
 11 14  3  0
  5 15  1  0
 10 16  1  0
 15 16  1  0
  1 17  1  0
 17 18  2  0
 18 19  1  0
  2 20  1  0
 19 20  2  0
 20 21  1  0
 17 22  1  0
 21 22  2  0
 24  2  1  6
 23 24  1  0
 24 25  1  0
 26  6  1  0
  7 26  1  0
 25 26  1  0
 23 27  2  0
 26 27  1  0
 28 29  2  0
 10 30  1  0
 29 30  1  0
  8 31  1  0
 30 31  2  0
 31 32  1  0
 28 33  1  0
 32 33  2  0
 34 35  2  0
 35 36  1  0
 14 37  1  0
 36 37  2  0
 37 38  1  0
 13 39  1  0
 34 39  1  0
 38 39  2  0
M  END
