x1375-x2643
     RDKit          3D

 36 39  0  0  0  0  0  0  0  0999 V2000
    5.5840   -5.3700   20.0760 O   0  0  0  0  0  0  0  0  0  0  0  0
    6.4000   -4.7520   20.8230 C   0  0  0  0  0  0  0  0  0  0  0  0
    7.2940   -3.6870   20.2800 C   0  0  0  0  0  0  0  0  0  0  0  0
    6.4370   -4.9600   22.2950 N   0  0  0  0  0  0  0  0  0  0  0  0
    2.0230   -6.7350   24.1830 O   0  0  0  0  0  0  0  0  0  0  0  0
    4.3480   -7.9920   24.4300 O   0  0  0  0  0  0  0  0  0  0  0  0
   10.6830   -4.3420   25.8500 F   0  0  0  0  0  0  0  0  0  0  0  0
    6.6510   -0.5110   21.0210 N   0  0  0  0  0  0  0  0  0  0  0  0
    8.2770    1.0430   21.5490 O   0  0  0  0  0  0  0  0  0  0  0  0
   13.5480    0.0840   22.8710 Cl  0  0  0  0  0  0  0  0  0  0  0  0
    8.4160   -1.1190   22.4530 C   0  0  1  0  0  0  0  0  0  0  0  0
    7.7880   -0.0770   21.6550 C   0  0  0  0  0  0  0  0  0  0  0  0
    7.9670   -3.3280   21.5720 C   0  0  0  0  0  0  0  0  0  0  0  0
    8.8190   -2.1400   21.4450 C   0  0  0  0  0  0  0  0  0  0  0  0
    7.8710   -3.4490   23.6950 C   0  0  0  0  0  0  0  0  0  0  0  0
    8.9460   -3.3430   24.5930 C   0  0  0  0  0  0  0  0  0  0  0  0
    9.6640   -4.4440   24.9870 C   0  0  0  0  0  0  0  0  0  0  0  0
    9.3090   -5.6770   24.4710 C   0  0  0  0  0  0  0  0  0  0  0  0
    8.2800   -5.7400   23.6120 C   0  0  0  0  0  0  0  0  0  0  0  0
    7.5070   -4.6640   23.1760 C   0  0  0  0  0  0  0  0  0  0  0  0
    5.2670   -5.0070   24.3210 C   0  0  0  0  0  0  0  0  0  0  0  0
    5.5220   -5.7750   23.0640 C   0  0  1  0  0  0  0  0  0  0  0  0
    4.1790   -6.0200   22.6240 C   0  0  0  0  0  0  0  0  0  0  0  0
    3.6100   -6.6250   24.1720 S   0  0  0  0  0  0  0  0  0  0  0  0
    4.2590   -5.3640   25.0320 C   0  0  0  0  0  0  0  0  0  0  0  0
   11.9420   -0.0120   23.1220 C   0  0  0  0  0  0  0  0  0  0  0  0
   11.1720    0.6540   24.0160 C   0  0  0  0  0  0  0  0  0  0  0  0
    9.8910    0.3600   23.9320 C   0  0  0  0  0  0  0  0  0  0  0  0
    9.6320   -0.5380   22.9560 C   0  0  0  0  0  0  0  0  0  0  0  0
   11.0660   -1.0420   22.1660 S   0  0  0  0  0  0  0  0  0  0  0  0
    6.3720    0.7900   17.5570 N   0  0  0  0  0  0  0  0  0  0  0  0
    6.8260    0.1230   18.6940 C   0  0  0  0  0  0  0  0  0  0  0  0
    6.1760    0.1310   19.8990 C   0  0  0  0  0  0  0  0  0  0  0  0
    4.9770    0.8310   20.0220 C   0  0  0  0  0  0  0  0  0  0  0  0
    4.4270    1.5360   18.9420 C   0  0  0  0  0  0  0  0  0  0  0  0
    5.1250    1.5160   17.7300 C   0  0  0  0  0  0  0  0  0  0  0  0
  1  2  2  0
  2  3  1  0
  2  4  1  0
  8 12  1  0
  9 12  2  0
 11 12  1  0
  3 13  1  0
 11 14  1  6
 13 14  1  0
 15 16  2  0
  7 17  1  0
 16 17  1  0
 17 18  2  0
 18 19  1  0
  4 20  1  0
 15 20  1  0
 19 20  2  0
 22  4  1  6
 21 22  1  0
 22 23  1  0
 24  5  1  0
  6 24  1  0
 23 24  1  0
 21 25  2  0
 24 25  1  0
 10 26  1  0
 26 27  2  0
 27 28  1  0
 11 29  1  0
 28 29  2  0
 26 30  1  0
 29 30  1  0
 31 32  2  0
  8 33  1  0
 32 33  1  0
 33 34  2  0
 34 35  1  0
 31 36  1  0
 35 36  2  0
M  END
