x1375-x2563
     RDKit          3D

 39 43  0  0  0  0  0  0  0  0999 V2000
    5.7300   -5.1160   20.0630 O   0  0  0  0  0  0  0  0  0  0  0  0
    6.5770   -4.6110   20.8610 C   0  0  0  0  0  0  0  0  0  0  0  0
    7.6190   -3.6190   20.4780 C   0  0  0  0  0  0  0  0  0  0  0  0
    6.4490   -4.9140   22.2470 N   0  0  0  0  0  0  0  0  0  0  0  0
    2.3150   -6.6440   24.0330 O   0  0  0  0  0  0  0  0  0  0  0  0
    4.3740   -7.9330   25.0400 O   0  0  0  0  0  0  0  0  0  0  0  0
   10.6530   -4.5030   25.9640 F   0  0  0  0  0  0  0  0  0  0  0  0
    8.3280   -0.4130   21.0840 C   0  0  0  0  0  0  0  0  0  0  0  0
    8.3180    0.8190   21.1870 O   0  0  0  0  0  0  0  0  0  0  0  0
    7.4560   -1.0610   20.0940 C   0  0  1  0  0  0  0  0  0  0  0  0
    9.1060   -1.2530   21.7950 N   0  0  0  0  0  0  0  0  0  0  0  0
    6.7570   -2.3420   20.3200 C   0  0  0  0  0  0  0  0  0  0  0  0
    7.9520   -3.2930   23.7440 C   0  0  0  0  0  0  0  0  0  0  0  0
    9.0940   -3.2430   24.7510 C   0  0  0  0  0  0  0  0  0  0  0  0
    9.6480   -4.4800   25.0820 C   0  0  0  0  0  0  0  0  0  0  0  0
    9.2240   -5.6770   24.5570 C   0  0  0  0  0  0  0  0  0  0  0  0
    8.1850   -5.7670   23.6330 C   0  0  0  0  0  0  0  0  0  0  0  0
    7.5390   -4.6650   23.2110 C   0  0  0  0  0  0  0  0  0  0  0  0
    5.0490   -4.5030   24.0960 C   0  0  0  0  0  0  0  0  0  0  0  0
    5.0900   -5.0370   22.7980 C   0  0  2  0  0  0  0  0  0  0  0  0
    4.7640   -6.4730   22.7560 C   0  0  0  0  0  0  0  0  0  0  0  0
    3.8840   -6.6550   24.2730 S   0  0  0  0  0  0  0  0  0  0  0  0
    4.4210   -5.2630   25.0020 C   0  0  0  0  0  0  0  0  0  0  0  0
    6.1700    1.0380   17.4800 N   0  0  0  0  0  0  0  0  0  0  0  0
    5.0760    1.6080   18.0090 C   0  0  0  0  0  0  0  0  0  0  0  0
    4.6350    1.3700   19.3080 C   0  0  0  0  0  0  0  0  0  0  0  0
    5.3790    0.4780   20.1060 C   0  0  0  0  0  0  0  0  0  0  0  0
    6.4740   -0.0800   19.5350 C   0  0  0  0  0  0  0  0  0  0  0  0
    6.8170    0.2150   18.2930 C   0  0  0  0  0  0  0  0  0  0  0  0
    3.4880    2.0050   19.7920 C   0  0  0  0  0  0  0  0  0  0  0  0
    3.0510    1.7680   21.0910 C   0  0  0  0  0  0  0  0  0  0  0  0
    3.7680    0.8880   21.9070 C   0  0  0  0  0  0  0  0  0  0  0  0
    4.9140    0.2520   21.4220 C   0  0  0  0  0  0  0  0  0  0  0  0
   11.3250   -0.8340   22.5040 C   0  0  0  0  0  0  0  0  0  0  0  0
   12.2560   -0.4460   23.4470 C   0  0  0  0  0  0  0  0  0  0  0  0
   11.8520   -0.0670   24.7070 C   0  0  0  0  0  0  0  0  0  0  0  0
   10.5070   -0.0400   25.0890 C   0  0  0  0  0  0  0  0  0  0  0  0
    9.4300   -0.4290   24.1390 C   0  0  0  0  0  0  0  0  0  0  0  0
    9.9620   -0.8430   22.7890 C   0  0  0  0  0  0  0  0  0  0  0  0
  1  2  2  0
  2  3  1  0
  2  4  1  0
  8  9  2  0
  8 10  1  0
  8 11  1  0
  3 12  1  0
 10 12  1  1
 13 14  2  0
  7 15  1  0
 14 15  1  0
 15 16  2  0
 16 17  1  0
  4 18  1  0
 13 18  1  0
 17 18  2  0
 20  4  1  1
 19 20  1  0
 20 21  1  0
 22  5  1  0
  6 22  1  0
 21 22  1  0
 19 23  2  0
 22 23  1  0
 24 25  2  0
 25 26  1  0
 26 27  2  0
 10 28  1  0
 27 28  1  0
 24 29  1  0
 28 29  2  0
 26 30  1  0
 30 31  2  0
 31 32  1  0
 27 33  1  0
 32 33  2  0
 34 35  2  0
 35 36  1  0
 36 37  2  0
 37 38  1  0
 11 39  1  0
 34 39  1  0
 38 39  2  0
M  END
