x1375-x3080
     RDKit          3D

 43 47  0  0  0  0  0  0  0  0999 V2000
   10.1600   -0.4370   23.0750 N   0  0  0  0  0  0  0  0  0  0  0  0
   10.9360    0.8140   23.1660 C   0  0  0  0  0  0  0  0  0  0  0  0
    9.0020    1.3460   21.2570 O   0  0  0  0  0  0  0  0  0  0  0  0
    9.7570   -0.8800   21.8290 C   0  0  0  0  0  0  0  0  0  0  0  0
    7.5900   -0.4520   20.8570 N   0  0  0  0  0  0  0  0  0  0  0  0
    7.7340   -1.0950   23.7100 O   0  0  0  0  0  0  0  0  0  0  0  0
    8.7500    0.1320   21.2960 C   0  0  0  0  0  0  0  0  0  0  0  0
    9.1880    0.2210   25.4710 O   0  0  0  0  0  0  0  0  0  0  0  0
    5.3220    0.9120   21.7530 C   0  0  0  0  0  0  0  0  0  0  0  0
    9.1860   -0.8910   24.3260 S   0  0  0  0  0  0  0  0  0  0  0  0
    5.4200   -4.4550   19.9160 O   0  0  0  0  0  0  0  0  0  0  0  0
    6.1740   -4.3210   20.9150 C   0  0  0  0  0  0  0  0  0  0  0  0
    7.7310   -4.3500   20.9180 C   0  0  0  0  0  0  0  0  0  0  0  0
    5.6460   -4.1370   22.2420 N   0  0  0  0  0  0  0  0  0  0  0  0
    2.1680   -6.9900   23.9230 O   0  0  0  0  0  0  0  0  0  0  0  0
    4.3900   -7.8500   25.0430 O   0  0  0  0  0  0  0  0  0  0  0  0
    6.2110    0.5940   17.6260 N   0  0  0  0  0  0  0  0  0  0  0  0
    5.1390    1.2650   18.0540 C   0  0  0  0  0  0  0  0  0  0  0  0
    4.8070    1.3910   19.3950 C   0  0  0  0  0  0  0  0  0  0  0  0
    5.6140    0.8130   20.3390 C   0  0  0  0  0  0  0  0  0  0  0  0
    6.7400    0.1210   19.9230 C   0  0  0  0  0  0  0  0  0  0  0  0
    6.9560    0.0540   18.6100 C   0  0  0  0  0  0  0  0  0  0  0  0
   11.8680   -1.1750   25.1030 N   0  0  0  0  0  0  0  0  0  0  0  0
   11.2220   -2.2930   25.2090 C   0  0  0  0  0  0  0  0  0  0  0  0
   11.8320   -3.4420   25.6560 C   0  0  0  0  0  0  0  0  0  0  0  0
   13.2230   -3.5520   26.0410 C   0  0  0  0  0  0  0  0  0  0  0  0
   13.8810   -2.3090   25.8640 C   0  0  0  0  0  0  0  0  0  0  0  0
   13.0820   -1.1640   25.3770 C   0  0  0  0  0  0  0  0  0  0  0  0
    9.4410   -3.5340   24.8030 C   0  0  0  0  0  0  0  0  0  0  0  0
   10.0000   -4.6410   25.2980 C   0  0  0  0  0  0  0  0  0  0  0  0
   11.1660   -4.5650   25.7400 C   0  0  0  0  0  0  0  0  0  0  0  0
    9.9300   -2.3540   24.8260 C   0  0  0  0  0  0  0  0  0  0  0  0
    7.3650   -3.4950   23.6890 C   0  0  0  0  0  0  0  0  0  0  0  0
    8.4660   -3.9920   24.2440 C   0  0  0  0  0  0  0  0  0  0  0  0
    8.8670   -5.3140   24.1780 C   0  0  0  0  0  0  0  0  0  0  0  0
    8.1870   -6.2320   23.5090 C   0  0  0  0  0  0  0  0  0  0  0  0
    7.0890   -5.7870   22.8940 C   0  0  0  0  0  0  0  0  0  0  0  0
    6.7230   -4.4500   22.9910 C   0  0  0  0  0  0  0  0  0  0  0  0
    4.3480   -4.3190   24.1500 C   0  0  0  0  0  0  0  0  0  0  0  0
    4.5120   -4.8050   22.8670 C   0  0  2  0  0  0  0  0  0  0  0  0
    4.5770   -6.3250   22.8170 C   0  0  0  0  0  0  0  0  0  0  0  0
    3.6800   -6.6600   24.2900 S   0  0  0  0  0  0  0  0  0  0  0  0
    3.9010   -5.1920   25.0690 C   0  0  0  0  0  0  0  0  0  0  0  0
  1  2  1  0
  1  4  1  0
  3  7  2  0
  4  7  1  0
  5  7  1  0
 10  1  1  0
  6 10  2  0
  8 10  2  0
 11 12  2  0
 12 13  1  0
 12 14  1  0
 17 18  2  0
 18 19  1  0
  9 20  1  0
 19 20  2  0
  5 21  1  0
 20 21  1  0
 17 22  1  0
 21 22  2  0
 23 24  2  0
 24 25  1  0
 25 26  2  0
 26 27  1  0
 23 28  1  0
 27 28  2  0
 29 30  1  0
 25 31  1  0
 30 31  2  0
 10 32  1  0
 24 32  1  0
 29 32  2  0
 29 34  1  0
 33 34  2  0
 34 35  1  0
 35 36  2  0
 36 37  1  0
 14 38  1  0
 33 38  1  0
 37 38  2  0
 40 14  1  1
 39 40  1  0
 40 41  1  0
 42 15  1  0
 16 42  1  0
 41 42  1  0
 39 43  2  0
 42 43  1  0
M  END
