x1374-x1493
     RDKit          3D

 21 22  0  0  0  0  0  0  0  0999 V2000
   10.9120   -4.0140   25.5620 C   0  0  0  0  0  0  0  0  0  0  0  0
    6.4770   -4.7840   22.0720 N   0  0  0  0  0  0  0  0  0  0  0  0
    6.3350   -4.5470   20.6670 C   0  0  0  0  0  0  0  0  0  0  0  0
    5.4860   -5.1970   20.0430 O   0  0  0  0  0  0  0  0  0  0  0  0
    7.1510   -3.4960   19.9410 C   0  0  0  0  0  0  0  0  0  0  0  0
    2.3450   -6.1350   24.0920 O   0  0  0  0  0  0  0  0  0  0  0  0
    3.9350   -8.0490   24.3610 O   0  0  0  0  0  0  0  0  0  0  0  0
    4.7040   -5.4860   26.4390 C   0  0  0  0  0  0  0  0  0  0  0  0
    7.2870   -5.3620   27.0520 O   0  0  0  0  0  0  0  0  0  0  0  0
    6.0710   -5.3830   26.9960 C   0  0  0  0  0  0  0  0  0  0  0  0
    9.7440   -4.1620   24.5930 C   0  0  0  0  0  0  0  0  0  0  0  0
    9.2100   -2.9760   23.8160 C   0  0  0  0  0  0  0  0  0  0  0  0
    8.1290   -3.1630   22.9590 C   0  0  0  0  0  0  0  0  0  0  0  0
    7.5800   -4.4150   22.8410 C   0  0  0  0  0  0  0  0  0  0  0  0
    8.0920   -5.5100   23.5530 C   0  0  0  0  0  0  0  0  0  0  0  0
    9.1280   -5.3820   24.3910 C   0  0  0  0  0  0  0  0  0  0  0  0
    5.8490   -5.3720   24.1210 C   0  0  0  0  0  0  0  0  0  0  0  0
    5.7420   -5.8330   22.8100 C   0  0  1  0  0  0  0  0  0  0  0  0
    4.3790   -6.1540   22.4560 C   0  0  0  0  0  0  0  0  0  0  0  0
    3.6770   -6.6820   24.0010 S   0  0  0  0  0  0  0  0  0  0  0  0
    4.7980   -5.7670   24.9770 C   0  0  0  0  0  0  0  0  0  0  0  0
  2  3  1  0
  3  4  2  0
  3  5  1  0
  8 10  1  0
  9 10  2  0
  1 11  1  0
 11 12  2  0
 12 13  1  0
  2 14  1  0
 13 14  2  0
 14 15  1  0
 11 16  1  0
 15 16  2  0
 18  2  1  6
 17 18  1  0
 18 19  1  0
 20  6  1  0
  7 20  1  0
 19 20  1  0
  8 21  1  0
 17 21  2  0
 20 21  1  0
M  END
