x1375-x2600
     RDKit          3D

 38 41  0  0  0  0  0  0  0  0999 V2000
    5.7660   -4.5430   19.9780 O   0  0  0  0  0  0  0  0  0  0  0  0
    6.6850   -4.3370   20.8490 C   0  0  0  0  0  0  0  0  0  0  0  0
    8.0750   -3.8270   20.5770 C   0  0  0  0  0  0  0  0  0  0  0  0
    6.4490   -4.6090   22.2370 N   0  0  0  0  0  0  0  0  0  0  0  0
    2.3770   -6.7150   23.8910 O   0  0  0  0  0  0  0  0  0  0  0  0
    4.3870   -7.9170   24.9510 O   0  0  0  0  0  0  0  0  0  0  0  0
   10.6310   -4.5490   26.0000 F   0  0  0  0  0  0  0  0  0  0  0  0
   13.8940   -1.6670   20.5110 N   0  0  0  0  0  0  0  0  0  0  0  0
    8.2510    0.3690   21.8010 C   0  0  0  0  0  0  0  0  0  0  0  0
    8.8990    1.2980   21.2680 O   0  0  0  0  0  0  0  0  0  0  0  0
    8.6690   -0.1660   23.1310 C   0  0  0  0  0  0  0  0  0  0  0  0
    7.0940   -0.2170   21.2220 N   0  0  0  0  0  0  0  0  0  0  0  0
   13.1170   -1.3930   21.5530 C   0  0  0  0  0  0  0  0  0  0  0  0
    8.1500   -2.3060   20.7920 C   0  0  0  0  0  0  0  0  0  0  0  0
    6.9270   -1.6720   21.3960 C   0  0  0  0  0  0  0  0  0  0  0  0
    7.9380   -3.3610   23.8750 C   0  0  0  0  0  0  0  0  0  0  0  0
    8.9600   -3.3660   24.7900 C   0  0  0  0  0  0  0  0  0  0  0  0
    9.6330   -4.5330   25.1060 C   0  0  0  0  0  0  0  0  0  0  0  0
    9.2350   -5.6530   24.4720 C   0  0  0  0  0  0  0  0  0  0  0  0
    8.1960   -5.7390   23.5180 C   0  0  0  0  0  0  0  0  0  0  0  0
    7.5460   -4.5400   23.2320 C   0  0  0  0  0  0  0  0  0  0  0  0
    4.9560   -4.4460   24.0950 C   0  0  0  0  0  0  0  0  0  0  0  0
    5.1040   -4.9410   22.7320 C   0  0  2  0  0  0  0  0  0  0  0  0
    4.8920   -6.3790   22.6800 C   0  0  0  0  0  0  0  0  0  0  0  0
    3.9420   -6.6300   24.1630 S   0  0  0  0  0  0  0  0  0  0  0  0
    4.3520   -5.2310   24.9910 C   0  0  0  0  0  0  0  0  0  0  0  0
    6.3310    0.6030   17.6910 N   0  0  0  0  0  0  0  0  0  0  0  0
    6.8880    0.0950   18.7920 C   0  0  0  0  0  0  0  0  0  0  0  0
    6.4580    0.3390   20.0400 C   0  0  0  0  0  0  0  0  0  0  0  0
    5.3700    1.1480   20.2760 C   0  0  0  0  0  0  0  0  0  0  0  0
    4.7430    1.7050   19.1710 C   0  0  0  0  0  0  0  0  0  0  0  0
    5.1810    1.4730   17.8620 C   0  0  0  0  0  0  0  0  0  0  0  0
   10.6980   -0.1420   24.6080 C   0  0  0  0  0  0  0  0  0  0  0  0
   12.0680   -0.3390   24.8300 C   0  0  0  0  0  0  0  0  0  0  0  0
   12.8520   -0.7590   23.7910 C   0  0  0  0  0  0  0  0  0  0  0  0
   12.2940   -0.9820   22.5700 C   0  0  0  0  0  0  0  0  0  0  0  0
   10.9480   -0.8030   22.3230 C   0  0  0  0  0  0  0  0  0  0  0  0
   10.1470   -0.3780   23.3480 C   0  0  0  0  0  0  0  0  0  0  0  0
  1  2  2  0
  2  3  1  0
  2  4  1  0
  9 10  2  0
  9 11  1  0
  9 12  1  0
  8 13  3  0
  3 14  1  0
 12 15  1  0
 14 15  1  0
 16 17  2  0
  7 18  1  0
 17 18  1  0
 18 19  2  0
 19 20  1  0
  4 21  1  0
 16 21  1  0
 20 21  2  0
 23  4  1  1
 22 23  1  0
 23 24  1  0
 25  5  1  0
  6 25  1  0
 24 25  1  0
 22 26  2  0
 25 26  1  0
 27 28  2  0
 12 29  1  0
 28 29  1  0
 29 30  2  0
 30 31  1  0
 27 32  1  0
 31 32  2  0
 33 34  2  0
 34 35  1  0
 13 36  1  0
 35 36  2  0
 36 37  1  0
 11 38  1  0
 33 38  1  0
 37 38  2  0
M  END
