x1382-x2540
     RDKit          3D

 28 29  0  0  0  0  0  0  0  0999 V2000
    6.0940   -1.0180   22.3120 N   0  0  0  0  0  0  0  0  0  0  0  0
    7.2560   -3.9740   20.3970 C   0  0  0  0  0  0  0  0  0  0  0  0
    4.8350   -3.0450   21.3270 O   0  0  0  0  0  0  0  0  0  0  0  0
    7.2950   -2.6320   21.0700 C   0  0  1  0  0  0  0  0  0  0  0  0
    7.9860    1.6380   23.1270 N   0  0  0  0  0  0  0  0  0  0  0  0
    8.5600    1.1750   20.9490 O   0  0  0  0  0  0  0  0  0  0  0  0
    5.9500   -2.2540   21.5690 C   0  0  0  0  0  0  0  0  0  0  0  0
    6.4020    0.3820   21.7360 C   0  0  1  0  0  0  0  0  0  0  0  0
    7.7570    1.0670   21.8830 C   0  0  0  0  0  0  0  0  0  0  0  0
    8.8450    2.6970   23.3780 C   0  0  0  0  0  0  0  0  0  0  0  0
    8.7780    2.9720   24.8560 C   0  0  0  0  0  0  0  0  0  0  0  0
    8.3730    3.9740   22.6200 C   0  0  0  0  0  0  0  0  0  0  0  0
   10.3030    2.4190   22.9530 C   0  0  0  0  0  0  0  0  0  0  0  0
   11.8300   -1.3580   23.6240 C   0  0  0  0  0  0  0  0  0  0  0  0
   12.6030   -1.0660   22.5430 C   0  0  0  0  0  0  0  0  0  0  0  0
   11.8410   -0.1400   24.5580 C   0  0  0  0  0  0  0  0  0  0  0  0
   12.5180   -2.5070   24.3930 C   0  0  0  0  0  0  0  0  0  0  0  0
    6.3660    0.3490   17.9470 N   0  0  0  0  0  0  0  0  0  0  0  0
    5.2040    1.2430   17.7340 C   0  0  0  0  0  0  0  0  0  0  0  0
    4.5020    1.7720   18.8800 C   0  0  0  0  0  0  0  0  0  0  0  0
    4.9240    1.4510   20.1450 C   0  0  0  0  0  0  0  0  0  0  0  0
    6.0200    0.6220   20.3200 C   0  0  0  0  0  0  0  0  0  0  0  0
    6.7090    0.0880   19.2200 C   0  0  0  0  0  0  0  0  0  0  0  0
    9.4890   -2.1360   24.1020 O   0  0  0  0  0  0  0  0  0  0  0  0
    8.2730   -2.4800   23.4680 N   0  0  0  0  0  0  0  0  0  0  0  0
    8.4360   -2.3240   22.1250 C   0  0  0  0  0  0  0  0  0  0  0  0
    9.7600   -1.8680   21.9680 C   0  0  0  0  0  0  0  0  0  0  0  0
   10.4200   -1.7600   23.1760 C   0  0  0  0  0  0  0  0  0  0  0  0
  4  2  1  1
  1  7  1  0
  3  7  2  0
  4  7  1  0
  8  1  1  6
  5  9  1  0
  6  9  2  0
  8  9  1  0
 10  5  1  0
 10 11  1  0
 10 12  1  0
 10 13  1  0
 14 15  1  0
 14 16  1  0
 14 17  1  0
 18 19  2  0
 19 20  1  0
 20 21  2  0
  8 22  1  0
 21 22  1  0
 18 23  1  0
 22 23  2  0
 24 25  1  0
  4 26  1  0
 25 26  2  0
 26 27  1  0
 14 28  1  0
 24 28  1  0
 27 28  2  0
M  END
