x1382-x1412
     RDKit          3D

 25 32  0  0  0  0  0  0  0  0999 V2000
   13.2940   -2.1640   21.6230 Cl  0  0  0  0  0  0  0  0  0  0  0  0
    8.4060   -1.8630   24.4820 C   0  0  0  0  0  0  0  0  0  0  0  0
    7.5780   -1.9420   21.6980 N   0  0  0  0  0  0  0  0  0  0  0  0
   10.0410   -2.5670   20.8470 O   0  0  0  0  0  0  0  0  0  0  0  0
    7.6010   -2.8870   19.2810 C   0  0  0  0  0  0  0  0  0  0  0  0
    5.3410   -3.9440   19.4680 O   0  0  0  0  0  0  0  0  0  0  0  0
    6.3650   -3.3940   19.8820 C   0  0  0  0  0  0  0  0  0  0  0  0
    8.3220   -3.0990   24.9120 C   0  0  0  0  0  0  0  0  0  0  0  0
    9.8130   -0.4190   22.6780 C   0  0  0  0  0  0  0  0  0  0  0  0
   10.8030   -1.4250   22.1980 C   0  0  0  0  0  0  0  0  0  0  0  0
   12.1840   -1.0500   22.1930 C   0  0  0  0  0  0  0  0  0  0  0  0
   12.3820    0.2100   22.6590 C   0  0  0  0  0  0  0  0  0  0  0  0
   11.3930    1.0890   23.0880 C   0  0  0  0  0  0  0  0  0  0  0  0
    9.9330    1.0140   23.2030 C   0  0  0  0  0  0  0  0  0  0  0  0
    6.7730   -2.9900   21.2880 C   0  0  1  0  0  0  0  0  0  0  0  0
    8.1200   -2.4680   21.1170 S   0  0  0  0  0  0  0  0  0  0  0  0
    8.1660   -1.4290   22.4920 S   0  0  0  0  0  0  0  0  0  0  0  0
    7.9430   -2.7820   23.5330 C   0  0  2  0  0  0  0  0  0  0  0  0
    6.6230   -3.0970   23.5780 C   0  0  0  0  0  0  0  0  0  0  0  0
    6.1700   -3.7630   22.3880 C   0  0  0  0  0  0  0  0  0  0  0  0
    9.2500   -5.1740   25.9650 C   0  0  0  0  0  0  0  0  0  0  0  0
    8.4390   -4.0980   25.9690 C   0  0  0  0  0  0  0  0  0  0  0  0
    7.6100   -4.1610   27.4050 S   0  0  0  0  0  0  0  0  0  0  0  0
    8.3310   -5.6400   28.0070 C   0  0  0  0  0  0  0  0  0  0  0  0
    9.2230   -5.9830   26.9780 C   0  0  0  0  0  0  0  0  0  0  0  0
  5  7  1  0
  6  7  2  0
  2  8  2  0
  9 10  2  0
  1 11  1  0
 10 11  1  0
 11 12  2  0
 12 13  1  0
  9 14  1  0
 13 14  2  0
  3 15  1  0
 15  7  1  6
  3 16  1  0
  4 16  1  0
  5 16  1  0
 15 16  1  0
  2 17  1  0
  3 17  1  0
  9 17  1  0
 16 17  1  0
  2 18  1  0
 18  8  1  6
 17 18  1  0
 18 19  1  0
 15 20  1  0
 19 20  1  0
  8 22  1  0
 21 22  2  0
 22 23  1  0
 23 24  1  0
 21 25  1  0
 24 25  2  0
M  END
