x1386-x0736
     RDKit          3D

 22 24  0  0  0  0  0  0  0  0999 V2000
    7.3220   -3.0050   18.8340 C   0  0  0  0  0  0  0  0  0  0  0  0
    5.4180   -4.1450   19.7420 O   0  0  0  0  0  0  0  0  0  0  0  0
    6.4080   -3.3900   19.9440 C   0  0  0  0  0  0  0  0  0  0  0  0
    5.9890   -2.5180   25.2120 O   0  0  0  0  0  0  0  0  0  0  0  0
    7.1700   -2.3070   24.9200 C   0  0  0  0  0  0  0  0  0  0  0  0
    9.9840   -2.4360   22.6590 C   0  0  0  0  0  0  0  0  0  0  0  0
    6.6550   -2.9440   21.2650 N   0  0  0  0  0  0  0  0  0  0  0  0
    7.7170   -1.9480   21.5200 C   0  0  0  0  0  0  0  0  0  0  0  0
    8.5000   -2.0940   22.8560 C   0  0  1  0  0  0  0  0  0  0  0  0
    7.7880   -2.9360   23.8320 N   0  0  0  0  0  0  0  0  0  0  0  0
    7.1410   -4.1140   23.2540 C   0  0  0  0  0  0  0  0  0  0  0  0
    6.1310   -3.7380   22.3800 C   0  0  0  0  0  0  0  0  0  0  0  0
    8.3770   -0.1830   25.1090 O   0  0  0  0  0  0  0  0  0  0  0  0
    7.9900   -1.3910   25.6710 C   0  0  0  0  0  0  0  0  0  0  0  0
    8.5280   -1.4610   26.9530 C   0  0  0  0  0  0  0  0  0  0  0  0
    9.2140   -0.3520   27.1580 C   0  0  0  0  0  0  0  0  0  0  0  0
    9.1370    0.4550   26.0330 C   0  0  0  0  0  0  0  0  0  0  0  0
   12.2700   -1.2180   22.3780 C   0  0  0  0  0  0  0  0  0  0  0  0
   10.9190   -1.2910   22.9780 C   0  0  0  0  0  0  0  0  0  0  0  0
   10.6990   -0.1410   23.8650 C   0  0  0  0  0  0  0  0  0  0  0  0
   12.1750    0.8010   23.7830 S   0  0  0  0  0  0  0  0  0  0  0  0
   12.9730   -0.2010   22.7250 C   0  0  0  0  0  0  0  0  0  0  0  0
  1  3  1  0
  2  3  2  0
  4  5  2  0
  3  7  1  0
  7  8  1  0
  9  6  1  6
  8  9  1  0
  5 10  1  0
  9 10  1  0
 10 11  1  0
  7 12  1  0
 11 12  1  0
  5 14  1  0
 13 14  1  0
 14 15  2  0
 15 16  1  0
 13 17  1  0
 16 17  2  0
  6 19  1  0
 18 19  1  0
 19 20  2  0
 20 21  1  0
 18 22  2  0
 21 22  1  0
M  END
