x1385-x0946
     RDKit          3D

 30 32  0  0  0  0  0  0  0  0999 V2000
    7.4170   -2.9890   18.7990 C   0  0  0  0  0  0  0  0  0  0  0  0
    5.5020   -4.0340   19.7140 O   0  0  0  0  0  0  0  0  0  0  0  0
    6.4610   -3.2360   19.9140 C   0  0  0  0  0  0  0  0  0  0  0  0
    9.5360   -3.2660   23.8420 C   0  0  2  0  0  0  0  0  0  0  0  0
    7.0710   -5.8160   28.6070 Br  0  0  0  0  0  0  0  0  0  0  0  0
    8.9600    5.4650   22.8000 N   0  0  0  0  0  0  0  0  0  0  0  0
   10.0620    5.5810   25.1650 O   0  0  0  0  0  0  0  0  0  0  0  0
   11.3980    6.4170   23.3040 O   0  0  0  0  0  0  0  0  0  0  0  0
   13.2240   -0.3380   22.7830 Se  0  0  0  0  0  2  0  0  0  0  0  0
   10.4090    5.3580   23.7350 S   0  0  0  0  0  0  0  0  0  0  0  0
   10.5860   -2.2990   24.1650 C   0  0  0  0  0  0  0  0  0  0  0  0
   11.8910   -2.4700   23.5310 C   0  0  0  0  0  0  0  0  0  0  0  0
   11.9460   -1.6510   22.2590 C   0  0  0  0  0  0  0  0  0  0  0  0
    6.6810   -2.5750   21.1750 N   0  0  0  0  0  0  0  0  0  0  0  0
    6.3980   -3.3890   22.3030 C   0  0  0  0  0  0  0  0  0  0  0  0
    7.6120   -3.9460   22.6960 C   0  0  0  0  0  0  0  0  0  0  0  0
    8.4210   -2.7680   23.1480 N   0  0  0  0  0  0  0  0  0  0  0  0
    8.8620   -2.0340   21.9310 C   0  0  0  0  0  0  0  0  0  0  0  0
    7.7100   -1.5780   21.2780 C   0  0  0  0  0  0  0  0  0  0  0  0
    9.6800   -5.4120   25.3310 C   0  0  0  0  0  0  0  0  0  0  0  0
    9.1790   -4.1650   24.9510 C   0  0  0  0  0  0  0  0  0  0  0  0
    7.9500   -3.8730   26.1510 S   0  0  0  0  0  0  0  0  0  0  0  0
    8.0760   -5.2750   27.0680 C   0  0  0  0  0  0  0  0  0  0  0  0
    9.1500   -6.0040   26.3970 C   0  0  0  0  0  0  0  0  0  0  0  0
   12.3550    1.3170   23.0850 C   0  0  0  0  0  0  0  0  0  0  0  0
   12.9680    2.5040   22.7670 C   0  0  0  0  0  0  0  0  0  0  0  0
   12.3920    3.7390   22.9540 C   0  0  0  0  0  0  0  0  0  0  0  0
   11.1190    3.7970   23.5040 C   0  0  0  0  0  0  0  0  0  0  0  0
   10.4720    2.6320   23.8400 C   0  0  0  0  0  0  0  0  0  0  0  0
   11.0750    1.4000   23.6360 C   0  0  0  0  0  0  0  0  0  0  0  0
  1  3  1  0
  2  3  2  0
 10  6  1  0
  7 10  2  0
  8 10  2  0
  4 11  1  1
 11 12  1  0
  9 13  1  0
 12 13  1  0
  3 14  1  0
 14 15  1  0
 15 16  1  0
  4 17  1  0
 16 17  1  0
 17 18  1  0
 14 19  1  0
 18 19  1  0
  4 21  1  0
 20 21  2  0
 21 22  1  0
  5 23  1  0
 22 23  1  0
 20 24  1  0
 23 24  2  0
  9 25  1  0
 25 26  2  0
 26 27  1  0
 10 28  1  0
 27 28  2  0
 28 29  1  0
 25 30  1  0
 29 30  2  0
M  END
