x1386-x1249
     RDKit          3D

 28 30  0  0  0  0  0  0  0  0999 V2000
    8.1840    0.5000   24.9270 N   0  0  0  0  0  0  0  0  0  0  0  0
    7.4830    1.3410   24.0530 C   0  0  0  0  0  0  0  0  0  0  0  0
    7.9670    2.4090   23.6350 O   0  0  0  0  0  0  0  0  0  0  0  0
    9.4970    0.6710   25.2680 C   0  0  0  0  0  0  0  0  0  0  0  0
   13.8070   -1.7540   20.6560 N   0  0  0  0  0  0  0  0  0  0  0  0
   13.2220   -1.3700   21.5180 C   0  0  0  0  0  0  0  0  0  0  0  0
    7.3430   -2.9530   18.6670 C   0  0  0  0  0  0  0  0  0  0  0  0
    5.4560   -3.9990   19.6880 O   0  0  0  0  0  0  0  0  0  0  0  0
    6.4010   -3.1610   19.7860 C   0  0  0  0  0  0  0  0  0  0  0  0
    9.1650   -2.1280   24.0520 C   0  0  0  0  0  0  0  0  0  0  0  0
    3.6360    0.4520   23.5240 O   0  0  0  0  0  0  0  0  0  0  0  0
    4.1520    1.1830   22.4110 C   0  0  0  0  0  0  0  0  0  0  0  0
    5.4980    1.5430   22.5440 C   0  0  0  0  0  0  0  0  0  0  0  0
    6.2260    0.8840   23.6890 N   0  0  0  0  0  0  0  0  0  0  0  0
    5.4810    0.6210   24.9210 C   0  0  0  0  0  0  0  0  0  0  0  0
    4.1050    0.8240   24.7600 C   0  0  0  0  0  0  0  0  0  0  0  0
   11.6660    0.9260   23.8820 C   0  0  0  0  0  0  0  0  0  0  0  0
   12.5920    0.4220   22.9630 C   0  0  0  0  0  0  0  0  0  0  0  0
   12.3560   -0.8470   22.4540 C   0  0  0  0  0  0  0  0  0  0  0  0
   11.2490   -1.6990   22.7990 C   0  0  0  0  0  0  0  0  0  0  0  0
   10.2980   -1.1890   23.7470 C   0  0  0  0  0  0  0  0  0  0  0  0
   10.4750    0.0850   24.2840 C   0  0  0  0  0  0  0  0  0  0  0  0
    6.6340   -2.4220   20.9540 N   0  0  0  0  0  0  0  0  0  0  0  0
    7.6970   -1.3690   20.9290 C   0  0  0  0  0  0  0  0  0  0  0  0
    8.7570   -1.7760   21.7610 C   0  0  0  0  0  0  0  0  0  0  0  0
    8.2300   -2.1840   22.9420 N   0  0  0  0  0  0  0  0  0  0  0  0
    7.4750   -3.2840   22.9770 C   0  0  0  0  0  0  0  0  0  0  0  0
    6.3190   -2.9870   22.2760 C   0  0  0  0  0  0  0  0  0  0  0  0
  1  2  1  0
  2  3  2  0
  1  4  1  0
  5  6  3  0
  7  9  1  0
  8  9  2  0
 11 12  1  0
 12 13  1  0
  2 14  1  0
 13 14  1  0
 14 15  1  0
 11 16  1  0
 15 16  1  0
 17 18  2  0
  6 19  1  0
 18 19  1  0
 19 20  2  0
 10 21  1  0
 20 21  1  0
  4 22  1  0
 17 22  1  0
 21 22  2  0
  9 23  1  0
 23 24  1  0
 24 25  1  0
 10 26  1  0
 25 26  1  0
 26 27  1  0
 23 28  1  0
 27 28  1  0
M  END
