x1380-x1458
     RDKit          3D

 20 23  0  0  0  0  0  0  0  0999 V2000
    8.9340   -4.2570   27.2970 C   0  0  0  0  0  0  0  0  0  0  0  0
    4.5750   -3.6160   25.3430 O   0  0  0  0  0  0  0  0  0  0  0  0
    5.3880   -4.7340   19.9690 O   0  0  0  0  0  0  0  0  0  0  0  0
    7.4620   -5.8800   26.6960 C   0  0  0  0  0  0  0  0  0  0  0  0
    7.2140   -2.0550   26.4720 C   0  0  0  0  0  0  0  0  0  0  0  0
    5.8000   -3.6670   25.2860 C   0  0  0  0  0  0  0  0  0  0  0  0
    6.4510   -4.1710   20.3260 C   0  0  0  0  0  0  0  0  0  0  0  0
    7.2120   -3.3200   19.3730 C   0  0  0  0  0  0  0  0  0  0  0  0
    6.9600   -4.4050   21.6300 N   0  0  0  0  0  0  0  0  0  0  0  0
    7.8820   -3.3880   22.2910 C   0  0  0  0  0  0  0  0  0  0  0  0
    7.5280   -3.2620   23.6380 C   0  0  0  0  0  0  0  0  0  0  0  0
    6.3710   -3.8950   24.0200 C   0  0  0  0  0  0  0  0  0  0  0  0
    6.3430   -5.2600   23.7370 C   0  0  0  0  0  0  0  0  0  0  0  0
    6.6110   -5.5450   22.4380 C   0  0  0  0  0  0  0  0  0  0  0  0
    7.6380   -4.4140   26.7440 C   0  0  2  0  0  0  0  0  0  0  0  0
    7.7110   -5.1350   27.9010 C   0  0  1  0  0  0  0  0  0  0  0  0
    6.7390   -4.8140   28.9340 C   0  0  0  0  0  0  0  0  0  0  0  0
    5.4530   -4.5690   28.3310 C   0  0  0  0  0  0  0  0  0  0  0  0
    5.6400   -3.3970   27.6030 C   0  0  0  0  0  0  0  0  0  0  0  0
    6.6150   -3.4560   26.5960 C   0  0  1  0  0  0  0  0  0  0  0  0
  2  6  2  0
  3  7  2  0
  7  8  1  0
  7  9  1  0
  9 10  1  0
 10 11  1  0
  6 12  1  0
 11 12  1  0
 12 13  1  0
  9 14  1  0
 13 14  1  0
 15  1  1  6
  4 15  1  0
 16  1  1  1
  4 16  1  0
 15 16  1  0
 16 17  1  0
 17 18  1  0
 18 19  1  0
 20  5  1  6
 20  6  1  0
 15 20  1  0
 19 20  1  0
M  END
