x1380-x2563
     RDKit          3D

 38 42  0  0  0  0  0  0  0  0999 V2000
    7.7490   -3.4500   19.8730 C   0  0  0  0  0  0  0  0  0  0  0  0
    5.6290   -4.6550   19.9600 O   0  0  0  0  0  0  0  0  0  0  0  0
    6.7170   -4.3160   20.5180 C   0  0  0  0  0  0  0  0  0  0  0  0
    4.7610   -2.5750   25.5700 O   0  0  0  0  0  0  0  0  0  0  0  0
    5.7510   -3.2680   25.3540 C   0  0  0  0  0  0  0  0  0  0  0  0
    8.0680   -0.4440   21.0220 C   0  0  0  0  0  0  0  0  0  0  0  0
    8.2540    0.7690   20.8710 O   0  0  0  0  0  0  0  0  0  0  0  0
    6.8970   -1.0800   20.3660 C   0  0  2  0  0  0  0  0  0  0  0  0
    8.8850   -1.2160   21.8060 N   0  0  0  0  0  0  0  0  0  0  0  0
    7.2460   -2.1440   19.3390 C   0  0  0  0  0  0  0  0  0  0  0  0
    7.0600   -4.7270   21.7920 N   0  0  0  0  0  0  0  0  0  0  0  0
    6.1440   -5.5980   22.4970 C   0  0  0  0  0  0  0  0  0  0  0  0
    5.8130   -5.0190   23.7220 C   0  0  0  0  0  0  0  0  0  0  0  0
    6.0760   -3.6750   23.9050 C   0  0  0  0  0  0  0  0  0  0  0  0
    7.3270   -3.1960   23.5080 C   0  0  0  0  0  0  0  0  0  0  0  0
    8.0010   -4.0040   22.6550 C   0  0  0  0  0  0  0  0  0  0  0  0
    7.8300   -4.4110   26.2940 C   0  0  0  0  0  0  0  0  0  0  0  0
    7.9830   -5.3800   27.2880 C   0  0  0  0  0  0  0  0  0  0  0  0
    7.4010   -5.1400   28.6060 C   0  0  0  0  0  0  0  0  0  0  0  0
    6.0150   -4.6720   28.4760 C   0  0  0  0  0  0  0  0  0  0  0  0
    6.0450   -3.4720   27.7670 C   0  0  0  0  0  0  0  0  0  0  0  0
    6.5700   -3.6720   26.4120 N   0  0  0  0  0  0  0  0  0  0  0  0
    6.0700    1.0930   17.5380 N   0  0  0  0  0  0  0  0  0  0  0  0
    5.0010    1.7570   18.0140 C   0  0  0  0  0  0  0  0  0  0  0  0
    4.4820    1.5510   19.3030 C   0  0  0  0  0  0  0  0  0  0  0  0
    5.0840    0.6330   20.1130 C   0  0  0  0  0  0  0  0  0  0  0  0
    6.1520   -0.0440   19.6410 C   0  0  0  0  0  0  0  0  0  0  0  0
    6.5840    0.2230   18.3980 C   0  0  0  0  0  0  0  0  0  0  0  0
    3.3720    2.2760   19.7430 C   0  0  0  0  0  0  0  0  0  0  0  0
    2.8690    2.0640   21.0240 C   0  0  0  0  0  0  0  0  0  0  0  0
    3.4670    1.1290   21.8760 C   0  0  0  0  0  0  0  0  0  0  0  0
    4.5690    0.4200   21.4120 C   0  0  0  0  0  0  0  0  0  0  0  0
   11.1580   -0.7650   22.2960 C   0  0  0  0  0  0  0  0  0  0  0  0
   12.1430   -0.1370   23.0270 C   0  0  0  0  0  0  0  0  0  0  0  0
   11.7690    0.7530   24.1790 C   0  0  0  0  0  0  0  0  0  0  0  0
   10.3140    0.9580   24.5510 C   0  0  0  0  0  0  0  0  0  0  0  0
    9.3560    0.2110   23.6650 C   0  0  0  0  0  0  0  0  0  0  0  0
    9.8030   -0.5780   22.6160 C   0  0  0  0  0  0  0  0  0  0  0  0
  1  3  1  0
  2  3  2  0
  4  5  2  0
  6  7  2  0
  6  8  1  0
  6  9  1  0
  1 10  1  0
  8 10  1  6
  3 11  1  0
 11 12  1  0
 12 13  1  0
  5 14  1  0
 13 14  1  0
 14 15  1  0
 11 16  1  0
 15 16  1  0
 17 18  1  0
 18 19  1  0
 19 20  1  0
 20 21  1  0
  5 22  1  0
 17 22  1  0
 21 22  1  0
 23 24  2  0
 24 25  1  0
 25 26  2  0
  8 27  1  0
 26 27  1  0
 23 28  1  0
 27 28  2  0
 25 29  1  0
 29 30  2  0
 30 31  1  0
 26 32  1  0
 31 32  2  0
 33 34  2  0
 34 35  1  0
 35 36  2  0
 36 37  1  0
  9 38  1  0
 33 38  1  0
 37 38  2  0
M  END
