x1380-x0691
     RDKit          3D

 27 29  0  0  0  0  0  0  0  0999 V2000
    3.9170   -6.9090   25.5720 O   0  0  0  0  0  0  0  0  0  0  0  0
    5.6660   -5.4550   26.5930 O   0  0  0  0  0  0  0  0  0  0  0  0
    5.2170   -4.5870   19.8930 O   0  0  0  0  0  0  0  0  0  0  0  0
    6.3040   -4.4680   20.4930 C   0  0  0  0  0  0  0  0  0  0  0  0
    7.2550   -3.4230   20.0270 C   0  0  0  0  0  0  0  0  0  0  0  0
    2.9450   -0.5910   25.5260 F   0  0  0  0  0  0  0  0  0  0  0  0
    4.6700   -5.6680   25.5830 S   0  0  0  0  0  0  0  0  0  0  0  0
    5.1210   -2.3230   25.1860 N   0  0  0  0  0  0  0  0  0  0  0  0
    6.3440   -2.6770   25.8600 C   0  0  0  0  0  0  0  0  0  0  0  0
    2.7210   -1.9100   25.6600 C   0  0  0  0  0  0  0  0  0  0  0  0
    3.8620   -2.8400   25.4960 C   0  0  0  0  0  0  0  0  0  0  0  0
    3.5020   -4.3340   25.6890 C   0  0  0  0  0  0  0  0  0  0  0  0
    2.0450   -4.6580   25.9930 C   0  0  0  0  0  0  0  0  0  0  0  0
    1.1060   -3.6300   26.0970 C   0  0  0  0  0  0  0  0  0  0  0  0
    1.4240   -2.3080   25.9430 C   0  0  0  0  0  0  0  0  0  0  0  0
    6.5830   -5.3000   21.5850 N   0  0  0  0  0  0  0  0  0  0  0  0
    5.6550   -6.3740   21.9450 C   0  0  0  0  0  0  0  0  0  0  0  0
    4.7120   -5.9980   22.8450 C   0  0  0  0  0  0  0  0  0  0  0  0
    5.4140   -5.5490   24.0670 N   0  0  0  0  0  0  0  0  0  0  0  0
    6.3410   -4.4150   23.8340 C   0  0  0  0  0  0  0  0  0  0  0  0
    7.1780   -4.6850   22.7660 C   0  0  0  0  0  0  0  0  0  0  0  0
    7.8730   -4.0440   27.0490 C   0  0  0  0  0  0  0  0  0  0  0  0
    7.8380   -5.4060   27.5680 C   0  0  0  0  0  0  0  0  0  0  0  0
    7.0820   -5.3950   28.7310 C   0  0  0  0  0  0  0  0  0  0  0  0
    5.8400   -4.7440   28.8150 C   0  0  0  0  0  0  0  0  0  0  0  0
    5.7440   -3.5020   28.1450 C   0  0  0  0  0  0  0  0  0  0  0  0
    6.5110   -3.5560   26.9020 N   0  0  0  0  0  0  0  0  0  0  0  0
  3  4  2  0
  4  5  1  0
  1  7  2  0
  2  7  2  0
  8  9  2  3
  6 10  1  0
  8 11  1  0
 10 11  2  0
  7 12  1  0
 11 12  1  0
 12 13  2  0
 13 14  1  0
 10 15  1  0
 14 15  2  0
  4 16  1  0
 16 17  1  0
 17 18  1  0
  7 19  1  0
 18 19  1  0
 19 20  1  0
 16 21  1  0
 20 21  1  0
 22 23  1  0
 23 24  1  0
 24 25  1  0
 25 26  1  0
  9 27  1  0
 22 27  1  0
 26 27  1  0
M  END
