x1385-x2908
     RDKit          3D

 34 39  0  0  0  0  0  0  0  0999 V2000
    7.4050   -2.9830   18.7920 C   0  0  0  0  0  0  0  0  0  0  0  0
    5.5080   -4.0590   19.7430 O   0  0  0  0  0  0  0  0  0  0  0  0
    6.4620   -3.2380   19.9160 C   0  0  0  0  0  0  0  0  0  0  0  0
    9.5930   -3.1940   23.9440 C   0  0  0  0  0  0  0  0  0  0  0  0
    7.1460   -5.7190   28.5180 Br  0  0  0  0  0  0  0  0  0  0  0  0
    4.7760    1.2490   21.5740 C   0  0  0  0  0  0  0  0  0  0  0  0
    8.9980    1.4150   21.2040 O   0  0  0  0  0  0  0  0  0  0  0  0
   13.3370   -1.9100   21.3660 Cl  0  0  0  0  0  0  0  0  0  0  0  0
    7.2110   -0.2270   21.1160 N   0  0  0  0  0  0  0  0  0  0  0  0
    8.5710   -0.7330   22.3710 C   0  0  2  0  0  0  0  0  0  0  0  0
    8.3600    0.4120   21.4590 C   0  0  0  0  0  0  0  0  0  0  0  0
    6.6810   -2.5740   21.1250 N   0  0  0  0  0  0  0  0  0  0  0  0
    6.2450   -3.2740   22.3360 C   0  0  0  0  0  0  0  0  0  0  0  0
    7.2270   -3.3660   23.3110 C   0  0  0  0  0  0  0  0  0  0  0  0
    8.6340   -3.3160   22.8370 N   0  0  0  0  0  0  0  0  0  0  0  0
    8.8280   -2.2150   21.8760 C   0  0  1  0  0  0  0  0  0  0  0  0
    7.7150   -1.6300   21.4040 C   0  0  1  0  0  0  0  0  0  0  0  0
    9.7810   -5.4050   25.3110 C   0  0  0  0  0  0  0  0  0  0  0  0
    9.2420   -4.1500   25.0390 C   0  0  0  0  0  0  0  0  0  0  0  0
    8.0040   -3.7570   26.1910 S   0  0  0  0  0  0  0  0  0  0  0  0
    8.1930   -5.2270   27.0050 C   0  0  0  0  0  0  0  0  0  0  0  0
    9.2290   -6.0740   26.4240 C   0  0  0  0  0  0  0  0  0  0  0  0
    6.2280    0.4940   17.6270 N   0  0  0  0  0  0  0  0  0  0  0  0
    6.8790    0.0310   18.7090 C   0  0  0  0  0  0  0  0  0  0  0  0
    6.4800    0.2360   20.0190 C   0  0  0  0  0  0  0  0  0  0  0  0
    5.3110    0.9630   20.2020 C   0  0  0  0  0  0  0  0  0  0  0  0
    4.6270    1.4470   19.0860 C   0  0  0  0  0  0  0  0  0  0  0  0
    5.1200    1.1960   17.8510 C   0  0  0  0  0  0  0  0  0  0  0  0
   10.4570    0.4730   23.6440 C   0  0  0  0  0  0  0  0  0  0  0  0
   11.8030    0.6830   23.8770 C   0  0  0  0  0  0  0  0  0  0  0  0
   12.7510   -0.0440   23.1920 C   0  0  0  0  0  0  0  0  0  0  0  0
   12.2990   -0.9720   22.2830 C   0  0  0  0  0  0  0  0  0  0  0  0
   10.9680   -1.1900   22.0460 C   0  0  0  0  0  0  0  0  0  0  0  0
   10.0080   -0.4690   22.7150 C   0  0  0  0  0  0  0  0  0  0  0  0
  1  3  1  0
  2  3  2  0
  7 11  2  0
  9 11  1  0
 10 11  1  0
  3 12  1  0
 12 13  1  0
 13 14  1  0
  4 15  1  0
 14 15  1  0
 10 16  1  0
 16 15  1  1
 17  9  1  6
 10 17  1  0
 12 17  1  0
 16 17  1  0
  4 19  1  0
 18 19  2  0
 19 20  1  0
  5 21  1  0
 20 21  1  0
 18 22  1  0
 21 22  2  0
 23 24  2  0
  9 25  1  0
 24 25  1  0
  6 26  1  0
 25 26  2  0
 26 27  1  0
 23 28  1  0
 27 28  2  0
 29 30  2  0
 30 31  1  0
  8 32  1  0
 31 32  2  0
 32 33  1  0
 10 34  1  1
 29 34  1  0
 33 34  2  0
M  END
