x1382-x1380
     RDKit          3D

 29 33  0  0  0  0  0  0  0  0999 V2000
   13.3420   -1.7880   21.1870 Cl  0  0  0  0  0  0  0  0  0  0  0  0
    7.1980   -1.7210   22.9720 C   0  0  0  0  0  0  0  0  0  0  0  0
    8.3630   -2.2100   22.1980 C   0  0  2  0  0  0  0  0  0  0  0  0
    7.9080   -3.2590   21.3280 N   0  0  0  0  0  0  0  0  0  0  0  0
    7.1020   -3.4250   20.0980 C   0  0  0  0  0  0  0  0  0  0  0  0
    6.8640   -2.8180   19.0270 O   0  0  0  0  0  0  0  0  0  0  0  0
    6.3760   -4.6660   20.0210 C   0  0  0  0  0  0  0  0  0  0  0  0
    4.6330   -4.9250   21.6210 O   0  0  0  0  0  0  0  0  0  0  0  0
    5.8190   -4.9360   21.3590 C   0  0  0  0  0  0  0  0  0  0  0  0
    5.0510   -1.9270   25.7180 O   0  0  0  0  0  0  0  0  0  0  0  0
    5.7020   -2.9420   25.5120 C   0  0  0  0  0  0  0  0  0  0  0  0
    9.7800   -2.0200   22.7320 C   0  0  0  0  0  0  0  0  0  0  0  0
   10.8750   -1.9650   21.9270 C   0  0  0  0  0  0  0  0  0  0  0  0
   12.1360   -1.8320   22.3630 C   0  0  0  0  0  0  0  0  0  0  0  0
   12.3940   -1.7500   23.7070 C   0  0  0  0  0  0  0  0  0  0  0  0
   11.3140   -1.8030   24.5250 C   0  0  0  0  0  0  0  0  0  0  0  0
    9.9870   -1.9330   24.0720 C   0  0  0  0  0  0  0  0  0  0  0  0
    6.7380   -5.1570   22.3060 N   0  0  0  0  0  0  0  0  0  0  0  0
    6.3340   -5.8020   23.4970 C   0  0  0  0  0  0  0  0  0  0  0  0
    5.3660   -4.9180   24.1630 C   0  0  0  0  0  0  0  0  0  0  0  0
    5.7800   -3.4970   24.0870 C   0  0  2  0  0  0  0  0  0  0  0  0
    7.0290   -3.1570   23.5630 C   0  0  1  0  0  0  0  0  0  0  0  0
    7.5710   -4.0160   22.5410 C   0  0  2  0  0  0  0  0  0  0  0  0
    7.6860   -4.2050   26.3290 C   0  0  0  0  0  0  0  0  0  0  0  0
    7.9060   -5.2780   27.1650 C   0  0  0  0  0  0  0  0  0  0  0  0
    7.5690   -5.1100   28.4910 C   0  0  0  0  0  0  0  0  0  0  0  0
    6.3240   -4.5590   28.7090 C   0  0  0  0  0  0  0  0  0  0  0  0
    5.9570   -3.4510   27.9610 C   0  0  0  0  0  0  0  0  0  0  0  0
    6.3570   -3.6020   26.5630 N   0  0  0  0  0  0  0  0  0  0  0  0
  2  3  1  0
  3  4  1  0
  4  5  1  0
  5  6  2  0
  5  7  1  0
  7  9  1  0
  8  9  2  0
 10 11  2  0
  3 12  1  1
 12 13  2  0
  1 14  1  0
 13 14  1  0
 14 15  2  0
 15 16  1  0
 12 17  1  0
 16 17  2  0
  9 18  1  0
 18 19  1  0
 19 20  1  0
 21 11  1  1
 20 21  1  0
 22  2  1  6
 21 22  1  0
 23  4  1  6
 18 23  1  0
 22 23  1  0
 24 25  1  0
 25 26  1  0
 26 27  1  0
 27 28  1  0
 11 29  1  0
 24 29  1  0
 28 29  1  0
M  END
