x1380-x2193
     RDKit          3D

 35 42  0  0  0  0  0  0  0  0999 V2000
    7.2760   -3.1590   19.0480 C   0  0  0  0  0  0  0  0  0  0  0  0
    5.0650   -4.0220   19.5230 O   0  0  0  0  0  0  0  0  0  0  0  0
    6.2090   -3.7580   19.9140 C   0  0  0  0  0  0  0  0  0  0  0  0
    5.1050   -2.5440   25.2420 O   0  0  0  0  0  0  0  0  0  0  0  0
    5.8620   -3.5180   25.2310 C   0  0  0  0  0  0  0  0  0  0  0  0
   10.9910    2.4650   23.0340 C   0  0  0  0  0  0  0  0  0  0  0  0
    9.2960    1.6270   21.1320 O   0  0  0  0  0  0  0  0  0  0  0  0
    8.3120    2.5680   23.2520 O   0  0  0  0  0  0  0  0  0  0  0  0
    9.4050    1.8030   22.5540 S   0  0  0  0  0  0  0  0  0  0  0  0
    7.5940   -4.7140   23.5070 C   0  0  1  0  0  0  0  0  0  0  0  0
    8.6910   -4.8330   24.4500 C   0  0  1  0  0  0  0  0  0  0  0  0
    6.5070   -4.0530   21.2140 N   0  0  0  0  0  0  0  0  0  0  0  0
    5.6850   -5.1440   21.9040 C   0  0  0  0  0  0  0  0  0  0  0  0
    5.2450   -4.6840   23.1450 C   0  0  0  0  0  0  0  0  0  0  0  0
    6.2370   -4.1450   23.8830 C   0  0  1  0  0  0  0  0  0  0  0  0
    7.1620   -3.3230   23.2360 C   0  0  2  0  0  0  0  0  0  0  0  0
    6.9870   -2.9790   21.9990 C   0  0  0  0  0  0  0  0  0  0  0  0
    7.6140   -3.7780   27.1280 C   0  0  2  0  0  0  0  0  0  0  0  0
    7.6520   -4.6830   28.1920 C   0  0  0  0  0  0  0  0  0  0  0  0
    6.5210   -4.6370   29.1250 C   0  0  0  0  0  0  0  0  0  0  0  0
    5.2890   -4.8110   28.3930 C   0  0  0  0  0  0  0  0  0  0  0  0
    5.2120   -3.8710   27.3810 C   0  0  0  0  0  0  0  0  0  0  0  0
    6.3140   -4.0120   26.4440 N   0  0  0  0  0  0  0  0  0  0  0  0
    9.4180    0.1780   23.2580 C   0  0  0  0  0  0  0  0  0  0  0  0
    8.7420   -0.0390   24.4610 C   0  0  0  0  0  0  0  0  0  0  0  0
    8.7190   -1.2700   25.0290 C   0  0  0  0  0  0  0  0  0  0  0  0
    9.3450   -2.3670   24.5000 C   0  0  0  0  0  0  0  0  0  0  0  0
   10.0210   -2.1570   23.2980 C   0  0  0  0  0  0  0  0  0  0  0  0
   10.0530   -0.9020   22.6890 C   0  0  0  0  0  0  0  0  0  0  0  0
    9.3810   -6.3480   26.1940 N   0  0  0  0  0  0  0  0  0  0  0  0
    9.6120   -5.2060   27.0410 C   0  0  0  0  0  0  0  0  0  0  0  0
    9.0580   -4.0210   26.5410 C   0  0  1  0  0  0  0  0  0  0  0  0
    9.2930   -3.7630   25.1870 C   0  0  1  0  0  0  0  0  0  0  0  0
   10.0990   -4.6880   24.5570 C   0  0  1  0  0  0  0  0  0  0  0  0
    9.5580   -5.9440   24.8300 C   0  0  2  0  0  0  0  0  0  0  0  0
  1  3  1  0
  2  3  2  0
  4  5  2  0
  9  6  1  0
  7  9  2  0
  8  9  2  0
 10 11  1  0
  3 12  1  0
 12 13  1  0
 13 14  1  0
 15  5  1  0
 10 15  1  0
 15 14  1  6
 10 16  1  6
 15 16  1  0
 12 17  1  0
 16 17  1  6
 18 19  1  1
 19 20  1  0
 20 21  1  0
 21 22  1  0
  5 23  1  0
 18 23  1  0
 22 23  1  0
  9 24  1  0
 24 25  2  0
 25 26  1  0
 26 27  2  0
 27 28  1  0
 24 29  1  0
 28 29  2  0
 30 31  1  0
 18 32  1  0
 32 31  1  6
 11 33  1  0
 33 27  1  6
 32 33  1  0
 11 34  1  0
 33 34  1  0
 11 35  1  1
 35 30  1  1
 34 35  1  1
M  END
