x1385-x0161
     RDKit          3D

 32 34  0  0  0  0  0  0  0  0999 V2000
   13.5090   -2.3650   24.6350 C   0  0  0  0  0  0  0  0  0  0  0  0
   12.6240   -1.1730   24.4040 N   0  0  0  0  0  0  0  0  0  0  0  0
   12.8730   -0.2290   23.4030 C   0  0  0  0  0  0  0  0  0  0  0  0
   13.6060   -0.4540   22.4480 O   0  0  0  0  0  0  0  0  0  0  0  0
   10.2930    5.2160   23.6330 S   0  0  0  0  0  0  0  0  0  0  0  0
   11.1820    6.1630   23.0040 O   0  0  0  0  0  0  0  0  0  0  0  0
    9.7810    5.4490   24.9640 O   0  0  0  0  0  0  0  0  0  0  0  0
    8.9220    5.0270   22.6830 N   0  0  0  0  0  0  0  0  0  0  0  0
    7.4300   -2.9830   18.7490 C   0  0  0  0  0  0  0  0  0  0  0  0
    5.5260   -4.0340   19.7120 O   0  0  0  0  0  0  0  0  0  0  0  0
    6.4810   -3.2120   19.8690 C   0  0  0  0  0  0  0  0  0  0  0  0
    9.5790   -3.4300   23.7750 C   0  0  2  0  0  0  0  0  0  0  0  0
    7.2000   -5.5790   28.5570 Br  0  0  0  0  0  0  0  0  0  0  0  0
   11.2140   -1.5310   24.5090 C   0  0  0  0  0  0  0  0  0  0  0  0
   11.0110   -2.8690   23.8360 C   0  0  0  0  0  0  0  0  0  0  0  0
   12.2140    1.1020   23.4540 C   0  0  0  0  0  0  0  0  0  0  0  0
   12.8390    2.2030   22.9560 C   0  0  0  0  0  0  0  0  0  0  0  0
   12.2660    3.4700   22.9900 C   0  0  0  0  0  0  0  0  0  0  0  0
   11.0400    3.5980   23.5480 C   0  0  0  0  0  0  0  0  0  0  0  0
   10.3310    2.4980   24.0760 C   0  0  0  0  0  0  0  0  0  0  0  0
   10.9430    1.2410   24.0190 C   0  0  0  0  0  0  0  0  0  0  0  0
    6.6720   -2.5450   21.0760 N   0  0  0  0  0  0  0  0  0  0  0  0
    6.1550   -3.0060   22.3490 C   0  0  0  0  0  0  0  0  0  0  0  0
    7.2330   -3.4080   23.2520 C   0  0  0  0  0  0  0  0  0  0  0  0
    8.4710   -2.6040   23.2810 N   0  0  0  0  0  0  0  0  0  0  0  0
    8.8330   -1.9930   21.9780 C   0  0  0  0  0  0  0  0  0  0  0  0
    7.7450   -1.5500   21.2030 C   0  0  0  0  0  0  0  0  0  0  0  0
    9.7320   -5.5060   25.2890 C   0  0  0  0  0  0  0  0  0  0  0  0
    9.2270   -4.2910   24.9660 C   0  0  0  0  0  0  0  0  0  0  0  0
    8.0430   -3.7840   26.1110 S   0  0  0  0  0  0  0  0  0  0  0  0
    8.2180   -5.2040   26.9970 C   0  0  0  0  0  0  0  0  0  0  0  0
    9.1570   -6.0420   26.4620 C   0  0  0  0  0  0  0  0  0  0  0  0
  1  2  1  0
  2  3  1  0
  3  4  2  0
  5  6  2  0
  5  7  2  0
  5  8  1  0
  9 11  1  0
 10 11  2  0
  2 14  1  0
 12 15  1  1
 14 15  1  0
  3 16  1  0
 16 17  2  0
 17 18  1  0
  5 19  1  0
 18 19  2  0
 19 20  1  0
 16 21  1  0
 20 21  2  0
 11 22  1  0
 22 23  1  0
 23 24  1  0
 12 25  1  0
 24 25  1  0
 25 26  1  0
 22 27  1  0
 26 27  1  0
 12 29  1  0
 28 29  2  0
 29 30  1  0
 13 31  1  0
 30 31  1  0
 28 32  1  0
 31 32  2  0
M  END
