x1380-x0387
     RDKit          3D

 30 35  0  0  0  0  0  0  0  0999 V2000
    7.1740   -3.2540   19.2620 C   0  0  0  0  0  0  0  0  0  0  0  0
    5.2250   -4.5080   19.8590 O   0  0  0  0  0  0  0  0  0  0  0  0
    6.3100   -4.0790   20.2180 C   0  0  0  0  0  0  0  0  0  0  0  0
    4.5370   -2.8720   25.3410 O   0  0  0  0  0  0  0  0  0  0  0  0
    5.5780   -3.5130   25.4810 C   0  0  0  0  0  0  0  0  0  0  0  0
    8.6260   -4.3260   27.5440 N   0  0  0  0  0  0  0  0  0  0  0  0
    9.7690   -1.4680   24.0010 C   0  0  0  0  0  0  0  0  0  0  0  0
    6.8180   -4.3880   21.4590 N   0  0  0  0  0  0  0  0  0  0  0  0
    6.3680   -5.5450   22.2370 C   0  0  0  0  0  0  0  0  0  0  0  0
    5.5710   -5.1090   23.4700 C   0  0  0  0  0  0  0  0  0  0  0  0
    6.3270   -4.0230   24.2450 C   0  0  0  0  0  0  0  0  0  0  0  0
    6.7290   -2.8670   23.3020 C   0  0  0  0  0  0  0  0  0  0  0  0
    7.5890   -3.3860   22.1610 C   0  0  0  0  0  0  0  0  0  0  0  0
    7.4050   -4.3650   26.8080 C   0  0  1  0  0  0  0  0  0  0  0  0
    7.6830   -5.2120   28.1260 C   0  0  2  0  0  0  0  0  0  0  0  0
    6.4310   -5.2780   28.9200 C   0  0  0  0  0  0  0  0  0  0  0  0
    5.8490   -3.8650   29.1640 C   0  0  0  0  0  0  0  0  0  0  0  0
    5.8130   -2.9910   27.9220 C   0  0  0  0  0  0  0  0  0  0  0  0
    6.1070   -3.7900   26.7400 N   0  0  0  0  0  0  0  0  0  0  0  0
    9.2910   -5.0070   26.4270 C   0  0  1  0  0  0  0  0  0  0  0  0
    8.1860   -4.4440   25.5580 C   0  0  2  0  0  0  0  0  0  0  0  0
    8.4080   -3.1040   24.8930 C   0  0  0  0  0  0  0  0  0  0  0  0
    9.7280   -2.8840   24.3570 N   0  0  0  0  0  0  0  0  0  0  0  0
   10.7280   -3.1500   25.3770 C   0  0  0  0  0  0  0  0  0  0  0  0
   10.6520   -4.5440   26.0060 C   0  0  0  0  0  0  0  0  0  0  0  0
   11.9140   -0.0230   23.7450 C   0  0  0  0  0  0  0  0  0  0  0  0
   11.1020   -1.1530   23.4100 C   0  0  0  0  0  0  0  0  0  0  0  0
   11.7030   -1.9400   22.4540 C   0  0  0  0  0  0  0  0  0  0  0  0
   13.2110   -1.3360   21.9680 S   0  0  0  0  0  0  0  0  0  0  0  0
   13.0830   -0.0040   23.0280 C   0  0  0  0  0  0  0  0  0  0  0  0
  1  3  1  0
  2  3  2  0
  4  5  2  0
  3  8  1  0
  8  9  1  0
  9 10  1  0
  5 11  1  0
 10 11  1  0
 11 12  1  0
  8 13  1  0
 12 13  1  0
  6 14  1  0
  6 15  1  0
 14 15  1  0
 15 16  1  1
 16 17  1  0
 17 18  1  0
  5 19  1  0
 14 19  1  6
 18 19  1  0
  6 20  1  0
 14 21  1  0
 20 21  1  0
 21 22  1  1
  7 23  1  0
 22 23  1  0
 23 24  1  0
 20 25  1  6
 24 25  1  0
  7 27  1  0
 26 27  1  0
 27 28  2  0
 28 29  1  0
 26 30  2  0
 29 30  1  0
M  END
