x1380-x0678
     RDKit          3D

 35 38  0  0  0  0  0  0  0  0999 V2000
    7.0710   -3.3960   19.3400 C   0  0  0  0  0  0  0  0  0  0  0  0
    5.3140   -4.8140   19.9730 O   0  0  0  0  0  0  0  0  0  0  0  0
    6.3710   -4.2510   20.3360 C   0  0  0  0  0  0  0  0  0  0  0  0
    4.9680   -2.9430   25.3610 O   0  0  0  0  0  0  0  0  0  0  0  0
    6.0730   -3.4800   25.4920 C   0  0  0  0  0  0  0  0  0  0  0  0
    9.1830    1.5600   21.3120 O   0  0  0  0  0  0  0  0  0  0  0  0
    8.6760    0.5410   21.7920 C   0  0  0  0  0  0  0  0  0  0  0  0
    9.1920   -0.0930   23.0440 C   0  0  0  0  0  0  0  0  0  0  0  0
    7.5930   -0.1320   21.2750 N   0  0  0  0  0  0  0  0  0  0  0  0
    7.2030   -1.9210   19.6770 C   0  0  0  0  0  0  0  0  0  0  0  0
    7.8350   -1.5810   21.0090 C   0  0  0  0  0  0  0  0  0  0  0  0
    6.9090   -4.4940   21.6010 N   0  0  0  0  0  0  0  0  0  0  0  0
    6.2890   -5.5290   22.4420 C   0  0  0  0  0  0  0  0  0  0  0  0
    5.8370   -4.9610   23.6130 C   0  0  0  0  0  0  0  0  0  0  0  0
    6.7550   -4.1680   24.3010 C   0  0  0  0  0  0  0  0  0  0  0  0
    7.3070   -3.1900   23.5470 C   0  0  0  0  0  0  0  0  0  0  0  0
    7.7070   -3.5660   22.2600 C   0  0  0  0  0  0  0  0  0  0  0  0
    8.0230   -4.1790   26.9190 C   0  0  0  0  0  0  0  0  0  0  0  0
    7.8100   -5.5100   27.4970 C   0  0  0  0  0  0  0  0  0  0  0  0
    7.0430   -5.3550   28.7300 C   0  0  0  0  0  0  0  0  0  0  0  0
    5.8340   -4.6970   28.4780 C   0  0  0  0  0  0  0  0  0  0  0  0
    5.9220   -3.4150   27.9190 C   0  0  0  0  0  0  0  0  0  0  0  0
    6.7480   -3.4860   26.7140 N   0  0  0  0  0  0  0  0  0  0  0  0
   11.1910   -1.5260   22.2500 C   0  0  0  0  0  0  0  0  0  0  0  0
   12.5190   -1.7970   22.4870 C   0  0  0  0  0  0  0  0  0  0  0  0
   13.2570   -1.0870   23.4280 C   0  0  0  0  0  0  0  0  0  0  0  0
   12.5630   -0.4190   24.4170 C   0  0  0  0  0  0  0  0  0  0  0  0
   11.1970   -0.4000   24.3290 C   0  0  0  0  0  0  0  0  0  0  0  0
   10.7170   -0.2880   23.0390 C   0  0  0  0  0  0  0  0  0  0  0  0
    5.7150    1.2570   20.4290 C   0  0  0  0  0  0  0  0  0  0  0  0
    4.9710    1.7420   19.3470 C   0  0  0  0  0  0  0  0  0  0  0  0
    5.2960    1.3930   18.0420 C   0  0  0  0  0  0  0  0  0  0  0  0
    6.3080    0.5890   17.7080 N   0  0  0  0  0  0  0  0  0  0  0  0
    7.1230    0.0430   18.7770 C   0  0  0  0  0  0  0  0  0  0  0  0
    6.7970    0.4100   20.2230 C   0  0  0  0  0  0  0  0  0  0  0  0
  1  3  1  0
  2  3  2  0
  4  5  2  0
  6  7  2  0
  7  8  1  0
  7  9  1  0
  1 10  1  0
  9 11  1  0
 10 11  1  0
  3 12  1  0
 12 13  1  0
 13 14  1  0
  5 15  1  0
 14 15  1  0
 15 16  1  0
 12 17  1  0
 16 17  1  0
 18 19  1  0
 19 20  1  0
 20 21  1  0
 21 22  1  0
  5 23  1  0
 18 23  1  0
 22 23  1  0
 24 25  1  0
 25 26  1  0
 26 27  1  0
 27 28  1  0
  8 29  1  0
 24 29  1  0
 28 29  1  0
 30 31  2  0
 31 32  1  0
 32 33  2  0
 33 34  1  0
  9 35  1  0
 30 35  1  0
 34 35  2  0
M  END
