x1382-x2912
     RDKit          3D

 22 24  0  0  0  0  0  0  0  0999 V2000
    6.8960   -1.8010   20.1510 C   0  0  1  0  0  0  0  0  0  0  0  0
    6.7030   -0.3660   22.9580 C   0  0  0  0  0  0  0  0  0  0  0  0
    5.0490   -3.2730   21.2960 O   0  0  0  0  0  0  0  0  0  0  0  0
    7.3250   -1.5880   22.3180 C   0  0  2  0  0  0  0  0  0  0  0  0
    6.2100   -2.4160   21.3170 C   0  0  0  0  0  0  0  0  0  0  0  0
   13.7100   -1.8480   20.7460 N   0  0  0  0  0  0  0  0  0  0  0  0
    4.0570    1.3080   20.4660 C   0  0  0  0  0  0  0  0  0  0  0  0
   12.8530   -1.6770   21.4470 C   0  0  0  0  0  0  0  0  0  0  0  0
    7.9170   -1.4210   20.9820 N   0  0  0  0  0  0  0  0  0  0  0  0
    7.2260   -2.8120   19.0360 C   0  0  0  0  0  0  0  0  0  0  0  0
    5.8800    0.6250   18.8120 N   0  0  0  0  0  0  0  0  0  0  0  0
    5.1200    1.6950   18.5530 C   0  0  0  0  0  0  0  0  0  0  0  0
    4.5470    1.3940   19.6820 C   0  0  0  0  0  0  0  0  0  0  0  0
    5.0910    0.1860   20.3450 C   0  0  0  0  0  0  0  0  0  0  0  0
    6.2110   -0.4530   19.5940 C   0  0  0  0  0  0  0  0  0  0  0  0
    6.8650   -0.0610   18.3420 C   0  0  0  0  0  0  0  0  0  0  0  0
    9.1510   -1.4620   24.2370 C   0  0  0  0  0  0  0  0  0  0  0  0
   10.4570   -1.4270   23.7530 C   0  0  0  0  0  0  0  0  0  0  0  0
   11.1180   -0.4080   22.8580 C   0  0  0  0  0  0  0  0  0  0  0  0
   11.6610   -1.3560   22.2520 C   0  0  0  0  0  0  0  0  0  0  0  0
   10.2240   -1.7610   22.1100 C   0  0  0  0  0  0  0  0  0  0  0  0
    8.9210   -1.5160   22.8800 C   0  0  0  0  0  0  0  0  0  0  0  0
  4  2  1  1
  1  5  1  0
  3  5  2  0
  4  5  1  0
  6  8  3  0
  1  9  1  0
  4  9  1  0
  1 10  1  6
 11 12  2  0
 12 13  1  0
  7 14  1  0
 13 14  2  0
  1 15  1  0
 14 15  1  0
 11 16  1  0
 15 16  2  0
 17 18  2  0
 18 19  1  0
  8 20  1  0
 19 20  2  0
 20 21  1  0
  4 22  1  0
 17 22  1  0
 21 22  2  0
M  END
