x1382-x0831
     RDKit          3D

 20 26  0  0  0  0  0  0  0  0999 V2000
   13.2980   -2.4190   21.0970 Cl  0  0  0  0  0  0  0  0  0  0  0  0
    7.4920   -2.1050   24.1700 C   0  0  0  0  0  0  0  0  0  0  0  0
    8.7710   -1.7890   21.0390 N   0  0  0  0  0  0  0  0  0  0  0  0
    7.7160   -1.7050   19.9740 C   0  0  2  0  0  0  0  0  0  0  0  0
    7.2420   -2.9870   19.1970 C   0  0  0  0  0  0  0  0  0  0  0  0
    5.5930   -4.6280   19.9430 O   0  0  0  0  0  0  0  0  0  0  0  0
    6.2000   -3.5780   20.1490 C   0  0  0  0  0  0  0  0  0  0  0  0
   10.0970   -1.1110   22.9660 C   0  0  0  0  0  0  0  0  0  0  0  0
   10.9440   -1.7940   22.1610 C   0  0  0  0  0  0  0  0  0  0  0  0
   12.4100   -1.4810   22.1650 C   0  0  0  0  0  0  0  0  0  0  0  0
   12.9400   -0.4980   22.9830 C   0  0  0  0  0  0  0  0  0  0  0  0
   12.0530    0.3030   23.9180 C   0  0  0  0  0  0  0  0  0  0  0  0
   10.5450   -0.0070   23.9280 C   0  0  0  0  0  0  0  0  0  0  0  0
    5.9320   -2.8120   21.2670 N   0  0  0  0  0  0  0  0  0  0  0  0
    5.3010   -1.5590   20.8760 C   0  0  0  0  0  0  0  0  0  0  0  0
    6.6440   -0.8940   20.7310 C   0  0  1  0  0  0  0  0  0  0  0  0
    7.5920   -1.7340   21.2520 C   0  0  1  0  0  0  0  0  0  0  0  0
    8.3500   -1.6530   22.7240 S   0  0  0  0  0  0  0  0  0  0  0  0
    7.3620   -3.0880   23.1680 C   0  0  2  0  0  0  0  0  0  0  0  0
    6.0510   -3.2450   22.6360 C   0  0  0  0  0  0  0  0  0  0  0  0
  4  3  1  0
  4  5  1  1
  5  7  1  0
  6  7  2  0
  8  9  2  0
  1 10  1  0
  9 10  1  0
 10 11  2  0
 11 12  1  0
  8 13  1  0
 12 13  2  0
  7 14  1  0
 14 15  1  0
  4 16  1  0
 16 15  1  6
 17  3  1  1
  4 17  1  0
 16 17  1  0
  2 18  1  0
  3 18  1  0
  8 18  1  0
 17 18  1  0
 19  2  1  1
 18 19  1  0
 14 20  1  0
 19 20  1  0
M  END
