x1385-x2569
     RDKit          3D

 34 39  0  0  0  0  0  0  0  0999 V2000
    7.3790   -2.9750   18.7810 C   0  0  0  0  0  0  0  0  0  0  0  0
    5.4710   -4.0620   19.7240 O   0  0  0  0  0  0  0  0  0  0  0  0
    6.4010   -3.2160   19.8860 C   0  0  0  0  0  0  0  0  0  0  0  0
    9.5200   -3.3260   23.9510 C   0  0  0  0  0  0  0  0  0  0  0  0
    7.1230   -5.7260   28.5780 Br  0  0  0  0  0  0  0  0  0  0  0  0
    8.0660   -0.1970   21.8220 C   0  0  1  0  0  0  0  0  0  0  0  0
    8.8170    0.7730   21.1040 O   0  0  0  0  0  0  0  0  0  0  0  0
    8.6290   -0.7160   22.9500 C   0  0  1  0  0  0  0  0  0  0  0  0
   13.8930   -1.8910   20.5300 N   0  0  0  0  0  0  0  0  0  0  0  0
    6.6580   -0.4930   21.3070 N   0  0  0  0  0  0  0  0  0  0  0  0
   13.1780   -1.3550   21.5740 C   0  0  0  0  0  0  0  0  0  0  0  0
    6.5690   -2.5060   21.0690 N   0  0  0  0  0  0  0  0  0  0  0  0
    6.3050   -3.3630   22.2310 C   0  0  0  0  0  0  0  0  0  0  0  0
    7.4310   -4.0130   22.7370 C   0  0  0  0  0  0  0  0  0  0  0  0
    8.3120   -2.9680   23.2100 N   0  0  0  0  0  0  0  0  0  0  0  0
    8.6180   -1.9750   22.1980 C   0  0  1  0  0  0  0  0  0  0  0  0
    7.6030   -1.4750   21.2180 C   0  0  1  0  0  0  0  0  0  0  0  0
    9.7450   -5.4970   25.3440 C   0  0  0  0  0  0  0  0  0  0  0  0
    9.1970   -4.2540   25.0600 C   0  0  0  0  0  0  0  0  0  0  0  0
    7.9710   -3.8270   26.2080 S   0  0  0  0  0  0  0  0  0  0  0  0
    8.1670   -5.2780   27.0490 C   0  0  0  0  0  0  0  0  0  0  0  0
    9.1990   -6.1340   26.4750 C   0  0  0  0  0  0  0  0  0  0  0  0
   11.9380    0.6260   24.3860 N   0  0  0  0  0  0  0  0  0  0  0  0
   12.7660    0.0610   23.5270 C   0  0  0  0  0  0  0  0  0  0  0  0
   12.3220   -0.7290   22.5190 C   0  0  0  0  0  0  0  0  0  0  0  0
   10.9990   -0.9530   22.3620 C   0  0  0  0  0  0  0  0  0  0  0  0
   10.1170   -0.3760   23.2340 C   0  0  0  0  0  0  0  0  0  0  0  0
   10.6190    0.3900   24.2210 C   0  0  0  0  0  0  0  0  0  0  0  0
    6.4320    0.6460   17.8050 N   0  0  0  0  0  0  0  0  0  0  0  0
    6.8360    0.0600   18.9540 C   0  0  0  0  0  0  0  0  0  0  0  0
    6.1630    0.1500   20.1550 C   0  0  0  0  0  0  0  0  0  0  0  0
    4.9850    0.8860   20.1970 C   0  0  0  0  0  0  0  0  0  0  0  0
    4.5450    1.4990   19.0270 C   0  0  0  0  0  0  0  0  0  0  0  0
    5.2930    1.3580   17.8630 C   0  0  0  0  0  0  0  0  0  0  0  0
  1  3  1  0
  2  3  2  0
  6  7  1  6
  6  8  1  0
  6 10  1  0
  9 11  3  0
  3 12  1  0
 12 13  1  0
 13 14  1  0
  4 15  1  0
 14 15  1  0
  8 16  1  0
 16 15  1  1
  6 17  1  0
 17 10  1  6
 12 17  1  0
 16 17  1  0
  4 19  1  0
 18 19  2  0
 19 20  1  0
  5 21  1  0
 20 21  1  0
 18 22  1  0
 21 22  2  0
 23 24  2  0
 11 25  1  0
 24 25  1  0
 25 26  2  0
  8 27  1  6
 26 27  1  0
 23 28  1  0
 27 28  2  0
 29 30  2  0
 10 31  1  0
 30 31  1  0
 31 32  2  0
 32 33  1  0
 29 34  1  0
 33 34  2  0
M  END
