x1380-x0434
     RDKit          3D

 34 37  0  0  0  0  0  0  0  0999 V2000
    7.2510   -3.2710   19.6410 C   0  0  0  0  0  0  0  0  0  0  0  0
    5.2990   -4.6250   19.9190 O   0  0  0  0  0  0  0  0  0  0  0  0
    6.3690   -4.1950   20.4040 C   0  0  0  0  0  0  0  0  0  0  0  0
    4.8870   -2.9080   25.2630 O   0  0  0  0  0  0  0  0  0  0  0  0
    5.9370   -3.5290   25.4410 C   0  0  0  0  0  0  0  0  0  0  0  0
    9.0710    0.7750   21.4450 O   0  0  0  0  0  0  0  0  0  0  0  0
    8.5990   -0.3400   21.6420 C   0  0  0  0  0  0  0  0  0  0  0  0
    8.9340   -1.2050   22.6820 N   0  0  0  0  0  0  0  0  0  0  0  0
    7.6070   -0.9040   20.8120 N   0  0  0  0  0  0  0  0  0  0  0  0
    7.7640   -2.2910   20.7450 C   0  0  0  0  0  0  0  0  0  0  0  0
    6.7900   -4.6210   21.6720 N   0  0  0  0  0  0  0  0  0  0  0  0
    6.1890   -5.6940   22.4390 C   0  0  0  0  0  0  0  0  0  0  0  0
    5.6150   -5.1310   23.7380 C   0  0  0  0  0  0  0  0  0  0  0  0
    6.4860   -4.2040   24.3370 C   0  0  0  0  0  0  0  0  0  0  0  0
    7.1370   -3.3130   23.5170 C   0  0  0  0  0  0  0  0  0  0  0  0
    7.6820   -3.8500   22.3560 C   0  0  0  0  0  0  0  0  0  0  0  0
    7.8980   -3.9860   26.9970 C   0  0  0  0  0  0  0  0  0  0  0  0
    7.9110   -5.2570   27.5960 C   0  0  0  0  0  0  0  0  0  0  0  0
    7.0200   -5.3790   28.6570 C   0  0  0  0  0  0  0  0  0  0  0  0
    5.6410   -4.8800   28.4870 C   0  0  0  0  0  0  0  0  0  0  0  0
    5.6540   -3.5520   27.8570 C   0  0  0  0  0  0  0  0  0  0  0  0
    6.5400   -3.5580   26.6920 N   0  0  0  0  0  0  0  0  0  0  0  0
   10.5530    0.5100   23.5450 C   0  0  0  0  0  0  0  0  0  0  0  0
   11.8180    1.0500   23.6890 C   0  0  0  0  0  0  0  0  0  0  0  0
   12.9000    0.4140   23.0850 C   0  0  0  0  0  0  0  0  0  0  0  0
   12.7020   -0.7230   22.3690 C   0  0  0  0  0  0  0  0  0  0  0  0
   11.4370   -1.2800   22.2100 C   0  0  0  0  0  0  0  0  0  0  0  0
   10.3340   -0.6600   22.8020 C   0  0  0  0  0  0  0  0  0  0  0  0
    5.5750    0.4930   20.3910 C   0  0  0  0  0  0  0  0  0  0  0  0
    4.7820    1.2030   19.4800 C   0  0  0  0  0  0  0  0  0  0  0  0
    5.1450    1.2470   18.1350 C   0  0  0  0  0  0  0  0  0  0  0  0
    6.2860    0.5800   17.7010 N   0  0  0  0  0  0  0  0  0  0  0  0
    7.0170   -0.0870   18.6120 C   0  0  0  0  0  0  0  0  0  0  0  0
    6.7350   -0.1730   19.9510 C   0  0  0  0  0  0  0  0  0  0  0  0
  1  3  1  0
  2  3  2  0
  4  5  2  0
  6  7  2  0
  7  8  1  0
  7  9  1  0
  1 10  1  0
  9 10  1  0
  3 11  1  0
 11 12  1  0
 12 13  1  0
  5 14  1  0
 13 14  1  0
 14 15  1  0
 11 16  1  0
 15 16  1  0
 17 18  1  0
 18 19  1  0
 19 20  1  0
 20 21  1  0
  5 22  1  0
 17 22  1  0
 21 22  1  0
 23 24  2  0
 24 25  1  0
 25 26  2  0
 26 27  1  0
  8 28  1  0
 23 28  1  0
 27 28  2  0
 29 30  2  0
 30 31  1  0
 31 32  2  0
 32 33  1  0
  9 34  1  0
 29 34  1  0
 33 34  2  0
M  END
