x1382-x1493
     RDKit          3D

 24 25  0  0  0  0  0  0  0  0999 V2000
   13.3370   -2.2800   21.3090 Cl  0  0  0  0  0  0  0  0  0  0  0  0
    7.3290   -1.2400   22.8560 C   0  0  0  0  0  0  0  0  0  0  0  0
    8.4530   -1.8700   22.0280 C   0  0  1  0  0  0  0  0  0  0  0  0
    8.2010   -1.8690   20.5480 N   0  0  0  0  0  0  0  0  0  0  0  0
    7.4990   -2.8900   19.8430 C   0  0  0  0  0  0  0  0  0  0  0  0
    6.7500   -2.7890   18.8350 O   0  0  0  0  0  0  0  0  0  0  0  0
    7.6420   -4.2170   20.4370 C   0  0  0  0  0  0  0  0  0  0  0  0
    4.7810   -6.4610   26.5940 C   0  0  0  0  0  0  0  0  0  0  0  0
    7.0380   -5.6390   26.8110 O   0  0  0  0  0  0  0  0  0  0  0  0
    6.0560   -5.7690   26.0870 C   0  0  0  0  0  0  0  0  0  0  0  0
    5.1890   -4.0540   20.0780 O   0  0  0  0  0  0  0  0  0  0  0  0
    6.2790   -4.3430   20.9460 C   0  0  0  0  0  0  0  0  0  0  0  0
    9.8000   -1.2110   22.3060 C   0  0  0  0  0  0  0  0  0  0  0  0
   10.8750   -1.8680   21.8290 C   0  0  0  0  0  0  0  0  0  0  0  0
   12.1410   -1.3720   21.9920 C   0  0  0  0  0  0  0  0  0  0  0  0
   12.4030   -0.2280   22.6320 C   0  0  0  0  0  0  0  0  0  0  0  0
   11.3460    0.4840   23.1370 C   0  0  0  0  0  0  0  0  0  0  0  0
   10.0430    0.0060   22.9880 C   0  0  0  0  0  0  0  0  0  0  0  0
    6.0630   -5.3160   24.7920 N   0  0  0  0  0  0  0  0  0  0  0  0
    7.2110   -4.5360   24.3010 C   0  0  0  0  0  0  0  0  0  0  0  0
    7.4450   -4.7330   22.9010 C   0  0  0  0  0  0  0  0  0  0  0  0
    6.1750   -4.7780   22.2150 N   0  0  0  0  0  0  0  0  0  0  0  0
    5.5420   -6.0320   22.5330 C   0  0  0  0  0  0  0  0  0  0  0  0
    5.1130   -5.9640   23.8450 C   0  0  0  0  0  0  0  0  0  0  0  0
  3  2  1  1
  3  4  1  0
  4  5  1  0
  5  6  2  0
  5  7  1  0
  8 10  1  0
  9 10  2  0
  7 12  1  0
 11 12  2  0
  3 13  1  0
 13 14  2  0
  1 15  1  0
 14 15  1  0
 15 16  2  0
 16 17  1  0
 13 18  1  0
 17 18  2  0
 10 19  1  0
 19 20  1  0
 20 21  1  0
 12 22  1  0
 21 22  1  0
 22 23  1  0
 19 24  1  0
 23 24  1  0
M  END
