x1386-x1418
     RDKit          3D

 15 16  0  0  0  0  0  0  0  0999 V2000
    7.4320   -2.9540   18.6920 C   0  0  0  0  0  0  0  0  0  0  0  0
    5.5120   -3.9490   19.6820 O   0  0  0  0  0  0  0  0  0  0  0  0
    6.5260   -3.1960   19.8340 C   0  0  0  0  0  0  0  0  0  0  0  0
    9.6320   -2.2280   23.8880 C   0  0  0  0  0  0  0  0  0  0  0  0
    6.8110   -2.6180   21.1090 N   0  0  0  0  0  0  0  0  0  0  0  0
    7.7830   -1.5310   21.4380 C   0  0  0  0  0  0  0  0  0  0  0  0
    9.2150   -1.9690   21.5610 C   0  0  0  0  0  0  0  0  0  0  0  0
    8.6400   -2.2830   22.8880 N   0  0  0  0  0  0  0  0  0  0  0  0
    7.6390   -3.2110   23.2270 C   0  0  0  0  0  0  0  0  0  0  0  0
    6.5350   -3.3830   22.2100 C   0  0  0  0  0  0  0  0  0  0  0  0
   11.8040   -1.7000   22.7740 C   0  0  0  0  0  0  0  0  0  0  0  0
   10.7710   -1.3720   23.6280 C   0  0  0  0  0  0  0  0  0  0  0  0
   10.9220   -0.1240   24.2250 C   0  0  0  0  0  0  0  0  0  0  0  0
   12.3270    0.7510   23.7800 S   0  0  0  0  0  0  0  0  0  0  0  0
   12.8340   -0.5740   22.7200 C   0  0  0  0  0  0  0  0  0  0  0  0
  1  3  1  0
  2  3  2  0
  3  5  1  0
  5  6  1  0
  6  7  1  0
  4  8  1  0
  7  8  1  0
  8  9  1  0
  5 10  1  0
  9 10  1  0
  4 12  1  0
 11 12  1  0
 12 13  2  0
 13 14  1  0
 11 15  2  0
 14 15  1  0
M  END
