x1385-x2097
     RDKit          3D

 16 17  0  0  0  0  0  0  0  0999 V2000
    7.4060   -2.9860   18.7660 C   0  0  0  0  0  0  0  0  0  0  0  0
    5.4720   -4.0330   19.7030 O   0  0  0  0  0  0  0  0  0  0  0  0
    6.4470   -3.2450   19.8770 C   0  0  0  0  0  0  0  0  0  0  0  0
    9.7150   -3.1070   24.1050 C   0  0  0  0  0  0  0  0  0  0  0  0
    7.1490   -5.7580   28.4950 Br  0  0  0  0  0  0  0  0  0  0  0  0
    6.6350   -2.6210   21.1380 N   0  0  0  0  0  0  0  0  0  0  0  0
    6.3630   -3.3500   22.3900 C   0  0  0  0  0  0  0  0  0  0  0  0
    7.6440   -3.7630   23.0160 C   0  0  0  0  0  0  0  0  0  0  0  0
    8.5450   -2.6430   23.3370 N   0  0  0  0  0  0  0  0  0  0  0  0
    8.9000   -1.9930   22.0570 C   0  0  0  0  0  0  0  0  0  0  0  0
    7.6820   -1.5830   21.2260 C   0  0  0  0  0  0  0  0  0  0  0  0
    9.8020   -5.3730   25.3630 C   0  0  0  0  0  0  0  0  0  0  0  0
    9.3160   -4.1150   25.1470 C   0  0  0  0  0  0  0  0  0  0  0  0
    8.0860   -3.7410   26.2780 S   0  0  0  0  0  0  0  0  0  0  0  0
    8.2340   -5.2460   27.0150 C   0  0  0  0  0  0  0  0  0  0  0  0
    9.1760   -6.0310   26.4520 C   0  0  0  0  0  0  0  0  0  0  0  0
  1  3  1  0
  2  3  2  0
  3  6  1  0
  6  7  1  0
  7  8  1  0
  4  9  1  0
  8  9  1  0
  9 10  1  0
  6 11  1  0
 10 11  1  0
  4 13  1  0
 12 13  2  0
 13 14  1  0
  5 15  1  0
 14 15  1  0
 12 16  1  0
 15 16  2  0
M  END
