x1380-x1093
     RDKit          3D

 37 41  0  0  0  0  0  0  0  0999 V2000
    7.7300   -3.6270   20.5100 C   0  0  0  0  0  0  0  0  0  0  0  0
    5.5790   -4.6860   19.9780 O   0  0  0  0  0  0  0  0  0  0  0  0
    6.5930   -4.5280   20.7160 C   0  0  0  0  0  0  0  0  0  0  0  0
    4.9740   -2.7090   25.3580 O   0  0  0  0  0  0  0  0  0  0  0  0
    5.9300   -3.4620   25.5520 C   0  0  0  0  0  0  0  0  0  0  0  0
   13.3740   -1.4040   23.4760 C   0  0  0  0  0  0  0  0  0  0  0  0
    8.7510    1.3050   21.2860 O   0  0  0  0  0  0  0  0  0  0  0  0
    8.7700    0.0760   21.5440 C   0  0  0  0  0  0  0  0  0  0  0  0
    7.9860   -0.9300   20.6320 C   0  0  1  0  0  0  0  0  0  0  0  0
    7.3300   -2.2090   21.0890 C   0  0  0  0  0  0  0  0  0  0  0  0
    6.7770   -5.2080   21.8980 N   0  0  0  0  0  0  0  0  0  0  0  0
    5.6690   -5.7610   22.6770 C   0  0  0  0  0  0  0  0  0  0  0  0
    5.3390   -4.9700   23.7620 C   0  0  0  0  0  0  0  0  0  0  0  0
    6.4090   -4.4410   24.4830 C   0  0  0  0  0  0  0  0  0  0  0  0
    7.2900   -3.7930   23.7180 C   0  0  0  0  0  0  0  0  0  0  0  0
    7.7670   -4.5850   22.6850 C   0  0  0  0  0  0  0  0  0  0  0  0
    7.9120   -4.2010   26.8270 C   0  0  0  0  0  0  0  0  0  0  0  0
    7.7530   -5.5210   27.4520 C   0  0  0  0  0  0  0  0  0  0  0  0
    7.0770   -5.3450   28.7340 C   0  0  0  0  0  0  0  0  0  0  0  0
    5.8540   -4.6990   28.5400 C   0  0  0  0  0  0  0  0  0  0  0  0
    5.9280   -3.4050   28.0240 C   0  0  0  0  0  0  0  0  0  0  0  0
    6.6300   -3.4830   26.7490 N   0  0  0  0  0  0  0  0  0  0  0  0
   12.0270   -1.1420   23.6520 N   0  0  0  0  0  0  0  0  0  0  0  0
   11.7420    0.2730   23.3440 C   0  0  0  0  0  0  0  0  0  0  0  0
   10.3970    0.5770   23.3410 C   0  0  0  0  0  0  0  0  0  0  0  0
    9.5550   -0.3930   22.5910 N   0  0  0  0  0  0  0  0  0  0  0  0
    9.9010   -1.8100   22.7800 C   0  0  0  0  0  0  0  0  0  0  0  0
   11.2530   -2.0270   22.8600 C   0  0  0  0  0  0  0  0  0  0  0  0
    6.1270    0.4340   17.7190 N   0  0  0  0  0  0  0  0  0  0  0  0
    7.1540   -0.3090   18.4420 C   0  0  0  0  0  0  0  0  0  0  0  0
    7.0550   -0.2430   19.7450 C   0  0  0  0  0  0  0  0  0  0  0  0
    5.9540    0.5240   20.0240 C   0  0  0  0  0  0  0  0  0  0  0  0
    5.4020    0.9370   18.7680 C   0  0  0  0  0  0  0  0  0  0  0  0
    4.2160    1.7810   18.6940 N   0  0  0  0  0  0  0  0  0  0  0  0
    3.5890    2.1680   19.8350 C   0  0  0  0  0  0  0  0  0  0  0  0
    4.0700    1.7960   21.0860 C   0  0  0  0  0  0  0  0  0  0  0  0
    5.3300    0.9270   21.1990 C   0  0  0  0  0  0  0  0  0  0  0  0
  1  3  1  0
  2  3  2  0
  4  5  2  0
  7  8  2  0
  8  9  1  0
  1 10  1  0
  9 10  1  1
  3 11  1  0
 11 12  1  0
 12 13  1  0
  5 14  1  0
 13 14  1  0
 14 15  1  0
 11 16  1  0
 15 16  1  0
 17 18  1  0
 18 19  1  0
 19 20  1  0
 20 21  1  0
  5 22  1  0
 17 22  1  0
 21 22  1  0
  6 23  1  0
 23 24  1  0
 24 25  1  0
  8 26  1  0
 25 26  1  0
 26 27  1  0
 23 28  1  0
 27 28  1  0
 29 30  1  0
  9 31  1  0
 30 31  2  0
 31 32  1  0
 29 33  2  0
 32 33  1  0
 33 34  1  0
 34 35  1  0
 35 36  2  0
 32 37  2  0
 36 37  1  0
M  END
