x1382-x0376
     RDKit          3D

 13 13  0  0  0  0  0  0  0  0999 V2000
   13.3440   -1.8000   21.2250 Cl  0  0  0  0  0  0  0  0  0  0  0  0
    7.6740   -1.2470   23.6620 C   0  0  0  0  0  0  0  0  0  0  0  0
    8.7340   -2.1200   23.0520 C   0  0  1  0  0  0  0  0  0  0  0  0
    8.4450   -2.5510   21.7650 N   0  0  0  0  0  0  0  0  0  0  0  0
    8.0150   -1.5470   20.7810 C   0  0  0  0  0  0  0  0  0  0  0  0
    8.1530   -0.3360   20.9280 O   0  0  0  0  0  0  0  0  0  0  0  0
    7.3410   -2.1010   19.5230 C   0  0  0  0  0  0  0  0  0  0  0  0
   10.0950   -1.4590   23.0070 C   0  0  0  0  0  0  0  0  0  0  0  0
   11.0410   -1.9550   22.1450 C   0  0  0  0  0  0  0  0  0  0  0  0
   12.2130   -1.1550   22.3040 C   0  0  0  0  0  0  0  0  0  0  0  0
   12.6960   -0.1190   22.9780 C   0  0  0  0  0  0  0  0  0  0  0  0
   11.7280    0.3490   23.8190 C   0  0  0  0  0  0  0  0  0  0  0  0
   10.4340   -0.3090   23.8450 C   0  0  0  0  0  0  0  0  0  0  0  0
  3  2  1  6
  3  4  1  0
  4  5  1  0
  5  6  2  0
  5  7  1  0
  3  8  1  0
  8  9  2  0
  1 10  1  0
  9 10  1  0
 10 11  2  0
 11 12  1  0
  8 13  1  0
 12 13  2  0
M  END
