x1385-x2608
     RDKit          3D

 32 37  0  0  0  0  0  0  0  0999 V2000
    7.3870   -3.0000   18.7720 C   0  0  0  0  0  0  0  0  0  0  0  0
    5.4370   -4.0510   19.6940 O   0  0  0  0  0  0  0  0  0  0  0  0
    6.4210   -3.2790   19.8700 C   0  0  0  0  0  0  0  0  0  0  0  0
    9.5260   -3.2710   24.0040 C   0  0  0  0  0  0  0  0  0  0  0  0
    7.1000   -5.7940   28.5400 Br  0  0  0  0  0  0  0  0  0  0  0  0
    8.5530   -0.8260   22.2800 C   0  0  2  0  0  0  0  0  0  0  0  0
   13.0760    1.8490   22.8700 C   0  0  0  0  0  0  0  0  0  0  0  0
    8.7260    1.2970   21.0900 O   0  0  0  0  0  0  0  0  0  0  0  0
    6.9900   -0.4010   21.0510 N   0  0  0  0  0  0  0  0  0  0  0  0
    8.1670    0.2500   21.3830 C   0  0  0  0  0  0  0  0  0  0  0  0
    6.6680   -2.6780   21.0820 N   0  0  0  0  0  0  0  0  0  0  0  0
    6.3480   -3.5320   22.2410 C   0  0  0  0  0  0  0  0  0  0  0  0
    7.4660   -4.0590   22.8410 C   0  0  0  0  0  0  0  0  0  0  0  0
    8.3660   -2.9710   23.2000 N   0  0  0  0  0  0  0  0  0  0  0  0
    8.7290   -2.2300   22.0090 C   0  0  1  0  0  0  0  0  0  0  0  0
    7.6850   -1.6830   21.2460 C   0  0  1  0  0  0  0  0  0  0  0  0
    9.7370   -5.4750   25.3350 C   0  0  0  0  0  0  0  0  0  0  0  0
    9.1870   -4.2280   25.0770 C   0  0  0  0  0  0  0  0  0  0  0  0
    7.9460   -3.8310   26.2200 S   0  0  0  0  0  0  0  0  0  0  0  0
    8.1460   -5.3030   27.0280 C   0  0  0  0  0  0  0  0  0  0  0  0
    9.1880   -6.1430   26.4450 C   0  0  0  0  0  0  0  0  0  0  0  0
   12.1540    0.7630   22.7820 C   0  0  0  0  0  0  0  0  0  0  0  0
   12.3270   -0.6110   22.7820 C   0  0  0  0  0  0  0  0  0  0  0  0
   11.1040   -1.2520   22.6240 C   0  0  0  0  0  0  0  0  0  0  0  0
    9.9910   -0.3820   22.5080 C   0  0  0  0  0  0  0  0  0  0  0  0
   10.3940    1.2410   22.6220 S   0  0  0  0  0  0  0  0  0  0  0  0
    6.1120    0.6390   17.7080 N   0  0  0  0  0  0  0  0  0  0  0  0
    6.7280    0.1030   18.7490 C   0  0  0  0  0  0  0  0  0  0  0  0
    6.2520    0.1440   20.0370 C   0  0  0  0  0  0  0  0  0  0  0  0
    5.0410    0.7700   20.2610 C   0  0  0  0  0  0  0  0  0  0  0  0
    4.3670    1.3460   19.2020 C   0  0  0  0  0  0  0  0  0  0  0  0
    4.9560    1.2570   17.9480 C   0  0  0  0  0  0  0  0  0  0  0  0
  1  3  1  0
  2  3  2  0
  6 10  1  0
  8 10  2  0
  9 10  1  0
  3 11  1  0
 11 12  1  0
 12 13  1  0
  4 14  1  0
 13 14  1  0
  6 15  1  0
 15 14  1  1
  6 16  1  0
 16  9  1  6
 11 16  1  0
 15 16  1  0
  4 18  1  0
 17 18  2  0
 18 19  1  0
  5 20  1  0
 19 20  1  0
 17 21  1  0
 20 21  2  0
  7 22  1  0
 22 23  2  0
 23 24  1  0
  6 25  1  1
 24 25  2  0
 22 26  1  0
 25 26  1  0
 27 28  2  0
  9 29  1  0
 28 29  1  0
 29 30  2  0
 30 31  1  0
 27 32  1  0
 31 32  2  0
M  END
