x1382-x0991
     RDKit          3D

 17 17  0  0  0  0  0  0  0  0999 V2000
   13.3130   -1.8590   21.2160 Cl  0  0  0  0  0  0  0  0  0  0  0  0
    7.4280   -1.6020   23.7870 C   0  0  0  0  0  0  0  0  0  0  0  0
    8.3030   -2.2370   22.7130 C   0  0  2  0  0  0  0  0  0  0  0  0
    7.5680   -2.0210   21.3800 N   0  0  0  0  0  0  0  0  0  0  0  0
    7.3310   -2.9600   20.3140 C   0  0  0  0  0  0  0  0  0  0  0  0
    6.4790   -2.9830   19.3180 O   0  0  0  0  0  0  0  0  0  0  0  0
    8.2160   -4.0760   20.4040 C   0  0  0  0  0  0  0  0  0  0  0  0
    9.6660   -5.1990   24.9120 N   0  0  0  0  0  0  0  0  0  0  0  0
    8.4450   -3.7950   23.0910 C   0  0  0  0  0  0  0  0  0  0  0  0
    7.9290   -3.8780   25.6190 N   0  0  0  0  0  0  0  0  0  0  0  0
    8.6920   -4.2910   24.5730 C   0  0  0  0  0  0  0  0  0  0  0  0
    9.6820   -1.5240   22.8190 C   0  0  0  0  0  0  0  0  0  0  0  0
   10.8050   -1.9150   22.0880 C   0  0  0  0  0  0  0  0  0  0  0  0
   12.0350   -1.2960   22.1610 C   0  0  0  0  0  0  0  0  0  0  0  0
   12.2230   -0.2100   23.0040 C   0  0  0  0  0  0  0  0  0  0  0  0
   11.1420    0.1630   23.7060 C   0  0  0  0  0  0  0  0  0  0  0  0
    9.8660   -0.4450   23.6570 C   0  0  0  0  0  0  0  0  0  0  0  0
  3  2  1  1
  3  4  1  0
  4  5  1  0
  5  6  2  0
  5  7  1  0
  3  9  1  0
  8 11  2  3
  9 11  1  0
 10 11  1  0
  3 12  1  0
 12 13  2  0
  1 14  1  0
 13 14  1  0
 14 15  2  0
 15 16  1  0
 12 17  1  0
 16 17  2  0
M  END
