x1385-x0678
     RDKit          3D

 32 35  0  0  0  0  0  0  0  0999 V2000
    7.4490   -3.0110   18.8340 C   0  0  0  0  0  0  0  0  0  0  0  0
    5.4070   -4.1310   19.7470 O   0  0  0  0  0  0  0  0  0  0  0  0
    6.4150   -3.3820   19.8370 C   0  0  0  0  0  0  0  0  0  0  0  0
    9.5580   -3.0970   24.1130 C   0  0  0  0  0  0  0  0  0  0  0  0
    7.1490   -5.6940   28.5040 Br  0  0  0  0  0  0  0  0  0  0  0  0
    9.0660    1.3730   21.2180 O   0  0  0  0  0  0  0  0  0  0  0  0
    8.5510    0.2320   21.9280 C   0  0  0  0  0  0  0  0  0  0  0  0
    9.2020   -0.1620   23.2180 C   0  0  0  0  0  0  0  0  0  0  0  0
    7.3610   -0.4060   21.3470 N   0  0  0  0  0  0  0  0  0  0  0  0
    6.7290   -2.7490   21.0500 N   0  0  0  0  0  0  0  0  0  0  0  0
    6.3540   -3.2880   22.2530 C   0  0  0  0  0  0  0  0  0  0  0  0
    7.5620   -3.8280   22.9970 C   0  0  0  0  0  0  0  0  0  0  0  0
    8.4460   -2.7630   23.2010 N   0  0  0  0  0  0  0  0  0  0  0  0
    8.8790   -2.1570   21.9340 C   0  0  0  0  0  0  0  0  0  0  0  0
    7.8410   -1.7550   21.1130 C   0  0  2  0  0  0  0  0  0  0  0  0
    9.7750   -5.3340   25.2920 C   0  0  0  0  0  0  0  0  0  0  0  0
    9.2070   -4.1080   25.1670 C   0  0  0  0  0  0  0  0  0  0  0  0
    8.1740   -3.8070   26.1690 S   0  0  0  0  0  0  0  0  0  0  0  0
    8.2450   -5.2700   27.0080 C   0  0  0  0  0  0  0  0  0  0  0  0
    9.1830   -6.0870   26.4570 C   0  0  0  0  0  0  0  0  0  0  0  0
   11.1480   -1.3490   22.3230 C   0  0  0  0  0  0  0  0  0  0  0  0
   12.5650   -1.7020   22.4150 C   0  0  0  0  0  0  0  0  0  0  0  0
   13.2720   -1.1030   23.4690 C   0  0  0  0  0  0  0  0  0  0  0  0
   12.5780   -0.2600   24.3530 C   0  0  0  0  0  0  0  0  0  0  0  0
   11.2060   -0.4190   24.3950 C   0  0  0  0  0  0  0  0  0  0  0  0
   10.7430   -0.2800   23.1310 C   0  0  0  0  0  0  0  0  0  0  0  0
    5.5740    0.9930   20.4190 C   0  0  0  0  0  0  0  0  0  0  0  0
    4.9410    1.5230   19.3090 C   0  0  0  0  0  0  0  0  0  0  0  0
    5.4170    1.2260   18.0420 C   0  0  0  0  0  0  0  0  0  0  0  0
    6.4770    0.4360   17.8400 N   0  0  0  0  0  0  0  0  0  0  0  0
    7.0800   -0.0780   18.9280 C   0  0  0  0  0  0  0  0  0  0  0  0
    6.6780    0.1670   20.2410 C   0  0  0  0  0  0  0  0  0  0  0  0
  1  3  1  0
  2  3  2  0
  6  7  2  0
  7  8  1  0
  7  9  1  0
  3 10  1  0
 10 11  1  0
 11 12  1  0
  4 13  1  0
 12 13  1  0
 13 14  1  0
 15  9  1  1
 10 15  1  0
 14 15  1  0
  4 17  1  0
 16 17  2  0
 17 18  1  0
  5 19  1  0
 18 19  1  0
 16 20  1  0
 19 20  2  0
 21 22  1  0
 22 23  1  0
 23 24  1  0
 24 25  1  0
  8 26  1  0
 21 26  1  0
 25 26  1  0
 27 28  2  0
 28 29  1  0
 29 30  2  0
 30 31  1  0
  9 32  1  0
 27 32  1  0
 31 32  2  0
M  END
