x1385-x0395
     RDKit          3D

 24 27  0  0  0  0  0  0  0  0999 V2000
    7.3990   -3.0130   18.7710 C   0  0  0  0  0  0  0  0  0  0  0  0
    5.4020   -4.1490   19.7560 O   0  0  0  0  0  0  0  0  0  0  0  0
    6.3830   -3.3590   19.8020 C   0  0  0  0  0  0  0  0  0  0  0  0
    9.5720   -3.3730   23.8850 C   0  0  0  0  0  0  0  0  0  0  0  0
    7.1810   -5.5730   28.5260 Br  0  0  0  0  0  0  0  0  0  0  0  0
    8.9650   -1.0640   22.9260 C   0  0  2  0  0  0  0  0  0  0  0  0
   13.5550   -1.5330   21.5880 F   0  0  0  0  0  0  0  0  0  0  0  0
    6.5610   -2.6990   21.0430 N   0  0  0  0  0  0  0  0  0  0  0  0
    6.3450   -3.4580   22.1700 C   0  0  0  0  0  0  0  0  0  0  0  0
    7.0810   -2.9370   23.4250 C   0  0  0  0  0  0  0  0  0  0  0  0
    8.5240   -2.4690   23.2660 C   0  0  2  0  0  0  0  0  0  0  0  0
    8.6040   -2.0520   21.9070 C   0  0  1  0  0  0  0  0  0  0  0  0
    7.5600   -1.6720   21.0990 C   0  0  0  0  0  0  0  0  0  0  0  0
    9.7290   -5.4950   25.2260 C   0  0  0  0  0  0  0  0  0  0  0  0
    9.1960   -4.2660   25.0280 C   0  0  0  0  0  0  0  0  0  0  0  0
    8.1960   -3.8530   26.0380 S   0  0  0  0  0  0  0  0  0  0  0  0
    8.2360   -5.2550   26.9800 C   0  0  0  0  0  0  0  0  0  0  0  0
    9.1300   -6.1130   26.4490 C   0  0  0  0  0  0  0  0  0  0  0  0
   10.7280    0.3120   23.9190 C   0  0  0  0  0  0  0  0  0  0  0  0
   11.9010    1.0830   23.5140 C   0  0  0  0  0  0  0  0  0  0  0  0
   12.8580    0.3690   22.8140 C   0  0  0  0  0  0  0  0  0  0  0  0
   12.6000   -0.8890   22.2680 C   0  0  0  0  0  0  0  0  0  0  0  0
   11.3530   -1.5030   22.4020 C   0  0  0  0  0  0  0  0  0  0  0  0
   10.3180   -0.5620   22.8430 N   0  0  0  0  0  0  0  0  0  0  0  0
  1  3  1  0
  2  3  2  0
  3  8  1  0
  8  9  1  0
  9 10  1  0
 11  4  1  6
  6 11  1  0
 10 11  1  0
  6 12  1  0
 11 12  1  0
  8 13  1  0
 12 13  1  1
  4 15  1  0
 14 15  2  0
 15 16  1  0
  5 17  1  0
 16 17  1  0
 14 18  1  0
 17 18  2  0
 19 20  1  0
 20 21  1  0
  7 22  1  0
 21 22  2  0
 22 23  1  0
  6 24  1  6
 19 24  1  0
 23 24  1  0
M  END
