x1386-x3298
     RDKit          3D

 38 42  0  0  0  0  0  0  0  0999 V2000
    7.2030    1.8180   21.9260 N   0  0  0  0  0  0  0  0  0  0  0  0
    7.1180   -0.2770   21.2580 C   0  0  2  0  0  0  0  0  0  0  0  0
    6.3530   -0.5830   22.0800 O   0  0  0  0  0  0  0  0  0  0  0  0
    8.0810    0.7960   21.6320 C   0  0  0  0  0  0  0  0  0  0  0  0
    8.6750    1.0970   23.8740 N   0  0  0  0  0  0  0  0  0  0  0  0
    9.4810    0.6330   21.5910 O   0  0  0  0  0  0  0  0  0  0  0  0
   10.8080    2.0410   24.7390 O   0  0  0  0  0  0  0  0  0  0  0  0
    9.9000   -0.1750   25.8990 O   0  0  0  0  0  0  0  0  0  0  0  0
   13.7570   -1.7260   20.8900 F   0  0  0  0  0  0  0  0  0  0  0  0
   10.1320    0.6340   24.6370 S   0  0  0  0  0  0  0  0  0  0  0  0
    7.2930   -2.9740   18.8300 C   0  0  0  0  0  0  0  0  0  0  0  0
    5.3290   -4.0510   19.6830 O   0  0  0  0  0  0  0  0  0  0  0  0
    6.3000   -3.2780   19.8860 C   0  0  0  0  0  0  0  0  0  0  0  0
    9.6590   -2.7460   23.7710 C   0  0  0  0  0  0  0  0  0  0  0  0
    6.2470    0.7100   17.5070 N   0  0  0  0  0  0  0  0  0  0  0  0
    6.9260    0.1200   18.6530 C   0  0  0  0  0  0  0  0  0  0  0  0
    6.4510    0.2730   20.0460 C   0  0  0  0  0  0  0  0  0  0  0  0
    5.3020    1.0130   20.1210 C   0  0  0  0  0  0  0  0  0  0  0  0
    4.6730    1.5590   19.0500 C   0  0  0  0  0  0  0  0  0  0  0  0
    5.1160    1.4380   17.7360 C   0  0  0  0  0  0  0  0  0  0  0  0
    7.7870    4.4110   22.2020 C   0  0  0  0  0  0  0  0  0  0  0  0
    8.5440    5.3280   22.9450 C   0  0  0  0  0  0  0  0  0  0  0  0
    9.3560    4.8850   23.9920 C   0  0  0  0  0  0  0  0  0  0  0  0
    9.4000    3.4290   24.3060 C   0  0  0  0  0  0  0  0  0  0  0  0
    8.6250    2.4970   23.5520 C   0  0  0  0  0  0  0  0  0  0  0  0
    7.8610    2.9520   22.5460 C   0  0  0  0  0  0  0  0  0  0  0  0
   12.4010    0.4920   23.3720 C   0  0  0  0  0  0  0  0  0  0  0  0
   13.2640   -0.0860   22.4660 C   0  0  0  0  0  0  0  0  0  0  0  0
   12.9290   -1.2080   21.7700 C   0  0  0  0  0  0  0  0  0  0  0  0
   11.7240   -1.8180   21.9450 C   0  0  0  0  0  0  0  0  0  0  0  0
   10.8460   -1.2710   22.8350 C   0  0  0  0  0  0  0  0  0  0  0  0
   11.2040   -0.1340   23.5160 C   0  0  0  0  0  0  0  0  0  0  0  0
    6.5060   -2.7140   21.1420 N   0  0  0  0  0  0  0  0  0  0  0  0
    7.2590   -1.6590   21.3830 C   0  0  1  0  0  0  0  0  0  0  0  0
    8.4890   -1.5100   21.9910 C   0  0  0  0  0  0  0  0  0  0  0  0
    8.3650   -2.4120   23.1860 N   0  0  0  0  0  0  0  0  0  0  0  0
    7.6150   -3.5400   23.0390 C   0  0  0  0  0  0  0  0  0  0  0  0
    6.4500   -3.4050   22.2720 C   0  0  0  0  0  0  0  0  0  0  0  0
  2  3  1  0
  1  4  1  0
  2  4  1  1
  4  6  2  0
 10  5  1  0
  7 10  2  0
  8 10  2  0
 11 13  1  0
 12 13  2  0
 15 16  2  0
  2 17  1  0
 16 17  1  0
 17 18  2  0
 18 19  1  0
 15 20  1  0
 19 20  2  0
 21 22  2  0
 22 23  1  0
 23 24  2  0
  5 25  1  0
 24 25  1  0
  1 26  1  0
 21 26  1  0
 25 26  2  0
 27 28  2  0
  9 29  1  0
 28 29  1  0
 29 30  2  0
 30 31  1  0
 10 32  1  0
 27 32  1  0
 31 32  2  0
 13 33  1  0
  2 34  1  0
 34  3  1  0
 33 34  1  0
 34 35  1  1
 14 36  1  0
 35 36  1  0
 36 37  1  0
 33 38  1  0
 37 38  1  0
M  END
