x1380-x2097
     RDKit          3D

 17 18  0  0  0  0  0  0  0  0999 V2000
    7.1680   -3.2530   19.2710 C   0  0  0  0  0  0  0  0  0  0  0  0
    5.2900   -4.5670   19.9020 O   0  0  0  0  0  0  0  0  0  0  0  0
    6.3720   -4.0460   20.2490 C   0  0  0  0  0  0  0  0  0  0  0  0
    4.8600   -2.8350   25.2620 O   0  0  0  0  0  0  0  0  0  0  0  0
    5.9230   -3.4250   25.4590 C   0  0  0  0  0  0  0  0  0  0  0  0
    6.8770   -4.2760   21.5500 N   0  0  0  0  0  0  0  0  0  0  0  0
    6.4320   -5.4630   22.2820 C   0  0  0  0  0  0  0  0  0  0  0  0
    5.7330   -5.0180   23.5150 C   0  0  0  0  0  0  0  0  0  0  0  0
    6.6810   -4.0590   24.2830 C   0  0  0  0  0  0  0  0  0  0  0  0
    7.2160   -2.9090   23.4270 C   0  0  0  0  0  0  0  0  0  0  0  0
    7.8130   -3.3880   22.2630 C   0  0  0  0  0  0  0  0  0  0  0  0
    7.8300   -3.9670   26.9090 C   0  0  0  0  0  0  0  0  0  0  0  0
    7.8960   -5.2190   27.5090 C   0  0  0  0  0  0  0  0  0  0  0  0
    7.1160   -5.2880   28.6140 C   0  0  0  0  0  0  0  0  0  0  0  0
    5.7640   -4.8810   28.5270 C   0  0  0  0  0  0  0  0  0  0  0  0
    5.6560   -3.6040   27.9720 C   0  0  0  0  0  0  0  0  0  0  0  0
    6.4530   -3.5250   26.7430 N   0  0  0  0  0  0  0  0  0  0  0  0
  1  3  1  0
  2  3  2  0
  4  5  2  0
  3  6  1  0
  6  7  1  0
  7  8  1  0
  5  9  1  0
  8  9  1  0
  9 10  1  0
  6 11  1  0
 10 11  1  0
 12 13  1  0
 13 14  1  0
 14 15  1  0
 15 16  1  0
  5 17  1  0
 12 17  1  0
 16 17  1  0
M  END
