x1386-x2581
     RDKit          3D

 34 39  0  0  0  0  0  0  0  0999 V2000
    9.5940   -2.4690   23.3940 C   0  0  0  0  0  0  0  0  0  0  0  0
    9.7990    3.3690   22.2520 N   0  0  0  0  0  0  0  0  0  0  0  0
   11.2480    2.8580   23.9500 O   0  0  0  0  0  0  0  0  0  0  0  0
   10.9010    3.6170   23.0670 C   0  0  0  0  0  0  0  0  0  0  0  0
   11.6570    4.9270   22.7810 C   0  0  0  0  0  0  0  0  0  0  0  0
    7.5700   -2.9480   18.6510 C   0  0  0  0  0  0  0  0  0  0  0  0
    5.7630   -3.8780   19.7600 O   0  0  0  0  0  0  0  0  0  0  0  0
    6.7700   -3.0620   19.8500 C   0  0  0  0  0  0  0  0  0  0  0  0
    8.0260    1.6650   22.1410 N   0  0  0  0  0  0  0  0  0  0  0  0
    9.3640    1.9980   21.9710 C   0  0  2  0  0  0  0  0  0  0  0  0
   10.2610    0.9760   22.5870 C   0  0  0  0  0  0  0  0  0  0  0  0
    9.8060   -0.3290   22.7060 C   0  0  0  0  0  0  0  0  0  0  0  0
    8.5380   -0.8080   22.2970 C   0  0  1  0  0  0  0  0  0  0  0  0
    7.5950    0.2360   22.2990 C   0  0  0  0  0  0  0  0  0  0  0  0
    9.7210    6.5720   22.7640 C   0  0  0  0  0  0  0  0  0  0  0  0
    9.1190    7.6920   23.3070 C   0  0  0  0  0  0  0  0  0  0  0  0
    9.6640    8.3930   24.3580 C   0  0  0  0  0  0  0  0  0  0  0  0
   10.9450    7.9800   24.9810 C   0  0  0  0  0  0  0  0  0  0  0  0
   11.6110    6.7700   24.4130 C   0  0  0  0  0  0  0  0  0  0  0  0
   11.0260    6.0750   23.3310 C   0  0  0  0  0  0  0  0  0  0  0  0
    9.0450    9.5250   24.8810 C   0  0  0  0  0  0  0  0  0  0  0  0
    9.6060   10.2510   25.9520 C   0  0  0  0  0  0  0  0  0  0  0  0
   10.7940    9.8530   26.5210 C   0  0  0  0  0  0  0  0  0  0  0  0
   11.4540    8.7320   26.0420 C   0  0  0  0  0  0  0  0  0  0  0  0
    7.2350   -2.2330   21.0660 C   0  0  0  0  0  0  0  0  0  0  0  0
    8.4440   -1.4300   20.8770 C   0  0  0  0  0  0  0  0  0  0  0  0
    8.3910   -1.8020   23.4110 N   0  0  0  0  0  0  0  0  0  0  0  0
    7.3160   -2.7240   23.3120 C   0  0  0  0  0  0  0  0  0  0  0  0
    6.4360   -2.3320   22.3190 C   0  0  0  0  0  0  0  0  0  0  0  0
   11.7660   -1.5760   22.4920 C   0  0  0  0  0  0  0  0  0  0  0  0
   10.6310   -1.3650   23.3350 C   0  0  2  0  0  0  0  0  0  0  0  0
   10.9050   -0.7750   24.5840 C   0  0  0  0  0  0  0  0  0  0  0  0
   12.6220   -0.4190   24.5040 S   0  0  0  0  0  0  0  0  0  0  0  0
   12.9550   -1.1040   22.9240 C   0  0  0  0  0  0  0  0  0  0  0  0
  2  4  1  0
  3  4  2  0
  4  5  1  0
  6  8  1  0
  7  8  2  0
 10  2  1  1
  9 10  1  0
 10 11  1  0
 11 12  2  0
 12 13  1  0
  9 14  2  0
 13 14  1  1
 15 16  2  0
 16 17  1  0
 17 18  2  0
 18 19  1  0
  5 20  1  0
 15 20  1  0
 19 20  2  0
 17 21  1  0
 21 22  2  0
 22 23  1  0
 18 24  1  0
 23 24  2  0
  8 25  1  0
 13 26  1  0
 25 26  2  0
  1 27  1  0
 13 27  1  0
 27 28  1  0
 25 29  1  0
 28 29  1  0
 31  1  1  1
 12 31  1  0
 31 30  1  0
 31 32  1  0
 32 33  2  0
 30 34  2  0
 33 34  1  0
M  END
