x1380-x2119
     RDKit          3D

 17 18  0  0  0  0  0  0  0  0999 V2000
    7.0300   -3.2660   19.3220 C   0  0  0  0  0  0  0  0  0  0  0  0
    5.2680   -4.7260   19.9390 O   0  0  0  0  0  0  0  0  0  0  0  0
    6.2640   -4.0690   20.3130 C   0  0  0  0  0  0  0  0  0  0  0  0
    4.7190   -2.6470   25.5670 O   0  0  0  0  0  0  0  0  0  0  0  0
    5.7580   -3.2880   25.4190 C   0  0  0  0  0  0  0  0  0  0  0  0
    6.6900   -4.1330   21.6550 N   0  0  0  0  0  0  0  0  0  0  0  0
    6.5190   -5.4340   22.3480 C   0  0  0  0  0  0  0  0  0  0  0  0
    6.1310   -5.2150   23.7670 C   0  0  0  0  0  0  0  0  0  0  0  0
    6.1670   -3.6960   23.9960 C   0  0  0  0  0  0  0  0  0  0  0  0
    7.5150   -3.1020   23.6290 C   0  0  0  0  0  0  0  0  0  0  0  0
    7.6580   -3.1710   22.2480 C   0  0  0  0  0  0  0  0  0  0  0  0
    7.8000   -4.3140   26.4200 C   0  0  0  0  0  0  0  0  0  0  0  0
    7.9250   -5.3670   27.3250 C   0  0  0  0  0  0  0  0  0  0  0  0
    7.5020   -5.0330   28.5510 C   0  0  0  0  0  0  0  0  0  0  0  0
    6.1870   -4.5500   28.6940 C   0  0  0  0  0  0  0  0  0  0  0  0
    6.0170   -3.4050   27.9190 C   0  0  0  0  0  0  0  0  0  0  0  0
    6.5130   -3.6170   26.5540 N   0  0  0  0  0  0  0  0  0  0  0  0
  1  3  1  0
  2  3  2  0
  4  5  2  0
  3  6  1  0
  6  7  1  0
  7  8  1  0
  5  9  1  0
  8  9  1  0
  9 10  1  0
  6 11  1  0
 10 11  1  0
 12 13  1  0
 13 14  1  0
 14 15  1  0
 15 16  1  0
  5 17  1  0
 12 17  1  0
 16 17  1  0
M  END
