x1380-x1358
     RDKit          3D

 25 28  0  0  0  0  0  0  0  0999 V2000
    7.0700   -2.4870   26.0680 N   0  0  0  0  0  0  0  0  0  0  0  0
    5.4020   -0.1730   25.4950 O   0  0  0  0  0  0  0  0  0  0  0  0
    4.7640   -3.0450   25.4190 O   0  0  0  0  0  0  0  0  0  0  0  0
    5.1500   -4.2410   19.7130 O   0  0  0  0  0  0  0  0  0  0  0  0
    6.1740   -3.2910   25.3650 C   0  0  1  0  0  0  0  0  0  0  0  0
    6.2820   -3.8280   20.0240 C   0  0  0  0  0  0  0  0  0  0  0  0
    7.1850   -3.1780   19.0550 C   0  0  0  0  0  0  0  0  0  0  0  0
    6.0180   -0.1970   26.5660 C   0  0  0  0  0  0  0  0  0  0  0  0
    6.8800   -1.3780   26.8750 C   0  0  0  0  0  0  0  0  0  0  0  0
    7.5900   -1.2860   28.2310 C   0  0  0  0  0  0  0  0  0  0  0  0
    7.3840   -0.0880   29.1160 C   0  0  0  0  0  0  0  0  0  0  0  0
    6.5400    0.9150   28.6590 C   0  0  0  0  0  0  0  0  0  0  0  0
    5.8770    0.8890   27.4480 C   0  0  0  0  0  0  0  0  0  0  0  0
    6.7710   -4.0010   21.2950 N   0  0  0  0  0  0  0  0  0  0  0  0
    7.6220   -3.0040   21.9460 C   0  0  0  0  0  0  0  0  0  0  0  0
    7.1710   -2.7290   23.1750 C   0  0  0  0  0  0  0  0  0  0  0  0
    6.6580   -3.7310   24.0180 C   0  0  0  0  0  0  0  0  0  0  0  0
    5.7560   -4.5650   23.3450 C   0  0  0  0  0  0  0  0  0  0  0  0
    6.2760   -5.1220   22.0880 C   0  0  0  0  0  0  0  0  0  0  0  0
    7.8280   -4.7770   26.5780 C   0  0  0  0  0  0  0  0  0  0  0  0
    8.0830   -5.5250   27.7220 C   0  0  0  0  0  0  0  0  0  0  0  0
    7.1160   -5.5110   28.7230 C   0  0  0  0  0  0  0  0  0  0  0  0
    5.8790   -4.9610   28.3740 C   0  0  0  0  0  0  0  0  0  0  0  0
    6.0840   -3.7240   27.8290 C   0  0  0  0  0  0  0  0  0  0  0  0
    6.8250   -3.8070   26.6520 C   0  0  0  0  0  0  0  0  0  0  0  0
  1  5  1  0
  5  3  1  1
  4  6  2  0
  6  7  1  0
  2  8  1  0
  1  9  1  0
  8  9  2  0
  9 10  1  0
 10 11  2  0
 11 12  1  0
  8 13  1  0
 12 13  2  0
  6 14  1  0
 14 15  1  0
 15 16  1  0
  5 17  1  0
 16 17  1  0
 17 18  1  0
 14 19  1  0
 18 19  1  0
 20 21  1  0
 21 22  1  0
 22 23  1  0
 23 24  1  0
 25  1  1  0
  5 25  1  0
 20 25  1  0
 24 25  1  0
M  END
