x1380-x0734
     RDKit          3D

 18 19  0  0  0  0  0  0  0  0999 V2000
    5.2060   -4.9360   26.2450 N   0  0  0  0  0  0  0  0  0  0  0  0
    4.6370   -5.7510   25.5040 O   0  0  0  0  0  0  0  0  0  0  0  0
    4.6210   -3.8240   26.7540 O   0  0  0  0  0  0  0  0  0  0  0  0
    5.0990   -4.2550   19.7050 O   0  0  0  0  0  0  0  0  0  0  0  0
    6.2220   -3.8340   20.0330 C   0  0  0  0  0  0  0  0  0  0  0  0
    7.1050   -3.1480   19.0550 C   0  0  0  0  0  0  0  0  0  0  0  0
    6.6550   -4.9950   26.3270 C   0  0  0  0  0  0  0  0  0  0  0  0
    7.4560   -4.5700   25.1630 C   0  0  0  0  0  0  0  0  0  0  0  0
    8.9300   -4.6270   25.2700 C   0  0  0  0  0  0  0  0  0  0  0  0
    9.5240   -5.1330   26.5890 C   0  0  0  0  0  0  0  0  0  0  0  0
    8.5910   -5.5500   27.7240 C   0  0  0  0  0  0  0  0  0  0  0  0
    7.2060   -5.4550   27.5270 C   0  0  0  0  0  0  0  0  0  0  0  0
    6.6830   -4.0400   21.3190 N   0  0  0  0  0  0  0  0  0  0  0  0
    6.5250   -5.3440   21.9470 C   0  0  0  0  0  0  0  0  0  0  0  0
    6.0810   -5.1700   23.2550 C   0  0  0  0  0  0  0  0  0  0  0  0
    6.8470   -4.1200   23.9900 N   0  0  0  0  0  0  0  0  0  0  0  0
    7.5080   -3.1540   23.3140 C   0  0  0  0  0  0  0  0  0  0  0  0
    7.5430   -3.1400   21.9250 C   0  0  0  0  0  0  0  0  0  0  0  0
  1  2  2  0
  1  3  1  0
  4  5  2  0
  5  6  1  0
  1  7  1  0
  7  8  2  0
  8  9  1  0
  9 10  2  0
 10 11  1  0
  7 12  1  0
 11 12  2  0
  5 13  1  0
 13 14  1  0
 14 15  1  0
  8 16  1  0
 15 16  1  0
 16 17  1  0
 13 18  1  0
 17 18  1  0
M  CHG  2   1   1   3  -1
M  END
