x1380-x0305
     RDKit          3D

 30 33  0  0  0  0  0  0  0  0999 V2000
    7.1620   -3.2650   19.2890 C   0  0  0  0  0  0  0  0  0  0  0  0
    5.2780   -4.5840   19.8980 O   0  0  0  0  0  0  0  0  0  0  0  0
    6.3530   -4.0620   20.2610 C   0  0  0  0  0  0  0  0  0  0  0  0
    4.9330   -3.1490   25.2930 O   0  0  0  0  0  0  0  0  0  0  0  0
    6.1560   -3.2930   25.3900 C   0  0  2  0  0  0  0  0  0  0  0  0
    7.9590    0.2450   27.2820 C   0  0  0  0  0  0  0  0  0  0  0  0
    8.8270   -0.6340   26.4680 C   0  0  2  0  0  0  0  0  0  0  0  0
    9.6970    0.1890   25.6130 N   0  0  0  0  0  0  0  0  0  0  0  0
   13.0770   -1.4920   21.5040 C   0  0  0  0  0  0  0  0  0  0  0  0
   13.7450   -1.7580   20.6530 N   0  0  0  0  0  0  0  0  0  0  0  0
    6.8250   -2.0900   26.0310 C   0  0  2  0  0  0  0  0  0  0  0  0
    8.0410   -1.5930   25.5370 C   0  0  0  0  0  0  0  0  0  0  0  0
    6.8210   -4.2820   21.5550 N   0  0  0  0  0  0  0  0  0  0  0  0
    6.4230   -5.3790   22.4420 C   0  0  0  0  0  0  0  0  0  0  0  0
    6.0070   -4.8790   23.6810 C   0  0  0  0  0  0  0  0  0  0  0  0
    6.8810   -3.9720   24.2040 C   0  0  0  0  0  0  0  0  0  0  0  0
    7.2560   -2.9060   23.3690 C   0  0  0  0  0  0  0  0  0  0  0  0
    7.7280   -3.2950   22.1290 C   0  0  0  0  0  0  0  0  0  0  0  0
    7.9270   -4.0130   27.1120 C   0  0  0  0  0  0  0  0  0  0  0  0
    7.9470   -5.2570   27.8890 C   0  0  0  0  0  0  0  0  0  0  0  0
    6.7770   -5.4340   28.6340 C   0  0  0  0  0  0  0  0  0  0  0  0
    5.9150   -4.3500   28.8550 C   0  0  0  0  0  0  0  0  0  0  0  0
    5.8030   -3.3690   27.8560 C   0  0  0  0  0  0  0  0  0  0  0  0
    6.7060   -3.3830   26.8310 C   0  0  0  0  0  0  0  0  0  0  0  0
   10.5860   -0.2490   24.5200 C   0  0  0  0  0  0  0  0  0  0  0  0
   11.7430    0.4130   24.2840 N   0  0  0  0  0  0  0  0  0  0  0  0
   12.5360   -0.0130   23.2950 C   0  0  0  0  0  0  0  0  0  0  0  0
   12.2140   -1.1000   22.5100 C   0  0  0  0  0  0  0  0  0  0  0  0
   11.0350   -1.7870   22.7280 C   0  0  0  0  0  0  0  0  0  0  0  0
   10.2050   -1.3550   23.7520 C   0  0  0  0  0  0  0  0  0  0  0  0
  1  3  1  0
  2  3  2  0
  5  4  1  1
  7  6  1  6
  7  8  1  0
  9 10  3  0
  5 11  1  0
  7 12  1  0
 11 12  1  6
  3 13  1  0
 13 14  1  0
 14 15  1  0
  5 16  1  0
 15 16  1  0
 16 17  1  0
 13 18  1  0
 17 18  1  0
 19 20  1  0
 20 21  1  0
 21 22  1  0
 22 23  1  0
  5 24  1  0
 11 24  1  0
 24 19  1  0
 23 24  1  0
  8 25  1  0
 25 26  2  0
 26 27  1  0
  9 28  1  0
 27 28  2  0
 28 29  1  0
 25 30  1  0
 29 30  2  0
M  END
