x1386-x0770
     RDKit          3D

 17 18  0  0  0  0  0  0  0  0999 V2000
    7.1260   -3.0380   18.9380 C   0  0  0  0  0  0  0  0  0  0  0  0
    5.2720   -4.3060   19.7830 O   0  0  0  0  0  0  0  0  0  0  0  0
   13.3880   -1.7580   21.1500 Cl  0  0  0  0  0  0  0  0  0  0  0  0
    6.1910   -3.4890   20.0250 C   0  0  0  0  0  0  0  0  0  0  0  0
    9.2150   -1.9720   23.6820 C   0  0  0  0  0  0  0  0  0  0  0  0
    6.3150   -3.0310   21.3630 N   0  0  0  0  0  0  0  0  0  0  0  0
    6.8860   -1.7420   21.7900 C   0  0  0  0  0  0  0  0  0  0  0  0
    8.3570   -1.7390   21.6740 C   0  0  0  0  0  0  0  0  0  0  0  0
    8.0520   -2.2870   23.0230 N   0  0  0  0  0  0  0  0  0  0  0  0
    7.4240   -3.4870   23.3900 C   0  0  0  0  0  0  0  0  0  0  0  0
    6.4300   -3.9760   22.3550 C   0  0  0  0  0  0  0  0  0  0  0  0
   10.8630   -0.3030   24.4780 C   0  0  0  0  0  0  0  0  0  0  0  0
   12.0870    0.2340   24.2220 C   0  0  0  0  0  0  0  0  0  0  0  0
   12.9100   -0.1740   23.2140 C   0  0  0  0  0  0  0  0  0  0  0  0
   12.4770   -1.1660   22.4360 C   0  0  0  0  0  0  0  0  0  0  0  0
   11.2520   -1.7730   22.6110 C   0  0  0  0  0  0  0  0  0  0  0  0
   10.4400   -1.3300   23.6340 C   0  0  0  0  0  0  0  0  0  0  0  0
  1  4  1  0
  2  4  2  0
  4  6  1  0
  6  7  1  0
  7  8  1  0
  5  9  1  0
  8  9  1  0
  9 10  1  0
  6 11  1  0
 10 11  1  0
 12 13  2  0
 13 14  1  0
  3 15  1  0
 14 15  2  0
 15 16  1  0
  5 17  1  0
 12 17  1  0
 16 17  2  0
M  END
