x1384-x3077
     RDKit          3D

 28 33  0  0  0  0  0  0  0  0999 V2000
    6.8490   -3.2290   19.2560 C   0  0  0  0  0  0  0  0  0  0  0  0
    5.3440   -4.9030   19.9680 O   0  0  0  0  0  0  0  0  0  0  0  0
   13.3860   -2.1210   21.1380 Cl  0  0  0  0  0  0  0  0  0  0  0  0
    6.1600   -4.0300   20.3080 C   0  0  0  0  0  0  0  0  0  0  0  0
    9.0410   -1.8520   23.9340 C   0  0  0  0  0  0  0  0  0  0  0  0
    4.8990   -2.0670   26.8740 O   0  0  0  0  0  0  0  0  0  0  0  0
    6.4420   -3.8760   21.6700 N   0  0  0  0  0  0  0  0  0  0  0  0
    7.3510   -4.7410   22.4640 C   0  0  0  0  0  0  0  0  0  0  0  0
    7.7800   -3.7890   23.5220 C   0  0  2  0  0  0  0  0  0  0  0  0
    6.4710   -3.0560   23.7730 C   0  0  1  0  0  0  0  0  0  0  0  0
    6.3690   -2.5700   22.3390 C   0  0  1  0  0  0  0  0  0  0  0  0
    8.4310   -2.6550   22.9250 N   0  0  0  0  0  0  0  0  0  0  0  0
    7.5290   -1.8240   22.1000 C   0  0  0  0  0  0  0  0  0  0  0  0
   10.6110    0.1020   23.5630 C   0  0  0  0  0  0  0  0  0  0  0  0
   11.7560    0.7120   23.1120 C   0  0  0  0  0  0  0  0  0  0  0  0
   12.6440    0.0690   22.4170 C   0  0  0  0  0  0  0  0  0  0  0  0
   12.3370   -1.2540   22.1410 C   0  0  0  0  0  0  0  0  0  0  0  0
   11.2450   -1.9450   22.5750 C   0  0  0  0  0  0  0  0  0  0  0  0
   10.2660   -1.2740   23.3720 C   0  0  0  0  0  0  0  0  0  0  0  0
    4.1710   -3.8440   23.7500 C   0  0  2  0  0  0  0  0  0  0  0  0
    5.3940   -4.0330   24.1250 C   0  0  2  0  0  0  0  0  0  0  0  0
    4.8290   -4.2040   25.3320 C   0  0  2  0  0  0  0  0  0  0  0  0
    4.2970   -5.4860   25.4810 C   0  0  0  0  0  0  0  0  0  0  0  0
    3.9830   -5.5790   24.1910 C   0  0  0  0  0  0  0  0  0  0  0  0
    3.8050   -5.0010   22.9790 C   0  0  0  0  0  0  0  0  0  0  0  0
    4.1380   -2.9250   26.0530 C   0  0  2  0  0  0  0  0  0  0  0  0
    4.5250   -2.8080   24.8720 C   0  0  0  0  0  0  0  0  0  0  0  0
    3.3060   -3.5740   24.8390 C   0  0  0  0  0  0  0  0  0  0  0  0
  1  4  1  0
  2  4  2  0
  4  7  1  0
  7  8  1  0
  9  8  1  6
 10  9  1  6
  7 11  1  0
 10 11  1  0
  5 12  1  0
  9 12  1  0
 11 13  1  6
 12 13  1  0
 14 15  2  0
 15 16  1  0
  3 17  1  0
 16 17  2  0
 17 18  1  0
  5 19  1  0
 14 19  1  0
 18 19  2  0
 10 21  1  0
 21 20  1  6
 20 22  1  0
 21 22  1  0
 22 23  1  1
 23 24  1  0
 20 25  1  6
 24 25  2  0
 26  6  1  1
 22 26  1  0
 26 27  1  0
 20 28  1  0
 27 28  2  0
M  END
