x1386-x0692
     RDKit          3D

 17 18  0  0  0  0  0  0  0  0999 V2000
   11.1290    2.3980   23.6330 C   0  0  0  0  0  0  0  0  0  0  0  0
    5.4590   -4.1370   19.7400 O   0  0  0  0  0  0  0  0  0  0  0  0
    9.4940   -2.6280   23.7620 C   0  0  0  0  0  0  0  0  0  0  0  0
    6.3260   -3.2160   19.8270 C   0  0  0  0  0  0  0  0  0  0  0  0
    7.2840   -2.9840   18.7190 C   0  0  0  0  0  0  0  0  0  0  0  0
   11.3850    0.9390   23.4920 C   0  0  0  0  0  0  0  0  0  0  0  0
   10.2440   -0.0560   23.7390 C   0  0  0  0  0  0  0  0  0  0  0  0
   10.5020   -1.5400   23.5750 C   0  0  0  0  0  0  0  0  0  0  0  0
   11.8100   -1.8310   23.2100 C   0  0  0  0  0  0  0  0  0  0  0  0
   12.8120   -0.9210   23.0040 C   0  0  0  0  0  0  0  0  0  0  0  0
   12.6520    0.4590   23.1300 C   0  0  0  0  0  0  0  0  0  0  0  0
    6.4060   -2.4130   20.9920 N   0  0  0  0  0  0  0  0  0  0  0  0
    7.4540   -1.4210   21.0080 C   0  0  0  0  0  0  0  0  0  0  0  0
    8.6490   -1.7920   21.6630 C   0  0  0  0  0  0  0  0  0  0  0  0
    8.3050   -2.3790   22.9950 N   0  0  0  0  0  0  0  0  0  0  0  0
    7.5860   -3.4980   22.7500 C   0  0  0  0  0  0  0  0  0  0  0  0
    6.2620   -3.0860   22.2630 C   0  0  0  0  0  0  0  0  0  0  0  0
  2  4  2  0
  4  5  1  0
  1  6  1  0
  6  7  2  0
  3  8  1  0
  7  8  1  0
  8  9  2  0
  9 10  1  0
  6 11  1  0
 10 11  2  0
  4 12  1  0
 12 13  1  0
 13 14  1  0
  3 15  1  0
 14 15  1  0
 15 16  1  0
 12 17  1  0
 16 17  1  0
M  END
