x1380-x0755
     RDKit          3D

 26 28  0  0  0  0  0  0  0  0999 V2000
    4.0930   -6.4200   25.6000 O   0  0  0  0  0  0  0  0  0  0  0  0
    6.0950   -4.9810   26.4450 N   0  0  0  0  0  0  0  0  0  0  0  0
    5.2670   -4.6720   19.9380 O   0  0  0  0  0  0  0  0  0  0  0  0
    6.3870   -4.5180   20.4690 C   0  0  0  0  0  0  0  0  0  0  0  0
    7.2920   -3.4630   19.9160 C   0  0  0  0  0  0  0  0  0  0  0  0
    1.8760   -5.4100   25.7380 F   0  0  0  0  0  0  0  0  0  0  0  0
    5.5530   -2.0970   25.7260 F   0  0  0  0  0  0  0  0  0  0  0  0
    4.8930   -5.2150   25.5460 S   0  0  2  0  0  0  0  0  0  0  0  0
    2.3210   -4.1500   25.7990 C   0  0  0  0  0  0  0  0  0  0  0  0
    3.7760   -3.8770   25.7220 C   0  0  0  0  0  0  0  0  0  0  0  0
    4.2670   -2.4680   25.7870 C   0  0  0  0  0  0  0  0  0  0  0  0
    3.1720   -1.3910   25.9380 C   0  0  0  0  0  0  0  0  0  0  0  0
    1.7070   -1.8220   26.0070 C   0  0  0  0  0  0  0  0  0  0  0  0
    1.3530   -3.1630   25.9350 C   0  0  0  0  0  0  0  0  0  0  0  0
    6.7530   -5.3450   21.5400 N   0  0  0  0  0  0  0  0  0  0  0  0
    7.5630   -4.8250   22.6400 C   0  0  0  0  0  0  0  0  0  0  0  0
    6.8000   -4.3440   23.7180 C   0  0  0  0  0  0  0  0  0  0  0  0
    5.6140   -5.1970   24.0200 N   0  0  0  0  0  0  0  0  0  0  0  0
    5.0500   -5.8880   23.0240 C   0  0  0  0  0  0  0  0  0  0  0  0
    5.8330   -6.2900   21.9470 C   0  0  0  0  0  0  0  0  0  0  0  0
    7.9180   -3.6940   27.2730 C   0  0  0  0  0  0  0  0  0  0  0  0
    8.1670   -4.8880   28.1110 C   0  0  0  0  0  0  0  0  0  0  0  0
    6.8740   -5.2840   28.7260 C   0  0  0  0  0  0  0  0  0  0  0  0
    5.9780   -4.2320   29.0110 C   0  0  0  0  0  0  0  0  0  0  0  0
    5.8000   -3.2240   28.0770 C   0  0  0  0  0  0  0  0  0  0  0  0
    6.5190   -3.6390   26.8890 N   0  0  0  0  0  0  0  0  0  0  0  0
  3  4  2  0
  4  5  1  0
  1  8  2  0
  2  8  2  0
  6  9  1  0
  8 10  1  6
  9 10  2  0
  7 11  1  0
 10 11  1  0
 11 12  2  0
 12 13  1  0
  9 14  1  0
 13 14  2  0
  4 15  1  0
 15 16  1  0
 16 17  1  0
  8 18  1  0
 17 18  1  0
 18 19  1  0
 15 20  1  0
 19 20  1  0
 21 22  1  0
 22 23  1  0
 23 24  1  0
 24 25  1  0
  2 26  1  0
 21 26  1  0
 25 26  1  0
M  END
