x1380-x1336
     RDKit          3D

 21 22  0  0  0  0  0  0  0  0999 V2000
    7.2080   -5.8300   28.3270 C   0  0  0  0  0  0  0  0  0  0  0  0
    8.3240   -0.4530   25.4010 O   0  0  0  0  0  0  0  0  0  0  0  0
    6.0530   -1.3570   26.4660 C   0  0  0  0  0  0  0  0  0  0  0  0
    5.3190   -4.3010   19.7930 O   0  0  0  0  0  0  0  0  0  0  0  0
   10.1630   -2.9150   24.2170 C   0  0  0  0  0  0  0  0  0  0  0  0
    6.2020   -3.4280   19.9980 C   0  0  0  0  0  0  0  0  0  0  0  0
    7.2060   -3.0640   18.9530 C   0  0  0  0  0  0  0  0  0  0  0  0
    7.4380   -1.5990   25.3970 S   0  0  2  0  0  0  0  0  0  0  0  0
    4.8400   -1.1480   27.4000 C   0  0  0  0  0  0  0  0  0  0  0  0
    8.0340   -5.1270   27.2470 C   0  0  0  0  0  0  0  0  0  0  0  0
    7.5690   -3.8900   26.7850 C   0  0  0  0  0  0  0  0  0  0  0  0
    8.1860   -3.1200   25.8210 C   0  0  0  0  0  0  0  0  0  0  0  0
    9.3620   -3.6600   25.2970 C   0  0  0  0  0  0  0  0  0  0  0  0
    9.8080   -4.8550   25.7430 C   0  0  0  0  0  0  0  0  0  0  0  0
    9.1810   -5.6350   26.7210 C   0  0  0  0  0  0  0  0  0  0  0  0
    6.2530   -2.7890   21.2580 N   0  0  0  0  0  0  0  0  0  0  0  0
    5.4240   -3.2330   22.3950 C   0  0  0  0  0  0  0  0  0  0  0  0
    5.5660   -2.3600   23.5730 C   0  0  0  0  0  0  0  0  0  0  0  0
    6.9880   -2.1040   23.8590 N   0  0  0  0  0  0  0  0  0  0  0  0
    7.5440   -1.3980   22.7060 C   0  0  0  0  0  0  0  0  0  0  0  0
    7.5700   -2.2190   21.5920 C   0  0  0  0  0  0  0  0  0  0  0  0
  4  6  2  0
  6  7  1  0
  2  8  2  0
  3  8  2  0
  3  9  2  0
  1 10  1  0
 10 11  2  0
  8 12  1  1
 11 12  1  0
  5 13  1  0
 12 13  2  0
 13 14  1  0
 10 15  1  0
 14 15  2  0
  6 16  1  0
 16 17  1  0
 17 18  1  0
  8 19  1  0
 18 19  1  0
 19 20  1  0
 16 21  1  0
 20 21  1  0
M  END
