x1382-x0820
     RDKit          3D

 27 30  0  0  0  0  0  0  0  0999 V2000
   13.3810   -1.7980   20.9890 Cl  0  0  0  0  0  0  0  0  0  0  0  0
    7.6880   -0.9860   22.6120 C   0  0  0  0  0  0  0  0  0  0  0  0
    8.4700   -2.2930   22.6940 C   0  0  1  0  0  0  0  0  0  0  0  0
    7.9560   -3.3310   21.7490 N   0  0  0  0  0  0  0  0  0  0  0  0
    7.6380   -3.0520   20.2950 C   0  0  0  0  0  0  0  0  0  0  0  0
    7.0570   -3.2270   19.1590 O   0  0  0  0  0  0  0  0  0  0  0  0
    7.1590   -4.4610   20.5460 C   0  0  0  0  0  0  0  0  0  0  0  0
    5.6870   -3.8890   21.8040 N   0  0  0  0  0  0  0  0  0  0  0  0
    4.9610   -4.3060   19.7120 O   0  0  0  0  0  0  0  0  0  0  0  0
    6.9010   -4.1030   22.4660 C   0  0  2  0  0  0  0  0  0  0  0  0
    5.7770   -4.2320   20.5830 C   0  0  0  0  0  0  0  0  0  0  0  0
    9.9460   -2.0030   22.9460 C   0  0  0  0  0  0  0  0  0  0  0  0
   10.9260   -2.0260   21.9730 C   0  0  0  0  0  0  0  0  0  0  0  0
   12.2500   -1.7500   22.2240 C   0  0  0  0  0  0  0  0  0  0  0  0
   12.6600   -1.4430   23.4880 C   0  0  0  0  0  0  0  0  0  0  0  0
   11.6980   -1.4490   24.3860 C   0  0  0  0  0  0  0  0  0  0  0  0
   10.3450   -1.7030   24.1990 C   0  0  0  0  0  0  0  0  0  0  0  0
    6.4020   -4.1820   23.9250 C   0  0  0  0  0  0  0  0  0  0  0  0
    7.1270   -4.2730   25.2190 C   0  0  0  0  0  0  0  0  0  0  0  0
    6.2360   -4.3530   26.4050 C   0  0  0  0  0  0  0  0  0  0  0  0
    4.8430   -4.3430   26.3140 C   0  0  0  0  0  0  0  0  0  0  0  0
    4.2290   -4.2550   25.0810 C   0  0  0  0  0  0  0  0  0  0  0  0
    5.0050   -4.1780   23.9290 C   0  0  0  0  0  0  0  0  0  0  0  0
    6.7810   -4.4460   27.6910 C   0  0  0  0  0  0  0  0  0  0  0  0
    8.1520   -4.4700   27.8960 C   0  0  0  0  0  0  0  0  0  0  0  0
    8.9940   -4.3970   26.7940 C   0  0  0  0  0  0  0  0  0  0  0  0
    8.5170   -4.2990   25.4860 C   0  0  0  0  0  0  0  0  0  0  0  0
  3  2  1  6
  3  4  1  0
  4  5  1  0
  5  6  2  0
  5  7  1  0
  4 10  1  0
  8 10  1  0
  7 11  1  0
  8 11  1  0
  9 11  2  0
  3 12  1  0
 12 13  2  0
  1 14  1  0
 13 14  1  0
 14 15  2  0
 15 16  1  0
 12 17  1  0
 16 17  2  0
 10 18  1  1
 18 19  2  0
 19 20  1  0
 20 21  2  0
 21 22  1  0
 18 23  1  0
 22 23  2  0
 20 24  1  0
 24 25  2  0
 25 26  1  0
 19 27  1  0
 26 27  2  0
M  END
