x1402-x0771
     RDKit          3D

 20 21  0  0  0  0  0  0  0  0999 V2000
    0.5830   -1.3830   26.1520 C   0  0  0  0  0  0  0  0  0  0  0  0
    4.3940   -6.9680   25.8160 O   0  0  0  0  0  0  0  0  0  0  0  0
    6.0700   -5.2220   26.8760 O   0  0  0  0  0  0  0  0  0  0  0  0
    5.5290   -4.3140   19.8650 O   0  0  0  0  0  0  0  0  0  0  0  0
    2.0280   -6.1850   24.9950 C   0  0  0  0  0  0  0  0  0  0  0  0
    6.5760   -4.2760   20.5800 C   0  0  0  0  0  0  0  0  0  0  0  0
    7.7650   -3.4950   20.1800 C   0  0  0  0  0  0  0  0  0  0  0  0
    4.9770   -5.6460   25.8030 S   0  0  0  0  0  0  0  0  0  0  0  0
    1.7060   -2.3400   26.0850 C   0  0  0  0  0  0  0  0  0  0  0  0
    1.3810   -3.7300   25.5980 C   0  0  0  0  0  0  0  0  0  0  0  0
    2.4190   -4.8190   25.4880 C   0  0  0  0  0  0  0  0  0  0  0  0
    3.7110   -4.4040   25.8880 C   0  0  0  0  0  0  0  0  0  0  0  0
    3.9780   -3.1000   26.3290 C   0  0  0  0  0  0  0  0  0  0  0  0
    3.0130   -2.0810   26.4310 C   0  0  0  0  0  0  0  0  0  0  0  0
    6.6370   -5.0060   21.7860 N   0  0  0  0  0  0  0  0  0  0  0  0
    5.8290   -6.2170   22.0260 C   0  0  0  0  0  0  0  0  0  0  0  0
    4.9600   -6.0920   23.1150 C   0  0  0  0  0  0  0  0  0  0  0  0
    5.6470   -5.4540   24.2870 N   0  0  0  0  0  0  0  0  0  0  0  0
    6.2540   -4.1610   23.9670 C   0  0  0  0  0  0  0  0  0  0  0  0
    7.2920   -4.4460   22.9700 C   0  0  0  0  0  0  0  0  0  0  0  0
  4  6  2  0
  6  7  1  0
  2  8  2  0
  3  8  2  0
  1  9  1  0
  9 10  2  0
  5 11  1  0
 10 11  1  0
  8 12  1  0
 11 12  2  0
 12 13  1  0
  9 14  1  0
 13 14  2  0
  6 15  1  0
 15 16  1  0
 16 17  1  0
  8 18  1  0
 17 18  1  0
 18 19  1  0
 15 20  1  0
 19 20  1  0
M  END
