x1402-x0731-x0771-x2705-x3117
     RDKit          3D

 52 58  0  0  0  0  0  0  0  0999 V2000
    6.9630   -1.2820   21.6960 N   0  0  0  0  0  0  0  0  0  0  0  0
    6.4680   -4.1800   20.3330 C   0  0  2  0  0  0  0  0  0  0  0  0
    4.8820   -3.1030   21.2460 O   0  0  0  0  0  0  0  0  0  0  0  0
    6.5670   -3.3050   21.6110 C   0  0  2  0  0  0  0  0  0  0  0  0
    7.6430    2.0550   22.9390 N   0  0  0  0  0  0  0  0  0  0  0  0
    8.8590    1.2500   21.1690 O   0  0  0  0  0  0  0  0  0  0  0  0
    5.7460   -2.1320   21.4350 C   0  0  0  0  0  0  0  0  0  0  0  0
    6.6770    0.1830   21.6160 C   0  0  1  0  0  0  0  0  0  0  0  0
    7.8460    1.1830   21.8850 C   0  0  0  0  0  0  0  0  0  0  0  0
   10.2070    2.1270   23.9810 C   0  0  0  0  0  0  0  0  0  0  0  0
    9.3320    1.2790   24.9120 C   0  0  0  0  0  0  0  0  0  0  0  0
    6.1670    4.6800   21.9380 C   0  0  0  0  0  0  0  0  0  0  0  0
   11.9970   -1.5510   23.2350 C   0  0  0  0  0  0  0  0  0  0  0  0
   12.4910   -0.2140   23.8540 C   0  0  0  0  0  0  0  0  0  0  0  0
   12.4160   -2.7330   24.1450 C   0  0  0  0  0  0  0  0  0  0  0  0
   12.6970   -1.7340   21.8730 C   0  0  0  0  0  0  0  0  0  0  0  0
   13.4050   -2.4750   25.2550 C   0  0  0  0  0  0  0  0  0  0  0  0
    5.4340   -3.8690   19.4100 O   0  0  0  0  0  0  0  0  0  0  0  0
    0.6550   -1.4020   26.2130 C   0  0  0  0  0  0  0  0  0  0  0  0
    4.5260   -6.9170   25.5980 O   0  0  0  0  0  0  0  0  0  0  0  0
    6.0930   -5.2200   26.5480 O   0  0  0  0  0  0  0  0  0  0  0  0
    2.0250   -6.1030   24.8810 C   0  0  0  0  0  0  0  0  0  0  0  0
    5.1290   -5.6010   25.5510 S   0  0  0  0  0  0  0  0  0  0  0  0
    6.3130    0.4620   17.7630 N   0  0  0  0  0  0  0  0  0  0  0  0
    5.1220    1.2650   17.6890 C   0  0  0  0  0  0  0  0  0  0  0  0
    4.4760    1.6480   18.8250 C   0  0  0  0  0  0  0  0  0  0  0  0
    4.9880    1.2740   20.0470 C   0  0  0  0  0  0  0  0  0  0  0  0
    6.1350    0.5210   20.2120 C   0  0  0  0  0  0  0  0  0  0  0  0
    6.7310    0.1490   18.9800 C   0  0  0  0  0  0  0  0  0  0  0  0
    9.5930   -1.8120   24.1020 N   0  0  0  0  0  0  0  0  0  0  0  0
    8.2800   -1.7670   23.7540 N   0  0  0  0  0  0  0  0  0  0  0  0
    8.2130   -1.4700   22.4310 C   0  0  0  0  0  0  0  0  0  0  0  0
    9.5550   -1.3580   22.0330 C   0  0  0  0  0  0  0  0  0  0  0  0
   10.4640   -1.5650   23.0850 C   0  0  0  0  0  0  0  0  0  0  0  0
    9.5090    3.3940   23.5280 C   0  0  0  0  0  0  0  0  0  0  0  0
   10.1790    4.6160   23.6400 C   0  0  0  0  0  0  0  0  0  0  0  0
    9.5750    5.8170   23.2210 C   0  0  0  0  0  0  0  0  0  0  0  0
    8.2650    5.7970   22.6720 C   0  0  0  0  0  0  0  0  0  0  0  0
    7.5430    4.6000   22.5340 C   0  0  0  0  0  0  0  0  0  0  0  0
    8.2020    3.3240   22.9940 C   0  0  0  0  0  0  0  0  0  0  0  0
    1.7110   -2.4410   26.0250 C   0  0  0  0  0  0  0  0  0  0  0  0
    1.3730   -3.7010   25.5600 C   0  0  0  0  0  0  0  0  0  0  0  0
    2.4560   -4.7530   25.3870 C   0  0  0  0  0  0  0  0  0  0  0  0
    3.7800   -4.4350   25.6980 C   0  0  0  0  0  0  0  0  0  0  0  0
    4.0500   -3.1360   26.1570 C   0  0  0  0  0  0  0  0  0  0  0  0
    3.0450   -2.1670   26.3160 C   0  0  0  0  0  0  0  0  0  0  0  0
    6.0130   -4.8030   21.5640 C   0  0  1  0  0  0  0  0  0  0  0  0
    6.0410   -6.1510   21.7350 C   0  0  0  0  0  0  0  0  0  0  0  0
    5.4040   -6.4230   22.9430 C   0  0  0  0  0  0  0  0  0  0  0  0
    5.7560   -5.3640   23.9610 N   0  0  0  0  0  0  0  0  0  0  0  0
    7.0070   -4.5370   23.7200 C   0  0  0  0  0  0  0  0  0  0  0  0
    7.1500   -4.3600   22.3020 C   0  0  2  0  0  0  0  0  0  0  0  0
  2  4  1  0
  1  7  1  0
  3  7  2  0
  4  7  1  6
  1  8  1  0
  5  9  1  0
  6  9  2  0
  8  9  1  6
 10 11  1  0
 13 14  1  0
 13 15  1  0
 13 16  1  0
 15 17  1  0
  2 18  1  6
 20 23  2  0
 21 23  2  0
 24 25  2  0
 25 26  1  0
 26 27  2  0
  8 28  1  0
 27 28  1  0
 24 29  1  0
 28 29  2  0
 30 31  1  0
  1 32  1  0
 31 32  2  0
 32 33  1  0
 13 34  1  0
 30 34  1  0
 33 34  2  0
 10 35  1  0
 35 36  2  0
 36 37  1  0
 37 38  2  0
 12 39  1  0
 38 39  1  0
  5 40  1  0
 35 40  1  0
 39 40  2  0
 19 41  1  0
 41 42  2  0
 22 43  1  0
 42 43  1  0
 23 44  1  0
 43 44  2  0
 44 45  1  0
 41 46  1  0
 45 46  2  0
  2 47  1  0
  4 47  1  0
 47 48  1  1
 48 49  1  0
 23 50  1  0
 49 50  1  0
 50 51  1  0
  4 52  1  0
 47 52  1  0
 52 51  1  1
M  END
