x1402-x0397
     RDKit          3D

 27 29  0  0  0  0  0  0  0  0999 V2000
    7.7560   -3.6160   20.2280 C   0  0  0  0  0  0  0  0  0  0  0  0
    5.5200   -4.5320   19.9300 O   0  0  0  0  0  0  0  0  0  0  0  0
    0.7790   -1.3940   26.0760 Cl  0  0  0  0  0  0  0  0  0  0  0  0
    6.5790   -4.4710   20.6190 C   0  0  0  0  0  0  0  0  0  0  0  0
    4.0200   -6.3890   25.9950 O   0  0  0  0  0  0  0  0  0  0  0  0
    6.1050   -5.2370   26.8310 O   0  0  0  0  0  0  0  0  0  0  0  0
    5.0380   -5.3670   25.8670 S   0  0  0  0  0  0  0  0  0  0  0  0
    7.9350   -1.3360   20.9380 C   0  0  0  0  0  0  0  0  0  0  0  0
    7.3000   -2.2030   20.0670 N   0  0  0  0  0  0  0  0  0  0  0  0
    6.9860   -1.7440   18.6810 C   0  0  0  0  0  0  0  0  0  0  0  0
    3.6700    2.1390   19.4880 C   0  0  0  0  0  0  0  0  0  0  0  0
    6.7030   -5.2280   21.7780 N   0  0  0  0  0  0  0  0  0  0  0  0
    7.6710   -4.9850   22.8530 C   0  0  0  0  0  0  0  0  0  0  0  0
    6.9480   -4.6230   24.1370 C   0  0  0  0  0  0  0  0  0  0  0  0
    5.7660   -5.5150   24.3400 N   0  0  0  0  0  0  0  0  0  0  0  0
    4.9010   -5.7190   23.1590 C   0  0  0  0  0  0  0  0  0  0  0  0
    5.6610   -6.2040   22.1160 C   0  0  0  0  0  0  0  0  0  0  0  0
    2.4460   -3.8710   25.9180 S   0  0  0  0  0  0  0  0  0  0  0  0
    4.1680   -3.8230   25.9440 C   0  0  0  0  0  0  0  0  0  0  0  0
    4.5560   -2.5400   26.0240 C   0  0  0  0  0  0  0  0  0  0  0  0
    3.5700   -1.5660   26.0720 C   0  0  0  0  0  0  0  0  0  0  0  0
    2.3130   -2.1560   26.0280 C   0  0  0  0  0  0  0  0  0  0  0  0
    5.1000   -0.0510   19.5350 C   0  0  0  0  0  0  0  0  0  0  0  0
    6.1730   -0.4660   18.6550 C   0  0  0  0  0  0  0  0  0  0  0  0
    6.3700    0.4840   17.7400 N   0  0  0  0  0  0  0  0  0  0  0  0
    5.4620    1.4930   18.0040 O   0  0  0  0  0  0  0  0  0  0  0  0
    4.6960    1.1700   19.0820 C   0  0  0  0  0  0  0  0  0  0  0  0
  1  4  1  0
  2  4  2  0
  5  7  2  0
  6  7  2  0
  1  9  1  0
  8  9  1  0
  9 10  1  0
  4 12  1  0
 12 13  1  0
 13 14  1  0
  7 15  1  0
 14 15  1  0
 15 16  1  0
 12 17  1  0
 16 17  1  0
  7 19  1  0
 18 19  1  0
 19 20  2  0
 20 21  1  0
  3 22  1  0
 18 22  1  0
 21 22  2  0
 10 24  1  0
 23 24  1  0
 24 25  2  0
 25 26  1  0
 11 27  1  0
 23 27  2  0
 26 27  1  0
M  END
