x1402
     RDKit          3D

 19 20  0  0  0  0  0  0  0  0999 V2000
    6.5020   -5.2150   21.7040 N   0  0  0  0  0  0  0  0  0  0  0  0
    7.7060   -3.6220   20.2740 C   0  0  0  0  0  0  0  0  0  0  0  0
    5.6850   -4.7400   19.6700 O   0  0  0  0  0  0  0  0  0  0  0  0
    0.8750   -1.3460   25.6140 Cl  0  0  0  0  0  0  0  0  0  0  0  0
    6.5600   -4.5840   20.5150 C   0  0  0  0  0  0  0  0  0  0  0  0
    5.6190   -5.4040   24.3510 N   0  0  0  0  0  0  0  0  0  0  0  0
    4.0950   -6.4290   25.9930 O   0  0  0  0  0  0  0  0  0  0  0  0
    2.3890   -3.8960   25.7510 S   0  0  0  0  0  0  0  0  0  0  0  0
    5.4480   -6.1610   22.0590 C   0  0  0  0  0  0  0  0  0  0  0  0
    6.1320   -5.2290   26.7420 O   0  0  0  0  0  0  0  0  0  0  0  0
    4.6790   -5.6390   23.2410 C   0  0  0  0  0  0  0  0  0  0  0  0
    6.6880   -4.4540   24.0030 C   0  0  0  0  0  0  0  0  0  0  0  0
    7.4340   -4.9930   22.8120 C   0  0  0  0  0  0  0  0  0  0  0  0
    4.0850   -3.8770   25.9890 C   0  0  0  0  0  0  0  0  0  0  0  0
    4.5870   -2.6240   26.2510 C   0  0  0  0  0  0  0  0  0  0  0  0
    3.6150   -1.6220   26.0050 C   0  0  0  0  0  0  0  0  0  0  0  0
    2.3580   -2.1810   25.8020 C   0  0  0  0  0  0  0  0  0  0  0  0
    5.0110   -5.3390   25.8620 S   0  0  1  0  0  0  0  0  0  0  0  0
    8.2600   -3.4720   18.5600 R   0  0  0  0  0  0  0  0  0  0  0  0
  1  5  1  0
  2  5  1  0
  3  5  2  0
  1  9  1  0
  6 11  1  0
  9 11  1  0
  6 12  1  0
  1 13  1  0
 12 13  1  0
  8 14  1  0
 14 15  2  0
 15 16  1  0
  4 17  1  0
  8 17  1  0
 16 17  2  0
  6 18  1  0
  7 18  2  0
 10 18  2  0
 18 14  1  6
  2 19  1  0
M  END
