x1402-x2912
     RDKit          3D

 40 43  0  0  0  0  0  0  0  0999 V2000
    7.2300   -3.4980   19.8590 C   0  0  0  0  0  0  0  0  0  0  0  0
    5.2840   -4.8220   19.9630 O   0  0  0  0  0  0  0  0  0  0  0  0
    0.7610   -1.4060   26.1200 Cl  0  0  0  0  0  0  0  0  0  0  0  0
    6.3620   -4.5490   20.5220 C   0  0  0  0  0  0  0  0  0  0  0  0
    4.0050   -6.3620   25.7240 O   0  0  0  0  0  0  0  0  0  0  0  0
    6.0700   -5.3270   26.6980 O   0  0  0  0  0  0  0  0  0  0  0  0
    5.0480   -5.3580   25.6870 S   0  0  0  0  0  0  0  0  0  0  0  0
    7.0310   -0.3710   21.2860 N   0  0  0  0  0  0  0  0  0  0  0  0
    7.8880   -0.5240   24.2580 C   0  0  0  0  0  0  0  0  0  0  0  0
    8.5810    1.0290   21.3390 O   0  0  0  0  0  0  0  0  0  0  0  0
    8.5280   -0.7540   22.9360 C   0  0  1  0  0  0  0  0  0  0  0  0
    8.0060    0.0220   21.7710 C   0  0  0  0  0  0  0  0  0  0  0  0
   13.7260   -2.4170   20.6360 N   0  0  0  0  0  0  0  0  0  0  0  0
    4.7290    1.3680   21.6520 C   0  0  0  0  0  0  0  0  0  0  0  0
   13.0090   -1.6770   21.5680 C   0  0  0  0  0  0  0  0  0  0  0  0
    7.7720   -2.5020   20.8570 C   0  0  0  0  0  0  0  0  0  0  0  0
    6.7700   -1.7890   21.4220 C   0  0  0  0  0  0  0  0  0  0  0  0
    6.6690   -5.2650   21.6920 N   0  0  0  0  0  0  0  0  0  0  0  0
    7.3630   -4.6980   22.7110 C   0  0  0  0  0  0  0  0  0  0  0  0
    6.6360   -4.2580   23.7700 C   0  0  0  0  0  0  0  0  0  0  0  0
    5.7930   -5.4240   24.1670 N   0  0  0  0  0  0  0  0  0  0  0  0
    4.9920   -5.8750   23.0300 C   0  0  0  0  0  0  0  0  0  0  0  0
    5.9280   -6.3340   22.0920 C   0  0  0  0  0  0  0  0  0  0  0  0
    2.4310   -3.8560   25.8440 S   0  0  0  0  0  0  0  0  0  0  0  0
    4.1620   -3.8210   25.8370 C   0  0  0  0  0  0  0  0  0  0  0  0
    4.6000   -2.4400   25.9670 C   0  0  0  0  0  0  0  0  0  0  0  0
    3.5500   -1.5750   26.0600 C   0  0  0  0  0  0  0  0  0  0  0  0
    2.2930   -2.1640   26.0170 C   0  0  0  0  0  0  0  0  0  0  0  0
    6.2770    0.5380   17.7930 N   0  0  0  0  0  0  0  0  0  0  0  0
    5.2170    1.3460   17.9360 C   0  0  0  0  0  0  0  0  0  0  0  0
    4.7350    1.5970   19.1810 C   0  0  0  0  0  0  0  0  0  0  0  0
    5.3080    1.0490   20.3060 C   0  0  0  0  0  0  0  0  0  0  0  0
    6.3930    0.2300   20.1240 C   0  0  0  0  0  0  0  0  0  0  0  0
    6.9040   -0.0500   18.8590 C   0  0  0  0  0  0  0  0  0  0  0  0
   10.4800    0.5050   23.8980 C   0  0  0  0  0  0  0  0  0  0  0  0
   11.8490    0.7590   23.9700 C   0  0  0  0  0  0  0  0  0  0  0  0
   12.7130    0.0250   23.1930 C   0  0  0  0  0  0  0  0  0  0  0  0
   12.1990   -0.9330   22.3720 C   0  0  0  0  0  0  0  0  0  0  0  0
   10.8630   -1.2130   22.2720 C   0  0  0  0  0  0  0  0  0  0  0  0
    9.9940   -0.4780   23.0470 C   0  0  0  0  0  0  0  0  0  0  0  0
  1  4  1  0
  2  4  2  0
  5  7  2  0
  6  7  2  0
 11  9  1  1
  8 12  1  0
 10 12  2  0
 11 12  1  0
 13 15  3  0
  1 16  1  0
  8 17  1  0
 16 17  1  0
  4 18  1  0
 18 19  1  0
 19 20  1  0
  7 21  1  0
 20 21  1  0
 21 22  1  0
 18 23  1  0
 22 23  1  0
  7 25  1  0
 24 25  1  0
 25 26  2  0
 26 27  1  0
  3 28  1  0
 24 28  1  0
 27 28  2  0
 29 30  2  0
 30 31  1  0
 14 32  1  0
 31 32  2  0
  8 33  1  0
 32 33  1  0
 29 34  1  0
 33 34  2  0
 35 36  2  0
 36 37  1  0
 15 38  1  0
 37 38  2  0
 38 39  1  0
 11 40  1  0
 35 40  1  0
 39 40  2  0
M  END
