x1402-x2964
     RDKit          3D

 38 41  0  0  0  0  0  0  0  0999 V2000
    7.7660   -3.7310   20.3550 C   0  0  0  0  0  0  0  0  0  0  0  0
    5.5470   -4.6460   19.9540 O   0  0  0  0  0  0  0  0  0  0  0  0
    0.7440   -1.4500   26.2400 Cl  0  0  0  0  0  0  0  0  0  0  0  0
    6.5890   -4.6250   20.6640 C   0  0  0  0  0  0  0  0  0  0  0  0
    3.9390   -6.5190   25.8530 O   0  0  0  0  0  0  0  0  0  0  0  0
    6.1280   -5.3350   26.8270 O   0  0  0  0  0  0  0  0  0  0  0  0
    5.0060   -5.3460   25.6980 S   0  0  0  0  0  0  0  0  0  0  0  0
    3.2660    2.1980   19.1590 N   0  0  0  0  0  0  0  0  0  0  0  0
    8.7060    1.5370   21.1720 O   0  0  0  0  0  0  0  0  0  0  0  0
   13.3260   -2.0210   21.3290 Cl  0  0  0  0  0  0  0  0  0  0  0  0
    7.1960   -0.2230   21.1780 N   0  0  0  0  0  0  0  0  0  0  0  0
    8.9170   -0.1350   22.7230 N   0  0  0  0  0  0  0  0  0  0  0  0
    8.2770    0.4770   21.6420 C   0  0  0  0  0  0  0  0  0  0  0  0
    7.2270   -2.3280   20.1340 C   0  0  0  0  0  0  0  0  0  0  0  0
    7.2870   -1.5790   21.3900 C   0  0  0  0  0  0  0  0  0  0  0  0
    6.6830   -5.4310   21.8040 N   0  0  0  0  0  0  0  0  0  0  0  0
    7.7180   -5.1010   22.7680 C   0  0  0  0  0  0  0  0  0  0  0  0
    7.1230   -4.7920   24.1190 C   0  0  0  0  0  0  0  0  0  0  0  0
    5.7790   -5.4110   24.1900 N   0  0  0  0  0  0  0  0  0  0  0  0
    4.9650   -5.3250   22.9580 C   0  0  0  0  0  0  0  0  0  0  0  0
    5.6390   -6.3520   22.3070 C   0  0  0  0  0  0  0  0  0  0  0  0
    2.4020   -3.8840   25.9230 S   0  0  0  0  0  0  0  0  0  0  0  0
    4.1220   -3.8210   25.8670 C   0  0  0  0  0  0  0  0  0  0  0  0
    4.5080   -2.5400   25.9710 C   0  0  0  0  0  0  0  0  0  0  0  0
    3.5240   -1.5680   26.1000 C   0  0  0  0  0  0  0  0  0  0  0  0
    2.2820   -2.1920   26.0950 C   0  0  0  0  0  0  0  0  0  0  0  0
    4.5300    1.4970   19.0700 C   0  0  0  0  0  0  0  0  0  0  0  0
    5.1740    1.0000   20.2760 C   0  0  0  0  0  0  0  0  0  0  0  0
    6.4340    0.3080   20.0940 C   0  0  0  0  0  0  0  0  0  0  0  0
    6.9220    0.1590   18.8070 C   0  0  0  0  0  0  0  0  0  0  0  0
    6.3400    0.6160   17.6980 N   0  0  0  0  0  0  0  0  0  0  0  0
    5.1600    1.2780   17.8620 C   0  0  0  0  0  0  0  0  0  0  0  0
   10.8560    0.9110   23.5310 C   0  0  0  0  0  0  0  0  0  0  0  0
   12.2200    0.9940   23.5870 C   0  0  0  0  0  0  0  0  0  0  0  0
   12.9830    0.0930   22.9190 C   0  0  0  0  0  0  0  0  0  0  0  0
   12.4150   -0.9130   22.1850 C   0  0  0  0  0  0  0  0  0  0  0  0
   11.0610   -1.0310   22.1120 C   0  0  0  0  0  0  0  0  0  0  0  0
   10.2860   -0.1100   22.7810 C   0  0  0  0  0  0  0  0  0  0  0  0
  1  4  1  0
  2  4  2  0
  5  7  2  0
  6  7  2  0
  9 13  2  0
 11 13  1  0
 12 13  1  0
  1 14  1  0
 11 15  1  0
 14 15  1  0
  4 16  1  0
 16 17  1  0
 17 18  1  0
  7 19  1  0
 18 19  1  0
 19 20  1  0
 16 21  1  0
 20 21  1  0
  7 23  1  0
 22 23  1  0
 23 24  2  0
 24 25  1  0
  3 26  1  0
 22 26  1  0
 25 26  2  0
  8 27  1  0
 27 28  2  0
 11 29  1  0
 28 29  1  0
 29 30  2  0
 30 31  1  0
 27 32  1  0
 31 32  2  0
 33 34  2  0
 34 35  1  0
 10 36  1  0
 35 36  2  0
 36 37  1  0
 12 38  1  0
 33 38  1  0
 37 38  2  0
M  END
