x1402-x3124-x3117-x0731
     RDKit          3D

 47 52  0  0  0  0  0  0  0  0999 V2000
    6.6630   -1.5280   22.1860 N   0  0  0  0  0  0  0  0  0  0  0  0
    6.7210   -3.7550   19.7930 C   0  0  0  0  0  0  0  0  0  0  0  0
    4.6400   -2.9890   21.5790 O   0  0  0  0  0  0  0  0  0  0  0  0
    6.7680   -3.8050   21.3290 C   0  0  1  0  0  0  0  0  0  0  0  0
    7.6440    1.8630   23.0070 N   0  0  0  0  0  0  0  0  0  0  0  0
    8.7610    0.6540   21.4560 O   0  0  0  0  0  0  0  0  0  0  0  0
    5.8970   -2.7100   21.7360 C   0  0  0  0  0  0  0  0  0  0  0  0
    6.4390   -0.0780   21.7810 C   0  0  1  0  0  0  0  0  0  0  0  0
    7.7140    0.8260   22.0750 C   0  0  0  0  0  0  0  0  0  0  0  0
   12.1610   -1.9450   24.1660 C   0  0  0  0  0  0  0  0  0  0  0  0
   12.5210   -0.7020   24.9770 C   0  0  0  0  0  0  0  0  0  0  0  0
   13.2310   -2.1900   23.0940 C   0  0  0  0  0  0  0  0  0  0  0  0
   12.1030   -3.1380   25.1130 C   0  0  0  0  0  0  0  0  0  0  0  0
    5.8380   -4.8320   19.5380 O   0  0  0  0  0  0  0  0  0  0  0  0
    0.7400   -1.5360   26.1810 Cl  0  0  0  0  0  0  0  0  0  0  0  0
    4.1620   -6.3980   26.0590 O   0  0  0  0  0  0  0  0  0  0  0  0
    6.3950   -5.1320   26.9360 O   0  0  0  0  0  0  0  0  0  0  0  0
    5.2030   -5.2070   25.8340 S   0  0  0  0  0  0  0  0  0  0  0  0
    6.3020    0.2860   17.9670 N   0  0  0  0  0  0  0  0  0  0  0  0
    5.1810    1.0070   17.8510 C   0  0  0  0  0  0  0  0  0  0  0  0
    4.3400    1.4220   19.0430 C   0  0  0  0  0  0  0  0  0  0  0  0
    4.7970    1.0250   20.2730 C   0  0  0  0  0  0  0  0  0  0  0  0
    5.9790    0.2790   20.3860 C   0  0  0  0  0  0  0  0  0  0  0  0
    6.6780   -0.0630   19.2180 C   0  0  0  0  0  0  0  0  0  0  0  0
    9.0990   -1.7370   21.6960 C   0  0  0  0  0  0  0  0  0  0  0  0
   10.4370   -1.8340   22.0790 C   0  0  0  0  0  0  0  0  0  0  0  0
   10.7560   -1.8550   23.5600 C   0  0  0  0  0  0  0  0  0  0  0  0
    9.6240   -1.7820   24.4980 C   0  0  0  0  0  0  0  0  0  0  0  0
    8.3210   -1.6880   24.0080 C   0  0  0  0  0  0  0  0  0  0  0  0
    8.0400   -1.6600   22.6260 C   0  0  0  0  0  0  0  0  0  0  0  0
    9.6920    5.1450   24.2100 O   0  0  0  0  0  0  0  0  0  0  0  0
   10.4770    4.0260   23.8290 C   0  0  0  0  0  0  0  0  0  0  0  0
    9.6600    2.9040   23.7490 C   0  0  0  0  0  0  0  0  0  0  0  0
    8.5820    2.9990   22.8570 C   0  0  0  0  0  0  0  0  0  0  0  0
    7.9330    4.2450   22.8850 C   0  0  0  0  0  0  0  0  0  0  0  0
    8.6590    5.3890   23.2470 C   0  0  0  0  0  0  0  0  0  0  0  0
    6.6490   -5.2980   21.6680 N   0  0  0  0  0  0  0  0  0  0  0  0
    7.4060   -4.5350   22.5890 C   0  0  2  0  0  0  0  0  0  0  0  0
    6.9960   -4.4150   23.9150 C   0  0  0  0  0  0  0  0  0  0  0  0
    5.8430   -5.2890   24.2690 N   0  0  0  0  0  0  0  0  0  0  0  0
    4.8340   -5.3880   23.2140 C   0  0  0  0  0  0  0  0  0  0  0  0
    5.4470   -5.9750   22.1350 C   0  0  0  0  0  0  0  0  0  0  0  0
    2.5460   -3.8700   25.9390 S   0  0  0  0  0  0  0  0  0  0  0  0
    4.2660   -3.7000   25.9780 C   0  0  0  0  0  0  0  0  0  0  0  0
    4.6110   -2.3610   26.1210 C   0  0  0  0  0  0  0  0  0  0  0  0
    3.5200   -1.5190   26.1970 C   0  0  0  0  0  0  0  0  0  0  0  0
    2.3170   -2.1980   26.1170 C   0  0  0  0  0  0  0  0  0  0  0  0
  4  2  1  6
  1  7  1  0
  3  7  2  0
  4  7  1  0
  1  8  1  0
  5  9  1  0
  6  9  2  0
  8  9  1  6
 10 11  1  0
 10 12  1  0
 10 13  1  0
  2 14  2  0
 16 18  2  0
 17 18  2  0
 19 20  2  0
 20 21  1  0
 21 22  2  0
  8 23  1  0
 22 23  1  0
 19 24  1  0
 23 24  2  0
 25 26  2  0
 10 27  1  0
 26 27  1  0
 27 28  2  0
 28 29  1  0
  1 30  1  0
 25 30  1  0
 29 30  2  0
 31 32  1  0
 32 33  1  0
  5 34  1  0
 33 34  1  0
 34 35  1  0
 31 36  1  0
 35 36  1  0
  4 37  1  0
  4 38  1  0
 37 38  1  0
 38 39  1  1
 18 40  1  0
 39 40  1  0
 40 41  1  0
 37 42  1  0
 41 42  1  0
 18 44  1  0
 43 44  1  0
 44 45  2  0
 45 46  1  0
 15 47  1  0
 43 47  1  0
 46 47  2  0
M  END
