x1402-x0678
     RDKit          3D

 36 39  0  0  0  0  0  0  0  0999 V2000
    7.2270   -3.3750   20.5830 C   0  0  0  0  0  0  0  0  0  0  0  0
    5.3370   -4.8040   19.9000 O   0  0  0  0  0  0  0  0  0  0  0  0
    0.7180   -1.2540   26.2600 Cl  0  0  0  0  0  0  0  0  0  0  0  0
    6.2920   -4.5260   20.8200 C   0  0  0  0  0  0  0  0  0  0  0  0
    4.0090   -6.4830   26.2140 O   0  0  0  0  0  0  0  0  0  0  0  0
    5.9900   -5.0870   26.9410 O   0  0  0  0  0  0  0  0  0  0  0  0
    4.8940   -5.3520   26.0390 S   0  0  0  0  0  0  0  0  0  0  0  0
    9.1750    1.7770   21.3290 O   0  0  0  0  0  0  0  0  0  0  0  0
    8.7270    0.7450   21.8420 C   0  0  0  0  0  0  0  0  0  0  0  0
    9.2290    0.2550   23.0480 C   0  0  0  0  0  0  0  0  0  0  0  0
    7.7230   -0.0210   21.3180 N   0  0  0  0  0  0  0  0  0  0  0  0
    7.2370   -2.3150   21.5710 C   0  0  0  0  0  0  0  0  0  0  0  0
    8.1340   -1.3470   21.2240 C   0  0  0  0  0  0  0  0  0  0  0  0
    6.4710   -5.3040   21.9430 N   0  0  0  0  0  0  0  0  0  0  0  0
    7.2020   -4.7070   23.1180 C   0  0  0  0  0  0  0  0  0  0  0  0
    6.2810   -4.2300   24.0110 C   0  0  0  0  0  0  0  0  0  0  0  0
    5.5350   -5.4150   24.4890 N   0  0  0  0  0  0  0  0  0  0  0  0
    4.6410   -5.9430   23.4260 C   0  0  0  0  0  0  0  0  0  0  0  0
    5.5690   -6.3810   22.2930 C   0  0  0  0  0  0  0  0  0  0  0  0
    2.2030   -3.8300   26.1280 S   0  0  0  0  0  0  0  0  0  0  0  0
    3.9250   -3.9140   26.0900 C   0  0  0  0  0  0  0  0  0  0  0  0
    4.6890   -2.5900   26.1020 C   0  0  0  0  0  0  0  0  0  0  0  0
    3.6050   -1.5370   26.1550 C   0  0  0  0  0  0  0  0  0  0  0  0
    2.1980   -2.1070   26.1810 C   0  0  0  0  0  0  0  0  0  0  0  0
   11.0270   -1.4480   22.3070 C   0  0  0  0  0  0  0  0  0  0  0  0
   12.4900   -1.8450   22.5040 C   0  0  0  0  0  0  0  0  0  0  0  0
   13.2500   -0.9730   23.5020 C   0  0  0  0  0  0  0  0  0  0  0  0
   12.5080   -0.3560   24.5150 C   0  0  0  0  0  0  0  0  0  0  0  0
   11.1270   -0.4210   24.3980 C   0  0  0  0  0  0  0  0  0  0  0  0
   10.7180   -0.1670   23.0910 C   0  0  0  0  0  0  0  0  0  0  0  0
    5.8190    1.3010   20.3850 C   0  0  0  0  0  0  0  0  0  0  0  0
    5.0360    1.6910   19.2890 C   0  0  0  0  0  0  0  0  0  0  0  0
    5.3470    1.1830   18.0540 C   0  0  0  0  0  0  0  0  0  0  0  0
    6.3540    0.3320   17.8490 N   0  0  0  0  0  0  0  0  0  0  0  0
    7.0850   -0.0300   18.9210 C   0  0  0  0  0  0  0  0  0  0  0  0
    6.8850    0.4160   20.2260 C   0  0  0  0  0  0  0  0  0  0  0  0
  1  4  1  0
  2  4  2  0
  5  7  2  0
  6  7  2  0
  8  9  2  0
  9 10  1  0
  9 11  1  0
  1 12  1  0
 11 13  1  0
 12 13  1  0
  4 14  1  0
 14 15  1  0
 15 16  1  0
  7 17  1  0
 16 17  1  0
 17 18  1  0
 14 19  1  0
 18 19  1  0
  7 21  1  0
 20 21  1  0
 21 22  2  0
 22 23  1  0
  3 24  1  0
 20 24  1  0
 23 24  2  0
 25 26  1  0
 26 27  1  0
 27 28  1  0
 28 29  1  0
 10 30  1  0
 25 30  1  0
 29 30  1  0
 31 32  2  0
 32 33  1  0
 33 34  2  0
 34 35  1  0
 11 36  1  0
 31 36  1  0
 35 36  2  0
M  END
