x1402-x2572
     RDKit          3D

 39 42  0  0  0  0  0  0  0  0999 V2000
    7.7600   -3.6980   20.3300 C   0  0  0  0  0  0  0  0  0  0  0  0
    5.5400   -4.5610   19.9350 O   0  0  0  0  0  0  0  0  0  0  0  0
    0.7140   -1.3390   26.1490 Cl  0  0  0  0  0  0  0  0  0  0  0  0
    6.5870   -4.5900   20.6420 C   0  0  0  0  0  0  0  0  0  0  0  0
    4.0800   -6.4250   25.8760 O   0  0  0  0  0  0  0  0  0  0  0  0
    6.1560   -5.2840   26.7450 O   0  0  0  0  0  0  0  0  0  0  0  0
    5.0860   -5.3870   25.7800 S   0  0  0  0  0  0  0  0  0  0  0  0
    4.5680    1.3280   21.4790 C   0  0  0  0  0  0  0  0  0  0  0  0
    8.7610    1.4260   21.2410 O   0  0  0  0  0  0  0  0  0  0  0  0
    7.0020   -0.2440   21.1520 N   0  0  0  0  0  0  0  0  0  0  0  0
   13.6740   -2.4680   20.5990 N   0  0  0  0  0  0  0  0  0  0  0  0
    8.1740    0.4240   21.7120 C   0  0  0  0  0  0  0  0  0  0  0  0
    8.6110   -0.2560   22.9470 C   0  0  0  0  0  0  0  0  0  0  0  0
   12.9880   -1.6910   21.5360 C   0  0  0  0  0  0  0  0  0  0  0  0
    7.2090   -2.3050   20.0970 C   0  0  0  0  0  0  0  0  0  0  0  0
    6.8600   -1.6780   21.2680 C   0  0  0  0  0  0  0  0  0  0  0  0
    6.6460   -5.4350   21.7420 N   0  0  0  0  0  0  0  0  0  0  0  0
    7.6100   -5.0840   22.8470 C   0  0  0  0  0  0  0  0  0  0  0  0
    6.9680   -4.5910   23.9770 C   0  0  0  0  0  0  0  0  0  0  0  0
    5.8060   -5.4860   24.2590 N   0  0  0  0  0  0  0  0  0  0  0  0
    4.9040   -5.7490   23.0890 C   0  0  0  0  0  0  0  0  0  0  0  0
    5.7080   -6.3320   22.0890 C   0  0  0  0  0  0  0  0  0  0  0  0
    2.4400   -3.9930   25.9060 S   0  0  0  0  0  0  0  0  0  0  0  0
    4.1600   -3.8710   25.8980 C   0  0  0  0  0  0  0  0  0  0  0  0
    4.6100   -2.4680   25.9970 C   0  0  0  0  0  0  0  0  0  0  0  0
    3.5040   -1.5220   26.0820 C   0  0  0  0  0  0  0  0  0  0  0  0
    2.2510   -2.0920   26.0580 C   0  0  0  0  0  0  0  0  0  0  0  0
    6.3380    0.6750   17.6770 N   0  0  0  0  0  0  0  0  0  0  0  0
    6.8850    0.1500   18.7790 C   0  0  0  0  0  0  0  0  0  0  0  0
    6.3700    0.3250   20.0560 C   0  0  0  0  0  0  0  0  0  0  0  0
    5.2380    1.0670   20.1670 C   0  0  0  0  0  0  0  0  0  0  0  0
    4.6310    1.6270   19.0580 C   0  0  0  0  0  0  0  0  0  0  0  0
    5.2250    1.4020   17.8360 C   0  0  0  0  0  0  0  0  0  0  0  0
   10.6620    0.7350   23.9510 C   0  0  0  0  0  0  0  0  0  0  0  0
   12.0320    0.7530   23.9670 C   0  0  0  0  0  0  0  0  0  0  0  0
   12.8480   -0.0200   23.2050 C   0  0  0  0  0  0  0  0  0  0  0  0
   12.2520   -0.8880   22.3520 C   0  0  0  0  0  0  0  0  0  0  0  0
   10.8830   -0.9590   22.2840 C   0  0  0  0  0  0  0  0  0  0  0  0
   10.0810   -0.1590   23.0680 C   0  0  0  0  0  0  0  0  0  0  0  0
  1  4  1  0
  2  4  2  0
  5  7  2  0
  6  7  2  0
  9 12  2  0
 10 12  1  0
 12 13  1  0
 11 14  3  0
  1 15  1  0
 10 16  1  0
 15 16  1  0
  4 17  1  0
 17 18  1  0
 18 19  1  0
  7 20  1  0
 19 20  1  0
 20 21  1  0
 17 22  1  0
 21 22  1  0
  7 24  1  0
 23 24  1  0
 24 25  2  0
 25 26  1  0
  3 27  1  0
 23 27  1  0
 26 27  2  0
 28 29  2  0
 10 30  1  0
 29 30  1  0
  8 31  1  0
 30 31  2  0
 31 32  1  0
 28 33  1  0
 32 33  2  0
 34 35  2  0
 35 36  1  0
 14 37  1  0
 36 37  2  0
 37 38  1  0
 13 39  1  0
 34 39  1  0
 38 39  2  0
M  END
