x1402-x0769
     RDKit          3D

 19 20  0  0  0  0  0  0  0  0999 V2000
    7.8010   -3.6280   20.2840 C   0  0  0  0  0  0  0  0  0  0  0  0
    5.5740   -4.5130   19.9340 O   0  0  0  0  0  0  0  0  0  0  0  0
    0.7240   -1.3780   26.1510 Cl  0  0  0  0  0  0  0  0  0  0  0  0
    6.6400   -4.5140   20.6180 C   0  0  0  0  0  0  0  0  0  0  0  0
    4.0970   -6.4640   26.0250 O   0  0  0  0  0  0  0  0  0  0  0  0
    6.1050   -5.1890   26.8370 O   0  0  0  0  0  0  0  0  0  0  0  0
    5.0230   -5.3560   25.8970 S   0  0  0  0  0  0  0  0  0  0  0  0
    5.8090   -2.2360   26.0100 F   0  0  0  0  0  0  0  0  0  0  0  0
    6.7650   -5.3600   21.7450 N   0  0  0  0  0  0  0  0  0  0  0  0
    7.6560   -5.0610   22.8650 C   0  0  0  0  0  0  0  0  0  0  0  0
    6.8950   -4.5880   24.0520 C   0  0  0  0  0  0  0  0  0  0  0  0
    5.7210   -5.4720   24.3440 N   0  0  0  0  0  0  0  0  0  0  0  0
    4.8630   -5.7280   23.2720 C   0  0  0  0  0  0  0  0  0  0  0  0
    5.6600   -6.2640   22.0700 C   0  0  0  0  0  0  0  0  0  0  0  0
    2.3130   -3.9140   25.9860 S   0  0  0  0  0  0  0  0  0  0  0  0
    4.0440   -3.8800   25.9650 C   0  0  0  0  0  0  0  0  0  0  0  0
    4.5220   -2.5780   26.0140 C   0  0  0  0  0  0  0  0  0  0  0  0
    3.5080   -1.6890   26.0710 C   0  0  0  0  0  0  0  0  0  0  0  0
    2.2260   -2.1940   26.0730 C   0  0  0  0  0  0  0  0  0  0  0  0
  1  4  1  0
  2  4  2  0
  5  7  2  0
  6  7  2  0
  4  9  1  0
  9 10  1  0
 10 11  1  0
  7 12  1  0
 11 12  1  0
 12 13  1  0
  9 14  1  0
 13 14  1  0
  7 16  1  0
 15 16  1  0
  8 17  1  0
 16 17  2  0
 17 18  1  0
  3 19  1  0
 15 19  1  0
 18 19  2  0
M  END
