x1402-x0165
     RDKit          3D

 18 19  0  0  0  0  0  0  0  0999 V2000
    7.3860   -3.1460   20.8700 C   0  0  0  0  0  0  0  0  0  0  0  0
    5.4800   -4.4760   19.9310 O   0  0  0  0  0  0  0  0  0  0  0  0
    0.7410   -1.3080   26.1390 Cl  0  0  0  0  0  0  0  0  0  0  0  0
    6.4700   -4.3650   20.8620 C   0  0  0  0  0  0  0  0  0  0  0  0
    4.0330   -6.4050   25.9590 O   0  0  0  0  0  0  0  0  0  0  0  0
    6.0400   -5.1470   26.7840 O   0  0  0  0  0  0  0  0  0  0  0  0
    4.9820   -5.3190   25.8200 S   0  0  0  0  0  0  0  0  0  0  0  0
    6.7080   -5.3440   21.8090 N   0  0  0  0  0  0  0  0  0  0  0  0
    7.4060   -4.8950   22.8490 C   0  0  0  0  0  0  0  0  0  0  0  0
    6.5740   -4.3940   23.8380 C   0  0  0  0  0  0  0  0  0  0  0  0
    5.7060   -5.4400   24.2850 N   0  0  0  0  0  0  0  0  0  0  0  0
    4.8410   -5.9930   23.1900 C   0  0  0  0  0  0  0  0  0  0  0  0
    5.6810   -6.2960   22.1040 C   0  0  0  0  0  0  0  0  0  0  0  0
    2.3350   -3.8140   25.9350 S   0  0  0  0  0  0  0  0  0  0  0  0
    4.0700   -3.7970   25.9170 C   0  0  0  0  0  0  0  0  0  0  0  0
    4.6030   -2.5150   25.9910 C   0  0  0  0  0  0  0  0  0  0  0  0
    3.6470   -1.5290   26.0660 C   0  0  0  0  0  0  0  0  0  0  0  0
    2.2500   -2.1200   26.0520 C   0  0  0  0  0  0  0  0  0  0  0  0
  1  4  1  0
  2  4  2  0
  5  7  2  0
  6  7  2  0
  4  8  1  0
  8  9  1  0
  9 10  1  0
  7 11  1  0
 10 11  1  0
 11 12  1  0
  8 13  1  0
 12 13  1  0
  7 15  1  0
 14 15  1  0
 15 16  2  0
 16 17  1  0
  3 18  1  0
 14 18  1  0
 17 18  2  0
M  END
