x1402-x3108
     RDKit          3D

 41 44  0  0  0  0  0  0  0  0999 V2000
    6.0300    1.7220   22.0320 C   0  0  0  0  0  0  0  0  0  0  0  0
    9.2700    1.7990   21.3950 O   0  0  0  0  0  0  0  0  0  0  0  0
    7.9880   -0.3470   21.1740 N   0  0  0  0  0  0  0  0  0  0  0  0
    8.2600    0.5000   24.7180 O   0  0  0  0  0  0  0  0  0  0  0  0
    9.3890   -1.2560   23.4510 N   0  0  0  0  0  0  0  0  0  0  0  0
    9.0490    0.4370   21.7090 C   0  0  0  0  0  0  0  0  0  0  0  0
   10.0220   -0.3160   22.6560 C   0  0  0  0  0  0  0  0  0  0  0  0
    8.4570   -0.8720   24.4030 C   0  0  0  0  0  0  0  0  0  0  0  0
    7.6660   -1.9420   25.0640 C   0  0  0  0  0  0  0  0  0  0  0  0
    7.4710   -3.4710   20.0970 C   0  0  0  0  0  0  0  0  0  0  0  0
    5.3590   -4.5630   19.9080 O   0  0  0  0  0  0  0  0  0  0  0  0
    0.6600   -1.6080   26.0810 Cl  0  0  0  0  0  0  0  0  0  0  0  0
    6.4170   -4.4610   20.5720 C   0  0  0  0  0  0  0  0  0  0  0  0
    3.6750   -6.2780   25.8150 O   0  0  0  0  0  0  0  0  0  0  0  0
    5.8380   -5.6220   26.7620 O   0  0  0  0  0  0  0  0  0  0  0  0
    4.8680   -5.3710   25.6350 S   0  0  0  0  0  0  0  0  0  0  0  0
    7.5820   -1.6190   21.6690 C   0  0  0  0  0  0  0  0  0  0  0  0
    8.2170   -2.7470   21.2360 C   0  0  0  0  0  0  0  0  0  0  0  0
    6.2720    0.2120   17.9070 N   0  0  0  0  0  0  0  0  0  0  0  0
    7.1650   -0.2910   18.9290 C   0  0  0  0  0  0  0  0  0  0  0  0
    7.0580    0.2000   20.1760 C   0  0  0  0  0  0  0  0  0  0  0  0
    6.1480    1.1700   20.6080 C   0  0  0  0  0  0  0  0  0  0  0  0
    5.2790    1.6610   19.6400 C   0  0  0  0  0  0  0  0  0  0  0  0
    5.3800    1.1420   18.2720 C   0  0  0  0  0  0  0  0  0  0  0  0
    9.7730   -5.1970   24.5980 N   0  0  0  0  0  0  0  0  0  0  0  0
    9.1910   -3.9340   24.3510 C   0  0  0  0  0  0  0  0  0  0  0  0
    8.3040   -3.2880   25.3140 C   0  0  0  0  0  0  0  0  0  0  0  0
    8.0480   -3.9700   26.5080 C   0  0  0  0  0  0  0  0  0  0  0  0
    8.6530   -5.2220   26.7130 C   0  0  0  0  0  0  0  0  0  0  0  0
    9.4790   -5.7920   25.7840 C   0  0  0  0  0  0  0  0  0  0  0  0
    6.5020   -5.2920   21.7120 N   0  0  0  0  0  0  0  0  0  0  0  0
    7.3960   -5.0480   22.6720 C   0  0  0  0  0  0  0  0  0  0  0  0
    6.9160   -4.8500   23.9500 C   0  0  0  0  0  0  0  0  0  0  0  0
    5.6700   -5.6260   24.1550 N   0  0  0  0  0  0  0  0  0  0  0  0
    4.8540   -5.7620   22.9150 C   0  0  0  0  0  0  0  0  0  0  0  0
    5.6430   -6.4550   21.9850 C   0  0  0  0  0  0  0  0  0  0  0  0
    2.6200   -3.8890   25.8080 S   0  0  0  0  0  0  0  0  0  0  0  0
    4.3610   -3.6820   25.8110 C   0  0  0  0  0  0  0  0  0  0  0  0
    4.5240   -2.2810   25.9500 C   0  0  0  0  0  0  0  0  0  0  0  0
    3.3860   -1.5220   26.0410 C   0  0  0  0  0  0  0  0  0  0  0  0
    2.2480   -2.2550   25.9820 C   0  0  0  0  0  0  0  0  0  0  0  0
  2  6  2  0
  3  6  1  0
  5  7  1  0
  6  7  1  0
  4  8  2  0
  5  8  1  0
  8  9  1  0
 10 13  1  0
 11 13  2  0
 14 16  2  0
 15 16  2  0
  3 17  1  0
 10 18  1  0
 17 18  1  0
 19 20  2  0
  3 21  1  0
 20 21  1  0
  1 22  1  0
 21 22  2  0
 22 23  1  0
 19 24  1  0
 23 24  2  0
 25 26  2  0
  9 27  1  0
 26 27  1  0
 27 28  2  0
 28 29  1  0
 25 30  1  0
 29 30  2  0
 13 31  1  0
 31 32  1  0
 32 33  1  0
 16 34  1  0
 33 34  1  0
 34 35  1  0
 31 36  1  0
 35 36  1  0
 16 38  1  0
 37 38  1  0
 38 39  2  0
 39 40  1  0
 12 41  1  0
 37 41  1  0
 40 41  2  0
M  END
