x1402-x0689
     RDKit          3D

 18 19  0  0  0  0  0  0  0  0999 V2000
    7.3700   -3.1050   20.8400 C   0  0  0  0  0  0  0  0  0  0  0  0
    5.4950   -4.4770   19.9150 O   0  0  0  0  0  0  0  0  0  0  0  0
    0.7240   -1.2810   26.1860 Cl  0  0  0  0  0  0  0  0  0  0  0  0
    6.4560   -4.3270   20.8680 C   0  0  0  0  0  0  0  0  0  0  0  0
    3.9620   -6.4190   25.9810 O   0  0  0  0  0  0  0  0  0  0  0  0
    5.9730   -5.1880   26.8460 O   0  0  0  0  0  0  0  0  0  0  0  0
    4.9190   -5.3430   25.8720 S   0  0  0  0  0  0  0  0  0  0  0  0
    6.6590   -5.2520   21.8830 N   0  0  0  0  0  0  0  0  0  0  0  0
    7.3170   -4.7570   22.9290 C   0  0  0  0  0  0  0  0  0  0  0  0
    6.4620   -4.3270   23.9240 C   0  0  0  0  0  0  0  0  0  0  0  0
    5.6570   -5.4300   24.3440 N   0  0  0  0  0  0  0  0  0  0  0  0
    4.8180   -5.9990   23.2320 C   0  0  0  0  0  0  0  0  0  0  0  0
    5.6830   -6.2570   22.1600 C   0  0  0  0  0  0  0  0  0  0  0  0
    2.2920   -3.8050   25.9910 S   0  0  0  0  0  0  0  0  0  0  0  0
    4.0220   -3.8100   25.9630 C   0  0  0  0  0  0  0  0  0  0  0  0
    4.5700   -2.5300   26.0180 C   0  0  0  0  0  0  0  0  0  0  0  0
    3.6300   -1.5330   26.0910 C   0  0  0  0  0  0  0  0  0  0  0  0
    2.2270   -2.1080   26.0940 C   0  0  0  0  0  0  0  0  0  0  0  0
  1  4  1  0
  2  4  2  0
  5  7  2  0
  6  7  2  0
  4  8  1  0
  8  9  1  0
  9 10  1  0
  7 11  1  0
 10 11  1  0
 11 12  1  0
  8 13  1  0
 12 13  1  0
  7 15  1  0
 14 15  1  0
 15 16  2  0
 16 17  1  0
  3 18  1  0
 14 18  1  0
 17 18  2  0
M  END
