x1402-x2608
     RDKit          3D

 35 38  0  0  0  0  0  0  0  0999 V2000
    7.6580   -3.5580   20.2250 C   0  0  0  0  0  0  0  0  0  0  0  0
    5.4480   -4.4310   19.9090 O   0  0  0  0  0  0  0  0  0  0  0  0
    0.6690   -1.4430   26.0580 Cl  0  0  0  0  0  0  0  0  0  0  0  0
    6.4840   -4.4500   20.5780 C   0  0  0  0  0  0  0  0  0  0  0  0
    3.9670   -6.3800   25.9460 O   0  0  0  0  0  0  0  0  0  0  0  0
    6.0480   -5.3100   26.8780 O   0  0  0  0  0  0  0  0  0  0  0  0
    5.0120   -5.3860   25.8770 S   0  0  0  0  0  0  0  0  0  0  0  0
    8.7300   -1.3940   22.2510 N   0  0  0  0  0  0  0  0  0  0  0  0
   12.9030    1.6380   22.9450 C   0  0  0  0  0  0  0  0  0  0  0  0
    8.2580    0.6110   21.0300 O   0  0  0  0  0  0  0  0  0  0  0  0
    6.8240   -1.1090   20.6370 N   0  0  0  0  0  0  0  0  0  0  0  0
    7.9540   -0.5640   21.2820 C   0  0  0  0  0  0  0  0  0  0  0  0
    7.1160   -2.1740   19.7720 C   0  0  0  0  0  0  0  0  0  0  0  0
    6.6350   -5.3100   21.6740 N   0  0  0  0  0  0  0  0  0  0  0  0
    7.5050   -4.9560   22.7700 C   0  0  0  0  0  0  0  0  0  0  0  0
    6.5730   -4.3860   23.8560 C   0  0  0  0  0  0  0  0  0  0  0  0
    5.7620   -5.5020   24.3590 N   0  0  0  0  0  0  0  0  0  0  0  0
    4.8820   -6.0900   23.2950 C   0  0  0  0  0  0  0  0  0  0  0  0
    5.7120   -6.3980   22.0660 C   0  0  0  0  0  0  0  0  0  0  0  0
    2.4330   -3.8350   25.9180 S   0  0  0  0  0  0  0  0  0  0  0  0
    4.1490   -3.8340   25.9550 C   0  0  0  0  0  0  0  0  0  0  0  0
    4.6460   -2.3970   26.0600 C   0  0  0  0  0  0  0  0  0  0  0  0
    3.4520   -1.4730   26.0970 C   0  0  0  0  0  0  0  0  0  0  0  0
    2.2360   -2.1350   26.0320 C   0  0  0  0  0  0  0  0  0  0  0  0
   12.0310    0.4700   22.8890 C   0  0  0  0  0  0  0  0  0  0  0  0
   12.2750   -0.8820   23.1050 C   0  0  0  0  0  0  0  0  0  0  0  0
   11.1490   -1.6300   22.9100 C   0  0  0  0  0  0  0  0  0  0  0  0
   10.0220   -0.9510   22.5530 C   0  0  0  0  0  0  0  0  0  0  0  0
   10.3670    0.7190   22.4800 S   0  0  0  0  0  0  0  0  0  0  0  0
    6.0310    0.9660   17.7330 N   0  0  0  0  0  0  0  0  0  0  0  0
    6.5760    0.1220   18.6080 C   0  0  0  0  0  0  0  0  0  0  0  0
    6.0810   -0.1820   19.8640 C   0  0  0  0  0  0  0  0  0  0  0  0
    4.9010    0.4420   20.2700 C   0  0  0  0  0  0  0  0  0  0  0  0
    4.3010    1.3320   19.3780 C   0  0  0  0  0  0  0  0  0  0  0  0
    4.8950    1.5650   18.1310 C   0  0  0  0  0  0  0  0  0  0  0  0
  1  4  1  0
  2  4  2  0
  5  7  2  0
  6  7  2  0
  8 12  1  0
 10 12  2  0
 11 12  1  0
  1 13  1  0
 11 13  1  0
  4 14  1  0
 14 15  1  0
 15 16  1  0
  7 17  1  0
 16 17  1  0
 17 18  1  0
 14 19  1  0
 18 19  1  0
  7 21  1  0
 20 21  1  0
 21 22  2  0
 22 23  1  0
  3 24  1  0
 20 24  1  0
 23 24  2  0
  9 25  1  0
 25 26  2  0
 26 27  1  0
  8 28  1  0
 27 28  2  0
 25 29  1  0
 28 29  1  0
 30 31  2  0
 11 32  1  0
 31 32  1  0
 32 33  2  0
 33 34  1  0
 30 35  1  0
 34 35  2  0
M  END
