x1402-x0107
     RDKit          3D

 30 32  0  0  0  0  0  0  0  0999 V2000
    7.9390   -3.7200   20.4520 C   0  0  0  0  0  0  0  0  0  0  0  0
    5.5980   -4.2050   19.8220 O   0  0  0  0  0  0  0  0  0  0  0  0
    0.7790   -1.3170   26.0760 Cl  0  0  0  0  0  0  0  0  0  0  0  0
    6.5710   -4.3270   20.6280 C   0  0  0  0  0  0  0  0  0  0  0  0
    3.8470   -6.3890   25.8720 O   0  0  0  0  0  0  0  0  0  0  0  0
    5.9290   -5.3960   26.8580 O   0  0  0  0  0  0  0  0  0  0  0  0
    4.9110   -5.4080   25.8430 S   0  0  0  0  0  0  0  0  0  0  0  0
    9.6350   -0.9940   22.5210 C   0  0  0  0  0  0  0  0  0  0  0  0
    8.6010   -0.3010   21.6940 C   0  0  0  0  0  0  0  0  0  0  0  0
    8.7260    0.9040   21.4610 O   0  0  0  0  0  0  0  0  0  0  0  0
    7.5220   -1.0560   21.1690 N   0  0  0  0  0  0  0  0  0  0  0  0
    5.2230    0.6420   22.0500 C   0  0  0  0  0  0  0  0  0  0  0  0
    8.1350   -2.1710   20.4600 C   0  0  0  0  0  0  0  0  0  0  0  0
    6.4450   -5.0900   21.7830 N   0  0  0  0  0  0  0  0  0  0  0  0
    7.3760   -4.7730   22.8710 C   0  0  0  0  0  0  0  0  0  0  0  0
    6.6260   -4.3990   23.9750 C   0  0  0  0  0  0  0  0  0  0  0  0
    5.6820   -5.4970   24.3290 N   0  0  0  0  0  0  0  0  0  0  0  0
    4.8340   -5.9730   23.1720 C   0  0  0  0  0  0  0  0  0  0  0  0
    5.6160   -6.2660   22.0540 C   0  0  0  0  0  0  0  0  0  0  0  0
    2.3600   -3.8980   25.9020 S   0  0  0  0  0  0  0  0  0  0  0  0
    4.0840   -3.8420   25.9280 C   0  0  0  0  0  0  0  0  0  0  0  0
    4.5950   -2.5220   26.0190 C   0  0  0  0  0  0  0  0  0  0  0  0
    3.5710   -1.5910   26.0700 C   0  0  0  0  0  0  0  0  0  0  0  0
    2.2520   -2.2010   26.0190 C   0  0  0  0  0  0  0  0  0  0  0  0
    6.7010   -0.2740   20.2520 C   0  0  0  0  0  0  0  0  0  0  0  0
    5.6340    0.5180   20.6470 C   0  0  0  0  0  0  0  0  0  0  0  0
    4.9290    1.2210   19.6590 C   0  0  0  0  0  0  0  0  0  0  0  0
    5.3390    1.0920   18.3260 C   0  0  0  0  0  0  0  0  0  0  0  0
    6.3650    0.3360   17.9180 N   0  0  0  0  0  0  0  0  0  0  0  0
    7.0290   -0.3360   18.8820 C   0  0  0  0  0  0  0  0  0  0  0  0
  1  4  1  0
  2  4  2  0
  5  7  2  0
  6  7  2  0
  8  9  1  0
  9 10  2  0
  9 11  1  0
  1 13  1  0
 11 13  1  0
  4 14  1  0
 14 15  1  0
 15 16  1  0
  7 17  1  0
 16 17  1  0
 17 18  1  0
 14 19  1  0
 18 19  1  0
  7 21  1  0
 20 21  1  0
 21 22  2  0
 22 23  1  0
  3 24  1  0
 20 24  1  0
 23 24  2  0
 11 25  1  0
 12 26  1  0
 25 26  2  0
 26 27  1  0
 27 28  2  0
 28 29  1  0
 25 30  1  0
 29 30  2  0
M  END
