x1402-x2563
     RDKit          3D

 39 43  0  0  0  0  0  0  0  0999 V2000
    7.7710   -3.6280   20.2220 C   0  0  0  0  0  0  0  0  0  0  0  0
    5.5610   -4.5570   19.9520 O   0  0  0  0  0  0  0  0  0  0  0  0
    0.6650   -1.4620   26.0710 Cl  0  0  0  0  0  0  0  0  0  0  0  0
    6.6190   -4.5590   20.6030 C   0  0  0  0  0  0  0  0  0  0  0  0
    3.9360   -6.3940   25.8140 O   0  0  0  0  0  0  0  0  0  0  0  0
    6.0770   -5.3700   26.6410 O   0  0  0  0  0  0  0  0  0  0  0  0
    4.9810   -5.4040   25.7030 S   0  0  0  0  0  0  0  0  0  0  0  0
    8.1680   -0.4590   21.1480 C   0  0  0  0  0  0  0  0  0  0  0  0
    8.3380    0.7460   20.9360 O   0  0  0  0  0  0  0  0  0  0  0  0
    6.9490   -1.1230   20.5890 C   0  0  2  0  0  0  0  0  0  0  0  0
    9.0130   -1.2360   21.8900 N   0  0  0  0  0  0  0  0  0  0  0  0
    7.1460   -2.3380   19.6690 C   0  0  0  0  0  0  0  0  0  0  0  0
    6.8190   -5.4250   21.7070 N   0  0  0  0  0  0  0  0  0  0  0  0
    7.6140   -4.9190   22.8230 C   0  0  0  0  0  0  0  0  0  0  0  0
    6.6180   -4.3590   23.8380 C   0  0  0  0  0  0  0  0  0  0  0  0
    5.6140   -5.4050   24.1430 N   0  0  0  0  0  0  0  0  0  0  0  0
    4.9070   -5.6920   23.2520 C   0  0  0  0  0  0  0  0  0  0  0  0
    5.7090   -6.2980   22.0930 C   0  0  0  0  0  0  0  0  0  0  0  0
    2.4210   -3.8460   25.7750 S   0  0  0  0  0  0  0  0  0  0  0  0
    4.1290   -3.8580   25.9150 C   0  0  0  0  0  0  0  0  0  0  0  0
    4.6520   -2.4510   26.2130 C   0  0  0  0  0  0  0  0  0  0  0  0
    3.4400   -1.5420   26.2770 C   0  0  0  0  0  0  0  0  0  0  0  0
    2.2260   -2.1740   26.0640 C   0  0  0  0  0  0  0  0  0  0  0  0
    6.0920    0.8100   17.5510 N   0  0  0  0  0  0  0  0  0  0  0  0
    5.0840    1.5790   17.9900 C   0  0  0  0  0  0  0  0  0  0  0  0
    4.6100    1.5380   19.3000 C   0  0  0  0  0  0  0  0  0  0  0  0
    5.2090    0.6620   20.1940 C   0  0  0  0  0  0  0  0  0  0  0  0
    6.2220   -0.1190   19.7540 C   0  0  0  0  0  0  0  0  0  0  0  0
    6.6210   -0.0090   18.4590 C   0  0  0  0  0  0  0  0  0  0  0  0
    3.5570    2.3640   19.6970 C   0  0  0  0  0  0  0  0  0  0  0  0
    3.0820    2.3330   21.0090 C   0  0  0  0  0  0  0  0  0  0  0  0
    3.6810    1.4610   21.9130 C   0  0  0  0  0  0  0  0  0  0  0  0
    4.7240    0.6380   21.5110 C   0  0  0  0  0  0  0  0  0  0  0  0
   11.2690   -0.7100   22.4140 C   0  0  0  0  0  0  0  0  0  0  0  0
   12.2140   -0.0580   23.1940 C   0  0  0  0  0  0  0  0  0  0  0  0
   11.7550    0.6780   24.2500 C   0  0  0  0  0  0  0  0  0  0  0  0
   10.4100    0.7900   24.5660 C   0  0  0  0  0  0  0  0  0  0  0  0
    9.4710    0.1550   23.8050 C   0  0  0  0  0  0  0  0  0  0  0  0
    9.9060   -0.5920   22.7210 C   0  0  0  0  0  0  0  0  0  0  0  0
  1  4  1  0
  2  4  2  0
  5  7  2  0
  6  7  2  0
  8  9  2  0
  8 10  1  0
  8 11  1  0
  1 12  1  0
 10 12  1  6
  4 13  1  0
 13 14  1  0
 14 15  1  0
  7 16  1  0
 15 16  1  0
 16 17  1  0
 13 18  1  0
 17 18  1  0
  7 20  1  0
 19 20  1  0
 20 21  2  0
 21 22  1  0
  3 23  1  0
 19 23  1  0
 22 23  2  0
 24 25  2  0
 25 26  1  0
 26 27  2  0
 10 28  1  0
 27 28  1  0
 24 29  1  0
 28 29  2  0
 26 30  1  0
 30 31  2  0
 31 32  1  0
 27 33  1  0
 32 33  2  0
 34 35  2  0
 35 36  1  0
 36 37  2  0
 37 38  1  0
 11 39  1  0
 34 39  1  0
 38 39  2  0
M  END
