x1402-x2643
     RDKit          3D

 35 38  0  0  0  0  0  0  0  0999 V2000
    7.4990   -3.5990   20.2470 C   0  0  0  0  0  0  0  0  0  0  0  0
    5.4150   -4.7350   19.9720 O   0  0  0  0  0  0  0  0  0  0  0  0
    0.7420   -1.3750   26.1110 Cl  0  0  0  0  0  0  0  0  0  0  0  0
    6.4840   -4.6360   20.6260 C   0  0  0  0  0  0  0  0  0  0  0  0
    3.8920   -6.4860   25.9140 O   0  0  0  0  0  0  0  0  0  0  0  0
    6.0810   -5.3510   26.9270 O   0  0  0  0  0  0  0  0  0  0  0  0
    4.9900   -5.3400   25.7730 S   0  0  0  0  0  0  0  0  0  0  0  0
    6.6760   -1.1620   20.5050 N   0  0  0  0  0  0  0  0  0  0  0  0
    8.4040    0.3110   21.1510 O   0  0  0  0  0  0  0  0  0  0  0  0
   13.4110    0.2710   23.0050 Cl  0  0  0  0  0  0  0  0  0  0  0  0
    8.2500   -1.6570   22.4460 C   0  0  0  0  0  0  0  0  0  0  0  0
    7.8220   -0.7590   21.3410 C   0  0  0  0  0  0  0  0  0  0  0  0
    6.7670   -2.3740   19.6960 C   0  0  0  0  0  0  0  0  0  0  0  0
    6.7220   -5.4900   21.7130 N   0  0  0  0  0  0  0  0  0  0  0  0
    7.5540   -4.9640   22.7680 C   0  0  0  0  0  0  0  0  0  0  0  0
    6.6450   -4.3700   23.8230 C   0  0  0  0  0  0  0  0  0  0  0  0
    5.7390   -5.4810   24.2450 N   0  0  0  0  0  0  0  0  0  0  0  0
    4.9720   -5.9780   23.2460 C   0  0  0  0  0  0  0  0  0  0  0  0
    5.7860   -6.3380   22.1880 C   0  0  0  0  0  0  0  0  0  0  0  0
    2.3990   -3.8440   25.8860 S   0  0  0  0  0  0  0  0  0  0  0  0
    4.1330   -3.7980   25.8940 C   0  0  0  0  0  0  0  0  0  0  0  0
    4.5380   -2.5210   26.0000 C   0  0  0  0  0  0  0  0  0  0  0  0
    3.5270   -1.5860   26.0780 C   0  0  0  0  0  0  0  0  0  0  0  0
    2.2680   -2.1500   26.0340 C   0  0  0  0  0  0  0  0  0  0  0  0
   11.7930   -0.0290   23.2120 C   0  0  0  0  0  0  0  0  0  0  0  0
   10.8560    0.5710   24.1230 C   0  0  0  0  0  0  0  0  0  0  0  0
    9.5570    0.0400   23.9490 C   0  0  0  0  0  0  0  0  0  0  0  0
    9.5300   -0.9130   22.9390 C   0  0  0  0  0  0  0  0  0  0  0  0
   11.0710   -1.1900   22.2270 S   0  0  0  0  0  0  0  0  0  0  0  0
    6.3170    0.9800   17.6150 N   0  0  0  0  0  0  0  0  0  0  0  0
    6.7020    0.1070   18.5480 C   0  0  0  0  0  0  0  0  0  0  0  0
    6.0740   -0.1850   19.7000 C   0  0  0  0  0  0  0  0  0  0  0  0
    4.9060    0.4670   19.9910 C   0  0  0  0  0  0  0  0  0  0  0  0
    4.4300    1.3900   19.0830 C   0  0  0  0  0  0  0  0  0  0  0  0
    5.0750    1.7000   17.8770 C   0  0  0  0  0  0  0  0  0  0  0  0
  1  4  1  0
  2  4  2  0
  5  7  2  0
  6  7  2  0
  8 12  1  0
  9 12  2  0
 11 12  1  0
  1 13  1  0
  8 13  1  0
  4 14  1  0
 14 15  1  0
 15 16  1  0
  7 17  1  0
 16 17  1  0
 17 18  1  0
 14 19  1  0
 18 19  1  0
  7 21  1  0
 20 21  1  0
 21 22  2  0
 22 23  1  0
  3 24  1  0
 20 24  1  0
 23 24  2  0
 10 25  1  0
 25 26  2  0
 26 27  1  0
 11 28  1  0
 27 28  2  0
 25 29  1  0
 28 29  1  0
 30 31  2  0
  8 32  1  0
 31 32  1  0
 32 33  2  0
 33 34  1  0
 30 35  1  0
 34 35  2  0
M  END
