x1402-x3298
     RDKit          3D

 48 52  0  0  0  0  0  0  0  0999 V2000
    7.1860    2.1700   22.1740 N   0  0  0  0  0  0  0  0  0  0  0  0
    7.2740   -0.1570   21.2730 C   0  0  1  0  0  0  0  0  0  0  0  0
    6.4900   -0.5530   22.3520 O   0  0  0  0  0  0  0  0  0  0  0  0
    7.9920    1.1510   21.4990 C   0  0  0  0  0  0  0  0  0  0  0  0
    8.6600    1.2850   24.0870 N   0  0  0  0  0  0  0  0  0  0  0  0
    9.1170    1.3690   21.1040 O   0  0  0  0  0  0  0  0  0  0  0  0
   10.8080    1.9530   24.5540 O   0  0  0  0  0  0  0  0  0  0  0  0
    9.8730   -0.0840   25.8420 O   0  0  0  0  0  0  0  0  0  0  0  0
   13.6060   -1.9170   20.8940 F   0  0  0  0  0  0  0  0  0  0  0  0
   10.0800    0.7200   24.6460 S   0  0  0  0  0  0  0  0  0  0  0  0
    7.2810   -3.5190   20.0460 C   0  0  0  0  0  0  0  0  0  0  0  0
    5.2950   -4.7870   19.9600 O   0  0  0  0  0  0  0  0  0  0  0  0
    0.7240   -1.5000   26.1650 Cl  0  0  0  0  0  0  0  0  0  0  0  0
    6.3390   -4.5910   20.5620 C   0  0  0  0  0  0  0  0  0  0  0  0
    4.0690   -6.3510   25.9330 O   0  0  0  0  0  0  0  0  0  0  0  0
    6.1780   -5.2080   26.7310 O   0  0  0  0  0  0  0  0  0  0  0  0
    5.0860   -5.3270   25.7910 S   0  0  0  0  0  0  0  0  0  0  0  0
    8.2440   -1.2680   20.8690 C   0  0  0  0  0  0  0  0  0  0  0  0
    7.8780   -2.6960   21.1950 C   0  0  0  0  0  0  0  0  0  0  0  0
    6.2060    0.5350   17.5890 N   0  0  0  0  0  0  0  0  0  0  0  0
    6.9370    0.0460   18.7250 C   0  0  0  0  0  0  0  0  0  0  0  0
    6.4740    0.3100   20.1270 C   0  0  0  0  0  0  0  0  0  0  0  0
    5.1970    1.0840   20.3190 C   0  0  0  0  0  0  0  0  0  0  0  0
    4.4380    1.5860   19.1150 C   0  0  0  0  0  0  0  0  0  0  0  0
    5.0880    1.2330   17.7760 C   0  0  0  0  0  0  0  0  0  0  0  0
    7.7880    4.5350   22.5660 C   0  0  0  0  0  0  0  0  0  0  0  0
    8.5390    5.4350   23.3310 C   0  0  0  0  0  0  0  0  0  0  0  0
    9.3330    4.9460   24.3560 C   0  0  0  0  0  0  0  0  0  0  0  0
    9.3690    3.5710   24.6070 C   0  0  0  0  0  0  0  0  0  0  0  0
    8.6200    2.6960   23.8410 C   0  0  0  0  0  0  0  0  0  0  0  0
    7.8500    3.1710   22.8460 C   0  0  0  0  0  0  0  0  0  0  0  0
   12.3070    0.3600   23.3380 C   0  0  0  0  0  0  0  0  0  0  0  0
   13.1810   -0.2260   22.4650 C   0  0  0  0  0  0  0  0  0  0  0  0
   12.7710   -1.3530   21.7540 C   0  0  0  0  0  0  0  0  0  0  0  0
   11.4950   -1.8790   21.9270 C   0  0  0  0  0  0  0  0  0  0  0  0
   10.6140   -1.2780   22.8150 C   0  0  0  0  0  0  0  0  0  0  0  0
   11.0320   -0.1600   23.5090 C   0  0  0  0  0  0  0  0  0  0  0  0
    6.6230   -5.3830   21.6870 N   0  0  0  0  0  0  0  0  0  0  0  0
    7.4820   -4.9830   22.6650 C   0  0  0  0  0  0  0  0  0  0  0  0
    6.8070   -4.5150   23.8070 C   0  0  0  0  0  0  0  0  0  0  0  0
    5.7200   -5.4430   24.2370 N   0  0  0  0  0  0  0  0  0  0  0  0
    4.9000   -6.0550   23.1610 C   0  0  0  0  0  0  0  0  0  0  0  0
    5.7210   -6.4460   22.1090 C   0  0  0  0  0  0  0  0  0  0  0  0
    2.4380   -3.9030   25.9270 S   0  0  0  0  0  0  0  0  0  0  0  0
    4.1630   -3.8070   25.9170 C   0  0  0  0  0  0  0  0  0  0  0  0
    4.5700   -2.4810   26.0160 C   0  0  0  0  0  0  0  0  0  0  0  0
    3.5150   -1.5840   26.1010 C   0  0  0  0  0  0  0  0  0  0  0  0
    2.2700   -2.2200   26.0700 C   0  0  0  0  0  0  0  0  0  0  0  0
  2  3  1  1
  1  4  1  0
  2  4  1  0
  4  6  2  0
 10  5  1  0
  7 10  2  0
  8 10  2  0
 11 14  1  0
 12 14  2  0
 15 17  2  0
 16 17  2  0
  2 18  1  0
 11 19  1  0
 18 19  1  0
 20 21  2  0
  2 22  1  0
 21 22  1  0
 22 23  2  0
 23 24  1  0
 20 25  1  0
 24 25  2  0
 26 27  2  0
 27 28  1  0
 28 29  2  0
  5 30  1  0
 29 30  1  0
  1 31  1  0
 26 31  1  0
 30 31  2  0
 32 33  2  0
  9 34  1  0
 33 34  1  0
 34 35  2  0
 35 36  1  0
 10 37  1  0
 32 37  1  0
 36 37  2  0
 14 38  1  0
 38 39  1  0
 39 40  1  0
 17 41  1  0
 40 41  1  0
 41 42  1  0
 38 43  1  0
 42 43  1  0
 17 45  1  0
 44 45  1  0
 45 46  2  0
 46 47  1  0
 13 48  1  0
 44 48  1  0
 47 48  2  0
M  END
