x1402-x2119
     RDKit          3D

 23 25  0  0  0  0  0  0  0  0999 V2000
    7.7490   -4.0860   20.6810 C   0  0  0  0  0  0  0  0  0  0  0  0
    5.6300   -5.0210   20.0370 O   0  0  0  0  0  0  0  0  0  0  0  0
    0.7270   -1.3320   26.1430 Cl  0  0  0  0  0  0  0  0  0  0  0  0
    6.6270   -5.0210   20.8120 C   0  0  0  0  0  0  0  0  0  0  0  0
    4.0170   -6.4270   26.1860 O   0  0  0  0  0  0  0  0  0  0  0  0
    6.2530   -5.1850   27.0180 O   0  0  0  0  0  0  0  0  0  0  0  0
    5.0740   -5.2550   25.9540 S   0  0  0  0  0  0  0  0  0  0  0  0
    6.6970   -5.8840   21.8980 N   0  0  0  0  0  0  0  0  0  0  0  0
    7.5520   -5.4990   22.9250 C   0  0  0  0  0  0  0  0  0  0  0  0
    6.9630   -4.9340   24.1690 C   0  0  0  0  0  0  0  0  0  0  0  0
    5.6850   -5.3700   24.4110 N   0  0  0  0  0  0  0  0  0  0  0  0
    4.8160   -5.6800   23.3780 C   0  0  0  0  0  0  0  0  0  0  0  0
    5.5040   -6.6010   22.3740 C   0  0  0  0  0  0  0  0  0  0  0  0
    2.4160   -3.8150   25.9820 S   0  0  0  0  0  0  0  0  0  0  0  0
    4.1500   -3.7470   26.0400 C   0  0  0  0  0  0  0  0  0  0  0  0
    4.5070   -2.4200   26.1480 C   0  0  0  0  0  0  0  0  0  0  0  0
    3.5120   -1.5270   26.1860 C   0  0  0  0  0  0  0  0  0  0  0  0
    2.2580   -2.0940   26.1110 C   0  0  0  0  0  0  0  0  0  0  0  0
    7.0870   -2.8890   21.2630 C   0  0  0  0  0  0  0  0  0  0  0  0
    5.7460   -3.0030   21.5600 N   0  0  0  0  0  0  0  0  0  0  0  0
    5.4950   -1.7120   22.1200 C   0  0  0  0  0  0  0  0  0  0  0  0
    6.6130   -0.9020   22.1420 C   0  0  0  0  0  0  0  0  0  0  0  0
    7.6850   -1.5930   21.6030 N   0  0  0  0  0  0  0  0  0  0  0  0
  1  4  1  0
  2  4  2  0
  5  7  2  0
  6  7  2  0
  4  8  1  0
  8  9  1  0
  9 10  1  0
  7 11  1  0
 10 11  1  0
 11 12  1  0
  8 13  1  0
 12 13  1  0
  7 15  1  0
 14 15  1  0
 15 16  2  0
 16 17  1  0
  3 18  1  0
 14 18  1  0
 17 18  2  0
  1 19  1  0
 19 20  1  0
 20 21  1  0
 21 22  2  0
 19 23  2  0
 22 23  1  0
M  END
