x1402-x2705-x0691-x3117
     RDKit          3D

 51 57  0  0  0  0  0  0  0  0999 V2000
    6.8320   -1.4440   22.1130 N   0  0  0  0  0  0  0  0  0  0  0  0
    6.8400   -4.6270   20.4710 C   0  0  2  0  0  0  0  0  0  0  0  0
    4.7940   -3.0450   21.4150 O   0  0  0  0  0  0  0  0  0  0  0  0
    7.0470   -3.7680   21.6740 C   0  0  2  0  0  0  0  0  0  0  0  0
    7.4090    2.0780   22.8240 N   0  0  0  0  0  0  0  0  0  0  0  0
    8.6390    1.2610   21.0620 O   0  0  0  0  0  0  0  0  0  0  0  0
    6.0740   -2.6980   21.7350 C   0  0  0  0  0  0  0  0  0  0  0  0
    6.5370   -0.0030   21.6680 C   0  0  1  0  0  0  0  0  0  0  0  0
    7.6560    1.1580   21.8070 C   0  0  0  0  0  0  0  0  0  0  0  0
   10.1560    2.0840   23.9850 C   0  0  0  0  0  0  0  0  0  0  0  0
    9.3070    1.2470   24.9240 C   0  0  0  0  0  0  0  0  0  0  0  0
    6.1660    4.5510   21.9000 C   0  0  0  0  0  0  0  0  0  0  0  0
   11.9850   -1.5350   23.2200 C   0  0  0  0  0  0  0  0  0  0  0  0
   12.5430   -0.2250   23.8270 C   0  0  0  0  0  0  0  0  0  0  0  0
   12.4140   -2.7240   24.0650 C   0  0  0  0  0  0  0  0  0  0  0  0
   12.6640   -1.7410   21.8480 C   0  0  0  0  0  0  0  0  0  0  0  0
   13.3780   -2.4760   25.1960 C   0  0  0  0  0  0  0  0  0  0  0  0
    5.5470   -4.6310   19.8660 O   0  0  0  0  0  0  0  0  0  0  0  0
    0.5960   -1.4900   26.1170 Cl  0  0  0  0  0  0  0  0  0  0  0  0
    4.2170   -6.4010   25.7330 O   0  0  0  0  0  0  0  0  0  0  0  0
    6.1900   -5.0710   26.5020 O   0  0  0  0  0  0  0  0  0  0  0  0
    5.0740   -5.2360   25.6000 S   0  0  0  0  0  0  0  0  0  0  0  0
    3.5800   -0.1870   26.2580 F   0  0  0  0  0  0  0  0  0  0  0  0
    6.3590    0.2400   17.8910 N   0  0  0  0  0  0  0  0  0  0  0  0
    5.2210    0.9350   17.8130 C   0  0  0  0  0  0  0  0  0  0  0  0
    4.4380    1.3480   18.8410 C   0  0  0  0  0  0  0  0  0  0  0  0
    4.8690    1.0230   20.1050 C   0  0  0  0  0  0  0  0  0  0  0  0
    6.0560    0.3060   20.2760 C   0  0  0  0  0  0  0  0  0  0  0  0
    6.7600   -0.0670   19.1350 C   0  0  0  0  0  0  0  0  0  0  0  0
    9.6320   -1.4360   24.3410 N   0  0  0  0  0  0  0  0  0  0  0  0
    8.3030   -1.4180   24.0930 N   0  0  0  0  0  0  0  0  0  0  0  0
    8.1510   -1.4720   22.7180 C   0  0  0  0  0  0  0  0  0  0  0  0
    9.5800   -1.5360   22.1190 C   0  0  0  0  0  0  0  0  0  0  0  0
   10.4440   -1.5070   23.1440 C   0  0  0  0  0  0  0  0  0  0  0  0
    9.4360    3.3230   23.5030 C   0  0  0  0  0  0  0  0  0  0  0  0
   10.1070    4.5600   23.6150 C   0  0  0  0  0  0  0  0  0  0  0  0
    9.4960    5.7540   23.1770 C   0  0  0  0  0  0  0  0  0  0  0  0
    8.2220    5.7240   22.6270 C   0  0  0  0  0  0  0  0  0  0  0  0
    7.5430    4.5060   22.5110 C   0  0  0  0  0  0  0  0  0  0  0  0
    8.1360    3.2990   22.9500 C   0  0  0  0  0  0  0  0  0  0  0  0
    6.8720   -5.5030   21.5800 C   0  0  2  0  0  0  0  0  0  0  0  0
    7.3580   -4.9190   22.6550 C   0  0  2  0  0  0  0  0  0  0  0  0
    6.5450   -4.1420   23.4490 C   0  0  0  0  0  0  0  0  0  0  0  0
    5.6030   -5.2100   23.9790 N   0  0  0  0  0  0  0  0  0  0  0  0
    4.8660   -6.0320   22.9420 C   0  0  0  0  0  0  0  0  0  0  0  0
    5.7450   -6.4420   21.9140 C   0  0  0  0  0  0  0  0  0  0  0  0
    2.3070   -3.9330   25.7840 S   0  0  0  0  0  0  0  0  0  0  0  0
    4.0300   -3.8120   25.7930 C   0  0  0  0  0  0  0  0  0  0  0  0
    4.5310   -2.5270   25.9570 C   0  0  0  0  0  0  0  0  0  0  0  0
    3.4280   -1.5010   26.0910 C   0  0  0  0  0  0  0  0  0  0  0  0
    2.1230   -2.2590   26.0020 C   0  0  0  0  0  0  0  0  0  0  0  0
  2  4  1  0
  1  7  1  0
  3  7  2  0
  4  7  1  1
  1  8  1  0
  5  9  1  0
  6  9  2  0
  8  9  1  6
 10 11  1  0
 13 14  1  0
 13 15  1  0
 13 16  1  0
 15 17  1  0
  2 18  1  1
 20 22  2  0
 21 22  2  0
 24 25  2  0
 25 26  1  0
 26 27  2  0
  8 28  1  0
 27 28  1  0
 24 29  1  0
 28 29  2  0
 30 31  1  0
  1 32  1  0
 31 32  2  0
 32 33  1  0
 13 34  1  0
 30 34  1  0
 33 34  2  0
 10 35  1  0
 35 36  2  0
 36 37  1  0
 37 38  2  0
 12 39  1  0
 38 39  1  0
  5 40  1  0
 35 40  1  0
 39 40  2  0
  2 41  1  0
  4 41  1  0
  4 42  1  0
 41 42  1  0
 42 43  1  1
 22 44  1  0
 43 44  1  0
 44 45  1  0
 41 46  1  1
 45 46  1  0
 22 48  1  0
 47 48  1  0
 48 49  2  0
 23 50  1  0
 49 50  1  0
 19 51  1  0
 47 51  1  0
 50 51  2  0
M  END
