x1402-x0072
     RDKit          3D

 30 33  0  0  0  0  0  0  0  0999 V2000
    7.2760   -3.4720   19.8380 C   0  0  0  0  0  0  0  0  0  0  0  0
    5.2060   -4.6120   19.9130 O   0  0  0  0  0  0  0  0  0  0  0  0
    0.7700   -1.5450   26.1020 Cl  0  0  0  0  0  0  0  0  0  0  0  0
    6.3260   -4.4680   20.4350 C   0  0  0  0  0  0  0  0  0  0  0  0
    4.3150   -6.4250   25.9340 O   0  0  0  0  0  0  0  0  0  0  0  0
    6.6030   -4.7940   26.8530 N   0  0  0  0  0  0  0  0  0  0  0  0
    5.3210   -5.1880   25.8200 S   0  0  1  0  0  0  0  0  0  0  0  0
    8.0540   -4.6640   26.3470 S   0  0  0  0  0  0  0  0  0  0  0  0
    8.7430   -5.8860   25.9770 O   0  0  0  0  0  0  0  0  0  0  0  0
    8.9360   -3.7950   27.1040 O   0  0  0  0  0  0  0  0  0  0  0  0
    7.9480   -3.8350   24.8540 N   0  0  0  0  0  0  0  0  0  0  0  0
    9.2020   -3.4110   24.3670 C   0  0  0  0  0  0  0  0  0  0  0  0
    9.1070   -2.0660   23.7060 C   0  0  0  0  0  0  0  0  0  0  0  0
    6.6640   -5.2610   21.5430 N   0  0  0  0  0  0  0  0  0  0  0  0
    7.5310   -4.6660   22.5590 C   0  0  0  0  0  0  0  0  0  0  0  0
    6.9200   -4.2550   23.8990 C   0  0  1  0  0  0  0  0  0  0  0  0
    6.0390   -5.2840   24.3090 N   0  0  0  0  0  0  0  0  0  0  0  0
    5.2400   -5.7860   23.3340 C   0  0  0  0  0  0  0  0  0  0  0  0
    5.8140   -6.1320   22.1080 C   0  0  0  0  0  0  0  0  0  0  0  0
    2.5810   -3.9590   25.9140 S   0  0  0  0  0  0  0  0  0  0  0  0
    4.3070   -3.7310   25.9030 C   0  0  0  0  0  0  0  0  0  0  0  0
    4.6040   -2.3730   25.9690 C   0  0  0  0  0  0  0  0  0  0  0  0
    3.5220   -1.5980   26.0310 C   0  0  0  0  0  0  0  0  0  0  0  0
    2.3170   -2.2850   26.0170 C   0  0  0  0  0  0  0  0  0  0  0  0
   10.4730   -1.4390   23.4560 C   0  0  0  0  0  0  0  0  0  0  0  0
   11.3960   -2.0600   22.4650 C   0  0  0  0  0  0  0  0  0  0  0  0
   12.6950   -1.3820   22.2860 C   0  0  0  0  0  0  0  0  0  0  0  0
   13.0010   -0.1890   23.0440 C   0  0  0  0  0  0  0  0  0  0  0  0
   12.0840    0.3180   23.9430 C   0  0  0  0  0  0  0  0  0  0  0  0
   10.8390   -0.2780   24.1640 C   0  0  0  0  0  0  0  0  0  0  0  0
  1  4  1  0
  2  4  2  0
  5  7  2  0
  6  7  2  0
  8  6  1  0
  8  9  2  0
  8 10  2  0
  8 11  1  0
 11 12  1  0
 12 13  1  0
  4 14  1  0
 14 15  1  0
 11 16  1  0
 16 15  1  6
  7 17  1  0
 16 17  1  0
 17 18  1  0
 14 19  1  0
 18 19  1  0
  7 21  1  6
 20 21  1  0
 21 22  2  0
 22 23  1  0
  3 24  1  0
 20 24  1  0
 23 24  2  0
 13 25  1  0
 25 26  2  0
 26 27  1  0
 27 28  2  0
 28 29  1  0
 25 30  1  0
 29 30  2  0
M  END
