x1402-x3117
     RDKit          3D

 47 51  0  0  0  0  0  0  0  0999 V2000
    6.8660   -1.5620   21.9810 N   0  0  0  0  0  0  0  0  0  0  0  0
    6.7790   -4.6770   20.1590 C   0  0  0  0  0  0  0  0  0  0  0  0
    4.7900   -2.9840   21.2720 O   0  0  0  0  0  0  0  0  0  0  0  0
    6.9030   -3.9320   21.3960 C   0  0  1  0  0  0  0  0  0  0  0  0
    7.6320    1.9230   22.6430 N   0  0  0  0  0  0  0  0  0  0  0  0
    8.9320    0.4280   21.4500 O   0  0  0  0  0  0  0  0  0  0  0  0
    6.0660   -2.7500   21.5380 C   0  0  0  0  0  0  0  0  0  0  0  0
    6.5920   -0.1120   21.6370 C   0  0  1  0  0  0  0  0  0  0  0  0
    7.8340    0.7420   21.8960 C   0  0  0  0  0  0  0  0  0  0  0  0
   12.2660   -1.7690   24.1820 C   0  0  0  0  0  0  0  0  0  0  0  0
   12.4820   -0.5840   25.0780 C   0  0  0  0  0  0  0  0  0  0  0  0
   13.2610   -1.6820   23.0240 C   0  0  0  0  0  0  0  0  0  0  0  0
   12.7140   -2.9890   24.9810 C   0  0  0  0  0  0  0  0  0  0  0  0
    5.6340   -4.2160   19.4820 O   0  0  0  0  0  0  0  0  0  0  0  0
    0.6290   -1.3150   26.0690 Cl  0  0  0  0  0  0  0  0  0  0  0  0
    3.6880   -6.4460   26.0820 O   0  0  0  0  0  0  0  0  0  0  0  0
    5.7250   -5.5150   27.1120 O   0  0  0  0  0  0  0  0  0  0  0  0
    4.7720   -5.4050   25.9550 S   0  0  0  0  0  0  0  0  0  0  0  0
    6.3290    0.2940   17.8510 N   0  0  0  0  0  0  0  0  0  0  0  0
    5.1440    1.1240   17.8450 C   0  0  0  0  0  0  0  0  0  0  0  0
    4.4940    1.4860   18.9610 C   0  0  0  0  0  0  0  0  0  0  0  0
    4.9440    1.0820   20.2120 C   0  0  0  0  0  0  0  0  0  0  0  0
    6.0800    0.2950   20.2950 C   0  0  0  0  0  0  0  0  0  0  0  0
    6.7650   -0.0970   19.0560 C   0  0  0  0  0  0  0  0  0  0  0  0
    9.8470    4.7890   23.9160 O   0  0  0  0  0  0  0  0  0  0  0  0
   10.0410    3.3650   23.8390 C   0  0  0  0  0  0  0  0  0  0  0  0
    9.6320    2.8440   22.5580 C   0  0  0  0  0  0  0  0  0  0  0  0
    8.2740    3.0710   22.3270 C   0  0  0  0  0  0  0  0  0  0  0  0
    7.8160    4.1920   23.0480 C   0  0  0  0  0  0  0  0  0  0  0  0
    8.7180    5.2270   23.1630 C   0  0  0  0  0  0  0  0  0  0  0  0
    9.2920   -2.0310   21.7920 C   0  0  0  0  0  0  0  0  0  0  0  0
   10.5640   -2.0760   22.3140 C   0  0  0  0  0  0  0  0  0  0  0  0
   10.8600   -1.7510   23.6180 C   0  0  0  0  0  0  0  0  0  0  0  0
    9.7780   -1.3770   24.4170 C   0  0  0  0  0  0  0  0  0  0  0  0
    8.4490   -1.3150   23.9270 C   0  0  0  0  0  0  0  0  0  0  0  0
    8.1900   -1.6410   22.5730 C   0  0  0  0  0  0  0  0  0  0  0  0
    6.4880   -4.7430   22.4000 N   0  0  0  0  0  0  0  0  0  0  0  0
    7.5470   -5.1560   23.2440 C   0  0  0  0  0  0  0  0  0  0  0  0
    7.0320   -5.2230   24.4940 C   0  0  0  0  0  0  0  0  0  0  0  0
    5.5930   -5.5530   24.4970 N   0  0  0  0  0  0  0  0  0  0  0  0
    4.9640   -6.2800   23.3510 C   0  0  0  0  0  0  0  0  0  0  0  0
    5.6350   -5.8660   22.0550 C   0  0  0  0  0  0  0  0  0  0  0  0
    2.2980   -3.7880   25.9600 S   0  0  0  0  0  0  0  0  0  0  0  0
    3.9940   -3.8120   26.0220 C   0  0  0  0  0  0  0  0  0  0  0  0
    4.5360   -2.5610   26.1160 C   0  0  0  0  0  0  0  0  0  0  0  0
    3.5210   -1.4440   26.1470 C   0  0  0  0  0  0  0  0  0  0  0  0
    2.1600   -2.0800   26.0650 C   0  0  0  0  0  0  0  0  0  0  0  0
  4  2  1  6
  1  7  1  0
  3  7  2  0
  4  7  1  0
  1  8  1  0
  5  9  1  0
  6  9  2  0
  8  9  1  6
 10 11  1  0
 10 12  1  0
 10 13  1  0
  2 14  2  0
 16 18  2  0
 17 18  2  0
 19 20  2  0
 20 21  1  0
 21 22  2  0
  8 23  1  0
 22 23  1  0
 19 24  1  0
 23 24  2  0
 25 26  1  0
 26 27  1  0
  5 28  1  0
 27 28  1  0
 28 29  1  0
 25 30  1  0
 29 30  1  0
 31 32  2  0
 10 33  1  0
 32 33  1  0
 33 34  2  0
 34 35  1  0
  1 36  1  0
 31 36  1  0
 35 36  2  0
  4 37  1  0
 37 38  1  0
 38 39  1  0
 18 40  1  0
 39 40  1  0
 40 41  1  0
 37 42  1  0
 41 42  1  0
 18 44  1  0
 43 44  1  0
 44 45  2  0
 45 46  1  0
 15 47  1  0
 43 47  1  0
 46 47  2  0
M  END
