x1402-x0425
     RDKit          3D

 18 19  0  0  0  0  0  0  0  0999 V2000
    7.3850   -3.1500   20.8660 C   0  0  0  0  0  0  0  0  0  0  0  0
    5.4730   -4.4740   19.9260 O   0  0  0  0  0  0  0  0  0  0  0  0
    0.7400   -1.3190   26.1590 Cl  0  0  0  0  0  0  0  0  0  0  0  0
    6.4680   -4.3690   20.8580 C   0  0  0  0  0  0  0  0  0  0  0  0
    4.0240   -6.3980   25.9470 O   0  0  0  0  0  0  0  0  0  0  0  0
    6.0400   -5.1650   26.7910 O   0  0  0  0  0  0  0  0  0  0  0  0
    4.9860   -5.3200   25.8210 S   0  0  0  0  0  0  0  0  0  0  0  0
    6.7050   -5.3480   21.8060 N   0  0  0  0  0  0  0  0  0  0  0  0
    7.4060   -4.8920   22.8380 C   0  0  0  0  0  0  0  0  0  0  0  0
    6.5810   -4.3950   23.8390 C   0  0  0  0  0  0  0  0  0  0  0  0
    5.7160   -5.4460   24.2890 N   0  0  0  0  0  0  0  0  0  0  0  0
    4.8500   -5.9960   23.1950 C   0  0  0  0  0  0  0  0  0  0  0  0
    5.6850   -6.3000   22.1080 C   0  0  0  0  0  0  0  0  0  0  0  0
    2.3450   -3.8150   25.9500 S   0  0  0  0  0  0  0  0  0  0  0  0
    4.0750   -3.7950   25.9220 C   0  0  0  0  0  0  0  0  0  0  0  0
    4.6060   -2.5080   25.9860 C   0  0  0  0  0  0  0  0  0  0  0  0
    3.6440   -1.5260   26.0650 C   0  0  0  0  0  0  0  0  0  0  0  0
    2.2510   -2.1230   26.0620 C   0  0  0  0  0  0  0  0  0  0  0  0
  1  4  1  0
  2  4  2  0
  5  7  2  0
  6  7  2  0
  4  8  1  0
  8  9  1  0
  9 10  1  0
  7 11  1  0
 10 11  1  0
 11 12  1  0
  8 13  1  0
 12 13  1  0
  7 15  1  0
 14 15  1  0
 15 16  2  0
 16 17  1  0
  3 18  1  0
 14 18  1  0
 17 18  2  0
M  END
