x1402-x0692
     RDKit          3D

 33 36  0  0  0  0  0  0  0  0999 V2000
    6.7230   -2.9670   20.3180 C   0  0  1  0  0  0  0  0  0  0  0  0
    5.2970   -4.8980   19.7540 O   0  0  0  0  0  0  0  0  0  0  0  0
    0.6690   -1.4660   26.2400 Cl  0  0  0  0  0  0  0  0  0  0  0  0
    6.1260   -4.3480   20.6520 C   0  0  0  0  0  0  0  0  0  0  0  0
    3.8370   -6.4830   25.9770 O   0  0  0  0  0  0  0  0  0  0  0  0
    5.9280   -5.3950   26.8790 O   0  0  0  0  0  0  0  0  0  0  0  0
    4.8780   -5.4850   25.8910 S   0  0  0  0  0  0  0  0  0  0  0  0
    6.2660   -2.5110   18.9160 C   0  0  0  0  0  0  0  0  0  0  0  0
   11.0520    2.4920   23.6580 C   0  0  0  0  0  0  0  0  0  0  0  0
    9.5800   -2.4340   23.6620 C   0  0  0  0  0  0  0  0  0  0  0  0
    6.4440   -5.0770   21.8060 N   0  0  0  0  0  0  0  0  0  0  0  0
    7.1120   -4.5440   22.9450 C   0  0  0  0  0  0  0  0  0  0  0  0
    6.3170   -4.3220   24.0660 C   0  0  0  0  0  0  0  0  0  0  0  0
    5.6190   -5.5700   24.3730 N   0  0  0  0  0  0  0  0  0  0  0  0
    4.8680   -6.1230   23.2410 C   0  0  0  0  0  0  0  0  0  0  0  0
    5.6910   -6.2940   22.1160 C   0  0  0  0  0  0  0  0  0  0  0  0
    2.3780   -3.8510   26.0420 S   0  0  0  0  0  0  0  0  0  0  0  0
    4.0830   -3.8970   25.9900 C   0  0  0  0  0  0  0  0  0  0  0  0
    4.6280   -2.4950   26.0390 C   0  0  0  0  0  0  0  0  0  0  0  0
    3.5700   -1.4240   26.1270 C   0  0  0  0  0  0  0  0  0  0  0  0
    2.2300   -2.1690   26.1380 C   0  0  0  0  0  0  0  0  0  0  0  0
   11.3900    1.0520   23.4990 C   0  0  0  0  0  0  0  0  0  0  0  0
   10.2960    0.0370   23.6990 C   0  0  0  0  0  0  0  0  0  0  0  0
   10.6530   -1.4260   23.5040 C   0  0  0  0  0  0  0  0  0  0  0  0
   12.0840   -1.7730   23.1380 C   0  0  0  0  0  0  0  0  0  0  0  0
   12.9910   -0.7280   22.9920 C   0  0  0  0  0  0  0  0  0  0  0  0
   12.6710    0.6330   23.1610 C   0  0  0  0  0  0  0  0  0  0  0  0
    6.4160   -1.8670   21.2050 N   0  0  0  0  0  0  0  0  0  0  0  0
    7.5130   -0.9040   21.1660 C   0  0  0  0  0  0  0  0  0  0  0  0
    8.5820   -1.3440   21.8920 C   0  0  0  0  0  0  0  0  0  0  0  0
    8.3740   -1.8110   23.1330 N   0  0  0  0  0  0  0  0  0  0  0  0
    7.2820   -2.5590   23.3590 C   0  0  0  0  0  0  0  0  0  0  0  0
    6.1590   -2.2720   22.5950 C   0  0  0  0  0  0  0  0  0  0  0  0
  1  4  1  0
  2  4  2  0
  5  7  2  0
  6  7  2  0
  1  8  1  6
  4 11  1  0
 11 12  1  0
 12 13  1  0
  7 14  1  0
 13 14  1  0
 14 15  1  0
 11 16  1  0
 15 16  1  0
  7 18  1  0
 17 18  1  0
 18 19  2  0
 19 20  1  0
  3 21  1  0
 17 21  1  0
 20 21  2  0
  9 22  1  0
 22 23  2  0
 10 24  1  0
 23 24  1  0
 24 25  2  0
 25 26  1  0
 22 27  1  0
 26 27  2  0
  1 28  1  0
 28 29  1  0
 29 30  1  0
 10 31  1  0
 30 31  1  0
 31 32  1  0
 28 33  1  0
 32 33  1  0
M  END
