x1402-x0434
     RDKit          3D

 35 38  0  0  0  0  0  0  0  0999 V2000
    7.6990   -3.7810   20.6050 C   0  0  0  0  0  0  0  0  0  0  0  0
    5.5790   -4.7460   20.0030 O   0  0  0  0  0  0  0  0  0  0  0  0
    0.7820   -1.3300   26.1780 Cl  0  0  0  0  0  0  0  0  0  0  0  0
    6.5990   -4.7710   20.7590 C   0  0  0  0  0  0  0  0  0  0  0  0
    3.9690   -6.5460   26.0350 O   0  0  0  0  0  0  0  0  0  0  0  0
    6.1240   -5.2750   26.9950 O   0  0  0  0  0  0  0  0  0  0  0  0
    5.0050   -5.3460   25.8700 S   0  0  0  0  0  0  0  0  0  0  0  0
    8.5810    0.6430   21.2720 O   0  0  0  0  0  0  0  0  0  0  0  0
    8.3810   -0.5640   21.3630 C   0  0  0  0  0  0  0  0  0  0  0  0
    9.1110   -1.2890   22.2700 N   0  0  0  0  0  0  0  0  0  0  0  0
    7.4560   -1.2050   20.5680 N   0  0  0  0  0  0  0  0  0  0  0  0
    6.9140   -2.4480   20.8430 C   0  0  0  0  0  0  0  0  0  0  0  0
    6.7120   -5.6970   21.7820 N   0  0  0  0  0  0  0  0  0  0  0  0
    7.5890   -5.2880   22.8840 C   0  0  0  0  0  0  0  0  0  0  0  0
    6.9490   -4.7580   24.1670 C   0  0  0  0  0  0  0  0  0  0  0  0
    5.7650   -5.4820   24.3800 N   0  0  0  0  0  0  0  0  0  0  0  0
    4.9960   -5.7780   23.3080 C   0  0  0  0  0  0  0  0  0  0  0  0
    5.6730   -6.3870   22.2470 C   0  0  0  0  0  0  0  0  0  0  0  0
    2.3910   -3.8840   25.9920 S   0  0  0  0  0  0  0  0  0  0  0  0
    4.1240   -3.8140   25.9470 C   0  0  0  0  0  0  0  0  0  0  0  0
    4.5080   -2.4850   25.9900 C   0  0  0  0  0  0  0  0  0  0  0  0
    3.5260   -1.5990   26.0590 C   0  0  0  0  0  0  0  0  0  0  0  0
    2.2660   -2.1870   26.0780 C   0  0  0  0  0  0  0  0  0  0  0  0
   10.5130    0.3640   23.4410 C   0  0  0  0  0  0  0  0  0  0  0  0
   11.8240    0.9200   23.7820 C   0  0  0  0  0  0  0  0  0  0  0  0
   12.9690    0.1960   23.2140 C   0  0  0  0  0  0  0  0  0  0  0  0
   12.8070   -0.9780   22.3900 C   0  0  0  0  0  0  0  0  0  0  0  0
   11.5380   -1.4350   22.1160 C   0  0  0  0  0  0  0  0  0  0  0  0
   10.4340   -0.7660   22.6310 C   0  0  0  0  0  0  0  0  0  0  0  0
    5.4070    0.2240   20.2120 C   0  0  0  0  0  0  0  0  0  0  0  0
    4.6750    1.0660   19.3740 C   0  0  0  0  0  0  0  0  0  0  0  0
    5.1590    1.3570   18.1100 C   0  0  0  0  0  0  0  0  0  0  0  0
    6.3030    0.8790   17.6110 N   0  0  0  0  0  0  0  0  0  0  0  0
    7.0100    0.0080   18.5350 C   0  0  0  0  0  0  0  0  0  0  0  0
    6.6180   -0.3290   19.7870 C   0  0  0  0  0  0  0  0  0  0  0  0
  1  4  1  0
  2  4  2  0
  5  7  2  0
  6  7  2  0
  8  9  2  0
  9 10  1  0
  9 11  1  0
  1 12  1  0
 11 12  1  0
  4 13  1  0
 13 14  1  0
 14 15  1  0
  7 16  1  0
 15 16  1  0
 16 17  1  0
 13 18  1  0
 17 18  1  0
  7 20  1  0
 19 20  1  0
 20 21  2  0
 21 22  1  0
  3 23  1  0
 19 23  1  0
 22 23  2  0
 24 25  2  0
 25 26  1  0
 26 27  2  0
 27 28  1  0
 10 29  1  0
 24 29  1  0
 28 29  2  0
 30 31  2  0
 31 32  1  0
 32 33  2  0
 33 34  1  0
 11 35  1  0
 30 35  1  0
 34 35  2  0
M  END
