x1402-x2646
     RDKit          3D

 38 41  0  0  0  0  0  0  0  0999 V2000
    7.6260   -3.6750   20.2730 C   0  0  0  0  0  0  0  0  0  0  0  0
    5.4660   -4.7340   19.9620 O   0  0  0  0  0  0  0  0  0  0  0  0
    0.7600   -1.4910   26.1060 Cl  0  0  0  0  0  0  0  0  0  0  0  0
    6.4990   -4.6070   20.6650 C   0  0  0  0  0  0  0  0  0  0  0  0
    3.9980   -6.4470   25.8030 O   0  0  0  0  0  0  0  0  0  0  0  0
    6.1570   -5.2860   26.8400 O   0  0  0  0  0  0  0  0  0  0  0  0
    5.0460   -5.2480   25.7020 S   0  0  0  0  0  0  0  0  0  0  0  0
    4.4990    1.3140   21.4420 C   0  0  0  0  0  0  0  0  0  0  0  0
    8.8130    1.2220   21.2270 O   0  0  0  0  0  0  0  0  0  0  0  0
   13.2530   -1.9850   21.2080 Cl  0  0  0  0  0  0  0  0  0  0  0  0
    6.9370   -0.3030   21.1290 N   0  0  0  0  0  0  0  0  0  0  0  0
    8.2050    0.2210   21.6530 C   0  0  0  0  0  0  0  0  0  0  0  0
    8.6970   -0.6030   22.7850 C   0  0  0  0  0  0  0  0  0  0  0  0
    6.9970   -2.3370   19.9520 C   0  0  0  0  0  0  0  0  0  0  0  0
    6.6570   -1.6700   21.2620 C   0  0  0  0  0  0  0  0  0  0  0  0
    6.6020   -5.3280   21.8710 N   0  0  0  0  0  0  0  0  0  0  0  0
    7.6340   -5.1280   22.9100 C   0  0  0  0  0  0  0  0  0  0  0  0
    7.0380   -4.6870   24.0630 C   0  0  0  0  0  0  0  0  0  0  0  0
    5.8250   -5.3210   24.1770 N   0  0  0  0  0  0  0  0  0  0  0  0
    5.0060   -5.6410   23.0200 C   0  0  0  0  0  0  0  0  0  0  0  0
    5.7400   -6.3230   22.0890 C   0  0  0  0  0  0  0  0  0  0  0  0
    2.5190   -3.9410   25.8380 S   0  0  0  0  0  0  0  0  0  0  0  0
    4.2400   -3.8510   25.8370 C   0  0  0  0  0  0  0  0  0  0  0  0
    4.6580   -2.5230   25.9620 C   0  0  0  0  0  0  0  0  0  0  0  0
    3.5630   -1.5860   26.0610 C   0  0  0  0  0  0  0  0  0  0  0  0
    2.2920   -2.2650   26.0080 C   0  0  0  0  0  0  0  0  0  0  0  0
    6.4060    0.7180   17.6600 N   0  0  0  0  0  0  0  0  0  0  0  0
    6.9100    0.1530   18.7530 C   0  0  0  0  0  0  0  0  0  0  0  0
    6.3380    0.3180   20.0020 C   0  0  0  0  0  0  0  0  0  0  0  0
    5.1860    1.0920   20.1310 C   0  0  0  0  0  0  0  0  0  0  0  0
    4.6390    1.6840   19.0330 C   0  0  0  0  0  0  0  0  0  0  0  0
    5.2030    1.5360   17.7880 C   0  0  0  0  0  0  0  0  0  0  0  0
   10.6150    0.4460   23.8040 C   0  0  0  0  0  0  0  0  0  0  0  0
   11.9850    0.6000   23.9110 C   0  0  0  0  0  0  0  0  0  0  0  0
   12.8210   -0.1530   23.1130 C   0  0  0  0  0  0  0  0  0  0  0  0
   12.2790   -1.0550   22.2150 C   0  0  0  0  0  0  0  0  0  0  0  0
   10.9130   -1.2080   22.1140 C   0  0  0  0  0  0  0  0  0  0  0  0
   10.0940   -0.4450   22.9150 C   0  0  0  0  0  0  0  0  0  0  0  0
  1  4  1  0
  2  4  2  0
  5  7  2  0
  6  7  2  0
  9 12  2  0
 11 12  1  0
 12 13  1  0
  1 14  1  0
 11 15  1  0
 14 15  1  0
  4 16  1  0
 16 17  1  0
 17 18  1  0
  7 19  1  0
 18 19  1  0
 19 20  1  0
 16 21  1  0
 20 21  1  0
  7 23  1  0
 22 23  1  0
 23 24  2  0
 24 25  1  0
  3 26  1  0
 22 26  1  0
 25 26  2  0
 27 28  2  0
 11 29  1  0
 28 29  1  0
  8 30  1  0
 29 30  2  0
 30 31  1  0
 27 32  1  0
 31 32  2  0
 33 34  2  0
 34 35  1  0
 10 36  1  0
 35 36  2  0
 36 37  1  0
 13 38  1  0
 33 38  1  0
 37 38  2  0
M  END
