x1402-x1086
     RDKit          3D

 18 19  0  0  0  0  0  0  0  0999 V2000
    7.3690   -3.1270   20.8370 C   0  0  0  0  0  0  0  0  0  0  0  0
    5.4600   -4.4680   19.9200 O   0  0  0  0  0  0  0  0  0  0  0  0
    0.7410   -1.3130   26.1320 Cl  0  0  0  0  0  0  0  0  0  0  0  0
    6.4610   -4.3520   20.8440 C   0  0  0  0  0  0  0  0  0  0  0  0
    4.0450   -6.4060   25.9540 O   0  0  0  0  0  0  0  0  0  0  0  0
    6.0550   -5.1560   26.7800 O   0  0  0  0  0  0  0  0  0  0  0  0
    4.9940   -5.3200   25.8180 S   0  0  0  0  0  0  0  0  0  0  0  0
    6.7080   -5.3270   21.7950 N   0  0  0  0  0  0  0  0  0  0  0  0
    7.3950   -4.8650   22.8330 C   0  0  0  0  0  0  0  0  0  0  0  0
    6.5580   -4.3720   23.8270 C   0  0  0  0  0  0  0  0  0  0  0  0
    5.7120   -5.4340   24.2770 N   0  0  0  0  0  0  0  0  0  0  0  0
    4.8520   -6.0020   23.1820 C   0  0  0  0  0  0  0  0  0  0  0  0
    5.6930   -6.2890   22.0950 C   0  0  0  0  0  0  0  0  0  0  0  0
    2.3440   -3.8170   25.9270 S   0  0  0  0  0  0  0  0  0  0  0  0
    4.0760   -3.7990   25.9170 C   0  0  0  0  0  0  0  0  0  0  0  0
    4.6060   -2.5140   25.9950 C   0  0  0  0  0  0  0  0  0  0  0  0
    3.6470   -1.5290   26.0690 C   0  0  0  0  0  0  0  0  0  0  0  0
    2.2500   -2.1210   26.0470 C   0  0  0  0  0  0  0  0  0  0  0  0
  1  4  1  0
  2  4  2  0
  5  7  2  0
  6  7  2  0
  4  8  1  0
  8  9  1  0
  9 10  1  0
  7 11  1  0
 10 11  1  0
 11 12  1  0
  8 13  1  0
 12 13  1  0
  7 15  1  0
 14 15  1  0
 15 16  2  0
 16 17  1  0
  3 18  1  0
 14 18  1  0
 17 18  2  0
M  END
