x1418-x0692
     RDKit          3D

 17 18  0  0  0  0  0  0  0  0999 V2000
   10.9070    2.3800   23.7770 C   0  0  0  0  0  0  0  0  0  0  0  0
    5.4300   -4.1530   19.7440 O   0  0  0  0  0  0  0  0  0  0  0  0
    9.5790   -2.7010   23.6440 C   0  0  0  0  0  0  0  0  0  0  0  0
    6.3030   -3.2500   19.8510 C   0  0  0  0  0  0  0  0  0  0  0  0
    7.2690   -2.9950   18.7590 C   0  0  0  0  0  0  0  0  0  0  0  0
   11.3270    0.9850   23.5560 C   0  0  0  0  0  0  0  0  0  0  0  0
   10.2590   -0.0920   23.7390 C   0  0  0  0  0  0  0  0  0  0  0  0
   10.5750   -1.5540   23.5140 C   0  0  0  0  0  0  0  0  0  0  0  0
   11.8930   -1.8100   23.1470 C   0  0  0  0  0  0  0  0  0  0  0  0
   12.8870   -0.8820   22.9770 C   0  0  0  0  0  0  0  0  0  0  0  0
   12.7350    0.4920   23.1440 C   0  0  0  0  0  0  0  0  0  0  0  0
    6.3780   -2.4880   21.0390 N   0  0  0  0  0  0  0  0  0  0  0  0
    7.3080   -1.3560   21.0900 C   0  0  0  0  0  0  0  0  0  0  0  0
    8.5250   -1.7120   21.7100 C   0  0  0  0  0  0  0  0  0  0  0  0
    8.2960   -2.3280   23.0370 N   0  0  0  0  0  0  0  0  0  0  0  0
    7.3880   -3.4670   22.9340 C   0  0  0  0  0  0  0  0  0  0  0  0
    6.0990   -3.1730   22.2910 C   0  0  0  0  0  0  0  0  0  0  0  0
  2  4  2  0
  4  5  1  0
  1  6  1  0
  6  7  2  0
  3  8  1  0
  7  8  1  0
  8  9  2  0
  9 10  1  0
  6 11  1  0
 10 11  2  0
  4 12  1  0
 12 13  1  0
 13 14  1  0
  3 15  1  0
 14 15  1  0
 15 16  1  0
 12 17  1  0
 16 17  1  0
M  END
