x1412-x2964
     RDKit          3D

 34 38  0  0  0  0  0  0  0  0999 V2000
    7.3690   -2.9480   18.8610 C   0  0  0  0  0  0  0  0  0  0  0  0
    5.4170   -4.0020   19.7050 O   0  0  0  0  0  0  0  0  0  0  0  0
    6.4380   -3.2910   19.9690 C   0  0  0  0  0  0  0  0  0  0  0  0
    8.2280   -1.3920   25.5990 O   0  0  0  0  0  0  0  0  0  0  0  0
    8.4280   -2.6500   24.9310 C   0  0  0  0  0  0  0  0  0  0  0  0
    3.3070    1.9640   19.6810 N   0  0  0  0  0  0  0  0  0  0  0  0
    8.5020    1.1970   21.0440 O   0  0  0  0  0  0  0  0  0  0  0  0
   13.3570   -1.9450   21.3240 Cl  0  0  0  0  0  0  0  0  0  0  0  0
    7.4490   -0.7980   20.6860 N   0  0  0  0  0  0  0  0  0  0  0  0
    8.7740   -0.5880   22.4120 N   0  0  0  0  0  0  0  0  0  0  0  0
    8.2280   -0.1670   21.4470 C   0  0  0  0  0  0  0  0  0  0  0  0
    6.7450   -2.9130   21.3080 N   0  0  0  0  0  0  0  0  0  0  0  0
    7.0470   -1.6370   21.7590 C   0  0  1  0  0  0  0  0  0  0  0  0
    7.8740   -1.4890   22.9750 C   0  0  1  0  0  0  0  0  0  0  0  0
    8.4480   -2.7040   23.5390 N   0  0  0  0  0  0  0  0  0  0  0  0
    8.0620   -3.8490   22.9760 C   0  0  0  0  0  0  0  0  0  0  0  0
    6.8900   -3.8310   22.2360 C   0  0  0  0  0  0  0  0  0  0  0  0
    9.4250   -4.9780   25.3640 C   0  0  0  0  0  0  0  0  0  0  0  0
    8.6220   -3.8920   25.7010 C   0  0  0  0  0  0  0  0  0  0  0  0
    7.8120   -4.0990   27.2090 S   0  0  0  0  0  0  0  0  0  0  0  0
    8.5010   -5.6320   27.4760 C   0  0  0  0  0  0  0  0  0  0  0  0
    9.3490   -6.0230   26.4410 C   0  0  0  0  0  0  0  0  0  0  0  0
    4.5930    1.3300   19.2450 C   0  0  0  0  0  0  0  0  0  0  0  0
    5.2750    0.5850   20.3290 C   0  0  0  0  0  0  0  0  0  0  0  0
    6.5320   -0.0210   19.8790 C   0  0  0  0  0  0  0  0  0  0  0  0
    6.9070    0.1860   18.4710 C   0  0  0  0  0  0  0  0  0  0  0  0
    6.2530    0.8680   17.5380 N   0  0  0  0  0  0  0  0  0  0  0  0
    5.1100    1.4290   17.9490 C   0  0  0  0  0  0  0  0  0  0  0  0
   10.6400    0.6750   23.5180 C   0  0  0  0  0  0  0  0  0  0  0  0
   11.9730    0.8420   23.6620 C   0  0  0  0  0  0  0  0  0  0  0  0
   12.8930    0.0600   23.0120 C   0  0  0  0  0  0  0  0  0  0  0  0
   12.3660   -0.9220   22.2020 C   0  0  0  0  0  0  0  0  0  0  0  0
   11.0250   -1.1730   21.9980 C   0  0  0  0  0  0  0  0  0  0  0  0
   10.1740   -0.3380   22.6740 C   0  0  0  0  0  0  0  0  0  0  0  0
  1  3  1  0
  2  3  2  0
  4  5  2  0
  7 11  2  0
  9 11  1  0
 10 11  1  0
  3 12  1  0
 13  9  1  6
 12 13  1  0
 14 10  1  6
 13 14  1  0
  5 15  1  0
 14 15  1  0
 15 16  1  0
 12 17  1  0
 16 17  1  0
  5 19  1  0
 18 19  2  0
 19 20  1  0
 20 21  1  0
 18 22  1  0
 21 22  2  0
  6 23  1  0
 23 24  2  0
  9 25  1  0
 24 25  1  0
 25 26  2  0
 26 27  1  0
 23 28  1  0
 27 28  2  0
 29 30  2  0
 30 31  1  0
  8 32  1  0
 31 32  2  0
 32 33  1  0
 10 34  1  0
 29 34  1  0
 33 34  2  0
M  END
