x1418-x1187
     RDKit          3D

 15 16  0  0  0  0  0  0  0  0999 V2000
    7.7950   -0.8080   -5.1590 C   0  0  0  0  0  0  0  0  0  0  0  0
    4.3810   -1.7760   -8.6140 C   0  0  0  0  0  0  0  0  0  0  0  0
    4.0990   -0.6890   -8.9950 O   0  0  0  0  0  0  0  0  0  0  0  0
    3.9900   -2.9070   -9.3030 N   0  0  0  0  0  0  0  0  0  0  0  0
    3.1020   -2.7850  -10.4650 C   0  0  0  0  0  0  0  0  0  0  0  0
    6.7370   -1.4780   -5.8500 N   0  0  0  0  0  0  0  0  0  0  0  0
    6.1290   -2.6180   -5.4620 C   0  0  0  0  0  0  0  0  0  0  0  0
    5.1000   -2.9700   -6.4510 C   0  0  0  0  0  0  0  0  0  0  0  0
    5.1720   -1.9530   -7.4080 C   0  0  0  0  0  0  0  0  0  0  0  0
    6.2430   -0.9820   -7.0100 N   0  0  0  0  0  0  0  0  0  0  0  0
    3.3280   -2.3700  -13.0830 C   0  0  0  0  0  0  0  0  0  0  0  0
    3.8060   -2.5430  -11.8230 C   0  0  2  0  0  0  0  0  0  0  0  0
    3.4580   -3.9410  -12.0230 O   0  0  0  0  0  0  0  0  0  0  0  0
    3.9620   -4.4000  -13.2820 C   0  0  0  0  0  0  0  0  0  0  0  0
    4.1640   -3.2630  -13.9560 C   0  0  0  0  0  0  0  0  0  0  0  0
  2  3  2  0
  2  4  1  0
  4  5  1  0
  1  6  1  0
  6  7  1  0
  7  8  2  0
  2  9  1  0
  8  9  1  0
  6 10  1  0
  9 10  2  0
 12  5  1  1
 11 12  1  0
 12 13  1  0
 13 14  1  0
 11 15  1  0
 14 15  1  0
M  END
