x1418-x0991
     RDKit          3D

 19 21  0  0  0  0  0  0  0  0999 V2000
    7.3730   -3.0110   18.7610 C   0  0  0  0  0  0  0  0  0  0  0  0
    5.3950   -4.0140   19.6710 O   0  0  0  0  0  0  0  0  0  0  0  0
    6.4140   -3.2940   19.8510 C   0  0  0  0  0  0  0  0  0  0  0  0
    9.4980   -2.2910   24.1330 C   0  0  2  0  0  0  0  0  0  0  0  0
    9.5980   -5.9660   24.6840 N   0  0  0  0  0  0  0  0  0  0  0  0
    9.0350   -3.6420   23.7710 C   0  0  1  0  0  0  0  0  0  0  0  0
    8.7420   -4.1010   26.0650 N   0  0  0  0  0  0  0  0  0  0  0  0
    9.1540   -4.6760   24.8600 C   0  0  0  0  0  0  0  0  0  0  0  0
    6.7280   -2.7800   21.1070 N   0  0  0  0  0  0  0  0  0  0  0  0
    7.0580   -3.8060   22.1220 C   0  0  0  0  0  0  0  0  0  0  0  0
    7.6840   -3.2560   23.3950 C   0  0  2  0  0  0  0  0  0  0  0  0
    8.3110   -1.8790   23.2890 N   0  0  0  0  0  0  0  0  0  0  0  0
    8.6330   -1.6360   21.9250 C   0  0  0  0  0  0  0  0  0  0  0  0
    7.4530   -1.5070   21.2340 C   0  0  0  0  0  0  0  0  0  0  0  0
   11.6990   -1.8130   22.7920 C   0  0  0  0  0  0  0  0  0  0  0  0
   10.7440   -1.5590   23.7160 C   0  0  0  0  0  0  0  0  0  0  0  0
   11.1360   -0.0880   24.4780 S   0  0  0  0  0  0  0  0  0  0  0  0
   12.3990    0.1990   23.6930 C   0  0  0  0  0  0  0  0  0  0  0  0
   12.6960   -0.7890   22.7520 C   0  0  0  0  0  0  0  0  0  0  0  0
  1  3  1  0
  2  3  2  0
  4  6  1  0
  5  8  2  3
  6  8  1  1
  7  8  1  0
  3  9  1  0
  9 10  1  0
  6 11  1  0
 11 10  1  6
  4 12  1  0
 11 12  1  0
 12 13  1  0
  9 14  1  0
 13 14  1  0
  4 16  1  6
 15 16  2  0
 16 17  1  0
 17 18  1  0
 15 19  1  0
 18 19  2  0
M  END
