x1412-x2569
     RDKit          3D

 34 37  0  0  0  0  0  0  0  0999 V2000
    7.3000   -3.0290   18.9020 C   0  0  0  0  0  0  0  0  0  0  0  0
    5.3310   -4.1170   19.7030 O   0  0  0  0  0  0  0  0  0  0  0  0
    6.3690   -3.4700   19.9850 C   0  0  0  0  0  0  0  0  0  0  0  0
    8.1720   -1.3740   25.3210 O   0  0  0  0  0  0  0  0  0  0  0  0
    8.3660   -2.6150   24.8370 C   0  0  0  0  0  0  0  0  0  0  0  0
    8.1040    0.3350   21.7670 C   0  0  0  0  0  0  0  0  0  0  0  0
    8.8880    1.1370   21.2160 O   0  0  0  0  0  0  0  0  0  0  0  0
    8.6450   -0.5980   22.7960 C   0  0  1  0  0  0  0  0  0  0  0  0
   13.7290   -2.5000   20.6450 N   0  0  0  0  0  0  0  0  0  0  0  0
    6.7100    0.2950   21.4730 N   0  0  0  0  0  0  0  0  0  0  0  0
   13.1380   -1.6350   21.5630 C   0  0  0  0  0  0  0  0  0  0  0  0
    6.6730   -3.2280   21.3010 N   0  0  0  0  0  0  0  0  0  0  0  0
    7.2040   -1.9120   21.6350 C   0  0  0  0  0  0  0  0  0  0  0  0
    8.4020   -1.9200   22.3650 C   0  0  2  0  0  0  0  0  0  0  0  0
    8.4140   -2.9660   23.4190 N   0  0  0  0  0  0  0  0  0  0  0  0
    7.7350   -4.2480   23.1440 C   0  0  0  0  0  0  0  0  0  0  0  0
    6.6070   -4.1740   22.3700 C   0  0  0  0  0  0  0  0  0  0  0  0
    9.3560   -4.9500   25.4190 C   0  0  0  0  0  0  0  0  0  0  0  0
    8.5620   -3.8250   25.6890 C   0  0  0  0  0  0  0  0  0  0  0  0
    7.7630   -3.9750   27.2330 S   0  0  0  0  0  0  0  0  0  0  0  0
    8.4670   -5.4920   27.5180 C   0  0  0  0  0  0  0  0  0  0  0  0
    9.3430   -5.9420   26.4350 C   0  0  0  0  0  0  0  0  0  0  0  0
   11.9750    0.8670   24.0740 N   0  0  0  0  0  0  0  0  0  0  0  0
   12.8000    0.1410   23.3150 C   0  0  0  0  0  0  0  0  0  0  0  0
   12.3400   -0.8040   22.4200 C   0  0  0  0  0  0  0  0  0  0  0  0
   11.0130   -1.0360   22.2630 C   0  0  0  0  0  0  0  0  0  0  0  0
   10.1550   -0.2990   23.0250 C   0  0  0  0  0  0  0  0  0  0  0  0
   10.6630    0.6170   23.9000 C   0  0  0  0  0  0  0  0  0  0  0  0
    6.3940    0.6060   17.8220 N   0  0  0  0  0  0  0  0  0  0  0  0
    6.8340    0.2760   19.0510 C   0  0  0  0  0  0  0  0  0  0  0  0
    6.2110    0.6470   20.2200 C   0  0  0  0  0  0  0  0  0  0  0  0
    5.0510    1.3950   20.1600 C   0  0  0  0  0  0  0  0  0  0  0  0
    4.5690    1.7480   18.9150 C   0  0  0  0  0  0  0  0  0  0  0  0
    5.2700    1.3390   17.7910 C   0  0  0  0  0  0  0  0  0  0  0  0
  1  3  1  0
  2  3  2  0
  4  5  2  0
  6  7  2  0
  8  6  1  6
  6 10  1  0
  9 11  3  0
  3 12  1  0
 12 13  1  0
  8 14  1  0
 14 13  1  1
  5 15  1  0
 14 15  1  0
 15 16  1  0
 12 17  1  0
 16 17  1  0
  5 19  1  0
 18 19  2  0
 19 20  1  0
 20 21  1  0
 18 22  1  0
 21 22  2  0
 23 24  2  0
 11 25  1  0
 24 25  1  0
 25 26  2  0
  8 27  1  0
 26 27  1  0
 23 28  1  0
 27 28  2  0
 29 30  2  0
 10 31  1  0
 30 31  1  0
 31 32  2  0
 32 33  1  0
 29 34  1  0
 33 34  2  0
M  END
