x1418-x0830
     RDKit          3D

 20 22  0  0  0  0  0  0  0  0999 V2000
    7.6900   -3.6620   19.6320 C   0  0  0  0  0  0  0  0  0  0  0  0
    5.4850   -3.1800   19.1350 O   0  0  0  0  0  0  0  0  0  0  0  0
    6.4890   -2.9200   19.8730 C   0  0  0  0  0  0  0  0  0  0  0  0
    9.7850   -2.4540   23.6710 C   0  0  0  0  0  0  0  0  0  0  0  0
    6.5290   -2.0250   20.9610 N   0  0  0  0  0  0  0  0  0  0  0  0
    6.3690   -2.5480   22.3460 C   0  0  0  0  0  0  0  0  0  0  0  0
    7.6240   -3.2050   22.8490 C   0  0  0  0  0  0  0  0  0  0  0  0
    8.5600   -2.0940   22.9270 N   0  0  0  0  0  0  0  0  0  0  0  0
    8.8990   -1.4640   21.6420 C   0  0  0  0  0  0  0  0  0  0  0  0
    7.6590   -0.9910   20.8790 C   0  0  0  0  0  0  0  0  0  0  0  0
   12.0860   -1.9600   22.7400 C   0  0  0  0  0  0  0  0  0  0  0  0
   13.0830   -1.0850   22.4570 C   0  0  0  0  0  0  0  0  0  0  0  0
   12.9670    0.2470   22.7670 C   0  0  0  0  0  0  0  0  0  0  0  0
   11.8600    0.7060   23.3560 C   0  0  0  0  0  0  0  0  0  0  0  0
   10.7970   -0.1550   23.6910 C   0  0  0  0  0  0  0  0  0  0  0  0
   10.9160   -1.5020   23.3670 C   0  0  0  0  0  0  0  0  0  0  0  0
   11.7450    2.0600   23.6360 C   0  0  0  0  0  0  0  0  0  0  0  0
   10.5330    2.5610   24.2780 C   0  0  0  0  0  0  0  0  0  0  0  0
    9.5120    1.6820   24.6200 C   0  0  0  0  0  0  0  0  0  0  0  0
    9.6540    0.3350   24.3220 C   0  0  0  0  0  0  0  0  0  0  0  0
  1  3  1  0
  2  3  2  0
  3  5  1  0
  5  6  1  0
  6  7  1  0
  4  8  1  0
  7  8  1  0
  8  9  1  0
  5 10  1  0
  9 10  1  0
 11 12  2  0
 12 13  1  0
 13 14  2  0
 14 15  1  0
  4 16  1  0
 11 16  1  0
 15 16  2  0
 14 17  1  0
 17 18  2  0
 18 19  1  0
 15 20  1  0
 19 20  2  0
M  END
