x1412-x2119
     RDKit          3D

 16 17  0  0  0  0  0  0  0  0999 V2000
    7.3380   -3.0090   18.8160 C   0  0  0  0  0  0  0  0  0  0  0  0
    5.4030   -4.0750   19.7070 O   0  0  0  0  0  0  0  0  0  0  0  0
    6.3890   -3.3680   19.9440 C   0  0  0  0  0  0  0  0  0  0  0  0
    8.4730   -1.5510   25.1480 O   0  0  0  0  0  0  0  0  0  0  0  0
    8.4810   -2.7120   24.7320 C   0  0  0  0  0  0  0  0  0  0  0  0
    6.6700   -2.9500   21.2340 N   0  0  0  0  0  0  0  0  0  0  0  0
    7.5880   -1.8060   21.4420 C   0  0  0  0  0  0  0  0  0  0  0  0
    8.6950   -2.1090   22.2540 C   0  0  0  0  0  0  0  0  0  0  0  0
    8.3610   -3.0040   23.3760 N   0  0  0  0  0  0  0  0  0  0  0  0
    7.5870   -4.1790   23.0240 C   0  0  0  0  0  0  0  0  0  0  0  0
    6.4110   -3.8190   22.3850 C   0  0  0  0  0  0  0  0  0  0  0  0
    9.3810   -4.9710   25.4060 C   0  0  0  0  0  0  0  0  0  0  0  0
    8.6100   -3.8470   25.6340 C   0  0  0  0  0  0  0  0  0  0  0  0
    7.7950   -3.9310   27.1420 S   0  0  0  0  0  0  0  0  0  0  0  0
    8.4750   -5.4610   27.4920 C   0  0  0  0  0  0  0  0  0  0  0  0
    9.3080   -5.9030   26.4730 C   0  0  0  0  0  0  0  0  0  0  0  0
  1  3  1  0
  2  3  2  0
  4  5  2  0
  3  6  1  0
  6  7  1  0
  7  8  1  0
  5  9  1  0
  8  9  1  0
  9 10  1  0
  6 11  1  0
 10 11  1  0
  5 13  1  0
 12 13  2  0
 13 14  1  0
 14 15  1  0
 12 16  1  0
 15 16  2  0
M  END
