x1412-x2563
     RDKit          3D

 37 43  0  0  0  0  0  0  0  0999 V2000
    7.1300   -3.1480   19.0860 C   0  0  0  0  0  0  0  0  0  0  0  0
    5.2840   -4.5180   19.8500 O   0  0  0  0  0  0  0  0  0  0  0  0
    6.0820   -3.6020   20.1120 C   0  0  0  0  0  0  0  0  0  0  0  0
    8.2220   -1.4310   25.5650 O   0  0  0  0  0  0  0  0  0  0  0  0
    8.2340   -2.6440   24.7910 C   0  0  0  0  0  0  0  0  0  0  0  0
    8.1740   -0.0970   21.0650 C   0  0  0  0  0  0  0  0  0  0  0  0
    8.4780    1.0950   20.8540 O   0  0  0  0  0  0  0  0  0  0  0  0
    7.1160   -0.8980   20.4260 C   0  0  1  0  0  0  0  0  0  0  0  0
    8.8240   -0.9080   22.0450 N   0  0  0  0  0  0  0  0  0  0  0  0
    7.7560   -1.7810   19.4510 C   0  0  0  0  0  0  0  0  0  0  0  0
    6.0370   -2.9710   21.3530 N   0  0  0  0  0  0  0  0  0  0  0  0
    6.9820   -2.0220   21.4650 C   0  0  2  0  0  0  0  0  0  0  0  0
    7.6790   -1.6050   22.5600 C   0  0  1  0  0  0  0  0  0  0  0  0
    8.0200   -2.7880   23.3640 N   0  0  0  0  0  0  0  0  0  0  0  0
    7.5390   -3.9910   22.9470 C   0  0  0  0  0  0  0  0  0  0  0  0
    6.2240   -3.9070   22.4660 C   0  0  0  0  0  0  0  0  0  0  0  0
    9.3520   -4.9820   25.3880 C   0  0  0  0  0  0  0  0  0  0  0  0
    8.5170   -3.8510   25.6440 C   0  0  0  0  0  0  0  0  0  0  0  0
    7.8020   -4.0380   27.1720 S   0  0  0  0  0  0  0  0  0  0  0  0
    8.5120   -5.5600   27.6010 C   0  0  0  0  0  0  0  0  0  0  0  0
    9.3900   -6.0500   26.5360 C   0  0  0  0  0  0  0  0  0  0  0  0
    5.8590    1.0490   17.4860 N   0  0  0  0  0  0  0  0  0  0  0  0
    4.8660    1.7270   18.0100 C   0  0  0  0  0  0  0  0  0  0  0  0
    4.4480    1.6210   19.4320 C   0  0  0  0  0  0  0  0  0  0  0  0
    5.1470    0.7660   20.2720 C   0  0  0  0  0  0  0  0  0  0  0  0
    6.1920    0.0600   19.7160 C   0  0  0  0  0  0  0  0  0  0  0  0
    6.5570    0.1620   18.4120 C   0  0  0  0  0  0  0  0  0  0  0  0
    3.3060    2.4010   20.0220 C   0  0  0  0  0  0  0  0  0  0  0  0
    2.9880    2.2610   21.3450 C   0  0  0  0  0  0  0  0  0  0  0  0
    3.7100    1.4030   22.1660 C   0  0  0  0  0  0  0  0  0  0  0  0
    4.7540    0.6870   21.6100 C   0  0  0  0  0  0  0  0  0  0  0  0
   11.1560   -0.5760   22.4240 C   0  0  0  0  0  0  0  0  0  0  0  0
   12.1760    0.0010   23.1330 C   0  0  0  0  0  0  0  0  0  0  0  0
   11.8490    0.7910   24.1950 C   0  0  0  0  0  0  0  0  0  0  0  0
   10.5340    1.0180   24.5740 C   0  0  0  0  0  0  0  0  0  0  0  0
    9.3820    0.4670   23.9050 C   0  0  0  0  0  0  0  0  0  0  0  0
    9.8170   -0.3670   22.7620 C   0  0  0  0  0  0  0  0  0  0  0  0
  1  3  1  0
  2  3  2  0
  4  5  2  0
  6  7  2  0
  6  8  1  0
  6  9  1  0
  1 10  1  0
  8 10  1  0
  3 11  1  0
  8 12  1  0
 12 11  1  1
 13  9  1  6
 12 13  1  0
  5 14  1  0
 13 14  1  0
 14 15  1  0
 11 16  1  0
 15 16  1  0
  5 18  1  0
 17 18  2  0
 18 19  1  0
 19 20  1  0
 17 21  1  0
 20 21  2  0
 22 23  2  0
 23 24  1  0
 24 25  2  0
  8 26  1  6
 25 26  1  0
 22 27  1  0
 26 27  2  0
 24 28  1  0
 28 29  2  0
 29 30  1  0
 25 31  1  0
 30 31  2  0
 32 33  2  0
 33 34  1  0
 34 35  2  0
 35 36  1  0
  9 37  1  0
 32 37  1  0
 36 37  2  0
M  END
