x1412-x2908
     RDKit          3D

 34 38  0  0  0  0  0  0  0  0999 V2000
    7.2820   -2.9990   18.9590 C   0  0  0  0  0  0  0  0  0  0  0  0
    5.3030   -4.1110   19.6950 O   0  0  0  0  0  0  0  0  0  0  0  0
    6.2610   -3.3580   19.9940 C   0  0  0  0  0  0  0  0  0  0  0  0
    8.2120   -1.4380   25.2240 O   0  0  0  0  0  0  0  0  0  0  0  0
    8.3490   -2.6990   24.7610 C   0  0  0  0  0  0  0  0  0  0  0  0
    4.6240    0.7720   21.5430 C   0  0  0  0  0  0  0  0  0  0  0  0
    8.7860    1.2830   21.2160 O   0  0  0  0  0  0  0  0  0  0  0  0
   13.3510   -1.9710   21.2610 Cl  0  0  0  0  0  0  0  0  0  0  0  0
    7.2720   -0.5810   20.8920 N   0  0  0  0  0  0  0  0  0  0  0  0
    8.8290   -0.6190   22.5710 N   0  0  0  0  0  0  0  0  0  0  0  0
    8.3320    0.1580   21.5250 C   0  0  0  0  0  0  0  0  0  0  0  0
    6.3440   -2.9290   21.3050 N   0  0  0  0  0  0  0  0  0  0  0  0
    7.0650   -1.7670   21.7440 C   0  0  1  0  0  0  0  0  0  0  0  0
    8.4250   -1.9910   22.2890 C   0  0  2  0  0  0  0  0  0  0  0  0
    8.3530   -3.0070   23.3270 N   0  0  0  0  0  0  0  0  0  0  0  0
    7.5850   -4.1890   22.8770 C   0  0  0  0  0  0  0  0  0  0  0  0
    6.3000   -3.8510   22.4560 C   0  0  0  0  0  0  0  0  0  0  0  0
    9.3150   -4.8770   25.3580 C   0  0  0  0  0  0  0  0  0  0  0  0
    8.5060   -3.8050   25.6610 C   0  0  0  0  0  0  0  0  0  0  0  0
    7.7340   -3.9500   27.2070 S   0  0  0  0  0  0  0  0  0  0  0  0
    8.5700   -5.4990   27.3730 C   0  0  0  0  0  0  0  0  0  0  0  0
    9.3620   -5.8290   26.3010 C   0  0  0  0  0  0  0  0  0  0  0  0
    6.3460    0.6480   17.5860 N   0  0  0  0  0  0  0  0  0  0  0  0
    6.9030    0.0820   18.6350 C   0  0  0  0  0  0  0  0  0  0  0  0
    6.3920    0.0920   19.9640 C   0  0  0  0  0  0  0  0  0  0  0  0
    5.1830    0.7350   20.2220 C   0  0  0  0  0  0  0  0  0  0  0  0
    4.5270    1.3650   19.1450 C   0  0  0  0  0  0  0  0  0  0  0  0
    5.0880    1.3400   17.8420 C   0  0  0  0  0  0  0  0  0  0  0  0
   10.6390    0.5240   23.6950 C   0  0  0  0  0  0  0  0  0  0  0  0
   11.9860    0.6870   23.8390 C   0  0  0  0  0  0  0  0  0  0  0  0
   12.8670   -0.0610   23.1150 C   0  0  0  0  0  0  0  0  0  0  0  0
   12.3920   -1.0020   22.2240 C   0  0  0  0  0  0  0  0  0  0  0  0
   11.0570   -1.1770   22.0740 C   0  0  0  0  0  0  0  0  0  0  0  0
   10.1690   -0.4210   22.7930 C   0  0  0  0  0  0  0  0  0  0  0  0
  1  3  1  0
  2  3  2  0
  4  5  2  0
  7 11  2  0
  9 11  1  0
 10 11  1  0
  3 12  1  0
 13  9  1  6
 12 13  1  0
 14 10  1  1
 13 14  1  0
  5 15  1  0
 14 15  1  0
 15 16  1  0
 12 17  1  0
 16 17  1  0
  5 19  1  0
 18 19  2  0
 19 20  1  0
 20 21  1  0
 18 22  1  0
 21 22  2  0
 23 24  2  0
  9 25  1  0
 24 25  1  0
  6 26  1  0
 25 26  2  0
 26 27  1  0
 23 28  1  0
 27 28  2  0
 29 30  2  0
 30 31  1  0
  8 32  1  0
 31 32  2  0
 32 33  1  0
 10 34  1  0
 29 34  1  0
 33 34  2  0
M  END
