x1412-x0736
     RDKit          3D

 21 23  0  0  0  0  0  0  0  0999 V2000
    7.3750   -3.0030   18.8120 C   0  0  0  0  0  0  0  0  0  0  0  0
    5.4310   -4.0680   19.7010 O   0  0  0  0  0  0  0  0  0  0  0  0
    6.4490   -3.3530   19.9220 C   0  0  0  0  0  0  0  0  0  0  0  0
    7.8070   -2.7840   24.9000 C   0  0  2  0  0  0  0  0  0  0  0  0
    6.3920   -2.5750   24.9960 O   0  0  0  0  0  0  0  0  0  0  0  0
    6.7340   -2.9400   21.2420 N   0  0  0  0  0  0  0  0  0  0  0  0
    7.6690   -1.7850   21.4330 C   0  0  0  0  0  0  0  0  0  0  0  0
    8.3150   -1.7720   22.7910 C   0  0  0  0  0  0  0  0  0  0  0  0
    8.3220   -2.9020   23.5890 N   0  0  0  0  0  0  0  0  0  0  0  0
    7.9740   -4.0720   23.0890 C   0  0  0  0  0  0  0  0  0  0  0  0
    6.6980   -3.9430   22.2910 C   0  0  0  0  0  0  0  0  0  0  0  0
    9.1850   -4.9310   25.3860 C   0  0  0  0  0  0  0  0  0  0  0  0
    8.2720   -3.9450   25.7480 C   0  0  0  0  0  0  0  0  0  0  0  0
    7.6660   -4.1590   27.3390 S   0  0  0  0  0  0  0  0  0  0  0  0
    8.6670   -5.5940   27.4810 C   0  0  0  0  0  0  0  0  0  0  0  0
    9.4130   -5.9060   26.4130 C   0  0  0  0  0  0  0  0  0  0  0  0
    8.4870   -0.3640   25.0620 O   0  0  0  0  0  0  0  0  0  0  0  0
    8.2930   -1.5920   25.6950 C   0  0  0  0  0  0  0  0  0  0  0  0
    8.6100   -1.4360   27.0490 C   0  0  0  0  0  0  0  0  0  0  0  0
    9.0340   -0.1110   27.3750 C   0  0  0  0  0  0  0  0  0  0  0  0
    8.9340    0.5250   26.0990 C   0  0  0  0  0  0  0  0  0  0  0  0
  1  3  1  0
  2  3  2  0
  4  5  1  6
  3  6  1  0
  6  7  1  0
  7  8  1  0
  4  9  1  0
  8  9  1  0
  9 10  1  0
  6 11  1  0
 10 11  1  0
  4 13  1  0
 12 13  2  0
 13 14  1  0
 14 15  1  0
 12 16  1  0
 15 16  2  0
  4 18  1  0
 17 18  1  0
 18 19  2  0
 19 20  1  0
 17 21  1  0
 20 21  2  0
M  END
