x1418-x1086
     RDKit          3D

 13 13  0  0  0  0  0  0  0  0999 V2000
    5.7840    3.4760   -7.3240 N   0  0  0  0  0  0  0  0  0  0  0  0
    4.0590   -1.4170   -9.3590 C   0  0  0  0  0  0  0  0  0  0  0  0
    4.4060    2.2220   -5.9810 O   0  0  0  0  0  0  0  0  0  0  0  0
    6.7340    1.5180   -5.9260 O   0  0  0  0  0  0  0  0  0  0  0  0
    5.3330    1.1030   -8.0160 C   0  0  0  0  0  0  0  0  0  0  0  0
    7.9440   -3.9470   -8.0970 F   0  0  0  0  0  0  0  0  0  0  0  0
    5.5900    1.9760   -6.6670 S   0  0  0  0  0  0  0  0  0  0  0  0
    5.3830   -1.4670   -8.6680 C   0  0  0  0  0  0  0  0  0  0  0  0
    5.9920   -0.2490   -7.9980 C   0  0  0  0  0  0  0  0  0  0  0  0
    7.2980   -0.3650   -7.3050 C   0  0  0  0  0  0  0  0  0  0  0  0
    7.8850   -1.6290   -7.3540 C   0  0  0  0  0  0  0  0  0  0  0  0
    7.2840   -2.8110   -8.0600 C   0  0  0  0  0  0  0  0  0  0  0  0
    6.1210   -2.7980   -8.6730 C   0  0  0  0  0  0  0  0  0  0  0  0
  7  1  1  0
  3  7  2  0
  4  7  2  0
  5  7  1  0
  2  8  1  0
  5  9  1  0
  8  9  2  0
  9 10  1  0
 10 11  2  0
  6 12  1  0
 11 12  1  0
  8 13  1  0
 12 13  2  0
M  END
