x1418-x1386
     RDKit          3D

 15 16  0  0  0  0  0  0  0  0999 V2000
    7.3580   -2.9930   18.7360 C   0  0  0  0  0  0  0  0  0  0  0  0
    5.4990   -4.1070   19.7470 O   0  0  0  0  0  0  0  0  0  0  0  0
    6.4320   -3.2600   19.8650 C   0  0  0  0  0  0  0  0  0  0  0  0
   10.0930   -2.7260   23.3880 C   0  0  0  0  0  0  0  0  0  0  0  0
    6.6250   -2.5540   21.0790 N   0  0  0  0  0  0  0  0  0  0  0  0
    6.5790   -3.1720   22.4200 C   0  0  0  0  0  0  0  0  0  0  0  0
    7.9460   -3.5990   22.8520 C   0  0  0  0  0  0  0  0  0  0  0  0
    8.7280   -2.3610   22.9490 N   0  0  0  0  0  0  0  0  0  0  0  0
    8.8500   -1.5930   21.6960 C   0  0  0  0  0  0  0  0  0  0  0  0
    7.5150   -1.3100   21.0280 C   0  0  0  0  0  0  0  0  0  0  0  0
   12.4210   -1.6200   22.9530 C   0  0  0  0  0  0  0  0  0  0  0  0
   11.0820   -1.6020   23.2430 C   0  0  0  0  0  0  0  0  0  0  0  0
   10.5990    0.0300   23.4460 S   0  0  0  0  0  0  0  0  0  0  0  0
   12.0230    0.6090   23.1780 C   0  0  0  0  0  0  0  0  0  0  0  0
   12.9530   -0.3130   22.9190 C   0  0  0  0  0  0  0  0  0  0  0  0
  1  3  1  0
  2  3  2  0
  3  5  1  0
  5  6  1  0
  6  7  1  0
  4  8  1  0
  7  8  1  0
  8  9  1  0
  5 10  1  0
  9 10  1  0
  4 12  1  0
 11 12  2  0
 12 13  1  0
 13 14  1  0
 11 15  1  0
 14 15  2  0
M  END
