x1418-x0426
     RDKit          3D

 36 40  0  0  0  0  0  0  0  0999 V2000
    2.1780    1.6010   24.0740 C   0  0  0  0  0  0  0  0  0  0  0  0
    1.9270    0.2100   24.2310 O   0  0  0  0  0  0  0  0  0  0  0  0
    3.3790    2.0590   23.3200 N   0  0  0  0  0  0  0  0  0  0  0  0
    3.8530    1.1780   22.2300 C   0  0  1  0  0  0  0  0  0  0  0  0
    3.8710    1.8830   20.8940 C   0  0  0  0  0  0  0  0  0  0  0  0
    2.8530    4.1600   25.1810 F   0  0  0  0  0  0  0  0  0  0  0  0
    7.2760   -2.9790   18.8360 C   0  0  0  0  0  0  0  0  0  0  0  0
    5.3480   -4.0580   19.7390 O   0  0  0  0  0  0  0  0  0  0  0  0
    6.3460   -3.3130   19.9480 C   0  0  0  0  0  0  0  0  0  0  0  0
   10.2070   -2.6770   23.4940 C   0  0  0  0  0  0  0  0  0  0  0  0
    5.2180    0.5120   22.5060 C   0  0  0  0  0  0  0  0  0  0  0  0
    5.3630   -0.7080   21.8130 C   0  0  0  0  0  0  0  0  0  0  0  0
    6.4100   -1.5470   22.0980 C   0  0  1  0  0  0  0  0  0  0  0  0
    1.5750    3.7530   25.1870 C   0  0  0  0  0  0  0  0  0  0  0  0
    1.2040    2.5560   24.6730 C   0  0  0  0  0  0  0  0  0  0  0  0
   -0.1270    2.1050   24.6660 C   0  0  0  0  0  0  0  0  0  0  0  0
   -1.1150    2.9220   25.2150 C   0  0  0  0  0  0  0  0  0  0  0  0
   -0.8030    4.2430   25.8000 C   0  0  0  0  0  0  0  0  0  0  0  0
    0.6200    4.6000   25.7450 C   0  0  0  0  0  0  0  0  0  0  0  0
    5.8430    0.4610   20.0970 C   0  0  0  0  0  0  0  0  0  0  0  0
    6.6380    0.0970   19.0210 C   0  0  0  0  0  0  0  0  0  0  0  0
    6.4960    0.5610   17.7840 N   0  0  0  0  0  0  0  0  0  0  0  0
    5.4600    1.4700   17.6290 C   0  0  0  0  0  0  0  0  0  0  0  0
    4.6370    1.8770   18.6100 C   0  0  0  0  0  0  0  0  0  0  0  0
    4.8100    1.3810   19.8730 C   0  0  0  0  0  0  0  0  0  0  0  0
    6.7620   -2.8090   21.3270 C   0  0  1  0  0  0  0  0  0  0  0  0
    7.2480   -3.8320   22.0930 C   0  0  0  0  0  0  0  0  0  0  0  0
    7.8290   -3.4510   23.3060 C   0  0  0  0  0  0  0  0  0  0  0  0
    8.8270   -2.3550   23.1220 N   0  0  0  0  0  0  0  0  0  0  0  0
    8.9190   -1.7450   21.7850 C   0  0  0  0  0  0  0  0  0  0  0  0
    7.6490   -1.5770   21.2460 C   0  0  2  0  0  0  0  0  0  0  0  0
   12.2630   -1.3420   22.6660 C   0  0  0  0  0  0  0  0  0  0  0  0
   11.1110   -1.5000   23.4520 C   0  0  0  0  0  0  0  0  0  0  0  0
   10.7590   -0.1450   24.4470 S   0  0  0  0  0  0  0  0  0  0  0  0
   12.1110    0.7010   23.8590 C   0  0  0  0  0  0  0  0  0  0  0  0
   12.8960   -0.0940   22.8490 C   0  0  0  0  0  0  0  0  0  0  0  0
  1  2  2  0
  1  3  1  0
  3  4  1  0
  4  5  1  6
  7  9  1  0
  8  9  2  0
  4 11  1  0
 11 12  1  0
 13 12  1  6
  6 14  1  0
  1 15  1  0
 14 15  2  0
 15 16  1  0
 16 17  2  0
 17 18  1  0
 14 19  1  0
 18 19  2  0
 20 21  2  0
 21 22  1  0
 22 23  2  0
 23 24  1  0
  5 25  1  0
 20 25  1  0
 24 25  2  0
 26  9  1  6
 13 26  1  0
 26 27  1  0
 27 28  1  0
 10 29  1  0
 28 29  1  0
 29 30  1  0
 13 31  1  0
 26 31  1  0
 31 30  1  1
 10 33  1  0
 32 33  2  0
 33 34  1  0
 34 35  1  0
 32 36  1  0
 35 36  2  0
M  END
