x1412-x0759
     RDKit          3D

 23 25  0  0  0  0  0  0  0  0999 V2000
    7.4160   -3.0060   18.8280 C   0  0  0  0  0  0  0  0  0  0  0  0
    5.4330   -3.9890   19.6660 O   0  0  0  0  0  0  0  0  0  0  0  0
    6.4830   -3.3370   19.9200 C   0  0  0  0  0  0  0  0  0  0  0  0
    7.9630   -1.5060   25.5810 O   0  0  0  0  0  0  0  0  0  0  0  0
    7.9960   -2.8130   24.9840 C   0  0  0  0  0  0  0  0  0  0  0  0
   13.1010    1.0720   23.3780 F   0  0  0  0  0  0  0  0  0  0  0  0
    6.7820   -3.0370   21.2670 N   0  0  0  0  0  0  0  0  0  0  0  0
    7.9160   -2.0860   21.6280 C   0  0  0  0  0  0  0  0  0  0  0  0
    8.6350   -2.4600   22.9050 C   0  0  2  0  0  0  0  0  0  0  0  0
    7.7020   -3.0600   23.6420 N   0  0  0  0  0  0  0  0  0  0  0  0
    7.2870   -4.2710   23.4030 C   0  0  0  0  0  0  0  0  0  0  0  0
    6.3910   -4.0800   22.2160 C   0  0  0  0  0  0  0  0  0  0  0  0
    9.2410   -5.0110   25.4530 C   0  0  0  0  0  0  0  0  0  0  0  0
    8.3910   -3.9770   25.8330 C   0  0  0  0  0  0  0  0  0  0  0  0
    7.7810   -4.1300   27.4390 S   0  0  0  0  0  0  0  0  0  0  0  0
    8.7060   -5.6130   27.5590 C   0  0  0  0  0  0  0  0  0  0  0  0
    9.4140   -5.9730   26.4900 C   0  0  0  0  0  0  0  0  0  0  0  0
    9.7760   -0.5320   23.7940 C   0  0  0  0  0  0  0  0  0  0  0  0
   10.8560    0.3080   23.9110 C   0  0  0  0  0  0  0  0  0  0  0  0
   12.1280    0.2110   23.1980 C   0  0  0  0  0  0  0  0  0  0  0  0
   12.2360   -0.9170   22.2640 C   0  0  0  0  0  0  0  0  0  0  0  0
   11.0100   -1.7970   22.1810 C   0  0  0  0  0  0  0  0  0  0  0  0
    9.8490   -1.6130   22.9090 C   0  0  0  0  0  0  0  0  0  0  0  0
  1  3  1  0
  2  3  2  0
  4  5  2  0
  3  7  1  0
  7  8  1  0
  8  9  1  0
  5 10  1  0
  9 10  1  0
 10 11  1  0
  7 12  1  0
 11 12  1  0
  5 14  1  0
 13 14  2  0
 14 15  1  0
 15 16  1  0
 13 17  1  0
 16 17  2  0
 18 19  2  0
  6 20  1  0
 19 20  1  0
 20 21  2  0
 21 22  1  0
  9 23  1  1
 18 23  1  0
 22 23  2  0
M  END
