x1412-x0946
     RDKit          3D

 31 34  0  0  0  0  0  0  0  0999 V2000
    7.0880   -3.0020   18.8990 C   0  0  0  0  0  0  0  0  0  0  0  0
    5.2180   -4.2310   19.7190 O   0  0  0  0  0  0  0  0  0  0  0  0
    6.1520   -3.4550   19.9750 C   0  0  0  0  0  0  0  0  0  0  0  0
    7.8030   -1.3500   24.8610 O   0  0  0  0  0  0  0  0  0  0  0  0
    8.3020   -2.6430   24.5660 C   0  0  2  0  0  0  0  0  0  0  0  0
    9.2030    5.4190   22.8890 N   0  0  0  0  0  0  0  0  0  0  0  0
   10.0440    5.3970   25.1250 O   0  0  0  0  0  0  0  0  0  0  0  0
   11.4570    6.3420   23.2390 O   0  0  0  0  0  0  0  0  0  0  0  0
   13.2580   -0.4370   22.6200 Se  0  0  0  0  0  2  0  0  0  0  0  0
   10.4640    5.3220   23.7490 S   0  0  0  0  0  0  0  0  0  0  0  0
    9.5820   -2.7350   23.8180 C   0  0  2  0  0  0  0  0  0  0  0  0
   10.3610   -1.4910   23.7040 C   0  0  0  0  0  0  0  0  0  0  0  0
   11.6450   -1.7790   24.4720 C   0  0  0  0  0  0  0  0  0  0  0  0
   12.6390   -2.0510   23.3900 C   0  0  0  0  0  0  0  0  0  0  0  0
    6.3600   -3.0330   21.2770 N   0  0  0  0  0  0  0  0  0  0  0  0
    7.0720   -1.8010   21.5450 C   0  0  0  0  0  0  0  0  0  0  0  0
    8.3070   -2.0720   22.0650 C   0  0  0  0  0  0  0  0  0  0  0  0
    8.2900   -2.9770   23.1320 C   0  0  0  0  0  0  0  0  0  0  0  0
    7.6590   -4.1340   22.8440 C   0  0  0  0  0  0  0  0  0  0  0  0
    6.3810   -3.9130   22.3410 C   0  0  0  0  0  0  0  0  0  0  0  0
    9.4920   -4.7080   25.6530 C   0  0  0  0  0  0  0  0  0  0  0  0
    8.3840   -3.6960   25.6750 C   0  0  0  0  0  0  0  0  0  0  0  0
    7.3300   -3.9230   27.0360 S   0  0  0  0  0  0  0  0  0  0  0  0
    8.3460   -5.2790   27.4960 C   0  0  0  0  0  0  0  0  0  0  0  0
    9.4950   -5.5590   26.6000 C   0  0  0  0  0  0  0  0  0  0  0  0
   12.2830    1.1510   23.0490 C   0  0  0  0  0  0  0  0  0  0  0  0
   12.9270    2.3580   22.7810 C   0  0  0  0  0  0  0  0  0  0  0  0
   12.3590    3.5640   23.0010 C   0  0  0  0  0  0  0  0  0  0  0  0
   11.1020    3.7090   23.5190 C   0  0  0  0  0  0  0  0  0  0  0  0
   10.4290    2.5230   23.8170 C   0  0  0  0  0  0  0  0  0  0  0  0
   11.0260    1.2710   23.5780 C   0  0  0  0  0  0  0  0  0  0  0  0
  1  3  1  0
  2  3  2  0
  5  4  1  1
 10  6  1  0
  7 10  2  0
  8 10  2  0
  5 11  1  0
 11 12  1  6
 12 13  1  0
  9 14  1  0
 13 14  1  0
  3 15  1  0
 15 16  1  0
 16 17  1  0
  5 18  1  0
 11 18  1  0
 18 17  1  0
 18 19  1  0
 15 20  1  0
 19 20  1  0
  5 22  1  0
 21 22  2  0
 22 23  1  0
 23 24  1  0
 21 25  1  0
 24 25  2  0
  9 26  1  0
 26 27  2  0
 27 28  1  0
 10 29  1  0
 28 29  2  0
 29 30  1  0
 26 31  1  0
 30 31  2  0
M  END
