x1418-x1093
     RDKit          3D

 27 31  0  0  0  0  0  0  0  0999 V2000
    7.2760   -2.9800   18.8320 C   0  0  0  0  0  0  0  0  0  0  0  0
    5.4610   -4.1570   19.8020 O   0  0  0  0  0  0  0  0  0  0  0  0
    6.3420   -3.2530   19.9580 C   0  0  0  0  0  0  0  0  0  0  0  0
    9.5050   -2.3240   23.7450 C   0  0  0  0  0  0  0  0  0  0  0  0
   13.5820   -2.1780   23.9300 C   0  0  0  0  0  0  0  0  0  0  0  0
    7.3870    0.5550   22.4060 O   0  0  0  0  0  0  0  0  0  0  0  0
    8.0210   -0.4310   22.0520 C   0  0  0  0  0  0  0  0  0  0  0  0
    6.4850   -2.4980   21.1880 N   0  0  0  0  0  0  0  0  0  0  0  0
    6.4200   -3.0510   22.5050 C   0  0  0  0  0  0  0  0  0  0  0  0
    7.7600   -3.6340   22.8320 C   0  0  0  0  0  0  0  0  0  0  0  0
    8.8610   -2.7110   22.4900 N   0  0  0  0  0  0  0  0  0  0  0  0
    8.6140   -1.5830   21.5580 C   0  0  1  0  0  0  0  0  0  0  0  0
    7.3430   -1.3030   21.0890 C   0  0  2  0  0  0  0  0  0  0  0  0
   11.9110   -1.7500   23.7250 C   0  0  0  0  0  0  0  0  0  0  0  0
   10.6620   -1.4140   23.5770 C   0  0  0  0  0  0  0  0  0  0  0  0
   10.6480    0.1810   23.1880 S   0  0  0  0  0  0  0  0  0  0  0  0
   12.1630    0.2820   23.2440 C   0  0  0  0  0  0  0  0  0  0  0  0
   13.0140   -0.8370   23.5660 C   0  0  0  0  0  0  0  0  0  0  0  0
    6.5300    0.5690   17.9180 N   0  0  0  0  0  0  0  0  0  0  0  0
    7.3320   -0.3750   18.5600 C   0  0  0  0  0  0  0  0  0  0  0  0
    6.8670   -0.4400   19.9210 C   0  0  0  0  0  0  0  0  0  0  0  0
    5.8320    0.4290   20.0620 C   0  0  0  0  0  0  0  0  0  0  0  0
    5.6600    1.0170   18.8280 C   0  0  0  0  0  0  0  0  0  0  0  0
    4.7370    1.9390   18.5190 N   0  0  0  0  0  0  0  0  0  0  0  0
    3.9580    2.2490   19.5640 C   0  0  0  0  0  0  0  0  0  0  0  0
    4.0380    1.7380   20.8200 C   0  0  0  0  0  0  0  0  0  0  0  0
    4.9960    0.7980   21.1110 C   0  0  0  0  0  0  0  0  0  0  0  0
  1  3  1  0
  2  3  2  0
  6  7  2  0
  3  8  1  0
  8  9  1  0
  9 10  1  0
  4 11  1  0
 10 11  1  0
 12  7  1  1
 11 12  1  0
  7 13  1  0
  8 13  1  0
 12 13  1  0
  4 15  1  0
 14 15  2  0
 15 16  1  0
 16 17  1  0
  5 18  1  0
 14 18  1  0
 17 18  2  0
 19 20  1  0
 13 21  1  6
 20 21  2  0
 21 22  1  0
 19 23  1  0
 22 23  2  0
 23 24  1  0
 24 25  2  0
 25 26  1  0
 22 27  1  0
 26 27  2  0
M  END
