x1418-x3298
     RDKit          3D

 38 42  0  0  0  0  0  0  0  0999 V2000
    7.1010    1.9390   22.4050 N   0  0  0  0  0  0  0  0  0  0  0  0
    7.1680   -0.0780   21.1630 C   0  0  2  0  0  0  0  0  0  0  0  0
    6.6470   -0.7610   22.2850 O   0  0  0  0  0  0  0  0  0  0  0  0
    7.8530    0.9800   21.5530 C   0  0  0  0  0  0  0  0  0  0  0  0
    9.0460    1.2850   23.6230 N   0  0  0  0  0  0  0  0  0  0  0  0
    8.9910    1.1810   21.1510 O   0  0  0  0  0  0  0  0  0  0  0  0
   11.0570    1.9520   24.6750 O   0  0  0  0  0  0  0  0  0  0  0  0
    9.8600   -0.1390   25.7070 O   0  0  0  0  0  0  0  0  0  0  0  0
   13.7510   -1.7310   20.8680 F   0  0  0  0  0  0  0  0  0  0  0  0
   10.3290    0.7520   24.5700 S   0  0  0  0  0  0  0  0  0  0  0  0
    7.2670   -2.8990   18.7390 C   0  0  0  0  0  0  0  0  0  0  0  0
    5.4140   -4.0470   19.6950 O   0  0  0  0  0  0  0  0  0  0  0  0
    6.3450   -3.2070   19.8580 C   0  0  0  0  0  0  0  0  0  0  0  0
    9.7130   -2.9850   23.7010 C   0  0  0  0  0  0  0  0  0  0  0  0
    6.2250    0.6590   17.4750 N   0  0  0  0  0  0  0  0  0  0  0  0
    6.9160    0.1560   18.6380 C   0  0  0  0  0  0  0  0  0  0  0  0
    6.4080    0.3910   20.0260 C   0  0  0  0  0  0  0  0  0  0  0  0
    5.2250    1.0990   20.0770 C   0  0  0  0  0  0  0  0  0  0  0  0
    4.5920    1.5580   18.9810 C   0  0  0  0  0  0  0  0  0  0  0  0
    5.1160    1.3330   17.7350 C   0  0  0  0  0  0  0  0  0  0  0  0
    7.5790    4.4100   22.4820 C   0  0  0  0  0  0  0  0  0  0  0  0
    8.4680    5.4380   22.8730 C   0  0  0  0  0  0  0  0  0  0  0  0
    9.6420    5.0620   23.5350 C   0  0  0  0  0  0  0  0  0  0  0  0
    9.9570    3.6550   23.8340 C   0  0  0  0  0  0  0  0  0  0  0  0
    8.9480    2.6870   23.4020 C   0  0  0  0  0  0  0  0  0  0  0  0
    7.8400    3.0710   22.7500 C   0  0  0  0  0  0  0  0  0  0  0  0
   12.4880    0.5590   23.3070 C   0  0  0  0  0  0  0  0  0  0  0  0
   13.2910   -0.0560   22.4100 C   0  0  0  0  0  0  0  0  0  0  0  0
   12.9360   -1.1940   21.7520 C   0  0  0  0  0  0  0  0  0  0  0  0
   11.7310   -1.8020   21.9650 C   0  0  0  0  0  0  0  0  0  0  0  0
   10.9060   -1.1940   22.8680 C   0  0  0  0  0  0  0  0  0  0  0  0
   11.3060   -0.0420   23.4980 C   0  0  0  0  0  0  0  0  0  0  0  0
    6.5130   -2.6130   21.1290 N   0  0  0  0  0  0  0  0  0  0  0  0
    6.3290   -3.3990   22.3320 C   0  0  0  0  0  0  0  0  0  0  0  0
    7.5320   -3.7530   22.9620 C   0  0  0  0  0  0  0  0  0  0  0  0
    8.4430   -2.6020   23.1000 N   0  0  0  0  0  0  0  0  0  0  0  0
    8.6280   -1.9540   21.9300 C   0  0  0  0  0  0  0  0  0  0  0  0
    7.4000   -1.6050   21.3880 C   0  0  1  0  0  0  0  0  0  0  0  0
  2  3  1  0
  1  4  1  0
  2  4  1  1
  4  6  2  0
 10  5  1  0
  7 10  2  0
  8 10  2  0
 11 13  1  0
 12 13  2  0
 15 16  2  0
  2 17  1  0
 16 17  1  0
 17 18  2  0
 18 19  1  0
 15 20  1  0
 19 20  2  0
 21 22  2  0
 22 23  1  0
 23 24  2  0
  5 25  1  0
 24 25  1  0
  1 26  1  0
 21 26  1  0
 25 26  2  0
 27 28  2  0
  9 29  1  0
 28 29  1  0
 29 30  2  0
 30 31  1  0
 10 32  1  0
 27 32  1  0
 31 32  2  0
 13 33  1  0
 33 34  1  0
 34 35  1  0
 14 36  1  0
 35 36  1  0
 36 37  1  0
  2 38  1  0
 38  3  1  0
 33 38  1  0
 38 37  1  1
M  END
