x1425-x2119
     RDKit          3D

 17 18  0  0  0  0  0  0  0  0999 V2000
    1.3240   -2.4050   28.1510 C   0  0  0  0  0  0  0  0  0  0  0  0
    2.7320   -2.2550   28.2420 O   0  0  0  0  0  0  0  0  0  0  0  0
    5.1590   -4.4710   19.8300 O   0  0  0  0  0  0  0  0  0  0  0  0
    6.2810   -4.0590   20.1790 C   0  0  0  0  0  0  0  0  0  0  0  0
    7.1260   -3.2750   19.2590 C   0  0  0  0  0  0  0  0  0  0  0  0
    3.3960   -2.5980   27.2680 C   0  0  0  0  0  0  0  0  0  0  0  0
    4.7780   -2.0770   27.1440 C   0  0  0  0  0  0  0  0  0  0  0  0
    5.6070   -2.5000   25.9330 C   0  0  0  0  0  0  0  0  0  0  0  0
    4.9790   -3.4320   24.9140 C   0  0  0  0  0  0  0  0  0  0  0  0
    3.6620   -3.8300   25.1800 C   0  0  0  0  0  0  0  0  0  0  0  0
    2.9170   -3.4480   26.2730 C   0  0  0  0  0  0  0  0  0  0  0  0
    6.7690   -4.4090   21.4520 N   0  0  0  0  0  0  0  0  0  0  0  0
    7.3700   -3.3660   22.2690 C   0  0  0  0  0  0  0  0  0  0  0  0
    6.4200   -2.8090   23.0410 C   0  0  0  0  0  0  0  0  0  0  0  0
    5.6800   -3.8480   23.8050 N   0  0  0  0  0  0  0  0  0  0  0  0
    5.4350   -5.1050   23.2340 C   0  0  0  0  0  0  0  0  0  0  0  0
    6.2830   -5.5650   22.2370 C   0  0  0  0  0  0  0  0  0  0  0  0
  1  2  1  0
  3  4  2  0
  4  5  1  0
  2  6  1  0
  6  7  2  0
  7  8  1  0
  8  9  2  0
  9 10  1  0
  6 11  1  0
 10 11  2  0
  4 12  1  0
 12 13  1  0
 13 14  1  0
  9 15  1  0
 14 15  1  0
 15 16  1  0
 12 17  1  0
 16 17  1  0
M  END
