x1425-x3298
     RDKit          3D

 46 51  0  0  0  0  0  0  0  0999 V2000
    7.5010    1.8780   22.5630 N   0  0  0  0  0  0  0  0  0  0  0  0
    7.4310   -0.2050   21.2870 C   0  0  2  0  0  0  0  0  0  0  0  0
    6.6020   -0.7120   22.3140 O   0  0  0  0  0  0  0  0  0  0  0  0
    8.1170    1.1100   21.5890 C   0  0  0  0  0  0  0  0  0  0  0  0
    8.7360    1.3530   24.8070 N   0  0  0  0  0  0  0  0  0  0  0  0
    9.1060    1.4850   21.0100 O   0  0  0  0  0  0  0  0  0  0  0  0
   10.4440    0.0000   26.4590 O   0  0  0  0  0  0  0  0  0  0  0  0
    8.9400   -1.1580   25.0880 O   0  0  0  0  0  0  0  0  0  0  0  0
   13.7120   -1.4380   20.9570 F   0  0  0  0  0  0  0  0  0  0  0  0
    9.8500    0.0260   25.1270 S   0  0  0  0  0  0  0  0  0  0  0  0
    1.2070   -2.3800   28.2240 C   0  0  0  0  0  0  0  0  0  0  0  0
    2.6010   -2.1630   28.3690 O   0  0  0  0  0  0  0  0  0  0  0  0
    5.1910   -4.6140   19.8740 O   0  0  0  0  0  0  0  0  0  0  0  0
    6.2910   -4.1170   20.1650 C   0  0  0  0  0  0  0  0  0  0  0  0
    7.0680   -3.2730   19.2380 C   0  0  0  0  0  0  0  0  0  0  0  0
    6.1900   -2.0880   22.2210 C   0  0  1  0  0  0  0  0  0  0  0  0
    6.2540    0.2680   17.7160 N   0  0  0  0  0  0  0  0  0  0  0  0
    6.9480   -0.0980   18.7880 C   0  0  0  0  0  0  0  0  0  0  0  0
    6.5680    0.2040   20.0610 C   0  0  0  0  0  0  0  0  0  0  0  0
    5.4210    0.8970   20.2790 C   0  0  0  0  0  0  0  0  0  0  0  0
    4.6570    1.2980   19.1880 C   0  0  0  0  0  0  0  0  0  0  0  0
    5.1250    0.9620   17.9540 C   0  0  0  0  0  0  0  0  0  0  0  0
    8.2980    4.2480   22.4970 C   0  0  0  0  0  0  0  0  0  0  0  0
    9.0400    5.2770   23.0440 C   0  0  0  0  0  0  0  0  0  0  0  0
    9.7930    5.0560   24.2850 C   0  0  0  0  0  0  0  0  0  0  0  0
    9.6570    3.6940   24.8350 C   0  0  0  0  0  0  0  0  0  0  0  0
    8.9000    2.6960   24.2550 C   0  0  0  0  0  0  0  0  0  0  0  0
    8.2320    2.9960   23.0820 C   0  0  0  0  0  0  0  0  0  0  0  0
   12.2110    0.4360   23.6760 C   0  0  0  0  0  0  0  0  0  0  0  0
   13.1010    0.0660   22.7020 C   0  0  0  0  0  0  0  0  0  0  0  0
   12.8700   -1.0650   21.9150 C   0  0  0  0  0  0  0  0  0  0  0  0
   11.7380   -1.8060   22.1250 C   0  0  0  0  0  0  0  0  0  0  0  0
   10.8350   -1.4490   23.1030 C   0  0  0  0  0  0  0  0  0  0  0  0
   11.0670   -0.3240   23.8860 C   0  0  0  0  0  0  0  0  0  0  0  0
    3.3990   -2.5560   27.3390 C   0  0  0  0  0  0  0  0  0  0  0  0
    4.7190   -2.1540   27.1240 C   0  0  0  0  0  0  0  0  0  0  0  0
    5.4650   -2.6060   26.0470 C   0  0  0  0  0  0  0  0  0  0  0  0
    4.9520   -3.4930   25.1030 C   0  0  0  0  0  0  0  0  0  0  0  0
    3.6420   -3.9410   25.2430 C   0  0  0  0  0  0  0  0  0  0  0  0
    2.8220   -3.4480   26.4240 C   0  0  0  0  0  0  0  0  0  0  0  0
    6.8880   -4.3660   21.3820 N   0  0  0  0  0  0  0  0  0  0  0  0
    7.2420   -3.1650   22.0830 C   0  0  2  0  0  0  0  0  0  0  0  0
    6.5980   -2.8910   23.4300 C   0  0  2  0  0  0  0  0  0  0  0  0
    5.7230   -3.9200   24.0420 N   0  0  0  0  0  0  0  0  0  0  0  0
    5.3180   -5.0430   23.1720 C   0  0  0  0  0  0  0  0  0  0  0  0
    6.4560   -5.4680   22.2410 C   0  0  0  0  0  0  0  0  0  0  0  0
  2  3  1  1
  1  4  1  0
  2  4  1  0
  4  6  2  0
 10  5  1  0
  7 10  2  0
  8 10  2  0
 11 12  1  0
 13 14  2  0
 14 15  1  0
 16  3  1  1
 17 18  2  0
  2 19  1  0
 18 19  1  0
 19 20  2  0
 20 21  1  0
 17 22  1  0
 21 22  2  0
 23 24  2  0
 24 25  1  0
 25 26  2  0
  5 27  1  0
 26 27  1  0
  1 28  1  0
 23 28  1  0
 27 28  2  0
 29 30  2  0
  9 31  1  0
 30 31  1  0
 31 32  2  0
 32 33  1  0
 10 34  1  0
 29 34  1  0
 33 34  2  0
 12 35  1  0
 35 36  2  0
 36 37  1  0
 37 38  2  0
 38 39  1  0
 35 40  1  0
 39 40  2  0
 14 41  1  0
 16 42  1  0
 42 41  1  6
 16 43  1  0
 42 43  1  0
 38 44  1  0
 43 44  1  6
 44 45  1  0
 41 46  1  0
 45 46  1  0
M  END
