x1425-x2649
     RDKit          3D

 37 40  0  0  0  0  0  0  0  0999 V2000
    7.3320   -0.7710   20.6510 N   0  0  0  0  0  0  0  0  0  0  0  0
    7.8890   -0.5720   24.0090 C   0  0  0  0  0  0  0  0  0  0  0  0
    8.5830    0.9090   21.3120 O   0  0  0  0  0  0  0  0  0  0  0  0
   13.2390   -2.3330   21.1530 Cl  0  0  0  0  0  0  0  0  0  0  0  0
    8.5940   -1.0340   22.7330 C   0  0  1  0  0  0  0  0  0  0  0  0
    8.1520   -0.2370   21.4980 C   0  0  0  0  0  0  0  0  0  0  0  0
    5.0440    0.9370   21.6460 C   0  0  0  0  0  0  0  0  0  0  0  0
    1.3730   -2.2810   28.4150 C   0  0  0  0  0  0  0  0  0  0  0  0
    2.7660   -2.0240   28.2840 O   0  0  0  0  0  0  0  0  0  0  0  0
    5.2150   -4.9090   19.9420 O   0  0  0  0  0  0  0  0  0  0  0  0
    6.2260   -4.3570   20.3850 C   0  0  0  0  0  0  0  0  0  0  0  0
    6.9390   -3.2920   19.6780 C   0  0  0  0  0  0  0  0  0  0  0  0
    7.0600   -2.2050   20.8040 C   0  0  0  0  0  0  0  0  0  0  0  0
    6.1650    0.6950   17.5450 N   0  0  0  0  0  0  0  0  0  0  0  0
    5.1510    1.4630   17.9710 C   0  0  0  0  0  0  0  0  0  0  0  0
    4.7740    1.5460   19.3050 C   0  0  0  0  0  0  0  0  0  0  0  0
    5.4710    0.8200   20.2150 C   0  0  0  0  0  0  0  0  0  0  0  0
    6.5430    0.0060   19.8120 C   0  0  0  0  0  0  0  0  0  0  0  0
    6.8070    0.0080   18.4900 C   0  0  0  0  0  0  0  0  0  0  0  0
   10.5840    0.1190   23.7620 C   0  0  0  0  0  0  0  0  0  0  0  0
   12.0330    0.3310   23.8690 C   0  0  0  0  0  0  0  0  0  0  0  0
   12.8470   -0.4300   23.0610 C   0  0  0  0  0  0  0  0  0  0  0  0
   12.3280   -1.3630   22.1810 C   0  0  0  0  0  0  0  0  0  0  0  0
   10.9670   -1.5090   22.1310 C   0  0  0  0  0  0  0  0  0  0  0  0
   10.0710   -0.8290   22.8580 C   0  0  0  0  0  0  0  0  0  0  0  0
    3.3790   -2.5650   27.1930 C   0  0  0  0  0  0  0  0  0  0  0  0
    4.6870   -2.1720   26.9820 C   0  0  0  0  0  0  0  0  0  0  0  0
    5.4270   -2.6470   25.9150 C   0  0  0  0  0  0  0  0  0  0  0  0
    4.8610   -3.5450   25.0180 C   0  0  0  0  0  0  0  0  0  0  0  0
    3.5350   -3.9570   25.2050 C   0  0  0  0  0  0  0  0  0  0  0  0
    2.8060   -3.4620   26.2940 C   0  0  0  0  0  0  0  0  0  0  0  0
    6.7820   -4.7700   21.6040 N   0  0  0  0  0  0  0  0  0  0  0  0
    7.4620   -3.8890   22.5510 C   0  0  0  0  0  0  0  0  0  0  0  0
    6.5590   -3.1600   23.3030 C   0  0  0  0  0  0  0  0  0  0  0  0
    5.5720   -4.0350   23.9530 N   0  0  0  0  0  0  0  0  0  0  0  0
    5.1580   -5.3230   23.3360 C   0  0  0  0  0  0  0  0  0  0  0  0
    6.1500   -5.8730   22.3190 C   0  0  0  0  0  0  0  0  0  0  0  0
  5  2  1  1
  1  6  1  0
  3  6  2  0
  5  6  1  0
  8  9  1  0
 10 11  2  0
 11 12  1  0
  1 13  1  0
 12 13  1  0
 14 15  2  0
 15 16  1  0
  7 17  1  0
 16 17  2  0
  1 18  1  0
 17 18  1  0
 14 19  1  0
 18 19  2  0
 20 21  2  0
 21 22  1  0
  4 23  1  0
 22 23  2  0
 23 24  1  0
  5 25  1  0
 20 25  1  0
 24 25  2  0
  9 26  1  0
 26 27  2  0
 27 28  1  0
 28 29  2  0
 29 30  1  0
 26 31  1  0
 30 31  2  0
 11 32  1  0
 32 33  1  0
 33 34  1  0
 29 35  1  0
 34 35  1  0
 35 36  1  0
 32 37  1  0
 36 37  1  0
M  END
