x1425-x2912
     RDKit          3D

 39 42  0  0  0  0  0  0  0  0999 V2000
    7.1590   -0.2990   21.1260 N   0  0  0  0  0  0  0  0  0  0  0  0
    8.0660   -0.0640   24.2210 C   0  0  0  0  0  0  0  0  0  0  0  0
    8.7230    1.2990   21.2590 O   0  0  0  0  0  0  0  0  0  0  0  0
    8.7010   -0.5140   22.9010 C   0  0  1  0  0  0  0  0  0  0  0  0
    8.1770    0.2470   21.6820 C   0  0  0  0  0  0  0  0  0  0  0  0
   13.5630   -3.1650   20.6740 N   0  0  0  0  0  0  0  0  0  0  0  0
    4.7800    1.3900   21.6630 C   0  0  0  0  0  0  0  0  0  0  0  0
   13.0100   -2.1750   21.4490 C   0  0  0  0  0  0  0  0  0  0  0  0
    1.3600   -2.3180   28.3540 C   0  0  0  0  0  0  0  0  0  0  0  0
    2.7670   -2.1300   28.2930 O   0  0  0  0  0  0  0  0  0  0  0  0
    5.1650   -4.7060   19.9040 O   0  0  0  0  0  0  0  0  0  0  0  0
    6.2580   -4.2160   20.2190 C   0  0  0  0  0  0  0  0  0  0  0  0
    6.9740   -3.3740   19.2410 C   0  0  0  0  0  0  0  0  0  0  0  0
    7.4870   -1.6060   20.7660 C   0  0  0  0  0  0  0  0  0  0  0  0
    7.0290   -1.8980   19.5130 C   0  0  0  0  0  0  0  0  0  0  0  0
    6.2490    0.7860   17.6480 N   0  0  0  0  0  0  0  0  0  0  0  0
    5.1710    1.5470   17.9190 C   0  0  0  0  0  0  0  0  0  0  0  0
    4.6450    1.7820   19.2040 C   0  0  0  0  0  0  0  0  0  0  0  0
    5.2950    1.1810   20.2760 C   0  0  0  0  0  0  0  0  0  0  0  0
    6.4680    0.3510   20.0510 C   0  0  0  0  0  0  0  0  0  0  0  0
    6.8790    0.2100   18.6730 C   0  0  0  0  0  0  0  0  0  0  0  0
   10.8520    0.5370   23.6920 C   0  0  0  0  0  0  0  0  0  0  0  0
   12.2260    0.6310   23.7220 C   0  0  0  0  0  0  0  0  0  0  0  0
   12.9510   -0.2820   22.9680 C   0  0  0  0  0  0  0  0  0  0  0  0
   12.3200   -1.2290   22.2310 C   0  0  0  0  0  0  0  0  0  0  0  0
   10.9560   -1.3110   22.2070 C   0  0  0  0  0  0  0  0  0  0  0  0
   10.1910   -0.4330   22.9320 C   0  0  0  0  0  0  0  0  0  0  0  0
    3.3900   -2.6040   27.1760 C   0  0  0  0  0  0  0  0  0  0  0  0
    4.6920   -2.1300   26.9820 C   0  0  0  0  0  0  0  0  0  0  0  0
    5.4480   -2.5380   25.8720 C   0  0  0  0  0  0  0  0  0  0  0  0
    4.8800   -3.4300   24.9540 C   0  0  0  0  0  0  0  0  0  0  0  0
    3.5870   -3.8870   25.1650 C   0  0  0  0  0  0  0  0  0  0  0  0
    2.8270   -3.4930   26.2590 C   0  0  0  0  0  0  0  0  0  0  0  0
    6.8680   -4.5620   21.4370 N   0  0  0  0  0  0  0  0  0  0  0  0
    7.4330   -3.5090   22.2780 C   0  0  0  0  0  0  0  0  0  0  0  0
    6.3300   -2.8490   23.0790 C   0  0  0  0  0  0  0  0  0  0  0  0
    5.5900   -3.8530   23.8540 N   0  0  0  0  0  0  0  0  0  0  0  0
    5.2010   -5.1210   23.1880 C   0  0  0  0  0  0  0  0  0  0  0  0
    6.2620   -5.6540   22.2090 C   0  0  0  0  0  0  0  0  0  0  0  0
  4  2  1  1
  1  5  1  0
  3  5  2  0
  4  5  1  0
  6  8  3  0
  9 10  1  0
 11 12  2  0
 12 13  1  0
  1 14  1  0
 13 15  1  0
 14 15  1  0
 16 17  2  0
 17 18  1  0
  7 19  1  0
 18 19  2  0
  1 20  1  0
 19 20  1  0
 16 21  1  0
 20 21  2  0
 22 23  2  0
 23 24  1  0
  8 25  1  0
 24 25  2  0
 25 26  1  0
  4 27  1  0
 22 27  1  0
 26 27  2  0
 10 28  1  0
 28 29  2  0
 29 30  1  0
 30 31  2  0
 31 32  1  0
 28 33  1  0
 32 33  2  0
 12 34  1  0
 34 35  1  0
 35 36  1  0
 31 37  1  0
 36 37  1  0
 37 38  1  0
 34 39  1  0
 38 39  1  0
M  END
