x1425-x0991
     RDKit          3D

 23 25  0  0  0  0  0  0  0  0999 V2000
    1.6070   -2.2650   28.5090 C   0  0  0  0  0  0  0  0  0  0  0  0
    3.0150   -2.2230   28.3010 O   0  0  0  0  0  0  0  0  0  0  0  0
    5.2050   -4.3960   19.8330 O   0  0  0  0  0  0  0  0  0  0  0  0
    6.3320   -4.0670   20.2600 C   0  0  0  0  0  0  0  0  0  0  0  0
    7.2260   -3.2530   19.4060 C   0  0  0  0  0  0  0  0  0  0  0  0
   10.3600   -5.2710   25.2740 N   0  0  0  0  0  0  0  0  0  0  0  0
    8.4850   -3.7660   23.0930 C   0  0  0  0  0  0  0  0  0  0  0  0
    8.3940   -5.0020   23.8850 C   0  0  1  0  0  0  0  0  0  0  0  0
    8.4600   -4.5680   26.3310 N   0  0  0  0  0  0  0  0  0  0  0  0
    9.1420   -4.9460   25.2210 C   0  0  0  0  0  0  0  0  0  0  0  0
    6.9030   -4.6250   23.8870 C   0  0  0  0  0  0  0  0  0  0  0  0
    3.4470   -2.6320   27.0720 C   0  0  0  0  0  0  0  0  0  0  0  0
    4.6580   -2.1150   26.7020 C   0  0  0  0  0  0  0  0  0  0  0  0
    5.1920   -2.4680   25.4560 C   0  0  0  0  0  0  0  0  0  0  0  0
    4.4800   -3.3220   24.6430 C   0  0  0  0  0  0  0  0  0  0  0  0
    3.2310   -3.8700   25.0070 C   0  0  0  0  0  0  0  0  0  0  0  0
    2.6680   -3.5460   26.2320 C   0  0  0  0  0  0  0  0  0  0  0  0
    6.7710   -4.5370   21.5230 N   0  0  0  0  0  0  0  0  0  0  0  0
    7.0780   -3.7670   22.5680 C   0  0  2  0  0  0  0  0  0  0  0  0
    6.0390   -2.8050   22.7580 C   0  0  0  0  0  0  0  0  0  0  0  0
    5.0160   -3.6680   23.3860 N   0  0  0  0  0  0  0  0  0  0  0  0
    4.8480   -5.0820   22.8930 C   0  0  0  0  0  0  0  0  0  0  0  0
    5.9050   -5.5820   22.0710 C   0  0  0  0  0  0  0  0  0  0  0  0
  1  2  1  0
  3  4  2  0
  4  5  1  0
  7  8  1  0
  6 10  2  3
  8 10  1  1
  9 10  1  0
  8 11  1  0
  2 12  1  0
 12 13  2  0
 13 14  1  0
 14 15  2  0
 15 16  1  0
 12 17  1  0
 16 17  2  0
  4 18  1  0
 19  7  1  6
 11 19  1  0
 19 18  1  0
 19 20  1  0
 15 21  1  0
 20 21  1  0
 21 22  1  0
 18 23  1  0
 22 23  1  0
M  END
