x1425-x0305
     RDKit          3D

 31 33  0  0  0  0  0  0  0  0999 V2000
    1.4110   -2.3430   28.3360 C   0  0  0  0  0  0  0  0  0  0  0  0
    2.8300   -2.3000   28.2600 O   0  0  0  0  0  0  0  0  0  0  0  0
    5.0890   -4.5420   19.8150 O   0  0  0  0  0  0  0  0  0  0  0  0
    6.1710   -4.0530   20.1470 C   0  0  0  0  0  0  0  0  0  0  0  0
    7.0050   -3.2550   19.2130 C   0  0  0  0  0  0  0  0  0  0  0  0
    8.4180    0.4670   27.4210 C   0  0  0  0  0  0  0  0  0  0  0  0
    8.7970    0.1130   26.0340 C   0  0  1  0  0  0  0  0  0  0  0  0
   10.1540   -0.4120   26.0460 N   0  0  0  0  0  0  0  0  0  0  0  0
   13.1880   -1.3210   21.5710 C   0  0  0  0  0  0  0  0  0  0  0  0
   13.9150   -1.4440   20.4520 N   0  0  0  0  0  0  0  0  0  0  0  0
    7.6810   -2.9690   24.3660 C   0  0  0  0  0  0  0  0  0  0  0  0
    8.3460   -1.7790   24.5750 C   0  0  0  0  0  0  0  0  0  0  0  0
    7.8100   -0.9160   25.4730 C   0  0  0  0  0  0  0  0  0  0  0  0
    3.3870   -2.7120   27.0780 C   0  0  0  0  0  0  0  0  0  0  0  0
    4.5870   -2.1610   26.8060 C   0  0  0  0  0  0  0  0  0  0  0  0
    5.3200   -2.4500   25.6450 C   0  0  0  0  0  0  0  0  0  0  0  0
    4.7870   -3.3510   24.7210 C   0  0  0  0  0  0  0  0  0  0  0  0
    3.4810   -4.0030   24.9350 C   0  0  0  0  0  0  0  0  0  0  0  0
    2.8090   -3.6200   26.1880 C   0  0  0  0  0  0  0  0  0  0  0  0
    6.6640   -4.2730   21.4230 N   0  0  0  0  0  0  0  0  0  0  0  0
    7.3010   -3.1520   22.0780 C   0  0  0  0  0  0  0  0  0  0  0  0
    6.6610   -2.8200   23.2450 C   0  0  1  0  0  0  0  0  0  0  0  0
    5.4770   -3.6770   23.5350 N   0  0  0  0  0  0  0  0  0  0  0  0
    5.5690   -5.1500   23.3230 C   0  0  0  0  0  0  0  0  0  0  0  0
    6.3770   -5.4500   22.2500 C   0  0  0  0  0  0  0  0  0  0  0  0
   10.9280   -0.6070   24.8950 C   0  0  0  0  0  0  0  0  0  0  0  0
   11.7880    0.3330   24.4550 N   0  0  0  0  0  0  0  0  0  0  0  0
   12.5180    0.0770   23.3660 C   0  0  0  0  0  0  0  0  0  0  0  0
   12.4100   -1.1110   22.6860 C   0  0  0  0  0  0  0  0  0  0  0  0
   11.5330   -2.0740   23.1100 C   0  0  0  0  0  0  0  0  0  0  0  0
   10.7780   -1.8220   24.2370 C   0  0  0  0  0  0  0  0  0  0  0  0
  1  2  1  0
  3  4  2  0
  4  5  1  0
  7  6  1  1
  7  8  1  0
  9 10  3  0
 11 12  1  0
  7 13  1  0
 12 13  1  0
  2 14  1  0
 14 15  2  0
 15 16  1  0
 16 17  2  0
 17 18  1  0
 14 19  1  0
 18 19  2  0
  4 20  1  0
 20 21  1  0
 22 11  1  1
 21 22  1  0
 17 23  1  0
 22 23  1  0
 23 24  1  0
 20 25  1  0
 24 25  1  0
  8 26  1  0
 26 27  2  0
 27 28  1  0
  9 29  1  0
 28 29  2  0
 29 30  1  0
 26 31  1  0
 30 31  2  0
M  END
