x1425-x0387
     RDKit          3D

 32 39  0  0  0  0  0  0  0  0999 V2000
    1.4860   -2.3570   28.2310 C   0  0  0  0  0  0  0  0  0  0  0  0
    2.8970   -2.1950   28.1620 O   0  0  0  0  0  0  0  0  0  0  0  0
    5.0910   -4.2410   19.7080 O   0  0  0  0  0  0  0  0  0  0  0  0
    6.2570   -3.9630   20.0340 C   0  0  0  0  0  0  0  0  0  0  0  0
    7.1670   -3.1980   19.1500 C   0  0  0  0  0  0  0  0  0  0  0  0
    9.1020   -5.6990   27.1910 O   0  0  0  0  0  0  0  0  0  0  0  0
    9.5780   -1.5970   23.8400 C   0  0  0  0  0  0  0  0  0  0  0  0
    7.3660   -4.2630   23.6420 C   0  0  1  0  0  0  0  0  0  0  0  0
    8.4360   -3.9290   24.6730 C   0  0  1  0  0  0  0  0  0  0  0  0
    3.5180   -2.6630   27.0390 C   0  0  0  0  0  0  0  0  0  0  0  0
    4.7840   -2.1250   26.7960 C   0  0  0  0  0  0  0  0  0  0  0  0
    5.5270   -2.5050   25.6990 C   0  0  0  0  0  0  0  0  0  0  0  0
    5.0170   -3.4490   24.8030 C   0  0  0  0  0  0  0  0  0  0  0  0
    3.7820   -3.9540   25.0650 C   0  0  0  0  0  0  0  0  0  0  0  0
    3.0040   -3.5810   26.1780 C   0  0  0  0  0  0  0  0  0  0  0  0
    6.7220   -4.4470   21.2630 N   0  0  0  0  0  0  0  0  0  0  0  0
    7.4540   -3.6350   22.2460 C   0  0  1  0  0  0  0  0  0  0  0  0
    6.5950   -3.0570   23.0360 C   0  0  1  0  0  0  0  0  0  0  0  0
    5.7060   -3.8970   23.6530 C   0  0  1  0  0  0  0  0  0  0  0  0
    5.0290   -4.8490   22.8880 C   0  0  0  0  0  0  0  0  0  0  0  0
    5.8660   -5.4440   21.9120 C   0  0  0  0  0  0  0  0  0  0  0  0
    9.3160   -4.4400   26.7540 C   0  0  2  0  0  0  0  0  0  0  0  0
    8.2600   -3.9500   26.0430 C   0  0  1  0  0  0  0  0  0  0  0  0
    8.4540   -2.7220   25.6930 C   0  0  1  0  0  0  0  0  0  0  0  0
    9.4840   -2.8110   24.7500 C   0  0  2  0  0  0  0  0  0  0  0  0
   10.6940   -3.3680   25.1430 C   0  0  0  0  0  0  0  0  0  0  0  0
   10.5320   -4.4490   26.0400 C   0  0  0  0  0  0  0  0  0  0  0  0
   11.7120   -0.1810   23.8150 C   0  0  0  0  0  0  0  0  0  0  0  0
   10.9650   -1.2650   23.3470 C   0  0  0  0  0  0  0  0  0  0  0  0
   11.6030   -2.0170   22.3810 C   0  0  0  0  0  0  0  0  0  0  0  0
   13.1460   -1.3840   22.0460 S   0  0  0  0  0  0  0  0  0  0  0  0
   12.9350   -0.1190   23.1830 C   0  0  0  0  0  0  0  0  0  0  0  0
  1  2  1  0
  3  4  2  0
  4  5  1  0
  8  9  1  0
  2 10  1  0
 10 11  2  0
 11 12  1  0
 12 13  2  0
 13 14  1  0
 10 15  1  0
 14 15  2  0
  4 16  1  0
  8 17  1  6
 17 16  1  6
  8 18  1  0
 18 17  1  6
  8 19  1  0
 19 13  1  1
 18 19  1  0
 19 20  1  0
 16 21  1  0
 20 21  1  0
 22  6  1  6
  9 23  1  0
 23 22  1  1
  9 24  1  0
 23 24  1  0
 25  7  1  6
  9 25  1  1
 24 25  1  1
 25 26  1  0
 22 27  1  0
 26 27  1  0
  7 29  1  0
 28 29  1  0
 29 30  2  0
 30 31  1  0
 28 32  2  0
 31 32  1  0
M  END
