x1425-x1380
     RDKit          3D

 24 28  0  0  0  0  0  0  0  0999 V2000
    1.4090   -2.4640   28.1520 C   0  0  0  0  0  0  0  0  0  0  0  0
    2.1870   -1.4890   27.4690 O   0  0  0  0  0  0  0  0  0  0  0  0
    5.2720   -4.7690   19.9400 O   0  0  0  0  0  0  0  0  0  0  0  0
    6.2740   -4.1060   20.2710 C   0  0  0  0  0  0  0  0  0  0  0  0
    7.0070   -3.2860   19.2830 C   0  0  0  0  0  0  0  0  0  0  0  0
    6.1620   -3.4420   25.3670 C   0  0  1  0  0  0  0  0  0  0  0  0
    2.8660   -1.9590   26.2950 C   0  0  1  0  0  0  0  0  0  0  0  0
    4.3160   -1.4470   26.4180 C   0  0  0  0  0  0  0  0  0  0  0  0
    5.5070   -2.2900   25.9440 C   0  0  0  0  0  0  0  0  0  0  0  0
    4.7660   -3.3090   25.2140 C   0  0  2  0  0  0  0  0  0  0  0  0
    3.8320   -4.1220   25.7740 C   0  0  0  0  0  0  0  0  0  0  0  0
    2.7970   -3.4570   26.3480 C   0  0  0  0  0  0  0  0  0  0  0  0
    6.7470   -4.1890   21.5980 N   0  0  0  0  0  0  0  0  0  0  0  0
    6.9960   -2.9510   22.2610 C   0  0  0  0  0  0  0  0  0  0  0  0
    6.0020   -2.5290   23.1540 C   0  0  0  0  0  0  0  0  0  0  0  0
    5.6000   -3.5710   23.9960 C   0  0  0  0  0  0  0  0  0  0  0  0
    5.3260   -4.9160   23.3920 C   0  0  0  0  0  0  0  0  0  0  0  0
    6.4430   -5.2990   22.4970 C   0  0  0  0  0  0  0  0  0  0  0  0
    8.2000   -4.4650   26.3440 C   0  0  0  0  0  0  0  0  0  0  0  0
    8.5220   -5.4250   27.3070 C   0  0  0  0  0  0  0  0  0  0  0  0
    7.8210   -5.3030   28.5130 C   0  0  0  0  0  0  0  0  0  0  0  0
    6.5140   -4.9250   28.5370 C   0  0  0  0  0  0  0  0  0  0  0  0
    6.1320   -4.0840   27.5350 C   0  0  0  0  0  0  0  0  0  0  0  0
    6.7510   -4.4020   26.2280 N   0  0  0  0  0  0  0  0  0  0  0  0
  1  2  1  0
  3  4  2  0
  4  5  1  0
  7  2  1  1
  7  8  1  0
  6  9  1  0
  8  9  2  0
  6 10  1  0
  9 10  1  0
 10 11  1  1
  7 12  1  0
 11 12  2  0
  4 13  1  0
 13 14  1  0
 14 15  1  0
  6 16  1  0
 10 16  1  0
 16 15  1  0
 16 17  1  0
 13 18  1  0
 17 18  1  0
 19 20  1  0
 20 21  1  0
 21 22  1  0
 22 23  1  0
  6 24  1  1
 19 24  1  0
 23 24  1  0
M  END
