x1458-x0305
     RDKit          3D

 28 29  0  0  0  0  0  0  0  0999 V2000
    7.1890   -3.6200   26.6960 N   0  0  0  0  0  0  0  0  0  0  0  0
    8.8900   -5.4460   26.8850 C   0  0  0  0  0  0  0  0  0  0  0  0
    5.1810   -3.6090   25.5580 O   0  0  0  0  0  0  0  0  0  0  0  0
    7.6750   -4.7530   27.5120 C   0  0  0  0  0  0  0  0  0  0  0  0
    5.2920   -4.6200   19.9120 O   0  0  0  0  0  0  0  0  0  0  0  0
    6.5750   -5.8100   27.7320 C   0  0  0  0  0  0  0  0  0  0  0  0
    7.6800   -2.2800   27.0330 C   0  0  0  0  0  0  0  0  0  0  0  0
    6.3920   -3.8480   25.5640 C   0  0  0  0  0  0  0  0  0  0  0  0
    6.3860   -4.1180   20.2430 C   0  0  0  0  0  0  0  0  0  0  0  0
    7.1910   -3.3000   19.2930 C   0  0  0  0  0  0  0  0  0  0  0  0
    8.4120    0.2200   27.3980 C   0  0  0  0  0  0  0  0  0  0  0  0
    8.5660   -0.0840   26.0680 C   0  0  1  0  0  0  0  0  0  0  0  0
    9.7570    0.3990   25.6070 N   0  0  0  0  0  0  0  0  0  0  0  0
   12.9640   -1.4950   21.6090 C   0  0  0  0  0  0  0  0  0  0  0  0
   13.7180   -1.8150   20.6540 N   0  0  0  0  0  0  0  0  0  0  0  0
    8.4010   -1.5830   25.8910 C   0  0  0  0  0  0  0  0  0  0  0  0
    6.9070   -4.3530   21.5160 N   0  0  0  0  0  0  0  0  0  0  0  0
    7.8260   -3.4470   22.1940 C   0  0  0  0  0  0  0  0  0  0  0  0
    7.3750   -3.1960   23.4790 C   0  0  0  0  0  0  0  0  0  0  0  0
    7.0530   -4.3970   24.2820 C   0  0  0  0  0  0  0  0  0  0  0  0
    6.0320   -5.1380   23.5200 C   0  0  0  0  0  0  0  0  0  0  0  0
    6.5670   -5.5520   22.2970 C   0  0  0  0  0  0  0  0  0  0  0  0
   10.5440   -0.1470   24.5400 C   0  0  0  0  0  0  0  0  0  0  0  0
   11.7210    0.4570   24.2720 N   0  0  0  0  0  0  0  0  0  0  0  0
   12.5390    0.0310   23.3060 C   0  0  0  0  0  0  0  0  0  0  0  0
   12.1150   -1.0560   22.6050 C   0  0  0  0  0  0  0  0  0  0  0  0
   10.9260   -1.7280   22.8130 C   0  0  0  0  0  0  0  0  0  0  0  0
   10.1150   -1.2540   23.8150 C   0  0  0  0  0  0  0  0  0  0  0  0
  1  4  1  0
  2  4  1  0
  4  6  1  0
  1  7  1  0
  1  8  1  0
  3  8  2  0
  5  9  2  0
  9 10  1  0
 12 11  1  1
 12 13  1  0
 14 15  3  0
  7 16  1  0
 12 16  1  0
  9 17  1  0
 17 18  1  0
 18 19  1  0
  8 20  1  0
 19 20  1  0
 20 21  1  0
 17 22  1  0
 21 22  1  0
 13 23  1  0
 23 24  2  0
 24 25  1  0
 14 26  1  0
 25 26  2  0
 26 27  1  0
 23 28  1  0
 27 28  2  0
M  END
