x1458-x2646-x1311
     RDKit          3D

 43 46  0  0  0  0  0  0  0  0999 V2000
    7.2150   -3.3660   26.8150 N   0  0  0  0  0  0  0  0  0  0  0  0
    9.2640   -4.8400   27.0550 C   0  0  0  0  0  0  0  0  0  0  0  0
    5.1450   -3.9140   26.1200 O   0  0  0  0  0  0  0  0  0  0  0  0
    7.8670   -4.4660   27.5650 C   0  0  0  0  0  0  0  0  0  0  0  0
    5.5730   -4.9660   20.0520 O   0  0  0  0  0  0  0  0  0  0  0  0
    6.9690   -5.6980   27.6490 C   0  0  0  0  0  0  0  0  0  0  0  0
    6.6510   -2.3220   27.6530 C   0  0  0  0  0  0  0  0  0  0  0  0
    6.2880   -3.5950   25.8160 C   0  0  0  0  0  0  0  0  0  0  0  0
    6.5950   -4.3560   20.4240 C   0  0  0  0  0  0  0  0  0  0  0  0
    7.2310   -3.4410   19.3860 C   0  0  0  0  0  0  0  0  0  0  0  0
    4.7730   -6.6840   26.1040 O   0  0  0  0  0  0  0  0  0  0  0  0
    2.5210   -6.6980   24.6940 O   0  0  0  0  0  0  0  0  0  0  0  0
    4.5380    1.4930   21.4620 C   0  0  0  0  0  0  0  0  0  0  0  0
    8.6990    1.2650   21.1910 O   0  0  0  0  0  0  0  0  0  0  0  0
   13.2130   -2.0450   21.2020 Cl  0  0  0  0  0  0  0  0  0  0  0  0
    6.8640   -0.1930   21.1160 N   0  0  0  0  0  0  0  0  0  0  0  0
    8.0570    0.2880   21.6490 C   0  0  0  0  0  0  0  0  0  0  0  0
    8.5830   -0.4690   22.8680 C   0  0  0  0  0  0  0  0  0  0  0  0
    7.6070   -2.1220   19.9790 C   0  0  0  0  0  0  0  0  0  0  0  0
    6.5810   -1.5880   20.9430 C   0  0  0  0  0  0  0  0  0  0  0  0
    7.2040   -4.5120   21.6860 N   0  0  0  0  0  0  0  0  0  0  0  0
    8.1160   -3.5450   22.3300 C   0  0  0  0  0  0  0  0  0  0  0  0
    8.0450   -3.6190   23.8650 C   0  0  0  0  0  0  0  0  0  0  0  0
    6.5990   -3.4040   24.3430 C   0  0  1  0  0  0  0  0  0  0  0  0
    5.6900   -4.2810   23.5050 C   0  0  1  0  0  0  0  0  0  0  0  0
    6.4830   -5.2910   22.6660 C   0  0  0  0  0  0  0  0  0  0  0  0
    4.6310   -6.3680   22.3870 C   0  0  0  0  0  0  0  0  0  0  0  0
    3.8100   -5.1520   22.7390 C   0  0  0  0  0  0  0  0  0  0  0  0
    4.3700   -4.7870   24.0600 C   0  0  1  0  0  0  0  0  0  0  0  0
    4.0950   -6.4200   24.6950 S   0  0  0  0  0  0  0  0  0  0  0  0
    4.8660   -7.1460   23.4360 C   0  0  0  0  0  0  0  0  0  0  0  0
    6.3520    0.8060   17.6330 N   0  0  0  0  0  0  0  0  0  0  0  0
    6.8440    0.2480   18.7420 C   0  0  0  0  0  0  0  0  0  0  0  0
    6.3010    0.4400   20.0000 C   0  0  0  0  0  0  0  0  0  0  0  0
    5.1830    1.2480   20.1370 C   0  0  0  0  0  0  0  0  0  0  0  0
    4.6560    1.8340   18.9910 C   0  0  0  0  0  0  0  0  0  0  0  0
    5.2680    1.5870   17.7790 C   0  0  0  0  0  0  0  0  0  0  0  0
   10.6780    0.4290   23.8600 C   0  0  0  0  0  0  0  0  0  0  0  0
   12.0530    0.5070   23.9440 C   0  0  0  0  0  0  0  0  0  0  0  0
   12.8460   -0.2580   23.1250 C   0  0  0  0  0  0  0  0  0  0  0  0
   12.2510   -1.1060   22.2210 C   0  0  0  0  0  0  0  0  0  0  0  0
   10.8740   -1.2040   22.1160 C   0  0  0  0  0  0  0  0  0  0  0  0
   10.0770   -0.4220   22.9440 C   0  0  0  0  0  0  0  0  0  0  0  0
  1  4  1  0
  2  4  1  0
  4  6  1  0
  1  7  1  0
  1  8  1  0
  3  8  2  0
  5  9  2  0
  9 10  1  0
 14 17  2  0
 16 17  1  0
 17 18  1  0
 10 19  1  0
 16 20  1  0
 19 20  1  0
  9 21  1  0
 21 22  1  0
 22 23  1  0
 24  8  1  1
 23 24  1  0
 24 25  1  0
 21 26  1  0
 25 26  1  1
 27 28  1  0
 25 29  1  0
 29 28  1  6
 30 11  1  0
 12 30  1  0
 29 30  1  0
 27 31  2  0
 30 31  1  0
 32 33  2  0
 16 34  1  0
 33 34  1  0
 13 35  1  0
 34 35  2  0
 35 36  1  0
 32 37  1  0
 36 37  2  0
 38 39  2  0
 39 40  1  0
 15 41  1  0
 40 41  2  0
 41 42  1  0
 18 43  1  0
 38 43  1  0
 42 43  2  0
M  END
