x1458-x1380
     RDKit          3D

 20 23  0  0  0  0  0  0  0  0999 V2000
    8.9500   -4.5290   27.6780 C   0  0  0  0  0  0  0  0  0  0  0  0
    4.8550   -3.3220   25.0060 O   0  0  0  0  0  0  0  0  0  0  0  0
    5.3120   -4.7740   19.9560 O   0  0  0  0  0  0  0  0  0  0  0  0
    7.3850   -5.8110   26.4540 C   0  0  0  0  0  0  0  0  0  0  0  0
    7.0660   -1.9970   26.6340 C   0  0  0  0  0  0  0  0  0  0  0  0
    6.0240   -3.6050   25.2720 C   0  0  0  0  0  0  0  0  0  0  0  0
    6.3070   -4.0890   20.2790 C   0  0  0  0  0  0  0  0  0  0  0  0
    7.0370   -3.2850   19.2750 C   0  0  0  0  0  0  0  0  0  0  0  0
    6.7810   -4.1260   21.6080 N   0  0  0  0  0  0  0  0  0  0  0  0
    7.5020   -3.3190   22.0690 C   0  0  0  0  0  0  0  0  0  0  0  0
    7.2830   -3.0630   23.4180 C   0  0  0  0  0  0  0  0  0  0  0  0
    6.8560   -4.0590   24.2550 C   0  0  0  0  0  0  0  0  0  0  0  0
    6.1460   -5.0700   23.6100 C   0  0  0  0  0  0  0  0  0  0  0  0
    6.5460   -5.3600   22.3570 C   0  0  0  0  0  0  0  0  0  0  0  0
    7.5400   -4.4790   26.7900 C   0  0  2  0  0  0  0  0  0  0  0  0
    7.7200   -5.1060   27.8680 C   0  0  1  0  0  0  0  0  0  0  0  0
    6.8200   -4.7280   28.9280 C   0  0  0  0  0  0  0  0  0  0  0  0
    5.5210   -4.7500   28.3320 C   0  0  0  0  0  0  0  0  0  0  0  0
    5.4730   -3.5670   27.6170 C   0  0  0  0  0  0  0  0  0  0  0  0
    6.5350   -3.4550   26.6890 C   0  0  1  0  0  0  0  0  0  0  0  0
  2  6  2  0
  3  7  2  0
  7  8  1  0
  7  9  1  0
  9 10  1  0
 10 11  1  0
  6 12  1  0
 11 12  1  0
 12 13  1  0
  9 14  1  0
 13 14  1  0
 15  1  1  6
  4 15  1  0
 16  1  1  1
  4 16  1  0
 15 16  1  0
 16 17  1  0
 17 18  1  0
 18 19  1  0
 20  5  1  6
 20  6  1  0
 15 20  1  0
 19 20  1  0
M  END
