x1458-x0731
     RDKit          3D

 24 26  0  0  0  0  0  0  0  0999 V2000
    6.7310   -4.0830   26.4590 N   0  0  0  0  0  0  0  0  0  0  0  0
    8.9710   -4.6660   27.4710 C   0  0  0  0  0  0  0  0  0  0  0  0
    5.3180   -3.2430   25.1190 N   0  0  0  0  0  0  0  0  0  0  0  0
    7.5830   -5.1480   27.0320 C   0  0  0  0  0  0  0  0  0  0  0  0
    5.4190   -4.8920   19.9970 O   0  0  0  0  0  0  0  0  0  0  0  0
    6.8780   -5.8200   28.2220 C   0  0  0  0  0  0  0  0  0  0  0  0
    6.6520   -2.7690   27.1190 C   0  0  0  0  0  0  0  0  0  0  0  0
    6.2520   -4.2640   25.1640 C   0  0  2  0  0  0  0  0  0  0  0  0
    6.3810   -4.1850   20.3790 C   0  0  0  0  0  0  0  0  0  0  0  0
    7.1460   -3.3490   19.3970 C   0  0  0  0  0  0  0  0  0  0  0  0
    0.6810   -1.1990   26.3630 C   0  0  0  0  0  0  0  0  0  0  0  0
    5.9050   -5.6620   25.1120 O   0  0  0  0  0  0  0  0  0  0  0  0
    6.7620   -4.2010   21.7120 N   0  0  0  0  0  0  0  0  0  0  0  0
    7.9190   -3.4490   22.1930 C   0  0  0  0  0  0  0  0  0  0  0  0
    7.8500   -3.1230   23.5230 C   0  0  0  0  0  0  0  0  0  0  0  0
    7.2010   -3.9880   24.3220 C   0  0  0  0  0  0  0  0  0  0  0  0
    6.1160   -4.7640   23.8310 C   0  0  0  0  0  0  0  0  0  0  0  0
    6.3600   -5.2280   22.5150 C   0  0  0  0  0  0  0  0  0  0  0  0
    1.8270   -2.0520   25.9350 C   0  0  0  0  0  0  0  0  0  0  0  0
    1.6210   -3.4760   25.4290 C   0  0  0  0  0  0  0  0  0  0  0  0
    2.7220   -4.2640   25.0240 C   0  0  0  0  0  0  0  0  0  0  0  0
    3.8440   -3.5330   25.1740 C   0  0  0  0  0  0  0  0  0  0  0  0
    4.0510   -2.5020   25.5360 C   0  0  0  0  0  0  0  0  0  0  0  0
    3.2920   -1.5120   25.9880 C   0  0  0  0  0  0  0  0  0  0  0  0
  1  4  1  0
  2  4  1  0
  4  6  1  0
  1  7  1  0
  1  8  1  0
  3  8  1  0
  5  9  2  0
  9 10  1  0
  8 12  1  1
  9 13  1  0
 13 14  1  0
 14 15  1  0
  8 16  1  0
 15 16  1  0
 16 17  1  0
 13 18  1  0
 17 18  1  0
 11 19  1  0
 19 20  2  0
 20 21  1  0
  3 22  1  0
 21 22  2  0
  3 23  1  0
 22 23  1  0
 19 24  1  0
 23 24  2  0
M  END
