x1458-x2912
     RDKit          3D

 37 39  0  0  0  0  0  0  0  0999 V2000
    7.1640   -3.4410   26.2700 N   0  0  0  0  0  0  0  0  0  0  0  0
    9.0220   -4.3590   27.6990 C   0  0  0  0  0  0  0  0  0  0  0  0
    4.9410   -3.6890   25.7570 O   0  0  0  0  0  0  0  0  0  0  0  0
    7.8460   -4.6620   26.7820 C   0  0  0  0  0  0  0  0  0  0  0  0
    5.2770   -4.8400   19.9660 O   0  0  0  0  0  0  0  0  0  0  0  0
    6.8730   -5.5870   27.5490 C   0  0  0  0  0  0  0  0  0  0  0  0
    7.8740   -2.1320   26.2270 C   0  0  0  0  0  0  0  0  0  0  0  0
    6.1130   -3.6740   25.3830 C   0  0  0  0  0  0  0  0  0  0  0  0
    6.2960   -4.2160   20.3170 C   0  0  0  0  0  0  0  0  0  0  0  0
    7.0140   -3.3290   19.3750 C   0  0  0  0  0  0  0  0  0  0  0  0
    6.9620   -0.5530   21.2940 N   0  0  0  0  0  0  0  0  0  0  0  0
    8.2000   -0.3870   24.4440 C   0  0  0  0  0  0  0  0  0  0  0  0
    8.9020    1.0220   21.6440 O   0  0  0  0  0  0  0  0  0  0  0  0
    8.6590   -0.7400   23.1780 C   0  0  1  0  0  0  0  0  0  0  0  0
    8.1350   -0.1120   22.0380 C   0  0  0  0  0  0  0  0  0  0  0  0
   13.6480   -2.8740   20.6390 N   0  0  0  0  0  0  0  0  0  0  0  0
    4.8680    1.2570   21.6970 C   0  0  0  0  0  0  0  0  0  0  0  0
   13.0760   -1.9880   21.4130 C   0  0  0  0  0  0  0  0  0  0  0  0
    7.2860   -1.2020   25.1570 C   0  0  0  0  0  0  0  0  0  0  0  0
    6.8300   -4.3790   21.5930 N   0  0  0  0  0  0  0  0  0  0  0  0
    7.5900   -3.4510   22.1950 C   0  0  0  0  0  0  0  0  0  0  0  0
    7.6210   -3.5580   23.6420 C   0  0  0  0  0  0  0  0  0  0  0  0
    6.3200   -3.8720   24.0040 C   0  0  0  0  0  0  0  0  0  0  0  0
    6.1530   -5.2270   23.6870 C   0  0  0  0  0  0  0  0  0  0  0  0
    6.5060   -5.4620   22.3420 C   0  0  0  0  0  0  0  0  0  0  0  0
    6.2760    0.4560   17.7450 N   0  0  0  0  0  0  0  0  0  0  0  0
    5.1800    1.3980   17.9750 C   0  0  0  0  0  0  0  0  0  0  0  0
    4.7630    1.6150   19.2730 C   0  0  0  0  0  0  0  0  0  0  0  0
    5.3800    0.9550   20.3190 C   0  0  0  0  0  0  0  0  0  0  0  0
    6.4240    0.0520   20.1370 C   0  0  0  0  0  0  0  0  0  0  0  0
    6.9030   -0.2270   18.8650 C   0  0  0  0  0  0  0  0  0  0  0  0
   10.7290    0.5260   23.8150 C   0  0  0  0  0  0  0  0  0  0  0  0
   12.1080    0.7250   23.7220 C   0  0  0  0  0  0  0  0  0  0  0  0
   12.9070   -0.0940   22.9320 C   0  0  0  0  0  0  0  0  0  0  0  0
   12.3410   -1.1330   22.2180 C   0  0  0  0  0  0  0  0  0  0  0  0
   10.9980   -1.3860   22.2580 C   0  0  0  0  0  0  0  0  0  0  0  0
   10.1370   -0.5080   23.1040 C   0  0  0  0  0  0  0  0  0  0  0  0
  1  4  1  0
  2  4  1  0
  4  6  1  0
  1  7  1  0
  1  8  1  0
  3  8  2  0
  5  9  2  0
  9 10  1  0
 14 12  1  1
 11 15  1  0
 13 15  2  0
 14 15  1  0
 16 18  3  0
  7 19  1  0
 12 19  1  0
  9 20  1  0
 20 21  1  0
 21 22  1  0
  8 23  1  0
 22 23  1  0
 23 24  1  0
 20 25  1  0
 24 25  1  0
 26 27  2  0
 27 28  1  0
 17 29  1  0
 28 29  2  0
 11 30  1  0
 29 30  1  0
 26 31  1  0
 30 31  2  0
 32 33  2  0
 33 34  1  0
 18 35  1  0
 34 35  2  0
 35 36  1  0
 14 37  1  0
 32 37  1  0
 36 37  2  0
M  END
