x1458-x0755
     RDKit          3D

 24 26  0  0  0  0  0  0  0  0999 V2000
    6.7450   -3.8020   26.3430 N   0  0  0  0  0  0  0  0  0  0  0  0
    9.0340   -4.4350   27.3160 C   0  0  0  0  0  0  0  0  0  0  0  0
    4.9210   -3.3010   25.0710 N   0  0  0  0  0  0  0  0  0  0  0  0
    7.6340   -4.8710   26.8820 C   0  0  0  0  0  0  0  0  0  0  0  0
    5.1490   -4.5440   19.8510 O   0  0  0  0  0  0  0  0  0  0  0  0
    6.9670   -5.6160   28.0550 C   0  0  0  0  0  0  0  0  0  0  0  0
    7.1160   -2.3830   26.3480 C   0  0  0  0  0  0  0  0  0  0  0  0
    5.8410   -4.2720   25.4120 C   0  0  2  0  0  0  0  0  0  0  0  0
    6.2310   -4.0750   20.2420 C   0  0  0  0  0  0  0  0  0  0  0  0
    7.0590   -3.2510   19.3280 C   0  0  0  0  0  0  0  0  0  0  0  0
    5.3910   -5.5410   25.9420 O   0  0  0  0  0  0  0  0  0  0  0  0
    1.4060   -5.0850   25.3490 F   0  0  0  0  0  0  0  0  0  0  0  0
    6.6360   -4.3880   21.5240 N   0  0  0  0  0  0  0  0  0  0  0  0
    7.3130   -3.5160   22.3000 C   0  0  0  0  0  0  0  0  0  0  0  0
    7.3340   -3.7410   23.6620 C   0  0  0  0  0  0  0  0  0  0  0  0
    6.3700   -4.6870   24.0800 C   0  0  0  0  0  0  0  0  0  0  0  0
    6.6720   -5.7360   23.2910 C   0  0  0  0  0  0  0  0  0  0  0  0
    6.6210   -5.6660   21.9050 C   0  0  0  0  0  0  0  0  0  0  0  0
    2.1300   -3.9710   25.5510 C   0  0  0  0  0  0  0  0  0  0  0  0
    3.5640   -4.0800   25.1410 C   0  0  0  0  0  0  0  0  0  0  0  0
    3.8270   -2.7240   25.5620 C   0  0  0  0  0  0  0  0  0  0  0  0
    3.3420   -1.5520   26.1050 C   0  0  0  0  0  0  0  0  0  0  0  0
    2.0140   -1.6550   26.4000 C   0  0  0  0  0  0  0  0  0  0  0  0
    1.4190   -2.8780   26.1180 C   0  0  0  0  0  0  0  0  0  0  0  0
  1  4  1  0
  2  4  1  0
  4  6  1  0
  1  7  1  0
  1  8  1  0
  3  8  1  0
  5  9  2  0
  9 10  1  0
  8 11  1  1
  9 13  1  0
 13 14  1  0
 14 15  1  0
  8 16  1  0
 15 16  1  0
 16 17  1  0
 13 18  1  0
 17 18  1  0
 12 19  1  0
  3 20  1  0
 19 20  2  0
  3 21  1  0
 20 21  1  0
 21 22  2  0
 22 23  1  0
 19 24  1  0
 23 24  2  0
M  END
