x1458-x1311
     RDKit          3D

 23 24  0  0  0  0  0  0  0  0999 V2000
    7.6320   -3.2090   26.6550 N   0  0  0  0  0  0  0  0  0  0  0  0
    9.1110   -5.1700   27.1490 C   0  0  0  0  0  0  0  0  0  0  0  0
    5.5140   -2.5860   26.0170 O   0  0  0  0  0  0  0  0  0  0  0  0
    7.8130   -4.4290   27.4880 C   0  0  0  0  0  0  0  0  0  0  0  0
    5.3680   -4.8490   19.9940 O   0  0  0  0  0  0  0  0  0  0  0  0
    6.6540   -5.4410   27.3430 C   0  0  0  0  0  0  0  0  0  0  0  0
    8.1180   -1.9390   27.2190 C   0  0  0  0  0  0  0  0  0  0  0  0
    6.5640   -3.1750   25.7590 C   0  0  0  0  0  0  0  0  0  0  0  0
    6.3520   -4.1680   20.3740 C   0  0  0  0  0  0  0  0  0  0  0  0
    7.0800   -3.3390   19.3970 C   0  0  0  0  0  0  0  0  0  0  0  0
    4.5840   -6.6230   26.0980 O   0  0  0  0  0  0  0  0  0  0  0  0
    2.4520   -6.2190   24.4760 O   0  0  0  0  0  0  0  0  0  0  0  0
    6.8240   -4.2110   21.6870 N   0  0  0  0  0  0  0  0  0  0  0  0
    7.6230   -3.1950   22.3770 C   0  0  0  0  0  0  0  0  0  0  0  0
    7.7770   -3.4180   23.7330 C   0  0  0  0  0  0  0  0  0  0  0  0
    6.6630   -3.8780   24.4660 C   0  0  1  0  0  0  0  0  0  0  0  0
    6.2760   -4.9760   23.8220 C   0  0  2  0  0  0  0  0  0  0  0  0
    6.6350   -5.3050   22.4940 C   0  0  0  0  0  0  0  0  0  0  0  0
    4.7830   -6.4510   22.4600 C   0  0  0  0  0  0  0  0  0  0  0  0
    4.2010   -5.1230   22.6300 C   0  0  0  0  0  0  0  0  0  0  0  0
    4.7380   -4.8740   23.9300 C   0  0  1  0  0  0  0  0  0  0  0  0
    3.9520   -6.2650   24.6890 S   0  0  0  0  0  0  0  0  0  0  0  0
    4.7510   -7.2000   23.4940 C   0  0  0  0  0  0  0  0  0  0  0  0
  1  4  1  0
  2  4  1  0
  4  6  1  0
  1  7  1  0
  1  8  1  0
  3  8  2  0
  5  9  2  0
  9 10  1  0
  9 13  1  0
 13 14  1  0
 14 15  1  0
 16  8  1  1
 15 16  1  0
 16 17  1  0
 13 18  1  0
 17 18  1  6
 19 20  1  0
 17 21  1  0
 21 20  1  6
 22 11  1  0
 12 22  1  0
 21 22  1  0
 19 23  2  0
 22 23  1  0
M  END
