x1458-x2097
     RDKit          3D

 16 16  0  0  0  0  0  0  0  0999 V2000
    7.4200   -3.4100   26.4390 N   0  0  0  0  0  0  0  0  0  0  0  0
    9.0560   -5.1650   27.1530 C   0  0  0  0  0  0  0  0  0  0  0  0
    5.2060   -3.1860   25.8230 O   0  0  0  0  0  0  0  0  0  0  0  0
    7.7020   -4.4950   27.4160 C   0  0  0  0  0  0  0  0  0  0  0  0
    5.1890   -4.6350   19.8940 O   0  0  0  0  0  0  0  0  0  0  0  0
    6.6180   -5.5950   27.4080 C   0  0  0  0  0  0  0  0  0  0  0  0
    7.9260   -2.0600   26.7740 C   0  0  0  0  0  0  0  0  0  0  0  0
    6.3450   -3.5720   25.5480 C   0  0  0  0  0  0  0  0  0  0  0  0
    6.2270   -4.0660   20.2720 C   0  0  0  0  0  0  0  0  0  0  0  0
    7.0330   -3.2680   19.3190 C   0  0  0  0  0  0  0  0  0  0  0  0
    6.6460   -4.2120   21.5810 N   0  0  0  0  0  0  0  0  0  0  0  0
    7.5360   -3.3060   22.3170 C   0  0  0  0  0  0  0  0  0  0  0  0
    7.6900   -3.5790   23.6580 C   0  0  0  0  0  0  0  0  0  0  0  0
    6.5750   -4.2300   24.2220 C   0  0  0  0  0  0  0  0  0  0  0  0
    6.6620   -5.4250   23.5740 C   0  0  0  0  0  0  0  0  0  0  0  0
    6.5320   -5.4470   22.1800 C   0  0  0  0  0  0  0  0  0  0  0  0
  1  4  1  0
  2  4  1  0
  4  6  1  0
  1  7  1  0
  1  8  1  0
  3  8  2  0
  5  9  2  0
  9 10  1  0
  9 11  1  0
 11 12  1  0
 12 13  1  0
  8 14  1  0
 13 14  1  0
 14 15  1  0
 11 16  1  0
 15 16  1  0
M  END
