x1478-x0708
     RDKit          3D

 22 24  0  0  0  0  0  0  0  0999 V2000
    6.7710   -4.6760   20.8770 N   0  0  0  0  0  0  0  0  0  0  0  0
    7.4630   -3.1280   19.0380 C   0  0  0  0  0  0  0  0  0  0  0  0
    5.2160   -3.7550   19.4140 O   0  0  0  0  0  0  0  0  0  0  0  0
    6.4060   -3.8530   19.7930 C   0  0  0  0  0  0  0  0  0  0  0  0
    7.7810   -4.3110   21.8070 N   0  0  0  0  0  0  0  0  0  0  0  0
    7.5160   -3.0240   22.1340 C   0  0  2  0  0  0  0  0  0  0  0  0
    6.3450   -5.9550   22.7330 Cl  0  0  0  0  0  0  0  0  0  0  0  0
    8.6820   -2.1970   22.5560 C   0  0  0  0  0  0  0  0  0  0  0  0
    9.9850   -2.3260   21.9100 C   0  0  0  0  0  0  0  0  0  0  0  0
   11.0230   -1.3820   22.4250 C   0  0  0  0  0  0  0  0  0  0  0  0
   10.4200   -0.5100   23.5150 C   0  0  0  0  0  0  0  0  0  0  0  0
    8.7410   -0.9370   23.8060 S   0  0  0  0  0  0  0  0  0  0  0  0
   12.3430   -1.1190   22.1500 C   0  0  0  0  0  0  0  0  0  0  0  0
   13.0140   -0.1240   22.8080 C   0  0  0  0  0  0  0  0  0  0  0  0
   12.4010    0.6500   23.7770 C   0  0  0  0  0  0  0  0  0  0  0  0
   11.1330    0.4700   24.1440 C   0  0  0  0  0  0  0  0  0  0  0  0
    4.5930   -4.5520   24.1050 N   0  0  0  0  0  0  0  0  0  0  0  0
    5.7790   -4.4110   23.2740 C   0  0  0  0  0  0  0  0  0  0  0  0
    6.3110   -3.1210   23.0060 C   0  0  0  0  0  0  0  0  0  0  0  0
    5.7520   -1.8600   23.5150 C   0  0  0  0  0  0  0  0  0  0  0  0
    4.5560   -1.9590   24.3590 C   0  0  0  0  0  0  0  0  0  0  0  0
    4.0120   -3.3500   24.6230 C   0  0  0  0  0  0  0  0  0  0  0  0
  1  4  1  0
  2  4  1  0
  3  4  2  0
  1  5  1  0
  6  5  1  1
  6  8  1  0
  8  9  2  0
  9 10  1  0
 10 11  2  0
  8 12  1  0
 11 12  1  0
 10 13  1  0
 13 14  2  0
 14 15  1  0
 11 16  1  0
 15 16  2  0
  7 18  1  0
 17 18  2  0
  6 19  1  0
 18 19  1  0
 19 20  2  0
 20 21  1  0
 17 22  1  0
 21 22  2  0
M  END
