x1478-x0426
     RDKit          3D

 31 33  0  0  0  0  0  0  0  0999 V2000
    2.2540    1.9720   23.9890 C   0  0  0  0  0  0  0  0  0  0  0  0
    2.3490    0.5220   24.2530 N   0  0  0  0  0  0  0  0  0  0  0  0
    3.2630    2.6570   23.1490 N   0  0  0  0  0  0  0  0  0  0  0  0
    4.2000    2.0180   22.2200 C   0  0  0  0  0  0  0  0  0  0  0  0
    3.5570    1.3600   21.1710 C   0  0  0  0  0  0  0  0  0  0  0  0
    2.6550    4.4440   25.2800 F   0  0  0  0  0  0  0  0  0  0  0  0
    6.7020   -2.8100   21.3240 N   0  0  0  0  0  0  0  0  0  0  0  0
    7.7780   -3.6570   19.4750 C   0  0  0  0  0  0  0  0  0  0  0  0
    5.4820   -3.4780   19.4500 O   0  0  0  0  0  0  0  0  0  0  0  0
    6.6910   -5.8370   22.3810 Cl  0  0  0  0  0  0  0  0  0  0  0  0
    6.5680   -3.2710   20.0820 C   0  0  0  0  0  0  0  0  0  0  0  0
    3.4320   -0.2670   23.7300 C   0  0  0  0  0  0  0  0  0  0  0  0
    3.8240   -1.2250   24.8290 C   0  0  0  0  0  0  0  0  0  0  0  0
    1.4100    3.9450   25.2190 C   0  0  0  0  0  0  0  0  0  0  0  0
    1.1650    2.7480   24.5980 C   0  0  0  0  0  0  0  0  0  0  0  0
   -0.1400    2.2510   24.5500 C   0  0  0  0  0  0  0  0  0  0  0  0
   -1.1480    2.9580   25.1190 C   0  0  0  0  0  0  0  0  0  0  0  0
   -0.9520    4.1900   25.7700 C   0  0  0  0  0  0  0  0  0  0  0  0
    0.3570    4.6630   25.8020 C   0  0  0  0  0  0  0  0  0  0  0  0
    5.7090    0.0340   20.3130 C   0  0  0  0  0  0  0  0  0  0  0  0
    6.6170   -0.1870   19.1850 C   0  0  0  0  0  0  0  0  0  0  0  0
    6.5070    0.4310   17.9960 N   0  0  0  0  0  0  0  0  0  0  0  0
    5.4190    1.3920   17.7950 C   0  0  0  0  0  0  0  0  0  0  0  0
    4.5280    1.6390   18.8350 C   0  0  0  0  0  0  0  0  0  0  0  0
    4.5730    1.0340   20.1030 C   0  0  0  0  0  0  0  0  0  0  0  0
    5.2330   -4.7580   24.0930 N   0  0  0  0  0  0  0  0  0  0  0  0
    5.9220   -4.4300   22.9950 C   0  0  0  0  0  0  0  0  0  0  0  0
    5.9800   -3.1290   22.4630 C   0  0  0  0  0  0  0  0  0  0  0  0
    5.2960   -2.1470   23.0960 C   0  0  0  0  0  0  0  0  0  0  0  0
    4.5480   -2.3560   24.2260 C   0  0  0  0  0  0  0  0  0  0  0  0
    4.5240   -3.6500   24.7170 C   0  0  0  0  0  0  0  0  0  0  0  0
  1  2  2  3
  1  3  1  0
  3  4  1  0
  4  5  1  0
  7 11  1  0
  8 11  1  0
  9 11  2  0
  2 12  1  0
 12 13  1  0
  6 14  1  0
  1 15  1  0
 14 15  2  0
 15 16  1  0
 16 17  2  0
 17 18  1  0
 14 19  1  0
 18 19  2  0
 20 21  2  0
 21 22  1  0
 22 23  2  0
 23 24  1  0
  5 25  1  0
 20 25  1  0
 24 25  2  0
 10 27  1  0
 26 27  2  0
  7 28  1  0
 27 28  1  0
 28 29  2  0
 13 30  1  0
 29 30  1  0
 26 31  1  0
 30 31  2  0
M  END
