x1478-x2764
     RDKit          3D

 29 31  0  0  0  0  0  0  0  0999 V2000
    7.4860   -1.0800   22.6270 N   0  0  0  0  0  0  0  0  0  0  0  0
    6.9560   -1.2800   21.3330 C   0  0  0  0  0  0  0  0  0  0  0  0
    6.5770   -2.5650   20.6500 C   0  0  0  0  0  0  0  0  0  0  0  0
    8.3850   -1.9770   23.1060 C   0  0  0  0  0  0  0  0  0  0  0  0
    6.5380    1.4590   22.0880 O   0  0  0  0  0  0  0  0  0  0  0  0
    7.7200    4.2490   22.9550 N   0  0  0  0  0  0  0  0  0  0  0  0
    7.6560    1.9280   22.2900 C   0  0  0  0  0  0  0  0  0  0  0  0
    7.9520    3.3390   21.9230 C   0  0  0  0  0  0  0  0  0  0  0  0
    7.5140   -4.7450   20.4170 C   0  0  0  0  0  0  0  0  0  0  0  0
    5.2250   -4.3380   19.8360 O   0  0  0  0  0  0  0  0  0  0  0  0
    6.3030   -3.9270   20.3020 C   0  0  0  0  0  0  0  0  0  0  0  0
    7.1140   -5.9550   22.3870 Cl  0  0  0  0  0  0  0  0  0  0  0  0
   12.0990   -1.4620   22.3300 N   0  0  0  0  0  0  0  0  0  0  0  0
   10.7770   -1.6670   22.1250 C   0  0  0  0  0  0  0  0  0  0  0  0
    9.9030   -1.7330   23.1700 C   0  0  0  0  0  0  0  0  0  0  0  0
   10.6320   -1.5560   24.3360 C   0  0  0  0  0  0  0  0  0  0  0  0
   12.2900   -1.3370   24.0110 S   0  0  0  0  0  0  0  0  0  0  0  0
    6.3390   -0.5900   19.0580 C   0  0  0  0  0  0  0  0  0  0  0  0
    5.8580    0.3020   18.1100 C   0  0  0  0  0  0  0  0  0  0  0  0
    5.5930    1.5960   18.4590 C   0  0  0  0  0  0  0  0  0  0  0  0
    5.8190    2.0880   19.8350 C   0  0  0  0  0  0  0  0  0  0  0  0
    6.3270    1.0840   20.7840 C   0  0  0  0  0  0  0  0  0  0  0  0
    6.5640   -0.2200   20.3940 C   0  0  0  0  0  0  0  0  0  0  0  0
    6.1950   -4.5230   24.1260 N   0  0  0  0  0  0  0  0  0  0  0  0
    6.5530   -4.4010   22.8230 C   0  0  0  0  0  0  0  0  0  0  0  0
    6.4090   -3.1630   22.0620 C   0  0  0  0  0  0  0  0  0  0  0  0
    5.8640   -2.1410   22.8260 C   0  0  0  0  0  0  0  0  0  0  0  0
    5.4960   -2.2490   24.1530 C   0  0  0  0  0  0  0  0  0  0  0  0
    5.6810   -3.4630   24.7530 C   0  0  0  0  0  0  0  0  0  0  0  0
  1  2  1  0
  2  3  2  3
  1  4  1  0
  5  7  1  0
  6  8  3  0
  7  8  1  0
  3 11  1  0
  9 11  1  0
 10 11  2  0
 13 14  2  0
  4 15  1  0
 14 15  1  0
 15 16  2  0
 13 17  1  0
 16 17  1  0
 18 19  2  0
 19 20  1  0
 20 21  2  0
  5 22  1  0
 21 22  1  0
  2 23  1  0
 18 23  1  0
 22 23  2  0
 12 25  1  0
 24 25  2  0
  3 26  1  0
 25 26  1  0
 26 27  2  0
 27 28  1  0
 24 29  1  0
 28 29  2  0
M  END
