x1478-x2581
     RDKit          3D

 35 38  0  0  0  0  0  0  0  0999 V2000
    9.6270   -2.5490   23.8230 C   0  0  0  0  0  0  0  0  0  0  0  0
   10.2330   -1.2400   23.8320 O   0  0  0  0  0  0  0  0  0  0  0  0
   10.6360    3.3080   22.0960 N   0  0  0  0  0  0  0  0  0  0  0  0
   11.0420    3.6230   24.2260 O   0  0  0  0  0  0  0  0  0  0  0  0
   11.2060    4.0250   23.0970 C   0  0  0  0  0  0  0  0  0  0  0  0
   11.9510    5.2990   22.8090 C   0  0  0  0  0  0  0  0  0  0  0  0
    6.7150   -2.6700   21.4620 N   0  0  0  0  0  0  0  0  0  0  0  0
    7.7820   -3.7660   19.6220 C   0  0  0  0  0  0  0  0  0  0  0  0
    5.5530   -3.4830   19.5160 O   0  0  0  0  0  0  0  0  0  0  0  0
    6.2880   -5.8560   22.3850 Cl  0  0  0  0  0  0  0  0  0  0  0  0
    6.5840   -3.2550   20.2070 C   0  0  0  0  0  0  0  0  0  0  0  0
    9.1520   -2.9560   22.4550 C   0  0  0  0  0  0  0  0  0  0  0  0
    8.0430   -2.1260   21.8170 C   0  0  0  0  0  0  0  0  0  0  0  0
    8.9080    1.9610   21.2860 N   0  0  0  0  0  0  0  0  0  0  0  0
    9.9700    2.0810   22.1090 C   0  0  0  0  0  0  0  0  0  0  0  0
   10.4490    1.0770   22.9380 C   0  0  0  0  0  0  0  0  0  0  0  0
    9.7350   -0.2960   22.9770 C   0  0  0  0  0  0  0  0  0  0  0  0
    8.5420   -0.4740   22.0720 C   0  0  0  0  0  0  0  0  0  0  0  0
    8.2500    0.7930   21.2630 C   0  0  0  0  0  0  0  0  0  0  0  0
    9.9290    6.7880   22.8510 C   0  0  0  0  0  0  0  0  0  0  0  0
    9.1840    7.8280   23.3790 C   0  0  0  0  0  0  0  0  0  0  0  0
    9.6670    8.5390   24.4580 C   0  0  0  0  0  0  0  0  0  0  0  0
   10.8920    8.1970   25.0050 C   0  0  0  0  0  0  0  0  0  0  0  0
   11.6570    7.1440   24.4890 C   0  0  0  0  0  0  0  0  0  0  0  0
   11.1700    6.4370   23.3990 C   0  0  0  0  0  0  0  0  0  0  0  0
    8.9530    9.5970   24.9970 C   0  0  0  0  0  0  0  0  0  0  0  0
    9.4000   10.3510   26.0750 C   0  0  0  0  0  0  0  0  0  0  0  0
   10.6710    9.9980   26.6520 C   0  0  0  0  0  0  0  0  0  0  0  0
   11.3600    8.9340   26.0900 C   0  0  0  0  0  0  0  0  0  0  0  0
    4.8400   -4.6770   24.0360 N   0  0  0  0  0  0  0  0  0  0  0  0
    5.6460   -4.3830   23.0020 C   0  0  0  0  0  0  0  0  0  0  0  0
    5.8850   -3.0800   22.5500 C   0  0  0  0  0  0  0  0  0  0  0  0
    5.2680   -2.0460   23.2070 C   0  0  0  0  0  0  0  0  0  0  0  0
    4.4260   -2.3060   24.2880 C   0  0  0  0  0  0  0  0  0  0  0  0
    4.2440   -3.6480   24.6620 C   0  0  0  0  0  0  0  0  0  0  0  0
  1  2  1  0
  3  5  1  0
  4  5  2  0
  5  6  1  0
  7 11  1  0
  8 11  1  0
  9 11  2  0
  1 12  1  0
  7 13  1  0
 12 13  1  0
  3 15  1  0
 14 15  2  0
 15 16  1  0
  2 17  1  0
 16 17  2  0
 17 18  1  0
 14 19  1  0
 18 19  2  0
 20 21  2  0
 21 22  1  0
 22 23  2  0
 23 24  1  0
  6 25  1  0
 20 25  1  0
 24 25  2  0
 22 26  1  0
 26 27  2  0
 27 28  1  0
 23 29  1  0
 28 29  2  0
 10 31  1  0
 30 31  2  0
  7 32  1  0
 31 32  1  0
 32 33  2  0
 33 34  1  0
 30 35  1  0
 34 35  2  0
M  END
