x1478-x0991
     RDKit          3D

 17 17  0  0  0  0  0  0  0  0999 V2000
    6.8770   -2.8410   21.5420 N   0  0  0  0  0  0  0  0  0  0  0  0
    7.8130   -3.7650   19.5770 C   0  0  0  0  0  0  0  0  0  0  0  0
    5.5950   -3.4510   19.5280 O   0  0  0  0  0  0  0  0  0  0  0  0
    5.9680   -5.8990   22.2000 Cl  0  0  0  0  0  0  0  0  0  0  0  0
    6.6670   -3.2910   20.2260 C   0  0  0  0  0  0  0  0  0  0  0  0
   10.0730   -5.4490   25.0710 N   0  0  0  0  0  0  0  0  0  0  0  0
    8.4930   -3.2580   23.5580 C   0  0  0  0  0  0  0  0  0  0  0  0
    8.0640   -4.6220   24.0050 C   0  0  0  0  0  0  0  0  0  0  0  0
    8.0960   -5.1900   26.5490 N   0  0  0  0  0  0  0  0  0  0  0  0
    8.7620   -5.0950   25.2450 C   0  0  0  0  0  0  0  0  0  0  0  0
    8.2770   -2.9740   22.0120 C   0  0  0  0  0  0  0  0  0  0  0  0
    4.5450   -4.6250   23.8710 N   0  0  0  0  0  0  0  0  0  0  0  0
    5.4540   -4.4190   22.9110 C   0  0  0  0  0  0  0  0  0  0  0  0
    5.9040   -3.1450   22.5700 C   0  0  0  0  0  0  0  0  0  0  0  0
    5.4130   -2.0650   23.2250 C   0  0  0  0  0  0  0  0  0  0  0  0
    4.4780   -2.2510   24.2230 C   0  0  0  0  0  0  0  0  0  0  0  0
    4.0820   -3.5200   24.5000 C   0  0  0  0  0  0  0  0  0  0  0  0
  1  5  1  0
  2  5  1  0
  3  5  2  0
  7  8  1  0
  6 10  2  3
  8 10  1  0
  9 10  1  0
  1 11  1  0
  7 11  1  0
  4 13  1  0
 12 13  2  0
  1 14  1  0
 13 14  1  0
 14 15  2  0
 15 16  1  0
 12 17  1  0
 16 17  2  0
M  END
