x1478-x0395
     RDKit          3D

 27 29  0  0  0  0  0  0  0  0999 V2000
    6.6830   -2.8410   21.4030 N   0  0  0  0  0  0  0  0  0  0  0  0
    7.6520   -3.6550   19.4470 C   0  0  0  0  0  0  0  0  0  0  0  0
    5.3870   -3.5210   19.4820 O   0  0  0  0  0  0  0  0  0  0  0  0
    6.1690   -5.9730   22.2800 Cl  0  0  0  0  0  0  0  0  0  0  0  0
    6.4620   -3.2950   20.1240 C   0  0  0  0  0  0  0  0  0  0  0  0
    9.1110   -5.4940   26.0200 C   0  0  0  0  0  0  0  0  0  0  0  0
    8.9720   -0.8870   23.3000 C   0  0  1  0  0  0  0  0  0  0  0  0
   13.4060   -1.7780   21.7920 F   0  0  0  0  0  0  0  0  0  0  0  0
    8.0740   -2.5710   21.7280 C   0  0  0  0  0  0  0  0  0  0  0  0
    8.2360   -1.1020   22.0730 C   0  0  0  0  0  0  0  0  0  0  0  0
    4.6840   -4.6220   23.8910 N   0  0  0  0  0  0  0  0  0  0  0  0
    5.5460   -4.4810   22.8740 C   0  0  0  0  0  0  0  0  0  0  0  0
    5.7690   -3.1400   22.5000 C   0  0  0  0  0  0  0  0  0  0  0  0
    5.1890   -2.0710   23.1020 C   0  0  0  0  0  0  0  0  0  0  0  0
    4.3170   -2.2660   24.1450 C   0  0  0  0  0  0  0  0  0  0  0  0
    4.1120   -3.5560   24.4830 C   0  0  0  0  0  0  0  0  0  0  0  0
    8.8820   -4.1070   25.5340 C   0  0  0  0  0  0  0  0  0  0  0  0
    8.1740   -3.1270   26.2440 N   0  0  0  0  0  0  0  0  0  0  0  0
    8.1260   -1.9290   25.5710 N   0  0  0  0  0  0  0  0  0  0  0  0
    8.8370   -2.0210   24.2800 C   0  0  0  0  0  0  0  0  0  0  0  0
    9.5010   -3.5880   24.0230 S   0  0  0  0  0  0  0  0  0  0  0  0
   10.9690    0.4430   23.9880 C   0  0  0  0  0  0  0  0  0  0  0  0
   12.0040    1.1940   23.2920 C   0  0  0  0  0  0  0  0  0  0  0  0
   12.9440    0.3260   22.7590 C   0  0  0  0  0  0  0  0  0  0  0  0
   12.5150   -0.9310   22.3240 C   0  0  0  0  0  0  0  0  0  0  0  0
   11.1720   -1.3130   22.4270 C   0  0  0  0  0  0  0  0  0  0  0  0
   10.3270   -0.4160   22.9860 N   0  0  0  0  0  0  0  0  0  0  0  0
  1  5  1  0
  2  5  1  0
  3  5  2  0
  1  9  1  0
  7 10  1  6
  9 10  1  0
  4 12  1  0
 11 12  2  0
  1 13  1  0
 12 13  1  0
 13 14  2  0
 14 15  1  0
 11 16  1  0
 15 16  2  0
  6 17  1  0
 17 18  2  0
 18 19  1  0
  7 20  1  0
 19 20  2  0
 17 21  1  0
 20 21  1  0
 22 23  1  0
 23 24  1  0
  8 25  1  0
 24 25  2  0
 25 26  1  0
  7 27  1  0
 22 27  1  0
 26 27  1  0
M  END
