x1478-x2569
     RDKit          3D

 31 33  0  0  0  0  0  0  0  0999 V2000
    8.4350    0.6890   21.7610 C   0  0  0  0  0  0  0  0  0  0  0  0
    9.1590    1.5680   21.2930 O   0  0  0  0  0  0  0  0  0  0  0  0
    8.8340    0.2360   22.9370 C   0  0  0  0  0  0  0  0  0  0  0  0
   13.7550   -1.4960   20.6300 N   0  0  0  0  0  0  0  0  0  0  0  0
    7.2270    0.1190   21.2160 N   0  0  0  0  0  0  0  0  0  0  0  0
   12.9830   -2.2160   21.6130 C   0  0  0  0  0  0  0  0  0  0  0  0
    6.7650   -3.0190   21.5400 N   0  0  0  0  0  0  0  0  0  0  0  0
    7.9100   -3.6300   19.6490 C   0  0  0  0  0  0  0  0  0  0  0  0
    5.5770   -3.7560   19.6580 O   0  0  0  0  0  0  0  0  0  0  0  0
    6.3110   -6.0080   22.1780 Cl  0  0  0  0  0  0  0  0  0  0  0  0
    6.6490   -3.4560   20.2880 C   0  0  0  0  0  0  0  0  0  0  0  0
    6.7240   -0.8410   21.9080 C   0  0  0  0  0  0  0  0  0  0  0  0
    7.5950   -2.0530   21.7700 C   0  0  0  0  0  0  0  0  0  0  0  0
   12.3430    0.5220   24.0890 N   0  0  0  0  0  0  0  0  0  0  0  0
   12.8790   -0.4110   23.3270 C   0  0  0  0  0  0  0  0  0  0  0  0
   12.2360   -1.2000   22.4090 C   0  0  0  0  0  0  0  0  0  0  0  0
   10.8690   -1.0010   22.2600 C   0  0  0  0  0  0  0  0  0  0  0  0
   10.2910   -0.0540   23.0230 C   0  0  0  0  0  0  0  0  0  0  0  0
   11.0360    0.6880   23.9210 C   0  0  0  0  0  0  0  0  0  0  0  0
    6.2760    0.6710   17.6320 N   0  0  0  0  0  0  0  0  0  0  0  0
    6.9250    0.2380   18.7210 C   0  0  0  0  0  0  0  0  0  0  0  0
    6.4960    0.5860   20.0750 C   0  0  0  0  0  0  0  0  0  0  0  0
    5.3060    1.4200   20.2080 C   0  0  0  0  0  0  0  0  0  0  0  0
    4.6160    1.8730   18.9530 C   0  0  0  0  0  0  0  0  0  0  0  0
    5.1960    1.4430   17.7790 C   0  0  0  0  0  0  0  0  0  0  0  0
    4.7120   -4.9730   23.8890 N   0  0  0  0  0  0  0  0  0  0  0  0
    5.5810   -4.6300   22.9140 C   0  0  0  0  0  0  0  0  0  0  0  0
    5.8440   -3.3410   22.5680 C   0  0  0  0  0  0  0  0  0  0  0  0
    5.2220   -2.2940   23.2160 C   0  0  0  0  0  0  0  0  0  0  0  0
    4.3350   -2.6050   24.2110 C   0  0  0  0  0  0  0  0  0  0  0  0
    4.1040   -3.9400   24.5190 C   0  0  0  0  0  0  0  0  0  0  0  0
  1  2  2  0
  1  3  1  0
  1  5  1  0
  4  6  3  0
  7 11  1  0
  8 11  1  0
  9 11  2  0
  5 12  1  0
  7 13  1  0
 12 13  1  0
 14 15  2  0
  6 16  1  0
 15 16  1  0
 16 17  2  0
  3 18  1  0
 17 18  1  0
 14 19  1  0
 18 19  2  0
 20 21  2  0
  5 22  1  0
 21 22  1  0
 22 23  2  0
 23 24  1  0
 20 25  1  0
 24 25  2  0
 10 27  1  0
 26 27  2  0
  7 28  1  0
 27 28  1  0
 28 29  2  0
 29 30  1  0
 26 31  1  0
 30 31  2  0
M  END
