x1478-x3108
     RDKit          3D

 34 36  0  0  0  0  0  0  0  0999 V2000
    5.8620    1.7720   22.1240 C   0  0  0  0  0  0  0  0  0  0  0  0
    9.1010    1.7390   21.3580 O   0  0  0  0  0  0  0  0  0  0  0  0
    7.9440   -0.3120   21.3360 N   0  0  0  0  0  0  0  0  0  0  0  0
    8.2060    0.2600   25.3300 O   0  0  0  0  0  0  0  0  0  0  0  0
    9.4380   -1.0580   23.6770 N   0  0  0  0  0  0  0  0  0  0  0  0
    8.9280    0.5940   21.8240 C   0  0  0  0  0  0  0  0  0  0  0  0
    9.8730    0.1200   22.9470 C   0  0  0  0  0  0  0  0  0  0  0  0
    8.4280   -0.9390   24.6040 C   0  0  0  0  0  0  0  0  0  0  0  0
    7.5650   -2.1350   24.7960 C   0  0  0  0  0  0  0  0  0  0  0  0
    5.9990   -2.5460   21.3050 N   0  0  0  0  0  0  0  0  0  0  0  0
    7.5090   -3.4230   19.7360 C   0  0  0  0  0  0  0  0  0  0  0  0
    5.2050   -3.5010   19.3170 O   0  0  0  0  0  0  0  0  0  0  0  0
    5.6830   -5.7760   22.1100 Cl  0  0  0  0  0  0  0  0  0  0  0  0
    6.1390   -3.1520   20.0680 C   0  0  0  0  0  0  0  0  0  0  0  0
    8.5350   -1.4780   20.7270 C   0  0  0  0  0  0  0  0  0  0  0  0
    8.2110   -2.7820   20.9670 C   0  0  0  0  0  0  0  0  0  0  0  0
    6.2730    0.2660   17.9900 N   0  0  0  0  0  0  0  0  0  0  0  0
    7.1090   -0.1860   19.0950 C   0  0  0  0  0  0  0  0  0  0  0  0
    7.0150    0.2570   20.3840 C   0  0  0  0  0  0  0  0  0  0  0  0
    6.0590    1.2170   20.7460 C   0  0  0  0  0  0  0  0  0  0  0  0
    5.2350    1.6720   19.7130 C   0  0  0  0  0  0  0  0  0  0  0  0
    5.3650    1.1780   18.3370 C   0  0  0  0  0  0  0  0  0  0  0  0
    9.8690   -5.1570   24.7500 N   0  0  0  0  0  0  0  0  0  0  0  0
    9.2040   -4.0280   24.4270 C   0  0  0  0  0  0  0  0  0  0  0  0
    8.2620   -3.3860   25.2470 C   0  0  0  0  0  0  0  0  0  0  0  0
    8.0000   -3.9710   26.5030 C   0  0  0  0  0  0  0  0  0  0  0  0
    8.7000   -5.1360   26.8060 C   0  0  0  0  0  0  0  0  0  0  0  0
    9.5870   -5.6890   25.9550 C   0  0  0  0  0  0  0  0  0  0  0  0
    4.7380   -4.6440   24.1600 N   0  0  0  0  0  0  0  0  0  0  0  0
    5.2800   -4.3430   22.9630 C   0  0  0  0  0  0  0  0  0  0  0  0
    5.4660   -3.0330   22.5190 C   0  0  0  0  0  0  0  0  0  0  0  0
    5.0930   -1.9880   23.3250 C   0  0  0  0  0  0  0  0  0  0  0  0
    4.5390   -2.2580   24.5540 C   0  0  0  0  0  0  0  0  0  0  0  0
    4.3760   -3.5970   24.9340 C   0  0  0  0  0  0  0  0  0  0  0  0
  2  6  2  0
  3  6  1  0
  5  7  1  0
  6  7  1  0
  4  8  2  0
  5  8  1  0
  8  9  1  0
 10 14  1  0
 11 14  1  0
 12 14  2  0
  3 15  1  0
 11 16  1  0
 15 16  1  0
 17 18  2  0
  3 19  1  0
 18 19  1  0
  1 20  1  0
 19 20  2  0
 20 21  1  0
 17 22  1  0
 21 22  2  0
 23 24  2  0
  9 25  1  0
 24 25  1  0
 25 26  2  0
 26 27  1  0
 23 28  1  0
 27 28  2  0
 13 30  1  0
 29 30  2  0
 10 31  1  0
 30 31  1  0
 31 32  2  0
 32 33  1  0
 29 34  1  0
 33 34  2  0
M  END
