x1478-x2908
     RDKit          3D

 30 32  0  0  0  0  0  0  0  0999 V2000
    4.8390    1.1210   21.5360 C   0  0  0  0  0  0  0  0  0  0  0  0
    8.7460    1.5070   21.0550 O   0  0  0  0  0  0  0  0  0  0  0  0
   13.1680   -2.4280   21.3150 Cl  0  0  0  0  0  0  0  0  0  0  0  0
    7.2010   -0.4830   20.9050 N   0  0  0  0  0  0  0  0  0  0  0  0
    8.7820   -0.3510   22.7190 N   0  0  0  0  0  0  0  0  0  0  0  0
    8.2340    0.2470   21.5410 C   0  0  0  0  0  0  0  0  0  0  0  0
    6.4930   -2.7360   21.5350 N   0  0  0  0  0  0  0  0  0  0  0  0
    7.8600   -3.5570   19.7630 C   0  0  0  0  0  0  0  0  0  0  0  0
    5.5240   -3.7090   19.6340 O   0  0  0  0  0  0  0  0  0  0  0  0
    6.2730   -5.9840   22.0540 Cl  0  0  0  0  0  0  0  0  0  0  0  0
    6.5410   -3.3260   20.3130 C   0  0  0  0  0  0  0  0  0  0  0  0
    6.3810   -1.3040   21.7330 C   0  0  0  0  0  0  0  0  0  0  0  0
    6.2740    0.7840   17.4570 N   0  0  0  0  0  0  0  0  0  0  0  0
    6.9900    0.0730   18.4730 C   0  0  0  0  0  0  0  0  0  0  0  0
    6.5200    0.1860   19.8540 C   0  0  0  0  0  0  0  0  0  0  0  0
    5.3920    0.9740   20.0730 C   0  0  0  0  0  0  0  0  0  0  0  0
    4.6910    1.6620   19.1140 C   0  0  0  0  0  0  0  0  0  0  0  0
    5.1170    1.5900   17.7960 C   0  0  0  0  0  0  0  0  0  0  0  0
   10.7560    0.6500   23.7250 C   0  0  0  0  0  0  0  0  0  0  0  0
   12.1340    0.6540   23.8260 C   0  0  0  0  0  0  0  0  0  0  0  0
   12.8250   -0.2820   23.0920 C   0  0  0  0  0  0  0  0  0  0  0  0
   12.2740   -1.3060   22.2030 C   0  0  0  0  0  0  0  0  0  0  0  0
   10.8320   -1.3130   22.1000 C   0  0  0  0  0  0  0  0  0  0  0  0
   10.1180   -0.2690   22.9110 C   0  0  0  0  0  0  0  0  0  0  0  0
    4.8760   -5.0770   23.9620 N   0  0  0  0  0  0  0  0  0  0  0  0
    5.6040   -4.6570   22.9130 C   0  0  0  0  0  0  0  0  0  0  0  0
    5.7450   -3.2940   22.6330 C   0  0  0  0  0  0  0  0  0  0  0  0
    5.1440   -2.3800   23.4370 C   0  0  0  0  0  0  0  0  0  0  0  0
    4.4020   -2.7660   24.5150 C   0  0  0  0  0  0  0  0  0  0  0  0
    4.2980   -4.1260   24.7310 C   0  0  0  0  0  0  0  0  0  0  0  0
  2  6  2  0
  4  6  1  0
  5  6  1  0
  7 11  1  0
  8 11  1  0
  9 11  2  0
  4 12  1  0
  7 12  1  0
 13 14  2  0
  4 15  1  0
 14 15  1  0
  1 16  1  0
 15 16  2  0
 16 17  1  0
 13 18  1  0
 17 18  2  0
 19 20  2  0
 20 21  1  0
  3 22  1  0
 21 22  2  0
 22 23  1  0
  5 24  1  0
 19 24  1  0
 23 24  2  0
 10 26  1  0
 25 26  2  0
  7 27  1  0
 26 27  1  0
 27 28  2  0
 28 29  1  0
 25 30  1  0
 29 30  2  0
M  END
