x1493-x0689
     RDKit          3D

 18 19  0  0  0  0  0  0  0  0999 V2000
    7.4280   -3.3740   19.9370 C   0  0  0  0  0  0  0  0  0  0  0  0
    5.2830   -4.4100   19.8300 O   0  0  0  0  0  0  0  0  0  0  0  0
    6.4170   -4.4190   20.3440 C   0  0  0  0  0  0  0  0  0  0  0  0
    5.6970   -5.6690   25.9350 O   0  0  0  0  0  0  0  0  0  0  0  0
    5.1490   -5.1980   26.8890 C   0  0  0  0  0  0  0  0  0  0  0  0
    4.7340   -4.7690   25.2510 S   0  0  1  0  0  0  0  0  0  0  0  0
    5.4210   -5.4800   27.9650 O   0  0  0  0  0  0  0  0  0  0  0  0
    6.6910   -5.3900   21.3290 N   0  0  0  0  0  0  0  0  0  0  0  0
    5.6740   -6.4140   21.6840 C   0  0  0  0  0  0  0  0  0  0  0  0
    4.7270   -5.9490   22.7390 C   0  0  0  0  0  0  0  0  0  0  0  0
    5.3550   -5.1170   23.8050 N   0  0  0  0  0  0  0  0  0  0  0  0
    6.4900   -4.2620   23.4360 C   0  0  0  0  0  0  0  0  0  0  0  0
    7.4250   -4.9010   22.4840 C   0  0  0  0  0  0  0  0  0  0  0  0
    3.7620   -2.0840   26.0090 S   0  0  0  0  0  0  0  0  0  0  0  0
    3.4120   -3.6760   25.5070 C   0  0  0  0  0  0  0  0  0  0  0  0
    2.0690   -3.7930   25.3590 C   0  0  0  0  0  0  0  0  0  0  0  0
    1.3190   -2.6740   25.6260 C   0  0  0  0  0  0  0  0  0  0  0  0
    2.1010   -1.6330   26.0010 C   0  0  0  0  0  0  0  0  0  0  0  0
  1  3  1  0
  2  3  2  0
  4  6  2  0
  5  6  2  0
  5  7  2  0
  3  8  1  0
  8  9  1  0
  9 10  1  0
  6 11  1  0
 10 11  1  0
 11 12  1  0
  8 13  1  0
 12 13  1  0
  6 15  1  6
 14 15  1  0
 15 16  2  0
 16 17  1  0
 14 18  1  0
 17 18  2  0
M  END
