x1493-x2193
     RDKit          3D

 28 30  0  0  0  0  0  0  0  0999 V2000
    4.4690   -6.1980   25.9990 C   0  0  0  0  0  0  0  0  0  0  0  0
    6.7910   -5.4830   26.3900 N   0  0  0  0  0  0  0  0  0  0  0  0
    5.7480   -5.6150   25.4800 C   0  0  0  0  0  0  0  0  0  0  0  0
    5.4350   -4.2660   19.8460 O   0  0  0  0  0  0  0  0  0  0  0  0
    6.5730   -4.2250   20.3750 C   0  0  0  0  0  0  0  0  0  0  0  0
    7.6400   -3.3820   19.7490 C   0  0  0  0  0  0  0  0  0  0  0  0
   10.9730    2.5680   23.0160 C   0  0  0  0  0  0  0  0  0  0  0  0
    9.2430    1.7950   21.0920 O   0  0  0  0  0  0  0  0  0  0  0  0
    8.3370    2.5930   23.3850 O   0  0  0  0  0  0  0  0  0  0  0  0
    9.3850    1.8990   22.5700 S   0  0  0  0  0  0  0  0  0  0  0  0
    5.8900   -5.2260   24.1340 N   0  0  0  0  0  0  0  0  0  0  0  0
    6.7070   -4.0690   23.6950 C   0  0  0  0  0  0  0  0  0  0  0  0
    7.5860   -4.3900   22.4970 C   0  0  0  0  0  0  0  0  0  0  0  0
    6.8280   -5.0030   21.5070 N   0  0  0  0  0  0  0  0  0  0  0  0
    6.0510   -6.0390   21.9360 C   0  0  0  0  0  0  0  0  0  0  0  0
    5.1960   -5.9050   23.0260 C   0  0  0  0  0  0  0  0  0  0  0  0
    9.4520    0.3080   23.1190 C   0  0  0  0  0  0  0  0  0  0  0  0
    9.0630    0.1140   24.3720 C   0  0  0  0  0  0  0  0  0  0  0  0
    9.0240   -1.0930   25.0320 C   0  0  0  0  0  0  0  0  0  0  0  0
    9.4280   -2.2370   24.3570 C   0  0  0  0  0  0  0  0  0  0  0  0
    9.8900   -2.1450   22.9410 C   0  0  0  0  0  0  0  0  0  0  0  0
    9.8710   -0.7870   22.3730 C   0  0  0  0  0  0  0  0  0  0  0  0
    8.9770   -5.9800   25.7980 N   0  0  0  0  0  0  0  0  0  0  0  0
    7.9620   -4.9720   25.8500 C   0  0  2  0  0  0  0  0  0  0  0  0
    8.5700   -3.7900   26.1720 C   0  0  0  0  0  0  0  0  0  0  0  0
    9.4090   -3.4530   24.9920 N   0  0  0  0  0  0  0  0  0  0  0  0
   10.2290   -4.5610   24.5090 C   0  0  0  0  0  0  0  0  0  0  0  0
    9.4770   -5.6990   24.6010 C   0  0  0  0  0  0  0  0  0  0  0  0
  1  3  1  0
  2  3  2  3
  4  5  2  0
  5  6  1  0
 10  7  1  0
  8 10  2  0
  9 10  2  0
  3 11  1  0
 11 12  1  0
 12 13  1  0
  5 14  1  0
 13 14  1  0
 14 15  1  0
 11 16  1  0
 15 16  1  0
 10 17  1  0
 17 18  2  0
 18 19  1  0
 19 20  2  0
 20 21  1  0
 17 22  1  0
 21 22  2  0
 24  2  1  1
 23 24  1  0
 24 25  1  0
 20 26  1  0
 25 26  1  0
 26 27  1  0
 23 28  1  0
 27 28  1  0
M  END
