x1493-x0755
     RDKit          3D

 20 21  0  0  0  0  0  0  0  0999 V2000
    4.3860   -6.3730   26.1030 O   0  0  0  0  0  0  0  0  0  0  0  0
    6.2180   -4.7330   26.8140 O   0  0  0  0  0  0  0  0  0  0  0  0
    5.6000   -4.5310   19.9400 O   0  0  0  0  0  0  0  0  0  0  0  0
    6.6430   -4.5310   20.6570 C   0  0  0  0  0  0  0  0  0  0  0  0
    7.8210   -3.6630   20.3520 C   0  0  0  0  0  0  0  0  0  0  0  0
    2.0670   -5.4370   25.6960 F   0  0  0  0  0  0  0  0  0  0  0  0
    5.6120   -1.9910   26.0940 F   0  0  0  0  0  0  0  0  0  0  0  0
    5.0990   -5.1320   25.9020 S   0  0  0  0  0  0  0  0  0  0  0  0
    2.4600   -4.1580   25.7890 C   0  0  0  0  0  0  0  0  0  0  0  0
    3.9140   -3.8360   25.8950 C   0  0  0  0  0  0  0  0  0  0  0  0
    4.3500   -2.4170   25.9960 C   0  0  0  0  0  0  0  0  0  0  0  0
    3.1710   -1.4340   25.9780 C   0  0  0  0  0  0  0  0  0  0  0  0
    1.7140   -1.8380   25.8710 C   0  0  0  0  0  0  0  0  0  0  0  0
    1.4290   -3.1980   25.7790 C   0  0  0  0  0  0  0  0  0  0  0  0
    6.7140   -5.3750   21.7960 N   0  0  0  0  0  0  0  0  0  0  0  0
    7.5870   -5.1200   22.8670 C   0  0  0  0  0  0  0  0  0  0  0  0
    7.0590   -4.6010   24.0530 C   0  0  0  0  0  0  0  0  0  0  0  0
    5.7010   -5.1450   24.3330 N   0  0  0  0  0  0  0  0  0  0  0  0
    4.9290   -5.5690   23.3120 C   0  0  0  0  0  0  0  0  0  0  0  0
    5.5750   -6.0880   22.1750 C   0  0  0  0  0  0  0  0  0  0  0  0
  3  4  2  0
  4  5  1  0
  1  8  2  0
  2  8  2  0
  6  9  1  0
  8 10  1  0
  9 10  2  0
  7 11  1  0
 10 11  1  0
 11 12  2  0
 12 13  1  0
  9 14  1  0
 13 14  2  0
  4 15  1  0
 15 16  1  0
 16 17  1  0
  8 18  1  0
 17 18  1  0
 18 19  1  0
 15 20  1  0
 19 20  1  0
M  END
