x1493-x2572
     RDKit          3D

 33 35  0  0  0  0  0  0  0  0999 V2000
    4.4110    1.2860   21.5080 C   0  0  0  0  0  0  0  0  0  0  0  0
    8.6780    1.3850   21.2210 O   0  0  0  0  0  0  0  0  0  0  0  0
    6.8640   -0.2440   21.1940 N   0  0  0  0  0  0  0  0  0  0  0  0
   13.6080   -2.3550   20.7480 N   0  0  0  0  0  0  0  0  0  0  0  0
    8.0930    0.3840   21.6890 C   0  0  0  0  0  0  0  0  0  0  0  0
    8.6270   -0.3910   22.9090 C   0  0  0  0  0  0  0  0  0  0  0  0
   13.0320   -1.7460   21.4740 C   0  0  0  0  0  0  0  0  0  0  0  0
    4.7200   -6.3230   26.0760 C   0  0  0  0  0  0  0  0  0  0  0  0
    6.9590   -5.4770   26.3400 O   0  0  0  0  0  0  0  0  0  0  0  0
    5.9910   -5.6060   25.5910 C   0  0  0  0  0  0  0  0  0  0  0  0
    5.7160   -4.3630   19.8880 O   0  0  0  0  0  0  0  0  0  0  0  0
    6.7740   -4.4180   20.5930 C   0  0  0  0  0  0  0  0  0  0  0  0
    8.0060   -3.6610   20.2700 C   0  0  0  0  0  0  0  0  0  0  0  0
    6.8090   -1.6810   21.0890 C   0  0  0  0  0  0  0  0  0  0  0  0
    7.7990   -2.1760   20.3010 C   0  0  0  0  0  0  0  0  0  0  0  0
    6.3690    0.7390   17.7120 N   0  0  0  0  0  0  0  0  0  0  0  0
    6.8550    0.2040   18.8300 C   0  0  0  0  0  0  0  0  0  0  0  0
    6.2750    0.3500   20.0930 C   0  0  0  0  0  0  0  0  0  0  0  0
    5.1120    1.0850   20.1970 C   0  0  0  0  0  0  0  0  0  0  0  0
    4.4940    1.7130   19.0250 C   0  0  0  0  0  0  0  0  0  0  0  0
    5.2380    1.4670   17.7930 C   0  0  0  0  0  0  0  0  0  0  0  0
   10.7090    0.6330   23.8440 C   0  0  0  0  0  0  0  0  0  0  0  0
   12.0790    0.7380   23.9000 C   0  0  0  0  0  0  0  0  0  0  0  0
   12.8600   -0.0660   23.1060 C   0  0  0  0  0  0  0  0  0  0  0  0
   12.2570   -0.9430   22.2900 C   0  0  0  0  0  0  0  0  0  0  0  0
   10.8970   -1.0890   22.1990 C   0  0  0  0  0  0  0  0  0  0  0  0
   10.1080   -0.2870   22.9830 C   0  0  0  0  0  0  0  0  0  0  0  0
    6.0110   -5.1240   24.2940 N   0  0  0  0  0  0  0  0  0  0  0  0
    7.0750   -4.2360   23.8340 C   0  0  0  0  0  0  0  0  0  0  0  0
    7.7630   -4.7780   22.7670 C   0  0  0  0  0  0  0  0  0  0  0  0
    6.8280   -5.2090   21.7220 N   0  0  0  0  0  0  0  0  0  0  0  0
    5.8210   -6.1570   22.1780 C   0  0  0  0  0  0  0  0  0  0  0  0
    5.0900   -5.6850   23.2830 C   0  0  0  0  0  0  0  0  0  0  0  0
  2  5  2  0
  3  5  1  0
  5  6  1  0
  4  7  3  0
  8 10  1  0
  9 10  2  0
 11 12  2  0
 12 13  1  0
  3 14  1  0
 13 15  1  0
 14 15  1  0
 16 17  2  0
  3 18  1  0
 17 18  1  0
  1 19  1  0
 18 19  2  0
 19 20  1  0
 16 21  1  0
 20 21  2  0
 22 23  2  0
 23 24  1  0
  7 25  1  0
 24 25  2  0
 25 26  1  0
  6 27  1  0
 22 27  1  0
 26 27  2  0
 10 28  1  0
 28 29  1  0
 29 30  1  0
 12 31  1  0
 30 31  1  0
 31 32  1  0
 28 33  1  0
 32 33  1  0
M  END
