x1493-x0354
     RDKit          3D

 32 34  0  0  0  0  0  0  0  0999 V2000
    4.1610   -6.3510   25.6960 C   0  0  0  0  0  0  0  0  0  0  0  0
    6.1880   -5.2910   26.5040 N   0  0  0  0  0  0  0  0  0  0  0  0
    5.4420   -5.6410   25.3980 C   0  0  0  0  0  0  0  0  0  0  0  0
    5.3240   -4.5590   19.9100 O   0  0  0  0  0  0  0  0  0  0  0  0
    6.4520   -4.3860   20.4190 C   0  0  0  0  0  0  0  0  0  0  0  0
    7.3620   -3.3560   19.8690 C   0  0  0  0  0  0  0  0  0  0  0  0
   13.0190   -1.4800   22.2840 C   0  0  0  0  0  0  0  0  0  0  0  0
    7.6540   -2.3430   26.0530 N   0  0  0  0  0  0  0  0  0  0  0  0
    7.5040   -0.5070   27.7460 O   0  0  0  0  0  0  0  0  0  0  0  0
    8.7940   -1.4010   25.9290 C   0  0  0  0  0  0  0  0  0  0  0  0
    8.5690   -0.2170   26.8430 C   0  0  0  0  0  0  0  0  0  0  0  0
    5.6650    3.8530   30.7890 C   0  0  0  0  0  0  0  0  0  0  0  0
    7.3850   -4.6600   26.2720 C   0  0  0  0  0  0  0  0  0  0  0  0
    7.4230   -3.5550   25.4050 C   0  0  0  0  0  0  0  0  0  0  0  0
    5.8500   -5.3590   24.0900 N   0  0  0  0  0  0  0  0  0  0  0  0
    6.7560   -4.4160   23.7350 C   0  0  0  0  0  0  0  0  0  0  0  0
    7.6040   -4.6760   22.6560 C   0  0  0  0  0  0  0  0  0  0  0  0
    6.8650   -5.1700   21.5050 N   0  0  0  0  0  0  0  0  0  0  0  0
    5.9890   -6.2820   21.8690 C   0  0  0  0  0  0  0  0  0  0  0  0
    5.0870   -5.9250   22.9720 C   0  0  0  0  0  0  0  0  0  0  0  0
   12.2290   -1.5930   23.4920 N   0  0  0  0  0  0  0  0  0  0  0  0
   11.2310   -2.4820   23.3350 C   0  0  0  0  0  0  0  0  0  0  0  0
    9.9340   -2.2650   23.8340 C   0  0  0  0  0  0  0  0  0  0  0  0
    9.9500   -1.5220   25.1170 N   0  0  0  0  0  0  0  0  0  0  0  0
   10.8900   -0.4060   25.0610 C   0  0  0  0  0  0  0  0  0  0  0  0
   11.6350   -0.3220   23.8880 C   0  0  0  0  0  0  0  0  0  0  0  0
    7.7120    1.6980   28.4810 C   0  0  0  0  0  0  0  0  0  0  0  0
    7.2930    2.7980   29.2190 C   0  0  0  0  0  0  0  0  0  0  0  0
    6.1390    2.6840   29.9820 C   0  0  0  0  0  0  0  0  0  0  0  0
    5.4090    1.4950   30.0100 C   0  0  0  0  0  0  0  0  0  0  0  0
    5.8430    0.4040   29.2660 C   0  0  0  0  0  0  0  0  0  0  0  0
    7.0030    0.5100   28.5000 C   0  0  0  0  0  0  0  0  0  0  0  0
  1  3  1  0
  2  3  2  3
  4  5  2  0
  5  6  1  0
  8 10  2  3
  9 11  1  0
 10 11  1  0
  2 13  1  0
  8 14  1  0
 13 14  1  0
  3 15  1  0
 15 16  1  0
 16 17  1  0
  5 18  1  0
 17 18  1  0
 18 19  1  0
 15 20  1  0
 19 20  1  0
  7 21  1  0
 21 22  1  0
 22 23  1  0
 10 24  1  0
 23 24  1  0
 24 25  1  0
 21 26  1  0
 25 26  1  0
 27 28  2  0
 12 29  1  0
 28 29  1  0
 29 30  2  0
 30 31  1  0
  9 32  1  0
 27 32  1  0
 31 32  2  0
M  END
