x1493-x2569
     RDKit          3D

 32 34  0  0  0  0  0  0  0  0999 V2000
    4.8460   -6.3100   26.2690 C   0  0  0  0  0  0  0  0  0  0  0  0
    7.0500   -5.3670   26.1740 O   0  0  0  0  0  0  0  0  0  0  0  0
    5.9930   -5.5650   25.5780 C   0  0  0  0  0  0  0  0  0  0  0  0
    5.5310   -4.5680   19.9390 O   0  0  0  0  0  0  0  0  0  0  0  0
    6.6020   -4.4520   20.5980 C   0  0  0  0  0  0  0  0  0  0  0  0
    7.7220   -3.5810   20.1740 C   0  0  0  0  0  0  0  0  0  0  0  0
    8.1970    0.4600   21.7390 C   0  0  0  0  0  0  0  0  0  0  0  0
    8.8130    1.4290   21.2280 O   0  0  0  0  0  0  0  0  0  0  0  0
    8.7250   -0.1770   23.0290 C   0  0  0  0  0  0  0  0  0  0  0  0
   13.4170   -2.9530   20.7750 N   0  0  0  0  0  0  0  0  0  0  0  0
    7.0450   -0.0900   21.1960 N   0  0  0  0  0  0  0  0  0  0  0  0
   12.9470   -2.1470   21.4350 C   0  0  0  0  0  0  0  0  0  0  0  0
    7.2570   -2.1420   20.0290 C   0  0  0  0  0  0  0  0  0  0  0  0
    7.0210   -1.5360   21.2290 C   0  0  0  0  0  0  0  0  0  0  0  0
    5.7850   -5.1470   24.2760 N   0  0  0  0  0  0  0  0  0  0  0  0
    6.5880   -4.0160   23.8150 C   0  0  0  0  0  0  0  0  0  0  0  0
    7.4550   -4.4360   22.9000 C   0  0  0  0  0  0  0  0  0  0  0  0
    6.7840   -5.1390   21.8000 N   0  0  0  0  0  0  0  0  0  0  0  0
    5.9490   -6.2450   22.2600 C   0  0  0  0  0  0  0  0  0  0  0  0
    5.1190   -5.8500   23.3170 C   0  0  0  0  0  0  0  0  0  0  0  0
   12.2600    0.7150   23.9070 N   0  0  0  0  0  0  0  0  0  0  0  0
   12.9240   -0.1730   23.1510 C   0  0  0  0  0  0  0  0  0  0  0  0
   12.2710   -1.1460   22.2900 C   0  0  0  0  0  0  0  0  0  0  0  0
   10.8920   -1.1450   22.2520 C   0  0  0  0  0  0  0  0  0  0  0  0
   10.2100   -0.2210   23.0370 C   0  0  0  0  0  0  0  0  0  0  0  0
   10.9210    0.6780   23.8410 C   0  0  0  0  0  0  0  0  0  0  0  0
    6.3310    0.7140   17.7220 N   0  0  0  0  0  0  0  0  0  0  0  0
    6.8790    0.2430   18.8410 C   0  0  0  0  0  0  0  0  0  0  0  0
    6.3820    0.4460   20.0940 C   0  0  0  0  0  0  0  0  0  0  0  0
    5.2220    1.1830   20.2070 C   0  0  0  0  0  0  0  0  0  0  0  0
    4.6170    1.6900   19.0660 C   0  0  0  0  0  0  0  0  0  0  0  0
    5.2080    1.4350   17.8390 C   0  0  0  0  0  0  0  0  0  0  0  0
  1  3  1  0
  2  3  2  0
  4  5  2  0
  5  6  1  0
  7  8  2  0
  7  9  1  0
  7 11  1  0
 10 12  3  0
  6 13  1  0
 11 14  1  0
 13 14  1  0
  3 15  1  0
 15 16  1  0
 16 17  1  0
  5 18  1  0
 17 18  1  0
 18 19  1  0
 15 20  1  0
 19 20  1  0
 21 22  2  0
 12 23  1  0
 22 23  1  0
 23 24  2  0
  9 25  1  0
 24 25  1  0
 21 26  1  0
 25 26  2  0
 27 28  2  0
 11 29  1  0
 28 29  1  0
 29 30  2  0
 30 31  1  0
 27 32  1  0
 31 32  2  0
M  END
