x1493-x0691
     RDKit          3D

 20 21  0  0  0  0  0  0  0  0999 V2000
    4.8020   -5.2950   26.8330 O   0  0  0  0  0  0  0  0  0  0  0  0
    6.0000   -5.9080   26.4210 C   0  0  0  0  0  0  0  0  0  0  0  0
    5.3950   -4.4370   19.8720 O   0  0  0  0  0  0  0  0  0  0  0  0
    6.4860   -4.4440   20.4860 C   0  0  0  0  0  0  0  0  0  0  0  0
    7.5490   -3.4640   20.1240 C   0  0  0  0  0  0  0  0  0  0  0  0
    2.9010   -0.5040   25.9700 F   0  0  0  0  0  0  0  0  0  0  0  0
    4.8060   -5.1210   25.4160 S   0  0  2  0  0  0  0  0  0  0  0  0
    6.7910   -6.4290   27.0870 O   0  0  0  0  0  0  0  0  0  0  0  0
    2.6490   -1.8100   25.8340 C   0  0  0  0  0  0  0  0  0  0  0  0
    3.7880   -2.7170   25.7160 C   0  0  0  0  0  0  0  0  0  0  0  0
    3.3890   -4.1810   25.5630 C   0  0  0  0  0  0  0  0  0  0  0  0
    1.9530   -4.6560   25.5390 C   0  0  0  0  0  0  0  0  0  0  0  0
    0.9660   -3.6710   25.6630 C   0  0  0  0  0  0  0  0  0  0  0  0
    1.2350   -2.3190   25.8030 C   0  0  0  0  0  0  0  0  0  0  0  0
    6.6660   -5.3780   21.5330 N   0  0  0  0  0  0  0  0  0  0  0  0
    5.5700   -6.3240   21.8240 C   0  0  0  0  0  0  0  0  0  0  0  0
    4.7910   -5.9070   22.8520 C   0  0  0  0  0  0  0  0  0  0  0  0
    5.6100   -5.5380   24.0360 N   0  0  0  0  0  0  0  0  0  0  0  0
    6.7080   -4.7270   23.7800 C   0  0  0  0  0  0  0  0  0  0  0  0
    7.5180   -5.0180   22.6890 C   0  0  0  0  0  0  0  0  0  0  0  0
  3  4  2  0
  4  5  1  0
  1  7  2  0
  2  7  2  0
  2  8  2  0
  6  9  1  0
  9 10  2  0
  7 11  1  1
 10 11  1  0
 11 12  2  0
 12 13  1  0
  9 14  1  0
 13 14  2  0
  4 15  1  0
 15 16  1  0
 16 17  1  0
  7 18  1  0
 17 18  1  0
 18 19  1  0
 15 20  1  0
 19 20  1  0
M  END
