x1493-x2776
     RDKit          3D

 44 49  0  0  0  0  0  0  0  0999 V2000
    6.7680   -1.4060   21.9350 N   0  0  0  0  0  0  0  0  0  0  0  0
    6.8140   -4.5820   20.2740 C   0  0  2  0  0  0  0  0  0  0  0  0
    4.7650   -2.9460   21.2530 O   0  0  0  0  0  0  0  0  0  0  0  0
    6.9590   -3.6990   21.4280 C   0  0  2  0  0  0  0  0  0  0  0  0
    7.6080    1.9400   22.7650 N   0  0  0  0  0  0  0  0  0  0  0  0
    8.8790    0.6480   21.3310 O   0  0  0  0  0  0  0  0  0  0  0  0
    6.0160   -2.6270   21.5280 C   0  0  0  0  0  0  0  0  0  0  0  0
   10.6970    6.5590   23.8090 O   0  0  0  0  0  0  0  0  0  0  0  0
    6.5470    0.0380   21.5700 C   0  0  1  0  0  0  0  0  0  0  0  0
   12.4130   -2.8740   24.7450 O   0  0  0  0  0  0  0  0  0  0  0  0
    7.7970    0.8750   21.8630 C   0  0  0  0  0  0  0  0  0  0  0  0
   10.4510    1.6520   23.8460 C   0  0  0  0  0  0  0  0  0  0  0  0
   11.7870    6.5210   24.7330 C   0  0  0  0  0  0  0  0  0  0  0  0
   12.0590   -1.5390   24.3970 C   0  0  1  0  0  0  0  0  0  0  0  0
   12.9880   -0.9940   23.5450 C   0  0  0  0  0  0  0  0  0  0  0  0
   13.6350   -2.9360   25.4240 C   0  0  0  0  0  0  0  0  0  0  0  0
    5.5380   -4.5650   19.6590 O   0  0  0  0  0  0  0  0  0  0  0  0
    4.9810   -6.0700   26.1150 C   0  0  0  0  0  0  0  0  0  0  0  0
    7.1800   -5.5210   26.3780 O   0  0  0  0  0  0  0  0  0  0  0  0
    6.2100   -5.5830   25.6290 C   0  0  0  0  0  0  0  0  0  0  0  0
    6.3520    0.5150   17.8410 N   0  0  0  0  0  0  0  0  0  0  0  0
    5.2400    1.2630   17.7570 C   0  0  0  0  0  0  0  0  0  0  0  0
    4.3890    1.6980   18.8610 C   0  0  0  0  0  0  0  0  0  0  0  0
    4.8890    1.2320   20.1470 C   0  0  0  0  0  0  0  0  0  0  0  0
    6.0450    0.4700   20.2200 C   0  0  0  0  0  0  0  0  0  0  0  0
    6.7390    0.1290   19.0630 C   0  0  0  0  0  0  0  0  0  0  0  0
    9.7790    2.9630   23.5470 C   0  0  0  0  0  0  0  0  0  0  0  0
   10.5100    4.1030   23.7890 C   0  0  0  0  0  0  0  0  0  0  0  0
   10.0280    5.3800   23.5760 C   0  0  0  0  0  0  0  0  0  0  0  0
    8.7400    5.4870   23.0790 C   0  0  0  0  0  0  0  0  0  0  0  0
    7.9630    4.3420   22.8130 C   0  0  0  0  0  0  0  0  0  0  0  0
    8.4700    3.0560   23.0480 C   0  0  0  0  0  0  0  0  0  0  0  0
    9.2270   -1.9750   21.8260 C   0  0  0  0  0  0  0  0  0  0  0  0
   10.4880   -1.9870   22.4520 C   0  0  0  0  0  0  0  0  0  0  0  0
   10.6930   -1.5290   23.7550 C   0  0  0  0  0  0  0  0  0  0  0  0
    9.6130   -1.0430   24.4860 C   0  0  0  0  0  0  0  0  0  0  0  0
    8.3350   -1.0050   23.9330 C   0  0  0  0  0  0  0  0  0  0  0  0
    8.1040   -1.4900   22.5120 C   0  0  0  0  0  0  0  0  0  0  0  0
    6.2880   -5.2060   24.2900 N   0  0  0  0  0  0  0  0  0  0  0  0
    7.3460   -4.2540   23.9400 C   0  0  0  0  0  0  0  0  0  0  0  0
    7.7280   -4.3660   22.4980 C   0  0  1  0  0  0  0  0  0  0  0  0
    6.9020   -5.2570   21.5790 C   0  0  2  0  0  0  0  0  0  0  0  0
    5.8240   -6.0750   22.1450 C   0  0  0  0  0  0  0  0  0  0  0  0
    5.2620   -5.5120   23.2750 C   0  0  0  0  0  0  0  0  0  0  0  0
  2  4  1  0
  1  7  1  0
  3  7  2  0
  4  7  1  6
  1  9  1  0
  5 11  1  0
  6 11  2  0
  9 11  1  6
  8 13  1  0
 10 14  1  0
 14 15  1  6
 10 16  1  0
  2 17  1  1
 18 20  1  0
 19 20  2  0
 21 22  2  0
 22 23  1  0
 23 24  2  0
  9 25  1  0
 24 25  1  0
 21 26  1  0
 25 26  2  0
 12 27  1  0
 27 28  2  0
  8 29  1  0
 28 29  1  0
 29 30  2  0
 30 31  1  0
  5 32  1  0
 27 32  1  0
 31 32  2  0
 33 34  2  0
 14 35  1  0
 34 35  1  0
 35 36  2  0
 36 37  1  0
  1 38  1  0
 33 38  1  0
 37 38  2  0
 20 39  1  0
 39 40  1  0
  4 41  1  0
 41 40  1  1
  2 42  1  0
  4 42  1  0
 41 42  1  0
 42 43  1  1
 39 44  1  0
 43 44  1  0
M  END
