x1493-x1458
     RDKit          3D

 18 18  0  0  0  0  0  0  0  0999 V2000
    7.4710   -3.4380   26.3000 N   0  0  0  0  0  0  0  0  0  0  0  0
    9.0490   -5.2420   27.0170 C   0  0  0  0  0  0  0  0  0  0  0  0
    5.1870   -3.3160   26.0120 O   0  0  0  0  0  0  0  0  0  0  0  0
    7.7140   -4.5350   27.2750 C   0  0  2  0  0  0  0  0  0  0  0  0
    5.2570   -4.7120   19.9370 O   0  0  0  0  0  0  0  0  0  0  0  0
    6.5840   -5.5920   27.2670 C   0  0  0  0  0  0  0  0  0  0  0  0
    8.0210   -2.1190   26.6850 C   0  0  0  0  0  0  0  0  0  0  0  0
    6.3000   -3.5030   25.5170 C   0  0  0  0  0  0  0  0  0  0  0  0
    6.2840   -4.1000   20.2970 C   0  0  0  0  0  0  0  0  0  0  0  0
    7.0650   -3.3090   19.3290 C   0  0  0  0  0  0  0  0  0  0  0  0
    4.6560   -6.7010   26.3450 C   0  0  0  0  0  0  0  0  0  0  0  0
    5.6500   -5.7580   26.3110 C   0  0  0  0  0  0  0  0  0  0  0  0
    6.7610   -4.1790   21.5970 N   0  0  0  0  0  0  0  0  0  0  0  0
    7.6940   -3.2010   22.1830 C   0  0  0  0  0  0  0  0  0  0  0  0
    7.5620   -3.2030   23.5230 C   0  0  0  0  0  0  0  0  0  0  0  0
    6.3820   -3.7820   24.0010 C   0  0  0  0  0  0  0  0  0  0  0  0
    6.4330   -5.1540   23.7410 C   0  0  0  0  0  0  0  0  0  0  0  0
    6.6030   -5.4510   22.3070 C   0  0  0  0  0  0  0  0  0  0  0  0
  1  4  1  0
  4  2  1  6
  4  6  1  0
  1  7  1  0
  1  8  1  0
  3  8  2  0
  5  9  2  0
  9 10  1  0
  6 12  2  3
 11 12  1  0
  9 13  1  0
 13 14  1  0
 14 15  1  0
  8 16  1  0
 15 16  1  0
 16 17  1  0
 13 18  1  0
 17 18  1  0
M  END
