x1493-x0967
     RDKit          3D

 34 35  0  0  0  0  0  0  0  0999 V2000
    7.6470    4.9900   22.3900 C   0  0  0  0  0  0  0  0  0  0  0  0
    7.8920    2.5770   22.4290 N   0  0  0  0  0  0  0  0  0  0  0  0
    6.0580    3.5290   23.7920 O   0  0  0  0  0  0  0  0  0  0  0  0
    7.1630    3.6600   22.9000 C   0  0  0  0  0  0  0  0  0  0  0  0
    9.3600   -0.5730   23.5000 N   0  0  0  0  0  0  0  0  0  0  0  0
    5.7020    0.8520   17.0390 O   0  0  0  0  0  0  0  0  0  0  0  0
    7.7460    1.2500   23.0260 C   0  0  1  0  0  0  0  0  0  0  0  0
    9.7560    0.8570   21.7610 O   0  0  0  0  0  0  0  0  0  0  0  0
    6.5120    0.5520   22.5640 C   0  0  0  0  0  0  0  0  0  0  0  0
    9.0450    0.5020   22.6840 C   0  0  0  0  0  0  0  0  0  0  0  0
    9.8320   -1.6590   22.6480 C   0  0  2  0  0  0  0  0  0  0  0  0
   11.2170   -1.4460   22.0580 C   0  0  0  0  0  0  0  0  0  0  0  0
   12.1460   -1.8060   23.0120 C   0  0  0  0  0  0  0  0  0  0  0  0
   13.3390   -2.3280   24.3850 Br  0  0  0  0  0  0  0  0  0  0  0  0
    4.1830   -5.9680   25.6460 C   0  0  0  0  0  0  0  0  0  0  0  0
    6.4050   -5.8910   26.5000 O   0  0  0  0  0  0  0  0  0  0  0  0
    5.5270   -5.7360   25.4170 C   0  0  0  0  0  0  0  0  0  0  0  0
    5.5750   -4.3970   19.8800 O   0  0  0  0  0  0  0  0  0  0  0  0
    6.6930   -4.3470   20.4650 C   0  0  0  0  0  0  0  0  0  0  0  0
    7.7970   -3.4740   19.9730 C   0  0  0  0  0  0  0  0  0  0  0  0
    8.7780   -1.7850   21.5770 C   0  0  0  0  0  0  0  0  0  0  0  0
    8.7360   -3.1340   21.1130 C   0  0  0  0  0  0  0  0  0  0  0  0
    6.3030    0.6050   21.0730 C   0  0  0  0  0  0  0  0  0  0  0  0
    6.9670   -0.3160   20.2410 C   0  0  0  0  0  0  0  0  0  0  0  0
    6.7680   -0.2430   18.8700 C   0  0  0  0  0  0  0  0  0  0  0  0
    5.9180    0.7370   18.3520 C   0  0  0  0  0  0  0  0  0  0  0  0
    5.2800    1.6140   19.1650 C   0  0  0  0  0  0  0  0  0  0  0  0
    5.4700    1.5540   20.5280 C   0  0  0  0  0  0  0  0  0  0  0  0
    5.8980   -5.3950   24.1140 N   0  0  0  0  0  0  0  0  0  0  0  0
    6.7610   -4.2920   23.8250 C   0  0  0  0  0  0  0  0  0  0  0  0
    7.6500   -4.6410   22.8110 C   0  0  0  0  0  0  0  0  0  0  0  0
    6.9300   -5.1300   21.6140 N   0  0  0  0  0  0  0  0  0  0  0  0
    6.0910   -6.1550   21.8560 C   0  0  0  0  0  0  0  0  0  0  0  0
    5.2230   -5.9400   22.9360 C   0  0  0  0  0  0  0  0  0  0  0  0
  1  4  1  0
  2  4  1  0
  3  4  2  0
  2  7  1  0
  7  9  1  6
  5 10  1  0
  7 10  1  0
  8 10  2  0
  5 11  1  0
 11 12  1  6
 12 13  3  0
 13 14  1  0
 15 17  1  0
 16 17  2  0
 18 19  2  0
 19 20  1  0
 11 21  1  0
 20 22  1  0
 21 22  1  0
  9 23  1  0
 23 24  2  0
 24 25  1  0
  6 26  1  0
 25 26  2  0
 26 27  1  0
 23 28  1  0
 27 28  2  0
 17 29  1  0
 29 30  1  0
 30 31  1  0
 19 32  1  0
 31 32  1  0
 32 33  1  0
 29 34  1  0
 33 34  1  0
M  END
