x1493-x1375
     RDKit          3D

 20 21  0  0  0  0  0  0  0  0999 V2000
    5.4730   -5.1250   20.0360 O   0  0  0  0  0  0  0  0  0  0  0  0
    6.2850   -4.3910   20.6440 C   0  0  0  0  0  0  0  0  0  0  0  0
    7.1710   -3.4480   19.8770 C   0  0  0  0  0  0  0  0  0  0  0  0
    6.2640   -4.4640   22.0690 N   0  0  0  0  0  0  0  0  0  0  0  0
    2.7550   -7.0950   24.0340 O   0  0  0  0  0  0  0  0  0  0  0  0
    4.9170   -6.8740   25.5210 O   0  0  0  0  0  0  0  0  0  0  0  0
   10.9320   -4.5450   25.0440 F   0  0  0  0  0  0  0  0  0  0  0  0
    6.7080   -5.5070   26.7260 O   0  0  0  0  0  0  0  0  0  0  0  0
    5.8740   -6.0280   26.0050 C   0  0  0  0  0  0  0  0  0  0  0  0
    8.0970   -3.2060   23.1170 C   0  0  0  0  0  0  0  0  0  0  0  0
    9.3280   -3.1230   23.8900 C   0  0  0  0  0  0  0  0  0  0  0  0
    9.8250   -4.4880   24.3460 C   0  0  0  0  0  0  0  0  0  0  0  0
    9.1010   -5.7670   24.0300 C   0  0  0  0  0  0  0  0  0  0  0  0
    7.9430   -5.6950   23.2810 C   0  0  0  0  0  0  0  0  0  0  0  0
    7.4260   -4.5080   22.8230 C   0  0  0  0  0  0  0  0  0  0  0  0
    4.4930   -4.0990   23.6000 C   0  0  0  0  0  0  0  0  0  0  0  0
    5.0170   -4.9120   22.6850 C   0  0  2  0  0  0  0  0  0  0  0  0
    5.0090   -6.2670   22.9610 C   0  0  0  0  0  0  0  0  0  0  0  0
    4.0450   -6.4170   24.4060 S   0  0  1  0  0  0  0  0  0  0  0  0
    3.8900   -4.7290   24.6170 C   0  0  0  0  0  0  0  0  0  0  0  0
  1  2  2  0
  2  3  1  0
  2  4  1  0
  6  9  1  0
  8  9  2  0
 10 11  2  0
  7 12  1  0
 11 12  1  0
 12 13  2  0
 13 14  1  0
  4 15  1  0
 10 15  1  0
 14 15  2  0
 17  4  1  1
 16 17  1  0
 17 18  1  0
 19  5  1  6
  6 19  1  0
 18 19  1  0
 16 20  2  0
 19 20  1  0
M  END
