x1493-x2608
     RDKit          3D

 30 32  0  0  0  0  0  0  0  0999 V2000
    4.6250   -6.6180   25.9870 C   0  0  0  0  0  0  0  0  0  0  0  0
    6.1430   -4.8600   26.4640 O   0  0  0  0  0  0  0  0  0  0  0  0
    5.6150   -5.5250   25.5880 C   0  0  0  0  0  0  0  0  0  0  0  0
    5.6110   -4.9530   20.0220 O   0  0  0  0  0  0  0  0  0  0  0  0
    6.6880   -4.7760   20.6610 C   0  0  0  0  0  0  0  0  0  0  0  0
    7.6870   -3.7750   20.2890 C   0  0  0  0  0  0  0  0  0  0  0  0
    8.6840   -0.5490   22.5630 N   0  0  0  0  0  0  0  0  0  0  0  0
   12.9670    1.9670   22.8250 C   0  0  0  0  0  0  0  0  0  0  0  0
    8.5890    1.3850   21.2170 O   0  0  0  0  0  0  0  0  0  0  0  0
    7.1550   -0.3660   20.8690 N   0  0  0  0  0  0  0  0  0  0  0  0
    8.1600    0.2580   21.5280 C   0  0  0  0  0  0  0  0  0  0  0  0
    6.9070   -2.5190   20.0700 C   0  0  0  0  0  0  0  0  0  0  0  0
    7.7510   -1.4830   20.2100 C   0  0  0  0  0  0  0  0  0  0  0  0
    5.8650   -5.3290   24.2330 N   0  0  0  0  0  0  0  0  0  0  0  0
    6.8570   -4.3380   23.8180 C   0  0  0  0  0  0  0  0  0  0  0  0
    7.7400   -4.8960   22.9110 C   0  0  0  0  0  0  0  0  0  0  0  0
    6.9830   -5.4910   21.8030 N   0  0  0  0  0  0  0  0  0  0  0  0
    5.9430   -6.4170   22.2340 C   0  0  0  0  0  0  0  0  0  0  0  0
    5.1220   -5.8600   23.2360 C   0  0  0  0  0  0  0  0  0  0  0  0
   12.0960    0.8080   22.9280 C   0  0  0  0  0  0  0  0  0  0  0  0
   12.3630   -0.6030   23.2640 C   0  0  0  0  0  0  0  0  0  0  0  0
   11.0700   -1.2880   23.1670 C   0  0  0  0  0  0  0  0  0  0  0  0
   10.0120   -0.4590   22.8070 C   0  0  0  0  0  0  0  0  0  0  0  0
   10.4710    1.1340   22.5940 S   0  0  0  0  0  0  0  0  0  0  0  0
    6.0100    0.9140   17.6770 N   0  0  0  0  0  0  0  0  0  0  0  0
    6.6890    0.2990   18.6260 C   0  0  0  0  0  0  0  0  0  0  0  0
    6.3270    0.3240   19.9610 C   0  0  0  0  0  0  0  0  0  0  0  0
    5.2100    1.0020   20.3370 C   0  0  0  0  0  0  0  0  0  0  0  0
    4.4640    1.6680   19.3850 C   0  0  0  0  0  0  0  0  0  0  0  0
    4.9210    1.5910   18.0830 C   0  0  0  0  0  0  0  0  0  0  0  0
  1  3  1  0
  2  3  2  0
  4  5  2  0
  5  6  1  0
  7 11  1  0
  9 11  2  0
 10 11  1  0
  6 12  1  0
 10 13  1  0
 12 13  1  0
  3 14  1  0
 14 15  1  0
 15 16  1  0
  5 17  1  0
 16 17  1  0
 17 18  1  0
 14 19  1  0
 18 19  1  0
  8 20  1  0
 20 21  2  0
 21 22  1  0
  7 23  1  0
 22 23  2  0
 20 24  1  0
 23 24  1  0
 25 26  2  0
 10 27  1  0
 26 27  1  0
 27 28  2  0
 28 29  1  0
 25 30  1  0
 29 30  2  0
M  END
