x1493-x0708
     RDKit          3D

 23 25  0  0  0  0  0  0  0  0999 V2000
    7.2500   -3.2160   19.4580 C   0  0  0  0  0  0  0  0  0  0  0  0
    5.1520   -4.2690   19.7770 O   0  0  0  0  0  0  0  0  0  0  0  0
    6.3050   -4.0950   20.2210 C   0  0  0  0  0  0  0  0  0  0  0  0
    6.4490   -2.2020   22.7460 O   0  0  0  0  0  0  0  0  0  0  0  0
    7.5350   -2.7720   22.6820 C   0  0  0  0  0  0  0  0  0  0  0  0
    4.4360   -6.5660   25.5410 C   0  0  0  0  0  0  0  0  0  0  0  0
    6.1880   -5.2890   26.3740 O   0  0  0  0  0  0  0  0  0  0  0  0
    5.6150   -5.6830   25.3730 C   0  0  0  0  0  0  0  0  0  0  0  0
    8.7610   -2.0240   22.8260 C   0  0  0  0  0  0  0  0  0  0  0  0
   10.0950   -2.3020   22.1630 C   0  0  0  0  0  0  0  0  0  0  0  0
   10.9730   -1.3240   22.5590 C   0  0  0  0  0  0  0  0  0  0  0  0
   10.5100   -0.3520   23.4230 C   0  0  0  0  0  0  0  0  0  0  0  0
    8.8660   -0.6440   23.8180 S   0  0  0  0  0  0  0  0  0  0  0  0
   12.4380   -1.0920   22.1990 C   0  0  0  0  0  0  0  0  0  0  0  0
   13.1220   -0.0510   22.6700 C   0  0  0  0  0  0  0  0  0  0  0  0
   12.5600    0.8860   23.5240 C   0  0  0  0  0  0  0  0  0  0  0  0
   11.2550    0.7220   23.9060 C   0  0  0  0  0  0  0  0  0  0  0  0
    6.0180   -5.3480   24.0740 N   0  0  0  0  0  0  0  0  0  0  0  0
    7.3620   -4.8790   23.7610 C   0  0  0  0  0  0  0  0  0  0  0  0
    7.5990   -4.2760   22.4630 C   0  0  1  0  0  0  0  0  0  0  0  0
    6.6920   -4.7720   21.4030 N   0  0  0  0  0  0  0  0  0  0  0  0
    5.9840   -6.0070   21.7640 C   0  0  0  0  0  0  0  0  0  0  0  0
    5.2360   -5.8790   22.9440 C   0  0  0  0  0  0  0  0  0  0  0  0
  1  3  1  0
  2  3  2  0
  4  5  2  0
  6  8  1  0
  7  8  2  0
  5  9  1  0
  9 10  2  0
 10 11  1  0
 11 12  2  0
  9 13  1  0
 12 13  1  0
 11 14  1  0
 14 15  2  0
 15 16  1  0
 12 17  1  0
 16 17  2  0
  8 18  1  0
 18 19  1  0
 20  5  1  1
 19 20  1  0
  3 21  1  0
 20 21  1  0
 21 22  1  0
 18 23  1  0
 22 23  1  0
M  END
