x1493-x0107
     RDKit          3D

 25 26  0  0  0  0  0  0  0  0999 V2000
    4.5470   -6.6030   25.8590 C   0  0  0  0  0  0  0  0  0  0  0  0
    6.1990   -5.0360   26.5060 O   0  0  0  0  0  0  0  0  0  0  0  0
    5.6340   -5.5680   25.5670 C   0  0  0  0  0  0  0  0  0  0  0  0
    5.6440   -4.6800   19.9780 O   0  0  0  0  0  0  0  0  0  0  0  0
    6.7350   -4.6200   20.6140 C   0  0  0  0  0  0  0  0  0  0  0  0
    7.8630   -3.7530   20.2190 C   0  0  0  0  0  0  0  0  0  0  0  0
   10.0000   -0.2390   22.5340 C   0  0  0  0  0  0  0  0  0  0  0  0
    8.9670    0.4610   21.6240 C   0  0  0  0  0  0  0  0  0  0  0  0
    9.1500    1.6360   21.2770 O   0  0  0  0  0  0  0  0  0  0  0  0
    7.8600   -0.2680   21.1870 N   0  0  0  0  0  0  0  0  0  0  0  0
    5.3660    1.1340   22.0110 C   0  0  0  0  0  0  0  0  0  0  0  0
    7.4550   -2.3120   20.2240 C   0  0  0  0  0  0  0  0  0  0  0  0
    8.0230   -1.6930   21.2780 C   0  0  0  0  0  0  0  0  0  0  0  0
    5.9200   -5.2750   24.2350 N   0  0  0  0  0  0  0  0  0  0  0  0
    6.8990   -4.2870   23.7670 C   0  0  0  0  0  0  0  0  0  0  0  0
    7.7360   -4.8810   22.8880 C   0  0  0  0  0  0  0  0  0  0  0  0
    6.9240   -5.3650   21.7630 N   0  0  0  0  0  0  0  0  0  0  0  0
    5.9740   -6.2450   22.1070 C   0  0  0  0  0  0  0  0  0  0  0  0
    5.1380   -5.9270   23.1750 C   0  0  0  0  0  0  0  0  0  0  0  0
    6.9300    0.1630   20.1620 C   0  0  0  0  0  0  0  0  0  0  0  0
    5.7230    0.8510   20.5830 C   0  0  0  0  0  0  0  0  0  0  0  0
    4.8460    1.2670   19.5850 C   0  0  0  0  0  0  0  0  0  0  0  0
    5.1600    1.0080   18.2480 C   0  0  0  0  0  0  0  0  0  0  0  0
    6.2650    0.3670   17.8490 N   0  0  0  0  0  0  0  0  0  0  0  0
    7.1160   -0.0430   18.8010 C   0  0  0  0  0  0  0  0  0  0  0  0
  1  3  1  0
  2  3  2  0
  4  5  2  0
  5  6  1  0
  7  8  1  0
  8  9  2  0
  8 10  1  0
  6 12  1  0
 10 13  1  0
 12 13  1  0
  3 14  1  0
 14 15  1  0
 15 16  1  0
  5 17  1  0
 16 17  1  0
 17 18  1  0
 14 19  1  0
 18 19  1  0
 10 20  1  0
 11 21  1  0
 20 21  2  0
 21 22  1  0
 22 23  2  0
 23 24  1  0
 20 25  1  0
 24 25  2  0
M  END
