x2052-x2119
     RDKit          3D

 20 21  0  0  0  0  0  0  0  0999 V2000
    5.7170   -1.5750   25.1090 C   0  0  0  0  0  0  0  0  0  0  0  0
    4.5300   -1.6160   25.3940 O   0  0  0  0  0  0  0  0  0  0  0  0
    6.7500   -0.9580   26.0020 N   0  0  0  0  0  0  0  0  0  0  0  0
    5.4820   -4.4690   19.9280 O   0  0  0  0  0  0  0  0  0  0  0  0
    5.5360    2.1160   30.4730 O   0  0  0  0  0  0  0  0  0  0  0  0
    6.4190   -3.6580   20.1920 C   0  0  0  0  0  0  0  0  0  0  0  0
    7.2330   -3.1040   19.0860 C   0  0  0  0  0  0  0  0  0  0  0  0
    6.1600    3.3960   30.5290 C   0  0  0  0  0  0  0  0  0  0  0  0
    6.7750   -3.2680   21.5100 N   0  0  0  0  0  0  0  0  0  0  0  0
    7.6800   -2.2230   21.7730 C   0  0  0  0  0  0  0  0  0  0  0  0
    7.3610   -1.5290   23.1140 C   0  0  0  0  0  0  0  0  0  0  0  0
    6.1490   -2.1900   23.7470 C   0  0  0  0  0  0  0  0  0  0  0  0
    6.3320   -3.5740   23.8190 C   0  0  0  0  0  0  0  0  0  0  0  0
    6.5500   -4.2140   22.6090 C   0  0  0  0  0  0  0  0  0  0  0  0
    6.6190    1.9120   28.3610 N   0  0  0  0  0  0  0  0  0  0  0  0
    6.8560    1.0740   27.3160 C   0  0  0  0  0  0  0  0  0  0  0  0
    6.4170   -0.2010   27.1720 C   0  0  0  0  0  0  0  0  0  0  0  0
    5.6240   -0.7920   28.1740 C   0  0  0  0  0  0  0  0  0  0  0  0
    5.3340    0.0070   29.2860 C   0  0  0  0  0  0  0  0  0  0  0  0
    5.8600    1.3850   29.3460 C   0  0  0  0  0  0  0  0  0  0  0  0
  1  2  2  0
  1  3  1  0
  4  6  2  0
  6  7  1  0
  5  8  1  0
  6  9  1  0
  9 10  1  0
 10 11  1  0
  1 12  1  0
 11 12  1  0
 12 13  1  0
  9 14  1  0
 13 14  1  0
 15 16  2  0
  3 17  1  0
 16 17  1  0
 17 18  2  0
 18 19  1  0
  5 20  1  0
 15 20  1  0
 19 20  2  0
M  END
