x2052-x0736
     RDKit          3D

 25 27  0  0  0  0  0  0  0  0999 V2000
    5.5310   -1.4650   25.0920 C   0  0  0  0  0  0  0  0  0  0  0  0
    4.3230   -1.3560   25.2000 O   0  0  0  0  0  0  0  0  0  0  0  0
    6.4630   -1.0360   26.2040 N   0  0  0  0  0  0  0  0  0  0  0  0
    5.4690   -4.4420   19.9230 O   0  0  0  0  0  0  0  0  0  0  0  0
    5.2050    2.2090   30.4970 O   0  0  0  0  0  0  0  0  0  0  0  0
    6.4180   -3.6490   20.2080 C   0  0  0  0  0  0  0  0  0  0  0  0
    7.2670   -3.1250   19.1170 C   0  0  0  0  0  0  0  0  0  0  0  0
    6.1190    3.2930   30.6670 C   0  0  0  0  0  0  0  0  0  0  0  0
    6.7530   -3.2480   21.5290 N   0  0  0  0  0  0  0  0  0  0  0  0
    7.6370   -2.1870   21.8120 C   0  0  0  0  0  0  0  0  0  0  0  0
    7.3270   -1.5030   23.1680 C   0  0  0  0  0  0  0  0  0  0  0  0
    6.0470   -2.0830   23.7460 C   0  0  0  0  0  0  0  0  0  0  0  0
    6.1460   -3.4760   23.7880 C   0  0  0  0  0  0  0  0  0  0  0  0
    6.4980   -4.1720   22.6420 C   0  0  0  0  0  0  0  0  0  0  0  0
    6.2090    1.9100   28.3790 N   0  0  0  0  0  0  0  0  0  0  0  0
    6.4640    1.0330   27.3720 C   0  0  0  0  0  0  0  0  0  0  0  0
    6.0740   -0.2730   27.3420 C   0  0  0  0  0  0  0  0  0  0  0  0
    5.3400   -0.8410   28.3940 C   0  0  0  0  0  0  0  0  0  0  0  0
    5.0470    0.0100   29.4620 C   0  0  0  0  0  0  0  0  0  0  0  0
    5.5120    1.4100   29.4160 C   0  0  0  0  0  0  0  0  0  0  0  0
    8.0910    0.1380   24.9130 O   0  0  0  0  0  0  0  0  0  0  0  0
    7.7650   -0.7060   25.9730 C   0  0  0  0  0  0  0  0  0  0  0  0
    8.9220   -1.0380   26.6430 C   0  0  0  0  0  0  0  0  0  0  0  0
    9.9320   -0.4080   26.0090 C   0  0  0  0  0  0  0  0  0  0  0  0
    9.4370    0.3080   24.9600 C   0  0  0  0  0  0  0  0  0  0  0  0
  1  2  2  0
  1  3  1  0
  4  6  2  0
  6  7  1  0
  5  8  1  0
  6  9  1  0
  9 10  1  0
 10 11  1  0
  1 12  1  0
 11 12  1  0
 12 13  1  0
  9 14  1  0
 13 14  1  0
 15 16  2  0
  3 17  1  0
 16 17  1  0
 17 18  2  0
 18 19  1  0
  5 20  1  0
 15 20  1  0
 19 20  2  0
  3 22  1  0
 21 22  1  0
 22 23  2  0
 23 24  1  0
 21 25  1  0
 24 25  2  0
M  END
