x2052-x0395
     RDKit          3D

 35 41  0  0  0  0  0  0  0  0999 V2000
    5.5170   -1.6980   25.0410 C   0  0  0  0  0  0  0  0  0  0  0  0
    4.3470   -1.9220   25.3000 O   0  0  0  0  0  0  0  0  0  0  0  0
    6.4150   -0.7810   25.8380 N   0  0  0  0  0  0  0  0  0  0  0  0
    5.3370   -4.3330   19.8100 O   0  0  0  0  0  0  0  0  0  0  0  0
    5.5940    2.0850   30.5250 O   0  0  0  0  0  0  0  0  0  0  0  0
    6.2830   -3.5540   20.0630 C   0  0  0  0  0  0  0  0  0  0  0  0
    7.2050   -3.0580   19.0190 C   0  0  0  0  0  0  0  0  0  0  0  0
    6.1620    3.3910   30.5030 C   0  0  0  0  0  0  0  0  0  0  0  0
    8.8830   -5.7940   26.3430 C   0  0  0  0  0  0  0  0  0  0  0  0
    9.1650   -0.8310   23.6720 C   0  0  1  0  0  0  0  0  0  0  0  0
   13.2920   -1.9740   21.3570 F   0  0  0  0  0  0  0  0  0  0  0  0
    7.7730   -1.8430   23.2410 S   0  0  0  0  0  0  0  0  0  0  0  0
    6.5020   -3.1640   21.3690 N   0  0  0  0  0  0  0  0  0  0  0  0
    7.1320   -1.8700   21.6950 C   0  0  1  0  0  0  0  0  0  0  0  0
    6.3790   -1.4220   22.8070 C   0  0  1  0  0  0  0  0  0  0  0  0
    6.2170   -2.3290   23.8160 C   0  0  2  0  0  0  0  0  0  0  0  0
    5.7850   -3.5950   23.4530 C   0  0  0  0  0  0  0  0  0  0  0  0
    6.4540   -4.1000   22.3720 C   0  0  0  0  0  0  0  0  0  0  0  0
    6.5220    1.8940   28.3570 N   0  0  0  0  0  0  0  0  0  0  0  0
    6.6960    1.1530   27.2280 C   0  0  0  0  0  0  0  0  0  0  0  0
    6.1490   -0.1280   27.0740 C   0  0  0  0  0  0  0  0  0  0  0  0
    5.3440   -0.7580   28.1420 C   0  0  0  0  0  0  0  0  0  0  0  0
    5.2070    0.1110   29.3240 C   0  0  0  0  0  0  0  0  0  0  0  0
    5.7960    1.3680   29.3590 C   0  0  0  0  0  0  0  0  0  0  0  0
    8.7910   -4.3740   25.8990 C   0  0  0  0  0  0  0  0  0  0  0  0
    8.2520   -3.3620   26.4000 N   0  0  0  0  0  0  0  0  0  0  0  0
    8.3090   -2.1380   25.8920 N   0  0  0  0  0  0  0  0  0  0  0  0
    8.8150   -2.0420   24.6090 C   0  0  2  0  0  0  0  0  0  0  0  0
    9.5400   -3.6970   24.3900 S   0  0  0  0  0  0  0  0  0  0  0  0
   10.8400    0.6260   23.0380 C   0  0  0  0  0  0  0  0  0  0  0  0
   12.1430    0.8140   23.4250 C   0  0  0  0  0  0  0  0  0  0  0  0
   12.9470   -0.0230   22.6860 C   0  0  0  0  0  0  0  0  0  0  0  0
   12.4680   -1.1990   22.0770 C   0  0  0  0  0  0  0  0  0  0  0  0
   11.1090   -1.5210   22.2400 C   0  0  0  0  0  0  0  0  0  0  0  0
   10.5770   -0.7610   23.3330 N   0  0  0  0  0  0  0  0  0  0  0  0
  1  2  2  0
  1  3  1  0
  4  6  2  0
  6  7  1  0
  5  8  1  0
 10 12  1  0
  6 13  1  0
 12 14  1  0
 14 13  1  1
 15 12  1  1
 14 15  1  0
 16  1  1  1
 12 16  1  0
 15 16  1  0
 16 17  1  0
 13 18  1  0
 17 18  1  0
 19 20  2  0
  3 21  1  0
 20 21  1  0
 21 22  2  0
 22 23  1  0
  5 24  1  0
 19 24  1  0
 23 24  2  0
  9 25  1  0
 25 26  2  0
 26 27  1  0
 10 28  1  0
 12 28  1  0
 28 27  1  1
 25 29  1  0
 28 29  1  0
 30 31  1  0
 31 32  1  0
 11 33  1  0
 32 33  2  0
 33 34  1  0
 10 35  1  6
 30 35  1  0
 34 35  1  0
M  END
