x2052-x0691
     RDKit          3D

 34 37  0  0  0  0  0  0  0  0999 V2000
    5.9080   -1.2110   25.0290 C   0  0  0  0  0  0  0  0  0  0  0  0
    4.7410   -0.8700   24.9470 O   0  0  0  0  0  0  0  0  0  0  0  0
    6.8490   -0.7790   26.1020 N   0  0  0  0  0  0  0  0  0  0  0  0
    5.5980   -4.4970   19.9500 O   0  0  0  0  0  0  0  0  0  0  0  0
    5.4090    2.1730   30.5600 O   0  0  0  0  0  0  0  0  0  0  0  0
    6.5760   -3.7380   20.2380 C   0  0  0  0  0  0  0  0  0  0  0  0
    7.3380   -3.1310   19.1290 C   0  0  0  0  0  0  0  0  0  0  0  0
    6.0830    3.4220   30.6700 C   0  0  0  0  0  0  0  0  0  0  0  0
    4.1930   -6.8930   26.0650 O   0  0  0  0  0  0  0  0  0  0  0  0
    5.8340   -5.2690   26.8720 O   0  0  0  0  0  0  0  0  0  0  0  0
    4.8360   -5.5530   25.7830 S   0  0  0  0  0  0  0  0  0  0  0  0
    7.0080   -3.4770   21.5760 N   0  0  0  0  0  0  0  0  0  0  0  0
    7.9030   -2.4330   21.8970 C   0  0  0  0  0  0  0  0  0  0  0  0
    7.3360   -1.4330   22.9280 C   0  0  0  0  0  0  0  0  0  0  0  0
    6.5060   -2.1550   23.9710 C   0  0  2  0  0  0  0  0  0  0  0  0
    5.5420   -2.9010   23.3010 C   0  0  0  0  0  0  0  0  0  0  0  0
    6.1030   -3.9450   22.6340 C   0  0  1  0  0  0  0  0  0  0  0  0
    6.5630    2.0100   28.4930 N   0  0  0  0  0  0  0  0  0  0  0  0
    6.8550    1.1980   27.4470 C   0  0  0  0  0  0  0  0  0  0  0  0
    6.4440   -0.0750   27.2640 C   0  0  0  0  0  0  0  0  0  0  0  0
    5.6220   -0.6840   28.2240 C   0  0  0  0  0  0  0  0  0  0  0  0
    5.2680    0.0720   29.3400 C   0  0  0  0  0  0  0  0  0  0  0  0
    5.7740    1.4550   29.4410 C   0  0  0  0  0  0  0  0  0  0  0  0
    2.8870   -2.0040   25.9690 C   0  0  0  0  0  0  0  0  0  0  0  0
    3.9130   -2.9550   25.9810 C   0  0  0  0  0  0  0  0  0  0  0  0
    3.5650   -4.2970   25.7660 C   0  0  0  0  0  0  0  0  0  0  0  0
    2.2230   -4.6620   25.5450 C   0  0  0  0  0  0  0  0  0  0  0  0
    1.2460   -3.7060   25.5410 C   0  0  0  0  0  0  0  0  0  0  0  0
    1.5650   -2.3820   25.7530 C   0  0  0  0  0  0  0  0  0  0  0  0
    5.1610   -4.7020   21.8270 N   0  0  0  0  0  0  0  0  0  0  0  0
    5.4750   -6.1230   21.9810 C   0  0  0  0  0  0  0  0  0  0  0  0
    5.0500   -6.5730   23.2130 C   0  0  0  0  0  0  0  0  0  0  0  0
    5.5870   -5.6520   24.2390 N   0  0  0  0  0  0  0  0  0  0  0  0
    6.6330   -4.8620   23.8100 C   0  0  0  0  0  0  0  0  0  0  0  0
  1  2  2  0
  1  3  1  0
  4  6  2  0
  6  7  1  0
  5  8  1  0
  9 11  2  0
 10 11  2  0
  6 12  1  0
 12 13  1  0
 13 14  1  0
 15  1  1  1
 14 15  1  0
 15 16  1  0
 17 12  1  0
 17 16  1  1
 18 19  2  0
  3 20  1  0
 19 20  1  0
 20 21  2  0
 21 22  1  0
  5 23  1  0
 18 23  1  0
 22 23  2  0
 24 25  2  0
 11 26  1  0
 25 26  1  0
 26 27  2  0
 27 28  1  0
 24 29  1  0
 28 29  2  0
 17 30  1  0
 30 31  1  0
 31 32  1  0
 11 33  1  0
 32 33  1  0
 17 34  1  0
 33 34  1  0
M  END
