x2052-x2643
     RDKit          3D

 36 40  0  0  0  0  0  0  0  0999 V2000
    5.7310   -1.7060   25.0840 C   0  0  0  0  0  0  0  0  0  0  0  0
    4.5370   -1.6770   25.3340 O   0  0  0  0  0  0  0  0  0  0  0  0
    6.7340   -1.0320   25.9730 N   0  0  0  0  0  0  0  0  0  0  0  0
    5.5330   -4.7410   20.0400 O   0  0  0  0  0  0  0  0  0  0  0  0
    5.4200    2.1150   30.4100 O   0  0  0  0  0  0  0  0  0  0  0  0
    6.4140   -3.8880   20.3760 C   0  0  0  0  0  0  0  0  0  0  0  0
    7.1590   -3.2240   19.2850 C   0  0  0  0  0  0  0  0  0  0  0  0
    6.2340    3.2740   30.5630 C   0  0  0  0  0  0  0  0  0  0  0  0
    6.6950   -0.4200   20.7560 N   0  0  0  0  0  0  0  0  0  0  0  0
    8.6480    0.9070   21.3360 O   0  0  0  0  0  0  0  0  0  0  0  0
   13.3470   -0.1950   23.2720 Cl  0  0  0  0  0  0  0  0  0  0  0  0
    8.0660   -1.1050   22.5080 C   0  0  2  0  0  0  0  0  0  0  0  0
    7.8910   -0.0440   21.4780 C   0  0  0  0  0  0  0  0  0  0  0  0
    6.8040   -3.5390   21.7030 N   0  0  0  0  0  0  0  0  0  0  0  0
    7.7310   -2.4460   21.9360 C   0  0  2  0  0  0  0  0  0  0  0  0
    6.8050   -1.7310   22.8230 C   0  0  1  0  0  0  0  0  0  0  0  0
    6.1910   -2.4540   23.8040 C   0  0  1  0  0  0  0  0  0  0  0  0
    6.6740   -3.7350   23.9430 C   0  0  0  0  0  0  0  0  0  0  0  0
    6.7040   -4.4040   22.7530 C   0  0  0  0  0  0  0  0  0  0  0  0
    6.3300    1.8930   28.2320 N   0  0  0  0  0  0  0  0  0  0  0  0
    6.6220    1.0610   27.1870 C   0  0  0  0  0  0  0  0  0  0  0  0
    6.3690   -0.3080   27.1480 C   0  0  0  0  0  0  0  0  0  0  0  0
    5.7320   -0.9520   28.3120 C   0  0  0  0  0  0  0  0  0  0  0  0
    5.4330   -0.0180   29.4160 C   0  0  0  0  0  0  0  0  0  0  0  0
    5.7460    1.3330   29.3120 C   0  0  0  0  0  0  0  0  0  0  0  0
   11.7320   -0.4510   23.5930 C   0  0  0  0  0  0  0  0  0  0  0  0
   11.0200   -0.4660   24.7870 C   0  0  0  0  0  0  0  0  0  0  0  0
    9.7030   -0.6940   24.5850 C   0  0  0  0  0  0  0  0  0  0  0  0
    9.4020   -0.8600   23.2530 C   0  0  0  0  0  0  0  0  0  0  0  0
   10.7750   -0.7410   22.2660 S   0  0  0  0  0  0  0  0  0  0  0  0
    6.3080    1.0030   17.4570 N   0  0  0  0  0  0  0  0  0  0  0  0
    6.7940    0.3370   18.4990 C   0  0  0  0  0  0  0  0  0  0  0  0
    6.1760    0.2520   19.7100 C   0  0  0  0  0  0  0  0  0  0  0  0
    4.9560    0.8910   19.8670 C   0  0  0  0  0  0  0  0  0  0  0  0
    4.4090    1.5970   18.8110 C   0  0  0  0  0  0  0  0  0  0  0  0
    5.1330    1.6260   17.6230 C   0  0  0  0  0  0  0  0  0  0  0  0
  1  2  2  0
  1  3  1  0
  4  6  2  0
  6  7  1  0
  5  8  1  0
  9 13  1  0
 10 13  2  0
 12 13  1  6
  6 14  1  0
 12 15  1  0
 15 14  1  6
 12 16  1  0
 15 16  1  0
 17  1  1  1
 16 17  1  1
 17 18  1  0
 14 19  1  0
 18 19  1  0
 20 21  2  0
  3 22  1  0
 21 22  1  0
 22 23  2  0
 23 24  1  0
  5 25  1  0
 20 25  1  0
 24 25  2  0
 11 26  1  0
 26 27  2  0
 27 28  1  0
 12 29  1  0
 28 29  2  0
 26 30  1  0
 29 30  1  0
 31 32  2  0
  9 33  1  0
 32 33  1  0
 33 34  2  0
 34 35  1  0
 31 36  1  0
 35 36  2  0
M  END
