x2097-x1425
     RDKit          3D

 17 18  0  0  0  0  0  0  0  0999 V2000
    1.4540   -2.3710   28.1960 C   0  0  0  0  0  0  0  0  0  0  0  0
    2.6550   -2.1750   28.3620 O   0  0  0  0  0  0  0  0  0  0  0  0
    5.2050   -4.5820   19.8770 O   0  0  0  0  0  0  0  0  0  0  0  0
    6.2930   -4.0840   20.2180 C   0  0  0  0  0  0  0  0  0  0  0  0
    7.0790   -3.2570   19.2790 C   0  0  0  0  0  0  0  0  0  0  0  0
    3.4220   -2.5870   27.2210 C   0  0  0  0  0  0  0  0  0  0  0  0
    4.7950   -2.0460   27.1460 C   0  0  0  0  0  0  0  0  0  0  0  0
    5.5330   -2.5370   25.9010 C   0  0  0  0  0  0  0  0  0  0  0  0
    4.9480   -3.4680   24.8480 C   0  0  0  0  0  0  0  0  0  0  0  0
    3.6240   -3.8690   25.1020 C   0  0  0  0  0  0  0  0  0  0  0  0
    2.8480   -3.5040   26.1810 C   0  0  0  0  0  0  0  0  0  0  0  0
    6.8070   -4.3530   21.5010 N   0  0  0  0  0  0  0  0  0  0  0  0
    7.4500   -3.3260   22.3830 C   0  0  0  0  0  0  0  0  0  0  0  0
    6.3860   -2.7980   23.0220 C   0  0  0  0  0  0  0  0  0  0  0  0
    5.6620   -3.8800   23.7450 N   0  0  0  0  0  0  0  0  0  0  0  0
    5.4140   -5.1220   23.1560 C   0  0  0  0  0  0  0  0  0  0  0  0
    6.3000   -5.5390   22.1710 C   0  0  0  0  0  0  0  0  0  0  0  0
  1  2  1  0
  3  4  2  0
  4  5  1  0
  2  6  1  0
  6  7  2  0
  7  8  1  0
  8  9  2  0
  9 10  1  0
  6 11  1  0
 10 11  2  0
  4 12  1  0
 12 13  1  0
 13 14  1  0
  9 15  1  0
 14 15  1  0
 15 16  1  0
 12 17  1  0
 16 17  1  0
M  END
