x2097-x0734
     RDKit          3D

 18 19  0  0  0  0  0  0  0  0999 V2000
    5.2430   -4.8740   26.1690 N   0  0  0  0  0  0  0  0  0  0  0  0
    4.6710   -5.7390   25.4900 O   0  0  0  0  0  0  0  0  0  0  0  0
    4.6840   -3.9010   26.6970 O   0  0  0  0  0  0  0  0  0  0  0  0
    5.1010   -4.2420   19.7150 O   0  0  0  0  0  0  0  0  0  0  0  0
    6.2370   -3.8380   20.0360 C   0  0  0  0  0  0  0  0  0  0  0  0
    7.1050   -3.1330   19.0720 C   0  0  0  0  0  0  0  0  0  0  0  0
    6.6250   -4.9720   26.3070 C   0  0  0  0  0  0  0  0  0  0  0  0
    7.4490   -4.5830   25.1310 C   0  0  0  0  0  0  0  0  0  0  0  0
    8.9170   -4.6490   25.2020 C   0  0  0  0  0  0  0  0  0  0  0  0
    9.4950   -5.1330   26.5240 C   0  0  0  0  0  0  0  0  0  0  0  0
    8.6260   -5.5290   27.7080 C   0  0  0  0  0  0  0  0  0  0  0  0
    7.2210   -5.4630   27.6420 C   0  0  0  0  0  0  0  0  0  0  0  0
    6.7010   -4.1270   21.3400 N   0  0  0  0  0  0  0  0  0  0  0  0
    6.5420   -5.3170   21.9710 C   0  0  0  0  0  0  0  0  0  0  0  0
    6.0810   -5.0910   23.2670 C   0  0  0  0  0  0  0  0  0  0  0  0
    6.7560   -4.1540   23.9780 N   0  0  0  0  0  0  0  0  0  0  0  0
    7.1870   -3.0480   23.3390 C   0  0  0  0  0  0  0  0  0  0  0  0
    7.5480   -3.2460   22.0030 C   0  0  0  0  0  0  0  0  0  0  0  0
  1  2  2  0
  1  3  1  0
  4  5  2  0
  5  6  1  0
  1  7  1  0
  7  8  2  0
  8  9  1  0
  9 10  2  0
 10 11  1  0
  7 12  1  0
 11 12  2  0
  5 13  1  0
 13 14  1  0
 14 15  1  0
  8 16  1  0
 15 16  1  0
 16 17  1  0
 13 18  1  0
 17 18  1  0
M  CHG  2   1   1   3  -1
M  END
