x2097-x1380
     RDKit          3D

 17 18  0  0  0  0  0  0  0  0999 V2000
    6.9840   -3.2630   19.3100 C   0  0  0  0  0  0  0  0  0  0  0  0
    5.3460   -4.8490   19.9770 O   0  0  0  0  0  0  0  0  0  0  0  0
    6.3070   -4.1230   20.3180 C   0  0  0  0  0  0  0  0  0  0  0  0
    4.7230   -2.8550   25.4730 O   0  0  0  0  0  0  0  0  0  0  0  0
    5.8510   -3.3290   25.4360 C   0  0  0  0  0  0  0  0  0  0  0  0
    6.7820   -4.1620   21.6510 N   0  0  0  0  0  0  0  0  0  0  0  0
    6.6360   -5.4400   22.3840 C   0  0  0  0  0  0  0  0  0  0  0  0
    6.0370   -5.1990   23.7320 C   0  0  0  0  0  0  0  0  0  0  0  0
    6.3380   -3.7170   24.0390 C   0  0  0  0  0  0  0  0  0  0  0  0
    7.6990   -3.2080   23.5930 C   0  0  0  0  0  0  0  0  0  0  0  0
    7.7210   -3.1840   22.2020 C   0  0  0  0  0  0  0  0  0  0  0  0
    7.8790   -4.2520   26.5840 C   0  0  0  0  0  0  0  0  0  0  0  0
    7.8810   -5.3380   27.4620 C   0  0  0  0  0  0  0  0  0  0  0  0
    7.2300   -5.0650   28.6120 C   0  0  0  0  0  0  0  0  0  0  0  0
    5.9170   -4.5760   28.5100 C   0  0  0  0  0  0  0  0  0  0  0  0
    6.0660   -3.3080   27.9730 C   0  0  0  0  0  0  0  0  0  0  0  0
    6.6210   -3.4850   26.6310 N   0  0  0  0  0  0  0  0  0  0  0  0
  1  3  1  0
  2  3  2  0
  4  5  2  0
  3  6  1  0
  6  7  1  0
  7  8  1  0
  5  9  1  0
  8  9  1  0
  9 10  1  0
  6 11  1  0
 10 11  1  0
 12 13  1  0
 13 14  1  0
 14 15  1  0
 15 16  1  0
  5 17  1  0
 12 17  1  0
 16 17  1  0
M  END
