x2119-x1385
     RDKit          3D

 16 17  0  0  0  0  0  0  0  0999 V2000
    7.4100   -3.0120   18.7940 C   0  0  0  0  0  0  0  0  0  0  0  0
    5.4500   -4.0000   19.6880 O   0  0  0  0  0  0  0  0  0  0  0  0
    6.4410   -3.2360   19.8930 C   0  0  0  0  0  0  0  0  0  0  0  0
    9.6880   -3.1090   24.0450 C   0  0  0  0  0  0  0  0  0  0  0  0
    7.1630   -5.7560   28.4890 Br  0  0  0  0  0  0  0  0  0  0  0  0
    6.6500   -2.6300   21.1530 N   0  0  0  0  0  0  0  0  0  0  0  0
    6.3220   -3.3100   22.4230 C   0  0  0  0  0  0  0  0  0  0  0  0
    7.5670   -3.8120   23.0630 C   0  0  0  0  0  0  0  0  0  0  0  0
    8.5230   -2.7290   23.2340 N   0  0  0  0  0  0  0  0  0  0  0  0
    8.8940   -1.9100   22.0710 C   0  0  0  0  0  0  0  0  0  0  0  0
    7.6650   -1.5480   21.2380 C   0  0  0  0  0  0  0  0  0  0  0  0
    9.8110   -5.3770   25.3210 C   0  0  0  0  0  0  0  0  0  0  0  0
    9.2980   -4.1010   25.1030 C   0  0  0  0  0  0  0  0  0  0  0  0
    8.0440   -3.6800   26.2390 S   0  0  0  0  0  0  0  0  0  0  0  0
    8.2350   -5.2510   27.0000 C   0  0  0  0  0  0  0  0  0  0  0  0
    9.1490   -6.0270   26.4680 C   0  0  0  0  0  0  0  0  0  0  0  0
  1  3  1  0
  2  3  2  0
  3  6  1  0
  6  7  1  0
  7  8  1  0
  4  9  1  0
  8  9  1  0
  9 10  1  0
  6 11  1  0
 10 11  1  0
  4 13  1  0
 12 13  2  0
 13 14  1  0
  5 15  1  0
 14 15  1  0
 12 16  1  0
 15 16  2  0
M  END
