x2119-x0770
     RDKit          3D

 17 18  0  0  0  0  0  0  0  0999 V2000
    7.2720   -3.0040   18.8040 C   0  0  0  0  0  0  0  0  0  0  0  0
    5.4270   -4.1570   19.7570 O   0  0  0  0  0  0  0  0  0  0  0  0
   13.3890   -1.6630   21.2040 Cl  0  0  0  0  0  0  0  0  0  0  0  0
    6.3450   -3.3020   19.9250 C   0  0  0  0  0  0  0  0  0  0  0  0
    9.3650   -2.6300   24.2830 C   0  0  0  0  0  0  0  0  0  0  0  0
    6.5160   -2.6470   21.1640 N   0  0  0  0  0  0  0  0  0  0  0  0
    7.3710   -1.4390   21.3330 C   0  0  0  0  0  0  0  0  0  0  0  0
    8.5920   -1.7470   22.1290 C   0  0  0  0  0  0  0  0  0  0  0  0
    8.2420   -2.4650   23.3540 N   0  0  0  0  0  0  0  0  0  0  0  0
    7.4270   -3.6720   23.2600 C   0  0  0  0  0  0  0  0  0  0  0  0
    6.2120   -3.4310   22.3750 C   0  0  0  0  0  0  0  0  0  0  0  0
   10.8770   -0.3370   24.5450 C   0  0  0  0  0  0  0  0  0  0  0  0
   11.9490    0.3850   24.0620 C   0  0  0  0  0  0  0  0  0  0  0  0
   12.7560    0.0470   23.0620 C   0  0  0  0  0  0  0  0  0  0  0  0
   12.4780   -1.0780   22.5010 C   0  0  0  0  0  0  0  0  0  0  0  0
   11.4380   -1.8850   22.8930 C   0  0  0  0  0  0  0  0  0  0  0  0
   10.4840   -1.6970   23.9240 C   0  0  0  0  0  0  0  0  0  0  0  0
  1  4  1  0
  2  4  2  0
  4  6  1  0
  6  7  1  0
  7  8  1  0
  5  9  1  0
  8  9  1  0
  9 10  1  0
  6 11  1  0
 10 11  1  0
 12 13  2  0
 13 14  1  0
  3 15  1  0
 14 15  2  0
 15 16  1  0
  5 17  1  0
 12 17  1  0
 16 17  2  0
M  END
