x2119-x0736
     RDKit          3D

 16 17  0  0  0  0  0  0  0  0999 V2000
    7.3450   -3.0260   18.8390 C   0  0  0  0  0  0  0  0  0  0  0  0
    5.1890   -3.8520   19.4850 O   0  0  0  0  0  0  0  0  0  0  0  0
    6.3090   -3.4140   19.8110 C   0  0  0  0  0  0  0  0  0  0  0  0
    5.1930   -2.0380   24.1790 O   0  0  0  0  0  0  0  0  0  0  0  0
    6.3760   -2.2920   24.3530 C   0  0  0  0  0  0  0  0  0  0  0  0
    6.6150   -3.3650   21.1580 N   0  0  0  0  0  0  0  0  0  0  0  0
    7.0290   -2.1260   21.8870 C   0  0  0  0  0  0  0  0  0  0  0  0
    8.2530   -2.2210   22.7550 C   0  0  0  0  0  0  0  0  0  0  0  0
    7.0960   -2.9270   23.3370 N   0  0  0  0  0  0  0  0  0  0  0  0
    6.8430   -4.2690   23.2410 C   0  0  0  0  0  0  0  0  0  0  0  0
    6.3730   -4.5310   21.8690 C   0  0  0  0  0  0  0  0  0  0  0  0
    8.5360   -1.9480   25.0310 O   0  0  0  0  0  0  0  0  0  0  0  0
    7.2560   -2.1330   25.3440 C   0  0  0  0  0  0  0  0  0  0  0  0
    7.0680   -2.1430   26.6740 C   0  0  0  0  0  0  0  0  0  0  0  0
    8.2370   -1.9640   27.2620 C   0  0  0  0  0  0  0  0  0  0  0  0
    9.0850   -1.8560   26.2190 C   0  0  0  0  0  0  0  0  0  0  0  0
  1  3  1  0
  2  3  2  0
  4  5  2  0
  3  6  1  0
  6  7  1  0
  7  8  1  0
  5  9  1  0
  8  9  1  0
  9 10  1  0
  6 11  1  0
 10 11  1  0
  5 13  1  0
 12 13  1  0
 13 14  2  0
 14 15  1  0
 12 16  1  0
 15 16  2  0
M  END
