x2119-x1351
     RDKit          3D

 18 19  0  0  0  0  0  0  0  0999 V2000
    7.0730   -3.2190   19.2170 C   0  0  0  0  0  0  0  0  0  0  0  0
    5.1940   -4.5470   19.8570 O   0  0  0  0  0  0  0  0  0  0  0  0
    6.2520   -3.9840   20.2010 C   0  0  0  0  0  0  0  0  0  0  0  0
    6.4570   -3.4550   25.3660 N   0  0  0  0  0  0  0  0  0  0  0  0
    7.8740   -2.4760   26.5630 O   0  0  0  0  0  0  0  0  0  0  0  0
    6.7120   -2.2730   26.1860 C   0  0  0  0  0  0  0  0  0  0  0  0
    6.7110   -4.1130   21.5100 N   0  0  0  0  0  0  0  0  0  0  0  0
    7.4190   -3.0660   22.0540 C   0  0  0  0  0  0  0  0  0  0  0  0
    7.4030   -2.9120   23.5280 C   0  0  0  0  0  0  0  0  0  0  0  0
    5.9760   -3.2340   24.0310 C   0  0  0  0  0  0  0  0  0  0  0  0
    5.3030   -4.4450   23.3700 C   0  0  0  0  0  0  0  0  0  0  0  0
    6.1550   -5.0770   22.4620 C   0  0  0  0  0  0  0  0  0  0  0  0
    7.1730   -0.6720   27.9890 C   0  0  0  0  0  0  0  0  0  0  0  0
    6.9200    0.5410   28.6260 C   0  0  0  0  0  0  0  0  0  0  0  0
    5.9730    1.3790   28.1260 C   0  0  0  0  0  0  0  0  0  0  0  0
    5.2040    1.1090   26.9770 C   0  0  0  0  0  0  0  0  0  0  0  0
    5.4370   -0.0960   26.3200 C   0  0  0  0  0  0  0  0  0  0  0  0
    6.4520   -1.0190   26.8400 C   0  0  0  0  0  0  0  0  0  0  0  0
  1  3  1  0
  2  3  2  0
  4  6  1  0
  5  6  2  0
  3  7  1  0
  7  8  1  0
  8  9  1  0
  4 10  1  0
  9 10  1  0
 10 11  1  0
  7 12  1  0
 11 12  1  0
 13 14  2  0
 14 15  1  0
 15 16  2  0
 16 17  1  0
  6 18  1  0
 13 18  1  0
 17 18  2  0
M  END
