x2119-x1336
     RDKit          3D

 20 21  0  0  0  0  0  0  0  0999 V2000
    6.1160   -5.4370   29.0810 C   0  0  0  0  0  0  0  0  0  0  0  0
    8.9030   -1.1600   25.3520 O   0  0  0  0  0  0  0  0  0  0  0  0
    6.3930   -1.1220   25.4410 O   0  0  0  0  0  0  0  0  0  0  0  0
    5.4400   -4.0870   19.6980 O   0  0  0  0  0  0  0  0  0  0  0  0
    9.7520   -3.3410   25.0920 C   0  0  0  0  0  0  0  0  0  0  0  0
    6.5330   -3.4970   19.9100 C   0  0  0  0  0  0  0  0  0  0  0  0
    7.4500   -3.0960   18.8240 C   0  0  0  0  0  0  0  0  0  0  0  0
    7.6360   -1.8450   25.2740 S   0  0  0  0  0  0  0  0  0  0  0  0
    7.0470   -4.8890   28.0480 C   0  0  0  0  0  0  0  0  0  0  0  0
    6.5560   -3.6390   27.3690 C   0  0  0  0  0  0  0  0  0  0  0  0
    7.4910   -3.1370   26.3760 C   0  0  0  0  0  0  0  0  0  0  0  0
    8.7020   -3.7620   26.0940 C   0  0  0  0  0  0  0  0  0  0  0  0
    9.0130   -4.9230   26.8160 C   0  0  0  0  0  0  0  0  0  0  0  0
    8.3800   -5.7110   27.8500 C   0  0  0  0  0  0  0  0  0  0  0  0
    6.9200   -3.2530   21.2320 N   0  0  0  0  0  0  0  0  0  0  0  0
    6.5680   -4.1040   22.3010 C   0  0  0  0  0  0  0  0  0  0  0  0
    6.4790   -3.5420   23.5750 C   0  0  0  0  0  0  0  0  0  0  0  0
    7.6070   -2.5790   23.7510 N   0  0  0  0  0  0  0  0  0  0  0  0
    7.8180   -1.6240   22.6210 C   0  0  0  0  0  0  0  0  0  0  0  0
    8.1110   -2.4280   21.4420 C   0  0  0  0  0  0  0  0  0  0  0  0
  4  6  2  0
  6  7  1  0
  2  8  2  0
  3  8  2  0
  1  9  1  0
  9 10  2  0
  8 11  1  0
 10 11  1  0
  5 12  1  0
 11 12  2  0
 12 13  1  0
  9 14  1  0
 13 14  2  0
  6 15  1  0
 15 16  1  0
 16 17  1  0
  8 18  1  0
 17 18  1  0
 18 19  1  0
 15 20  1  0
 19 20  1  0
M  END
