x2119-x0692
     RDKit          3D

 17 18  0  0  0  0  0  0  0  0999 V2000
   10.9440    2.2210   23.7820 C   0  0  0  0  0  0  0  0  0  0  0  0
    5.4240   -4.1460   19.7440 O   0  0  0  0  0  0  0  0  0  0  0  0
    9.4870   -2.7000   23.6450 C   0  0  0  0  0  0  0  0  0  0  0  0
    6.3090   -3.2440   19.8290 C   0  0  0  0  0  0  0  0  0  0  0  0
    7.2630   -2.9990   18.7260 C   0  0  0  0  0  0  0  0  0  0  0  0
   11.3530    0.8090   23.5340 C   0  0  0  0  0  0  0  0  0  0  0  0
   10.2250   -0.1780   23.7410 C   0  0  0  0  0  0  0  0  0  0  0  0
   10.4910   -1.6170   23.5050 C   0  0  0  0  0  0  0  0  0  0  0  0
   11.8140   -1.7610   23.1280 C   0  0  0  0  0  0  0  0  0  0  0  0
   12.7880   -0.7850   22.9670 C   0  0  0  0  0  0  0  0  0  0  0  0
   12.8500    0.6300   23.1040 C   0  0  0  0  0  0  0  0  0  0  0  0
    6.4290   -2.4560   20.9930 N   0  0  0  0  0  0  0  0  0  0  0  0
    7.3800   -1.3970   21.0810 C   0  0  0  0  0  0  0  0  0  0  0  0
    8.5640   -1.5940   21.8050 C   0  0  0  0  0  0  0  0  0  0  0  0
    8.2880   -2.3600   23.0590 N   0  0  0  0  0  0  0  0  0  0  0  0
    7.4010   -3.5550   22.8350 C   0  0  0  0  0  0  0  0  0  0  0  0
    6.1160   -3.1000   22.2630 C   0  0  0  0  0  0  0  0  0  0  0  0
  2  4  2  0
  4  5  1  0
  1  6  1  0
  6  7  2  0
  3  8  1  0
  7  8  1  0
  8  9  2  0
  9 10  1  0
  6 11  1  0
 10 11  2  0
  4 12  1  0
 12 13  1  0
 13 14  1  0
  3 15  1  0
 14 15  1  0
 15 16  1  0
 12 17  1  0
 16 17  1  0
M  END
