x2119-x3077
     RDKit          3D

 18 20  0  0  0  0  0  0  0  0999 V2000
    6.9720   -3.2430   19.2550 C   0  0  0  0  0  0  0  0  0  0  0  0
    5.4210   -4.8590   19.9900 O   0  0  0  0  0  0  0  0  0  0  0  0
   13.3310   -1.8330   21.1240 Cl  0  0  0  0  0  0  0  0  0  0  0  0
    6.2590   -3.9880   20.3200 C   0  0  0  0  0  0  0  0  0  0  0  0
    9.1900   -2.0830   24.3730 C   0  0  0  0  0  0  0  0  0  0  0  0
    6.5440   -3.7480   21.6770 N   0  0  0  0  0  0  0  0  0  0  0  0
    7.1100   -4.6880   22.6800 C   0  0  0  0  0  0  0  0  0  0  0  0
    7.5200   -3.7480   23.7740 C   0  0  2  0  0  0  0  0  0  0  0  0
    6.4100   -2.6990   23.6770 C   0  0  0  0  0  0  0  0  0  0  0  0
    6.6620   -2.3920   22.2220 C   0  0  1  0  0  0  0  0  0  0  0  0
    8.5320   -2.8260   23.2860 N   0  0  0  0  0  0  0  0  0  0  0  0
    7.9970   -1.9300   22.2110 C   0  0  0  0  0  0  0  0  0  0  0  0
   10.8300   -0.0670   24.3740 C   0  0  0  0  0  0  0  0  0  0  0  0
   11.9500    0.6000   23.8950 C   0  0  0  0  0  0  0  0  0  0  0  0
   12.7420    0.1220   22.9280 C   0  0  0  0  0  0  0  0  0  0  0  0
   12.3830   -1.1210   22.3920 C   0  0  0  0  0  0  0  0  0  0  0  0
   11.2880   -1.8550   22.8010 C   0  0  0  0  0  0  0  0  0  0  0  0
   10.4000   -1.3680   23.8580 C   0  0  0  0  0  0  0  0  0  0  0  0
  1  4  1  0
  2  4  2  0
  4  6  1  0
  6  7  1  0
  8  7  1  6
  8  9  1  0
  6 10  1  0
  9 10  1  0
  5 11  1  0
  8 11  1  0
 10 12  1  1
 11 12  1  0
 13 14  2  0
 14 15  1  0
  3 16  1  0
 15 16  2  0
 16 17  1  0
  5 18  1  0
 13 18  1  0
 17 18  2  0
M  END
