x2119-x2097
     RDKit          3D

  7  7  0  0  0  0  0  0  0  0999 V2000
    5.9360   -5.4060   20.0270 N   0  0  0  0  0  0  0  0  0  0  0  0
    6.4980   -4.2550   20.0450 C   0  0  0  0  0  0  0  0  0  0  0  0
    6.2310   -3.3740   21.1530 C   0  0  0  0  0  0  0  0  0  0  0  0
    5.0020   -3.4550   21.8730 N   0  0  0  0  0  0  0  0  0  0  0  0
    5.0840   -2.4390   22.8930 C   0  0  0  0  0  0  0  0  0  0  0  0
    6.3760   -1.8620   22.6610 C   0  0  0  0  0  0  0  0  0  0  0  0
    7.0880   -2.4040   21.6210 N   0  0  0  0  0  0  0  0  0  0  0  0
  1  2  2  3
  2  3  1  0
  3  4  1  0
  4  5  1  0
  5  6  2  0
  3  7  2  0
  6  7  1  0
M  END
