x2119-x1458
     RDKit          3D

 16 16  0  0  0  0  0  0  0  0999 V2000
    7.1990   -3.4980   26.7620 N   0  0  0  0  0  0  0  0  0  0  0  0
    8.8650   -5.3370   26.7150 C   0  0  0  0  0  0  0  0  0  0  0  0
    5.1150   -3.5050   25.6730 O   0  0  0  0  0  0  0  0  0  0  0  0
    7.7110   -4.7040   27.4810 C   0  0  0  0  0  0  0  0  0  0  0  0
    5.3090   -4.5490   19.8900 O   0  0  0  0  0  0  0  0  0  0  0  0
    6.6890   -5.5670   27.8640 C   0  0  0  0  0  0  0  0  0  0  0  0
    7.7840   -2.1930   27.0710 C   0  0  0  0  0  0  0  0  0  0  0  0
    6.3300   -3.7300   25.6300 C   0  0  0  0  0  0  0  0  0  0  0  0
    6.3860   -4.0700   20.2290 C   0  0  0  0  0  0  0  0  0  0  0  0
    7.2120   -3.2700   19.2500 C   0  0  0  0  0  0  0  0  0  0  0  0
    6.8950   -4.2790   21.4910 N   0  0  0  0  0  0  0  0  0  0  0  0
    7.9000   -3.4380   22.1330 C   0  0  0  0  0  0  0  0  0  0  0  0
    7.4430   -3.0450   23.5180 C   0  0  0  0  0  0  0  0  0  0  0  0
    6.9680   -4.2520   24.3460 C   0  0  0  0  0  0  0  0  0  0  0  0
    5.9920   -5.1750   23.5790 C   0  0  0  0  0  0  0  0  0  0  0  0
    6.5350   -5.5130   22.1800 C   0  0  0  0  0  0  0  0  0  0  0  0
  1  4  1  0
  2  4  1  0
  4  6  1  0
  1  7  1  0
  1  8  1  0
  3  8  2  0
  5  9  2  0
  9 10  1  0
  9 11  1  0
 11 12  1  0
 12 13  1  0
  8 14  1  0
 13 14  1  0
 14 15  1  0
 11 16  1  0
 15 16  1  0
M  END
