x2119-x1418
     RDKit          3D

 15 16  0  0  0  0  0  0  0  0999 V2000
    7.3550   -3.0130   18.7700 C   0  0  0  0  0  0  0  0  0  0  0  0
    5.4700   -4.0940   19.7200 O   0  0  0  0  0  0  0  0  0  0  0  0
    6.4040   -3.2570   19.8820 C   0  0  0  0  0  0  0  0  0  0  0  0
   10.0860   -2.7190   23.3830 C   0  0  0  0  0  0  0  0  0  0  0  0
    6.5810   -2.5800   21.1060 N   0  0  0  0  0  0  0  0  0  0  0  0
    6.4920   -3.2480   22.4250 C   0  0  0  0  0  0  0  0  0  0  0  0
    7.8460   -3.5400   22.9830 C   0  0  0  0  0  0  0  0  0  0  0  0
    8.7350   -2.3830   22.9220 N   0  0  0  0  0  0  0  0  0  0  0  0
    8.8020   -1.6180   21.6760 C   0  0  0  0  0  0  0  0  0  0  0  0
    7.4310   -1.3760   21.0740 C   0  0  0  0  0  0  0  0  0  0  0  0
   12.4130   -1.6090   22.9490 C   0  0  0  0  0  0  0  0  0  0  0  0
   11.0360   -1.5750   23.2120 C   0  0  0  0  0  0  0  0  0  0  0  0
   10.4050    0.0320   23.3420 S   0  0  0  0  0  0  0  0  0  0  0  0
   12.0300    0.6010   23.0440 C   0  0  0  0  0  0  0  0  0  0  0  0
   13.0090   -0.2410   22.8490 C   0  0  0  0  0  0  0  0  0  0  0  0
  1  3  1  0
  2  3  2  0
  3  5  1  0
  5  6  1  0
  6  7  1  0
  4  8  1  0
  7  8  1  0
  8  9  1  0
  5 10  1  0
  9 10  1  0
  4 12  1  0
 11 12  2  0
 12 13  1  0
 13 14  1  0
 11 15  1  0
 14 15  2  0
M  END
