x2193-x1458
     RDKit          3D

 32 36  0  0  0  0  0  0  0  0999 V2000
    6.1930   -3.7310   26.7620 N   0  0  0  0  0  0  0  0  0  0  0  0
    8.2390   -4.1700   27.4190 C   0  0  1  0  0  0  0  0  0  0  0  0
    4.4940   -3.4180   25.1600 O   0  0  0  0  0  0  0  0  0  0  0  0
    7.0860   -4.7940   27.1690 C   0  0  1  0  0  0  0  0  0  0  0  0
    5.2820   -4.6430   19.9210 O   0  0  0  0  0  0  0  0  0  0  0  0
    6.6060   -5.7610   28.0370 C   0  0  0  0  0  0  0  0  0  0  0  0
    6.5570   -2.4260   27.3770 C   0  0  0  0  0  0  0  0  0  0  0  0
    5.6530   -3.7710   25.3780 C   0  0  0  0  0  0  0  0  0  0  0  0
    6.3630   -4.1520   20.3000 C   0  0  0  0  0  0  0  0  0  0  0  0
    7.2100   -3.3170   19.4030 C   0  0  0  0  0  0  0  0  0  0  0  0
   11.0640    2.5920   22.9510 C   0  0  0  0  0  0  0  0  0  0  0  0
    9.2670    1.7840   21.1450 O   0  0  0  0  0  0  0  0  0  0  0  0
    8.4300    2.7620   23.3390 O   0  0  0  0  0  0  0  0  0  0  0  0
    9.4480    1.9680   22.5620 S   0  0  0  0  0  0  0  0  0  0  0  0
    6.8600   -4.3850   21.5800 N   0  0  0  0  0  0  0  0  0  0  0  0
    7.5430   -3.3800   22.3700 C   0  0  0  0  0  0  0  0  0  0  0  0
    6.8210   -3.0770   23.5220 C   0  0  0  0  0  0  0  0  0  0  0  0
    6.5350   -4.2300   24.1970 C   0  0  0  0  0  0  0  0  0  0  0  0
    5.7540   -5.2070   23.5160 C   0  0  0  0  0  0  0  0  0  0  0  0
    6.3840   -5.5220   22.3030 C   0  0  0  0  0  0  0  0  0  0  0  0
    9.4530    0.3400   23.2490 C   0  0  0  0  0  0  0  0  0  0  0  0
    9.1740    0.2300   24.6760 C   0  0  0  0  0  0  0  0  0  0  0  0
    9.1710   -1.1760   25.1810 C   0  0  0  0  0  0  0  0  0  0  0  0
    9.4170   -2.2550   24.3500 C   0  0  0  0  0  0  0  0  0  0  0  0
    9.6910   -2.0450   22.9830 C   0  0  0  0  0  0  0  0  0  0  0  0
    9.7090   -0.7810   22.4410 C   0  0  0  0  0  0  0  0  0  0  0  0
    8.8790   -6.1250   25.7940 N   0  0  0  0  0  0  0  0  0  0  0  0
    8.2150   -5.0220   26.3020 C   0  0  2  0  0  0  0  0  0  0  0  0
    8.4600   -3.6800   26.0250 C   0  0  2  0  0  0  0  0  0  0  0  0
    9.3800   -3.5060   24.9120 N   0  0  0  0  0  0  0  0  0  0  0  0
    9.7470   -4.6740   24.1460 C   0  0  0  0  0  0  0  0  0  0  0  0
    9.0620   -5.8460   24.3940 C   0  0  0  0  0  0  0  0  0  0  0  0
  4  1  1  0
  2  4  1  6
  4  6  1  1
  1  7  1  0
  1  8  1  0
  3  8  2  0
  5  9  2  0
  9 10  1  0
 14 11  1  0
 12 14  2  0
 13 14  2  0
  9 15  1  0
 15 16  1  0
 16 17  1  0
  8 18  1  0
 17 18  1  0
 18 19  1  0
 15 20  1  0
 19 20  1  0
 14 21  1  0
 21 22  2  0
 22 23  1  0
 23 24  2  0
 24 25  1  0
 21 26  1  0
 25 26  2  0
  2 28  1  0
  4 28  1  0
 28 27  1  1
  2 29  1  0
 28 29  1  0
 24 30  1  0
 29 30  1  1
 30 31  1  0
 27 32  1  0
 31 32  1  0
M  END
