x2193-x0387
     RDKit          3D

 22 24  0  0  0  0  0  0  0  0999 V2000
   10.5170    3.3880   22.3080 C   0  0  0  0  0  0  0  0  0  0  0  0
    8.5890    2.1950   20.8870 O   0  0  0  0  0  0  0  0  0  0  0  0
    8.0030    3.2640   23.0620 O   0  0  0  0  0  0  0  0  0  0  0  0
    8.9510    2.5410   22.2390 S   0  0  0  0  0  0  0  0  0  0  0  0
    8.4190   -4.1170   27.1650 O   0  0  0  0  0  0  0  0  0  0  0  0
    9.2940    1.0070   23.0470 C   0  0  0  0  0  0  0  0  0  0  0  0
   10.4890    0.3170   23.1590 C   0  0  0  0  0  0  0  0  0  0  0  0
   10.5560   -1.0360   23.9410 C   0  0  0  0  0  0  0  0  0  0  0  0
    9.3590   -1.7520   24.6550 C   0  0  0  0  0  0  0  0  0  0  0  0
    8.0550   -0.9810   24.5230 C   0  0  0  0  0  0  0  0  0  0  0  0
    8.3800    0.2100   23.7450 C   0  0  0  0  0  0  0  0  0  0  0  0
    8.5530   -5.3880   24.7070 N   0  0  0  0  0  0  0  0  0  0  0  0
    7.5810   -4.3730   25.1140 C   0  0  0  0  0  0  0  0  0  0  0  0
    8.1220   -3.4440   25.9530 C   0  0  2  0  0  0  0  0  0  0  0  0
    9.3790   -2.9480   25.3580 N   0  0  0  0  0  0  0  0  0  0  0  0
   10.3750   -3.9860   25.0760 C   0  0  0  0  0  0  0  0  0  0  0  0
    9.8280   -5.1840   25.4100 C   0  0  0  0  0  0  0  0  0  0  0  0
   10.6170   -0.5460   24.8340 C   0  0  0  0  0  0  0  0  0  0  0  0
    9.6860   -0.4960   23.7870 C   0  0  0  0  0  0  0  0  0  0  0  0
   10.1490   -1.2600   22.6000 C   0  0  0  0  0  0  0  0  0  0  0  0
   11.6890   -1.9900   22.8150 S   0  0  0  0  0  0  0  0  0  0  0  0
   11.7590   -1.3050   24.4860 C   0  0  0  0  0  0  0  0  0  0  0  0
  4  1  1  0
  2  4  2  0
  3  4  2  0
  4  6  1  0
  6  7  2  0
  7  8  1  0
  8  9  2  0
  9 10  1  0
  6 11  1  0
 10 11  2  0
 12 13  1  0
 14  5  1  1
 13 14  1  0
  9 15  1  0
 14 15  1  0
 15 16  1  0
 12 17  1  0
 16 17  1  0
 11 19  1  0
 18 19  1  0
 19 20  2  0
 20 21  1  0
 18 22  2  0
 21 22  1  0
M  END
