x2193-x0426
     RDKit          3D

 36 39  0  0  0  0  0  0  0  0999 V2000
    2.2970    1.6710   23.8910 C   0  0  0  0  0  0  0  0  0  0  0  0
    2.1390    0.4540   23.8520 O   0  0  0  0  0  0  0  0  0  0  0  0
    3.4680    2.4120   23.3230 N   0  0  0  0  0  0  0  0  0  0  0  0
    4.3870    1.7380   22.4350 C   0  0  1  0  0  0  0  0  0  0  0  0
    3.7610    1.4190   21.2320 C   0  0  0  0  0  0  0  0  0  0  0  0
    2.8090    4.2430   25.1980 F   0  0  0  0  0  0  0  0  0  0  0  0
   10.8000    2.5640   22.9380 C   0  0  0  0  0  0  0  0  0  0  0  0
    9.2680    1.7170   21.0340 O   0  0  0  0  0  0  0  0  0  0  0  0
    7.9530    2.6060   23.2370 N   0  0  0  0  0  0  0  0  0  0  0  0
    9.2650    1.8130   22.4490 S   0  0  2  0  0  0  0  0  0  0  0  0
    5.7580    2.4370   22.3090 C   0  0  0  0  0  0  0  0  0  0  0  0
    6.8050    1.9270   23.3230 C   0  0  0  0  0  0  0  0  0  0  0  0
    1.5490    3.7800   25.1940 C   0  0  0  0  0  0  0  0  0  0  0  0
    1.2060    2.5680   24.5950 C   0  0  0  0  0  0  0  0  0  0  0  0
   -0.0800    2.1010   24.5940 C   0  0  0  0  0  0  0  0  0  0  0  0
   -1.0880    2.8390   25.2030 C   0  0  0  0  0  0  0  0  0  0  0  0
   -0.7500    4.0210   25.7870 C   0  0  0  0  0  0  0  0  0  0  0  0
    0.5740    4.5230   25.7990 C   0  0  0  0  0  0  0  0  0  0  0  0
    5.6970    0.0900   20.2790 C   0  0  0  0  0  0  0  0  0  0  0  0
    6.5940   -0.2410   19.1710 C   0  0  0  0  0  0  0  0  0  0  0  0
    6.5310    0.3340   17.9590 N   0  0  0  0  0  0  0  0  0  0  0  0
    5.5680    1.2670   17.7970 C   0  0  0  0  0  0  0  0  0  0  0  0
    4.5960    1.6770   18.8750 C   0  0  0  0  0  0  0  0  0  0  0  0
    4.6970    1.0540   20.1190 C   0  0  0  0  0  0  0  0  0  0  0  0
    9.2350    0.1750   23.0770 C   0  0  0  0  0  0  0  0  0  0  0  0
    8.6960   -0.0120   24.3010 C   0  0  0  0  0  0  0  0  0  0  0  0
    8.5990   -1.2440   24.8900 C   0  0  0  0  0  0  0  0  0  0  0  0
    9.0620   -2.3470   24.2240 C   0  0  0  0  0  0  0  0  0  0  0  0
    9.6450   -2.2450   22.9420 C   0  0  0  0  0  0  0  0  0  0  0  0
    9.7210   -0.9570   22.3850 C   0  0  0  0  0  0  0  0  0  0  0  0
    8.9880   -6.0510   26.0990 N   0  0  0  0  0  0  0  0  0  0  0  0
    8.2270   -4.9680   26.7390 C   0  0  0  0  0  0  0  0  0  0  0  0
    8.0900   -3.7400   26.0540 C   0  0  0  0  0  0  0  0  0  0  0  0
    8.9460   -3.5710   24.8500 N   0  0  0  0  0  0  0  0  0  0  0  0
    9.5550   -4.7250   24.2180 C   0  0  0  0  0  0  0  0  0  0  0  0
    9.0050   -5.9130   24.6320 C   0  0  0  0  0  0  0  0  0  0  0  0
  1  2  2  0
  1  3  1  0
  3  4  1  0
  4  5  1  6
 10  7  1  1
  8 10  2  0
  9 10  2  0
  4 11  1  0
  9 12  1  0
 11 12  1  0
  6 13  1  0
  1 14  1  0
 13 14  2  0
 14 15  1  0
 15 16  2  0
 16 17  1  0
 13 18  1  0
 17 18  2  0
 19 20  2  0
 20 21  1  0
 21 22  2  0
 22 23  1  0
  5 24  1  0
 19 24  1  0
 23 24  2  0
 10 25  1  0
 25 26  2  0
 26 27  1  0
 27 28  2  0
 28 29  1  0
 25 30  1  0
 29 30  2  0
 31 32  1  0
 32 33  1  0
 28 34  1  0
 33 34  1  0
 34 35  1  0
 31 36  1  0
 35 36  1  0
M  END
