x2193-x2572
     RDKit          3D

 32 35  0  0  0  0  0  0  0  0999 V2000
    5.4410    0.9890   21.7790 C   0  0  0  0  0  0  0  0  0  0  0  0
    8.7600    1.0670   22.4240 C   0  0  0  0  0  0  0  0  0  0  0  0
    7.8650   -0.3930   20.6490 N   0  0  0  0  0  0  0  0  0  0  0  0
   14.0170   -1.4950   20.3770 N   0  0  0  0  0  0  0  0  0  0  0  0
    8.2600   -0.0570   21.9780 C   0  0  0  0  0  0  0  0  0  0  0  0
    8.0440   -1.2030   22.8730 C   0  0  0  0  0  0  0  0  0  0  0  0
   13.3030   -1.1840   21.4450 C   0  0  0  0  0  0  0  0  0  0  0  0
    9.7410    3.2970   22.0810 C   0  0  0  0  0  0  0  0  0  0  0  0
    8.7410    0.8900   23.7340 O   0  0  0  0  0  0  0  0  0  0  0  0
    9.3990    2.3630   23.4730 S   0  0  0  0  0  0  0  0  0  0  0  0
    6.1680    0.6730   17.5430 N   0  0  0  0  0  0  0  0  0  0  0  0
    7.0560    0.1150   18.5130 C   0  0  0  0  0  0  0  0  0  0  0  0
    6.8890    0.1890   19.8350 C   0  0  0  0  0  0  0  0  0  0  0  0
    5.7650    0.8420   20.3210 C   0  0  0  0  0  0  0  0  0  0  0  0
    4.8730    1.4060   19.3980 C   0  0  0  0  0  0  0  0  0  0  0  0
    5.1130    1.3040   18.0680 C   0  0  0  0  0  0  0  0  0  0  0  0
   10.7550    0.6780   23.9060 C   0  0  0  0  0  0  0  0  0  0  0  0
   12.0160    1.1780   23.7180 C   0  0  0  0  0  0  0  0  0  0  0  0
   13.0840    0.2400   23.3540 C   0  0  0  0  0  0  0  0  0  0  0  0
   12.5260   -0.7440   22.4590 C   0  0  0  0  0  0  0  0  0  0  0  0
   11.2620   -1.2150   22.6130 C   0  0  0  0  0  0  0  0  0  0  0  0
   10.5720   -0.7730   23.7000 C   0  0  1  0  0  0  0  0  0  0  0  0
   11.2300   -1.3460   24.7610 C   0  0  0  0  0  0  0  0  0  0  0  0
   10.5700   -2.3660   25.2420 C   0  0  0  0  0  0  0  0  0  0  0  0
    9.3980   -2.5180   24.6510 C   0  0  0  0  0  0  0  0  0  0  0  0
    9.2210   -1.5250   23.7370 C   0  0  0  0  0  0  0  0  0  0  0  0
    8.1470   -6.1150   25.9190 N   0  0  0  0  0  0  0  0  0  0  0  0
    8.5780   -5.0850   26.7900 C   0  0  0  0  0  0  0  0  0  0  0  0
    9.4450   -4.3330   26.0800 C   0  0  0  0  0  0  0  0  0  0  0  0
    8.6960   -3.5470   25.0960 N   0  0  0  0  0  0  0  0  0  0  0  0
    8.1130   -4.4170   24.0900 C   0  0  0  0  0  0  0  0  0  0  0  0
    7.7610   -5.6780   24.5540 C   0  0  0  0  0  0  0  0  0  0  0  0
  2  5  2  0
  3  5  1  0
  5  6  1  0
  4  7  3  0
  2 10  2  0
  8 10  1  0
  9 10  2  0
 11 12  2  0
  3 13  1  0
 12 13  1  0
  1 14  1  0
 13 14  2  0
 14 15  1  0
 11 16  1  0
 15 16  2  0
 17 18  2  0
 18 19  1  0
  7 20  1  0
 19 20  1  0
 20 21  2  0
 22 17  1  1
 21 22  1  0
 22 23  1  0
 23 24  2  0
 24 25  1  0
  6 26  1  0
 22 26  1  0
 25 26  2  0
 27 28  1  0
 28 29  1  0
 25 30  1  0
 29 30  1  0
 30 31  1  0
 27 32  1  0
 31 32  1  0
M  END
