x2193-x0978
     RDKit          3D

 33 36  0  0  0  0  0  0  0  0999 V2000
    1.8930   -5.6970   23.2250 N   0  0  0  0  0  0  0  0  0  0  0  0
    2.3080   -8.0720   24.6740 C   0  0  0  0  0  0  0  0  0  0  0  0
    4.4820   -7.7530   24.6420 O   0  0  0  0  0  0  0  0  0  0  0  0
    3.2150   -7.1320   24.4700 C   0  0  1  0  0  0  0  0  0  0  0  0
    5.1170   -5.6840   21.8370 N   0  0  0  0  0  0  0  0  0  0  0  0
    0.5750   -7.4010   21.7560 O   0  0  0  0  0  0  0  0  0  0  0  0
    3.1500   -6.4420   23.2570 C   0  0  2  0  0  0  0  0  0  0  0  0
    4.4930   -4.4440   23.5870 O   0  0  0  0  0  0  0  0  0  0  0  0
    0.7040   -6.2140   22.5210 C   0  0  0  0  0  0  0  0  0  0  0  0
   -0.5220   -5.3790   22.6260 C   0  0  0  0  0  0  0  0  0  0  0  0
    4.3290   -5.4450   22.8990 C   0  0  0  0  0  0  0  0  0  0  0  0
    6.2710   -4.8840   21.6440 C   0  0  2  0  0  0  0  0  0  0  0  0
    6.5850   -4.4350   20.1740 C   0  0  0  0  0  0  0  0  0  0  0  0
    5.5650   -3.6070   19.4730 C   0  0  0  0  0  0  0  0  0  0  0  0
   11.0420    2.3840   23.0250 C   0  0  0  0  0  0  0  0  0  0  0  0
    9.2670    1.6560   21.0980 O   0  0  0  0  0  0  0  0  0  0  0  0
    8.3810    2.5660   23.1210 O   0  0  0  0  0  0  0  0  0  0  0  0
    9.5140    1.7400   22.5750 S   0  0  0  0  0  0  0  0  0  0  0  0
    7.2760   -5.5150   22.3540 C   0  0  0  0  0  0  0  0  0  0  0  0
    8.1230   -4.5900   22.9400 C   0  0  0  0  0  0  0  0  0  0  0  0
    8.4390   -4.7800   24.2510 C   0  0  1  0  0  0  0  0  0  0  0  0
    9.4180    0.1220   23.2770 C   0  0  0  0  0  0  0  0  0  0  0  0
    8.7460    0.0420   24.5640 C   0  0  0  0  0  0  0  0  0  0  0  0
    8.6620   -1.3360   25.1280 C   0  0  0  0  0  0  0  0  0  0  0  0
    9.1850   -2.4390   24.4950 C   0  0  0  0  0  0  0  0  0  0  0  0
    9.8310   -2.2700   23.2380 C   0  0  0  0  0  0  0  0  0  0  0  0
    9.9440   -1.0230   22.6410 C   0  0  0  0  0  0  0  0  0  0  0  0
    9.1060   -6.2530   26.2560 N   0  0  0  0  0  0  0  0  0  0  0  0
    8.5740   -5.1420   26.9150 C   0  0  0  0  0  0  0  0  0  0  0  0
    8.8870   -3.8800   26.4290 C   0  0  0  0  0  0  0  0  0  0  0  0
    9.0810   -3.6910   25.0650 C   0  0  1  0  0  0  0  0  0  0  0  0
    9.8830   -4.7050   24.5850 C   0  0  1  0  0  0  0  0  0  0  0  0
    9.2480   -5.9250   24.8190 C   0  0  2  0  0  0  0  0  0  0  0  0
  4  2  1  6
  3  4  1  0
  7  1  1  1
  4  7  1  0
  1  9  1  0
  6  9  2  0
  9 10  1  0
  5 11  1  0
  7 11  1  0
  8 11  2  0
  5 12  1  0
 12 13  1  6
 13 14  2  3
 18 15  1  0
 16 18  2  0
 17 18  2  0
 12 19  1  0
 19 20  1  0
 21 20  1  6
 18 22  1  0
 22 23  2  0
 23 24  1  0
 24 25  2  0
 25 26  1  0
 22 27  1  0
 26 27  2  0
 28 29  1  0
 29 30  1  0
 21 31  1  0
 31 25  1  6
 30 31  1  0
 21 32  1  0
 31 32  1  0
 21 33  1  0
 33 28  1  1
 32 33  1  1
M  END
