x2193-x2705-x1311-x2643
     RDKit          3D

 48 52  0  0  0  0  0  0  0  0999 V2000
    6.8960   -1.3030   21.8540 N   0  0  0  0  0  0  0  0  0  0  0  0
    6.8400   -4.6960   20.8730 C   0  0  2  0  0  0  0  0  0  0  0  0
    4.7910   -2.9240   21.1930 O   0  0  0  0  0  0  0  0  0  0  0  0
    6.9470   -3.6260   21.7520 C   0  0  0  0  0  0  0  0  0  0  0  0
    7.5120    2.0440   22.8650 N   0  0  0  0  0  0  0  0  0  0  0  0
    8.6490    1.2680   21.0490 O   0  0  0  0  0  0  0  0  0  0  0  0
    6.0710   -2.5390   21.5600 C   0  0  0  0  0  0  0  0  0  0  0  0
    6.5370    0.1110   21.5060 C   0  0  1  0  0  0  0  0  0  0  0  0
    7.6590    1.1770   21.8020 C   0  0  0  0  0  0  0  0  0  0  0  0
   10.0730    2.1030   23.9750 C   0  0  0  0  0  0  0  0  0  0  0  0
    9.3170    1.2250   24.9720 C   0  0  0  0  0  0  0  0  0  0  0  0
    6.1610    4.5410   21.8770 C   0  0  0  0  0  0  0  0  0  0  0  0
   11.9870   -1.3280   23.3640 C   0  0  0  0  0  0  0  0  0  0  0  0
   12.4820    0.0190   23.9190 C   0  0  0  0  0  0  0  0  0  0  0  0
   12.4700   -2.4390   24.3660 C   0  0  0  0  0  0  0  0  0  0  0  0
   12.7340   -1.5060   22.0250 C   0  0  0  0  0  0  0  0  0  0  0  0
    5.5800   -4.8370   20.2030 O   0  0  0  0  0  0  0  0  0  0  0  0
    7.0420   -5.6980   21.9730 N   0  0  0  0  0  0  0  0  0  0  0  0
    4.2090   -7.6830   24.9750 O   0  0  0  0  0  0  0  0  0  0  0  0
    2.9350   -5.5500   24.6920 O   0  0  0  0  0  0  0  0  0  0  0  0
    6.2960    0.4410   17.8030 N   0  0  0  0  0  0  0  0  0  0  0  0
    5.1650    1.1600   17.7380 C   0  0  0  0  0  0  0  0  0  0  0  0
    4.3790    1.5650   18.8910 C   0  0  0  0  0  0  0  0  0  0  0  0
    4.8740    1.1790   20.0850 C   0  0  0  0  0  0  0  0  0  0  0  0
    6.0400    0.4560   20.1560 C   0  0  0  0  0  0  0  0  0  0  0  0
    6.7230    0.0950   19.0150 C   0  0  0  0  0  0  0  0  0  0  0  0
    9.5960   -1.3990   24.2490 N   0  0  0  0  0  0  0  0  0  0  0  0
    8.2760   -1.3970   23.9160 N   0  0  0  0  0  0  0  0  0  0  0  0
    8.1810   -1.3460   22.5760 C   0  0  0  0  0  0  0  0  0  0  0  0
    9.5410   -1.3200   22.1170 C   0  0  0  0  0  0  0  0  0  0  0  0
   10.4440   -1.3500   23.2060 C   0  0  0  0  0  0  0  0  0  0  0  0
    9.4330    3.4000   23.5070 C   0  0  0  0  0  0  0  0  0  0  0  0
   10.1650    4.5880   23.6560 C   0  0  0  0  0  0  0  0  0  0  0  0
    9.5100    5.7980   23.1870 C   0  0  0  0  0  0  0  0  0  0  0  0
    8.2030    5.6930   22.6200 C   0  0  0  0  0  0  0  0  0  0  0  0
    7.5300    4.4790   22.5010 C   0  0  0  0  0  0  0  0  0  0  0  0
    8.1320    3.3330   22.9430 C   0  0  0  0  0  0  0  0  0  0  0  0
    8.9670   -6.0380   23.3490 C   0  0  0  0  0  0  0  0  0  0  0  0
    9.7740   -5.6170   24.3850 C   0  0  0  0  0  0  0  0  0  0  0  0
    9.5180   -4.4590   25.0910 C   0  0  0  0  0  0  0  0  0  0  0  0
    8.4090   -3.6900   24.7540 C   0  0  0  0  0  0  0  0  0  0  0  0
    7.5940   -4.1120   23.7090 C   0  0  0  0  0  0  0  0  0  0  0  0
    7.8740   -5.2970   22.9940 C   0  0  0  0  0  0  0  0  0  0  0  0
    4.8530   -6.5530   21.9490 C   0  0  0  0  0  0  0  0  0  0  0  0
    5.8830   -6.2400   22.7240 C   0  0  2  0  0  0  0  0  0  0  0  0
    5.5090   -5.5980   23.9200 C   0  0  0  0  0  0  0  0  0  0  0  0
    3.9720   -6.4520   24.2390 S   0  0  0  0  0  0  0  0  0  0  0  0
    3.7030   -6.7320   22.6380 C   0  0  0  0  0  0  0  0  0  0  0  0
  2  4  1  0
  1  7  1  0
  3  7  2  0
  4  7  1  0
  1  8  1  0
  5  9  1  0
  6  9  2  0
  8  9  1  6
 10 11  1  0
 13 14  1  0
 13 15  1  0
 13 16  1  0
  2 17  1  1
  2 18  1  0
 21 22  2  0
 22 23  1  0
 23 24  2  0
  8 25  1  0
 24 25  1  0
 21 26  1  0
 25 26  2  0
 27 28  1  0
  1 29  1  0
 28 29  2  0
 29 30  1  0
 13 31  1  0
 27 31  1  0
 30 31  2  0
 10 32  1  0
 32 33  2  0
 33 34  1  0
 34 35  2  0
 12 36  1  0
 35 36  1  0
  5 37  1  0
 32 37  1  0
 36 37  2  0
 38 39  2  0
 39 40  1  0
 40 41  2  0
 41 42  1  0
 18 43  1  0
 38 43  1  0
 42 43  2  0
 45 18  1  6
 44 45  1  0
 45 46  1  0
 47 19  1  0
 20 47  1  0
 46 47  1  0
 44 48  2  0
 47 48  1  0
M  END
