x2193-x0692
     RDKit          3D

 26 28  0  0  0  0  0  0  0  0999 V2000
   11.0880    2.2710   23.4160 C   0  0  0  0  0  0  0  0  0  0  0  0
    5.4990   -4.1340   19.7340 O   0  0  0  0  0  0  0  0  0  0  0  0
    9.0140   -2.3410   24.0560 C   0  0  1  0  0  0  0  0  0  0  0  0
    6.3790   -3.2300   19.8290 C   0  0  0  0  0  0  0  0  0  0  0  0
    7.3640   -2.9940   18.7420 C   0  0  0  0  0  0  0  0  0  0  0  0
    9.4280    1.8190   21.3800 O   0  0  0  0  0  0  0  0  0  0  0  0
    8.4590    2.5770   23.5350 O   0  0  0  0  0  0  0  0  0  0  0  0
    9.5430    2.6050   22.5800 S   0  0  0  0  0  0  0  0  0  0  0  0
   11.3390    0.7760   23.4130 C   0  0  0  0  0  0  0  0  0  0  0  0
   10.0830   -0.0000   23.7290 C   0  0  0  0  0  0  0  0  0  0  0  0
   10.1980   -1.4740   23.7510 C   0  0  0  0  0  0  0  0  0  0  0  0
   11.4980   -1.8580   23.4570 C   0  0  0  0  0  0  0  0  0  0  0  0
   12.5990   -1.0420   23.1760 C   0  0  0  0  0  0  0  0  0  0  0  0
   12.7630    0.3780   23.0980 C   0  0  0  0  0  0  0  0  0  0  0  0
    6.4290   -2.4420   21.0040 N   0  0  0  0  0  0  0  0  0  0  0  0
    7.4360   -1.3730   21.0960 C   0  0  0  0  0  0  0  0  0  0  0  0
    8.6280   -1.8590   21.6850 C   0  0  0  0  0  0  0  0  0  0  0  0
    8.4080   -2.7350   22.8800 N   0  0  0  0  0  0  0  0  0  0  0  0
    7.2400   -3.5560   22.9230 C   0  0  0  0  0  0  0  0  0  0  0  0
    6.0410   -3.0670   22.2470 C   0  0  0  0  0  0  0  0  0  0  0  0
    8.2010   -5.9840   25.7550 N   0  0  0  0  0  0  0  0  0  0  0  0
    7.9390   -4.9230   26.5120 C   0  0  0  0  0  0  0  0  0  0  0  0
    8.6150   -3.6080   26.2420 C   0  0  0  0  0  0  0  0  0  0  0  0
    9.2740   -3.5030   24.9420 N   0  0  0  0  0  0  0  0  0  0  0  0
    9.6530   -4.6970   24.2660 C   0  0  0  0  0  0  0  0  0  0  0  0
    9.4860   -5.8480   25.0490 C   0  0  0  0  0  0  0  0  0  0  0  0
  2  4  2  0
  4  5  1  0
  1  8  1  0
  6  8  2  0
  7  8  2  0
  1  9  1  0
  9 10  2  0
  3 11  1  6
 10 11  1  0
 11 12  2  0
 12 13  1  0
  9 14  1  0
 13 14  2  0
  4 15  1  0
 15 16  1  0
 16 17  1  0
  3 18  1  0
 17 18  1  0
 18 19  1  0
 15 20  1  0
 19 20  1  0
 21 22  1  0
 22 23  1  0
  3 24  1  0
 23 24  1  0
 24 25  1  0
 21 26  1  0
 25 26  1  0
M  END
