x2193-x0769
     RDKit          3D

 36 39  0  0  0  0  0  0  0  0999 V2000
    5.4740   -5.7600   26.8270 N   0  0  0  0  0  0  0  0  0  0  0  0
    3.5510   -6.5130   25.2820 O   0  0  0  0  0  0  0  0  0  0  0  0
    5.2780   -4.5910   19.9170 O   0  0  0  0  0  0  0  0  0  0  0  0
    6.3670   -4.3710   20.4790 C   0  0  0  0  0  0  0  0  0  0  0  0
    7.3440   -3.4070   19.8790 C   0  0  0  0  0  0  0  0  0  0  0  0
    5.4660   -2.5520   26.1540 F   0  0  0  0  0  0  0  0  0  0  0  0
    4.5330   -5.5120   25.6260 S   0  0  1  0  0  0  0  0  0  0  0  0
   11.1930    2.5430   23.1690 C   0  0  0  0  0  0  0  0  0  0  0  0
    9.1640    1.7490   20.9670 O   0  0  0  0  0  0  0  0  0  0  0  0
    8.6000    2.7560   23.6400 O   0  0  0  0  0  0  0  0  0  0  0  0
    9.5330    2.0110   22.8290 S   0  0  0  0  0  0  0  0  0  0  0  0
    6.6870   -4.9860   27.1210 C   0  0  0  0  0  0  0  0  0  0  0  0
    4.1330   -2.6050   26.0730 C   0  0  0  0  0  0  0  0  0  0  0  0
    3.5800   -4.0180   25.8210 C   0  0  0  0  0  0  0  0  0  0  0  0
    2.1040   -4.0340   25.7370 C   0  0  0  0  0  0  0  0  0  0  0  0
    1.5480   -2.8040   25.9000 C   0  0  0  0  0  0  0  0  0  0  0  0
    2.1100   -1.5700   26.1250 C   0  0  0  0  0  0  0  0  0  0  0  0
    3.4950   -1.2280   26.2550 C   0  0  0  0  0  0  0  0  0  0  0  0
    6.6590   -5.0360   21.6760 N   0  0  0  0  0  0  0  0  0  0  0  0
    5.9260   -6.2560   22.0500 C   0  0  0  0  0  0  0  0  0  0  0  0
    4.9070   -5.9540   22.9780 C   0  0  0  0  0  0  0  0  0  0  0  0
    5.4710   -5.3910   24.2100 N   0  0  0  0  0  0  0  0  0  0  0  0
    6.0320   -4.2040   23.8460 C   0  0  0  0  0  0  0  0  0  0  0  0
    7.0770   -4.2150   22.8070 C   0  0  0  0  0  0  0  0  0  0  0  0
    9.4780    0.3420   23.3900 C   0  0  0  0  0  0  0  0  0  0  0  0
    9.2510    0.1320   24.8570 C   0  0  0  0  0  0  0  0  0  0  0  0
    9.1880   -1.1650   25.2950 C   0  0  0  0  0  0  0  0  0  0  0  0
    9.3290   -2.2450   24.4200 C   0  0  0  0  0  0  0  0  0  0  0  0
    9.5490   -2.0500   23.0710 C   0  0  0  0  0  0  0  0  0  0  0  0
    9.6270   -0.7660   22.5350 C   0  0  0  0  0  0  0  0  0  0  0  0
    8.8300   -5.9050   26.1370 N   0  0  0  0  0  0  0  0  0  0  0  0
    7.7000   -4.9810   25.9550 C   0  0  2  0  0  0  0  0  0  0  0  0
    8.1090   -3.6670   25.8770 C   0  0  0  0  0  0  0  0  0  0  0  0
    9.2430   -3.5150   24.9400 N   0  0  0  0  0  0  0  0  0  0  0  0
    9.7130   -4.6750   24.2090 C   0  0  0  0  0  0  0  0  0  0  0  0
    9.7860   -5.7990   25.0260 C   0  0  0  0  0  0  0  0  0  0  0  0
  3  4  2  0
  4  5  1  0
  1  7  2  0
  2  7  2  0
 11  8  1  0
  9 11  2  0
 10 11  2  0
  1 12  1  0
  6 13  1  0
  7 14  1  1
 13 14  2  0
 14 15  1  0
 15 16  2  0
 16 17  1  0
 13 18  1  0
 17 18  2  0
  4 19  1  0
 19 20  1  0
 20 21  1  0
  7 22  1  0
 21 22  1  0
 22 23  1  0
 19 24  1  0
 23 24  1  0
 11 25  1  0
 25 26  2  0
 26 27  1  0
 27 28  2  0
 28 29  1  0
 25 30  1  0
 29 30  2  0
 32 12  1  1
 31 32  1  0
 32 33  1  0
 28 34  1  0
 33 34  1  0
 34 35  1  0
 31 36  1  0
 35 36  1  0
M  END
