x2193-x2052
     RDKit          3D

 38 44  0  0  0  0  0  0  0  0999 V2000
    5.6800   -1.5940   24.9640 C   0  0  0  0  0  0  0  0  0  0  0  0
    4.4820   -1.7380   25.1800 O   0  0  0  0  0  0  0  0  0  0  0  0
    6.6240   -0.9010   25.8890 N   0  0  0  0  0  0  0  0  0  0  0  0
    5.3600   -4.2120   19.7320 O   0  0  0  0  0  0  0  0  0  0  0  0
    5.3750    2.1390   30.5180 O   0  0  0  0  0  0  0  0  0  0  0  0
    6.3610   -3.4880   19.9310 C   0  0  0  0  0  0  0  0  0  0  0  0
    7.3040   -3.0600   18.8820 C   0  0  0  0  0  0  0  0  0  0  0  0
    6.1760    3.3120   30.6400 C   0  0  0  0  0  0  0  0  0  0  0  0
   11.2890    2.2980   23.2560 C   0  0  0  0  0  0  0  0  0  0  0  0
    9.4010    1.7450   21.3240 O   0  0  0  0  0  0  0  0  0  0  0  0
    8.6270    2.6580   23.3940 O   0  0  0  0  0  0  0  0  0  0  0  0
    9.6660    1.7370   22.8140 S   0  0  0  0  0  0  0  0  0  0  0  0
    7.0450   -3.4190   23.5140 C   0  0  1  0  0  0  0  0  0  0  0  0
    7.6230   -4.3680   24.4590 C   0  0  2  0  0  0  0  0  0  0  0  0
    6.6550   -3.0890   21.1910 N   0  0  0  0  0  0  0  0  0  0  0  0
    7.1050   -1.7280   21.4970 C   0  0  0  0  0  0  0  0  0  0  0  0
    6.5270   -1.2260   22.6720 C   0  0  0  0  0  0  0  0  0  0  0  0
    6.2180   -2.1560   23.6630 C   0  0  2  0  0  0  0  0  0  0  0  0
    5.6170   -3.2980   23.2440 C   0  0  1  0  0  0  0  0  0  0  0  0
    6.4100   -3.8670   22.2610 C   0  0  2  0  0  0  0  0  0  0  0  0
    6.2640    1.9810   28.3380 N   0  0  0  0  0  0  0  0  0  0  0  0
    6.5420    1.2120   27.2500 C   0  0  0  0  0  0  0  0  0  0  0  0
    6.2570   -0.2190   27.1250 C   0  0  0  0  0  0  0  0  0  0  0  0
    5.6120   -0.8800   28.2660 C   0  0  0  0  0  0  0  0  0  0  0  0
    5.3230    0.0330   29.4530 C   0  0  0  0  0  0  0  0  0  0  0  0
    5.6720    1.3900   29.3960 C   0  0  0  0  0  0  0  0  0  0  0  0
    9.4350    0.1470   23.5300 C   0  0  0  0  0  0  0  0  0  0  0  0
    9.1430    0.0160   24.8600 C   0  0  0  0  0  0  0  0  0  0  0  0
    8.9070   -1.2190   25.4530 C   0  0  0  0  0  0  0  0  0  0  0  0
    8.9680   -2.3580   24.6760 C   0  0  0  0  0  0  0  0  0  0  0  0
    9.2980   -2.2860   23.2980 C   0  0  0  0  0  0  0  0  0  0  0  0
    9.5270   -1.0170   22.7510 C   0  0  0  0  0  0  0  0  0  0  0  0
    9.0580   -6.1410   26.6150 N   0  0  0  0  0  0  0  0  0  0  0  0
    8.3990   -4.9970   27.3120 C   0  0  0  0  0  0  0  0  0  0  0  0
    8.3010   -3.7400   26.6650 C   0  0  0  0  0  0  0  0  0  0  0  0
    8.6540   -3.7430   25.3220 C   0  0  1  0  0  0  0  0  0  0  0  0
    8.9460   -4.9100   24.6300 C   0  0  1  0  0  0  0  0  0  0  0  0
    9.7070   -5.9540   25.2850 C   0  0  0  0  0  0  0  0  0  0  0  0
  1  2  2  0
  1  3  1  0
  4  6  2  0
  6  7  1  0
  5  8  1  0
 12  9  1  0
 10 12  2  0
 11 12  2  0
 13 14  1  0
  6 15  1  0
 15 16  1  0
 16 17  1  0
 18  1  1  1
 13 18  1  0
 17 18  1  0
 13 19  1  0
 18 19  1  0
 13 20  1  6
 20 15  1  6
 19 20  1  6
 21 22  2  0
  3 23  1  0
 22 23  1  0
 23 24  2  0
 24 25  1  0
  5 26  1  0
 21 26  1  0
 25 26  2  0
 12 27  1  0
 27 28  2  0
 28 29  1  0
 29 30  2  0
 30 31  1  0
 27 32  1  0
 31 32  2  0
 33 34  1  0
 34 35  1  0
 14 36  1  0
 36 30  1  6
 35 36  1  0
 14 37  1  6
 36 37  1  0
 33 38  1  0
 37 38  1  1
M  END
