x2193-x0786
     RDKit          3D

 36 41  0  0  0  0  0  0  0  0999 V2000
    6.8600   -4.3640   21.9220 N   0  0  0  0  0  0  0  0  0  0  0  0
    7.3820   -3.3980   19.6220 C   0  0  0  0  0  0  0  0  0  0  0  0
    5.5390   -4.8460   20.0330 O   0  0  0  0  0  0  0  0  0  0  0  0
    6.5380   -4.2560   20.5390 C   0  0  0  0  0  0  0  0  0  0  0  0
    3.8370   -8.0450   24.8810 O   0  0  0  0  0  0  0  0  0  0  0  0
    3.2960   -6.9040   24.1990 C   0  0  0  0  0  0  0  0  0  0  0  0
   11.1690    2.4170   23.1730 C   0  0  0  0  0  0  0  0  0  0  0  0
    9.3760    1.8750   21.2700 O   0  0  0  0  0  0  0  0  0  0  0  0
    8.5310    2.7250   23.5040 O   0  0  0  0  0  0  0  0  0  0  0  0
    9.5280    1.9290   22.7040 S   0  0  0  0  0  0  0  0  0  0  0  0
    8.1780   -4.8870   22.2870 C   0  0  0  0  0  0  0  0  0  0  0  0
    8.3340   -5.0240   23.8010 C   0  0  1  0  0  0  0  0  0  0  0  0
    5.8990   -4.4000   23.0070 C   0  0  0  0  0  0  0  0  0  0  0  0
    5.0970   -5.5310   23.1110 C   0  0  0  0  0  0  0  0  0  0  0  0
    4.1610   -5.6700   24.1090 C   0  0  0  0  0  0  0  0  0  0  0  0
    4.0540   -4.6100   25.0250 C   0  0  0  0  0  0  0  0  0  0  0  0
    4.8460   -3.5170   24.9030 C   0  0  0  0  0  0  0  0  0  0  0  0
    5.7960   -3.3780   23.8870 C   0  0  0  0  0  0  0  0  0  0  0  0
    1.3890   -5.6790   23.1950 C   0  0  0  0  0  0  0  0  0  0  0  0
    0.5230   -5.1510   24.2620 C   0  0  0  0  0  0  0  0  0  0  0  0
   -0.9330   -6.0380   24.2990 S   0  0  0  0  0  0  0  0  0  0  0  0
   -0.0690   -7.4530   24.9370 C   0  0  0  0  0  0  0  0  0  0  0  0
    1.1070   -7.9730   24.1140 C   0  0  0  0  0  0  0  0  0  0  0  0
    2.0150   -6.9260   23.6290 N   0  0  0  0  0  0  0  0  0  0  0  0
    9.3560    0.2750   23.2530 C   0  0  0  0  0  0  0  0  0  0  0  0
    8.9300   -0.0170   24.5520 C   0  0  0  0  0  0  0  0  0  0  0  0
    8.7510   -1.2840   24.9970 C   0  0  0  0  0  0  0  0  0  0  0  0
    8.9890   -2.3720   24.1710 C   0  0  0  0  0  0  0  0  0  0  0  0
    9.4340   -2.1070   22.8830 C   0  0  0  0  0  0  0  0  0  0  0  0
    9.6130   -0.8030   22.4320 C   0  0  0  0  0  0  0  0  0  0  0  0
    9.1790   -6.1270   26.0350 N   0  0  0  0  0  0  0  0  0  0  0  0
    8.2300   -5.1800   26.6320 C   0  0  0  0  0  0  0  0  0  0  0  0
    8.1420   -3.9320   25.9560 C   0  0  0  0  0  0  0  0  0  0  0  0
    8.7480   -3.7730   24.7030 C   0  0  1  0  0  0  0  0  0  0  0  0
    9.6170   -4.6670   24.2660 C   0  0  1  0  0  0  0  0  0  0  0  0
    9.2960   -5.9490   24.5830 C   0  0  2  0  0  0  0  0  0  0  0  0
  1  4  1  0
  2  4  1  0
  3  4  2  0
  5  6  2  0
 10  7  1  0
  8 10  2  0
  9 10  2  0
  1 11  1  0
 12 11  1  6
  1 13  1  0
 13 14  2  0
  6 15  1  0
 14 15  1  0
 15 16  2  0
 16 17  1  0
 13 18  1  0
 17 18  2  0
 19 20  1  0
 20 21  1  0
 21 22  1  0
 22 23  1  0
  6 24  1  0
 19 24  1  0
 23 24  1  0
 10 25  1  0
 25 26  2  0
 26 27  1  0
 27 28  2  0
 28 29  1  0
 25 30  1  0
 29 30  2  0
 31 32  1  0
 32 33  1  0
 12 34  1  0
 34 28  1  6
 33 34  1  0
 12 35  1  0
 34 35  1  0
 12 36  1  0
 36 31  1  1
 35 36  1  1
M  END
