x2193-x0995
     RDKit          3D

 27 29  0  0  0  0  0  0  0  0999 V2000
   10.9280    2.4410   23.1780 C   0  0  0  0  0  0  0  0  0  0  0  0
    9.3710    1.7150   21.1470 O   0  0  0  0  0  0  0  0  0  0  0  0
    8.2390    2.4850   23.2470 N   0  0  0  0  0  0  0  0  0  0  0  0
    9.3950    1.7740   22.5730 S   0  0  2  0  0  0  0  0  0  0  0  0
    3.6990    2.1100   19.6140 N   0  0  0  0  0  0  0  0  0  0  0  0
    6.9360    2.0110   22.8620 C   0  0  0  0  0  0  0  0  0  0  0  0
    6.4210    2.5500   21.6820 C   0  0  0  0  0  0  0  0  0  0  0  0
    4.9300    2.5460   21.5870 C   0  0  0  0  0  0  0  0  0  0  0  0
    4.2610    3.1100   20.3850 C   0  0  0  0  0  0  0  0  0  0  0  0
    9.3520    0.0910   23.1750 C   0  0  0  0  0  0  0  0  0  0  0  0
    8.7630   -0.0250   24.5550 C   0  0  0  0  0  0  0  0  0  0  0  0
    8.7110   -1.2970   24.9860 C   0  0  0  0  0  0  0  0  0  0  0  0
    9.1390   -2.3390   24.2750 C   0  0  0  0  0  0  0  0  0  0  0  0
    9.6880   -2.1490   22.9890 C   0  0  0  0  0  0  0  0  0  0  0  0
    9.8970   -0.9920   22.2210 C   0  0  0  0  0  0  0  0  0  0  0  0
    8.1780   -5.9040   25.7460 N   0  0  0  0  0  0  0  0  0  0  0  0
    8.8500   -5.0920   26.7420 C   0  0  0  0  0  0  0  0  0  0  0  0
    9.0400   -3.7790   26.3020 C   0  0  0  0  0  0  0  0  0  0  0  0
    9.0210   -3.6070   24.8400 N   0  0  0  0  0  0  0  0  0  0  0  0
    9.5560   -4.7270   24.1110 C   0  0  0  0  0  0  0  0  0  0  0  0
    8.9320   -5.9340   24.6220 C   0  0  0  0  0  0  0  0  0  0  0  0
    4.6160    1.1920   19.1840 C   0  0  0  0  0  0  0  0  0  0  0  0
    5.2890    1.3270   17.9750 C   0  0  0  0  0  0  0  0  0  0  0  0
    6.2730    0.2930   17.6300 N   0  0  0  0  0  0  0  0  0  0  0  0
    6.4310   -0.7930   18.6110 C   0  0  0  0  0  0  0  0  0  0  0  0
    5.7700   -0.8950   19.7470 N   0  0  0  0  0  0  0  0  0  0  0  0
    4.8980    0.0940   19.9850 C   0  0  0  0  0  0  0  0  0  0  0  0
  4  1  1  6
  2  4  2  0
  3  4  2  0
  3  6  1  0
  6  7  1  0
  7  8  1  0
  5  9  1  0
  8  9  1  0
  4 10  1  0
 10 11  2  0
 11 12  1  0
 12 13  2  0
 13 14  1  0
 10 15  1  0
 14 15  2  0
 16 17  1  0
 17 18  1  0
 13 19  1  0
 18 19  1  0
 19 20  1  0
 16 21  1  0
 20 21  1  0
  5 22  1  0
 22 23  2  0
 23 24  1  0
 24 25  2  0
 25 26  1  0
 22 27  1  0
 26 27  2  0
M  END
